=
 OpenBabel11122411313D

 37 44  0  0  1  0  0  0  0  0999 V2000
  187.1460  177.5320  139.7630 C   0  0  0  0  0  2  0  0  0  0  0  0
  190.1460  177.4810  143.2430 C   0  0  0  0  0  0  0  0  0  0  0  0
  186.1610  178.1410  144.2820 C   0  0  0  0  0  0  0  0  0  0  0  0
  187.4360  178.0040  138.4090 N   0  0  0  0  0  0  0  0  0  0  0  0
  183.5690  178.4350  141.4580 O   0  0  0  0  0  0  0  0  0  0  0  0
  188.4440  177.8040  145.0160 C   0  0  0  0  0  0  0  0  0  0  0  0
  185.5410  178.3530  143.0510 C   0  0  0  0  0  0  0  0  0  0  0  0
  185.0250  178.1110  138.0430 C   0  0  0  0  0  0  0  0  0  0  0  0
  187.4960  177.9920  144.0370 C   0  0  0  0  0  0  0  0  0  0  0  0
  184.0530  178.5120  142.7810 C   0  0  0  0  0  0  0  0  0  0  0  0
  188.0170  177.7670  146.3490 C   0  0  0  0  0  3  0  0  0  0  0  0
  186.3770  178.5290  137.5520 C   0  0  0  0  0  2  0  0  0  0  0  0
  187.7970  178.1150  142.7540 N   0  0  0  0  0  0  0  0  0  0  0  0
  190.1390  175.9940  142.9350 C   0  0  0  0  0  1  0  0  0  0  0  0
  184.3230  178.3950  145.9850 C   0  0  0  0  0  3  0  0  0  0  0  0
  186.6430  177.9320  146.6340 C   0  0  0  0  0  3  0  0  0  0  0  0
  189.1770  178.1990  142.2690 C   0  0  0  0  0  2  0  0  0  0  0  0
  184.3620  178.8420  139.1750 C   0  0  1  0  0  3  0  0  0  0  0  0
  184.4290  178.0850  140.4060 C   0  0  1  0  0  3  0  0  0  0  0  0
  185.6980  178.1270  145.6000 C   0  0  0  0  0  0  0  0  0  0  0  0
  186.6340  178.3600  142.1130 C   0  0  0  0  0  0  0  0  0  0  0  0
  189.7830  177.6790  144.6260 O   0  0  0  0  0  0  0  0  0  0  0  0
  183.1070  178.7050  143.7380 C   0  0  0  0  0  0  0  0  0  0  0  0
  191.5470  178.0110  143.0200 C   0  0  0  0  0  1  0  0  0  0  0  0
  185.3070  179.2560  140.2490 N   0  0  1  0  0  0  0  0  0  0  0  0
  184.4620  177.1640  137.5190 O   0  0  0  0  0  0  0  0  0  0  0  0
  186.6060  178.6820  140.6270 C   0  0  2  0  0  3  0  0  0  0  0  0
  183.2760  178.6420  145.2070 C   0  0  0  0  0  3  0  0  0  0  0  0
  180.6330  178.4700  144.0860 C   0  0  0  0  0  3  0  0  0  0  0  0
  181.7030  178.9740  143.3320 C   0  0  0  0  0  0  0  0  0  0  0  0
  181.4130  179.7720  142.2150 C   0  0  0  0  0  3  0  0  0  0  0  0
  179.7260  181.0190  140.4640 Cl  0  0  0  0  0  0  0  0  0  0  0  0
  179.0590  179.5000  142.6390 C   0  0  0  0  0  3  0  0  0  0  0  0
  180.0890  180.0330  141.8630 C   0  0  0  0  0  0  0  0  0  0  0  0
  179.3490  178.7380  143.7260 N   0  0  0  0  0  0  0  0  0  0  0  0
  189.8090  177.5810  138.5990 C   0  0  0  0  0  2  0  0  0  0  0  0
  188.7820  178.0880  137.9270 C   0  0  0  0  0  3  0  0  0  0  0  0
  1 27  1  0  0  0  0
  2 22  1  0  0  0  0
  3 20  1  0  0  0  0
  4  1  1  0  0  0  0
  5 10  1  0  0  0  0
  6 11  2  0  0  0  0
  7  3  1  0  0  0  0
  9  3  2  0  0  0  0
  9  6  1  0  0  0  0
 10  7  1  0  0  0  0
 10 23  2  0  0  0  0
 11 16  1  0  0  0  0
 12  8  1  0  0  0  0
 12  4  1  0  0  0  0
 13  9  1  0  0  0  0
 14  2  1  0  0  0  0
 17 13  1  0  0  0  0
 17  2  1  0  0  0  0
 18  8  1  6  0  0  0
 18 25  1  0  0  0  0
 18 19  1  0  0  0  0
 19  5  1  1  0  0  0
 20 15  1  0  0  0  0
 20 16  2  0  0  0  0
 21 13  1  0  0  0  0
 21  7  2  0  0  0  0
 22  6  1  0  0  0  0
 23 28  1  0  0  0  0
 24  2  1  0  0  0  0
 25 19  1  0  0  0  0
 25 27  1  0  0  0  0
 26  8  2  0  0  0  0
 27 21  1  0  0  0  0
 28 15  2  0  0  0  0
 30 23  1  0  0  0  0
 30 29  2  0  0  0  0
 31 30  1  0  0  0  0
 32 34  1  0  0  0  0
 33 35  2  0  0  0  0
 34 31  2  0  0  0  0
 34 33  1  0  0  0  0
 35 29  1  0  0  0  0
 37  4  1  0  0  0  0
 37 36  2  0  0  0  0
M  END
>  <MODEL>
1

>  <REMARK>
 VINA RESULT:     -11.1      0.000      0.000
  Name = 
  2 active torsions:
  status: ('A' for Active; 'I' for Inactive)
    1  A    between atoms: N_4  and  C_37
    2  A    between atoms: C_23  and  C_30
                            x       y       z     vdW  Elec       q    Type
                         _______ _______ _______ _____ _____    ______ ____

>  <TORSDO>
F 2

$$$$
=
 OpenBabel11122411313D

 37 44  0  0  1  0  0  0  0  0999 V2000
  189.0120  176.8130  138.7150 C   0  0  0  0  0  2  0  0  0  0  0  0
  190.2150  177.0170  143.1460 C   0  0  0  0  0  0  0  0  0  0  0  0
  186.2940  178.1370  142.2680 C   0  0  0  0  0  0  0  0  0  0  0  0
  189.9090  177.0620  137.5880 N   0  0  0  0  0  0  0  0  0  0  0  0
  185.2110  178.2320  138.5810 O   0  0  0  0  0  0  0  0  0  0  0  0
  187.9820  177.7250  143.9560 C   0  0  0  0  0  0  0  0  0  0  0  0
  186.2890  178.2200  140.8760 C   0  0  0  0  0  0  0  0  0  0  0  0
  187.9200  177.3080  136.1950 C   0  0  0  0  0  0  0  0  0  0  0  0
  187.5740  177.8480  142.6480 C   0  0  0  0  0  0  0  0  0  0  0  0
  185.0930  178.4580  139.9680 C   0  0  0  0  0  0  0  0  0  0  0  0
  187.0280  177.9130  144.9640 C   0  0  0  0  0  3  0  0  0  0  0  0
  189.3950  177.5430  136.3080 C   0  0  0  0  0  2  0  0  0  0  0  0
  188.4040  177.7620  141.6210 N   0  0  0  0  0  0  0  0  0  0  0  0
  190.1400  175.5070  143.0060 C   0  0  0  0  0  1  0  0  0  0  0  0
  183.9590  178.7780  142.9630 C   0  0  0  0  0  3  0  0  0  0  0  0
  185.6990  178.2270  144.6020 C   0  0  0  0  0  3  0  0  0  0  0  0
  189.8570  177.6650  141.7830 C   0  0  0  0  0  2  0  0  0  0  0  0
  186.9440  178.2440  136.8480 C   0  0  1  0  0  3  0  0  0  0  0  0
  186.3800  177.6680  138.0490 C   0  0  1  0  0  3  0  0  0  0  0  0
  185.3190  178.3470  143.2450 C   0  0  0  0  0  0  0  0  0  0  0  0
  187.6670  178.0060  140.5150 C   0  0  0  0  0  0  0  0  0  0  0  0
  189.3300  177.4390  144.2040 O   0  0  0  0  0  0  0  0  0  0  0  0
  183.8660  178.8610  140.3920 C   0  0  0  0  0  0  0  0  0  0  0  0
  191.6350  177.3960  143.5090 C   0  0  0  0  0  1  0  0  0  0  0  0
  187.3900  178.7300  138.1840 N   0  0  1  0  0  0  0  0  0  0  0  0
  187.5110  176.3450  135.5680 O   0  0  0  0  0  0  0  0  0  0  0  0
  188.3160  178.1130  139.1440 C   0  0  2  0  0  3  0  0  0  0  0  0
  183.3860  178.9940  141.7860 C   0  0  0  0  0  3  0  0  0  0  0  0
  182.0100  178.1670  138.8520 C   0  0  0  0  0  3  0  0  0  0  0  0
  182.8170  179.1810  139.3890 C   0  0  0  0  0  0  0  0  0  0  0  0
  182.5780  180.5040  138.9900 C   0  0  0  0  0  3  0  0  0  0  0  0
  181.2810  182.4370  137.5570 Cl  0  0  0  0  0  0  0  0  0  0  0  0
  180.8030  179.7440  137.5510 C   0  0  0  0  0  3  0  0  0  0  0  0
  181.5730  180.7880  138.0650 C   0  0  0  0  0  0  0  0  0  0  0  0
  181.0340  178.4660  137.9530 N   0  0  0  0  0  0  0  0  0  0  0  0
  191.9000  176.5990  138.8790 C   0  0  0  0  0  2  0  0  0  0  0  0
  191.3310  176.9670  137.7380 C   0  0  0  0  0  3  0  0  0  0  0  0
  1 27  1  0  0  0  0
  2 24  1  0  0  0  0
  2 22  1  0  0  0  0
  3  9  2  0  0  0  0
  3 20  1  0  0  0  0
  4 37  1  0  0  0  0
  4  1  1  0  0  0  0
  5 10  1  0  0  0  0
  6 22  1  0  0  0  0
  6 11  2  0  0  0  0
  7  3  1  0  0  0  0
  8 12  1  0  0  0  0
  9  6  1  0  0  0  0
 10 23  2  0  0  0  0
 10  7  1  0  0  0  0
 12  4  1  0  0  0  0
 13 17  1  0  0  0  0
 13  9  1  0  0  0  0
 14  2  1  0  0  0  0
 15 20  1  0  0  0  0
 16 11  1  0  0  0  0
 17  2  1  0  0  0  0
 18  8  1  1  0  0  0
 18 19  1  0  0  0  0
 18 25  1  0  0  0  0
 19 25  1  0  0  0  0
 19  5  1  6  0  0  0
 20 16  2  0  0  0  0
 21  7  2  0  0  0  0
 21 13  1  0  0  0  0
 23 28  1  0  0  0  0
 25 27  1  0  0  0  0
 26  8  2  0  0  0  0
 27 21  1  0  0  0  0
 28 15  2  0  0  0  0
 29 30  1  0  0  0  0
 30 23  1  0  0  0  0
 31 30  2  0  0  0  0
 32 34  1  0  0  0  0
 33 35  1  0  0  0  0
 33 34  2  0  0  0  0
 34 31  1  0  0  0  0
 35 29  2  0  0  0  0
 37 36  2  0  0  0  0
M  END
>  <MODEL>
2

>  <REMARK>
 VINA RESULT:     -10.3      2.080      3.038
  Name = 
  2 active torsions:
  status: ('A' for Active; 'I' for Inactive)
    1  A    between atoms: N_4  and  C_37
    2  A    between atoms: C_23  and  C_30
                            x       y       z     vdW  Elec       q    Type
                         _______ _______ _______ _____ _____    ______ ____

>  <TORSDO>
F 2

$$$$
=
 OpenBabel11122411313D

 37 44  0  0  1  0  0  0  0  0999 V2000
  188.3220  178.0570  140.2520 C   0  0  0  0  0  2  0  0  0  0  0  0
  183.7550  178.5600  140.2230 C   0  0  0  0  0  0  0  0  0  0  0  0
  185.5440  178.3730  143.9860 C   0  0  0  0  0  0  0  0  0  0  0  0
  189.0940  177.3210  139.2500 N   0  0  0  0  0  0  0  0  0  0  0  0
  189.3300  177.7280  144.1700 O   0  0  0  0  0  0  0  0  0  0  0  0
  183.5240  178.6890  142.6880 C   0  0  0  0  0  0  0  0  0  0  0  0
  186.8500  177.9760  143.7000 C   0  0  0  0  0  0  0  0  0  0  0  0
  190.9460  177.3090  140.8390 C   0  0  0  0  0  0  0  0  0  0  0  0
  184.8610  178.3840  142.8040 C   0  0  0  0  0  0  0  0  0  0  0  0
  188.0170  177.8680  144.6680 C   0  0  0  0  0  0  0  0  0  0  0  0
  182.8160  179.0040  143.8540 C   0  0  0  0  0  3  0  0  0  0  0  0
  190.3800  176.7160  139.5860 C   0  0  0  0  0  2  0  0  0  0  0  0
  185.6060  178.0030  141.7790 N   0  0  0  0  0  0  0  0  0  0  0  0
  184.1340  179.9590  139.7730 C   0  0  0  0  0  1  0  0  0  0  0  0
  185.4620  178.5660  146.4960 C   0  0  0  0  0  3  0  0  0  0  0  0
  183.4930  178.9870  145.0940 C   0  0  0  0  0  3  0  0  0  0  0  0
  185.0490  177.7380  140.4500 C   0  0  0  0  0  2  0  0  0  0  0  0
  190.4680  176.8490  142.1860 C   0  0  1  0  0  3  0  0  0  0  0  0
  189.5810  177.8160  142.7940 C   0  0  1  0  0  3  0  0  0  0  0  0
  184.8690  178.6650  145.1730 C   0  0  0  0  0  0  0  0  0  0  0  0
  186.8270  177.7200  142.2820 C   0  0  0  0  0  0  0  0  0  0  0  0
  182.9440  178.6490  141.4140 O   0  0  0  0  0  0  0  0  0  0  0  0
  187.9090  177.9220  146.0220 C   0  0  0  0  0  0  0  0  0  0  0  0
  182.9460  177.9060  139.1230 C   0  0  0  0  0  1  0  0  0  0  0  0
  189.0040  176.5810  142.2380 N   0  0  1  0  0  0  0  0  0  0  0  0
  191.8010  178.1750  140.7620 O   0  0  0  0  0  0  0  0  0  0  0  0
  187.9220  177.1280  141.4080 C   0  0  2  0  0  3  0  0  0  0  0  0
  186.7080  178.2480  146.8240 C   0  0  0  0  0  3  0  0  0  0  0  0
  189.2690  178.3300  148.0910 C   0  0  0  0  0  3  0  0  0  0  0  0
  189.1110  177.6760  146.8600 C   0  0  0  0  0  0  0  0  0  0  0  0
  190.0910  176.7530  146.4650 C   0  0  0  0  0  3  0  0  0  0  0  0
  192.4300  175.3760  146.7800 Cl  0  0  0  0  0  0  0  0  0  0  0  0
  191.3190  177.2010  148.4870 C   0  0  0  0  0  3  0  0  0  0  0  0
  191.2010  176.5180  147.2760 C   0  0  0  0  0  0  0  0  0  0  0  0
  190.3590  178.0840  148.8670 N   0  0  0  0  0  0  0  0  0  0  0  0
  187.4010  177.5700  137.5420 C   0  0  0  0  0  2  0  0  0  0  0  0
  188.5580  177.0590  137.9480 C   0  0  0  0  0  3  0  0  0  0  0  0
  1 27  1  0  0  0  0
  2 17  1  0  0  0  0
  2 22  1  0  0  0  0
  3 20  1  0  0  0  0
  4 12  1  0  0  0  0
  4  1  1  0  0  0  0
  5 10  1  0  0  0  0
  6  9  1  0  0  0  0
  6 11  2  0  0  0  0
  7  3  1  0  0  0  0
  7 10  1  0  0  0  0
  9  3  2  0  0  0  0
 10 23  2  0  0  0  0
 11 16  1  0  0  0  0
 12  8  1  0  0  0  0
 13 21  1  0  0  0  0
 13  9  1  0  0  0  0
 14  2  1  0  0  0  0
 15 28  2  0  0  0  0
 16 20  2  0  0  0  0
 17 13  1  0  0  0  0
 18  8  1  6  0  0  0
 18 25  1  0  0  0  0
 18 19  1  0  0  0  0
 19  5  1  1  0  0  0
 20 15  1  0  0  0  0
 21  7  2  0  0  0  0
 22  6  1  0  0  0  0
 23 28  1  0  0  0  0
 23 30  1  0  0  0  0
 24  2  1  0  0  0  0
 25 19  1  0  0  0  0
 26  8  2  0  0  0  0
 27 25  1  0  0  0  0
 27 21  1  0  0  0  0
 29 35  1  0  0  0  0
 30 29  2  0  0  0  0
 31 30  1  0  0  0  0
 31 34  2  0  0  0  0
 32 34  1  0  0  0  0
 33 35  2  0  0  0  0
 34 33  1  0  0  0  0
 36 37  2  0  0  0  0
 37  4  1  0  0  0  0
M  END
>  <MODEL>
3

>  <REMARK>
 VINA RESULT:      -9.6      3.198      6.859
  Name = 
  2 active torsions:
  status: ('A' for Active; 'I' for Inactive)
    1  A    between atoms: N_4  and  C_37
    2  A    between atoms: C_23  and  C_30
                            x       y       z     vdW  Elec       q    Type
                         _______ _______ _______ _____ _____    ______ ____

>  <TORSDO>
F 2

$$$$
=
 OpenBabel11122411313D

 37 44  0  0  1  0  0  0  0  0999 V2000
  186.9630  178.6280  144.8520 C   0  0  0  0  0  2  0  0  0  0  0  0
  191.2260  177.2390  143.8450 C   0  0  0  0  0  0  0  0  0  0  0  0
  188.6680  177.7720  140.5940 C   0  0  0  0  0  0  0  0  0  0  0  0
  186.2270  178.2730  146.0650 N   0  0  0  0  0  0  0  0  0  0  0  0
  185.0070  178.7140  141.2960 O   0  0  0  0  0  0  0  0  0  0  0  0
  190.8960  177.2500  141.3890 C   0  0  0  0  0  0  0  0  0  0  0  0
  187.4200  177.9390  141.1940 C   0  0  0  0  0  0  0  0  0  0  0  0
  184.1990  179.0030  144.9220 C   0  0  0  0  0  0  0  0  0  0  0  0
  189.5610  177.5120  141.5950 C   0  0  0  0  0  0  0  0  0  0  0  0
  186.1100  178.3080  140.5150 C   0  0  0  0  0  0  0  0  0  0  0  0
  191.3710  177.2450  140.0720 C   0  0  0  0  0  3  0  0  0  0  0  0
  184.7680  178.2390  146.0770 C   0  0  0  0  0  2  0  0  0  0  0  0
  188.9930  177.4710  142.7890 N   0  0  0  0  0  0  0  0  0  0  0  0
  191.5450  178.6740  144.2230 C   0  0  0  0  0  1  0  0  0  0  0  0
  188.2200  177.9010  138.1200 C   0  0  0  0  0  3  0  0  0  0  0  0
  190.4680  177.4980  139.0150 C   0  0  0  0  0  3  0  0  0  0  0  0
  189.7000  177.0100  143.9870 C   0  0  0  0  0  2  0  0  0  0  0  0
  184.1220  178.3820  143.5570 C   0  0  1  0  0  3  0  0  0  0  0  0
  185.1460  178.9040  142.6780 C   0  0  1  0  0  3  0  0  0  0  0  0
  189.1010  177.7590  139.2670 C   0  0  0  0  0  0  0  0  0  0  0  0
  187.6770  177.7040  142.5920 C   0  0  0  0  0  0  0  0  0  0  0  0
  191.6980  176.9860  142.5050 O   0  0  0  0  0  0  0  0  0  0  0  0
  185.9060  178.3060  139.1720 C   0  0  0  0  0  0  0  0  0  0  0  0
  191.9510  176.3190  144.8060 C   0  0  0  0  0  1  0  0  0  0  0  0
  185.3060  177.5440  143.2190 N   0  0  1  0  0  0  0  0  0  0  0  0
  183.7970  180.1420  145.0940 O   0  0  0  0  0  0  0  0  0  0  0  0
  186.6800  177.6100  143.7370 C   0  0  2  0  0  3  0  0  0  0  0  0
  186.9100  178.1140  138.1010 C   0  0  0  0  0  3  0  0  0  0  0  0
  183.8630  177.5780  137.9090 C   0  0  0  0  0  3  0  0  0  0  0  0
  184.5410  178.5630  138.6410 C   0  0  0  0  0  0  0  0  0  0  0  0
  183.8830  179.7750  138.8970 C   0  0  0  0  0  3  0  0  0  0  0  0
  181.7750  181.5050  138.7180 Cl  0  0  0  0  0  0  0  0  0  0  0  0
  181.9640  178.9830  137.6780 C   0  0  0  0  0  3  0  0  0  0  0  0
  182.5930  179.9900  138.4110 C   0  0  0  0  0  0  0  0  0  0  0  0
  182.6050  177.8070  137.4460 N   0  0  0  0  0  0  0  0  0  0  0  0
  188.2360  177.7990  147.3250 C   0  0  0  0  0  2  0  0  0  0  0  0
  186.9110  177.8230  147.2410 C   0  0  0  0  0  3  0  0  0  0  0  0
  1  4  1  0  0  0  0
  2 17  1  0  0  0  0
  2 14  1  0  0  0  0
  2 24  1  0  0  0  0
  3  7  1  0  0  0  0
  3  9  1  0  0  0  0
  4 12  1  0  0  0  0
  4 37  1  0  0  0  0
  6  9  2  0  0  0  0
  6 22  1  0  0  0  0
  7 21  2  0  0  0  0
  8 26  2  0  0  0  0
  8 12  1  0  0  0  0
  9 13  1  0  0  0  0
 10  7  1  0  0  0  0
 10  5  1  0  0  0  0
 11  6  1  0  0  0  0
 13 17  1  0  0  0  0
 15 20  1  0  0  0  0
 16 20  1  0  0  0  0
 16 11  2  0  0  0  0
 18  8  1  1  0  0  0
 19  5  1  6  0  0  0
 19 25  1  0  0  0  0
 19 18  1  0  0  0  0
 20  3  2  0  0  0  0
 21 13  1  0  0  0  0
 21 27  1  0  0  0  0
 22  2  1  0  0  0  0
 23 10  2  0  0  0  0
 25 18  1  0  0  0  0
 25 27  1  0  0  0  0
 27  1  1  0  0  0  0
 28 15  2  0  0  0  0
 28 23  1  0  0  0  0
 29 30  1  0  0  0  0
 30 31  2  0  0  0  0
 30 23  1  0  0  0  0
 33 34  2  0  0  0  0
 34 32  1  0  0  0  0
 34 31  1  0  0  0  0
 35 33  1  0  0  0  0
 35 29  2  0  0  0  0
 37 36  2  0  0  0  0
M  END
>  <MODEL>
4

>  <REMARK>
 VINA RESULT:      -9.6      2.385      5.580
  Name = 
  2 active torsions:
  status: ('A' for Active; 'I' for Inactive)
    1  A    between atoms: N_4  and  C_37
    2  A    between atoms: C_23  and  C_30
                            x       y       z     vdW  Elec       q    Type
                         _______ _______ _______ _____ _____    ______ ____

>  <TORSDO>
F 2

$$$$
=
 OpenBabel11122411313D

 37 44  0  0  1  0  0  0  0  0999 V2000
  188.2480  177.2310  140.3670 C   0  0  0  0  0  2  0  0  0  0  0  0
  190.1810  177.4990  144.5270 C   0  0  0  0  0  0  0  0  0  0  0  0
  186.0790  178.2380  144.3720 C   0  0  0  0  0  0  0  0  0  0  0  0
  188.9080  177.5810  139.1090 N   0  0  0  0  0  0  0  0  0  0  0  0
  184.3650  178.2720  140.9310 O   0  0  0  0  0  0  0  0  0  0  0  0
  188.0670  177.9740  145.7300 C   0  0  0  0  0  0  0  0  0  0  0  0
  185.8240  178.3370  143.0050 C   0  0  0  0  0  0  0  0  0  0  0  0
  186.6920  177.6480  138.0880 C   0  0  0  0  0  0  0  0  0  0  0  0
  187.4270  178.0710  144.5160 C   0  0  0  0  0  0  0  0  0  0  0  0
  184.4700  178.4680  142.3240 C   0  0  0  0  0  0  0  0  0  0  0  0
  187.2910  178.0550  146.8930 C   0  0  0  0  0  3  0  0  0  0  0  0
  188.1350  178.0250  137.9520 C   0  0  0  0  0  2  0  0  0  0  0  0
  188.0700  178.0800  143.3600 N   0  0  0  0  0  0  0  0  0  0  0  0
  190.2270  175.9910  144.3580 C   0  0  0  0  0  1  0  0  0  0  0  0
  183.8520  178.6380  145.4770 C   0  0  0  0  0  3  0  0  0  0  0  0
  185.8950  178.2400  146.7750 C   0  0  0  0  0  3  0  0  0  0  0  0
  189.5310  178.1250  143.2660 C   0  0  0  0  0  2  0  0  0  0  0  0
  185.7610  178.4750  138.9260 C   0  0  1  0  0  3  0  0  0  0  0  0
  185.4720  177.8320  140.1900 C   0  0  1  0  0  3  0  0  0  0  0  0
  185.2740  178.3400  145.5080 C   0  0  0  0  0  0  0  0  0  0  0  0
  187.1320  178.2640  142.4050 C   0  0  0  0  0  0  0  0  0  0  0  0
  189.4580  177.8190  145.7340 O   0  0  0  0  0  0  0  0  0  0  0  0
  183.3030  178.7430  142.9640 C   0  0  0  0  0  0  0  0  0  0  0  0
  191.6010  178.0100  144.6510 C   0  0  0  0  0  1  0  0  0  0  0  0
  186.3850  178.9860  140.1780 N   0  0  1  0  0  0  0  0  0  0  0  0
  186.2730  176.6570  137.5130 O   0  0  0  0  0  0  0  0  0  0  0  0
  187.5180  178.4520  140.9460 C   0  0  2  0  0  3  0  0  0  0  0  0
  183.0630  178.8110  144.4230 C   0  0  0  0  0  3  0  0  0  0  0  0
  180.8040  178.7850  142.7420 C   0  0  0  0  0  3  0  0  0  0  0  0
  182.0700  178.9700  142.1670 C   0  0  0  0  0  0  0  0  0  0  0  0
  182.1400  179.4170  140.8390 C   0  0  0  0  0  3  0  0  0  0  0  0
  181.0560  180.1950  138.4540 Cl  0  0  0  0  0  0  0  0  0  0  0  0
  179.7340  179.4400  140.7270 C   0  0  0  0  0  3  0  0  0  0  0  0
  180.9710  179.6480  140.1140 C   0  0  0  0  0  0  0  0  0  0  0  0
  179.6770  179.0180  142.0180 N   0  0  0  0  0  0  0  0  0  0  0  0
  191.1280  177.1600  139.9670 C   0  0  0  0  0  2  0  0  0  0  0  0
  190.3360  177.6250  139.0090 C   0  0  0  0  0  3  0  0  0  0  0  0
  1 27  1  0  0  0  0
  2 24  1  0  0  0  0
  2 22  1  0  0  0  0
  3  9  2  0  0  0  0
  3 20  1  0  0  0  0
  4  1  1  0  0  0  0
  5 10  1  0  0  0  0
  6 22  1  0  0  0  0
  6 11  2  0  0  0  0
  7  3  1  0  0  0  0
  9  6  1  0  0  0  0
 10 23  2  0  0  0  0
 10  7  1  0  0  0  0
 12  8  1  0  0  0  0
 12  4  1  0  0  0  0
 13  9  1  0  0  0  0
 14  2  1  0  0  0  0
 15 20  1  0  0  0  0
 16 11  1  0  0  0  0
 17 13  1  0  0  0  0
 17  2  1  0  0  0  0
 18  8  1  6  0  0  0
 18 25  1  0  0  0  0
 18 19  1  0  0  0  0
 19  5  1  1  0  0  0
 20 16  2  0  0  0  0
 21  7  2  0  0  0  0
 21 13  1  0  0  0  0
 23 28  1  0  0  0  0
 25 19  1  0  0  0  0
 25 27  1  0  0  0  0
 26  8  2  0  0  0  0
 27 21  1  0  0  0  0
 28 15  2  0  0  0  0
 30 29  1  0  0  0  0
 30 23  1  0  0  0  0
 31 30  2  0  0  0  0
 32 34  1  0  0  0  0
 33 35  1  0  0  0  0
 34 33  2  0  0  0  0
 34 31  1  0  0  0  0
 35 29  2  0  0  0  0
 37  4  1  0  0  0  0
 37 36  2  0  0  0  0
M  END
>  <MODEL>
5

>  <REMARK>
 VINA RESULT:      -9.5      1.199      1.346
  Name = 
  2 active torsions:
  status: ('A' for Active; 'I' for Inactive)
    1  A    between atoms: N_4  and  C_37
    2  A    between atoms: C_23  and  C_30
                            x       y       z     vdW  Elec       q    Type
                         _______ _______ _______ _____ _____    ______ ____

>  <TORSDO>
F 2

$$$$
=
 OpenBabel11122411313D

 37 44  0  0  1  0  0  0  0  0999 V2000
  188.8730  177.9070  141.1470 C   0  0  0  0  0  2  0  0  0  0  0  0
  184.4270  178.6000  142.0840 C   0  0  0  0  0  0  0  0  0  0  0  0
  186.8890  177.8680  145.3700 C   0  0  0  0  0  0  0  0  0  0  0  0
  189.3880  177.2710  139.9350 N   0  0  0  0  0  0  0  0  0  0  0  0
  190.5900  177.0480  144.7240 O   0  0  0  0  0  0  0  0  0  0  0  0
  184.6830  178.4280  144.5430 C   0  0  0  0  0  0  0  0  0  0  0  0
  188.0870  177.4560  144.7860 C   0  0  0  0  0  0  0  0  0  0  0  0
  191.5060  176.9830  141.1130 C   0  0  0  0  0  0  0  0  0  0  0  0
  185.9940  178.0560  144.3560 C   0  0  0  0  0  0  0  0  0  0  0  0
  189.4090  177.1790  145.4850 C   0  0  0  0  0  0  0  0  0  0  0  0
  184.2340  178.6240  145.8550 C   0  0  0  0  0  3  0  0  0  0  0  0
  190.6720  176.5760  139.9370 C   0  0  0  0  0  2  0  0  0  0  0  0
  186.5020  177.7760  143.1670 N   0  0  0  0  0  0  0  0  0  0  0  0
  184.8040  180.0270  141.7310 C   0  0  0  0  0  1  0  0  0  0  0  0
  187.3030  177.7480  147.8510 C   0  0  0  0  0  3  0  0  0  0  0  0
  185.1340  178.4240  146.9250 C   0  0  0  0  0  3  0  0  0  0  0  0
  185.6850  177.7030  141.9530 C   0  0  0  0  0  2  0  0  0  0  0  0
  191.2660  176.3780  142.4660 C   0  0  1  0  0  3  0  0  0  0  0  0
  190.5770  177.2980  143.3440 C   0  0  1  0  0  3  0  0  0  0  0  0
  186.4750  178.0370  146.6930 C   0  0  0  0  0  0  0  0  0  0  0  0
  187.7760  177.3810  143.3820 C   0  0  0  0  0  0  0  0  0  0  0  0
  183.8680  178.5730  143.4130 O   0  0  0  0  0  0  0  0  0  0  0  0
  189.5660  177.0670  146.8310 C   0  0  0  0  0  0  0  0  0  0  0  0
  183.3810  178.1230  141.0980 C   0  0  0  0  0  1  0  0  0  0  0  0
  189.8250  176.1670  142.7760 N   0  0  1  0  0  0  0  0  0  0  0  0
  192.3850  177.8150  140.9670 O   0  0  0  0  0  0  0  0  0  0  0  0
  188.6420  176.8580  142.2450 C   0  0  2  0  0  3  0  0  0  0  0  0
  188.5660  177.3400  147.8870 C   0  0  0  0  0  3  0  0  0  0  0  0
  191.6080  175.6090  146.8080 C   0  0  0  0  0  3  0  0  0  0  0  0
  190.8880  176.6680  147.3800 C   0  0  0  0  0  0  0  0  0  0  0  0
  191.4670  177.3660  148.4500 C   0  0  0  0  0  3  0  0  0  0  0  0
  193.4380  177.8540  150.2790 Cl  0  0  0  0  0  0  0  0  0  0  0  0
  193.3930  175.9240  148.3410 C   0  0  0  0  0  3  0  0  0  0  0  0
  192.7200  176.9920  148.9370 C   0  0  0  0  0  0  0  0  0  0  0  0
  192.8290  175.2620  147.2970 N   0  0  0  0  0  0  0  0  0  0  0  0
  187.4660  177.8810  138.6000 C   0  0  0  0  0  2  0  0  0  0  0  0
  188.5960  177.1970  138.7440 C   0  0  0  0  0  3  0  0  0  0  0  0
  1 27  1  0  0  0  0
  2 22  1  0  0  0  0
  3 20  1  0  0  0  0
  4 12  1  0  0  0  0
  4  1  1  0  0  0  0
  5 10  1  0  0  0  0
  6 11  2  0  0  0  0
  7  3  1  0  0  0  0
  7 10  1  0  0  0  0
  9  6  1  0  0  0  0
  9  3  2  0  0  0  0
 10 23  2  0  0  0  0
 11 16  1  0  0  0  0
 12  8  1  0  0  0  0
 13 21  1  0  0  0  0
 13  9  1  0  0  0  0
 14  2  1  0  0  0  0
 15 28  2  0  0  0  0
 17  2  1  0  0  0  0
 17 13  1  0  0  0  0
 18  8  1  6  0  0  0
 18 25  1  0  0  0  0
 18 19  1  0  0  0  0
 19  5  1  1  0  0  0
 20 16  2  0  0  0  0
 20 15  1  0  0  0  0
 21  7  2  0  0  0  0
 22  6  1  0  0  0  0
 23 30  1  0  0  0  0
 23 28  1  0  0  0  0
 24  2  1  0  0  0  0
 25 19  1  0  0  0  0
 26  8  2  0  0  0  0
 27 25  1  0  0  0  0
 27 21  1  0  0  0  0
 29 35  2  0  0  0  0
 29 30  1  0  0  0  0
 30 31  2  0  0  0  0
 31 34  1  0  0  0  0
 33 34  2  0  0  0  0
 34 32  1  0  0  0  0
 35 33  1  0  0  0  0
 36 37  2  0  0  0  0
 37  4  1  0  0  0  0
M  END
>  <MODEL>
6

>  <REMARK>
 VINA RESULT:      -9.5      3.821      7.624
  Name = 
  2 active torsions:
  status: ('A' for Active; 'I' for Inactive)
    1  A    between atoms: N_4  and  C_37
    2  A    between atoms: C_23  and  C_30
                            x       y       z     vdW  Elec       q    Type
                         _______ _______ _______ _____ _____    ______ ____

>  <TORSDO>
F 2

$$$$
=
 OpenBabel11122411313D

 37 44  0  0  1  0  0  0  0  0999 V2000
  188.9670  177.0970  144.1630 C   0  0  0  0  0  2  0  0  0  0  0  0
  185.0810  179.1990  142.8980 C   0  0  0  0  0  0  0  0  0  0  0  0
  187.5580  177.9250  139.7930 C   0  0  0  0  0  0  0  0  0  0  0  0
  189.7310  177.3990  145.3740 N   0  0  0  0  0  0  0  0  0  0  0  0
  190.9470  176.3520  140.6990 O   0  0  0  0  0  0  0  0  0  0  0  0
  185.4580  178.9280  140.4630 C   0  0  0  0  0  0  0  0  0  0  0  0
  188.7350  177.5670  140.4500 C   0  0  0  0  0  0  0  0  0  0  0  0
  191.6030  176.2020  144.3640 C   0  0  0  0  0  0  0  0  0  0  0  0
  186.7110  178.4310  140.7380 C   0  0  0  0  0  0  0  0  0  0  0  0
  189.9630  176.9000  139.8500 C   0  0  0  0  0  0  0  0  0  0  0  0
  185.0230  178.9200  139.1330 C   0  0  0  0  0  3  0  0  0  0  0  0
  191.1680  177.1510  145.4380 C   0  0  0  0  0  2  0  0  0  0  0  0
  187.2490  178.4560  141.9460 N   0  0  0  0  0  0  0  0  0  0  0  0
  184.4800  177.8860  143.3680 C   0  0  0  0  0  1  0  0  0  0  0  0
  188.0270  177.5140  137.3530 C   0  0  0  0  0  3  0  0  0  0  0  0
  185.8820  178.4150  138.1320 C   0  0  0  0  0  3  0  0  0  0  0  0
  186.6190  179.1390  143.0790 C   0  0  0  0  0  2  0  0  0  0  0  0
  191.8290  176.6860  142.9610 C   0  0  1  0  0  3  0  0  0  0  0  0
  190.7430  176.3040  142.0850 C   0  0  1  0  0  3  0  0  0  0  0  0
  187.1660  177.9150  138.4530 C   0  0  0  0  0  0  0  0  0  0  0  0
  188.4980  177.9590  141.8160 C   0  0  0  0  0  0  0  0  0  0  0  0
  184.6980  179.4310  141.5260 O   0  0  0  0  0  0  0  0  0  0  0  0
  190.1940  176.7560  138.5180 C   0  0  0  0  0  0  0  0  0  0  0  0
  184.5290  180.3150  143.7610 C   0  0  0  0  0  1  0  0  0  0  0  0
  190.8400  177.7070  142.5180 N   0  0  1  0  0  0  0  0  0  0  0  0
  191.7700  175.0240  144.6340 O   0  0  0  0  0  0  0  0  0  0  0  0
  189.4680  177.9490  142.9880 C   0  0  2  0  0  3  0  0  0  0  0  0
  189.2710  177.0520  137.4000 C   0  0  0  0  0  3  0  0  0  0  0  0
  192.6830  176.9160  138.2480 C   0  0  0  0  0  3  0  0  0  0  0  0
  191.4930  176.1980  138.0600 C   0  0  0  0  0  0  0  0  0  0  0  0
  191.5670  174.9270  137.4710 C   0  0  0  0  0  3  0  0  0  0  0  0
  192.8910  172.8300  136.3230 Cl  0  0  0  0  0  0  0  0  0  0  0  0
  193.9540  175.1670  137.2670 C   0  0  0  0  0  3  0  0  0  0  0  0
  192.7990  174.4110  137.0680 C   0  0  0  0  0  0  0  0  0  0  0  0
  193.8740  176.3930  137.8490 N   0  0  0  0  0  0  0  0  0  0  0  0
  188.7190  177.4100  147.5700 C   0  0  0  0  0  2  0  0  0  0  0  0
  189.1220  178.0640  146.4870 C   0  0  0  0  0  3  0  0  0  0  0  0
  1  4  1  0  0  0  0
  2 17  1  0  0  0  0
  2 14  1  0  0  0  0
  2 24  1  0  0  0  0
  3  7  1  0  0  0  0
  3  9  1  0  0  0  0
  4 12  1  0  0  0  0
  4 37  1  0  0  0  0
  6  9  2  0  0  0  0
  6 22  1  0  0  0  0
  7 21  2  0  0  0  0
  8 26  2  0  0  0  0
  8 12  1  0  0  0  0
  9 13  1  0  0  0  0
 10  7  1  0  0  0  0
 10  5  1  0  0  0  0
 11  6  1  0  0  0  0
 13 17  1  0  0  0  0
 15 28  2  0  0  0  0
 15 20  1  0  0  0  0
 16 20  1  0  0  0  0
 16 11  2  0  0  0  0
 18  8  1  1  0  0  0
 19  5  1  6  0  0  0
 19 25  1  0  0  0  0
 19 18  1  0  0  0  0
 20  3  2  0  0  0  0
 21 13  1  0  0  0  0
 21 27  1  0  0  0  0
 22  2  1  0  0  0  0
 23 10  2  0  0  0  0
 25 18  1  0  0  0  0
 25 27  1  0  0  0  0
 27  1  1  0  0  0  0
 28 23  1  0  0  0  0
 30 29  1  0  0  0  0
 30 23  1  0  0  0  0
 31 30  2  0  0  0  0
 32 34  1  0  0  0  0
 33 35  1  0  0  0  0
 34 33  2  0  0  0  0
 34 31  1  0  0  0  0
 35 29  2  0  0  0  0
 37 36  2  0  0  0  0
M  END
>  <MODEL>
7

>  <REMARK>
 VINA RESULT:      -9.1      3.751      8.946
  Name = 
  2 active torsions:
  status: ('A' for Active; 'I' for Inactive)
    1  A    between atoms: N_4  and  C_37
    2  A    between atoms: C_23  and  C_30
                            x       y       z     vdW  Elec       q    Type
                         _______ _______ _______ _____ _____    ______ ____

>  <TORSDO>
F 2

$$$$
=
 OpenBabel11122411313D

 37 44  0  0  1  0  0  0  0  0999 V2000
  184.1780  178.1680  139.6000 C   0  0  0  0  0  2  0  0  0  0  0  0
  187.3910  177.8200  136.3340 C   0  0  0  0  0  0  0  0  0  0  0  0
  188.7470  177.5020  140.2650 C   0  0  0  0  0  0  0  0  0  0  0  0
  182.9720  178.9920  139.5100 N   0  0  0  0  0  0  0  0  0  0  0  0
  186.2090  177.9980  143.1110 O   0  0  0  0  0  0  0  0  0  0  0  0
  189.2660  177.4080  137.9020 C   0  0  0  0  0  0  0  0  0  0  0  0
  187.6380  177.8880  141.0180 C   0  0  0  0  0  0  0  0  0  0  0  0
  182.7570  178.7560  141.9300 C   0  0  0  0  0  0  0  0  0  0  0  0
  188.4100  177.6530  138.9500 C   0  0  0  0  0  0  0  0  0  0  0  0
  187.4860  177.8420  142.5300 C   0  0  0  0  0  0  0  0  0  0  0  0
  190.5660  176.9800  138.1980 C   0  0  0  0  0  3  0  0  0  0  0  0
  182.3240  179.5110  140.7110 C   0  0  0  0  0  2  0  0  0  0  0  0
  187.1860  178.1290  138.7880 N   0  0  0  0  0  0  0  0  0  0  0  0
  186.7220  176.4730  136.1310 C   0  0  0  0  0  1  0  0  0  0  0  0
  190.5440  177.0170  141.9620 C   0  0  0  0  0  3  0  0  0  0  0  0
  190.9470  176.8280  139.5490 C   0  0  0  0  0  3  0  0  0  0  0  0
  186.6730  178.5670  137.4870 C   0  0  0  0  0  2  0  0  0  0  0  0
  184.0650  179.0690  142.5980 C   0  0  1  0  0  3  0  0  0  0  0  0
  185.0650  178.0650  142.3030 C   0  0  1  0  0  3  0  0  0  0  0  0
  190.0390  177.0940  140.6010 C   0  0  0  0  0  0  0  0  0  0  0  0
  186.6810  178.3110  140.0270 C   0  0  0  0  0  0  0  0  0  0  0  0
  188.7940  177.6170  136.6000 O   0  0  0  0  0  0  0  0  0  0  0  0
  188.5040  177.6320  143.4060 C   0  0  0  0  0  0  0  0  0  0  0  0
  187.2410  178.6260  135.0600 C   0  0  0  0  0  1  0  0  0  0  0  0
  185.1630  179.3760  141.6400 N   0  0  1  0  0  0  0  0  0  0  0  0
  182.0400  177.8780  142.3800 O   0  0  0  0  0  0  0  0  0  0  0  0
  185.3250  178.9660  140.2370 C   0  0  2  0  0  3  0  0  0  0  0  0
  189.9010  177.2530  143.0990 C   0  0  0  0  0  3  0  0  0  0  0  0
  189.3040  177.7060  145.7840 C   0  0  0  0  0  3  0  0  0  0  0  0
  188.2440  177.7390  144.8660 C   0  0  0  0  0  0  0  0  0  0  0  0
  186.9420  177.9190  145.3570 C   0  0  0  0  0  3  0  0  0  0  0  0
  185.0960  178.2530  147.3440 Cl  0  0  0  0  0  0  0  0  0  0  0  0
  187.8060  177.9900  147.6030 C   0  0  0  0  0  3  0  0  0  0  0  0
  186.7200  178.0400  146.7290 C   0  0  0  0  0  0  0  0  0  0  0  0
  189.0650  177.8280  147.1170 N   0  0  0  0  0  0  0  0  0  0  0  0
  181.5530  180.3840  138.1340 C   0  0  0  0  0  2  0  0  0  0  0  0
  182.4630  179.4230  138.2430 C   0  0  0  0  0  3  0  0  0  0  0  0
  1 27  1  0  0  0  0
  2 22  1  0  0  0  0
  2 17  1  0  0  0  0
  3 20  1  0  0  0  0
  3  7  1  0  0  0  0
  4  1  1  0  0  0  0
  4 12  1  0  0  0  0
  6 11  2  0  0  0  0
  6  9  1  0  0  0  0
  7 10  1  0  0  0  0
  8 26  2  0  0  0  0
  9  3  2  0  0  0  0
 10  5  1  0  0  0  0
 10 23  2  0  0  0  0
 11 16  1  0  0  0  0
 12  8  1  0  0  0  0
 13  9  1  0  0  0  0
 13 21  1  0  0  0  0
 14  2  1  0  0  0  0
 15 28  2  0  0  0  0
 16 20  2  0  0  0  0
 17 13  1  0  0  0  0
 18  8  1  6  0  0  0
 19 18  1  0  0  0  0
 19  5  1  1  0  0  0
 20 15  1  0  0  0  0
 21 27  1  0  0  0  0
 21  7  2  0  0  0  0
 22  6  1  0  0  0  0
 23 30  1  0  0  0  0
 24  2  1  0  0  0  0
 25 19  1  0  0  0  0
 25 18  1  0  0  0  0
 27 25  1  0  0  0  0
 28 23  1  0  0  0  0
 29 35  1  0  0  0  0
 30 31  1  0  0  0  0
 30 29  2  0  0  0  0
 31 34  2  0  0  0  0
 34 32  1  0  0  0  0
 34 33  1  0  0  0  0
 35 33  2  0  0  0  0
 36 37  2  0  0  0  0
 37  4  1  0  0  0  0
M  END
>  <MODEL>
8

>  <REMARK>
 VINA RESULT:      -8.9      2.554      6.475
  Name = 
  2 active torsions:
  status: ('A' for Active; 'I' for Inactive)
    1  A    between atoms: N_4  and  C_37
    2  A    between atoms: C_23  and  C_30
                            x       y       z     vdW  Elec       q    Type
                         _______ _______ _______ _____ _____    ______ ____

>  <TORSDO>
F 2

$$$$
=
 OpenBabel11122411313D

 37 44  0  0  1  0  0  0  0  0999 V2000
  184.1270  178.1990  140.1700 C   0  0  0  0  0  2  0  0  0  0  0  0
  187.3350  177.7400  136.9120 C   0  0  0  0  0  0  0  0  0  0  0  0
  188.6930  177.5290  140.8500 C   0  0  0  0  0  0  0  0  0  0  0  0
  182.9250  179.0260  140.0570 N   0  0  0  0  0  0  0  0  0  0  0  0
  186.1610  178.1190  143.6820 O   0  0  0  0  0  0  0  0  0  0  0  0
  189.2090  177.3640  138.4900 C   0  0  0  0  0  0  0  0  0  0  0  0
  187.5870  177.9410  141.5920 C   0  0  0  0  0  0  0  0  0  0  0  0
  182.7120  178.8610  142.4820 C   0  0  0  0  0  0  0  0  0  0  0  0
  188.3560  177.6440  139.5320 C   0  0  0  0  0  0  0  0  0  0  0  0
  187.4360  177.9400  143.1050 C   0  0  0  0  0  0  0  0  0  0  0  0
  190.5070  176.9380  138.7970 C   0  0  0  0  0  3  0  0  0  0  0  0
  182.2810  179.5820  141.2430 C   0  0  0  0  0  2  0  0  0  0  0  0
  187.1340  178.1200  139.3560 N   0  0  0  0  0  0  0  0  0  0  0  0
  186.6590  176.3910  136.7490 C   0  0  0  0  0  1  0  0  0  0  0  0
  190.4890  177.0830  142.5590 C   0  0  0  0  0  3  0  0  0  0  0  0
  190.8890  176.8230  140.1520 C   0  0  0  0  0  3  0  0  0  0  0  0
  186.6220  178.5240  138.0440 C   0  0  0  0  0  2  0  0  0  0  0  0
  184.0220  179.1860  143.1400 C   0  0  1  0  0  3  0  0  0  0  0  0
  185.0160  178.1690  142.8740 C   0  0  1  0  0  3  0  0  0  0  0  0
  189.9840  177.1240  141.1970 C   0  0  0  0  0  0  0  0  0  0  0  0
  186.6310  178.3400  140.5900 C   0  0  0  0  0  0  0  0  0  0  0  0
  188.7380  177.5380  137.1830 O   0  0  0  0  0  0  0  0  0  0  0  0
  188.4540  177.7510  143.9860 C   0  0  0  0  0  0  0  0  0  0  0  0
  187.1880  178.5100  135.6160 C   0  0  0  0  0  1  0  0  0  0  0  0
  185.1200  179.4590  142.1730 N   0  0  1  0  0  0  0  0  0  0  0  0
  181.9910  178.0000  142.9580 O   0  0  0  0  0  0  0  0  0  0  0  0
  185.2790  179.0090  140.7830 C   0  0  2  0  0  3  0  0  0  0  0  0
  189.8490  177.3550  143.6890 C   0  0  0  0  0  3  0  0  0  0  0  0
  186.8820  177.9780  145.9300 C   0  0  0  0  0  3  0  0  0  0  0  0
  188.1950  177.9000  145.4420 C   0  0  0  0  0  0  0  0  0  0  0  0
  189.2520  177.9220  146.3650 C   0  0  0  0  0  3  0  0  0  0  0  0
  190.3050  178.0780  148.8820 Cl  0  0  0  0  0  0  0  0  0  0  0  0
  187.6660  178.1240  148.1660 C   0  0  0  0  0  3  0  0  0  0  0  0
  188.9890  178.0390  147.7300 C   0  0  0  0  0  0  0  0  0  0  0  0
  186.6490  178.0900  147.2650 N   0  0  0  0  0  0  0  0  0  0  0  0
  182.1880  180.6940  138.4700 C   0  0  0  0  0  2  0  0  0  0  0  0
  182.4180  179.4230  138.7780 C   0  0  0  0  0  3  0  0  0  0  0  0
  1 27  1  0  0  0  0
  2 22  1  0  0  0  0
  2 17  1  0  0  0  0
  3 20  1  0  0  0  0
  3  7  1  0  0  0  0
  4  1  1  0  0  0  0
  4 12  1  0  0  0  0
  6 11  2  0  0  0  0
  6  9  1  0  0  0  0
  7 10  1  0  0  0  0
  8 26  2  0  0  0  0
  9  3  2  0  0  0  0
 10  5  1  0  0  0  0
 10 23  2  0  0  0  0
 11 16  1  0  0  0  0
 12  8  1  0  0  0  0
 13  9  1  0  0  0  0
 13 21  1  0  0  0  0
 14  2  1  0  0  0  0
 15 28  2  0  0  0  0
 16 20  2  0  0  0  0
 17 13  1  0  0  0  0
 18  8  1  6  0  0  0
 19 18  1  0  0  0  0
 19  5  1  1  0  0  0
 20 15  1  0  0  0  0
 21 27  1  0  0  0  0
 21  7  2  0  0  0  0
 22  6  1  0  0  0  0
 23 30  1  0  0  0  0
 24  2  1  0  0  0  0
 25 19  1  0  0  0  0
 25 18  1  0  0  0  0
 27 25  1  0  0  0  0
 28 23  1  0  0  0  0
 29 35  1  0  0  0  0
 30 29  2  0  0  0  0
 30 31  1  0  0  0  0
 31 34  2  0  0  0  0
 34 33  1  0  0  0  0
 34 32  1  0  0  0  0
 35 33  2  0  0  0  0
 36 37  2  0  0  0  0
 37  4  1  0  0  0  0
M  END
>  <MODEL>
9

>  <REMARK>
 VINA RESULT:      -8.7      3.008      6.563
  Name = 
  2 active torsions:
  status: ('A' for Active; 'I' for Inactive)
    1  A    between atoms: N_4  and  C_37
    2  A    between atoms: C_23  and  C_30
                            x       y       z     vdW  Elec       q    Type
                         _______ _______ _______ _____ _____    ______ ____

>  <TORSDO>
F 2

$$$$
