=
 OpenBabel11122411063D

 31 35  0  0  1  0  0  0  0  0999 V2000
  184.5100  178.7730  144.6570 C   0  0  0  0  0  0  0  0  0  0  0  0
  188.0650  177.8280  143.8580 C   0  0  0  0  0  0  0  0  0  0  0  0
  188.7250  177.5760  145.0960 C   0  0  0  0  0  0  0  0  0  0  0  0
  187.4010  178.2810  138.6430 O   0  0  0  0  0  0  0  0  0  0  0  0
  188.5910  177.9500  138.8850 C   0  0  0  0  0  0  0  0  0  0  0  0
  188.7720  177.4300  147.5330 C   0  0  0  0  0  0  0  0  0  0  0  0
  186.6980  178.2150  143.7270 C   0  0  0  0  0  0  0  0  0  0  0  0
  184.0050  178.9830  143.3740 C   0  0  0  0  0  3  0  0  0  0  0  0
  188.0870  177.6850  146.3450 C   0  0  0  0  0  3  0  0  0  0  0  0
  188.2500  177.9090  141.4180 C   0  0  0  0  0  0  0  0  0  0  0  0
  183.6880  178.9410  145.7620 O   0  0  0  0  0  1  0  0  0  0  0  0
  190.7450  177.0800  143.9030 N   0  0  0  0  0  0  0  0  0  0  0  0
  187.9430  177.5770  149.0680 Cl  0  0  0  0  0  0  0  0  0  0  0  0
  186.9470  178.2760  141.3350 N   0  0  0  0  0  0  0  0  0  0  0  0
  188.8310  177.6790  142.6720 C   0  0  0  0  0  0  0  0  0  0  0  0
  189.0420  177.7540  140.2320 N   0  0  0  0  0  2  0  0  0  0  0  0
  185.8420  178.3930  144.8280 C   0  0  0  0  0  3  0  0  0  0  0  0
  190.1160  177.0580  147.4990 C   0  0  0  0  0  3  0  0  0  0  0  0
  186.1670  178.4330  142.4310 C   0  0  0  0  0  0  0  0  0  0  0  0
  184.8320  178.8140  142.2640 C   0  0  0  0  0  3  0  0  0  0  0  0
  190.1380  177.3120  142.7430 N   0  0  0  0  0  0  0  0  0  0  0  0
  190.0890  177.1980  145.0810 C   0  0  0  0  0  0  0  0  0  0  0  0
  190.7730  176.9430  146.2730 C   0  0  0  0  0  3  0  0  0  0  0  0
  188.3860  176.0860  135.5900 C   0  0  1  0  0  3  0  0  0  0  0  0
  189.0000  178.3670  136.4390 C   0  0  0  0  0  2  0  0  0  0  0  0
  190.3850  175.7140  138.7220 O   0  0  0  0  0  1  0  0  0  0  0  0
  187.3560  175.3220  135.0440 O   0  0  0  0  0  1  0  0  0  0  0  0
  187.8910  177.5090  135.8280 C   0  0  0  0  0  2  0  0  0  0  0  0
  189.9620  176.2900  137.5240 C   0  0  2  0  0  3  0  0  0  0  0  0
  189.5390  177.7540  137.7360 C   0  0  2  0  0  3  0  0  0  0  0  0
  188.8410  175.4580  136.9040 C   0  0  0  0  0  2  0  0  0  0  0  0
  1 17  1  0  0  0  0
  1 11  1  0  0  0  0
  2  3  1  0  0  0  0
  3  9  1  0  0  0  0
  4  5  2  0  0  0  0
  5 16  1  0  0  0  0
  6 13  1  0  0  0  0
  7  2  1  0  0  0  0
  7 17  2  0  0  0  0
  8  1  2  0  0  0  0
  9  6  2  0  0  0  0
 10 15  1  0  0  0  0
 12 22  1  0  0  0  0
 14 10  2  0  0  0  0
 14 19  1  0  0  0  0
 15 21  1  0  0  0  0
 15  2  2  0  0  0  0
 16 10  1  0  0  0  0
 18  6  1  0  0  0  0
 19  7  1  0  0  0  0
 20 19  2  0  0  0  0
 20  8  1  0  0  0  0
 21 12  2  0  0  0  0
 22  3  2  0  0  0  0
 22 23  1  0  0  0  0
 23 18  2  0  0  0  0
 24 27  1  1  0  0  0
 24 28  1  0  0  0  0
 24 31  1  0  0  0  0
 25 30  1  0  0  0  0
 28 25  1  0  0  0  0
 29 30  1  0  0  0  0
 29 26  1  1  0  0  0
 30  5  1  1  0  0  0
 31 29  1  0  0  0  0
M  END
>  <MODEL>
1

>  <REMARK>
 VINA RESULT:     -12.1      0.000      0.000
  Name = 
  1 active torsions:
  status: ('A' for Active; 'I' for Inactive)
    1  A    between atoms: C_5  and  C_30
                            x       y       z     vdW  Elec       q    Type
                         _______ _______ _______ _____ _____    ______ ____

>  <TORSDO>
F 1

$$$$
=
 OpenBabel11122411063D

 31 35  0  0  1  0  0  0  0  0999 V2000
  184.7270  178.6460  145.1890 C   0  0  0  0  0  0  0  0  0  0  0  0
  187.8190  177.9670  143.1520 C   0  0  0  0  0  0  0  0  0  0  0  0
  188.8700  177.6620  144.0650 C   0  0  0  0  0  0  0  0  0  0  0  0
  185.3960  178.7680  138.5330 O   0  0  0  0  0  0  0  0  0  0  0  0
  186.6060  178.4880  138.3260 C   0  0  0  0  0  0  0  0  0  0  0  0
  189.7530  177.3380  146.3190 C   0  0  0  0  0  0  0  0  0  0  0  0
  186.4790  178.2850  143.5270 C   0  0  0  0  0  0  0  0  0  0  0  0
  183.8070  178.9220  144.1770 C   0  0  0  0  0  3  0  0  0  0  0  0
  188.6950  177.6420  145.4610 C   0  0  0  0  0  3  0  0  0  0  0  0
  187.1550  178.2400  140.8120 C   0  0  0  0  0  0  0  0  0  0  0  0
  184.3290  178.6840  146.5180 O   0  0  0  0  0  1  0  0  0  0  0  0
  190.3720  177.3720  142.2190 N   0  0  0  0  0  0  0  0  0  0  0  0
  189.4960  177.3230  148.0500 Cl  0  0  0  0  0  0  0  0  0  0  0  0
  185.8920  178.5370  141.2070 N   0  0  0  0  0  0  0  0  0  0  0  0
  188.1360  177.9510  141.7680 C   0  0  0  0  0  0  0  0  0  0  0  0
  187.4960  178.2190  139.4180 N   0  0  0  0  0  2  0  0  0  0  0  0
  186.0480  178.3310  144.8640 C   0  0  0  0  0  3  0  0  0  0  0  0
  191.0140  177.0480  145.7980 C   0  0  0  0  0  3  0  0  0  0  0  0
  185.5300  178.5680  142.5120 C   0  0  0  0  0  0  0  0  0  0  0  0
  184.2090  178.8830  142.8430 C   0  0  0  0  0  3  0  0  0  0  0  0
  189.3980  177.6540  141.3590 N   0  0  0  0  0  0  0  0  0  0  0  0
  190.1570  177.3650  143.5550 C   0  0  0  0  0  0  0  0  0  0  0  0
  191.2140  177.0610  144.4170 C   0  0  0  0  0  3  0  0  0  0  0  0
  188.9850  176.1980  136.4650 C   0  0  1  0  0  3  0  0  0  0  0  0
  186.6750  177.1450  136.2020 C   0  0  0  0  0  2  0  0  0  0  0  0
  189.0270  179.7870  137.4910 O   0  0  0  0  0  1  0  0  0  0  0  0
  189.7100  175.0920  136.9060 O   0  0  0  0  0  1  0  0  0  0  0  0
  187.4950  175.9410  136.6680 C   0  0  0  0  0  2  0  0  0  0  0  0
  188.6250  178.6540  136.7830 C   0  0  2  0  0  3  0  0  0  0  0  0
  187.1080  178.4330  136.9120 C   0  0  2  0  0  3  0  0  0  0  0  0
  189.4200  177.4340  137.2450 C   0  0  0  0  0  2  0  0  0  0  0  0
  1 11  1  0  0  0  0
  2  7  1  0  0  0  0
  2  3  1  0  0  0  0
  3  9  1  0  0  0  0
  5  4  2  0  0  0  0
  5 16  1  0  0  0  0
  6 13  1  0  0  0  0
  7 17  2  0  0  0  0
  8  1  2  0  0  0  0
  9  6  2  0  0  0  0
 10 14  2  0  0  0  0
 10 15  1  0  0  0  0
 12 22  1  0  0  0  0
 14 19  1  0  0  0  0
 15  2  2  0  0  0  0
 16 10  1  0  0  0  0
 17  1  1  0  0  0  0
 18  6  1  0  0  0  0
 19 20  2  0  0  0  0
 19  7  1  0  0  0  0
 20  8  1  0  0  0  0
 21 15  1  0  0  0  0
 21 12  2  0  0  0  0
 22  3  2  0  0  0  0
 22 23  1  0  0  0  0
 23 18  2  0  0  0  0
 24 28  1  0  0  0  0
 24 27  1  1  0  0  0
 24 31  1  0  0  0  0
 25 28  1  0  0  0  0
 25 30  1  0  0  0  0
 29 30  1  0  0  0  0
 29 31  1  0  0  0  0
 29 26  1  1  0  0  0
 30  5  1  1  0  0  0
M  END
>  <MODEL>
2

>  <REMARK>
 VINA RESULT:     -12.0      1.252      1.828
  Name = 
  1 active torsions:
  status: ('A' for Active; 'I' for Inactive)
    1  A    between atoms: C_5  and  C_30
                            x       y       z     vdW  Elec       q    Type
                         _______ _______ _______ _____ _____    ______ ____

>  <TORSDO>
F 1

$$$$
=
 OpenBabel11122411063D

 31 35  0  0  1  0  0  0  0  0999 V2000
  184.7670  178.7200  144.6870 C   0  0  0  0  0  0  0  0  0  0  0  0
  188.3210  177.7780  143.8780 C   0  0  0  0  0  0  0  0  0  0  0  0
  188.9850  177.5270  145.1140 C   0  0  0  0  0  0  0  0  0  0  0  0
  187.6400  178.2280  138.6640 O   0  0  0  0  0  0  0  0  0  0  0  0
  188.8320  177.8990  138.9020 C   0  0  0  0  0  0  0  0  0  0  0  0
  189.0400  177.3830  147.5510 C   0  0  0  0  0  0  0  0  0  0  0  0
  186.9530  178.1640  143.7510 C   0  0  0  0  0  0  0  0  0  0  0  0
  184.2580  178.9290  143.4050 C   0  0  0  0  0  3  0  0  0  0  0  0
  188.3500  177.6370  146.3640 C   0  0  0  0  0  3  0  0  0  0  0  0
  188.4980  177.8580  141.4370 C   0  0  0  0  0  0  0  0  0  0  0  0
  183.9480  178.8870  145.7950 O   0  0  0  0  0  1  0  0  0  0  0  0
  191.0010  177.0330  143.9150 N   0  0  0  0  0  0  0  0  0  0  0  0
  188.2160  177.5290  149.0880 Cl  0  0  0  0  0  0  0  0  0  0  0  0
  187.1950  178.2240  141.3570 N   0  0  0  0  0  0  0  0  0  0  0  0
  189.0830  177.6300  142.6890 C   0  0  0  0  0  0  0  0  0  0  0  0
  189.2860  177.7030  140.2480 N   0  0  0  0  0  2  0  0  0  0  0  0
  186.1000  178.3410  144.8540 C   0  0  0  0  0  3  0  0  0  0  0  0
  190.3840  177.0130  147.5120 C   0  0  0  0  0  3  0  0  0  0  0  0
  186.4180  178.3810  142.4560 C   0  0  0  0  0  0  0  0  0  0  0  0
  185.0820  178.7600  142.2930 C   0  0  0  0  0  3  0  0  0  0  0  0
  190.3910  177.2640  142.7560 N   0  0  0  0  0  0  0  0  0  0  0  0
  190.3500  177.1510  145.0950 C   0  0  0  0  0  0  0  0  0  0  0  0
  191.0370  176.8970  146.2850 C   0  0  0  0  0  3  0  0  0  0  0  0
  190.1630  174.8550  137.0770 C   0  0  1  0  0  3  0  0  0  0  0  0
  189.0820  177.0580  136.5460 C   0  0  0  0  0  2  0  0  0  0  0  0
  191.6510  177.4890  139.2640 O   0  0  0  0  0  1  0  0  0  0  0  0
  189.9220  173.4970  137.2820 O   0  0  0  0  0  1  0  0  0  0  0  0
  188.8480  175.5620  136.7650 C   0  0  0  0  0  2  0  0  0  0  0  0
  191.0600  176.9430  138.1240 C   0  0  2  0  0  3  0  0  0  0  0  0
  189.7760  177.7030  137.7510 C   0  0  2  0  0  3  0  0  0  0  0  0
  190.8010  175.4510  138.3270 C   0  0  0  0  0  2  0  0  0  0  0  0
  1 17  1  0  0  0  0
  1 11  1  0  0  0  0
  2  3  1  0  0  0  0
  3  9  1  0  0  0  0
  4  5  2  0  0  0  0
  5 16  1  0  0  0  0
  6 13  1  0  0  0  0
  7  2  1  0  0  0  0
  7 17  2  0  0  0  0
  8  1  2  0  0  0  0
  9  6  2  0  0  0  0
 10 15  1  0  0  0  0
 12 22  1  0  0  0  0
 14 10  2  0  0  0  0
 14 19  1  0  0  0  0
 15 21  1  0  0  0  0
 15  2  2  0  0  0  0
 16 10  1  0  0  0  0
 18  6  1  0  0  0  0
 19  7  1  0  0  0  0
 20 19  2  0  0  0  0
 20  8  1  0  0  0  0
 21 12  2  0  0  0  0
 22  3  2  0  0  0  0
 22 23  1  0  0  0  0
 23 18  2  0  0  0  0
 24 27  1  1  0  0  0
 24 31  1  0  0  0  0
 25 28  1  0  0  0  0
 25 30  1  0  0  0  0
 28 24  1  0  0  0  0
 29 31  1  0  0  0  0
 29 26  1  1  0  0  0
 30 29  1  0  0  0  0
 30  5  1  1  0  0  0
M  END
>  <MODEL>
3

>  <REMARK>
 VINA RESULT:     -11.7      0.973      1.187
  Name = 
  1 active torsions:
  status: ('A' for Active; 'I' for Inactive)
    1  A    between atoms: C_5  and  C_30
                            x       y       z     vdW  Elec       q    Type
                         _______ _______ _______ _____ _____    ______ ____

>  <TORSDO>
F 1

$$$$
=
 OpenBabel11122411063D

 31 35  0  0  1  0  0  0  0  0999 V2000
  190.4240  176.8480  145.8040 C   0  0  0  0  0  0  0  0  0  0  0  0
  187.8820  177.8210  143.2030 C   0  0  0  0  0  0  0  0  0  0  0  0
  186.6980  178.2120  143.8930 C   0  0  0  0  0  0  0  0  0  0  0  0
  191.1160  176.8440  139.1490 O   0  0  0  0  0  0  0  0  0  0  0  0
  190.0020  177.2340  138.7100 C   0  0  0  0  0  0  0  0  0  0  0  0
  185.4060  178.5950  145.9300 C   0  0  0  0  0  0  0  0  0  0  0  0
  189.0850  177.3810  143.8330 C   0  0  0  0  0  0  0  0  0  0  0  0
  191.5030  176.4990  144.9920 C   0  0  0  0  0  3  0  0  0  0  0  0
  186.5860  178.2040  145.2960 C   0  0  0  0  0  3  0  0  0  0  0  0
  188.9830  177.5100  141.0390 C   0  0  0  0  0  0  0  0  0  0  0  0
  190.5390  176.7630  147.1850 O   0  0  0  0  0  1  0  0  0  0  0  0
  185.6340  178.6520  141.7910 N   0  0  0  0  0  0  0  0  0  0  0  0
  185.3060  178.5720  147.6770 Cl  0  0  0  0  0  0  0  0  0  0  0  0
  190.1080  177.0960  141.6740 N   0  0  0  0  0  0  0  0  0  0  0  0
  187.8560  177.8780  141.7850 C   0  0  0  0  0  0  0  0  0  0  0  0
  188.9360  177.5730  139.6060 N   0  0  0  0  0  2  0  0  0  0  0  0
  189.2300  177.2840  145.2270 C   0  0  0  0  0  3  0  0  0  0  0  0
  184.3080  179.0030  145.1730 C   0  0  0  0  0  3  0  0  0  0  0  0
  190.1920  177.0220  143.0230 C   0  0  0  0  0  0  0  0  0  0  0  0
  191.3860  176.5850  143.6050 C   0  0  0  0  0  3  0  0  0  0  0  0
  186.7350  178.2910  141.1370 N   0  0  0  0  0  0  0  0  0  0  0  0
  185.5730  178.6290  143.1420 C   0  0  0  0  0  0  0  0  0  0  0  0
  184.3930  179.0190  143.7810 C   0  0  0  0  0  3  0  0  0  0  0  0
  186.9550  177.3090  136.4560 C   0  0  1  0  0  3  0  0  0  0  0  0
  189.0560  178.6280  136.8440 C   0  0  0  0  0  2  0  0  0  0  0  0
  189.7890  174.9390  136.9980 O   0  0  0  0  0  1  0  0  0  0  0  0
  185.5980  177.2280  136.7630 O   0  0  0  0  0  1  0  0  0  0  0  0
  187.5620  178.5210  137.1550 C   0  0  0  0  0  2  0  0  0  0  0  0
  189.1470  176.1090  136.5910 C   0  0  2  0  0  3  0  0  0  0  0  0
  189.8050  177.3470  137.2250 C   0  0  2  0  0  3  0  0  0  0  0  0
  187.6560  176.0320  136.9090 C   0  0  0  0  0  2  0  0  0  0  0  0
  1 11  1  0  0  0  0
  2  7  1  0  0  0  0
  2  3  1  0  0  0  0
  3  9  1  0  0  0  0
  5  4  2  0  0  0  0
  5 16  1  0  0  0  0
  6 13  1  0  0  0  0
  7 17  2  0  0  0  0
  8  1  2  0  0  0  0
  9  6  2  0  0  0  0
 10 14  2  0  0  0  0
 10 15  1  0  0  0  0
 12 22  1  0  0  0  0
 14 19  1  0  0  0  0
 15  2  2  0  0  0  0
 16 10  1  0  0  0  0
 17  1  1  0  0  0  0
 18  6  1  0  0  0  0
 19 20  2  0  0  0  0
 19  7  1  0  0  0  0
 20  8  1  0  0  0  0
 21 15  1  0  0  0  0
 21 12  2  0  0  0  0
 22 23  1  0  0  0  0
 22  3  2  0  0  0  0
 23 18  2  0  0  0  0
 24 27  1  1  0  0  0
 24 31  1  0  0  0  0
 24 28  1  0  0  0  0
 25 28  1  0  0  0  0
 25 30  1  0  0  0  0
 29 31  1  0  0  0  0
 29 26  1  1  0  0  0
 29 30  1  0  0  0  0
 30  5  1  1  0  0  0
M  END
>  <MODEL>
4

>  <REMARK>
 VINA RESULT:     -11.1      1.940      4.048
  Name = 
  1 active torsions:
  status: ('A' for Active; 'I' for Inactive)
    1  A    between atoms: C_5  and  C_30
                            x       y       z     vdW  Elec       q    Type
                         _______ _______ _______ _____ _____    ______ ____

>  <TORSDO>
F 1

$$$$
=
 OpenBabel11122411063D

 31 35  0  0  1  0  0  0  0  0999 V2000
  186.7360  178.1340  147.3980 C   0  0  0  0  0  0  0  0  0  0  0  0
  187.4980  177.7350  143.7330 C   0  0  0  0  0  0  0  0  0  0  0  0
  188.8660  177.3480  143.6230 C   0  0  0  0  0  0  0  0  0  0  0  0
  182.6090  179.0030  142.2040 O   0  0  0  0  0  0  0  0  0  0  0  0
  183.3160  178.7680  141.1890 C   0  0  0  0  0  0  0  0  0  0  0  0
  191.0400  176.7910  144.5840 C   0  0  0  0  0  0  0  0  0  0  0  0
  186.8180  177.9870  144.9610 C   0  0  0  0  0  0  0  0  0  0  0  0
  185.3930  178.5060  147.3430 C   0  0  0  0  0  3  0  0  0  0  0  0
  189.7060  177.1700  144.7370 C   0  0  0  0  0  3  0  0  0  0  0  0
  185.4160  178.2540  142.5540 C   0  0  0  0  0  0  0  0  0  0  0  0
  187.3750  178.0190  148.6250 O   0  0  0  0  0  1  0  0  0  0  0  0
  188.6440  177.2880  141.2370 N   0  0  0  0  0  0  0  0  0  0  0  0
  192.0560  176.5800  145.9940 Cl  0  0  0  0  0  0  0  0  0  0  0  0
  184.8040  178.4860  143.7420 N   0  0  0  0  0  0  0  0  0  0  0  0
  186.7650  177.8770  142.5250 C   0  0  0  0  0  0  0  0  0  0  0  0
  184.6940  178.3930  141.3220 N   0  0  0  0  0  2  0  0  0  0  0  0
  187.4380  177.8780  146.2180 C   0  0  0  0  0  3  0  0  0  0  0  0
  191.5650  176.5800  143.3090 C   0  0  0  0  0  3  0  0  0  0  0  0
  185.4520  178.3660  144.9250 C   0  0  0  0  0  0  0  0  0  0  0  0
  184.7530  178.6210  146.1090 C   0  0  0  0  0  3  0  0  0  0  0  0
  187.3670  177.6480  141.3280 N   0  0  0  0  0  0  0  0  0  0  0  0
  189.4160  177.1290  142.3380 C   0  0  0  0  0  0  0  0  0  0  0  0
  190.7520  176.7490  142.1880 C   0  0  0  0  0  3  0  0  0  0  0  0
  183.7720  176.8940  137.9250 C   0  0  1  0  0  3  0  0  0  0  0  0
  181.9130  177.6120  139.4510 C   0  0  0  0  0  2  0  0  0  0  0  0
  184.4430  180.3760  139.0940 O   0  0  0  0  0  1  0  0  0  0  0  0
  184.6220  175.8400  137.5960 O   0  0  0  0  0  1  0  0  0  0  0  0
  182.8510  176.4670  139.0630 C   0  0  0  0  0  2  0  0  0  0  0  0
  183.6860  179.2660  138.7190 C   0  0  2  0  0  3  0  0  0  0  0  0
  182.6920  178.8770  139.8270 C   0  0  2  0  0  3  0  0  0  0  0  0
  184.6020  178.1040  138.3420 C   0  0  0  0  0  2  0  0  0  0  0  0
  1 11  1  0  0  0  0
  2  7  1  0  0  0  0
  3  2  1  0  0  0  0
  3  9  1  0  0  0  0
  5 16  1  0  0  0  0
  5  4  2  0  0  0  0
  6  9  2  0  0  0  0
  6 13  1  0  0  0  0
  7 17  1  0  0  0  0
  8  1  1  0  0  0  0
 10 14  2  0  0  0  0
 12 21  2  0  0  0  0
 12 22  1  0  0  0  0
 14 19  1  0  0  0  0
 15 10  1  0  0  0  0
 15  2  2  0  0  0  0
 16 10  1  0  0  0  0
 17  1  2  0  0  0  0
 18  6  1  0  0  0  0
 19  7  2  0  0  0  0
 19 20  1  0  0  0  0
 20  8  2  0  0  0  0
 21 15  1  0  0  0  0
 22  3  2  0  0  0  0
 23 22  1  0  0  0  0
 23 18  2  0  0  0  0
 24 27  1  1  0  0  0
 24 31  1  0  0  0  0
 24 28  1  0  0  0  0
 25 30  1  0  0  0  0
 28 25  1  0  0  0  0
 29 26  1  1  0  0  0
 29 30  1  0  0  0  0
 30  5  1  1  0  0  0
 31 29  1  0  0  0  0
M  END
>  <MODEL>
5

>  <REMARK>
 VINA RESULT:     -11.0      3.107      4.531
  Name = 
  1 active torsions:
  status: ('A' for Active; 'I' for Inactive)
    1  A    between atoms: C_5  and  C_30
                            x       y       z     vdW  Elec       q    Type
                         _______ _______ _______ _____ _____    ______ ____

>  <TORSDO>
F 1

$$$$
=
 OpenBabel11122411063D

 31 35  0  0  1  0  0  0  0  0999 V2000
  191.4090  176.3780  145.2280 C   0  0  0  0  0  0  0  0  0  0  0  0
  188.0920  177.6560  143.9890 C   0  0  0  0  0  0  0  0  0  0  0  0
  187.3020  177.9650  145.1340 C   0  0  0  0  0  0  0  0  0  0  0  0
  189.3860  177.1540  138.8980 O   0  0  0  0  0  0  0  0  0  0  0  0
  188.2100  177.5950  138.9880 C   0  0  0  0  0  0  0  0  0  0  0  0
  186.9510  178.1090  147.5460 C   0  0  0  0  0  0  0  0  0  0  0  0
  189.4220  177.1410  144.0300 C   0  0  0  0  0  0  0  0  0  0  0  0
  192.0550  176.1240  144.0180 C   0  0  0  0  0  3  0  0  0  0  0  0
  187.7590  177.7930  146.4530 C   0  0  0  0  0  3  0  0  0  0  0  0
  188.2200  177.5980  141.5440 C   0  0  0  0  0  0  0  0  0  0  0  0
  192.0610  176.1300  146.4280 O   0  0  0  0  0  1  0  0  0  0  0  0
  185.5110  178.6520  143.6970 N   0  0  0  0  0  0  0  0  0  0  0  0
  187.5550  177.8810  149.1730 Cl  0  0  0  0  0  0  0  0  0  0  0  0
  189.4830  177.1100  141.6250 N   0  0  0  0  0  0  0  0  0  0  0  0
  187.5040  177.8780  142.7150 C   0  0  0  0  0  0  0  0  0  0  0  0
  187.6080  177.8300  140.2680 N   0  0  0  0  0  2  0  0  0  0  0  0
  190.1070  176.8810  145.2300 C   0  0  0  0  0  3  0  0  0  0  0  0
  185.6640  178.6050  147.3430 C   0  0  0  0  0  3  0  0  0  0  0  0
  190.0950  176.8770  142.8110 C   0  0  0  0  0  0  0  0  0  0  0  0
  191.3990  176.3730  142.8130 C   0  0  0  0  0  3  0  0  0  0  0  0
  186.2400  178.3670  142.6220 N   0  0  0  0  0  0  0  0  0  0  0  0
  185.9920  178.4700  144.9480 C   0  0  0  0  0  0  0  0  0  0  0  0
  185.1860  178.7850  146.0450 C   0  0  0  0  0  3  0  0  0  0  0  0
  188.5880  176.5220  135.3710 C   0  0  1  0  0  3  0  0  0  0  0  0
  186.8110  176.6150  137.1420 C   0  0  0  0  0  2  0  0  0  0  0  0
  188.8910  179.7520  137.2190 O   0  0  0  0  0  1  0  0  0  0  0  0
  189.5360  175.7010  134.7630 O   0  0  0  0  0  1  0  0  0  0  0  0
  187.8520  175.7340  136.4500 C   0  0  0  0  0  2  0  0  0  0  0  0
  188.2580  178.6390  136.6650 C   0  0  2  0  0  3  0  0  0  0  0  0
  187.4430  177.8820  137.7290 C   0  0  2  0  0  3  0  0  0  0  0  0
  189.2820  177.7350  135.9830 C   0  0  0  0  0  2  0  0  0  0  0  0
  1 17  1  0  0  0  0
  1 11  1  0  0  0  0
  2  7  1  0  0  0  0
  2  3  1  0  0  0  0
  3  9  1  0  0  0  0
  4  5  2  0  0  0  0
  5 16  1  0  0  0  0
  6 13  1  0  0  0  0
  7 17  2  0  0  0  0
  8  1  2  0  0  0  0
  9  6  2  0  0  0  0
 10 14  2  0  0  0  0
 10 15  1  0  0  0  0
 12 22  1  0  0  0  0
 14 19  1  0  0  0  0
 15  2  2  0  0  0  0
 16 10  1  0  0  0  0
 18  6  1  0  0  0  0
 19 20  2  0  0  0  0
 19  7  1  0  0  0  0
 20  8  1  0  0  0  0
 21 15  1  0  0  0  0
 21 12  2  0  0  0  0
 22  3  2  0  0  0  0
 22 23  1  0  0  0  0
 23 18  2  0  0  0  0
 24 27  1  1  0  0  0
 24 31  1  0  0  0  0
 24 28  1  0  0  0  0
 25 30  1  0  0  0  0
 28 25  1  0  0  0  0
 29 26  1  1  0  0  0
 29 30  1  0  0  0  0
 30  5  1  1  0  0  0
 31 29  1  0  0  0  0
M  END
>  <MODEL>
6

>  <REMARK>
 VINA RESULT:     -10.8      2.205      4.037
  Name = 
  1 active torsions:
  status: ('A' for Active; 'I' for Inactive)
    1  A    between atoms: C_5  and  C_30
                            x       y       z     vdW  Elec       q    Type
                         _______ _______ _______ _____ _____    ______ ____

>  <TORSDO>
F 1

$$$$
=
 OpenBabel11122411063D

 31 35  0  0  1  0  0  0  0  0999 V2000
  190.0650  177.1270  146.5240 C   0  0  0  0  0  0  0  0  0  0  0  0
  188.1980  177.7810  143.3210 C   0  0  0  0  0  0  0  0  0  0  0  0
  186.8600  178.1240  143.6730 C   0  0  0  0  0  0  0  0  0  0  0  0
  192.3850  176.8210  140.2560 O   0  0  0  0  0  0  0  0  0  0  0  0
  191.3950  177.1070  139.5330 C   0  0  0  0  0  0  0  0  0  0  0  0
  185.0850  178.5230  145.3020 C   0  0  0  0  0  0  0  0  0  0  0  0
  189.2290  177.4600  144.2540 C   0  0  0  0  0  0  0  0  0  0  0  0
  191.3290  176.8120  146.0260 C   0  0  0  0  0  3  0  0  0  0  0  0
  186.4050  178.1830  145.0030 C   0  0  0  0  0  3  0  0  0  0  0  0
  189.8170  177.4340  141.5180 C   0  0  0  0  0  0  0  0  0  0  0  0
  189.8380  177.1230  147.8930 O   0  0  0  0  0  1  0  0  0  0  0  0
  186.3290  178.3770  141.3490 N   0  0  0  0  0  0  0  0  0  0  0  0
  184.5560  178.5850  146.9690 Cl  0  0  0  0  0  0  0  0  0  0  0  0
  190.7700  177.1340  142.4340 N   0  0  0  0  0  0  0  0  0  0  0  0
  188.5220  177.7610  141.9390 C   0  0  0  0  0  0  0  0  0  0  0  0
  190.1220  177.4180  140.1160 N   0  0  0  0  0  2  0  0  0  0  0  0
  189.0290  177.4480  145.6450 C   0  0  0  0  0  3  0  0  0  0  0  0
  184.1880  178.8120  144.2740 C   0  0  0  0  0  3  0  0  0  0  0  0
  190.5210  177.1370  143.7660 C   0  0  0  0  0  0  0  0  0  0  0  0
  191.5550  176.8170  144.6500 C   0  0  0  0  0  3  0  0  0  0  0  0
  187.5750  178.0600  141.0110 N   0  0  0  0  0  0  0  0  0  0  0  0
  185.9350  178.4210  142.6430 C   0  0  0  0  0  0  0  0  0  0  0  0
  184.6140  178.7610  142.9460 C   0  0  0  0  0  3  0  0  0  0  0  0
  190.8190  174.5650  136.7800 C   0  0  1  0  0  3  0  0  0  0  0  0
  190.2320  176.9480  137.3090 C   0  0  0  0  0  2  0  0  0  0  0  0
  193.8120  176.2520  138.2410 O   0  0  0  0  0  1  0  0  0  0  0  0
  190.3660  173.2480  136.8430 O   0  0  0  0  0  1  0  0  0  0  0  0
  189.7550  175.4940  137.3550 C   0  0  0  0  0  2  0  0  0  0  0  0
  192.6210  176.1340  137.5240 C   0  0  2  0  0  3  0  0  0  0  0  0
  191.5670  177.1280  138.0410 C   0  0  2  0  0  3  0  0  0  0  0  0
  192.1170  174.6930  137.5710 C   0  0  0  0  0  2  0  0  0  0  0  0
  1 11  1  0  0  0  0
  2  3  1  0  0  0  0
  2  7  1  0  0  0  0
  3  9  1  0  0  0  0
  5 16  1  0  0  0  0
  5  4  2  0  0  0  0
  6 13  1  0  0  0  0
  7 17  1  0  0  0  0
  8  1  1  0  0  0  0
  9  6  2  0  0  0  0
 10 15  1  0  0  0  0
 10 14  2  0  0  0  0
 12 22  1  0  0  0  0
 14 19  1  0  0  0  0
 15  2  2  0  0  0  0
 16 10  1  0  0  0  0
 17  1  2  0  0  0  0
 18  6  1  0  0  0  0
 19  7  2  0  0  0  0
 19 20  1  0  0  0  0
 20  8  2  0  0  0  0
 21 12  2  0  0  0  0
 21 15  1  0  0  0  0
 22 23  1  0  0  0  0
 22  3  2  0  0  0  0
 23 18  2  0  0  0  0
 24 27  1  1  0  0  0
 24 28  1  0  0  0  0
 24 31  1  0  0  0  0
 25 28  1  0  0  0  0
 25 30  1  0  0  0  0
 29 31  1  0  0  0  0
 29 30  1  0  0  0  0
 29 26  1  1  0  0  0
 30  5  1  1  0  0  0
M  END
>  <MODEL>
7

>  <REMARK>
 VINA RESULT:     -10.7      2.258      4.370
  Name = 
  1 active torsions:
  status: ('A' for Active; 'I' for Inactive)
    1  A    between atoms: C_5  and  C_30
                            x       y       z     vdW  Elec       q    Type
                         _______ _______ _______ _____ _____    ______ ____

>  <TORSDO>
F 1

$$$$
=
 OpenBabel11122411063D

 31 35  0  0  1  0  0  0  0  0999 V2000
  191.0090  177.3480  141.6830 C   0  0  0  0  0  0  0  0  0  0  0  0
  187.8770  177.8350  143.7160 C   0  0  0  0  0  0  0  0  0  0  0  0
  188.2260  177.6400  145.0840 C   0  0  0  0  0  0  0  0  0  0  0  0
  184.8660  178.8620  139.5070 O   0  0  0  0  0  0  0  0  0  0  0  0
  184.1580  178.9080  140.5470 C   0  0  0  0  0  0  0  0  0  0  0  0
  189.8260  177.1440  146.8600 C   0  0  0  0  0  0  0  0  0  0  0  0
  188.7870  177.7380  142.6210 C   0  0  0  0  0  0  0  0  0  0  0  0
  190.5170  177.5670  140.3960 C   0  0  0  0  0  3  0  0  0  0  0  0
  189.5290  177.3260  145.5090 C   0  0  0  0  0  3  0  0  0  0  0  0
  186.1060  178.3540  142.1070 C   0  0  0  0  0  0  0  0  0  0  0  0
  192.3500  177.0470  141.8710 O   0  0  0  0  0  1  0  0  0  0  0  0
  185.9520  178.0680  145.7100 N   0  0  0  0  0  0  0  0  0  0  0  0
  191.4600  176.7530  147.3500 Cl  0  0  0  0  0  0  0  0  0  0  0  0
  187.0010  178.2530  141.0930 N   0  0  0  0  0  0  0  0  0  0  0  0
  186.5230  178.1480  143.4290 C   0  0  0  0  0  0  0  0  0  0  0  0
  184.7330  178.6690  141.8390 N   0  0  0  0  0  2  0  0  0  0  0  0
  190.1510  177.4340  142.7810 C   0  0  0  0  0  3  0  0  0  0  0  0
  188.8220  177.2720  147.8200 C   0  0  0  0  0  3  0  0  0  0  0  0
  188.3060  177.9570  141.3060 C   0  0  0  0  0  0  0  0  0  0  0  0
  189.1680  177.8690  140.2090 C   0  0  0  0  0  3  0  0  0  0  0  0
  185.6170  178.2520  144.4360 N   0  0  0  0  0  0  0  0  0  0  0  0
  187.2200  177.7670  146.0720 C   0  0  0  0  0  0  0  0  0  0  0  0
  187.5210  177.5830  147.4250 C   0  0  0  0  0  3  0  0  0  0  0  0
  181.3720  177.6300  138.3160 C   0  0  1  0  0  3  0  0  0  0  0  0
  181.8160  178.0170  140.7560 C   0  0  0  0  0  2  0  0  0  0  0  0
  183.1580  180.8840  138.7190 O   0  0  0  0  0  1  0  0  0  0  0  0
  181.3890  176.6750  137.3010 O   0  0  0  0  0  1  0  0  0  0  0  0
  181.8150  176.9860  139.6260 C   0  0  0  0  0  2  0  0  0  0  0  0
  182.3100  179.8290  139.0570 C   0  0  2  0  0  3  0  0  0  0  0  0
  182.6950  179.2250  140.4180 C   0  0  2  0  0  3  0  0  0  0  0  0
  182.3070  178.7780  137.9480 C   0  0  0  0  0  2  0  0  0  0  0  0
  1 11  1  0  0  0  0
  1 17  1  0  0  0  0
  2  3  1  0  0  0  0
  3  9  2  0  0  0  0
  3 22  1  0  0  0  0
  4  5  2  0  0  0  0
  5 16  1  0  0  0  0
  6 13  1  0  0  0  0
  6 18  2  0  0  0  0
  7 17  2  0  0  0  0
  7  2  1  0  0  0  0
  8  1  2  0  0  0  0
  9  6  1  0  0  0  0
 10 15  1  0  0  0  0
 12 22  1  0  0  0  0
 14 19  1  0  0  0  0
 14 10  2  0  0  0  0
 15  2  2  0  0  0  0
 15 21  1  0  0  0  0
 16 10  1  0  0  0  0
 19  7  1  0  0  0  0
 20  8  1  0  0  0  0
 20 19  2  0  0  0  0
 21 12  2  0  0  0  0
 22 23  2  0  0  0  0
 23 18  1  0  0  0  0
 24 27  1  6  0  0  0
 24 28  1  0  0  0  0
 28 25  1  0  0  0  0
 29 26  1  6  0  0  0
 29 30  1  0  0  0  0
 30  5  1  6  0  0  0
 30 25  1  0  0  0  0
 31 24  1  0  0  0  0
 31 29  1  0  0  0  0
M  END
>  <MODEL>
8

>  <REMARK>
 VINA RESULT:     -10.6      2.987      5.408
  Name = 
  1 active torsions:
  status: ('A' for Active; 'I' for Inactive)
    1  A    between atoms: C_5  and  C_30
                            x       y       z     vdW  Elec       q    Type
                         _______ _______ _______ _____ _____    ______ ____

>  <TORSDO>
F 1

$$$$
=
 OpenBabel11122411063D

 31 35  0  0  1  0  0  0  0  0999 V2000
  185.2520  178.2740  145.7880 C   0  0  0  0  0  0  0  0  0  0  0  0
  184.5800  178.6030  142.0980 C   0  0  0  0  0  0  0  0  0  0  0  0
  183.1800  178.8180  141.9390 C   0  0  0  0  0  0  0  0  0  0  0  0
  189.6400  177.9610  140.7470 O   0  0  0  0  0  0  0  0  0  0  0  0
  188.9470  178.1140  139.7070 C   0  0  0  0  0  0  0  0  0  0  0  0
  180.9190  179.0950  142.8210 C   0  0  0  0  0  0  0  0  0  0  0  0
  185.2410  178.4270  143.3500 C   0  0  0  0  0  0  0  0  0  0  0  0
  186.6320  178.0720  145.7810 C   0  0  0  0  0  3  0  0  0  0  0  0
  182.2840  178.8820  143.0220 C   0  0  0  0  0  3  0  0  0  0  0  0
  186.7510  178.3540  140.9950 C   0  0  0  0  0  0  0  0  0  0  0  0
  184.5600  178.3010  146.9900 O   0  0  0  0  0  1  0  0  0  0  0  0
  183.4780  178.9220  139.5630 N   0  0  0  0  0  0  0  0  0  0  0  0
  179.8360  179.1680  144.1930 Cl  0  0  0  0  0  0  0  0  0  0  0  0
  187.3440  178.1910  142.2040 N   0  0  0  0  0  0  0  0  0  0  0  0
  185.3680  178.5610  140.9180 C   0  0  0  0  0  0  0  0  0  0  0  0
  187.5300  178.3140  139.7910 N   0  0  0  0  0  2  0  0  0  0  0  0
  184.5670  178.4500  144.5840 C   0  0  0  0  0  3  0  0  0  0  0  0
  180.4190  179.2480  141.5280 C   0  0  0  0  0  3  0  0  0  0  0  0
  186.6440  178.2210  143.3630 C   0  0  0  0  0  0  0  0  0  0  0  0
  187.3250  178.0450  144.5710 C   0  0  0  0  0  3  0  0  0  0  0  0
  184.7860  178.7230  139.7000 N   0  0  0  0  0  0  0  0  0  0  0  0
  182.6540  178.9760  140.6350 C   0  0  0  0  0  0  0  0  0  0  0  0
  181.2870  179.1890  140.4370 C   0  0  0  0  0  3  0  0  0  0  0  0
  187.8810  177.0640  136.2240 C   0  0  1  0  0  3  0  0  0  0  0  0
  188.9480  179.0290  137.3650 C   0  0  0  0  0  2  0  0  0  0  0  0
  190.3560  175.8130  138.7240 O   0  0  0  0  0  1  0  0  0  0  0  0
  186.6720  176.5420  135.7650 O   0  0  0  0  0  1  0  0  0  0  0  0
  187.6370  178.4370  136.8420 C   0  0  0  0  0  2  0  0  0  0  0  0
  189.8010  176.6810  137.7830 C   0  0  2  0  0  3  0  0  0  0  0  0
  189.6290  178.0930  138.3690 C   0  0  2  0  0  3  0  0  0  0  0  0
  188.4820  176.1180  137.2590 C   0  0  0  0  0  2  0  0  0  0  0  0
  1 11  1  0  0  0  0
  2  7  1  0  0  0  0
  3  2  1  0  0  0  0
  3  9  1  0  0  0  0
  5 16  1  0  0  0  0
  5  4  2  0  0  0  0
  6  9  2  0  0  0  0
  6 13  1  0  0  0  0
  7 19  2  0  0  0  0
  7 17  1  0  0  0  0
  8  1  1  0  0  0  0
 10 14  2  0  0  0  0
 12 21  2  0  0  0  0
 12 22  1  0  0  0  0
 14 19  1  0  0  0  0
 15 10  1  0  0  0  0
 15  2  2  0  0  0  0
 16 10  1  0  0  0  0
 17  1  2  0  0  0  0
 18  6  1  0  0  0  0
 19 20  1  0  0  0  0
 20  8  2  0  0  0  0
 21 15  1  0  0  0  0
 22  3  2  0  0  0  0
 23 22  1  0  0  0  0
 23 18  2  0  0  0  0
 24 27  1  1  0  0  0
 24 28  1  0  0  0  0
 24 31  1  0  0  0  0
 25 30  1  0  0  0  0
 28 25  1  0  0  0  0
 29 30  1  0  0  0  0
 29 26  1  1  0  0  0
 30  5  1  1  0  0  0
 31 29  1  0  0  0  0
M  END
>  <MODEL>
9

>  <REMARK>
 VINA RESULT:     -10.5      2.592      5.132
  Name = 
  1 active torsions:
  status: ('A' for Active; 'I' for Inactive)
    1  A    between atoms: C_5  and  C_30
                            x       y       z     vdW  Elec       q    Type
                         _______ _______ _______ _____ _____    ______ ____

>  <TORSDO>
F 1

$$$$
