=
 OpenBabel11122411413D

 37 44  0  0  1  0  0  0  0  0999 V2000
  184.2860  175.3330  137.3470 C   0  0  0  0  0  2  0  0  0  0  0  0
  188.2870  177.6120  137.4530 C   0  0  0  0  0  0  0  0  0  0  0  0
  184.8690  178.4380  139.7280 C   0  0  0  0  0  0  0  0  0  0  0  0
  184.3430  174.2570  136.3580 N   0  0  0  0  0  0  0  0  0  0  0  0
  181.3760  177.9280  138.1030 C   0  0  0  0  0  2  0  0  0  0  0  0
  187.2740  178.3300  139.6120 C   0  0  0  0  0  0  0  0  0  0  0  0
  183.7680  178.2330  138.7910 C   0  0  0  0  0  0  0  0  0  0  0  0
  181.7980  174.4080  136.3750 C   0  0  2  0  0  3  0  0  0  0  0  0
  186.0270  178.2280  139.0420 C   0  0  0  0  0  0  0  0  0  0  0  0
  182.4480  178.4290  139.0550 C   0  0  0  0  0  0  0  0  0  0  0  0
  187.3550  178.6020  140.9850 C   0  0  0  0  0  3  0  0  0  0  0  0
  183.0910  174.0980  135.5980 C   0  0  0  0  0  2  0  0  0  0  0  0
  185.8420  177.8600  137.7020 N   0  0  0  0  0  0  0  0  0  0  0  0
  188.3950  176.0990  137.5230 C   0  0  0  0  0  1  0  0  0  0  0  0
  183.6960  178.6190  141.9480 C   0  0  0  0  0  3  0  0  0  0  0  0
  186.1630  178.7290  141.7360 C   0  0  0  0  0  3  0  0  0  0  0  0
  186.9500  177.9860  136.7600 C   0  0  0  0  0  2  0  0  0  0  0  0
  181.3680  175.8900  136.4310 C   0  0  1  0  0  3  0  0  0  0  0  0
  181.8170  176.5680  137.6380 C   0  0  1  0  0  3  0  0  0  0  0  0
  184.8980  178.6360  141.1100 C   0  0  0  0  0  0  0  0  0  0  0  0
  184.4110  177.9230  137.4220 C   0  0  1  0  0  3  0  0  0  0  0  0
  188.3940  178.1540  138.7880 O   0  0  0  0  0  0  0  0  0  0  0  0
  182.0180  179.1690  140.2190 N   0  0  0  0  0  0  0  0  0  0  0  0
  189.4330  178.1350  136.6160 C   0  0  0  0  0  1  0  0  0  0  0  0
  182.4880  176.8650  136.3560 N   0  0  1  0  0  0  0  0  0  0  0  0
  181.7440  173.7700  137.6180 O   0  0  0  0  0  1  0  0  0  0  0  0
  183.9090  176.6640  136.6800 C   0  0  2  0  0  3  0  0  0  0  0  0
  182.4400  178.8380  141.5550 C   0  0  0  0  0  3  0  0  0  0  0  0
  179.9310  180.2320  141.0340 C   0  0  0  0  0  3  0  0  0  0  0  0
  180.9600  180.1460  140.0830 C   0  0  0  0  0  0  0  0  0  0  0  0
  180.9600  181.0510  139.0100 C   0  0  0  0  0  3  0  0  0  0  0  0
  179.9400  182.9560  137.7630 C   0  0  0  0  0  1  0  0  0  0  0  0
  178.9560  182.0520  139.8350 N   0  0  0  0  0  0  0  0  0  0  0  0
  179.9430  182.0000  138.9000 C   0  0  0  0  0  0  0  0  0  0  0  0
  178.9310  181.1960  140.8900 C   0  0  0  0  0  3  0  0  0  0  0  0
  186.0250  173.0070  137.5930 C   0  0  0  0  0  1  0  0  0  0  0  0
  184.6030  173.0120  137.0650 C   0  0  0  0  0  2  0  0  0  0  0  0
  2 14  1  0  0  0  0
  2 22  1  0  0  0  0
  3 20  1  0  0  0  0
  4 37  1  0  0  0  0
  4  1  1  0  0  0  0
  5 10  1  0  0  0  0
  6 11  2  0  0  0  0
  7 10  2  0  0  0  0
  7  3  1  0  0  0  0
  8 18  1  0  0  0  0
  8 26  1  1  0  0  0
  9  6  1  0  0  0  0
  9  3  2  0  0  0  0
 10 23  1  0  0  0  0
 11 16  1  0  0  0  0
 12  4  1  0  0  0  0
 12  8  1  0  0  0  0
 13  9  1  0  0  0  0
 17  2  1  0  0  0  0
 17 13  1  0  0  0  0
 18 19  1  0  0  0  0
 19  5  1  0  0  0  0
 20 16  2  0  0  0  0
 20 15  1  0  0  0  0
 21 13  1  0  0  0  0
 21  7  1  0  0  0  0
 22  6  1  0  0  0  0
 23 28  1  0  0  0  0
 24  2  1  0  0  0  0
 25 18  1  0  0  0  0
 25 27  1  0  0  0  0
 25 19  1  0  0  0  0
 27  1  1  0  0  0  0
 27 21  1  0  0  0  0
 28 15  2  0  0  0  0
 30 23  1  0  0  0  0
 30 29  2  0  0  0  0
 31 30  1  0  0  0  0
 32 34  1  0  0  0  0
 33 35  2  0  0  0  0
 34 31  2  0  0  0  0
 34 33  1  0  0  0  0
 35 29  1  0  0  0  0
 37 36  1  0  0  0  0
M  END
>  <MODEL>
1

>  <REMARK>
 VINA RESULT:      -7.1      0.000      0.000
  Name = 
  2 active torsions:
  status: ('A' for Active; 'I' for Inactive)
    1  A    between atoms: N_4  and  C_37
    2  A    between atoms: N_23  and  C_30
                            x       y       z     vdW  Elec       q    Type
                         _______ _______ _______ _____ _____    ______ ____

>  <TORSDO>
F 2

$$$$
=
 OpenBabel11122411413D

 37 44  0  0  1  0  0  0  0  0999 V2000
  180.6630  180.1080  138.4070 C   0  0  0  0  0  2  0  0  0  0  0  0
  180.5780  178.8040  142.8240 C   0  0  0  0  0  0  0  0  0  0  0  0
  183.7050  178.2280  140.0980 C   0  0  0  0  0  0  0  0  0  0  0  0
  179.4000  180.7490  138.0440 N   0  0  0  0  0  0  0  0  0  0  0  0
  182.8330  177.4630  136.3890 C   0  0  0  0  0  2  0  0  0  0  0  0
  183.0230  178.7320  142.3550 C   0  0  0  0  0  0  0  0  0  0  0  0
  183.0250  177.8750  138.8560 C   0  0  0  0  0  0  0  0  0  0  0  0
  180.0360  180.1430  135.6510 C   0  0  2  0  0  3  0  0  0  0  0  0
  182.7460  178.3900  141.0520 C   0  0  0  0  0  0  0  0  0  0  0  0
  183.6270  177.5450  137.6820 C   0  0  0  0  0  0  0  0  0  0  0  0
  184.3560  178.9900  142.7030 C   0  0  0  0  0  3  0  0  0  0  0  0
  178.9310  180.3890  136.6950 C   0  0  0  0  0  2  0  0  0  0  0  0
  181.4370  178.2120  140.5850 N   0  0  0  0  0  0  0  0  0  0  0  0
  180.1420  180.2340  142.5570 C   0  0  0  0  0  1  0  0  0  0  0  0
  186.0730  178.6390  139.3500 C   0  0  0  0  0  3  0  0  0  0  0  0
  185.3570  178.9210  141.7060 C   0  0  0  0  0  3  0  0  0  0  0  0
  180.3570  177.9650  141.5380 C   0  0  0  0  0  2  0  0  0  0  0  0
  180.6510  178.7270  135.6220 C   0  0  1  0  0  3  0  0  0  0  0  0
  181.8760  178.6230  136.4000 C   0  0  1  0  0  3  0  0  0  0  0  0
  185.0350  178.5460  140.3810 C   0  0  0  0  0  0  0  0  0  0  0  0
  181.5200  177.7880  139.1900 C   0  0  1  0  0  3  0  0  0  0  0  0
  181.9550  178.8060  143.2600 O   0  0  0  0  0  0  0  0  0  0  0  0
  185.0310  177.2040  137.6290 N   0  0  0  0  0  0  0  0  0  0  0  0
  179.7130  178.2390  143.9290 C   0  0  0  0  0  1  0  0  0  0  0  0
  180.6370  178.0170  136.9270 N   0  0  1  0  0  0  0  0  0  0  0  0
  180.9940  181.1630  135.6220 O   0  0  0  0  0  1  0  0  0  0  0  0
  180.5520  178.5810  138.2840 C   0  0  2  0  0  3  0  0  0  0  0  0
  186.0630  178.0640  138.1460 C   0  0  0  0  0  3  0  0  0  0  0  0
  186.3050  176.2250  135.7400 C   0  0  0  0  0  3  0  0  0  0  0  0
  185.4510  176.0660  136.8430 C   0  0  0  0  0  0  0  0  0  0  0  0
  185.0380  174.7700  137.1890 C   0  0  0  0  0  3  0  0  0  0  0  0
  185.0250  172.3060  136.7960 C   0  0  0  0  0  1  0  0  0  0  0  0
  186.2860  173.8680  135.3650 N   0  0  0  0  0  0  0  0  0  0  0  0
  185.4650  173.6770  136.4320 C   0  0  0  0  0  0  0  0  0  0  0  0
  186.7110  175.1080  135.0080 C   0  0  0  0  0  3  0  0  0  0  0  0
  178.9330  182.7700  139.3160 C   0  0  0  0  0  1  0  0  0  0  0  0
  179.6010  182.1890  138.0850 C   0  0  0  0  0  2  0  0  0  0  0  0
  2 22  1  0  0  0  0
  2 24  1  0  0  0  0
  3 20  2  0  0  0  0
  3  9  1  0  0  0  0
  4 37  1  0  0  0  0
  4  1  1  0  0  0  0
  5 19  1  0  0  0  0
  5 10  1  0  0  0  0
  6 11  1  0  0  0  0
  6 22  1  0  0  0  0
  7 21  1  0  0  0  0
  7  3  1  0  0  0  0
  8 26  1  1  0  0  0
  8 12  1  0  0  0  0
  9  6  2  0  0  0  0
 10  7  2  0  0  0  0
 12  4  1  0  0  0  0
 13  9  1  0  0  0  0
 13 17  1  0  0  0  0
 14  2  1  0  0  0  0
 15 20  1  0  0  0  0
 16 11  2  0  0  0  0
 17  2  1  0  0  0  0
 18  8  1  0  0  0  0
 18 19  1  0  0  0  0
 18 25  1  0  0  0  0
 19 25  1  0  0  0  0
 20 16  1  0  0  0  0
 21 13  1  0  0  0  0
 23 10  1  0  0  0  0
 23 28  1  0  0  0  0
 25 27  1  0  0  0  0
 27  1  1  0  0  0  0
 27 21  1  0  0  0  0
 28 15  2  0  0  0  0
 29 30  1  0  0  0  0
 30 31  2  0  0  0  0
 30 23  1  0  0  0  0
 33 34  2  0  0  0  0
 34 32  1  0  0  0  0
 34 31  1  0  0  0  0
 35 33  1  0  0  0  0
 35 29  2  0  0  0  0
 37 36  1  0  0  0  0
M  END
>  <MODEL>
2

>  <REMARK>
 VINA RESULT:      -6.8      2.475      7.177
  Name = 
  2 active torsions:
  status: ('A' for Active; 'I' for Inactive)
    1  A    between atoms: N_4  and  C_37
    2  A    between atoms: N_23  and  C_30
                            x       y       z     vdW  Elec       q    Type
                         _______ _______ _______ _____ _____    ______ ____

>  <TORSDO>
F 2

$$$$
=
 OpenBabel11122411413D

 37 44  0  0  1  0  0  0  0  0999 V2000
  188.2510  177.1360  141.3030 C   0  0  0  0  0  2  0  0  0  0  0  0
  184.6990  178.5460  138.7310 C   0  0  0  0  0  0  0  0  0  0  0  0
  187.7250  175.8870  137.5860 C   0  0  0  0  0  0  0  0  0  0  0  0
  188.2120  177.7800  142.6160 N   0  0  0  0  0  0  0  0  0  0  0  0
  191.3370  176.4950  138.8860 C   0  0  0  0  0  2  0  0  0  0  0  0
  185.3950  176.4980  137.4970 C   0  0  0  0  0  0  0  0  0  0  0  0
  188.9350  176.4640  138.1650 C   0  0  0  0  0  0  0  0  0  0  0  0
  190.7020  177.2420  142.7060 C   0  0  2  0  0  3  0  0  0  0  0  0
  186.6950  176.7280  137.8830 C   0  0  0  0  0  0  0  0  0  0  0  0
  190.1970  175.9780  138.0240 C   0  0  0  0  0  0  0  0  0  0  0  0
  185.1050  175.3050  136.8200 C   0  0  0  0  0  3  0  0  0  0  0  0
  189.5430  178.1710  143.1120 C   0  0  0  0  0  2  0  0  0  0  0  0
  187.0640  177.8400  138.6510 N   0  0  0  0  0  0  0  0  0  0  0  0
  184.3470  178.0910  140.1360 C   0  0  0  0  0  1  0  0  0  0  0  0
  188.4820  173.5990  136.8590 C   0  0  0  0  0  3  0  0  0  0  0  0
  186.1430  174.3740  136.5860 C   0  0  0  0  0  3  0  0  0  0  0  0
  186.1820  179.0020  138.7100 C   0  0  0  0  0  2  0  0  0  0  0  0
  191.3380  177.5010  141.3230 C   0  0  1  0  0  3  0  0  0  0  0  0
  190.7840  176.6560  140.2760 C   0  0  1  0  0  3  0  0  0  0  0  0
  187.4720  174.6540  136.9810 C   0  0  0  0  0  0  0  0  0  0  0  0
  188.5160  177.8030  138.8100 C   0  0  1  0  0  3  0  0  0  0  0  0
  184.4320  177.4700  137.8060 O   0  0  0  0  0  0  0  0  0  0  0  0
  190.5140  174.9960  137.0120 N   0  0  0  0  0  0  0  0  0  0  0  0
  183.8210  179.7270  138.3780 C   0  0  0  0  0  1  0  0  0  0  0  0
  190.4150  178.0850  140.3150 N   0  0  1  0  0  0  0  0  0  0  0  0
  190.4270  175.8920  142.9440 O   0  0  0  0  0  1  0  0  0  0  0  0
  188.9450  178.0420  140.2750 C   0  0  2  0  0  3  0  0  0  0  0  0
  189.8070  173.7490  136.8860 C   0  0  0  0  0  3  0  0  0  0  0  0
  191.8550  176.2280  135.3290 C   0  0  0  0  0  3  0  0  0  0  0  0
  191.7170  175.1570  136.2260 C   0  0  0  0  0  0  0  0  0  0  0  0
  192.7880  174.2610  136.3700 C   0  0  0  0  0  3  0  0  0  0  0  0
  195.0820  173.4870  135.7670 C   0  0  0  0  0  1  0  0  0  0  0  0
  194.0480  175.4810  134.7520 N   0  0  0  0  0  0  0  0  0  0  0  0
  193.9500  174.4380  135.6180 C   0  0  0  0  0  0  0  0  0  0  0  0
  193.0340  176.3720  134.5940 C   0  0  0  0  0  3  0  0  0  0  0  0
  187.5820  177.4560  144.9430 C   0  0  0  0  0  1  0  0  0  0  0  0
  187.6360  176.8350  143.5600 C   0  0  0  0  0  2  0  0  0  0  0  0
  1  4  1  0  0  0  0
  2 14  1  0  0  0  0
  3  9  1  0  0  0  0
  3  7  1  0  0  0  0
  4 12  1  0  0  0  0
  4 37  1  0  0  0  0
  5 19  1  0  0  0  0
  6 22  1  0  0  0  0
  6  9  2  0  0  0  0
  7 21  1  0  0  0  0
  8 26  1  6  0  0  0
  8 12  1  0  0  0  0
  9 13  1  0  0  0  0
 10  7  2  0  0  0  0
 10  5  1  0  0  0  0
 11  6  1  0  0  0  0
 13 17  1  0  0  0  0
 13 21  1  0  0  0  0
 15 28  2  0  0  0  0
 15 20  1  0  0  0  0
 16 11  2  0  0  0  0
 16 20  1  0  0  0  0
 17  2  1  0  0  0  0
 18  8  1  0  0  0  0
 19 25  1  0  0  0  0
 19 18  1  0  0  0  0
 20  3  2  0  0  0  0
 21 27  1  0  0  0  0
 22  2  1  0  0  0  0
 23 10  1  0  0  0  0
 24  2  1  0  0  0  0
 25 18  1  0  0  0  0
 27 25  1  0  0  0  0
 27  1  1  0  0  0  0
 28 23  1  0  0  0  0
 29 30  1  0  0  0  0
 30 31  2  0  0  0  0
 30 23  1  0  0  0  0
 33 34  2  0  0  0  0
 34 32  1  0  0  0  0
 34 31  1  0  0  0  0
 35 33  1  0  0  0  0
 35 29  2  0  0  0  0
 37 36  1  0  0  0  0
M  END
>  <MODEL>
3

>  <REMARK>
 VINA RESULT:      -6.3      3.709      9.534
  Name = 
  2 active torsions:
  status: ('A' for Active; 'I' for Inactive)
    1  A    between atoms: N_4  and  C_37
    2  A    between atoms: N_23  and  C_30
                            x       y       z     vdW  Elec       q    Type
                         _______ _______ _______ _____ _____    ______ ____

>  <TORSDO>
F 2

$$$$
=
 OpenBabel11122411413D

 37 44  0  0  1  0  0  0  0  0999 V2000
  188.8290  176.8890  141.2170 C   0  0  0  0  0  2  0  0  0  0  0  0
  185.6000  178.0430  138.1430 C   0  0  0  0  0  0  0  0  0  0  0  0
  189.0040  175.7050  137.4470 C   0  0  0  0  0  0  0  0  0  0  0  0
  188.5280  177.4880  142.5170 N   0  0  0  0  0  0  0  0  0  0  0  0
  192.2980  176.6030  139.3040 C   0  0  0  0  0  2  0  0  0  0  0  0
  186.6680  176.1040  137.0030 C   0  0  0  0  0  0  0  0  0  0  0  0
  190.0500  176.3740  138.2150 C   0  0  0  0  0  0  0  0  0  0  0  0
  191.0140  177.1780  142.9880 C   0  0  2  0  0  3  0  0  0  0  0  0
  187.8660  176.4390  137.5900 C   0  0  0  0  0  0  0  0  0  0  0  0
  191.3590  176.0090  138.2670 C   0  0  0  0  0  0  0  0  0  0  0  0
  186.6010  174.9090  136.2720 C   0  0  0  0  0  3  0  0  0  0  0  0
  189.7230  177.9850  143.2210 C   0  0  0  0  0  2  0  0  0  0  0  0
  188.0050  177.5580  138.4220 N   0  0  0  0  0  0  0  0  0  0  0  0
  185.0800  177.5160  139.4690 C   0  0  0  0  0  1  0  0  0  0  0  0
  190.0780  173.5180  136.8130 C   0  0  0  0  0  3  0  0  0  0  0  0
  187.7460  174.0840  136.1900 C   0  0  0  0  0  3  0  0  0  0  0  0
  187.0180  178.6330  138.3600 C   0  0  0  0  0  2  0  0  0  0  0  0
  191.8280  177.5330  141.7250 C   0  0  1  0  0  3  0  0  0  0  0  0
  191.5250  176.6720  140.5920 C   0  0  1  0  0  3  0  0  0  0  0  0
  188.9650  174.4730  136.7910 C   0  0  0  0  0  0  0  0  0  0  0  0
  189.4110  177.6490  138.8060 C   0  0  1  0  0  3  0  0  0  0  0  0
  185.5820  176.9740  137.1720 O   0  0  0  0  0  0  0  0  0  0  0  0
  191.9200  175.0900  137.3030 N   0  0  0  0  0  0  0  0  0  0  0  0
  184.6790  179.1480  137.6740 C   0  0  0  0  0  1  0  0  0  0  0  0
  191.0210  178.0600  140.5930 N   0  0  1  0  0  0  0  0  0  0  0  0
  190.8340  175.8010  143.1600 O   0  0  0  0  0  1  0  0  0  0  0  0
  189.5850  177.8830  140.3230 C   0  0  2  0  0  3  0  0  0  0  0  0
  191.3620  173.7870  137.0500 C   0  0  0  0  0  3  0  0  0  0  0  0
  193.3310  176.3060  135.6660 C   0  0  0  0  0  3  0  0  0  0  0  0
  193.2090  175.3820  136.7170 C   0  0  0  0  0  0  0  0  0  0  0  0
  194.3720  174.7720  137.2110 C   0  0  0  0  0  3  0  0  0  0  0  0
  196.8430  174.4280  137.1680 C   0  0  0  0  0  1  0  0  0  0  0  0
  195.6950  175.9700  135.6260 N   0  0  0  0  0  0  0  0  0  0  0  0
  195.6120  175.0770  136.6480 C   0  0  0  0  0  0  0  0  0  0  0  0
  194.5890  176.5850  135.1290 C   0  0  0  0  0  3  0  0  0  0  0  0
  186.8010  177.0850  144.1830 C   0  0  0  0  0  1  0  0  0  0  0  0
  187.9050  176.4680  143.3460 C   0  0  0  0  0  2  0  0  0  0  0  0
  1  4  1  0  0  0  0
  2 17  1  0  0  0  0
  2 14  1  0  0  0  0
  3  9  1  0  0  0  0
  3  7  1  0  0  0  0
  4 12  1  0  0  0  0
  4 37  1  0  0  0  0
  5 19  1  0  0  0  0
  6 22  1  0  0  0  0
  6  9  2  0  0  0  0
  7 10  2  0  0  0  0
  7 21  1  0  0  0  0
  8 26  1  6  0  0  0
  8 12  1  0  0  0  0
  9 13  1  0  0  0  0
 10  5  1  0  0  0  0
 11  6  1  0  0  0  0
 13 21  1  0  0  0  0
 15 28  2  0  0  0  0
 16 11  2  0  0  0  0
 16 20  1  0  0  0  0
 17 13  1  0  0  0  0
 18  8  1  0  0  0  0
 19 25  1  0  0  0  0
 19 18  1  0  0  0  0
 20 15  1  0  0  0  0
 20  3  2  0  0  0  0
 21 27  1  0  0  0  0
 22  2  1  0  0  0  0
 23 10  1  0  0  0  0
 24  2  1  0  0  0  0
 25 18  1  0  0  0  0
 27 25  1  0  0  0  0
 27  1  1  0  0  0  0
 28 23  1  0  0  0  0
 29 30  1  0  0  0  0
 30 31  2  0  0  0  0
 30 23  1  0  0  0  0
 33 34  2  0  0  0  0
 34 32  1  0  0  0  0
 34 31  1  0  0  0  0
 35 33  1  0  0  0  0
 35 29  2  0  0  0  0
 37 36  1  0  0  0  0
M  END
>  <MODEL>
4

>  <REMARK>
 VINA RESULT:      -5.6      4.265     10.117
  Name = 
  2 active torsions:
  status: ('A' for Active; 'I' for Inactive)
    1  A    between atoms: N_4  and  C_37
    2  A    between atoms: N_23  and  C_30
                            x       y       z     vdW  Elec       q    Type
                         _______ _______ _______ _____ _____    ______ ____

>  <TORSDO>
F 2

$$$$
=
 OpenBabel11122411413D

 37 44  0  0  1  0  0  0  0  0999 V2000
  182.7270  174.6940  136.5390 C   0  0  0  0  0  2  0  0  0  0  0  0
  187.0660  175.9560  135.6460 C   0  0  0  0  0  0  0  0  0  0  0  0
  184.2590  178.0660  137.9280 C   0  0  0  0  0  0  0  0  0  0  0  0
  182.4220  173.4270  135.8760 N   0  0  0  0  0  0  0  0  0  0  0  0
  180.5290  177.9880  136.8400 C   0  0  0  0  0  2  0  0  0  0  0  0
  186.5510  177.3880  137.6170 C   0  0  0  0  0  0  0  0  0  0  0  0
  183.0110  177.8980  137.1900 C   0  0  0  0  0  0  0  0  0  0  0  0
  179.9880  174.1540  136.0930 C   0  0  2  0  0  3  0  0  0  0  0  0
  185.2360  177.4380  137.2170 C   0  0  0  0  0  0  0  0  0  0  0  0
  181.8100  178.4470  137.5160 C   0  0  0  0  0  0  0  0  0  0  0  0
  186.8900  177.9590  138.8530 C   0  0  0  0  0  3  0  0  0  0  0  0
  181.0630  173.3780  135.3090 C   0  0  0  0  0  2  0  0  0  0  0  0
  184.7830  176.8080  136.0500 N   0  0  0  0  0  0  0  0  0  0  0  0
  186.8860  174.5220  136.1100 C   0  0  0  0  0  1  0  0  0  0  0  0
  183.4930  179.0430  140.1180 C   0  0  0  0  0  3  0  0  0  0  0  0
  185.8730  178.5320  139.6510 C   0  0  0  0  0  3  0  0  0  0  0  0
  185.7390  176.4460  135.0070 C   0  0  0  0  0  2  0  0  0  0  0  0
  179.8700  175.6630  135.7880 C   0  0  1  0  0  3  0  0  0  0  0  0
  180.6200  176.4920  136.7190 C   0  0  1  0  0  3  0  0  0  0  0  0
  184.5360  178.5820  139.1960 C   0  0  0  0  0  0  0  0  0  0  0  0
  183.3660  177.1260  135.9000 C   0  0  1  0  0  3  0  0  0  0  0  0
  187.4780  176.7660  136.7680 O   0  0  0  0  0  0  0  0  0  0  0  0
  181.7140  179.5260  138.4730 N   0  0  0  0  0  0  0  0  0  0  0  0
  188.1520  175.9840  134.5940 C   0  0  0  0  0  1  0  0  0  0  0  0
  181.1340  176.3090  135.3470 N   0  0  1  0  0  0  0  0  0  0  0  0
  179.9990  173.8660  137.4610 O   0  0  0  0  0  1  0  0  0  0  0  0
  182.5220  175.8730  135.5760 C   0  0  2  0  0  3  0  0  0  0  0  0
  182.2600  179.4410  139.8020 C   0  0  0  0  0  3  0  0  0  0  0  0
  179.9630  181.1500  139.1400 C   0  0  0  0  0  3  0  0  0  0  0  0
  180.8590  180.6540  138.1800 C   0  0  0  0  0  0  0  0  0  0  0  0
  180.9330  181.3000  136.9360 C   0  0  0  0  0  3  0  0  0  0  0  0
  180.1900  183.0810  135.3540 C   0  0  0  0  0  1  0  0  0  0  0  0
  179.2520  182.8500  137.6220 N   0  0  0  0  0  0  0  0  0  0  0  0
  180.1150  182.4000  136.6720 C   0  0  0  0  0  0  0  0  0  0  0  0
  179.1610  182.2530  138.8390 C   0  0  0  0  0  3  0  0  0  0  0  0
  183.8870  171.6830  136.7330 C   0  0  0  0  0  1  0  0  0  0  0  0
  182.5380  172.3650  136.8640 C   0  0  0  0  0  2  0  0  0  0  0  0
  2 14  1  0  0  0  0
  2 22  1  0  0  0  0
  3 20  1  0  0  0  0
  4  1  1  0  0  0  0
  4 37  1  0  0  0  0
  5 10  1  0  0  0  0
  6 11  2  0  0  0  0
  7 10  2  0  0  0  0
  7  3  1  0  0  0  0
  8 26  1  1  0  0  0
  9  6  1  0  0  0  0
  9  3  2  0  0  0  0
 10 23  1  0  0  0  0
 11 16  1  0  0  0  0
 12  4  1  0  0  0  0
 12  8  1  0  0  0  0
 13  9  1  0  0  0  0
 17  2  1  0  0  0  0
 17 13  1  0  0  0  0
 18  8  1  0  0  0  0
 18 19  1  0  0  0  0
 19  5  1  0  0  0  0
 20 16  2  0  0  0  0
 20 15  1  0  0  0  0
 21 13  1  0  0  0  0
 21  7  1  0  0  0  0
 22  6  1  0  0  0  0
 23 28  1  0  0  0  0
 24  2  1  0  0  0  0
 25 27  1  0  0  0  0
 25 18  1  0  0  0  0
 25 19  1  0  0  0  0
 27 21  1  0  0  0  0
 27  1  1  0  0  0  0
 28 15  2  0  0  0  0
 30 23  1  0  0  0  0
 30 29  2  0  0  0  0
 31 30  1  0  0  0  0
 32 34  1  0  0  0  0
 33 35  2  0  0  0  0
 34 31  2  0  0  0  0
 34 33  1  0  0  0  0
 35 29  1  0  0  0  0
 36 37  1  0  0  0  0
M  END
>  <MODEL>
5

>  <REMARK>
 VINA RESULT:      -5.5      1.695      2.149
  Name = 
  2 active torsions:
  status: ('A' for Active; 'I' for Inactive)
    1  A    between atoms: N_4  and  C_37
    2  A    between atoms: N_23  and  C_30
                            x       y       z     vdW  Elec       q    Type
                         _______ _______ _______ _____ _____    ______ ____

>  <TORSDO>
F 2

$$$$
=
 OpenBabel11122411413D

 37 44  0  0  1  0  0  0  0  0999 V2000
  185.8630  175.2780  137.2230 C   0  0  0  0  0  2  0  0  0  0  0  0
  189.5060  177.5180  138.9340 C   0  0  0  0  0  0  0  0  0  0  0  0
  185.4700  178.4490  139.5540 C   0  0  0  0  0  0  0  0  0  0  0  0
  186.3030  174.1710  136.3740 N   0  0  0  0  0  0  0  0  0  0  0  0
  182.9620  177.9240  136.6320 C   0  0  0  0  0  2  0  0  0  0  0  0
  187.7020  178.3140  140.4550 C   0  0  0  0  0  0  0  0  0  0  0  0
  184.8560  178.2270  138.2490 C   0  0  0  0  0  0  0  0  0  0  0  0
  183.9870  174.3480  135.3240 C   0  0  2  0  0  3  0  0  0  0  0  0
  186.8040  178.2060  139.4190 C   0  0  0  0  0  0  0  0  0  0  0  0
  183.5510  178.4440  137.9330 C   0  0  0  0  0  0  0  0  0  0  0  0
  187.2090  178.6270  141.7300 C   0  0  0  0  0  3  0  0  0  0  0  0
  185.4790  174.0010  135.1650 C   0  0  0  0  0  2  0  0  0  0  0  0
  187.1860  177.7990  138.1340 N   0  0  0  0  0  0  0  0  0  0  0  0
  189.5420  176.0080  139.0790 C   0  0  0  0  0  1  0  0  0  0  0  0
  183.4830  178.7120  141.0770 C   0  0  0  0  0  3  0  0  0  0  0  0
  185.8160  178.7900  141.9110 C   0  0  0  0  0  3  0  0  0  0  0  0
  188.5890  177.8840  137.7370 C   0  0  0  0  0  2  0  0  0  0  0  0
  183.6060  175.8360  135.1600 C   0  0  1  0  0  3  0  0  0  0  0  0
  183.5260  176.5460  136.4270 C   0  0  1  0  0  3  0  0  0  0  0  0
  184.9250  178.6910  140.8170 C   0  0  0  0  0  0  0  0  0  0  0  0
  186.0030  177.8670  137.2800 C   0  0  1  0  0  3  0  0  0  0  0  0
  189.0590  178.1010  140.1780 O   0  0  0  0  0  0  0  0  0  0  0  0
  182.6910  179.2250  138.7940 N   0  0  0  0  0  0  0  0  0  0  0  0
  190.9080  178.0030  138.6390 C   0  0  0  0  0  1  0  0  0  0  0  0
  184.6760  176.7960  135.5350 N   0  0  1  0  0  0  0  0  0  0  0  0
  183.4060  173.7500  136.4460 O   0  0  0  0  0  1  0  0  0  0  0  0
  185.8290  176.5910  136.4280 C   0  0  2  0  0  3  0  0  0  0  0  0
  182.5100  178.9310  140.1910 C   0  0  0  0  0  3  0  0  0  0  0  0
  181.9430  181.5710  138.5060 C   0  0  0  0  0  3  0  0  0  0  0  0
  181.8080  180.2070  138.2050 C   0  0  0  0  0  0  0  0  0  0  0  0
  180.8170  179.8160  137.2910 C   0  0  0  0  0  3  0  0  0  0  0  0
  178.9310  180.3640  135.7520 C   0  0  0  0  0  1  0  0  0  0  0  0
  180.1350  182.0900  137.0350 N   0  0  0  0  0  0  0  0  0  0  0  0
  179.9830  180.7770  136.7160 C   0  0  0  0  0  0  0  0  0  0  0  0
  181.0900  182.5020  137.9100 C   0  0  0  0  0  3  0  0  0  0  0  0
  187.5600  172.2390  137.1550 C   0  0  0  0  0  1  0  0  0  0  0  0
  186.2180  172.9460  137.1550 C   0  0  0  0  0  2  0  0  0  0  0  0
  2 14  1  0  0  0  0
  2 22  1  0  0  0  0
  3 20  1  0  0  0  0
  4 37  1  0  0  0  0
  4  1  1  0  0  0  0
  5 10  1  0  0  0  0
  6 11  2  0  0  0  0
  7  3  1  0  0  0  0
  8 26  1  1  0  0  0
  9  3  2  0  0  0  0
  9  6  1  0  0  0  0
 10  7  2  0  0  0  0
 10 23  1  0  0  0  0
 11 16  1  0  0  0  0
 12  8  1  0  0  0  0
 12  4  1  0  0  0  0
 13  9  1  0  0  0  0
 17 13  1  0  0  0  0
 17  2  1  0  0  0  0
 18  8  1  0  0  0  0
 18 25  1  0  0  0  0
 18 19  1  0  0  0  0
 19  5  1  0  0  0  0
 20 15  1  0  0  0  0
 20 16  2  0  0  0  0
 21 13  1  0  0  0  0
 21  7  1  0  0  0  0
 22  6  1  0  0  0  0
 23 28  1  0  0  0  0
 24  2  1  0  0  0  0
 25 19  1  0  0  0  0
 25 27  1  0  0  0  0
 27  1  1  0  0  0  0
 27 21  1  0  0  0  0
 28 15  2  0  0  0  0
 30 29  1  0  0  0  0
 30 23  1  0  0  0  0
 31 30  2  0  0  0  0
 32 34  1  0  0  0  0
 33 35  1  0  0  0  0
 34 33  2  0  0  0  0
 34 31  1  0  0  0  0
 35 29  2  0  0  0  0
 37 36  1  0  0  0  0
M  END
>  <MODEL>
6

>  <REMARK>
 VINA RESULT:      -5.4      1.672      2.032
  Name = 
  2 active torsions:
  status: ('A' for Active; 'I' for Inactive)
    1  A    between atoms: N_4  and  C_37
    2  A    between atoms: N_23  and  C_30
                            x       y       z     vdW  Elec       q    Type
                         _______ _______ _______ _____ _____    ______ ____

>  <TORSDO>
F 2

$$$$
=
 OpenBabel11122411413D

 37 44  0  0  1  0  0  0  0  0999 V2000
  182.1250  176.8040  138.8480 C   0  0  0  0  0  2  0  0  0  0  0  0
  180.0130  174.1710  135.7150 C   0  0  0  0  0  0  0  0  0  0  0  0
  184.1000  174.1900  136.6310 C   0  0  0  0  0  0  0  0  0  0  0  0
  181.1610  177.6950  139.4940 N   0  0  0  0  0  0  0  0  0  0  0  0
  185.7950  177.5680  137.5350 C   0  0  0  0  0  2  0  0  0  0  0  0
  182.1420  172.9180  136.0300 C   0  0  0  0  0  0  0  0  0  0  0  0
  184.4080  175.6040  136.8200 C   0  0  0  0  0  0  0  0  0  0  0  0
  183.1960  179.1220  140.0610 C   0  0  2  0  0  3  0  0  0  0  0  0
  182.7850  174.1070  136.2850 C   0  0  0  0  0  0  0  0  0  0  0  0
  185.6360  176.1240  137.0900 C   0  0  0  0  0  0  0  0  0  0  0  0
  182.8610  171.7260  136.2000 C   0  0  0  0  0  3  0  0  0  0  0  0
  181.6920  179.0470  139.7390 C   0  0  0  0  0  2  0  0  0  0  0  0
  182.1230  175.3410  136.2410 N   0  0  0  0  0  0  0  0  0  0  0  0
  179.3490  174.2210  137.0800 C   0  0  0  0  0  1  0  0  0  0  0  0
  186.1640  173.0390  137.4970 C   0  0  0  0  0  3  0  0  0  0  0  0
  184.2000  171.7860  136.6510 C   0  0  0  0  0  3  0  0  0  0  0  0
  180.8580  175.4580  135.5220 C   0  0  0  0  0  2  0  0  0  0  0  0
  184.1560  179.1570  138.8520 C   0  0  1  0  0  3  0  0  0  0  0  0
  184.6750  177.8450  138.4990 C   0  0  1  0  0  3  0  0  0  0  0  0
  184.8330  173.0280  136.8830 C   0  0  0  0  0  0  0  0  0  0  0  0
  183.1170  176.3820  136.4890 C   0  0  1  0  0  3  0  0  0  0  0  0
  180.8030  172.9650  135.6190 O   0  0  0  0  0  0  0  0  0  0  0  0
  186.8380  175.3420  136.9080 N   0  0  0  0  0  0  0  0  0  0  0  0
  178.9310  174.1350  134.6590 C   0  0  0  0  0  1  0  0  0  0  0  0
  183.6510  178.4670  137.6370 N   0  0  1  0  0  0  0  0  0  0  0  0
  183.5870  178.2150  141.0510 O   0  0  0  0  0  1  0  0  0  0  0  0
  182.6300  177.4130  137.5320 C   0  0  2  0  0  3  0  0  0  0  0  0
  187.0310  174.0530  137.5180 C   0  0  0  0  0  3  0  0  0  0  0  0
  187.8250  176.8400  135.1950 C   0  0  0  0  0  3  0  0  0  0  0  0
  187.9840  175.9500  136.2700 C   0  0  0  0  0  0  0  0  0  0  0  0
  189.2820  175.6870  136.7360 C   0  0  0  0  0  3  0  0  0  0  0  0
  191.7520  176.0130  136.6120 C   0  0  0  0  0  1  0  0  0  0  0  0
  190.1900  177.1450  135.0780 N   0  0  0  0  0  0  0  0  0  0  0  0
  190.3790  176.2940  136.1220 C   0  0  0  0  0  0  0  0  0  0  0  0
  188.9470  177.4280  134.6080 C   0  0  0  0  0  3  0  0  0  0  0  0
  179.8450  178.0310  141.5120 C   0  0  0  0  0  1  0  0  0  0  0  0
  180.8000  177.1110  140.7760 C   0  0  0  0  0  2  0  0  0  0  0  0
  1  4  1  0  0  0  0
  2 14  1  0  0  0  0
  3  7  1  0  0  0  0
  3 20  1  0  0  0  0
  4 12  1  0  0  0  0
  4 37  1  0  0  0  0
  5 19  1  0  0  0  0
  6 11  2  0  0  0  0
  6  9  1  0  0  0  0
  7 10  2  0  0  0  0
  8 26  1  1  0  0  0
  9  3  2  0  0  0  0
 10  5  1  0  0  0  0
 11 16  1  0  0  0  0
 12  8  1  0  0  0  0
 13  9  1  0  0  0  0
 13 21  1  0  0  0  0
 15 28  2  0  0  0  0
 16 20  2  0  0  0  0
 17  2  1  0  0  0  0
 17 13  1  0  0  0  0
 18  8  1  0  0  0  0
 19 18  1  0  0  0  0
 20 15  1  0  0  0  0
 21  7  1  0  0  0  0
 21 27  1  0  0  0  0
 22  2  1  0  0  0  0
 22  6  1  0  0  0  0
 23 10  1  0  0  0  0
 23 28  1  0  0  0  0
 24  2  1  0  0  0  0
 25 19  1  0  0  0  0
 25 18  1  0  0  0  0
 27 25  1  0  0  0  0
 27  1  1  0  0  0  0
 29 30  1  0  0  0  0
 30 31  2  0  0  0  0
 30 23  1  0  0  0  0
 33 34  2  0  0  0  0
 34 32  1  0  0  0  0
 34 31  1  0  0  0  0
 35 33  1  0  0  0  0
 35 29  2  0  0  0  0
 37 36  1  0  0  0  0
M  END
>  <MODEL>
7

>  <REMARK>
 VINA RESULT:      -5.2      2.353      7.908
  Name = 
  2 active torsions:
  status: ('A' for Active; 'I' for Inactive)
    1  A    between atoms: N_4  and  C_37
    2  A    between atoms: N_23  and  C_30
                            x       y       z     vdW  Elec       q    Type
                         _______ _______ _______ _____ _____    ______ ____

>  <TORSDO>
F 2

$$$$
=
 OpenBabel11122411413D

 37 44  0  0  1  0  0  0  0  0999 V2000
  184.1460  178.5290  141.4030 C   0  0  0  0  0  2  0  0  0  0  0  0
  180.7920  180.1060  138.6680 C   0  0  0  0  0  0  0  0  0  0  0  0
  183.7440  177.3110  137.6610 C   0  0  0  0  0  0  0  0  0  0  0  0
  184.0730  179.1710  142.7150 N   0  0  0  0  0  0  0  0  0  0  0  0
  187.3120  177.7500  139.1360 C   0  0  0  0  0  2  0  0  0  0  0  0
  181.4510  178.0300  137.4610 C   0  0  0  0  0  0  0  0  0  0  0  0
  184.9490  177.8310  138.2990 C   0  0  0  0  0  0  0  0  0  0  0  0
  186.5280  178.5190  142.9240 C   0  0  2  0  0  3  0  0  0  0  0  0
  182.7400  178.1980  137.9100 C   0  0  0  0  0  0  0  0  0  0  0  0
  186.1930  177.2870  138.2180 C   0  0  0  0  0  0  0  0  0  0  0  0
  181.1400  176.8530  136.7660 C   0  0  0  0  0  3  0  0  0  0  0  0
  185.3950  179.5000  143.2770 C   0  0  0  0  0  2  0  0  0  0  0  0
  183.1230  179.2910  138.6990 N   0  0  0  0  0  0  0  0  0  0  0  0
  180.3520  179.6650  140.0520 C   0  0  0  0  0  1  0  0  0  0  0  0
  184.4290  174.9920  136.9620 C   0  0  0  0  0  3  0  0  0  0  0  0
  182.1440  175.8750  136.5790 C   0  0  0  0  0  3  0  0  0  0  0  0
  182.2940  180.4930  138.7200 C   0  0  0  0  0  2  0  0  0  0  0  0
  187.2410  178.7500  141.5740 C   0  0  1  0  0  3  0  0  0  0  0  0
  186.7010  177.9330  140.4980 C   0  0  1  0  0  3  0  0  0  0  0  0
  183.4640  176.0920  137.0390 C   0  0  0  0  0  0  0  0  0  0  0  0
  184.5620  179.1870  138.9290 C   0  0  1  0  0  3  0  0  0  0  0  0
  180.5210  179.0440  137.7270 O   0  0  0  0  0  0  0  0  0  0  0  0
  186.5140  176.2930  137.2190 N   0  0  0  0  0  0  0  0  0  0  0  0
  179.9880  181.3270  138.2770 C   0  0  0  0  0  1  0  0  0  0  0  0
  186.3970  179.3780  140.5240 N   0  0  1  0  0  0  0  0  0  0  0  0
  186.1800  177.1820  143.1430 O   0  0  0  0  0  1  0  0  0  0  0  0
  184.9300  179.4030  140.4130 C   0  0  2  0  0  3  0  0  0  0  0  0
  185.7560  175.0800  137.0540 C   0  0  0  0  0  3  0  0  0  0  0  0
  187.9520  177.4060  135.5330 C   0  0  0  0  0  3  0  0  0  0  0  0
  187.7590  176.3990  136.4920 C   0  0  0  0  0  0  0  0  0  0  0  0
  188.8160  175.5140  136.7570 C   0  0  0  0  0  3  0  0  0  0  0  0
  191.1370  174.7000  136.3380 C   0  0  0  0  0  1  0  0  0  0  0  0
  190.1700  176.6210  135.1330 N   0  0  0  0  0  0  0  0  0  0  0  0
  190.0200  175.6390  136.0610 C   0  0  0  0  0  0  0  0  0  0  0  0
  189.1700  177.4990  134.8580 C   0  0  0  0  0  3  0  0  0  0  0  0
  183.4300  178.8170  145.0350 C   0  0  0  0  0  1  0  0  0  0  0  0
  183.4090  178.2530  143.6270 C   0  0  0  0  0  2  0  0  0  0  0  0
  1  4  1  0  0  0  0
  2 17  1  0  0  0  0
  2 14  1  0  0  0  0
  3  9  1  0  0  0  0
  3  7  1  0  0  0  0
  4 12  1  0  0  0  0
  4 37  1  0  0  0  0
  5 19  1  0  0  0  0
  6 22  1  0  0  0  0
  6  9  2  0  0  0  0
  7 21  1  0  0  0  0
  8 26  1  6  0  0  0
  8 12  1  0  0  0  0
  9 13  1  0  0  0  0
 10  7  2  0  0  0  0
 10  5  1  0  0  0  0
 11  6  1  0  0  0  0
 13 17  1  0  0  0  0
 13 21  1  0  0  0  0
 15 20  1  0  0  0  0
 15 28  2  0  0  0  0
 16 11  2  0  0  0  0
 16 20  1  0  0  0  0
 18  8  1  0  0  0  0
 19 25  1  0  0  0  0
 19 18  1  0  0  0  0
 20  3  2  0  0  0  0
 21 27  1  0  0  0  0
 22  2  1  0  0  0  0
 23 10  1  0  0  0  0
 24  2  1  0  0  0  0
 25 18  1  0  0  0  0
 27 25  1  0  0  0  0
 27  1  1  0  0  0  0
 28 23  1  0  0  0  0
 29 30  1  0  0  0  0
 30 31  2  0  0  0  0
 30 23  1  0  0  0  0
 33 34  2  0  0  0  0
 34 32  1  0  0  0  0
 34 31  1  0  0  0  0
 35 33  1  0  0  0  0
 35 29  2  0  0  0  0
 37 36  1  0  0  0  0
M  END
>  <MODEL>
8

>  <REMARK>
 VINA RESULT:      -5.2      2.153      7.954
  Name = 
  2 active torsions:
  status: ('A' for Active; 'I' for Inactive)
    1  A    between atoms: N_4  and  C_37
    2  A    between atoms: N_23  and  C_30
                            x       y       z     vdW  Elec       q    Type
                         _______ _______ _______ _____ _____    ______ ____

>  <TORSDO>
F 2

$$$$
=
 OpenBabel11122411413D

 37 44  0  0  1  0  0  0  0  0999 V2000
  185.8420  175.9950  136.0780 C   0  0  0  0  0  2  0  0  0  0  0  0
  183.4250  172.0750  135.9690 C   0  0  0  0  0  0  0  0  0  0  0  0
  181.8910  175.9610  136.2620 C   0  0  0  0  0  0  0  0  0  0  0  0
  187.2750  175.7070  136.0260 N   0  0  0  0  0  0  0  0  0  0  0  0
  183.8590  178.5960  138.3320 C   0  0  0  0  0  2  0  0  0  0  0  0
  181.6670  173.7330  135.3670 C   0  0  0  0  0  0  0  0  0  0  0  0
  182.8140  176.6340  137.1700 C   0  0  0  0  0  0  0  0  0  0  0  0
  187.5500  178.0180  137.0680 C   0  0  2  0  0  3  0  0  0  0  0  0
  182.3040  174.6670  136.1510 C   0  0  0  0  0  0  0  0  0  0  0  0
  182.7060  177.9140  137.6140 C   0  0  0  0  0  0  0  0  0  0  0  0
  180.5750  174.1510  134.5940 C   0  0  0  0  0  3  0  0  0  0  0  0
  188.0760  176.5800  136.9030 C   0  0  0  0  0  2  0  0  0  0  0  0
  183.4630  174.3700  136.8790 N   0  0  0  0  0  0  0  0  0  0  0  0
  184.5050  172.2060  134.9100 C   0  0  0  0  0  1  0  0  0  0  0  0
  180.5240  177.8610  135.3350 C   0  0  0  0  0  3  0  0  0  0  0  0
  180.1880  175.5110  134.6210 C   0  0  0  0  0  3  0  0  0  0  0  0
  183.7950  172.9790  137.1750 C   0  0  0  0  0  2  0  0  0  0  0  0
  186.4630  178.2330  138.1430 C   0  0  1  0  0  3  0  0  0  0  0  0
  185.1130  178.1960  137.6030 C   0  0  1  0  0  3  0  0  0  0  0  0
  180.8550  176.4380  135.4540 C   0  0  0  0  0  0  0  0  0  0  0  0
  183.8200  175.5620  137.6450 C   0  0  1  0  0  3  0  0  0  0  0  0
  182.1490  172.4170  135.3850 O   0  0  0  0  0  0  0  0  0  0  0  0
  181.4730  178.6560  137.4730 N   0  0  0  0  0  0  0  0  0  0  0  0
  183.3840  170.6360  136.4340 C   0  0  0  0  0  1  0  0  0  0  0  0
  185.5990  177.0510  138.3990 N   0  0  1  0  0  0  0  0  0  0  0  0
  187.2480  178.6310  135.8470 O   0  0  0  0  0  1  0  0  0  0  0  0
  185.3210  175.9040  137.5200 C   0  0  2  0  0  3  0  0  0  0  0  0
  180.8060  178.8270  136.2090 C   0  0  0  0  0  3  0  0  0  0  0  0
  180.5910  180.7740  138.4140 C   0  0  0  0  0  3  0  0  0  0  0  0
  180.9900  179.4390  138.5880 C   0  0  0  0  0  0  0  0  0  0  0  0
  180.8770  178.8660  139.8650 C   0  0  0  0  0  3  0  0  0  0  0  0
  180.2760  179.0250  142.2810 C   0  0  0  0  0  1  0  0  0  0  0  0
  180.0220  180.9210  140.7280 N   0  0  0  0  0  0  0  0  0  0  0  0
  180.3920  179.6290  140.9290 C   0  0  0  0  0  0  0  0  0  0  0  0
  180.1100  181.5030  139.5030 C   0  0  0  0  0  3  0  0  0  0  0  0
  189.2370  175.8400  134.5940 C   0  0  0  0  0  1  0  0  0  0  0  0
  187.7230  175.9070  134.6570 C   0  0  0  0  0  2  0  0  0  0  0  0
  1 27  1  0  0  0  0
  2 24  1  0  0  0  0
  2 17  1  0  0  0  0
  3  7  1  0  0  0  0
  4  1  1  0  0  0  0
  4 12  1  0  0  0  0
  6 22  1  0  0  0  0
  6  9  2  0  0  0  0
  7 10  2  0  0  0  0
  7 21  1  0  0  0  0
  8 26  1  6  0  0  0
  8 18  1  0  0  0  0
  9  3  1  0  0  0  0
  9 13  1  0  0  0  0
 10  5  1  0  0  0  0
 11 16  2  0  0  0  0
 11  6  1  0  0  0  0
 12  8  1  0  0  0  0
 13 17  1  0  0  0  0
 13 21  1  0  0  0  0
 14  2  1  0  0  0  0
 15 20  1  0  0  0  0
 15 28  2  0  0  0  0
 16 20  1  0  0  0  0
 18 25  1  0  0  0  0
 19 18  1  0  0  0  0
 19  5  1  0  0  0  0
 19 25  1  0  0  0  0
 20  3  2  0  0  0  0
 22  2  1  0  0  0  0
 23 10  1  0  0  0  0
 23 30  1  0  0  0  0
 27 21  1  0  0  0  0
 27 25  1  0  0  0  0
 28 23  1  0  0  0  0
 29 30  2  0  0  0  0
 29 35  1  0  0  0  0
 30 31  1  0  0  0  0
 31 34  2  0  0  0  0
 33 34  1  0  0  0  0
 34 32  1  0  0  0  0
 35 33  2  0  0  0  0
 36 37  1  0  0  0  0
 37  4  1  0  0  0  0
M  END
>  <MODEL>
9

>  <REMARK>
 VINA RESULT:      -4.7      1.831      5.609
  Name = 
  2 active torsions:
  status: ('A' for Active; 'I' for Inactive)
    1  A    between atoms: N_4  and  C_37
    2  A    between atoms: N_23  and  C_30
                            x       y       z     vdW  Elec       q    Type
                         _______ _______ _______ _____ _____    ______ ____

>  <TORSDO>
F 2

$$$$
