=
 OpenBabel11122410383D

 32 37  0  0  1  0  0  0  0  0999 V2000
  187.2020  177.0290  143.7290 C   0  0  0  0  0  2  0  0  0  0  0  0
  190.7200  177.4510  139.3660 C   0  0  1  0  0  3  0  0  0  0  0  0
  186.6820  175.4750  137.2300 C   0  0  0  0  0  2  0  0  0  0  0  0
  187.5230  174.8870  136.0900 C   0  0  0  0  0  2  0  0  0  0  0  0
  192.9820  176.5250  138.6520 C   0  0  0  0  0  0  0  0  0  0  0  0
  193.8990  175.8890  137.6410 C   0  0  1  0  0  3  0  0  0  0  0  0
  189.6320  177.7910  141.6160 C   0  0  1  0  0  3  0  0  0  0  0  0
  188.4770  178.6180  139.7290 C   0  0  0  0  0  2  0  0  0  0  0  0
  194.2300  174.6870  135.6940 C   0  0  1  0  0  3  0  0  0  0  0  0
  187.3890  178.6310  141.7930 C   0  0  0  0  0  2  0  0  0  0  0  0
  187.2430  176.8210  137.6950 C   0  0  0  0  0  2  0  0  0  0  0  0
  189.3630  177.8560  138.7340 C   0  0  2  0  0  3  0  0  0  0  0  0
  188.6960  176.6250  138.1210 C   0  0  2  0  0  3  0  0  0  0  0  0
  191.0290  176.3220  137.0720 C   0  0  2  0  0  3  0  0  0  0  0  0
  194.6020  173.8700  136.9140 C   0  0  0  0  0  2  0  0  0  0  0  0
  188.4550  176.2680  143.3090 C   0  0  0  0  0  2  0  0  0  0  0  0
  188.3140  177.8650  140.9670 N   0  0  2  0  0  0  0  0  0  0  0  0
  194.3400  174.6260  138.0760 O   0  0  0  0  0  0  0  0  0  0  0  0
  189.5890  177.2520  143.0550 C   0  0  0  0  0  2  0  0  0  0  0  0
  186.4790  177.6690  142.5440 C   0  0  2  0  0  3  0  0  0  0  0  0
  188.9990  174.7800  136.4850 C   0  0  0  0  0  2  0  0  0  0  0  0
  189.4990  176.1630  136.9020 C   0  0  1  0  0  3  0  0  0  0  0  0
  191.8510  175.3100  136.2850 C   0  0  0  0  0  2  0  0  0  0  0  0
  190.5470  176.8990  140.7850 C   0  0  0  0  0  2  0  0  0  0  0  0
  193.4780  177.0790  139.6230 O   0  0  0  0  0  0  0  0  0  0  0  0
  193.6330  173.8220  134.5940 C   0  0  0  0  0  1  0  0  0  0  0  0
  191.4800  176.3840  138.5400 C   0  0  2  0  0  3  0  0  0  0  0  0
  193.3190  175.7560  136.2400 C   0  0  1  0  0  3  0  0  0  0  0  0
  185.3080  178.3920  143.0180 N   0  0  0  0  0  2  0  0  0  0  0  0
  184.0860  178.4720  142.2790 C   0  0  0  0  0  0  0  0  0  0  0  0
  183.9610  177.8670  140.9220 C   0  0  0  0  0  1  0  0  0  0  0  0
  183.0810  179.1090  142.7800 N   0  0  0  0  0  2  0  0  0  0  0  0
  2 24  1  1  0  0  0
  3 11  1  0  0  0  0
  4 21  1  0  0  0  0
  4  3  1  0  0  0  0
  5 25  2  0  0  0  0
  6 18  1  1  0  0  0
  6  5  1  0  0  0  0
  7 24  1  6  0  0  0
  7 19  1  0  0  0  0
  9 26  1  6  0  0  0
  9 28  1  0  0  0  0
  9 15  1  0  0  0  0
 10 20  1  0  0  0  0
 12  2  1  0  0  0  0
 12  8  1  1  0  0  0
 13 11  1  6  0  0  0
 13 12  1  0  0  0  0
 14 23  1  1  0  0  0
 14 27  1  0  0  0  0
 15 18  1  0  0  0  0
 16  1  1  0  0  0  0
 17  8  1  6  0  0  0
 17  7  1  0  0  0  0
 17 10  1  0  0  0  0
 19 16  1  0  0  0  0
 20 29  1  1  0  0  0
 20  1  1  0  0  0  0
 22 21  1  1  0  0  0
 22 14  1  0  0  0  0
 22 13  1  0  0  0  0
 27  5  1  6  0  0  0
 27  2  1  0  0  0  0
 28 23  1  1  0  0  0
 28  6  1  0  0  0  0
 30 32  2  0  0  0  0
 30 29  1  0  0  0  0
 31 30  1  0  0  0  0
M  END
>  <MODEL>
1

>  <REMARK>
 VINA RESULT:      -8.6      0.000      0.000
  Name = 
  1 active torsions:
  status: ('A' for Active; 'I' for Inactive)
    1  A    between atoms: C_20  and  N_29
                            x       y       z     vdW  Elec       q    Type
                         _______ _______ _______ _____ _____    ______ ____

>  <TORSDO>
F 1

$$$$
=
 OpenBabel11122410383D

 32 37  0  0  1  0  0  0  0  0999 V2000
  189.0530  175.1600  135.8430 C   0  0  0  0  0  2  0  0  0  0  0  0
  187.1110  178.6450  139.8020 C   0  0  1  0  0  3  0  0  0  0  0  0
  190.3270  175.8600  142.3870 C   0  0  0  0  0  2  0  0  0  0  0  0
  189.5970  176.1660  143.7010 C   0  0  0  0  0  2  0  0  0  0  0  0
  184.8940  179.2000  140.9230 C   0  0  0  0  0  0  0  0  0  0  0  0
  184.0480  179.4590  142.1430 C   0  0  1  0  0  3  0  0  0  0  0  0
  187.7050  177.6430  137.5640 C   0  0  1  0  0  3  0  0  0  0  0  0
  189.4910  178.4140  138.9040 C   0  0  0  0  0  2  0  0  0  0  0  0
  183.6950  179.2990  144.4220 C   0  0  1  0  0  3  0  0  0  0  0  0
  189.9900  177.2100  136.9690 C   0  0  0  0  0  2  0  0  0  0  0  0
  190.2880  177.0620  141.4390 C   0  0  0  0  0  2  0  0  0  0  0  0
  188.6170  178.5500  140.1580 C   0  0  2  0  0  3  0  0  0  0  0  0
  188.8310  177.4420  141.1900 C   0  0  2  0  0  3  0  0  0  0  0  0
  186.8850  178.6520  142.3680 C   0  0  2  0  0  3  0  0  0  0  0  0
  182.7530  178.3950  143.6550 C   0  0  0  0  0  2  0  0  0  0  0  0
  187.7280  175.2730  136.5880 C   0  0  0  0  0  2  0  0  0  0  0  0
  189.0430  177.3040  138.0720 N   0  0  2  0  0  0  0  0  0  0  0  0
  183.0360  178.4910  142.2760 O   0  0  0  0  0  0  0  0  0  0  0  0
  187.1950  176.6950  136.4670 C   0  0  0  0  0  2  0  0  0  0  0  0
  190.2230  175.7430  136.6360 C   0  0  2  0  0  3  0  0  0  0  0  0
  188.1640  176.6400  143.4440 C   0  0  0  0  0  2  0  0  0  0  0  0
  188.2050  177.8590  142.5240 C   0  0  1  0  0  3  0  0  0  0  0  0
  185.9170  178.4840  143.5310 C   0  0  0  0  0  2  0  0  0  0  0  0
  186.7150  177.6320  138.7230 C   0  0  0  0  0  2  0  0  0  0  0  0
  184.4690  179.5550  139.8330 O   0  0  0  0  0  0  0  0  0  0  0  0
  184.1080  178.6880  145.7530 C   0  0  0  0  0  1  0  0  0  0  0  0
  186.1830  178.4150  141.0210 C   0  0  2  0  0  3  0  0  0  0  0  0
  184.8190  179.5530  143.4520 C   0  0  1  0  0  3  0  0  0  0  0  0
  191.4500  175.6180  135.8620 N   0  0  0  0  0  2  0  0  0  0  0  0
  192.7430  175.4920  136.4590 C   0  0  0  0  0  0  0  0  0  0  0  0
  192.9220  175.5550  137.9380 C   0  0  0  0  0  1  0  0  0  0  0  0
  193.7810  175.3580  135.7030 N   0  0  0  0  0  2  0  0  0  0  0  0
  1 16  1  0  0  0  0
  1 20  1  0  0  0  0
  2 24  1  6  0  0  0
  2 12  1  0  0  0  0
  2 27  1  0  0  0  0
  3  4  1  0  0  0  0
  6  5  1  6  0  0  0
  6 18  1  0  0  0  0
  6 28  1  0  0  0  0
  7 19  1  6  0  0  0
  7 17  1  0  0  0  0
  7 24  1  0  0  0  0
  9 26  1  1  0  0  0
 11  3  1  0  0  0  0
 12  8  1  6  0  0  0
 12 13  1  0  0  0  0
 13 11  1  1  0  0  0
 13 22  1  0  0  0  0
 14 22  1  0  0  0  0
 14 23  1  1  0  0  0
 15  9  1  0  0  0  0
 17 10  1  6  0  0  0
 17  8  1  0  0  0  0
 18 15  1  0  0  0  0
 19 16  1  0  0  0  0
 20 29  1  6  0  0  0
 20 10  1  0  0  0  0
 21  4  1  0  0  0  0
 22 21  1  1  0  0  0
 25  5  2  0  0  0  0
 27  5  1  6  0  0  0
 27 14  1  0  0  0  0
 28 23  1  6  0  0  0
 28  9  1  0  0  0  0
 29 30  1  0  0  0  0
 30 31  1  0  0  0  0
 32 30  2  0  0  0  0
M  END
>  <MODEL>
2

>  <REMARK>
 VINA RESULT:      -8.3      3.407      8.779
  Name = 
  1 active torsions:
  status: ('A' for Active; 'I' for Inactive)
    1  A    between atoms: C_20  and  N_29
                            x       y       z     vdW  Elec       q    Type
                         _______ _______ _______ _____ _____    ______ ____

>  <TORSDO>
F 1

$$$$
=
 OpenBabel11122410383D

 32 37  0  0  1  0  0  0  0  0999 V2000
  191.2860  173.9170  136.6780 C   0  0  0  0  0  2  0  0  0  0  0  0
  188.4070  177.9510  139.3290 C   0  0  1  0  0  3  0  0  0  0  0  0
  190.9450  175.8820  143.0770 C   0  0  0  0  0  2  0  0  0  0  0  0
  189.9180  176.3810  144.1010 C   0  0  0  0  0  2  0  0  0  0  0  0
  185.9790  178.5730  139.7740 C   0  0  0  0  0  0  0  0  0  0  0  0
  184.8620  179.0020  140.6900 C   0  0  1  0  0  3  0  0  0  0  0  0
  189.5330  176.5920  137.5260 C   0  0  1  0  0  3  0  0  0  0  0  0
  190.9360  177.6990  139.0710 C   0  0  0  0  0  2  0  0  0  0  0  0
  183.9750  179.2430  142.8110 C   0  0  1  0  0  3  0  0  0  0  0  0
  191.9000  176.1910  137.5750 C   0  0  0  0  0  2  0  0  0  0  0  0
  191.1190  176.8850  141.9330 C   0  0  0  0  0  2  0  0  0  0  0  0
  189.7850  178.0120  140.0370 C   0  0  2  0  0  3  0  0  0  0  0  0
  189.7590  177.1270  141.2840 C   0  0  2  0  0  3  0  0  0  0  0  0
  187.5720  178.4170  141.7200 C   0  0  2  0  0  3  0  0  0  0  0  0
  183.2550  178.1590  142.0350 C   0  0  0  0  0  2  0  0  0  0  0  0
  189.8200  174.0880  137.0570 C   0  0  0  0  0  2  0  0  0  0  0  0
  190.7150  176.4300  138.3870 N   0  0  2  0  0  0  0  0  0  0  0  0
  183.8600  178.0170  140.7680 O   0  0  0  0  0  0  0  0  0  0  0  0
  189.3130  175.4300  136.5440 C   0  0  0  0  0  2  0  0  0  0  0  0
  192.2250  174.7040  137.5940 C   0  0  2  0  0  3  0  0  0  0  0  0
  188.5820  176.7160  143.4320 C   0  0  0  0  0  2  0  0  0  0  0  0
  188.8270  177.7450  142.3300 C   0  0  1  0  0  3  0  0  0  0  0  0
  186.3560  178.4090  142.6360 C   0  0  0  0  0  2  0  0  0  0  0  0
  188.2940  176.7350  138.4030 C   0  0  0  0  0  2  0  0  0  0  0  0
  185.8220  178.6950  138.5680 O   0  0  0  0  0  0  0  0  0  0  0  0
  184.0650  178.9110  144.2940 C   0  0  0  0  0  1  0  0  0  0  0  0
  187.2170  177.8960  140.3190 C   0  0  2  0  0  3  0  0  0  0  0  0
  185.2950  179.3800  142.0990 C   0  0  1  0  0  3  0  0  0  0  0  0
  193.6020  174.5100  137.1650 N   0  0  0  0  0  2  0  0  0  0  0  0
  194.7300  174.8810  137.9630 C   0  0  0  0  0  0  0  0  0  0  0  0
  194.5560  175.5650  139.2770 C   0  0  0  0  0  1  0  0  0  0  0  0
  195.9220  174.6510  137.5240 N   0  0  0  0  0  2  0  0  0  0  0  0
  1 16  1  0  0  0  0
  1 20  1  0  0  0  0
  2 24  1  6  0  0  0
  2 12  1  0  0  0  0
  2 27  1  0  0  0  0
  3  4  1  0  0  0  0
  6  5  1  6  0  0  0
  6 18  1  0  0  0  0
  6 28  1  0  0  0  0
  7 19  1  6  0  0  0
  7 17  1  0  0  0  0
  7 24  1  0  0  0  0
  9 26  1  1  0  0  0
 10 20  1  0  0  0  0
 11  3  1  0  0  0  0
 12  8  1  6  0  0  0
 12 13  1  0  0  0  0
 13 11  1  1  0  0  0
 13 22  1  0  0  0  0
 14 22  1  0  0  0  0
 14 23  1  1  0  0  0
 15  9  1  0  0  0  0
 17 10  1  6  0  0  0
 17  8  1  0  0  0  0
 18 15  1  0  0  0  0
 19 16  1  0  0  0  0
 20 29  1  6  0  0  0
 21  4  1  0  0  0  0
 22 21  1  1  0  0  0
 25  5  2  0  0  0  0
 27  5  1  6  0  0  0
 27 14  1  0  0  0  0
 28 23  1  1  0  0  0
 28  9  1  0  0  0  0
 29 30  1  0  0  0  0
 30 31  1  0  0  0  0
 32 30  2  0  0  0  0
M  END
>  <MODEL>
3

>  <REMARK>
 VINA RESULT:      -7.9      3.346      8.563
  Name = 
  1 active torsions:
  status: ('A' for Active; 'I' for Inactive)
    1  A    between atoms: C_20  and  N_29
                            x       y       z     vdW  Elec       q    Type
                         _______ _______ _______ _____ _____    ______ ____

>  <TORSDO>
F 1

$$$$
=
 OpenBabel11122410383D

 32 37  0  0  1  0  0  0  0  0999 V2000
  190.3360  176.0830  144.6010 C   0  0  0  0  0  2  0  0  0  0  0  0
  188.7420  178.1680  139.6310 C   0  0  1  0  0  3  0  0  0  0  0  0
  184.4570  178.1860  142.1630 C   0  0  0  0  0  2  0  0  0  0  0  0
  183.6420  178.1510  140.8630 C   0  0  0  0  0  2  0  0  0  0  0  0
  188.6510  177.4230  137.1980 C   0  0  0  0  0  0  0  0  0  0  0  0
  187.9390  177.2710  135.8800 C   0  0  1  0  0  3  0  0  0  0  0  0
  190.1540  177.4590  141.5970 C   0  0  1  0  0  3  0  0  0  0  0  0
  188.7060  179.2970  141.9230 C   0  0  0  0  0  2  0  0  0  0  0  0
  185.9900  177.2070  134.6360 C   0  0  1  0  0  3  0  0  0  0  0  0
  189.8070  178.4050  143.7760 C   0  0  0  0  0  2  0  0  0  0  0  0
  185.7400  179.0030  141.9910 C   0  0  0  0  0  2  0  0  0  0  0  0
  187.9270  179.0340  140.6260 C   0  0  2  0  0  3  0  0  0  0  0  0
  186.5500  178.4060  140.8430 C   0  0  2  0  0  3  0  0  0  0  0  0
  186.5650  178.3480  138.2670 C   0  0  2  0  0  3  0  0  0  0  0  0
  186.6250  175.8360  134.7340 C   0  0  0  0  0  2  0  0  0  0  0  0
  190.1360  175.4730  143.2190 C   0  0  0  0  0  2  0  0  0  0  0  0
  189.1690  178.0470  142.5170 N   0  0  2  0  0  0  0  0  0  0  0  0
  187.7820  175.9150  135.5390 O   0  0  0  0  0  0  0  0  0  0  0  0
  190.9280  176.2700  142.1890 C   0  0  0  0  0  2  0  0  0  0  0  0
  189.4900  177.3400  144.8160 C   0  0  2  0  0  3  0  0  0  0  0  0
  184.4860  177.6430  139.6910 C   0  0  0  0  0  2  0  0  0  0  0  0
  185.7270  178.5250  139.5570 C   0  0  1  0  0  3  0  0  0  0  0  0
  185.7830  177.7770  137.0920 C   0  0  0  0  0  2  0  0  0  0  0  0
  189.4410  176.9980  140.3310 C   0  0  0  0  0  2  0  0  0  0  0  0
  189.8690  177.3200  137.2180 O   0  0  0  0  0  0  0  0  0  0  0  0
  184.4710  177.1280  134.6200 C   0  0  0  0  0  1  0  0  0  0  0  0
  187.8770  177.5800  138.4890 C   0  0  2  0  0  3  0  0  0  0  0  0
  186.5850  177.9620  135.7960 C   0  0  1  0  0  3  0  0  0  0  0  0
  189.7430  177.8780  146.1450 N   0  0  0  0  0  2  0  0  0  0  0  0
  188.7460  177.9350  147.1680 C   0  0  0  0  0  0  0  0  0  0  0  0
  187.3430  177.5030  146.9070 C   0  0  0  0  0  1  0  0  0  0  0  0
  189.0560  178.4020  148.3310 N   0  0  0  0  0  2  0  0  0  0  0  0
  1 20  1  0  0  0  0
  2 24  1  1  0  0  0
  2 12  1  0  0  0  0
  4  3  1  0  0  0  0
  5 25  2  0  0  0  0
  6 18  1  1  0  0  0
  6  5  1  0  0  0  0
  7 24  1  6  0  0  0
  7 19  1  0  0  0  0
  7 17  1  0  0  0  0
  9 26  1  1  0  0  0
  9 15  1  0  0  0  0
  9 28  1  0  0  0  0
 10 20  1  0  0  0  0
 11  3  1  0  0  0  0
 12 13  1  0  0  0  0
 12  8  1  1  0  0  0
 13 11  1  1  0  0  0
 14 23  1  6  0  0  0
 14 27  1  0  0  0  0
 14 22  1  0  0  0  0
 15 18  1  0  0  0  0
 16  1  1  0  0  0  0
 17  8  1  6  0  0  0
 17 10  1  0  0  0  0
 19 16  1  0  0  0  0
 20 29  1  1  0  0  0
 21  4  1  0  0  0  0
 22 21  1  1  0  0  0
 22 13  1  0  0  0  0
 27  5  1  6  0  0  0
 27  2  1  0  0  0  0
 28  6  1  0  0  0  0
 28 23  1  1  0  0  0
 29 30  1  0  0  0  0
 30 32  2  0  0  0  0
 31 30  1  0  0  0  0
M  END
>  <MODEL>
4

>  <REMARK>
 VINA RESULT:      -7.2      3.450      5.461
  Name = 
  1 active torsions:
  status: ('A' for Active; 'I' for Inactive)
    1  A    between atoms: C_20  and  N_29
                            x       y       z     vdW  Elec       q    Type
                         _______ _______ _______ _____ _____    ______ ____

>  <TORSDO>
F 1

$$$$
=
 OpenBabel11122410383D

 32 37  0  0  1  0  0  0  0  0999 V2000
  188.2310  174.5610  136.6490 C   0  0  0  0  0  2  0  0  0  0  0  0
  184.1900  178.0710  138.3630 C   0  0  1  0  0  3  0  0  0  0  0  0
  187.1920  177.9600  142.3320 C   0  0  0  0  0  2  0  0  0  0  0  0
  186.0440  178.3750  143.2620 C   0  0  0  0  0  2  0  0  0  0  0  0
  181.6830  178.0140  138.8020 C   0  0  0  0  0  0  0  0  0  0  0  0
  180.4740  178.3080  139.6510 C   0  0  1  0  0  3  0  0  0  0  0  0
  185.7130  176.6940  136.8990 C   0  0  1  0  0  3  0  0  0  0  0  0
  186.6740  178.5480  138.0030 C   0  0  0  0  0  2  0  0  0  0  0  0
  179.5230  178.8230  141.6950 C   0  0  1  0  0  3  0  0  0  0  0  0
  188.0850  177.0660  136.8840 C   0  0  0  0  0  2  0  0  0  0  0  0
  187.0600  178.6250  140.9590 C   0  0  0  0  0  2  0  0  0  0  0  0
  185.4680  178.7390  138.9340 C   0  0  2  0  0  3  0  0  0  0  0  0
  185.7030  178.2550  140.3660 C   0  0  2  0  0  3  0  0  0  0  0  0
  183.2150  178.8800  140.6060 C   0  0  2  0  0  3  0  0  0  0  0  0
  179.1930  177.4060  141.2770 C   0  0  0  0  0  2  0  0  0  0  0  0
  186.7790  174.3690  137.0730 C   0  0  0  0  0  2  0  0  0  0  0  0
  186.8730  177.1380  137.6880 N   0  0  2  0  0  0  0  0  0  0  0  0
  179.8310  177.1220  140.0500 O   0  0  0  0  0  0  0  0  0  0  0  0
  185.8840  175.3030  136.2680 C   0  0  0  0  0  2  0  0  0  0  0  0
  188.8600  175.8120  137.2630 C   0  0  2  0  0  3  0  0  0  0  0  0
  184.6810  178.0920  142.6230 C   0  0  0  0  0  2  0  0  0  0  0  0
  184.6080  178.8130  141.2790 C   0  0  1  0  0  3  0  0  0  0  0  0
  182.0490  178.7440  141.5750 C   0  0  0  0  0  2  0  0  0  0  0  0
  184.4790  176.6790  137.7930 C   0  0  0  0  0  2  0  0  0  0  0  0
  181.5150  177.7560  137.6190 O   0  0  0  0  0  0  0  0  0  0  0  0
  179.6900  178.9440  143.2030 C   0  0  0  0  0  1  0  0  0  0  0  0
  183.0630  177.9210  139.4140 C   0  0  2  0  0  3  0  0  0  0  0  0
  180.7450  179.1630  140.8810 C   0  0  1  0  0  3  0  0  0  0  0  0
  190.2360  175.9430  136.8040 N   0  0  0  0  0  2  0  0  0  0  0  0
  191.3170  176.3100  137.6650 C   0  0  0  0  0  0  0  0  0  0  0  0
  191.0820  176.6560  139.0970 C   0  0  0  0  0  1  0  0  0  0  0  0
  192.5140  176.3780  137.1880 N   0  0  0  0  0  2  0  0  0  0  0  0
  1 16  1  0  0  0  0
  1 20  1  0  0  0  0
  2 24  1  1  0  0  0
  2 12  1  0  0  0  0
  2 27  1  0  0  0  0
  3  4  1  0  0  0  0
  6  5  1  1  0  0  0
  6 18  1  0  0  0  0
  6 28  1  0  0  0  0
  7 19  1  1  0  0  0
  7 17  1  0  0  0  0
  7 24  1  0  0  0  0
  9 26  1  1  0  0  0
 10 20  1  0  0  0  0
 11  3  1  0  0  0  0
 12  8  1  6  0  0  0
 12 13  1  0  0  0  0
 13 11  1  1  0  0  0
 13 22  1  0  0  0  0
 14 22  1  0  0  0  0
 14 23  1  1  0  0  0
 15  9  1  0  0  0  0
 17 10  1  6  0  0  0
 17  8  1  0  0  0  0
 18 15  1  0  0  0  0
 19 16  1  0  0  0  0
 20 29  1  6  0  0  0
 21  4  1  0  0  0  0
 22 21  1  1  0  0  0
 25  5  2  0  0  0  0
 27  5  1  6  0  0  0
 27 14  1  0  0  0  0
 28 23  1  1  0  0  0
 28  9  1  0  0  0  0
 29 30  1  0  0  0  0
 30 31  1  0  0  0  0
 32 30  2  0  0  0  0
M  END
>  <MODEL>
5

>  <REMARK>
 VINA RESULT:      -7.0      4.172      9.640
  Name = 
  1 active torsions:
  status: ('A' for Active; 'I' for Inactive)
    1  A    between atoms: C_20  and  N_29
                            x       y       z     vdW  Elec       q    Type
                         _______ _______ _______ _____ _____    ______ ____

>  <TORSDO>
F 1

$$$$
=
 OpenBabel11122410383D

 32 37  0  0  1  0  0  0  0  0999 V2000
  182.3580  176.8070  138.9140 C   0  0  0  0  0  2  0  0  0  0  0  0
  185.8980  178.7470  142.8250 C   0  0  1  0  0  3  0  0  0  0  0  0
  189.0360  176.7910  139.4920 C   0  0  0  0  0  2  0  0  0  0  0  0
  190.1240  176.6170  140.5600 C   0  0  0  0  0  2  0  0  0  0  0  0
  186.4180  178.3460  145.2840 C   0  0  0  0  0  0  0  0  0  0  0  0
  187.3810  178.1050  146.4180 C   0  0  1  0  0  3  0  0  0  0  0  0
  183.8350  178.3850  141.4200 C   0  0  1  0  0  3  0  0  0  0  0  0
  185.6610  179.4680  140.3850 C   0  0  0  0  0  2  0  0  0  0  0  0
  189.4610  177.4610  147.1940 C   0  0  1  0  0  3  0  0  0  0  0  0
  183.8480  178.8340  139.0610 C   0  0  0  0  0  2  0  0  0  0  0  0
  188.2070  178.0530  139.7480 C   0  0  0  0  0  2  0  0  0  0  0  0
  186.6400  179.0970  141.5080 C   0  0  2  0  0  3  0  0  0  0  0  0
  187.6040  177.9660  141.1470 C   0  0  2  0  0  3  0  0  0  0  0  0
  188.3010  178.2540  143.6110 C   0  0  2  0  0  3  0  0  0  0  0  0
  188.4020  176.4380  147.5470 C   0  0  0  0  0  2  0  0  0  0  0  0
  182.7240  176.3520  140.3220 C   0  0  0  0  0  2  0  0  0  0  0  0
  184.6570  178.4260  140.2010 N   0  0  2  0  0  0  0  0  0  0  0  0
  187.1620  176.8490  147.0130 O   0  0  0  0  0  0  0  0  0  0  0  0
  182.5720  177.5180  141.2910 C   0  0  0  0  0  2  0  0  0  0  0  0
  183.4800  177.6030  138.2450 C   0  0  2  0  0  3  0  0  0  0  0  0
  189.5270  176.6270  141.9700 C   0  0  0  0  0  2  0  0  0  0  0  0
  188.7470  177.9260  142.1650 C   0  0  1  0  0  3  0  0  0  0  0  0
  189.1430  177.5850  144.6880 C   0  0  0  0  0  2  0  0  0  0  0  0
  184.6790  177.8540  142.5730 C   0  0  0  0  0  2  0  0  0  0  0  0
  185.2840  178.7160  145.5510 O   0  0  0  0  0  0  0  0  0  0  0  0
  190.8040  176.8080  146.9000 C   0  0  0  0  0  1  0  0  0  0  0  0
  186.8010  178.0260  143.8560 C   0  0  2  0  0  3  0  0  0  0  0  0
  188.8520  178.2300  146.0500 C   0  0  1  0  0  3  0  0  0  0  0  0
  183.0570  178.0200  136.9160 N   0  0  0  0  0  2  0  0  0  0  0  0
  183.3310  177.2620  135.7340 C   0  0  0  0  0  0  0  0  0  0  0  0
  184.1430  176.0120  135.7880 C   0  0  0  0  0  1  0  0  0  0  0  0
  182.8990  177.6850  134.5940 N   0  0  0  0  0  2  0  0  0  0  0  0
  1 16  1  0  0  0  0
  2 24  1  6  0  0  0
  2 27  1  0  0  0  0
  3 11  1  0  0  0  0
  3  4  1  0  0  0  0
  4 21  1  0  0  0  0
  5 25  2  0  0  0  0
  6  5  1  6  0  0  0
  6 18  1  0  0  0  0
  7 19  1  6  0  0  0
  7 24  1  0  0  0  0
  9 26  1  6  0  0  0
  9 15  1  0  0  0  0
 12  8  1  6  0  0  0
 12  2  1  0  0  0  0
 13 11  1  6  0  0  0
 13 12  1  0  0  0  0
 13 22  1  0  0  0  0
 14 27  1  0  0  0  0
 14 23  1  1  0  0  0
 16 19  1  0  0  0  0
 17 10  1  6  0  0  0
 17  8  1  0  0  0  0
 17  7  1  0  0  0  0
 18 15  1  0  0  0  0
 20 29  1  6  0  0  0
 20  1  1  0  0  0  0
 20 10  1  0  0  0  0
 22 21  1  1  0  0  0
 22 14  1  0  0  0  0
 27  5  1  1  0  0  0
 28 23  1  6  0  0  0
 28  6  1  0  0  0  0
 28  9  1  0  0  0  0
 30 31  1  0  0  0  0
 30 29  1  0  0  0  0
 32 30  2  0  0  0  0
M  END
>  <MODEL>
6

>  <REMARK>
 VINA RESULT:      -6.9      4.219      7.721
  Name = 
  1 active torsions:
  status: ('A' for Active; 'I' for Inactive)
    1  A    between atoms: C_20  and  N_29
                            x       y       z     vdW  Elec       q    Type
                         _______ _______ _______ _____ _____    ______ ____

>  <TORSDO>
F 1

$$$$
=
 OpenBabel11122410383D

 32 37  0  0  1  0  0  0  0  0999 V2000
  183.4040  178.6240  142.5680 C   0  0  0  0  0  2  0  0  0  0  0  0
  187.0140  177.9810  138.3090 C   0  0  1  0  0  3  0  0  0  0  0  0
  183.9260  174.1390  137.6140 C   0  0  0  0  0  2  0  0  0  0  0  0
  184.9980  173.3670  136.8340 C   0  0  0  0  0  2  0  0  0  0  0  0
  189.5000  177.5480  137.9730 C   0  0  0  0  0  0  0  0  0  0  0  0
  190.6470  176.8180  137.3240 C   0  0  1  0  0  3  0  0  0  0  0  0
  185.6820  178.9930  140.1970 C   0  0  1  0  0  3  0  0  0  0  0  0
  184.5050  178.4580  138.2200 C   0  0  0  0  0  2  0  0  0  0  0  0
  191.4810  175.0060  136.1560 C   0  0  1  0  0  3  0  0  0  0  0  0
  183.2860  179.1090  140.0990 C   0  0  0  0  0  2  0  0  0  0  0  0
  184.0290  175.6450  137.3540 C   0  0  0  0  0  2  0  0  0  0  0  0
  185.6580  177.6210  137.6470 C   0  0  2  0  0  3  0  0  0  0  0  0
  185.4330  176.1110  137.7290 C   0  0  2  0  0  3  0  0  0  0  0  0
  187.8360  176.0610  136.8010 C   0  0  2  0  0  3  0  0  0  0  0  0
  191.9670  175.0050  137.5910 C   0  0  0  0  0  2  0  0  0  0  0  0
  184.8550  178.1650  142.4780 C   0  0  0  0  0  2  0  0  0  0  0  0
  184.4610  178.3610  139.6740 N   0  0  2  0  0  0  0  0  0  0  0  0
  191.3960  176.1000  138.2750 O   0  0  0  0  0  0  0  0  0  0  0  0
  185.6720  179.2030  141.7200 C   0  0  0  0  0  2  0  0  0  0  0  0
  182.6320  178.3890  141.2690 C   0  0  2  0  0  3  0  0  0  0  0  0
  186.4000  173.9010  137.1390 C   0  0  0  0  0  2  0  0  0  0  0  0
  186.4390  175.3950  136.8230 C   0  0  1  0  0  3  0  0  0  0  0  0
  188.9810  175.0950  136.5330 C   0  0  0  0  0  2  0  0  0  0  0  0
  186.8850  178.1330  139.8280 C   0  0  0  0  0  2  0  0  0  0  0  0
  189.7270  178.6100  138.5350 O   0  0  0  0  0  0  0  0  0  0  0  0
  191.2590  173.5940  135.6330 C   0  0  0  0  0  1  0  0  0  0  0  0
  188.1200  176.9320  138.0360 C   0  0  2  0  0  3  0  0  0  0  0  0
  190.2550  175.8810  136.1920 C   0  0  1  0  0  3  0  0  0  0  0  0
  181.2650  178.8640  141.4200 N   0  0  0  0  0  2  0  0  0  0  0  0
  180.1270  178.1350  140.9530 C   0  0  0  0  0  0  0  0  0  0  0  0
  180.2820  176.8540  140.2070 C   0  0  0  0  0  1  0  0  0  0  0  0
  178.9430  178.6110  141.1490 N   0  0  0  0  0  2  0  0  0  0  0  0
  2 24  1  1  0  0  0
  4 21  1  0  0  0  0
  4  3  1  0  0  0  0
  5 25  2  0  0  0  0
  6  5  1  1  0  0  0
  6 18  1  0  0  0  0
  7 24  1  1  0  0  0
  7 19  1  0  0  0  0
  9 26  1  1  0  0  0
  9 28  1  0  0  0  0
  9 15  1  0  0  0  0
 10 20  1  0  0  0  0
 11  3  1  0  0  0  0
 12 13  1  0  0  0  0
 12  8  1  1  0  0  0
 12  2  1  0  0  0  0
 13 11  1  6  0  0  0
 14 23  1  1  0  0  0
 14 22  1  0  0  0  0
 14 27  1  0  0  0  0
 15 18  1  0  0  0  0
 16  1  1  0  0  0  0
 17  8  1  6  0  0  0
 17 10  1  0  0  0  0
 17  7  1  0  0  0  0
 19 16  1  0  0  0  0
 20 29  1  1  0  0  0
 20  1  1  0  0  0  0
 22 21  1  1  0  0  0
 22 13  1  0  0  0  0
 27  5  1  6  0  0  0
 27  2  1  0  0  0  0
 28 23  1  1  0  0  0
 28  6  1  0  0  0  0
 30 32  2  0  0  0  0
 30 29  1  0  0  0  0
 31 30  1  0  0  0  0
M  END
>  <MODEL>
7

>  <REMARK>
 VINA RESULT:      -6.8      2.346      3.714
  Name = 
  1 active torsions:
  status: ('A' for Active; 'I' for Inactive)
    1  A    between atoms: C_20  and  N_29
                            x       y       z     vdW  Elec       q    Type
                         _______ _______ _______ _____ _____    ______ ____

>  <TORSDO>
F 1

$$$$
=
 OpenBabel11122410383D

 32 37  0  0  1  0  0  0  0  0999 V2000
  190.3410  173.9570  136.4930 C   0  0  0  0  0  2  0  0  0  0  0  0
  186.3470  177.7300  137.6790 C   0  0  1  0  0  3  0  0  0  0  0  0
  189.0250  177.7300  141.8750 C   0  0  0  0  0  2  0  0  0  0  0  0
  187.8290  178.2470  142.6850 C   0  0  0  0  0  2  0  0  0  0  0  0
  183.8130  177.8030  137.9180 C   0  0  0  0  0  0  0  0  0  0  0  0
  182.5580  178.1980  138.6510 C   0  0  1  0  0  3  0  0  0  0  0  0
  187.9130  176.2040  136.4210 C   0  0  1  0  0  3  0  0  0  0  0  0
  188.8700  178.0800  137.4930 C   0  0  0  0  0  2  0  0  0  0  0  0
  181.4770  178.8730  140.5800 C   0  0  1  0  0  3  0  0  0  0  0  0
  190.2940  176.4750  136.5740 C   0  0  0  0  0  2  0  0  0  0  0  0
  189.0300  178.3160  140.4600 C   0  0  0  0  0  2  0  0  0  0  0  0
  187.6060  178.3760  138.3120 C   0  0  2  0  0  3  0  0  0  0  0  0
  187.7070  177.9690  139.7820 C   0  0  2  0  0  3  0  0  0  0  0  0
  185.2400  178.7110  139.7870 C   0  0  2  0  0  3  0  0  0  0  0  0
  181.1140  177.4480  140.2170 C   0  0  0  0  0  2  0  0  0  0  0  0
  188.8530  173.8520  136.8090 C   0  0  0  0  0  2  0  0  0  0  0  0
  189.0270  176.6460  137.2730 N   0  0  2  0  0  0  0  0  0  0  0  0
  181.8310  177.0660  139.0630 O   0  0  0  0  0  0  0  0  0  0  0  0
  188.0680  174.7720  135.8840 C   0  0  0  0  0  2  0  0  0  0  0  0
  190.9780  175.2150  137.0840 C   0  0  2  0  0  3  0  0  0  0  0  0
  186.5080  177.9840  141.9570 C   0  0  0  0  0  2  0  0  0  0  0  0
  186.5720  178.6260  140.5720 C   0  0  1  0  0  3  0  0  0  0  0  0
  183.9970  178.6820  140.6670 C   0  0  0  0  0  2  0  0  0  0  0  0
  186.6140  176.2950  137.2130 C   0  0  0  0  0  2  0  0  0  0  0  0
  183.7250  177.4830  136.7420 O   0  0  0  0  0  0  0  0  0  0  0  0
  181.5320  179.0770  142.0870 C   0  0  0  0  0  1  0  0  0  0  0  0
  185.1360  177.6890  138.6440 C   0  0  2  0  0  3  0  0  0  0  0  0
  182.7720  179.1120  139.8490 C   0  0  1  0  0  3  0  0  0  0  0  0
  192.3900  175.2610  136.7300 N   0  0  0  0  0  2  0  0  0  0  0  0
  193.3690  175.9560  137.5050 C   0  0  0  0  0  0  0  0  0  0  0  0
  192.9830  176.7510  138.7070 C   0  0  0  0  0  1  0  0  0  0  0  0
  194.6070  175.9270  137.1390 N   0  0  0  0  0  2  0  0  0  0  0  0
  1 16  1  0  0  0  0
  1 20  1  0  0  0  0
  2 24  1  1  0  0  0
  2 12  1  0  0  0  0
  2 27  1  0  0  0  0
  3  4  1  0  0  0  0
  6  5  1  1  0  0  0
  6 18  1  0  0  0  0
  6 28  1  0  0  0  0
  7 19  1  1  0  0  0
  7 24  1  0  0  0  0
  7 17  1  0  0  0  0
  9 26  1  1  0  0  0
 10 20  1  0  0  0  0
 11  3  1  0  0  0  0
 12  8  1  6  0  0  0
 12 13  1  0  0  0  0
 13 11  1  1  0  0  0
 13 22  1  0  0  0  0
 14 22  1  0  0  0  0
 14 23  1  1  0  0  0
 15  9  1  0  0  0  0
 17 10  1  6  0  0  0
 17  8  1  0  0  0  0
 18 15  1  0  0  0  0
 19 16  1  0  0  0  0
 20 29  1  6  0  0  0
 21  4  1  0  0  0  0
 22 21  1  1  0  0  0
 25  5  2  0  0  0  0
 27  5  1  6  0  0  0
 27 14  1  0  0  0  0
 28  9  1  0  0  0  0
 28 23  1  1  0  0  0
 29 30  1  0  0  0  0
 30 31  1  0  0  0  0
 32 30  2  0  0  0  0
M  END
>  <MODEL>
8

>  <REMARK>
 VINA RESULT:      -6.8      3.665      8.813
  Name = 
  1 active torsions:
  status: ('A' for Active; 'I' for Inactive)
    1  A    between atoms: C_20  and  N_29
                            x       y       z     vdW  Elec       q    Type
                         _______ _______ _______ _____ _____    ______ ____

>  <TORSDO>
F 1

$$$$
=
 OpenBabel11122410383D

 32 37  0  0  1  0  0  0  0  0999 V2000
  189.7110  174.9370  136.8650 C   0  0  0  0  0  2  0  0  0  0  0  0
  186.1150  178.4850  139.3280 C   0  0  1  0  0  3  0  0  0  0  0  0
  188.6870  176.7720  143.2300 C   0  0  0  0  0  2  0  0  0  0  0  0
  187.5360  177.1070  144.1870 C   0  0  0  0  0  2  0  0  0  0  0  0
  183.5990  178.7430  139.6190 C   0  0  0  0  0  0  0  0  0  0  0  0
  182.3770  178.9970  140.4620 C   0  0  1  0  0  3  0  0  0  0  0  0
  187.5370  177.3210  137.6010 C   0  0  1  0  0  3  0  0  0  0  0  0
  188.6650  178.6060  139.2310 C   0  0  0  0  0  2  0  0  0  0  0  0
  181.3320  179.0870  142.5230 C   0  0  1  0  0  3  0  0  0  0  0  0
  189.9300  177.2670  137.7990 C   0  0  0  0  0  2  0  0  0  0  0  0
  188.7850  177.8000  142.0990 C   0  0  0  0  0  2  0  0  0  0  0  0
  187.4220  178.7390  140.1220 C   0  0  2  0  0  3  0  0  0  0  0  0
  187.4470  177.8480  141.3650 C   0  0  2  0  0  3  0  0  0  0  0  0
  185.0730  178.8030  141.6620 C   0  0  2  0  0  3  0  0  0  0  0  0
  180.8280  177.9180  141.7020 C   0  0  0  0  0  2  0  0  0  0  0  0
  188.2150  174.8900  137.1500 C   0  0  0  0  0  2  0  0  0  0  0  0
  188.6740  177.3240  138.5350 N   0  0  2  0  0  0  0  0  0  0  0  0
  181.5260  177.8760  140.4760 O   0  0  0  0  0  0  0  0  0  0  0  0
  187.5510  176.1490  136.6060 C   0  0  0  0  0  2  0  0  0  0  0  0
  190.4660  175.8430  137.8390 C   0  0  2  0  0  3  0  0  0  0  0  0
  186.2100  177.2500  143.4340 C   0  0  0  0  0  2  0  0  0  0  0  0
  186.3710  178.3140  142.3500 C   0  0  1  0  0  3  0  0  0  0  0  0
  183.8160  178.6090  142.4990 C   0  0  0  0  0  2  0  0  0  0  0  0
  186.2380  177.2750  138.3970 C   0  0  0  0  0  2  0  0  0  0  0  0
  183.5030  178.8530  138.4050 O   0  0  0  0  0  0  0  0  0  0  0  0
  181.3760  178.7580  144.0080 C   0  0  0  0  0  1  0  0  0  0  0  0
  184.8860  178.2480  140.2400 C   0  0  2  0  0  3  0  0  0  0  0  0
  182.6610  179.4210  141.8960 C   0  0  1  0  0  3  0  0  0  0  0  0
  191.8810  175.8560  137.4980 N   0  0  0  0  0  2  0  0  0  0  0  0
  192.8840  176.4310  138.3400 C   0  0  0  0  0  0  0  0  0  0  0  0
  192.5220  177.1290  139.6080 C   0  0  0  0  0  1  0  0  0  0  0  0
  194.1220  176.3780  137.9810 N   0  0  0  0  0  2  0  0  0  0  0  0
  1 16  1  0  0  0  0
  1 20  1  0  0  0  0
  2 24  1  1  0  0  0
  2 12  1  0  0  0  0
  2 27  1  0  0  0  0
  3  4  1  0  0  0  0
  6  5  1  1  0  0  0
  6 18  1  0  0  0  0
  6 28  1  0  0  0  0
  7 19  1  6  0  0  0
  7 24  1  0  0  0  0
  7 17  1  0  0  0  0
  9 26  1  1  0  0  0
 10 20  1  0  0  0  0
 11  3  1  0  0  0  0
 12  8  1  6  0  0  0
 12 13  1  0  0  0  0
 13 11  1  1  0  0  0
 13 22  1  0  0  0  0
 14 22  1  0  0  0  0
 14 23  1  1  0  0  0
 15  9  1  0  0  0  0
 17 10  1  6  0  0  0
 17  8  1  0  0  0  0
 18 15  1  0  0  0  0
 19 16  1  0  0  0  0
 20 29  1  6  0  0  0
 21  4  1  0  0  0  0
 22 21  1  1  0  0  0
 25  5  2  0  0  0  0
 27  5  1  6  0  0  0
 27 14  1  0  0  0  0
 28 23  1  1  0  0  0
 28  9  1  0  0  0  0
 29 30  1  0  0  0  0
 30 31  1  0  0  0  0
 32 30  2  0  0  0  0
M  END
>  <MODEL>
9

>  <REMARK>
 VINA RESULT:      -6.4      3.596      8.996
  Name = 
  1 active torsions:
  status: ('A' for Active; 'I' for Inactive)
    1  A    between atoms: C_20  and  N_29
                            x       y       z     vdW  Elec       q    Type
                         _______ _______ _______ _____ _____    ______ ____

>  <TORSDO>
F 1

$$$$
