=
 OpenBabel11122411103D

 31 35  0  0  0  0  0  0  0  0999 V2000
  184.9270  178.6340  144.8060 C   0  0  0  0  0  0  0  0  0  0  0  0
  188.4720  177.4860  144.2380 C   0  0  0  0  0  0  0  0  0  0  0  0
  189.0950  177.4170  145.5210 C   0  0  0  0  0  0  0  0  0  0  0  0
  189.0790  177.6560  147.9530 C   0  0  0  0  0  0  0  0  0  0  0  0
  187.1150  177.8830  144.0140 C   0  0  0  0  0  0  0  0  0  0  0  0
  184.4450  178.6560  143.4990 C   0  0  0  0  0  3  0  0  0  0  0  0
  188.4310  177.7370  146.7190 C   0  0  0  0  0  3  0  0  0  0  0  0
  188.7340  177.1710  141.8100 C   0  0  0  0  0  0  0  0  0  0  0  0
  184.0960  178.9910  145.8580 O   0  0  0  0  0  1  0  0  0  0  0  0
  191.1280  176.6900  144.4790 N   0  0  0  0  0  0  0  0  0  0  0  0
  188.3980  177.9780  149.1180 O   0  0  0  0  0  1  0  0  0  0  0  0
  187.4110  177.5610  141.6170 C   0  0  0  0  0  3  0  0  0  0  0  0
  189.2640  177.1330  143.1100 C   0  0  0  0  0  0  0  0  0  0  0  0
  186.2460  178.2510  145.0590 C   0  0  0  0  0  3  0  0  0  0  0  0
  190.4120  177.2500  148.0130 C   0  0  0  0  0  3  0  0  0  0  0  0
  186.6050  177.9130  142.6910 C   0  0  0  0  0  0  0  0  0  0  0  0
  185.2840  178.2970  142.4430 C   0  0  0  0  0  3  0  0  0  0  0  0
  190.5570  176.7510  143.2800 N   0  0  0  0  0  0  0  0  0  0  0  0
  190.4460  177.0080  145.6030 C   0  0  0  0  0  0  0  0  0  0  0  0
  191.0950  176.9280  146.8400 C   0  0  0  0  0  3  0  0  0  0  0  0
  189.2490  178.6840  139.3360 O   0  0  0  0  0  0  0  0  0  0  0  0
  189.8050  177.5650  139.5020 C   0  0  0  0  0  0  0  0  0  0  0  0
  189.5710  176.8060  140.6990 N   0  0  0  0  0  2  0  0  0  0  0  0
  192.3660  175.9940  136.4730 C   0  0  0  0  0  0  0  0  0  0  0  0
  190.1770  176.6480  137.2200 C   0  0  0  0  0  3  0  0  0  0  0  0
  192.6680  177.2040  139.8500 F   0  0  0  0  0  0  0  0  0  0  0  0
  193.1840  175.4950  135.5150 F   0  0  0  0  0  0  0  0  0  0  0  0
  191.0030  176.1330  136.2220 C   0  0  0  0  0  3  0  0  0  0  0  0
  192.0920  176.8610  138.6710 C   0  0  0  0  0  0  0  0  0  0  0  0
  190.7070  177.0200  138.4620 C   0  0  0  0  0  0  0  0  0  0  0  0
  192.8760  176.3570  137.6800 N   0  0  0  0  0  0  0  0  0  0  0  0
  1 14  1  0  0  0  0
  1  9  1  0  0  0  0
  2  3  1  0  0  0  0
  3 19  2  0  0  0  0
  3  7  1  0  0  0  0
  4 15  1  0  0  0  0
  4 11  1  0  0  0  0
  5  2  1  0  0  0  0
  5 14  2  0  0  0  0
  6  1  2  0  0  0  0
  7  4  2  0  0  0  0
  8 13  1  0  0  0  0
 10 19  1  0  0  0  0
 12  8  2  0  0  0  0
 12 16  1  0  0  0  0
 13 18  1  0  0  0  0
 13  2  2  0  0  0  0
 16  5  1  0  0  0  0
 17 16  2  0  0  0  0
 17  6  1  0  0  0  0
 18 10  2  0  0  0  0
 19 20  1  0  0  0  0
 20 15  2  0  0  0  0
 21 22  2  0  0  0  0
 22 23  1  0  0  0  0
 23  8  1  0  0  0  0
 24 31  1  0  0  0  0
 25 30  2  0  0  0  0
 27 24  1  0  0  0  0
 28 24  2  0  0  0  0
 28 25  1  0  0  0  0
 29 26  1  0  0  0  0
 30 29  1  0  0  0  0
 30 22  1  0  0  0  0
 31 29  2  0  0  0  0
M  END
>  <MODEL>
1

>  <REMARK>
 VINA RESULT:     -11.0      0.000      0.000
  Name = 
  2 active torsions:
  status: ('A' for Active; 'I' for Inactive)
    1  A    between atoms: C_5  and  C_30
    2  A    between atoms: C_10  and  N_16
                            x       y       z     vdW  Elec       q    Type
                         _______ _______ _______ _____ _____    ______ ____

>  <TORSDO>
F 2

$$$$
=
 OpenBabel11122411103D

 31 35  0  0  0  0  0  0  0  0999 V2000
  190.0990  177.1880  147.1750 C   0  0  0  0  0  0  0  0  0  0  0  0
  188.3780  177.4910  143.8360 C   0  0  0  0  0  0  0  0  0  0  0  0
  187.0650  177.9910  144.0900 C   0  0  0  0  0  0  0  0  0  0  0  0
  185.2970  178.7730  145.5850 C   0  0  0  0  0  0  0  0  0  0  0  0
  189.3590  177.2330  144.8450 C   0  0  0  0  0  0  0  0  0  0  0  0
  191.3450  176.7000  146.7850 C   0  0  0  0  0  3  0  0  0  0  0  0
  186.5890  178.2860  145.3810 C   0  0  0  0  0  3  0  0  0  0  0  0
  189.9940  176.7430  142.1350 C   0  0  0  0  0  0  0  0  0  0  0  0
  189.8310  177.4140  148.5180 O   0  0  0  0  0  1  0  0  0  0  0  0
  186.6010  177.9330  141.7390 N   0  0  0  0  0  0  0  0  0  0  0  0
  184.8560  179.0560  146.8690 O   0  0  0  0  0  1  0  0  0  0  0  0
  190.9330  176.5000  143.1350 C   0  0  0  0  0  3  0  0  0  0  0  0
  188.7250  177.2350  142.4790 C   0  0  0  0  0  0  0  0  0  0  0  0
  189.1200  177.4510  146.2150 C   0  0  0  0  0  3  0  0  0  0  0  0
  184.4500  178.9750  144.4960 C   0  0  0  0  0  3  0  0  0  0  0  0
  190.6330  176.7360  144.4700 C   0  0  0  0  0  0  0  0  0  0  0  0
  191.6100  176.4740  145.4340 C   0  0  0  0  0  3  0  0  0  0  0  0
  187.8210  177.4670  141.4910 N   0  0  0  0  0  0  0  0  0  0  0  0
  186.1900  178.2020  142.9990 C   0  0  0  0  0  0  0  0  0  0  0  0
  184.8960  178.6890  143.2050 C   0  0  0  0  0  3  0  0  0  0  0  0
  192.2140  177.8360  140.5380 O   0  0  0  0  0  0  0  0  0  0  0  0
  191.3940  177.0470  139.9950 C   0  0  0  0  0  0  0  0  0  0  0  0
  190.3020  176.5000  140.7520 N   0  0  0  0  0  2  0  0  0  0  0  0
  191.8870  175.9640  135.8990 C   0  0  0  0  0  0  0  0  0  0  0  0
  192.7870  176.2050  138.1150 C   0  0  0  0  0  3  0  0  0  0  0  0
  189.2680  177.2240  138.0210 F   0  0  0  0  0  0  0  0  0  0  0  0
  192.0390  175.6210  134.5960 F   0  0  0  0  0  0  0  0  0  0  0  0
  192.9620  175.8480  136.7790 C   0  0  0  0  0  3  0  0  0  0  0  0
  190.4910  176.7770  137.6440 C   0  0  0  0  0  0  0  0  0  0  0  0
  191.5490  176.6760  138.5710 C   0  0  0  0  0  0  0  0  0  0  0  0
  190.6880  176.4220  136.3450 N   0  0  0  0  0  0  0  0  0  0  0  0
  1  9  1  0  0  0  0
  2  3  1  0  0  0  0
  2  5  1  0  0  0  0
  3  7  2  0  0  0  0
  4 11  1  0  0  0  0
  5 14  1  0  0  0  0
  6  1  1  0  0  0  0
  7  4  1  0  0  0  0
  8 13  1  0  0  0  0
  8 12  2  0  0  0  0
 10 19  1  0  0  0  0
 12 16  1  0  0  0  0
 13  2  2  0  0  0  0
 14  1  2  0  0  0  0
 15  4  2  0  0  0  0
 16  5  2  0  0  0  0
 16 17  1  0  0  0  0
 17  6  2  0  0  0  0
 18 10  2  0  0  0  0
 18 13  1  0  0  0  0
 19 20  2  0  0  0  0
 19  3  1  0  0  0  0
 20 15  1  0  0  0  0
 22 21  2  0  0  0  0
 22 23  1  0  0  0  0
 23  8  1  0  0  0  0
 24 31  2  0  0  0  0
 24 28  1  0  0  0  0
 25 30  1  0  0  0  0
 27 24  1  0  0  0  0
 28 25  2  0  0  0  0
 29 26  1  0  0  0  0
 29 30  2  0  0  0  0
 30 22  1  0  0  0  0
 31 29  1  0  0  0  0
M  END
>  <MODEL>
2

>  <REMARK>
 VINA RESULT:     -10.9      1.588      4.123
  Name = 
  2 active torsions:
  status: ('A' for Active; 'I' for Inactive)
    1  A    between atoms: C_5  and  C_30
    2  A    between atoms: C_10  and  N_16
                            x       y       z     vdW  Elec       q    Type
                         _______ _______ _______ _____ _____    ______ ____

>  <TORSDO>
F 2

$$$$
=
 OpenBabel11122411103D

 31 35  0  0  0  0  0  0  0  0999 V2000
  186.8700  177.7590  145.8910 C   0  0  0  0  0  0  0  0  0  0  0  0
  187.1120  178.2000  142.1560 C   0  0  0  0  0  0  0  0  0  0  0  0
  188.4320  177.8130  141.7780 C   0  0  0  0  0  0  0  0  0  0  0  0
  190.6790  176.9960  142.2850 C   0  0  0  0  0  0  0  0  0  0  0  0
  186.6110  178.1790  143.4970 C   0  0  0  0  0  0  0  0  0  0  0  0
  185.5560  178.1640  146.1190 C   0  0  0  0  0  3  0  0  0  0  0  0
  189.3970  177.3640  142.6980 C   0  0  0  0  0  3  0  0  0  0  0  0
  184.9220  179.0330  141.3970 C   0  0  0  0  0  0  0  0  0  0  0  0
  187.6630  177.3470  146.9530 O   0  0  0  0  0  1  0  0  0  0  0  0
  187.9090  178.3060  139.4910 N   0  0  0  0  0  0  0  0  0  0  0  0
  191.6090  176.5570  143.2160 O   0  0  0  0  0  1  0  0  0  0  0  0
  184.4570  179.0040  142.7110 C   0  0  0  0  0  3  0  0  0  0  0  0
  186.2390  178.6340  141.1190 C   0  0  0  0  0  0  0  0  0  0  0  0
  187.3890  177.7670  144.5950 C   0  0  0  0  0  3  0  0  0  0  0  0
  191.0230  177.0690  140.9350 C   0  0  0  0  0  3  0  0  0  0  0  0
  185.2760  178.5870  143.7500 C   0  0  0  0  0  0  0  0  0  0  0  0
  184.7610  178.5770  145.0490 C   0  0  0  0  0  3  0  0  0  0  0  0
  186.6760  178.6690  139.8330 N   0  0  0  0  0  0  0  0  0  0  0  0
  188.8010  177.8810  140.4140 C   0  0  0  0  0  0  0  0  0  0  0  0
  190.0860  177.5120  140.0020 C   0  0  0  0  0  3  0  0  0  0  0  0
  182.6840  177.5880  140.1420 O   0  0  0  0  0  0  0  0  0  0  0  0
  182.9880  178.7380  139.7240 C   0  0  0  0  0  0  0  0  0  0  0  0
  184.0750  179.4650  140.3180 N   0  0  0  0  0  2  0  0  0  0  0  0
  180.7850  180.5490  136.5510 C   0  0  0  0  0  0  0  0  0  0  0  0
  181.7270  180.6530  138.7610 C   0  0  0  0  0  3  0  0  0  0  0  0
  182.4320  177.4150  137.1960 F   0  0  0  0  0  0  0  0  0  0  0  0
  180.0850  181.1200  135.5410 F   0  0  0  0  0  0  0  0  0  0  0  0
  181.0050  181.2570  137.7320 C   0  0  0  0  0  3  0  0  0  0  0  0
  181.9770  178.6760  137.4020 C   0  0  0  0  0  0  0  0  0  0  0  0
  182.2250  179.3520  138.6140 C   0  0  0  0  0  0  0  0  0  0  0  0
  181.2690  179.2870  136.4130 N   0  0  0  0  0  0  0  0  0  0  0  0
  1  6  1  0  0  0  0
  1  9  1  0  0  0  0
  2  5  1  0  0  0  0
  3  2  1  0  0  0  0
  3  7  2  0  0  0  0
  4  7  1  0  0  0  0
  4 11  1  0  0  0  0
  5 16  2  0  0  0  0
  5 14  1  0  0  0  0
  8 12  2  0  0  0  0
 10 18  2  0  0  0  0
 10 19  1  0  0  0  0
 12 16  1  0  0  0  0
 13  8  1  0  0  0  0
 13  2  2  0  0  0  0
 14  1  2  0  0  0  0
 15  4  2  0  0  0  0
 16 17  1  0  0  0  0
 17  6  2  0  0  0  0
 18 13  1  0  0  0  0
 19  3  1  0  0  0  0
 20 19  2  0  0  0  0
 20 15  1  0  0  0  0
 22 21  2  0  0  0  0
 22 23  1  0  0  0  0
 23  8  1  0  0  0  0
 24 28  1  0  0  0  0
 26 29  1  0  0  0  0
 27 24  1  0  0  0  0
 28 25  2  0  0  0  0
 29 30  2  0  0  0  0
 30 25  1  0  0  0  0
 30 22  1  0  0  0  0
 31 24  2  0  0  0  0
 31 29  1  0  0  0  0
M  END
>  <MODEL>
3

>  <REMARK>
 VINA RESULT:     -10.5      4.942      7.084
  Name = 
  2 active torsions:
  status: ('A' for Active; 'I' for Inactive)
    1  A    between atoms: C_5  and  C_30
    2  A    between atoms: C_10  and  N_16
                            x       y       z     vdW  Elec       q    Type
                         _______ _______ _______ _____ _____    ______ ____

>  <TORSDO>
F 2

$$$$
=
 OpenBabel11122411103D

 31 35  0  0  0  0  0  0  0  0999 V2000
  185.5580  178.2080  146.2760 C   0  0  0  0  0  0  0  0  0  0  0  0
  185.8560  178.3660  142.5230 C   0  0  0  0  0  0  0  0  0  0  0  0
  184.5530  178.6550  142.0160 C   0  0  0  0  0  0  0  0  0  0  0  0
  182.1700  179.1110  142.3010 C   0  0  0  0  0  0  0  0  0  0  0  0
  186.1750  178.2230  143.9110 C   0  0  0  0  0  0  0  0  0  0  0  0
  186.8750  177.9270  146.6330 C   0  0  0  0  0  3  0  0  0  0  0  0
  183.4270  178.8300  142.8400 C   0  0  0  0  0  3  0  0  0  0  0  0
  188.2180  177.9280  141.9800 C   0  0  0  0  0  0  0  0  0  0  0  0
  184.5870  178.3450  147.2590 O   0  0  0  0  0  1  0  0  0  0  0  0
  185.4260  178.6100  139.7840 N   0  0  0  0  0  0  0  0  0  0  0  0
  181.0770  179.2800  143.1400 O   0  0  0  0  0  1  0  0  0  0  0  0
  188.5040  177.7930  143.3370 C   0  0  0  0  0  3  0  0  0  0  0  0
  186.9050  178.2130  141.5730 C   0  0  0  0  0  0  0  0  0  0  0  0
  185.2140  178.3550  144.9310 C   0  0  0  0  0  3  0  0  0  0  0  0
  182.0130  179.2220  140.9200 C   0  0  0  0  0  3  0  0  0  0  0  0
  187.5090  177.9350  144.2950 C   0  0  0  0  0  0  0  0  0  0  0  0
  187.8490  177.7900  145.6430 C   0  0  0  0  0  3  0  0  0  0  0  0
  186.6430  178.3400  140.2450 N   0  0  0  0  0  0  0  0  0  0  0  0
  184.3740  178.7710  140.6180 C   0  0  0  0  0  0  0  0  0  0  0  0
  183.1140  179.0510  140.0800 C   0  0  0  0  0  3  0  0  0  0  0  0
  190.2800  175.8350  141.7790 O   0  0  0  0  0  0  0  0  0  0  0  0
  190.2420  176.7480  140.9120 C   0  0  0  0  0  0  0  0  0  0  0  0
  189.2460  177.7810  140.9860 N   0  0  0  0  0  2  0  0  0  0  0  0
  193.0370  176.7840  137.6890 C   0  0  0  0  0  0  0  0  0  0  0  0
  190.7960  176.4730  138.5030 C   0  0  0  0  0  3  0  0  0  0  0  0
  193.0640  177.3570  141.2420 F   0  0  0  0  0  0  0  0  0  0  0  0
  193.9290  176.7970  136.6690 F   0  0  0  0  0  0  0  0  0  0  0  0
  191.6990  176.4810  137.4410 C   0  0  0  0  0  3  0  0  0  0  0  0
  192.5870  177.0650  140.0070 C   0  0  0  0  0  0  0  0  0  0  0  0
  191.2240  176.7640  139.8040 C   0  0  0  0  0  0  0  0  0  0  0  0
  193.4470  177.0670  138.9540 N   0  0  0  0  0  0  0  0  0  0  0  0
  1  6  1  0  0  0  0
  1  9  1  0  0  0  0
  2  5  1  0  0  0  0
  3  2  1  0  0  0  0
  3  7  2  0  0  0  0
  4  7  1  0  0  0  0
  4 11  1  0  0  0  0
  5 16  2  0  0  0  0
  5 14  1  0  0  0  0
  8 12  2  0  0  0  0
 10 18  2  0  0  0  0
 10 19  1  0  0  0  0
 12 16  1  0  0  0  0
 13  8  1  0  0  0  0
 13  2  2  0  0  0  0
 14  1  2  0  0  0  0
 15  4  2  0  0  0  0
 16 17  1  0  0  0  0
 17  6  2  0  0  0  0
 18 13  1  0  0  0  0
 19  3  1  0  0  0  0
 20 19  2  0  0  0  0
 20 15  1  0  0  0  0
 22 23  1  0  0  0  0
 22 21  2  0  0  0  0
 23  8  1  0  0  0  0
 24 31  1  0  0  0  0
 25 30  2  0  0  0  0
 27 24  1  0  0  0  0
 28 24  2  0  0  0  0
 28 25  1  0  0  0  0
 29 26  1  0  0  0  0
 30 29  1  0  0  0  0
 30 22  1  0  0  0  0
 31 29  2  0  0  0  0
M  END
>  <MODEL>
4

>  <REMARK>
 VINA RESULT:     -10.1      2.081      4.900
  Name = 
  2 active torsions:
  status: ('A' for Active; 'I' for Inactive)
    1  A    between atoms: C_5  and  C_30
    2  A    between atoms: C_10  and  N_16
                            x       y       z     vdW  Elec       q    Type
                         _______ _______ _______ _____ _____    ______ ____

>  <TORSDO>
F 2

$$$$
=
 OpenBabel11122411103D

 31 35  0  0  0  0  0  0  0  0999 V2000
  187.0900  177.8790  146.0550 C   0  0  0  0  0  0  0  0  0  0  0  0
  187.0120  178.2300  142.3040 C   0  0  0  0  0  0  0  0  0  0  0  0
  188.3060  177.8650  141.8270 C   0  0  0  0  0  0  0  0  0  0  0  0
  190.6070  177.1140  142.1640 C   0  0  0  0  0  0  0  0  0  0  0  0
  186.6240  178.2310  143.6820 C   0  0  0  0  0  0  0  0  0  0  0  0
  185.7900  178.2580  146.3830 C   0  0  0  0  0  3  0  0  0  0  0  0
  189.3550  177.4630  142.6740 C   0  0  0  0  0  3  0  0  0  0  0  0
  184.7460  178.9920  141.7110 C   0  0  0  0  0  0  0  0  0  0  0  0
  187.9790  177.5120  147.0570 O   0  0  0  0  0  1  0  0  0  0  0  0
  187.5830  178.2870  139.5810 N   0  0  0  0  0  0  0  0  0  0  0  0
  191.6220  176.7210  143.0240 O   0  0  0  0  0  1  0  0  0  0  0  0
  184.3920  178.9860  143.0590 C   0  0  0  0  0  3  0  0  0  0  0  0
  186.0450  178.6170  141.3330 C   0  0  0  0  0  0  0  0  0  0  0  0
  187.5000  177.8660  144.7210 C   0  0  0  0  0  3  0  0  0  0  0  0
  190.8370  177.1620  140.7890 C   0  0  0  0  0  3  0  0  0  0  0  0
  185.3050  178.6150  144.0360 C   0  0  0  0  0  0  0  0  0  0  0  0
  184.8990  178.6260  145.3730 C   0  0  0  0  0  3  0  0  0  0  0  0
  186.3740  178.6300  140.0150 N   0  0  0  0  0  0  0  0  0  0  0  0
  188.5590  177.9070  140.4360 C   0  0  0  0  0  0  0  0  0  0  0  0
  189.8140  177.5580  139.9270 C   0  0  0  0  0  3  0  0  0  0  0  0
  182.8580  177.2830  140.2310 O   0  0  0  0  0  0  0  0  0  0  0  0
  182.8910  178.5200  139.9890 C   0  0  0  0  0  0  0  0  0  0  0  0
  183.8020  179.3760  140.6960 N   0  0  0  0  0  2  0  0  0  0  0  0
  180.3100  180.1730  137.0220 C   0  0  0  0  0  0  0  0  0  0  0  0
  182.1280  178.7230  137.6310 C   0  0  0  0  0  3  0  0  0  0  0  0
  180.7930  180.4430  140.5790 F   0  0  0  0  0  0  0  0  0  0  0  0
  179.4870  180.7010  136.0840 F   0  0  0  0  0  0  0  0  0  0  0  0
  181.2910  179.2560  136.6510 C   0  0  0  0  0  3  0  0  0  0  0  0
  180.9810  180.0340  139.2990 C   0  0  0  0  0  0  0  0  0  0  0  0
  181.9880  179.1030  138.9710 C   0  0  0  0  0  0  0  0  0  0  0  0
  180.1780  180.5390  138.3250 N   0  0  0  0  0  0  0  0  0  0  0  0
  1  6  1  0  0  0  0
  1  9  1  0  0  0  0
  2  5  1  0  0  0  0
  3  2  1  0  0  0  0
  3  7  2  0  0  0  0
  4  7  1  0  0  0  0
  4 11  1  0  0  0  0
  5 16  2  0  0  0  0
  5 14  1  0  0  0  0
  8 12  2  0  0  0  0
 10 18  2  0  0  0  0
 10 19  1  0  0  0  0
 12 16  1  0  0  0  0
 13  8  1  0  0  0  0
 13  2  2  0  0  0  0
 14  1  2  0  0  0  0
 15  4  2  0  0  0  0
 16 17  1  0  0  0  0
 17  6  2  0  0  0  0
 18 13  1  0  0  0  0
 19  3  1  0  0  0  0
 20 19  2  0  0  0  0
 20 15  1  0  0  0  0
 22 21  2  0  0  0  0
 22 23  1  0  0  0  0
 23  8  1  0  0  0  0
 24 31  1  0  0  0  0
 25 30  2  0  0  0  0
 27 24  1  0  0  0  0
 28 24  2  0  0  0  0
 28 25  1  0  0  0  0
 29 26  1  0  0  0  0
 30 29  1  0  0  0  0
 30 22  1  0  0  0  0
 31 29  2  0  0  0  0
M  END
>  <MODEL>
5

>  <REMARK>
 VINA RESULT:     -10.1      5.119      7.310
  Name = 
  2 active torsions:
  status: ('A' for Active; 'I' for Inactive)
    1  A    between atoms: C_5  and  C_30
    2  A    between atoms: C_10  and  N_16
                            x       y       z     vdW  Elec       q    Type
                         _______ _______ _______ _____ _____    ______ ____

>  <TORSDO>
F 2

$$$$
=
 OpenBabel11122411103D

 31 35  0  0  0  0  0  0  0  0999 V2000
  190.5100  176.8980  142.2840 C   0  0  0  0  0  0  0  0  0  0  0  0
  187.1620  178.1680  143.4570 C   0  0  0  0  0  0  0  0  0  0  0  0
  187.1530  178.0590  144.8810 C   0  0  0  0  0  0  0  0  0  0  0  0
  188.1860  177.4660  147.0140 C   0  0  0  0  0  0  0  0  0  0  0  0
  188.2590  177.7890  142.6200 C   0  0  0  0  0  0  0  0  0  0  0  0
  190.3850  177.0590  140.9060 C   0  0  0  0  0  3  0  0  0  0  0  0
  188.2380  177.5560  145.6220 C   0  0  0  0  0  3  0  0  0  0  0  0
  185.9130  178.8380  141.4440 C   0  0  0  0  0  0  0  0  0  0  0  0
  191.6820  176.3780  142.8180 O   0  0  0  0  0  1  0  0  0  0  0  0
  184.9320  178.9600  144.9230 N   0  0  0  0  0  0  0  0  0  0  0  0
  189.2730  176.9670  147.7190 O   0  0  0  0  0  1  0  0  0  0  0  0
  186.9940  178.4620  140.6490 C   0  0  0  0  0  3  0  0  0  0  0  0
  185.9940  178.6940  142.8380 C   0  0  0  0  0  0  0  0  0  0  0  0
  189.4590  177.2590  143.1290 C   0  0  0  0  0  3  0  0  0  0  0  0
  187.0420  177.8780  147.6970 C   0  0  0  0  0  3  0  0  0  0  0  0
  188.1510  177.9450  141.2140 C   0  0  0  0  0  0  0  0  0  0  0  0
  189.2060  177.5820  140.3730 C   0  0  0  0  0  3  0  0  0  0  0  0
  184.9300  179.0660  143.5980 N   0  0  0  0  0  0  0  0  0  0  0  0
  186.0020  178.4710  145.5910 C   0  0  0  0  0  0  0  0  0  0  0  0
  185.9510  178.3780  146.9860 C   0  0  0  0  0  3  0  0  0  0  0  0
  183.4870  177.3950  140.6060 O   0  0  0  0  0  0  0  0  0  0  0  0
  183.5420  178.6460  140.4600 C   0  0  0  0  0  0  0  0  0  0  0  0
  184.7130  179.3750  140.8600 N   0  0  0  0  0  2  0  0  0  0  0  0
  180.2680  180.7710  138.7370 C   0  0  0  0  0  0  0  0  0  0  0  0
  182.5900  180.1450  138.7190 C   0  0  0  0  0  3  0  0  0  0  0  0
  180.8500  178.6090  141.5550 F   0  0  0  0  0  0  0  0  0  0  0  0
  179.2250  181.4440  138.1940 F   0  0  0  0  0  0  0  0  0  0  0  0
  181.5280  180.8440  138.1450 C   0  0  0  0  0  3  0  0  0  0  0  0
  181.1040  179.3330  140.4370 C   0  0  0  0  0  0  0  0  0  0  0  0
  182.3960  179.3780  139.8750 C   0  0  0  0  0  0  0  0  0  0  0  0
  180.0850  180.0250  139.8580 N   0  0  0  0  0  0  0  0  0  0  0  0
  1  9  1  0  0  0  0
  1 14  1  0  0  0  0
  2  3  1  0  0  0  0
  3 19  2  0  0  0  0
  3  7  1  0  0  0  0
  4 15  1  0  0  0  0
  4 11  1  0  0  0  0
  5 14  2  0  0  0  0
  5  2  1  0  0  0  0
  6  1  2  0  0  0  0
  7  4  2  0  0  0  0
  8 13  1  0  0  0  0
 10 19  1  0  0  0  0
 12 16  1  0  0  0  0
 12  8  2  0  0  0  0
 13  2  2  0  0  0  0
 13 18  1  0  0  0  0
 16  5  1  0  0  0  0
 17  6  1  0  0  0  0
 17 16  2  0  0  0  0
 18 10  2  0  0  0  0
 19 20  1  0  0  0  0
 20 15  2  0  0  0  0
 22 21  2  0  0  0  0
 22 23  1  0  0  0  0
 23  8  1  0  0  0  0
 24 31  1  0  0  0  0
 25 30  2  0  0  0  0
 27 24  1  0  0  0  0
 28 25  1  0  0  0  0
 28 24  2  0  0  0  0
 29 26  1  0  0  0  0
 30 29  1  0  0  0  0
 30 22  1  0  0  0  0
 31 29  2  0  0  0  0
M  END
>  <MODEL>
6

>  <REMARK>
 VINA RESULT:     -10.0      5.027      7.241
  Name = 
  2 active torsions:
  status: ('A' for Active; 'I' for Inactive)
    1  A    between atoms: C_5  and  C_30
    2  A    between atoms: C_10  and  N_16
                            x       y       z     vdW  Elec       q    Type
                         _______ _______ _______ _____ _____    ______ ____

>  <TORSDO>
F 2

$$$$
=
 OpenBabel11122411103D

 31 35  0  0  0  0  0  0  0  0999 V2000
  187.0680  178.1750  147.6690 C   0  0  0  0  0  0  0  0  0  0  0  0
  187.7240  177.6370  143.9970 C   0  0  0  0  0  0  0  0  0  0  0  0
  189.0760  177.1970  143.8770 C   0  0  0  0  0  0  0  0  0  0  0  0
  191.2490  176.5940  144.8190 C   0  0  0  0  0  0  0  0  0  0  0  0
  187.0780  177.9530  145.2340 C   0  0  0  0  0  0  0  0  0  0  0  0
  185.7400  178.5930  147.6400 C   0  0  0  0  0  3  0  0  0  0  0  0
  189.9310  177.0260  144.9810 C   0  0  0  0  0  3  0  0  0  0  0  0
  185.6350  178.1920  142.8150 C   0  0  0  0  0  0  0  0  0  0  0  0
  187.7380  178.0720  148.8800 O   0  0  0  0  0  1  0  0  0  0  0  0
  188.8110  177.0670  141.4990 N   0  0  0  0  0  0  0  0  0  0  0  0
  192.0690  176.4330  145.9270 O   0  0  0  0  0  1  0  0  0  0  0  0
  185.0280  178.4940  144.0320 C   0  0  0  0  0  3  0  0  0  0  0  0
  186.9730  177.7660  142.7940 C   0  0  0  0  0  0  0  0  0  0  0  0
  187.7270  177.8590  146.4790 C   0  0  0  0  0  3  0  0  0  0  0  0
  191.7400  176.3220  143.5430 C   0  0  0  0  0  3  0  0  0  0  0  0
  185.7260  178.3810  145.2270 C   0  0  0  0  0  0  0  0  0  0  0  0
  185.0700  178.6960  146.4200 C   0  0  0  0  0  3  0  0  0  0  0  0
  187.5500  177.4770  141.5990 N   0  0  0  0  0  0  0  0  0  0  0  0
  189.5940  176.9170  142.5910 C   0  0  0  0  0  0  0  0  0  0  0  0
  190.9140  176.4850  142.4310 C   0  0  0  0  0  3  0  0  0  0  0  0
  182.7450  178.5870  142.4130 O   0  0  0  0  0  0  0  0  0  0  0  0
  183.5020  178.5010  141.4080 C   0  0  0  0  0  0  0  0  0  0  0  0
  184.9150  178.3090  141.5760 N   0  0  0  0  0  2  0  0  0  0  0  0
  181.8830  178.8330  137.4750 C   0  0  0  0  0  0  0  0  0  0  0  0
  182.6910  179.8630  139.4920 C   0  0  0  0  0  3  0  0  0  0  0  0
  182.8600  176.2100  139.7380 F   0  0  0  0  0  0  0  0  0  0  0  0
  181.3690  178.9330  136.2250 F   0  0  0  0  0  0  0  0  0  0  0  0
  182.1620  179.9860  138.2080 C   0  0  0  0  0  3  0  0  0  0  0  0
  182.6420  177.4620  139.2640 C   0  0  0  0  0  0  0  0  0  0  0  0
  182.9390  178.5990  140.0420 C   0  0  0  0  0  0  0  0  0  0  0  0
  182.1260  177.6090  138.0130 N   0  0  0  0  0  0  0  0  0  0  0  0
  1  9  1  0  0  0  0
  2  5  1  0  0  0  0
  3  2  1  0  0  0  0
  3  7  2  0  0  0  0
  4  7  1  0  0  0  0
  4 11  1  0  0  0  0
  5 14  1  0  0  0  0
  6  1  1  0  0  0  0
  8 12  2  0  0  0  0
 10 18  2  0  0  0  0
 10 19  1  0  0  0  0
 12 16  1  0  0  0  0
 13  8  1  0  0  0  0
 13  2  2  0  0  0  0
 14  1  2  0  0  0  0
 15  4  2  0  0  0  0
 16  5  2  0  0  0  0
 16 17  1  0  0  0  0
 17  6  2  0  0  0  0
 18 13  1  0  0  0  0
 19  3  1  0  0  0  0
 20 19  2  0  0  0  0
 20 15  1  0  0  0  0
 22 23  1  0  0  0  0
 22 21  2  0  0  0  0
 23  8  1  0  0  0  0
 24 31  2  0  0  0  0
 24 28  1  0  0  0  0
 25 30  1  0  0  0  0
 27 24  1  0  0  0  0
 28 25  2  0  0  0  0
 29 26  1  0  0  0  0
 29 30  2  0  0  0  0
 30 22  1  0  0  0  0
 31 29  1  0  0  0  0
M  END
>  <MODEL>
7

>  <REMARK>
 VINA RESULT:      -9.9      4.109      6.153
  Name = 
  2 active torsions:
  status: ('A' for Active; 'I' for Inactive)
    1  A    between atoms: C_5  and  C_30
    2  A    between atoms: C_10  and  N_16
                            x       y       z     vdW  Elec       q    Type
                         _______ _______ _______ _____ _____    ______ ____

>  <TORSDO>
F 2

$$$$
=
 OpenBabel11122411103D

 31 35  0  0  0  0  0  0  0  0999 V2000
  190.8060  176.9360  146.1660 C   0  0  0  0  0  0  0  0  0  0  0  0
  188.8350  177.4650  142.9980 C   0  0  0  0  0  0  0  0  0  0  0  0
  189.7730  177.4720  141.9220 C   0  0  0  0  0  0  0  0  0  0  0  0
  192.0410  177.3200  141.0250 C   0  0  0  0  0  0  0  0  0  0  0  0
  189.1790  177.2890  144.3760 C   0  0  0  0  0  0  0  0  0  0  0  0
  189.7870  176.9490  147.1150 C   0  0  0  0  0  3  0  0  0  0  0  0
  191.1580  177.3060  142.1060 C   0  0  0  0  0  3  0  0  0  0  0  0
  186.4690  177.6510  143.6580 C   0  0  0  0  0  0  0  0  0  0  0  0
  192.1230  176.7540  146.5640 O   0  0  0  0  0  1  0  0  0  0  0  0
  187.9770  177.8190  140.3740 N   0  0  0  0  0  0  0  0  0  0  0  0
  193.4020  177.1530  141.2380 O   0  0  0  0  0  1  0  0  0  0  0  0
  186.8290  177.4780  144.9930 C   0  0  0  0  0  3  0  0  0  0  0  0
  187.4620  177.6440  142.6650 C   0  0  0  0  0  0  0  0  0  0  0  0
  190.5040  177.1030  144.8130 C   0  0  0  0  0  3  0  0  0  0  0  0
  191.5540  177.5020  139.7310 C   0  0  0  0  0  3  0  0  0  0  0  0
  188.1560  177.3000  145.3580 C   0  0  0  0  0  0  0  0  0  0  0  0
  188.4640  177.1310  146.7110 C   0  0  0  0  0  3  0  0  0  0  0  0
  187.0940  177.8150  141.3680 N   0  0  0  0  0  0  0  0  0  0  0  0
  189.2990  177.6550  140.6020 C   0  0  0  0  0  0  0  0  0  0  0  0
  190.1850  177.6700  139.5200 C   0  0  0  0  0  3  0  0  0  0  0  0
  184.7480  179.9980  144.1080 O   0  0  0  0  0  0  0  0  0  0  0  0
  184.2780  178.9930  143.5090 C   0  0  0  0  0  0  0  0  0  0  0  0
  185.0950  177.8360  143.2760 N   0  0  0  0  0  2  0  0  0  0  0  0
  180.2180  179.0100  142.1970 C   0  0  0  0  0  0  0  0  0  0  0  0
  181.8350  179.0090  143.9760 C   0  0  0  0  0  3  0  0  0  0  0  0
  183.4960  178.9850  140.7090 F   0  0  0  0  0  0  0  0  0  0  0  0
  178.9310  179.0150  141.7750 F   0  0  0  0  0  0  0  0  0  0  0  0
  180.5040  179.0150  143.5610 C   0  0  0  0  0  3  0  0  0  0  0  0
  182.5370  178.9940  141.6680 C   0  0  0  0  0  0  0  0  0  0  0  0
  182.8740  178.9980  143.0370 C   0  0  0  0  0  0  0  0  0  0  0  0
  181.2300  178.9990  141.2890 N   0  0  0  0  0  0  0  0  0  0  0  0
  1  9  1  0  0  0  0
  1  6  1  0  0  0  0
  2  5  1  0  0  0  0
  3  7  2  0  0  0  0
  3  2  1  0  0  0  0
  4 11  1  0  0  0  0
  4  7  1  0  0  0  0
  5 14  1  0  0  0  0
  5 16  2  0  0  0  0
  8 12  2  0  0  0  0
 10 19  1  0  0  0  0
 10 18  2  0  0  0  0
 12 16  1  0  0  0  0
 13  2  2  0  0  0  0
 13  8  1  0  0  0  0
 14  1  2  0  0  0  0
 15  4  2  0  0  0  0
 16 17  1  0  0  0  0
 17  6  2  0  0  0  0
 18 13  1  0  0  0  0
 19  3  1  0  0  0  0
 20 15  1  0  0  0  0
 20 19  2  0  0  0  0
 22 21  2  0  0  0  0
 23 22  1  0  0  0  0
 23  8  1  0  0  0  0
 24 28  1  0  0  0  0
 26 29  1  0  0  0  0
 27 24  1  0  0  0  0
 28 25  2  0  0  0  0
 29 30  2  0  0  0  0
 30 22  1  0  0  0  0
 30 25  1  0  0  0  0
 31 29  1  0  0  0  0
 31 24  2  0  0  0  0
M  END
>  <MODEL>
8

>  <REMARK>
 VINA RESULT:      -9.9      4.102      7.870
  Name = 
  2 active torsions:
  status: ('A' for Active; 'I' for Inactive)
    1  A    between atoms: C_5  and  C_30
    2  A    between atoms: C_10  and  N_16
                            x       y       z     vdW  Elec       q    Type
                         _______ _______ _______ _____ _____    ______ ____

>  <TORSDO>
F 2

$$$$
=
 OpenBabel11122411103D

 31 35  0  0  0  0  0  0  0  0999 V2000
  183.3010  178.8850  139.0020 C   0  0  0  0  0  0  0  0  0  0  0  0
  186.9620  178.2710  139.6500 C   0  0  0  0  0  0  0  0  0  0  0  0
  187.5960  178.1640  138.3760 C   0  0  0  0  0  0  0  0  0  0  0  0
  187.5620  178.1660  135.9320 C   0  0  0  0  0  0  0  0  0  0  0  0
  185.5640  178.5070  139.8450 C   0  0  0  0  0  0  0  0  0  0  0  0
  182.8130  178.9690  140.3050 C   0  0  0  0  0  3  0  0  0  0  0  0
  186.9020  178.2780  137.1580 C   0  0  0  0  0  3  0  0  0  0  0  0
  187.2510  178.2270  142.0960 C   0  0  0  0  0  0  0  0  0  0  0  0
  182.4350  179.0290  137.9260 O   0  0  0  0  0  1  0  0  0  0  0  0
  189.7010  177.8120  139.4670 N   0  0  0  0  0  0  0  0  0  0  0  0
  186.8510  178.2830  134.7470 O   0  0  0  0  0  1  0  0  0  0  0  0
  185.8870  178.4560  142.2600 C   0  0  0  0  0  3  0  0  0  0  0  0
  187.7880  178.1350  140.8020 C   0  0  0  0  0  0  0  0  0  0  0  0
  184.6600  178.6570  138.7770 C   0  0  0  0  0  3  0  0  0  0  0  0
  188.9370  177.9350  135.9010 C   0  0  0  0  0  3  0  0  0  0  0  0
  185.0480  178.5950  141.1630 C   0  0  0  0  0  0  0  0  0  0  0  0
  183.6870  178.8240  141.3830 C   0  0  0  0  0  3  0  0  0  0  0  0
  189.1210  177.9100  140.6590 N   0  0  0  0  0  0  0  0  0  0  0  0
  188.9900  177.9300  138.3230 C   0  0  0  0  0  0  0  0  0  0  0  0
  189.6500  177.8160  137.0950 C   0  0  0  0  0  3  0  0  0  0  0  0
  188.3350  175.7500  143.2630 O   0  0  0  0  0  0  0  0  0  0  0  0
  188.6370  176.8590  143.7800 C   0  0  0  0  0  0  0  0  0  0  0  0
  188.1230  178.0820  143.2300 N   0  0  0  0  0  2  0  0  0  0  0  0
  191.1680  177.0150  147.2110 C   0  0  0  0  0  0  0  0  0  0  0  0
  188.9730  177.0900  146.2330 C   0  0  0  0  0  3  0  0  0  0  0  0
  191.5300  176.6120  143.6520 F   0  0  0  0  0  0  0  0  0  0  0  0
  191.9770  177.0640  148.2970 F   0  0  0  0  0  0  0  0  0  0  0  0
  189.7890  177.1420  147.3630 C   0  0  0  0  0  3  0  0  0  0  0  0
  190.9300  176.7870  144.8550 C   0  0  0  0  0  0  0  0  0  0  0  0
  189.5290  176.9120  144.9600 C   0  0  0  0  0  0  0  0  0  0  0  0
  191.7030  176.8420  145.9730 N   0  0  0  0  0  0  0  0  0  0  0  0
  1  6  1  0  0  0  0
  2  5  2  0  0  0  0
  2 13  1  0  0  0  0
  3  2  1  0  0  0  0
  4  7  1  0  0  0  0
  5 16  1  0  0  0  0
  6 17  2  0  0  0  0
  7  3  2  0  0  0  0
  8 12  1  0  0  0  0
  8 23  1  0  0  0  0
  9  1  1  0  0  0  0
 10 18  2  0  0  0  0
 11  4  1  0  0  0  0
 13  8  2  0  0  0  0
 14  1  2  0  0  0  0
 14  5  1  0  0  0  0
 15  4  2  0  0  0  0
 15 20  1  0  0  0  0
 16 17  1  0  0  0  0
 16 12  2  0  0  0  0
 18 13  1  0  0  0  0
 19  3  1  0  0  0  0
 19 10  1  0  0  0  0
 20 19  2  0  0  0  0
 21 22  2  0  0  0  0
 22 30  1  0  0  0  0
 23 22  1  0  0  0  0
 24 28  1  0  0  0  0
 24 27  1  0  0  0  0
 25 28  2  0  0  0  0
 26 29  1  0  0  0  0
 29 30  2  0  0  0  0
 29 31  1  0  0  0  0
 30 25  1  0  0  0  0
 31 24  2  0  0  0  0
M  END
>  <MODEL>
9

>  <REMARK>
 VINA RESULT:      -9.9      3.145      7.601
  Name = 
  2 active torsions:
  status: ('A' for Active; 'I' for Inactive)
    1  A    between atoms: C_5  and  C_30
    2  A    between atoms: C_10  and  N_16
                            x       y       z     vdW  Elec       q    Type
                         _______ _______ _______ _____ _____    ______ ____

>  <TORSDO>
F 2

$$$$
