=
 OpenBabel11122412233D

 34 41  0  0  1  0  0  0  0  0999 V2000
  184.9760  179.0110  143.0390 C   0  0  1  0  0  3  0  0  0  0  0  0
  186.0040  178.1690  145.1600 C   0  0  0  0  0  2  0  0  0  0  0  0
  184.1510  177.2600  137.0120 C   0  0  1  0  0  3  0  0  0  0  0  0
  183.8830  179.0870  140.6800 C   0  0  0  0  0  0  0  0  0  0  0  0
  185.3080  178.6440  138.6280 C   0  0  2  0  0  3  0  0  0  0  0  0
  185.9300  176.2970  137.6670 C   0  0  0  0  0  2  0  0  0  0  0  0
  185.0080  176.1440  136.4620 C   0  0  0  0  0  2  0  0  0  0  0  0
  182.1080  177.9730  138.3060 C   0  0  0  0  0  2  0  0  0  0  0  0
  187.0070  177.4330  143.0620 C   0  0  1  0  0  3  0  0  0  0  0  0
  190.2270  177.6980  143.0980 C   0  0  0  0  0  2  0  0  0  0  0  0
  186.4350  178.6540  139.5620 N   0  0  0  0  0  0  0  0  0  0  0  0
  182.8000  179.3560  138.3410 C   0  0  0  0  0  2  0  0  0  0  0  0
  187.4420  178.3730  141.9050 C   0  0  2  0  0  3  0  0  0  0  0  0
  187.2400  177.3660  145.4920 C   0  0  0  0  0  2  0  0  0  0  0  0
  184.0880  179.4080  139.2150 C   0  0  1  0  0  3  0  0  0  0  0  0
  182.6820  176.9820  137.2700 C   0  0  0  0  0  2  0  0  0  0  0  0
  189.2410  178.1760  144.1600 C   0  0  1  0  0  3  0  0  0  0  0  0
  185.0760  178.9040  141.5340 C   0  0  2  0  0  3  0  0  0  0  0  0
  184.9070  177.2150  138.3100 C   0  0  2  0  0  3  0  0  0  0  0  0
  186.2710  178.6390  140.9880 C   0  0  0  0  0  0  0  0  0  0  0  0
  182.4950  178.6020  142.6680 C   0  0  0  0  0  2  0  0  0  0  0  0
  189.9280  178.3120  141.7390 C   0  0  0  0  0  2  0  0  0  0  0  0
  182.6670  179.0120  141.2360 C   0  0  0  0  0  3  0  0  0  0  0  0
  188.6280  177.7820  141.1550 C   0  0  0  0  0  2  0  0  0  0  0  0
  188.0280  177.2280  144.1970 C   0  0  2  0  0  3  0  0  0  0  0  0
  183.5500  179.2690  143.5490 C   0  0  0  0  0  2  0  0  0  0  0  0
  185.6700  177.8280  143.7250 C   0  0  2  0  0  3  0  0  0  0  0  0
  189.8940  178.1870  145.3960 O   0  0  0  0  0  0  0  0  0  0  0  0
  190.9670  177.3060  145.2390 C   0  0  0  0  0  2  0  0  0  0  0  0
  193.0410  175.3880  147.2860 N   0  0  0  0  0  2  0  0  0  0  0  0
  191.4450  177.1020  147.6140 N   0  0  0  0  0  2  0  0  0  0  0  0
  191.0440  176.3680  146.4300 C   0  0  2  0  0  3  0  0  0  0  0  0
  192.4060  176.2380  148.2800 C   0  0  0  0  0  2  0  0  0  0  0  0
  192.1020  175.3220  146.1810 C   0  0  0  0  0  2  0  0  0  0  0  0
  1 26  1  6  0  0  0
  1 27  1  0  0  0  0
  2 14  1  0  0  0  0
  3  7  1  6  0  0  0
  3 16  1  0  0  0  0
  3 19  1  0  0  0  0
  4 23  2  0  0  0  0
  4 18  1  0  0  0  0
  5 15  1  0  0  0  0
  5 11  1  1  0  0  0
  6 19  1  0  0  0  0
  7  6  1  0  0  0  0
  8 12  1  0  0  0  0
  9 27  1  0  0  0  0
  9 25  1  0  0  0  0
 10 17  1  0  0  0  0
 11 20  2  0  0  0  0
 12 15  1  0  0  0  0
 13  9  1  0  0  0  0
 15  4  1  0  0  0  0
 16  8  1  0  0  0  0
 17 25  1  0  0  0  0
 17 28  1  0  0  0  0
 18  1  1  0  0  0  0
 19  5  1  0  0  0  0
 20 18  1  0  0  0  0
 20 13  1  0  0  0  0
 21 26  1  0  0  0  0
 22 10  1  0  0  0  0
 23 21  1  0  0  0  0
 24 22  1  0  0  0  0
 24 13  1  0  0  0  0
 25 14  1  0  0  0  0
 27  2  1  0  0  0  0
 29 28  1  0  0  0  0
 29 32  1  0  0  0  0
 30 33  1  0  0  0  0
 31 33  1  0  0  0  0
 32 31  1  0  0  0  0
 34 32  1  0  0  0  0
 34 30  1  0  0  0  0
M  END
>  <MODEL>
1

>  <REMARK>
 VINA RESULT:      -9.3      0.000      0.000
  Name = 
  3 active torsions:
  status: ('A' for Active; 'I' for Inactive)
    1  A    between atoms: C_17  and  O_28
    2  A    between atoms: O_28  and  C_29
    3  A    between atoms: C_29  and  C_32
                            x       y       z     vdW  Elec       q    Type
                         _______ _______ _______ _____ _____    ______ ____

>  <TORSDO>
F 3

$$$$
=
 OpenBabel11122412233D

 34 41  0  0  1  0  0  0  0  0999 V2000
  186.7090  178.6890  141.0220 C   0  0  1  0  0  3  0  0  0  0  0  0
  186.4980  178.2950  143.4850 C   0  0  0  0  0  2  0  0  0  0  0  0
  188.6400  175.7180  135.7760 C   0  0  1  0  0  3  0  0  0  0  0  0
  186.8840  178.2840  138.4590 C   0  0  0  0  0  0  0  0  0  0  0  0
  189.0480  177.3900  137.4790 C   0  0  2  0  0  3  0  0  0  0  0  0
  189.7670  174.8820  137.3750 C   0  0  0  0  0  2  0  0  0  0  0  0
  189.5160  174.4950  135.9210 C   0  0  0  0  0  2  0  0  0  0  0  0
  186.3290  176.7250  135.7570 C   0  0  0  0  0  2  0  0  0  0  0  0
  188.2820  177.1140  142.3110 C   0  0  1  0  0  3  0  0  0  0  0  0
  191.1040  177.3210  143.8700 C   0  0  0  0  0  2  0  0  0  0  0  0
  189.5890  177.5770  138.8260 N   0  0  0  0  0  0  0  0  0  0  0  0
  187.0810  178.0720  135.8830 C   0  0  0  0  0  2  0  0  0  0  0  0
  189.3210  177.7790  141.3700 C   0  0  2  0  0  3  0  0  0  0  0  0
  187.3230  177.5580  144.5130 C   0  0  0  0  0  2  0  0  0  0  0  0
  187.7960  178.2840  137.2500 C   0  0  1  0  0  3  0  0  0  0  0  0
  187.2040  175.5280  135.3270 C   0  0  0  0  0  2  0  0  0  0  0  0
  189.7970  178.0310  144.2110 C   0  0  1  0  0  3  0  0  0  0  0  0
  187.4980  178.2640  139.8030 C   0  0  2  0  0  3  0  0  0  0  0  0
  188.6790  175.9340  137.2630 C   0  0  2  0  0  3  0  0  0  0  0  0
  188.7670  177.8670  139.9680 C   0  0  0  0  0  0  0  0  0  0  0  0
  184.6720  178.2550  139.5640 C   0  0  0  0  0  2  0  0  0  0  0  0
  191.5610  177.6400  142.4540 C   0  0  0  0  0  2  0  0  0  0  0  0
  185.5510  178.3500  138.3520 C   0  0  0  0  0  3  0  0  0  0  0  0
  190.6420  177.0220  141.4130 C   0  0  0  0  0  2  0  0  0  0  0  0
  188.6090  177.1350  143.8170 C   0  0  2  0  0  3  0  0  0  0  0  0
  185.2540  179.0740  140.7140 C   0  0  0  0  0  2  0  0  0  0  0  0
  186.8470  177.6640  142.1550 C   0  0  2  0  0  3  0  0  0  0  0  0
  189.7820  178.2910  145.5840 O   0  0  0  0  0  0  0  0  0  0  0  0
  190.3970  177.1780  146.1640 C   0  0  0  0  0  2  0  0  0  0  0  0
  188.3950  178.4420  148.7270 N   0  0  0  0  0  2  0  0  0  0  0  0
  188.4970  176.4310  147.4860 N   0  0  0  0  0  2  0  0  0  0  0  0
  189.8480  176.9540  147.5610 C   0  0  2  0  0  3  0  0  0  0  0  0
  187.7620  177.1510  148.5130 C   0  0  0  0  0  2  0  0  0  0  0  0
  189.7700  178.2720  148.2910 C   0  0  0  0  0  2  0  0  0  0  0  0
  1 26  1  6  0  0  0
  1 27  1  0  0  0  0
  2 14  1  0  0  0  0
  3 16  1  1  0  0  0
  3  7  1  0  0  0  0
  3 19  1  0  0  0  0
  4 18  1  0  0  0  0
  5 11  1  1  0  0  0
  7  6  1  0  0  0  0
  8 12  1  0  0  0  0
  9 25  1  0  0  0  0
 10 17  1  0  0  0  0
 11 20  2  0  0  0  0
 12 15  1  0  0  0  0
 13 24  1  0  0  0  0
 13  9  1  0  0  0  0
 15  5  1  0  0  0  0
 15  4  1  0  0  0  0
 16  8  1  0  0  0  0
 17 28  1  0  0  0  0
 18 20  1  0  0  0  0
 18  1  1  0  0  0  0
 19  6  1  0  0  0  0
 19  5  1  0  0  0  0
 20 13  1  0  0  0  0
 21 26  1  0  0  0  0
 22 10  1  0  0  0  0
 23  4  2  0  0  0  0
 23 21  1  0  0  0  0
 24 22  1  0  0  0  0
 25 17  1  0  0  0  0
 25 14  1  0  0  0  0
 27  9  1  0  0  0  0
 27  2  1  0  0  0  0
 28 29  1  0  0  0  0
 29 32  1  0  0  0  0
 31 32  1  0  0  0  0
 31 33  1  0  0  0  0
 32 34  1  0  0  0  0
 33 30  1  0  0  0  0
 34 30  1  0  0  0  0
M  END
>  <MODEL>
2

>  <REMARK>
 VINA RESULT:      -9.3      2.219      3.433
  Name = 
  3 active torsions:
  status: ('A' for Active; 'I' for Inactive)
    1  A    between atoms: C_17  and  O_28
    2  A    between atoms: O_28  and  C_29
    3  A    between atoms: C_29  and  C_32
                            x       y       z     vdW  Elec       q    Type
                         _______ _______ _______ _____ _____    ______ ____

>  <TORSDO>
F 3

$$$$
=
 OpenBabel11122412233D

 34 41  0  0  1  0  0  0  0  0999 V2000
  184.5090  179.0630  143.7780 C   0  0  1  0  0  3  0  0  0  0  0  0
  186.2130  178.3470  145.4650 C   0  0  0  0  0  2  0  0  0  0  0  0
  181.8060  177.0130  138.4330 C   0  0  1  0  0  3  0  0  0  0  0  0
  182.6940  179.0000  141.9150 C   0  0  0  0  0  0  0  0  0  0  0  0
  183.3760  178.5000  139.5230 C   0  0  2  0  0  3  0  0  0  0  0  0
  183.7400  176.1280  138.4920 C   0  0  0  0  0  2  0  0  0  0  0  0
  182.4780  175.8950  137.6680 C   0  0  0  0  0  2  0  0  0  0  0  0
  180.2800  177.7300  140.3060 C   0  0  0  0  0  2  0  0  0  0  0  0
  186.4940  177.5420  143.1790 C   0  0  1  0  0  3  0  0  0  0  0  0
  189.5310  177.8930  142.1340 C   0  0  0  0  0  2  0  0  0  0  0  0
  184.7470  178.5840  140.0280 N   0  0  0  0  0  0  0  0  0  0  0  0
  180.8880  179.1310  140.0610 C   0  0  0  0  0  2  0  0  0  0  0  0
  186.4830  178.4380  141.9110 C   0  0  2  0  0  3  0  0  0  0  0  0
  187.5210  177.5930  145.3950 C   0  0  0  0  0  2  0  0  0  0  0  0
  182.3890  179.2580  140.4550 C   0  0  1  0  0  3  0  0  0  0  0  0
  180.5180  176.7080  139.1730 C   0  0  0  0  0  2  0  0  0  0  0  0
  188.9340  178.3930  143.4460 C   0  0  1  0  0  3  0  0  0  0  0  0
  184.1090  178.8880  142.3300 C   0  0  1  0  0  3  0  0  0  0  0  0
  182.9510  177.0480  139.4060 C   0  0  2  0  0  3  0  0  0  0  0  0
  185.0650  178.6300  141.4270 C   0  0  0  0  0  0  0  0  0  0  0  0
  182.0630  178.5700  144.2670 C   0  0  0  0  0  2  0  0  0  0  0  0
  188.7750  178.4360  140.9310 C   0  0  0  0  0  2  0  0  0  0  0  0
  181.7340  178.9180  142.8450 C   0  0  0  0  0  3  0  0  0  0  0  0
  187.3770  177.8450  140.8310 C   0  0  0  0  0  2  0  0  0  0  0  0
  187.8410  177.4160  143.9170 C   0  0  2  0  0  3  0  0  0  0  0  0
  183.3220  179.3050  144.7230 C   0  0  0  0  0  2  0  0  0  0  0  0
  185.4370  177.9310  144.2350 C   0  0  2  0  0  3  0  0  0  0  0  0
  189.9580  178.4790  144.3930 O   0  0  0  0  0  0  0  0  0  0  0  0
  190.6930  177.3020  144.2290 C   0  0  0  0  0  2  0  0  0  0  0  0
  191.0790  176.2190  147.5230 N   0  0  0  0  0  2  0  0  0  0  0  0
  192.1160  175.7530  145.4490 N   0  0  0  0  0  2  0  0  0  0  0  0
  191.6510  177.1250  145.3930 C   0  0  2  0  0  3  0  0  0  0  0  0
  192.0870  175.4070  146.8610 C   0  0  0  0  0  2  0  0  0  0  0  0
  190.9270  177.3970  146.6890 C   0  0  0  0  0  2  0  0  0  0  0  0
  1 27  1  0  0  0  0
  1 26  1  1  0  0  0
  3  7  1  6  0  0  0
  3 16  1  0  0  0  0
  3 19  1  0  0  0  0
  4 18  1  0  0  0  0
  4 23  2  0  0  0  0
  5 11  1  1  0  0  0
  5 15  1  0  0  0  0
  6 19  1  0  0  0  0
  7  6  1  0  0  0  0
  9 25  1  0  0  0  0
  9 27  1  0  0  0  0
 10 17  1  0  0  0  0
 11 20  2  0  0  0  0
 12  8  1  0  0  0  0
 12 15  1  0  0  0  0
 13  9  1  0  0  0  0
 14  2  1  0  0  0  0
 15  4  1  0  0  0  0
 16  8  1  0  0  0  0
 17 25  1  0  0  0  0
 17 28  1  0  0  0  0
 18  1  1  0  0  0  0
 19  5  1  0  0  0  0
 20 13  1  0  0  0  0
 20 18  1  0  0  0  0
 21 26  1  0  0  0  0
 22 10  1  0  0  0  0
 23 21  1  0  0  0  0
 24 22  1  0  0  0  0
 24 13  1  0  0  0  0
 25 14  1  0  0  0  0
 27  2  1  0  0  0  0
 29 28  1  0  0  0  0
 29 32  1  0  0  0  0
 31 33  1  0  0  0  0
 32 31  1  0  0  0  0
 32 34  1  0  0  0  0
 33 30  1  0  0  0  0
 34 30  1  0  0  0  0
M  END
>  <MODEL>
3

>  <REMARK>
 VINA RESULT:      -9.2      1.257      1.778
  Name = 
  3 active torsions:
  status: ('A' for Active; 'I' for Inactive)
    1  A    between atoms: C_17  and  O_28
    2  A    between atoms: O_28  and  C_29
    3  A    between atoms: C_29  and  C_32
                            x       y       z     vdW  Elec       q    Type
                         _______ _______ _______ _____ _____    ______ ____

>  <TORSDO>
F 3

$$$$
=
 OpenBabel11122412233D

 34 41  0  0  1  0  0  0  0  0999 V2000
  188.1470  177.9780  144.0110 C   0  0  1  0  0  3  0  0  0  0  0  0
  190.1570  176.5430  143.6110 C   0  0  0  0  0  2  0  0  0  0  0  0
  182.1690  178.6280  142.0320 C   0  0  1  0  0  3  0  0  0  0  0  0
  185.6830  178.8020  144.1490 C   0  0  0  0  0  0  0  0  0  0  0  0
  184.4540  179.4280  142.0180 C   0  0  2  0  0  3  0  0  0  0  0  0
  183.2390  177.7750  140.4030 C   0  0  0  0  0  2  0  0  0  0  0  0
  181.7630  177.9650  140.7350 C   0  0  0  0  0  2  0  0  0  0  0  0
  182.5570  178.4470  144.5160 C   0  0  0  0  0  2  0  0  0  0  0  0
  188.6160  176.8560  141.7450 C   0  0  1  0  0  3  0  0  0  0  0  0
  190.1620  177.5840  139.0030 C   0  0  0  0  0  2  0  0  0  0  0  0
  185.7510  179.2470  141.3650 N   0  0  0  0  0  0  0  0  0  0  0  0
  183.2970  179.7950  144.3430 C   0  0  0  0  0  2  0  0  0  0  0  0
  188.1030  178.2290  141.2350 C   0  0  2  0  0  3  0  0  0  0  0  0
  190.7580  175.8780  142.3940 C   0  0  0  0  0  2  0  0  0  0  0  0
  184.6270  179.7000  143.5400 C   0  0  1  0  0  3  0  0  0  0  0  0
  181.6500  178.0460  143.3320 C   0  0  0  0  0  2  0  0  0  0  0  0
  190.7580  177.4470  140.4010 C   0  0  1  0  0  3  0  0  0  0  0  0
  186.8860  178.4880  143.3480 C   0  0  2  0  0  3  0  0  0  0  0  0
  183.5920  178.1950  141.8180 C   0  0  2  0  0  3  0  0  0  0  0  0
  186.8810  178.6480  142.0180 C   0  0  0  0  0  0  0  0  0  0  0  0
  186.6050  177.3650  145.9380 C   0  0  0  0  0  2  0  0  0  0  0  0
  189.0560  178.6280  138.9670 C   0  0  0  0  0  2  0  0  0  0  0  0
  185.5880  178.3270  145.3970 C   0  0  0  0  0  3  0  0  0  0  0  0
  187.8270  178.1740  139.7380 C   0  0  0  0  0  2  0  0  0  0  0  0
  189.9740  176.3840  141.1910 C   0  0  2  0  0  3  0  0  0  0  0  0
  188.0150  177.7890  145.5300 C   0  0  0  0  0  2  0  0  0  0  0  0
  188.6940  176.7440  143.2830 C   0  0  2  0  0  3  0  0  0  0  0  0
  192.0990  177.0740  140.2740 O   0  0  0  0  0  0  0  0  0  0  0  0
  192.3640  177.1590  138.9040 C   0  0  0  0  0  2  0  0  0  0  0  0
  192.7830  174.5670  136.6070 N   0  0  0  0  0  2  0  0  0  0  0  0
  194.0880  176.3840  137.3750 N   0  0  0  0  0  2  0  0  0  0  0  0
  193.2250  175.9870  138.4700 C   0  0  2  0  0  3  0  0  0  0  0  0
  194.0470  175.2670  136.4450 C   0  0  0  0  0  2  0  0  0  0  0  0
  192.3430  174.8760  137.9560 C   0  0  0  0  0  2  0  0  0  0  0  0
  1 26  1  1  0  0  0
  3  7  1  6  0  0  0
  3 16  1  0  0  0  0
  4 23  2  0  0  0  0
  5 11  1  1  0  0  0
  5 15  1  0  0  0  0
  6  7  1  0  0  0  0
  6 19  1  0  0  0  0
  9 27  1  0  0  0  0
 10 17  1  0  0  0  0
 11 20  2  0  0  0  0
 12  8  1  0  0  0  0
 13  9  1  0  0  0  0
 13 20  1  0  0  0  0
 14  2  1  0  0  0  0
 15  4  1  0  0  0  0
 15 12  1  0  0  0  0
 16  8  1  0  0  0  0
 17 25  1  0  0  0  0
 18  1  1  0  0  0  0
 18  4  1  0  0  0  0
 19  5  1  0  0  0  0
 19  3  1  0  0  0  0
 20 18  1  0  0  0  0
 22 10  1  0  0  0  0
 22 24  1  0  0  0  0
 23 21  1  0  0  0  0
 24 13  1  0  0  0  0
 25  9  1  0  0  0  0
 25 14  1  0  0  0  0
 26 21  1  0  0  0  0
 27  2  1  0  0  0  0
 27  1  1  0  0  0  0
 28 17  1  0  0  0  0
 29 28  1  0  0  0  0
 30 34  1  0  0  0  0
 31 32  1  0  0  0  0
 32 29  1  0  0  0  0
 33 30  1  0  0  0  0
 33 31  1  0  0  0  0
 34 32  1  0  0  0  0
M  END
>  <MODEL>
4

>  <REMARK>
 VINA RESULT:      -8.6      3.307      5.597
  Name = 
  3 active torsions:
  status: ('A' for Active; 'I' for Inactive)
    1  A    between atoms: C_17  and  O_28
    2  A    between atoms: O_28  and  C_29
    3  A    between atoms: C_29  and  C_32
                            x       y       z     vdW  Elec       q    Type
                         _______ _______ _______ _____ _____    ______ ____

>  <TORSDO>
F 3

$$$$
=
 OpenBabel11122412233D

 34 41  0  0  1  0  0  0  0  0999 V2000
  186.1980  177.8470  137.5480 C   0  0  1  0  0  3  0  0  0  0  0  0
  184.4010  177.1200  135.9650 C   0  0  0  0  0  2  0  0  0  0  0  0
  187.5520  177.7650  143.7310 C   0  0  1  0  0  3  0  0  0  0  0  0
  187.7410  178.0020  139.6360 C   0  0  0  0  0  0  0  0  0  0  0  0
  186.8420  179.0140  141.7820 C   0  0  2  0  0  3  0  0  0  0  0  0
  185.4290  177.7720  143.5930 C   0  0  0  0  0  2  0  0  0  0  0  0
  186.4300  177.5030  144.7110 C   0  0  0  0  0  2  0  0  0  0  0  0
  189.2890  176.8520  142.1490 C   0  0  0  0  0  2  0  0  0  0  0  0
  183.7260  177.6870  138.2410 C   0  0  1  0  0  3  0  0  0  0  0  0
  181.1390  179.6210  138.2920 C   0  0  0  0  0  2  0  0  0  0  0  0
  185.6670  179.3590  140.9800 N   0  0  0  0  0  2  0  0  0  0  0  0
  189.3640  178.3090  141.6340 C   0  0  0  0  0  2  0  0  0  0  0  0
  184.1020  179.0000  138.9800 C   0  0  2  0  0  3  0  0  0  0  0  0
  182.8930  177.0550  136.0330 C   0  0  0  0  0  2  0  0  0  0  0  0
  188.0890  178.7910  140.8810 C   0  0  1  0  0  3  0  0  0  0  0  0
  188.5880  176.6790  143.5140 C   0  0  0  0  0  2  0  0  0  0  0  0
  181.9330  179.1600  137.0740 C   0  0  1  0  0  3  0  0  0  0  0  0
  186.4380  178.2530  138.9850 C   0  0  0  0  0  0  0  0  0  0  0  0
  186.5700  177.7600  142.5930 C   0  0  2  0  0  3  0  0  0  0  0  0
  185.4420  178.8450  139.6580 C   0  0  0  0  0  0  0  0  0  0  0  0
  188.1790  176.2940  137.9030 C   0  0  0  0  0  2  0  0  0  0  0  0
  182.0250  180.3400  139.2990 C   0  0  0  0  0  2  0  0  0  0  0  0
  188.5890  177.1260  139.0810 C   0  0  0  0  0  3  0  0  0  0  0  0
  183.0080  179.3900  139.9640 C   0  0  0  0  0  2  0  0  0  0  0  0
  182.4870  177.7460  137.3280 C   0  0  2  0  0  3  0  0  0  0  0  0
  187.3940  177.1350  136.8980 C   0  0  0  0  0  2  0  0  0  0  0  0
  184.8750  177.0860  137.4020 C   0  0  2  0  0  3  0  0  0  0  0  0
  181.0820  179.1630  135.9650 O   0  0  0  0  0  0  0  0  0  0  0  0
  179.9140  179.7850  136.4150 C   0  0  0  0  0  2  0  0  0  0  0  0
  179.9980  183.2620  136.1470 N   0  0  0  0  0  2  0  0  0  0  0  0
  180.8060  181.4410  134.8730 N   0  0  0  0  0  2  0  0  0  0  0  0
  179.6030  180.9900  135.5460 C   0  0  2  0  0  3  0  0  0  0  0  0
  180.7640  182.8910  134.9680 C   0  0  0  0  0  2  0  0  0  0  0  0
  179.1300  182.1300  136.4140 C   0  0  0  0  0  2  0  0  0  0  0  0
  1 26  1  1  0  0  0
  1 18  1  0  0  0  0
  2 14  1  0  0  0  0
  2 27  1  0  0  0  0
  3 16  1  6  0  0  0
  3  7  1  0  0  0  0
  4 15  1  0  0  0  0
  5 11  1  6  0  0  0
  5 19  1  0  0  0  0
  6  7  1  0  0  0  0
  8 16  1  0  0  0  0
  9 13  1  0  0  0  0
 10 22  1  0  0  0  0
 12  8  1  0  0  0  0
 13 20  1  0  0  0  0
 13 24  1  0  0  0  0
 14 25  1  0  0  0  0
 15 12  1  0  0  0  0
 15  5  1  0  0  0  0
 17 25  1  0  0  0  0
 17 10  1  0  0  0  0
 18  4  1  0  0  0  0
 18 20  2  0  0  0  0
 19  6  1  0  0  0  0
 19  3  1  0  0  0  0
 20 11  1  0  0  0  0
 21 23  1  0  0  0  0
 22 24  1  0  0  0  0
 23  4  2  0  0  0  0
 25  9  1  0  0  0  0
 26 21  1  0  0  0  0
 27  1  1  0  0  0  0
 27  9  1  0  0  0  0
 28 29  1  0  0  0  0
 28 17  1  0  0  0  0
 30 34  1  0  0  0  0
 31 33  1  0  0  0  0
 31 32  1  0  0  0  0
 32 34  1  0  0  0  0
 32 29  1  0  0  0  0
 33 30  1  0  0  0  0
M  END
>  <MODEL>
5

>  <REMARK>
 VINA RESULT:      -7.3      3.798      9.855
  Name = 
  3 active torsions:
  status: ('A' for Active; 'I' for Inactive)
    1  A    between atoms: C_17  and  O_28
    2  A    between atoms: O_28  and  C_29
    3  A    between atoms: C_29  and  C_32
                            x       y       z     vdW  Elec       q    Type
                         _______ _______ _______ _____ _____    ______ ____

>  <TORSDO>
F 3

$$$$
=
 OpenBabel11122412233D

 34 41  0  0  1  0  0  0  0  0999 V2000
  184.8140  178.2260  138.6490 C   0  0  1  0  0  3  0  0  0  0  0  0
  182.4020  177.5870  138.4550 C   0  0  0  0  0  2  0  0  0  0  0  0
  189.8830  177.0250  142.2450 C   0  0  1  0  0  3  0  0  0  0  0  0
  187.3510  178.1640  139.2200 C   0  0  0  0  0  0  0  0  0  0  0  0
  188.1020  178.5390  141.6150 C   0  0  2  0  0  3  0  0  0  0  0  0
  188.1900  176.7330  143.4980 C   0  0  0  0  0  2  0  0  0  0  0  0
  189.6720  176.3880  143.6000 C   0  0  0  0  0  2  0  0  0  0  0  0
  190.1370  176.7540  139.7520 C   0  0  0  0  0  2  0  0  0  0  0  0
  183.3970  177.5400  140.6830 C   0  0  1  0  0  3  0  0  0  0  0  0
  181.5240  178.9930  142.8780 C   0  0  0  0  0  2  0  0  0  0  0  0
  186.6980  178.8630  141.8730 N   0  0  0  0  0  2  0  0  0  0  0  0
  189.8920  178.2810  139.7150 C   0  0  0  0  0  2  0  0  0  0  0  0
  184.1970  178.7050  141.3250 C   0  0  2  0  0  3  0  0  0  0  0  0
  181.3060  177.2760  139.4480 C   0  0  0  0  0  2  0  0  0  0  0  0
  188.4480  178.7110  140.1080 C   0  0  1  0  0  3  0  0  0  0  0  0
  190.4970  176.1850  141.1410 C   0  0  0  0  0  2  0  0  0  0  0  0
  181.3150  178.9340  141.3680 C   0  0  1  0  0  3  0  0  0  0  0  0
  185.9460  178.3440  139.6450 C   0  0  0  0  0  0  0  0  0  0  0  0
  188.3960  177.1140  142.0440 C   0  0  2  0  0  3  0  0  0  0  0  0
  185.6500  178.6170  140.9230 C   0  0  0  0  0  0  0  0  0  0  0  0
  186.5040  176.9570  137.2350 C   0  0  0  0  0  2  0  0  0  0  0  0
  182.8710  179.6070  143.2330 C   0  0  0  0  0  2  0  0  0  0  0  0
  187.6060  177.5700  138.0470 C   0  0  0  0  0  3  0  0  0  0  0  0
  184.0250  178.6990  142.8380 C   0  0  0  0  0  2  0  0  0  0  0  0
  181.8640  177.6010  140.8260 C   0  0  2  0  0  3  0  0  0  0  0  0
  185.2740  177.8630  137.2280 C   0  0  0  0  0  2  0  0  0  0  0  0
  183.7000  177.3180  139.1850 C   0  0  2  0  0  3  0  0  0  0  0  0
  179.9460  179.0430  141.1070 O   0  0  0  0  0  0  0  0  0  0  0  0
  179.6880  180.4170  141.1330 C   0  0  0  0  0  2  0  0  0  0  0  0
  180.6340  180.9620  137.8200 N   0  0  0  0  0  2  0  0  0  0  0  0
  178.9320  179.7440  138.9220 N   0  0  0  0  0  2  0  0  0  0  0  0
  179.2480  180.8860  139.7580 C   0  0  2  0  0  3  0  0  0  0  0  0
  179.5090  180.0610  137.6260 C   0  0  0  0  0  2  0  0  0  0  0  0
  180.3830  181.6210  139.0890 C   0  0  0  0  0  2  0  0  0  0  0  0
  1 26  1  6  0  0  0
  1 27  1  0  0  0  0
  1 18  1  0  0  0  0
  2 27  1  0  0  0  0
  2 14  1  0  0  0  0
  3 16  1  6  0  0  0
  3  7  1  0  0  0  0
  4 18  1  0  0  0  0
  4 15  1  0  0  0  0
  5 11  1  6  0  0  0
  5 19  1  0  0  0  0
  6  7  1  0  0  0  0
  8 16  1  0  0  0  0
  9 25  1  0  0  0  0
  9 13  1  0  0  0  0
 10 22  1  0  0  0  0
 12  8  1  0  0  0  0
 12 15  1  0  0  0  0
 13 24  1  0  0  0  0
 14 25  1  0  0  0  0
 15  5  1  0  0  0  0
 17 10  1  0  0  0  0
 18 20  2  0  0  0  0
 19  3  1  0  0  0  0
 19  6  1  0  0  0  0
 20 13  1  0  0  0  0
 20 11  1  0  0  0  0
 21 23  1  0  0  0  0
 23  4  2  0  0  0  0
 24 22  1  0  0  0  0
 25 17  1  0  0  0  0
 26 21  1  0  0  0  0
 27  9  1  0  0  0  0
 28 29  1  0  0  0  0
 28 17  1  0  0  0  0
 30 34  1  0  0  0  0
 31 32  1  0  0  0  0
 32 29  1  0  0  0  0
 33 30  1  0  0  0  0
 33 31  1  0  0  0  0
 34 32  1  0  0  0  0
M  END
>  <MODEL>
6

>  <REMARK>
 VINA RESULT:      -7.2      3.318      8.713
  Name = 
  3 active torsions:
  status: ('A' for Active; 'I' for Inactive)
    1  A    between atoms: C_17  and  O_28
    2  A    between atoms: O_28  and  C_29
    3  A    between atoms: C_29  and  C_32
                            x       y       z     vdW  Elec       q    Type
                         _______ _______ _______ _____ _____    ______ ____

>  <TORSDO>
F 3

$$$$
=
 OpenBabel11122412233D

 34 41  0  0  1  0  0  0  0  0999 V2000
  185.5150  176.7750  137.2790 C   0  0  1  0  0  3  0  0  0  0  0  0
  187.9960  176.8290  137.6040 C   0  0  0  0  0  2  0  0  0  0  0  0
  180.5160  180.6560  137.3900 C   0  0  1  0  0  3  0  0  0  0  0  0
  183.0710  177.5030  136.7670 C   0  0  0  0  0  0  0  0  0  0  0  0
  181.8050  178.9070  138.4590 C   0  0  2  0  0  3  0  0  0  0  0  0
  181.9470  181.5020  138.7160 C   0  0  0  0  0  2  0  0  0  0  0  0
  180.6620  182.0000  138.0650 C   0  0  0  0  0  2  0  0  0  0  0  0
  180.8340  179.2280  135.3370 C   0  0  0  0  0  2  0  0  0  0  0  0
  186.6700  178.4630  138.8390 C   0  0  1  0  0  3  0  0  0  0  0  0
  187.5350  178.6270  141.9470 C   0  0  0  0  0  2  0  0  0  0  0  0
  182.9580  178.6730  139.3300 N   0  0  0  0  0  2  0  0  0  0  0  0
  180.5800  178.0480  136.3050 C   0  0  0  0  0  2  0  0  0  0  0  0
  185.4340  178.1270  139.7160 C   0  0  2  0  0  3  0  0  0  0  0  0
  188.9280  177.5870  138.5210 C   0  0  0  0  0  2  0  0  0  0  0  0
  181.7110  177.8210  137.3500 C   0  0  1  0  0  3  0  0  0  0  0  0
  180.4210  180.6150  135.8760 C   0  0  0  0  0  2  0  0  0  0  0  0
  188.0310  177.6430  140.8930 C   0  0  1  0  0  3  0  0  0  0  0  0
  184.2390  177.4840  137.6740 C   0  0  0  0  0  0  0  0  0  0  0  0
  181.9060  180.2790  137.8180 C   0  0  2  0  0  3  0  0  0  0  0  0
  184.1880  178.0980  138.8640 C   0  0  0  0  0  0  0  0  0  0  0  0
  184.6160  176.9720  134.9100 C   0  0  0  0  0  2  0  0  0  0  0  0
  186.0210  178.5710  142.0970 C   0  0  0  0  0  2  0  0  0  0  0  0
  183.2440  177.1910  135.4760 C   0  0  0  0  0  3  0  0  0  0  0  0
  185.3130  179.1160  140.8680 C   0  0  0  0  0  2  0  0  0  0  0  0
  188.0480  178.3310  139.5160 C   0  0  2  0  0  3  0  0  0  0  0  0
  185.4700  176.1530  135.8750 C   0  0  0  0  0  2  0  0  0  0  0  0
  186.7400  177.6670  137.5180 C   0  0  2  0  0  3  0  0  0  0  0  0
  189.3160  177.2250  141.2500 O   0  0  0  0  0  0  0  0  0  0  0  0
  189.1500  176.5650  142.4700 C   0  0  0  0  0  2  0  0  0  0  0  0
  191.6800  178.4550  143.9520 N   0  0  0  0  0  2  0  0  0  0  0  0
  190.2280  176.7210  144.6440 N   0  0  0  0  0  2  0  0  0  0  0  0
  190.4660  176.5360  143.2260 C   0  0  2  0  0  3  0  0  0  0  0  0
  191.2710  177.6340  145.0810 C   0  0  0  0  0  2  0  0  0  0  0  0
  191.3340  177.6840  142.7720 C   0  0  0  0  0  2  0  0  0  0  0  0
  1 26  1  6  0  0  0
  1 27  1  0  0  0  0
  1 18  1  0  0  0  0
  2 14  1  0  0  0  0
  3 16  1  6  0  0  0
  3 19  1  0  0  0  0
  3  7  1  0  0  0  0
  4 15  1  0  0  0  0
  4 18  1  0  0  0  0
  5 11  1  6  0  0  0
  7  6  1  0  0  0  0
  8 16  1  0  0  0  0
  8 12  1  0  0  0  0
  9 25  1  0  0  0  0
  9 13  1  0  0  0  0
 10 22  1  0  0  0  0
 12 15  1  0  0  0  0
 13 24  1  0  0  0  0
 14 25  1  0  0  0  0
 15  5  1  0  0  0  0
 17 28  1  0  0  0  0
 17 10  1  0  0  0  0
 18 20  2  0  0  0  0
 19  5  1  0  0  0  0
 19  6  1  0  0  0  0
 20 11  1  0  0  0  0
 20 13  1  0  0  0  0
 21 23  1  0  0  0  0
 21 26  1  0  0  0  0
 23  4  2  0  0  0  0
 24 22  1  0  0  0  0
 25 17  1  0  0  0  0
 27  2  1  0  0  0  0
 27  9  1  0  0  0  0
 28 29  1  0  0  0  0
 29 32  1  0  0  0  0
 30 33  1  0  0  0  0
 31 33  1  0  0  0  0
 32 31  1  0  0  0  0
 34 32  1  0  0  0  0
 34 30  1  0  0  0  0
M  END
>  <MODEL>
7

>  <REMARK>
 VINA RESULT:      -7.1      2.225      4.978
  Name = 
  3 active torsions:
  status: ('A' for Active; 'I' for Inactive)
    1  A    between atoms: C_17  and  O_28
    2  A    between atoms: O_28  and  C_29
    3  A    between atoms: C_29  and  C_32
                            x       y       z     vdW  Elec       q    Type
                         _______ _______ _______ _____ _____    ______ ____

>  <TORSDO>
F 3

$$$$
=
 OpenBabel11122412233D

 34 41  0  0  1  0  0  0  0  0999 V2000
  185.8980  178.7560  144.4940 C   0  0  1  0  0  3  0  0  0  0  0  0
  188.1040  177.6590  144.9330 C   0  0  0  0  0  2  0  0  0  0  0  0
  180.6600  177.9230  141.0370 C   0  0  1  0  0  3  0  0  0  0  0  0
  183.4080  179.1310  143.8400 C   0  0  0  0  0  0  0  0  0  0  0  0
  182.7430  179.1070  141.3910 C   0  0  2  0  0  3  0  0  0  0  0  0
  182.2340  176.9850  139.9580 C   0  0  0  0  0  2  0  0  0  0  0  0
  180.7120  176.9640  139.8700 C   0  0  0  0  0  2  0  0  0  0  0  0
  180.3720  178.2920  143.5140 C   0  0  0  0  0  2  0  0  0  0  0  0
  187.1070  177.3270  142.7310 C   0  0  1  0  0  3  0  0  0  0  0  0
  189.2430  177.7880  140.3510 C   0  0  0  0  0  2  0  0  0  0  0  0
  184.1820  179.0430  141.1290 N   0  0  0  0  0  0  0  0  0  0  0  0
  180.9560  179.6940  143.2190 C   0  0  0  0  0  2  0  0  0  0  0  0
  186.5860  178.4620  141.8090 C   0  0  2  0  0  3  0  0  0  0  0  0
  189.0930  176.8950  144.0850 C   0  0  0  0  0  2  0  0  0  0  0  0
  182.4560  179.6900  142.8040 C   0  0  1  0  0  3  0  0  0  0  0  0
  179.8810  177.5150  142.2730 C   0  0  0  0  0  2  0  0  0  0  0  0
  189.4450  178.0300  141.8430 C   0  0  1  0  0  3  0  0  0  0  0  0
  184.8140  178.8930  143.4480 C   0  0  2  0  0  3  0  0  0  0  0  0
  182.1300  177.7230  141.2790 C   0  0  2  0  0  3  0  0  0  0  0  0
  185.1540  178.7940  142.1560 C   0  0  0  0  0  0  0  0  0  0  0  0
  183.9760  178.2520  146.0800 C   0  0  0  0  0  2  0  0  0  0  0  0
  188.0680  178.5880  139.8080 C   0  0  0  0  0  2  0  0  0  0  0  0
  183.0350  178.8930  145.1030 C   0  0  0  0  0  3  0  0  0  0  0  0
  186.7410  178.0740  140.3450 C   0  0  0  0  0  2  0  0  0  0  0  0
  188.6130  177.0120  142.6450 C   0  0  2  0  0  3  0  0  0  0  0  0
  185.3790  178.8390  145.9380 C   0  0  0  0  0  2  0  0  0  0  0  0
  186.7730  177.5260  144.2250 C   0  0  2  0  0  3  0  0  0  0  0  0
  190.8050  177.8890  142.1330 O   0  0  0  0  0  0  0  0  0  0  0  0
  191.2310  176.8250  141.3330 C   0  0  0  0  0  2  0  0  0  0  0  0
  193.9630  176.7280  139.1650 N   0  0  0  0  0  2  0  0  0  0  0  0
  191.6280  176.4110  138.9700 N   0  0  0  0  0  2  0  0  0  0  0  0
  191.8400  177.3570  140.0480 C   0  0  2  0  0  3  0  0  0  0  0  0
  192.8900  176.3780  138.2490 C   0  0  0  0  0  2  0  0  0  0  0  0
  193.3320  177.5020  140.2180 C   0  0  0  0  0  2  0  0  0  0  0  0
  1 26  1  1  0  0  0
  3  7  1  6  0  0  0
  3 19  1  0  0  0  0
  3 16  1  0  0  0  0
  4 23  2  0  0  0  0
  5 11  1  1  0  0  0
  5 15  1  0  0  0  0
  6 19  1  0  0  0  0
  7  6  1  0  0  0  0
  9 27  1  0  0  0  0
 10 17  1  0  0  0  0
 11 20  2  0  0  0  0
 12  8  1  0  0  0  0
 13 20  1  0  0  0  0
 13  9  1  0  0  0  0
 14  2  1  0  0  0  0
 15 12  1  0  0  0  0
 15  4  1  0  0  0  0
 16  8  1  0  0  0  0
 17 28  1  0  0  0  0
 17 25  1  0  0  0  0
 18  4  1  0  0  0  0
 18  1  1  0  0  0  0
 19  5  1  0  0  0  0
 20 18  1  0  0  0  0
 22 24  1  0  0  0  0
 22 10  1  0  0  0  0
 23 21  1  0  0  0  0
 24 13  1  0  0  0  0
 25  9  1  0  0  0  0
 25 14  1  0  0  0  0
 26 21  1  0  0  0  0
 27  1  1  0  0  0  0
 27  2  1  0  0  0  0
 29 28  1  0  0  0  0
 30 34  1  0  0  0  0
 31 32  1  0  0  0  0
 32 34  1  0  0  0  0
 32 29  1  0  0  0  0
 33 31  1  0  0  0  0
 33 30  1  0  0  0  0
M  END
>  <MODEL>
8

>  <REMARK>
 VINA RESULT:      -7.1      3.075      4.469
  Name = 
  3 active torsions:
  status: ('A' for Active; 'I' for Inactive)
    1  A    between atoms: C_17  and  O_28
    2  A    between atoms: O_28  and  C_29
    3  A    between atoms: C_29  and  C_32
                            x       y       z     vdW  Elec       q    Type
                         _______ _______ _______ _____ _____    ______ ____

>  <TORSDO>
F 3

$$$$
=
 OpenBabel11122412233D

 34 41  0  0  1  0  0  0  0  0999 V2000
  185.7990  177.1540  138.1350 C   0  0  1  0  0  3  0  0  0  0  0  0
  187.9120  177.7180  139.3530 C   0  0  0  0  0  2  0  0  0  0  0  0
  180.2160  179.7360  136.6390 C   0  0  1  0  0  3  0  0  0  0  0  0
  183.5750  177.3800  136.8050 C   0  0  0  0  0  0  0  0  0  0  0  0
  181.4830  178.1820  137.9960 C   0  0  2  0  0  3  0  0  0  0  0  0
  180.8310  180.6690  138.4490 C   0  0  0  0  0  2  0  0  0  0  0  0
  179.7590  180.9580  137.4030 C   0  0  0  0  0  2  0  0  0  0  0  0
  181.5820  178.7530  134.7620 C   0  0  0  0  0  2  0  0  0  0  0  0
  185.8590  178.7980  140.1120 C   0  0  1  0  0  3  0  0  0  0  0  0
  185.5390  178.6710  143.3240 C   0  0  0  0  0  2  0  0  0  0  0  0
  182.2890  178.0820  139.2140 N   0  0  0  0  0  2  0  0  0  0  0  0
  181.3400  177.4110  135.4930 C   0  0  0  0  0  2  0  0  0  0  0  0
  184.5370  178.0590  140.4500 C   0  0  2  0  0  3  0  0  0  0  0  0
  188.2370  178.5170  140.5940 C   0  0  0  0  0  2  0  0  0  0  0  0
  182.0650  177.2870  136.8650 C   0  0  1  0  0  3  0  0  0  0  0  0
  180.6560  179.9100  135.1980 C   0  0  0  0  0  2  0  0  0  0  0  0
  186.6070  177.9990  142.4670 C   0  0  1  0  0  3  0  0  0  0  0  0
  184.3250  177.4860  138.0750 C   0  0  0  0  0  0  0  0  0  0  0  0
  181.4260  179.6230  137.5250 C   0  0  2  0  0  3  0  0  0  0  0  0
  183.7100  177.8800  139.1980 C   0  0  0  0  0  0  0  0  0  0  0  0
  185.7410  177.5060  135.6180 C   0  0  0  0  0  2  0  0  0  0  0  0
  184.1380  178.2510  142.9030 C   0  0  0  0  0  2  0  0  0  0  0  0
  184.2520  177.3190  135.6510 C   0  0  0  0  0  3  0  0  0  0  0  0
  183.7710  178.8040  141.5350 C   0  0  0  0  0  2  0  0  0  0  0  0
  186.9070  178.8780  141.2390 C   0  0  2  0  0  3  0  0  0  0  0  0
  186.4020  176.7630  136.7770 C   0  0  0  0  0  2  0  0  0  0  0  0
  186.5840  178.2530  138.8620 C   0  0  2  0  0  3  0  0  0  0  0  0
  187.7570  177.8340  143.2450 O   0  0  0  0  0  0  0  0  0  0  0  0
  187.2950  177.3140  144.4570 C   0  0  0  0  0  2  0  0  0  0  0  0
  187.9570  177.1970  147.8800 N   0  0  0  0  0  2  0  0  0  0  0  0
  189.2420  177.1010  145.8970 N   0  0  0  0  0  2  0  0  0  0  0  0
  188.0770  177.9150  145.6100 C   0  0  2  0  0  3  0  0  0  0  0  0
  189.3000  177.0330  147.3480 C   0  0  0  0  0  2  0  0  0  0  0  0
  187.2230  177.9160  146.8540 C   0  0  0  0  0  2  0  0  0  0  0  0
  1 26  1  6  0  0  0
  1 27  1  0  0  0  0
  2 14  1  0  0  0  0
  3 16  1  6  0  0  0
  3  7  1  0  0  0  0
  3 19  1  0  0  0  0
  4 15  1  0  0  0  0
  4 18  1  0  0  0  0
  5 11  1  1  0  0  0
  7  6  1  0  0  0  0
  8 16  1  0  0  0  0
  8 12  1  0  0  0  0
  9 13  1  0  0  0  0
  9 25  1  0  0  0  0
 12 15  1  0  0  0  0
 13 24  1  0  0  0  0
 14 25  1  0  0  0  0
 15  5  1  0  0  0  0
 17 28  1  0  0  0  0
 17 10  1  0  0  0  0
 18  1  1  0  0  0  0
 18 20  2  0  0  0  0
 19  5  1  0  0  0  0
 19  6  1  0  0  0  0
 20 11  1  0  0  0  0
 20 13  1  0  0  0  0
 21 23  1  0  0  0  0
 21 26  1  0  0  0  0
 22 10  1  0  0  0  0
 23  4  2  0  0  0  0
 24 22  1  0  0  0  0
 25 17  1  0  0  0  0
 27  2  1  0  0  0  0
 27  9  1  0  0  0  0
 28 29  1  0  0  0  0
 29 32  1  0  0  0  0
 31 33  1  0  0  0  0
 32 31  1  0  0  0  0
 32 34  1  0  0  0  0
 33 30  1  0  0  0  0
 34 30  1  0  0  0  0
M  END
>  <MODEL>
9

>  <REMARK>
 VINA RESULT:      -7.1      2.034      4.818
  Name = 
  3 active torsions:
  status: ('A' for Active; 'I' for Inactive)
    1  A    between atoms: C_17  and  O_28
    2  A    between atoms: O_28  and  C_29
    3  A    between atoms: C_29  and  C_32
                            x       y       z     vdW  Elec       q    Type
                         _______ _______ _______ _____ _____    ______ ____

>  <TORSDO>
F 3

$$$$
