=
 OpenBabel11122411143D

 31 35  0  0  1  0  0  0  0  0999 V2000
  190.5810  176.7410  136.2580 C   0  0  0  0  0  0  0  0  0  0  0  0
  188.1240  178.3410  138.6820 C   0  0  2  0  0  3  0  0  0  0  0  0
  186.7640  177.7050  138.4300 C   0  0  0  0  0  0  0  0  0  0  0  0
  185.1980  176.3940  137.0770 C   0  0  0  0  0  0  0  0  0  0  0  0
  189.2860  177.5280  138.1570 C   0  0  0  0  0  0  0  0  0  0  0  0
  191.3680  175.9650  137.1110 C   0  0  0  0  0  3  0  0  0  0  0  0
  186.5450  176.9140  137.3670 C   0  0  0  0  0  3  0  0  0  0  0  0
  188.6170  177.4010  140.9650 C   0  0  2  0  0  3  0  0  0  0  0  0
  190.8200  176.7370  134.9260 F   0  0  0  0  0  0  0  0  0  0  0  0
  185.7900  178.8990  140.3330 C   0  0  0  0  0  3  0  0  0  0  0  0
  185.0150  175.6250  136.0990 O   0  0  0  0  0  0  0  0  0  0  0  0
  189.9520  176.8210  140.5110 C   0  0  0  0  0  2  0  0  0  0  0  0
  188.3040  178.6810  140.1750 C   0  0  2  0  0  3  0  0  0  0  0  0
  189.5460  177.5210  136.7800 C   0  0  0  0  0  3  0  0  0  0  0  0
  184.0640  176.7890  137.9290 C   0  0  0  0  0  3  0  0  0  0  0  0
  190.0860  176.7430  139.0170 C   0  0  0  0  0  0  0  0  0  0  0  0
  191.1270  175.9740  138.4870 C   0  0  0  0  0  3  0  0  0  0  0  0
  187.1030  179.3350  140.6970 N   0  0  0  0  0  2  0  0  0  0  0  0
  185.6110  178.0930  139.2880 C   0  0  0  0  0  0  0  0  0  0  0  0
  184.2590  177.5970  138.9740 C   0  0  0  0  0  3  0  0  0  0  0  0
  188.0600  175.5320  143.0310 O   0  0  0  0  0  0  0  0  0  0  0  0
  188.3600  176.7060  143.3850 C   0  0  0  0  0  0  0  0  0  0  0  0
  188.6890  177.6820  142.3920 N   0  0  0  0  0  2  0  0  0  0  0  0
  188.3400  177.7890  147.5360 C   0  0  0  0  0  0  0  0  0  0  0  0
  187.1800  177.4460  145.4420 C   0  0  0  0  0  3  0  0  0  0  0  0
  190.7590  176.7140  145.0230 F   0  0  0  0  0  0  0  0  0  0  0  0
  188.3190  178.1670  148.9730 C   0  0  0  0  0  1  0  0  0  0  0  0
  187.1600  177.8020  146.7930 C   0  0  0  0  0  3  0  0  0  0  0  0
  189.5710  177.0660  145.5770 C   0  0  0  0  0  0  0  0  0  0  0  0
  188.3810  177.0760  144.8170 C   0  0  0  0  0  0  0  0  0  0  0  0
  189.5420  177.4220  146.9280 C   0  0  0  0  0  3  0  0  0  0  0  0
  1 14  2  0  0  0  0
  1  6  1  0  0  0  0
  2  5  1  1  0  0  0
  2 13  1  0  0  0  0
  3  2  1  0  0  0  0
  3 19  1  0  0  0  0
  4  7  1  0  0  0  0
  4 15  1  0  0  0  0
  5 16  2  0  0  0  0
  6 17  2  0  0  0  0
  7  3  2  0  0  0  0
  8 23  1  1  0  0  0
  9  1  1  0  0  0  0
 10 18  1  0  0  0  0
 11  4  2  0  0  0  0
 12  8  1  0  0  0  0
 13 18  1  1  0  0  0
 13  8  1  0  0  0  0
 14  5  1  0  0  0  0
 15 20  2  0  0  0  0
 16 12  1  0  0  0  0
 17 16  1  0  0  0  0
 19 10  2  0  0  0  0
 20 19  1  0  0  0  0
 21 22  2  0  0  0  0
 22 30  1  0  0  0  0
 23 22  1  0  0  0  0
 24 27  1  0  0  0  0
 25 28  1  0  0  0  0
 26 29  1  0  0  0  0
 28 24  2  0  0  0  0
 29 31  2  0  0  0  0
 30 25  2  0  0  0  0
 30 29  1  0  0  0  0
 31 24  1  0  0  0  0
M  END
>  <MODEL>
1

>  <REMARK>
 VINA RESULT:      -8.8      0.000      0.000
  Name = 
  2 active torsions:
  status: ('A' for Active; 'I' for Inactive)
    1  A    between atoms: C_5  and  C_30
    2  A    between atoms: C_10  and  N_16
                            x       y       z     vdW  Elec       q    Type
                         _______ _______ _______ _____ _____    ______ ____

>  <TORSDO>
F 2

$$$$
=
 OpenBabel11122411143D

 31 35  0  0  1  0  0  0  0  0999 V2000
  187.9270  178.1260  136.0480 C   0  0  0  0  0  0  0  0  0  0  0  0
  185.6080  178.6760  139.0140 C   0  0  2  0  0  3  0  0  0  0  0  0
  184.5260  177.6090  138.9420 C   0  0  0  0  0  0  0  0  0  0  0  0
  183.2630  175.8720  137.7630 C   0  0  0  0  0  0  0  0  0  0  0  0
  186.8480  178.3440  138.2140 C   0  0  0  0  0  0  0  0  0  0  0  0
  189.0850  177.6520  136.6680 C   0  0  0  0  0  3  0  0  0  0  0  0
  184.3810  176.8260  137.8620 C   0  0  0  0  0  3  0  0  0  0  0  0
  186.8370  177.9000  141.0690 C   0  0  2  0  0  3  0  0  0  0  0  0
  187.8820  178.2490  134.7010 F   0  0  0  0  0  0  0  0  0  0  0  0
  183.6040  178.3210  141.0970 C   0  0  0  0  0  3  0  0  0  0  0  0
  183.1620  175.1190  136.7600 O   0  0  0  0  0  0  0  0  0  0  0  0
  188.1710  177.8440  140.3320 C   0  0  0  0  0  2  0  0  0  0  0  0
  185.9560  179.0110  140.4780 C   0  0  2  0  0  3  0  0  0  0  0  0
  186.8140  178.4720  136.8190 C   0  0  0  0  0  3  0  0  0  0  0  0
  182.2570  175.8130  138.8360 C   0  0  0  0  0  3  0  0  0  0  0  0
  188.0230  177.8650  138.8380 C   0  0  0  0  0  0  0  0  0  0  0  0
  189.1350  177.5310  138.0580 C   0  0  0  0  0  3  0  0  0  0  0  0
  184.7350  179.1820  141.2660 N   0  0  0  0  0  2  0  0  0  0  0  0
  183.5050  177.5370  140.0250 C   0  0  0  0  0  0  0  0  0  0  0  0
  182.3690  176.6060  139.9050 C   0  0  0  0  0  3  0  0  0  0  0  0
  187.9470  176.0130  142.8800 O   0  0  0  0  0  0  0  0  0  0  0  0
  187.6210  177.1370  143.3510 C   0  0  0  0  0  0  0  0  0  0  0  0
  187.0930  178.1440  142.4820 N   0  0  0  0  0  2  0  0  0  0  0  0
  188.1840  177.9560  147.5250 C   0  0  0  0  0  0  0  0  0  0  0  0
  189.0650  177.3190  145.3660 C   0  0  0  0  0  3  0  0  0  0  0  0
  185.4470  177.9220  145.1110 F   0  0  0  0  0  0  0  0  0  0  0  0
  188.3930  178.2360  148.9690 C   0  0  0  0  0  1  0  0  0  0  0  0
  189.2620  177.5820  146.7230 C   0  0  0  0  0  3  0  0  0  0  0  0
  186.7020  177.8030  145.6130 C   0  0  0  0  0  0  0  0  0  0  0  0
  187.7880  177.4240  144.7930 C   0  0  0  0  0  0  0  0  0  0  0  0
  186.9080  178.0660  146.9700 C   0  0  0  0  0  3  0  0  0  0  0  0
  1  6  2  0  0  0  0
  1 14  1  0  0  0  0
  2  5  1  6  0  0  0
  2 13  1  0  0  0  0
  3  2  1  0  0  0  0
  3 19  1  0  0  0  0
  4  7  1  0  0  0  0
  4 15  1  0  0  0  0
  5 16  1  0  0  0  0
  6 17  1  0  0  0  0
  7  3  2  0  0  0  0
  8 23  1  1  0  0  0
  9  1  1  0  0  0  0
 10 18  1  0  0  0  0
 11  4  2  0  0  0  0
 12  8  1  0  0  0  0
 13  8  1  0  0  0  0
 13 18  1  1  0  0  0
 14  5  2  0  0  0  0
 15 20  2  0  0  0  0
 16 12  1  0  0  0  0
 17 16  2  0  0  0  0
 19 10  2  0  0  0  0
 20 19  1  0  0  0  0
 21 22  2  0  0  0  0
 22 30  1  0  0  0  0
 23 22  1  0  0  0  0
 24 27  1  0  0  0  0
 25 28  1  0  0  0  0
 26 29  1  0  0  0  0
 28 24  2  0  0  0  0
 29 31  2  0  0  0  0
 30 25  2  0  0  0  0
 30 29  1  0  0  0  0
 31 24  1  0  0  0  0
M  END
>  <MODEL>
2

>  <REMARK>
 VINA RESULT:      -8.8      1.675      2.408
  Name = 
  2 active torsions:
  status: ('A' for Active; 'I' for Inactive)
    1  A    between atoms: C_5  and  C_30
    2  A    between atoms: C_10  and  N_16
                            x       y       z     vdW  Elec       q    Type
                         _______ _______ _______ _____ _____    ______ ____

>  <TORSDO>
F 2

$$$$
=
 OpenBabel11122411143D

 31 35  0  0  1  0  0  0  0  0999 V2000
  192.7460  176.2990  136.6970 C   0  0  0  0  0  0  0  0  0  0  0  0
  189.2810  177.5440  137.6540 C   0  0  2  0  0  3  0  0  0  0  0  0
  188.2750  176.5400  137.1090 C   0  0  0  0  0  0  0  0  0  0  0  0
  187.6430  174.6690  135.6600 C   0  0  0  0  0  0  0  0  0  0  0  0
  190.6860  176.9970  137.7780 C   0  0  0  0  0  0  0  0  0  0  0  0
  193.2630  175.9000  137.9300 C   0  0  0  0  0  3  0  0  0  0  0  0
  188.6440  175.5660  136.2620 C   0  0  0  0  0  3  0  0  0  0  0  0
  189.0010  177.1310  140.1220 C   0  0  2  0  0  3  0  0  0  0  0  0
  193.4860  176.1530  135.5730 F   0  0  0  0  0  0  0  0  0  0  0  0
  186.4260  177.7110  138.2070 C   0  0  0  0  0  3  0  0  0  0  0  0
  188.0080  173.7380  134.8970 O   0  0  0  0  0  0  0  0  0  0  0  0
  190.4900  176.8630  140.3140 C   0  0  0  0  0  2  0  0  0  0  0  0
  188.7920  178.1450  138.9870 C   0  0  2  0  0  3  0  0  0  0  0  0
  191.4630  176.8470  136.6220 C   0  0  0  0  0  3  0  0  0  0  0  0
  186.2130  174.8760  135.9430 C   0  0  0  0  0  3  0  0  0  0  0  0
  191.2140  176.5940  139.0260 C   0  0  0  0  0  0  0  0  0  0  0  0
  192.5030  176.0560  139.0920 C   0  0  0  0  0  3  0  0  0  0  0  0
  187.3840  178.5300  138.8860 N   0  0  0  0  0  2  0  0  0  0  0  0
  186.8270  176.7360  137.3940 C   0  0  0  0  0  0  0  0  0  0  0  0
  185.8260  175.8580  136.7610 C   0  0  0  0  0  3  0  0  0  0  0  0
  188.8150  175.6570  142.5430 O   0  0  0  0  0  0  0  0  0  0  0  0
  188.3520  176.8310  142.5500 C   0  0  0  0  0  0  0  0  0  0  0  0
  188.4520  177.6380  141.3720 N   0  0  0  0  0  2  0  0  0  0  0  0
  186.4370  178.4360  146.0370 C   0  0  0  0  0  0  0  0  0  0  0  0
  186.3990  177.8590  143.6900 C   0  0  0  0  0  3  0  0  0  0  0  0
  189.6630  176.9850  145.1370 F   0  0  0  0  0  0  0  0  0  0  0  0
  185.7620  178.9950  147.2370 C   0  0  0  0  0  1  0  0  0  0  0  0
  185.7640  178.3850  144.8170 C   0  0  0  0  0  3  0  0  0  0  0  0
  188.3900  177.4360  145.0060 C   0  0  0  0  0  0  0  0  0  0  0  0
  187.7160  177.3800  143.7670 C   0  0  0  0  0  0  0  0  0  0  0  0
  187.7480  177.9630  146.1300 C   0  0  0  0  0  3  0  0  0  0  0  0
  1  6  1  0  0  0  0
  2  3  1  1  0  0  0
  2  5  1  0  0  0  0
  2 13  1  0  0  0  0
  3 19  1  0  0  0  0
  4 15  1  0  0  0  0
  4  7  1  0  0  0  0
  5 16  2  0  0  0  0
  6 17  2  0  0  0  0
  7  3  2  0  0  0  0
  8 12  1  0  0  0  0
  8 23  1  1  0  0  0
  9  1  1  0  0  0  0
 10 18  1  0  0  0  0
 11  4  2  0  0  0  0
 13 18  1  6  0  0  0
 13  8  1  0  0  0  0
 14  1  2  0  0  0  0
 14  5  1  0  0  0  0
 15 20  2  0  0  0  0
 16 17  1  0  0  0  0
 16 12  1  0  0  0  0
 19 10  2  0  0  0  0
 20 19  1  0  0  0  0
 21 22  2  0  0  0  0
 22 30  1  0  0  0  0
 23 22  1  0  0  0  0
 24 31  1  0  0  0  0
 24 27  1  0  0  0  0
 25 30  2  0  0  0  0
 25 28  1  0  0  0  0
 28 24  2  0  0  0  0
 29 26  1  0  0  0  0
 29 31  2  0  0  0  0
 30 29  1  0  0  0  0
M  END
>  <MODEL>
3

>  <REMARK>
 VINA RESULT:      -8.4      1.612      2.194
  Name = 
  2 active torsions:
  status: ('A' for Active; 'I' for Inactive)
    1  A    between atoms: C_5  and  C_30
    2  A    between atoms: C_10  and  N_16
                            x       y       z     vdW  Elec       q    Type
                         _______ _______ _______ _____ _____    ______ ____

>  <TORSDO>
F 2

$$$$
=
 OpenBabel11122411143D

 31 35  0  0  1  0  0  0  0  0999 V2000
  190.1490  175.9230  142.8300 C   0  0  0  0  0  0  0  0  0  0  0  0
  186.7050  177.0460  143.9910 C   0  0  2  0  0  3  0  0  0  0  0  0
  186.8970  177.8160  145.2900 C   0  0  0  0  0  0  0  0  0  0  0  0
  188.2170  178.4860  147.2430 C   0  0  0  0  0  0  0  0  0  0  0  0
  187.9630  176.9290  143.1590 C   0  0  0  0  0  0  0  0  0  0  0  0
  190.3570  176.7320  141.7110 C   0  0  0  0  0  3  0  0  0  0  0  0
  188.0760  177.8270  145.9330 C   0  0  0  0  0  3  0  0  0  0  0  0
  185.9910  178.9300  142.4810 C   0  0  2  0  0  3  0  0  0  0  0  0
  191.1050  175.0470  143.2190 F   0  0  0  0  0  0  0  0  0  0  0  0
  184.5250  178.4200  145.3480 C   0  0  0  0  0  3  0  0  0  0  0  0
  189.3360  178.5190  147.8150 O   0  0  0  0  0  0  0  0  0  0  0  0
  187.0940  178.6280  141.4720 C   0  0  0  0  0  2  0  0  0  0  0  0
  185.5400  177.6340  143.1700 C   0  0  2  0  0  3  0  0  0  0  0  0
  188.9560  176.0200  143.5490 C   0  0  0  0  0  3  0  0  0  0  0  0
  187.0390  179.0930  147.8850 C   0  0  0  0  0  3  0  0  0  0  0  0
  188.1760  177.7440  142.0240 C   0  0  0  0  0  0  0  0  0  0  0  0
  189.3690  177.6320  141.3040 C   0  0  0  0  0  3  0  0  0  0  0  0
  184.3820  177.8780  144.0320 N   0  0  0  0  0  2  0  0  0  0  0  0
  185.7140  178.4390  145.9460 C   0  0  0  0  0  0  0  0  0  0  0  0
  185.8530  179.0670  147.2730 C   0  0  0  0  0  3  0  0  0  0  0  0
  184.1540  177.5790  140.7890 O   0  0  0  0  0  0  0  0  0  0  0  0
  184.0070  178.8260  140.9140 C   0  0  0  0  0  0  0  0  0  0  0  0
  184.8780  179.5570  141.7840 N   0  0  0  0  0  2  0  0  0  0  0  0
  180.9650  180.9090  138.7210 C   0  0  0  0  0  0  0  0  0  0  0  0
  183.2840  180.3210  139.0660 C   0  0  0  0  0  3  0  0  0  0  0  0
  181.1910  178.6960  141.6140 F   0  0  0  0  0  0  0  0  0  0  0  0
  179.9220  181.6370  137.9520 C   0  0  0  0  0  1  0  0  0  0  0  0
  182.3040  181.0050  138.3440 C   0  0  0  0  0  3  0  0  0  0  0  0
  181.5800  179.4430  140.5510 C   0  0  0  0  0  0  0  0  0  0  0  0
  182.9390  179.5350  140.1760 C   0  0  0  0  0  0  0  0  0  0  0  0
  180.6050  180.1300  139.8220 C   0  0  0  0  0  3  0  0  0  0  0  0
  1  9  1  0  0  0  0
  1 14  1  0  0  0  0
  2  5  1  6  0  0  0
  2  3  1  0  0  0  0
  3  7  2  0  0  0  0
  3 19  1  0  0  0  0
  4 11  2  0  0  0  0
  4 15  1  0  0  0  0
  5 14  2  0  0  0  0
  6  1  2  0  0  0  0
  7  4  1  0  0  0  0
  8 23  1  6  0  0  0
  8 13  1  0  0  0  0
 10 19  2  0  0  0  0
 12 16  1  0  0  0  0
 12  8  1  0  0  0  0
 13  2  1  0  0  0  0
 13 18  1  1  0  0  0
 16  5  1  0  0  0  0
 17  6  1  0  0  0  0
 17 16  2  0  0  0  0
 18 10  1  0  0  0  0
 19 20  1  0  0  0  0
 20 15  2  0  0  0  0
 21 22  2  0  0  0  0
 22 23  1  0  0  0  0
 24 31  1  0  0  0  0
 25 30  2  0  0  0  0
 27 24  1  0  0  0  0
 28 24  2  0  0  0  0
 28 25  1  0  0  0  0
 29 26  1  0  0  0  0
 30 29  1  0  0  0  0
 30 22  1  0  0  0  0
 31 29  2  0  0  0  0
M  END
>  <MODEL>
4

>  <REMARK>
 VINA RESULT:      -7.6      3.460      7.998
  Name = 
  2 active torsions:
  status: ('A' for Active; 'I' for Inactive)
    1  A    between atoms: C_5  and  C_30
    2  A    between atoms: C_10  and  N_16
                            x       y       z     vdW  Elec       q    Type
                         _______ _______ _______ _____ _____    ______ ____

>  <TORSDO>
F 2

$$$$
=
 OpenBabel11122411143D

 31 35  0  0  1  0  0  0  0  0999 V2000
  188.2000  177.6680  135.8560 C   0  0  0  0  0  0  0  0  0  0  0  0
  187.3760  178.7760  139.4010 C   0  0  2  0  0  3  0  0  0  0  0  0
  185.9670  178.2900  139.7080 C   0  0  0  0  0  0  0  0  0  0  0  0
  183.7760  177.4210  139.0400 C   0  0  0  0  0  0  0  0  0  0  0  0
  188.0350  178.0500  138.2490 C   0  0  0  0  0  0  0  0  0  0  0  0
  189.1520  176.6710  136.0760 C   0  0  0  0  0  3  0  0  0  0  0  0
  185.1730  177.7860  138.7500 C   0  0  0  0  0  3  0  0  0  0  0  0
  188.6860  177.2970  140.9620 C   0  0  2  0  0  3  0  0  0  0  0  0
  187.8110  177.9660  134.5940 F   0  0  0  0  0  0  0  0  0  0  0  0
  186.1510  179.0490  142.0290 C   0  0  0  0  0  3  0  0  0  0  0  0
  183.0550  176.9160  138.1410 O   0  0  0  0  0  0  0  0  0  0  0  0
  189.5660  176.7710  139.8330 C   0  0  0  0  0  2  0  0  0  0  0  0
  188.2580  178.7420  140.6650 C   0  0  2  0  0  3  0  0  0  0  0  0
  187.6450  178.3550  136.9380 C   0  0  0  0  0  3  0  0  0  0  0  0
  183.2220  177.6620  140.3830 C   0  0  0  0  0  3  0  0  0  0  0  0
  189.0020  177.0420  138.4680 C   0  0  0  0  0  0  0  0  0  0  0  0
  189.5590  176.3660  137.3770 C   0  0  0  0  0  3  0  0  0  0  0  0
  187.5390  179.3170  141.8030 N   0  0  0  0  0  2  0  0  0  0  0  0
  185.3980  178.5240  141.0640 C   0  0  0  0  0  0  0  0  0  0  0  0
  183.9890  178.1900  141.3400 C   0  0  0  0  0  3  0  0  0  0  0  0
  187.7380  176.1360  143.3750 O   0  0  0  0  0  0  0  0  0  0  0  0
  188.8850  176.6620  143.4040 C   0  0  0  0  0  0  0  0  0  0  0  0
  189.4340  177.2290  142.2100 N   0  0  0  0  0  2  0  0  0  0  0  0
  191.2210  176.7230  147.0020 C   0  0  0  0  0  0  0  0  0  0  0  0
  191.0260  176.3420  144.6220 C   0  0  0  0  0  3  0  0  0  0  0  0
  187.7820  177.4070  145.9860 F   0  0  0  0  0  0  0  0  0  0  0  0
  192.0410  176.7390  148.2410 C   0  0  0  0  0  1  0  0  0  0  0  0
  191.7980  176.3570  145.7860 C   0  0  0  0  0  3  0  0  0  0  0  0
  189.0900  177.0590  145.8940 C   0  0  0  0  0  0  0  0  0  0  0  0
  189.6670  176.6900  144.6590 C   0  0  0  0  0  0  0  0  0  0  0  0
  189.8700  177.0720  147.0540 C   0  0  0  0  0  3  0  0  0  0  0  0
  1  6  2  0  0  0  0
  1 14  1  0  0  0  0
  2  5  1  6  0  0  0
  2  3  1  0  0  0  0
  2 13  1  0  0  0  0
  3 19  1  0  0  0  0
  4 15  1  0  0  0  0
  5 16  1  0  0  0  0
  6 17  1  0  0  0  0
  7  4  1  0  0  0  0
  7  3  2  0  0  0  0
  8 23  1  1  0  0  0
  9  1  1  0  0  0  0
 11  4  2  0  0  0  0
 12  8  1  0  0  0  0
 13  8  1  0  0  0  0
 13 18  1  1  0  0  0
 14  5  2  0  0  0  0
 15 20  2  0  0  0  0
 16 12  1  0  0  0  0
 17 16  2  0  0  0  0
 18 10  1  0  0  0  0
 19 20  1  0  0  0  0
 19 10  2  0  0  0  0
 21 22  2  0  0  0  0
 22 30  1  0  0  0  0
 23 22  1  0  0  0  0
 24 31  1  0  0  0  0
 24 27  1  0  0  0  0
 25 30  2  0  0  0  0
 25 28  1  0  0  0  0
 28 24  2  0  0  0  0
 29 26  1  0  0  0  0
 29 31  2  0  0  0  0
 30 29  1  0  0  0  0
M  END
>  <MODEL>
5

>  <REMARK>
 VINA RESULT:      -7.5      1.624      2.303
  Name = 
  2 active torsions:
  status: ('A' for Active; 'I' for Inactive)
    1  A    between atoms: C_5  and  C_30
    2  A    between atoms: C_10  and  N_16
                            x       y       z     vdW  Elec       q    Type
                         _______ _______ _______ _____ _____    ______ ____

>  <TORSDO>
F 2

$$$$
=
 OpenBabel11122411143D

 31 35  0  0  1  0  0  0  0  0999 V2000
  191.6120  178.1930  144.1440 C   0  0  0  0  0  0  0  0  0  0  0  0
  188.9410  178.6530  141.4740 C   0  0  2  0  0  3  0  0  0  0  0  0
  189.2830  177.7110  140.3280 C   0  0  0  0  0  0  0  0  0  0  0  0
  190.8180  176.2410  139.1110 C   0  0  0  0  0  0  0  0  0  0  0  0
  189.6010  178.2860  142.7850 C   0  0  0  0  0  0  0  0  0  0  0  0
  190.9030  177.5440  145.1560 C   0  0  0  0  0  3  0  0  0  0  0  0
  190.4580  177.0640  140.2780 C   0  0  0  0  0  3  0  0  0  0  0  0
  186.8450  177.5470  142.3240 C   0  0  2  0  0  3  0  0  0  0  0  0
  192.9290  178.4610  144.3050 F   0  0  0  0  0  0  0  0  0  0  0  0
  187.2040  178.2790  139.1670 C   0  0  0  0  0  3  0  0  0  0  0  0
  191.9080  175.6120  139.0940 O   0  0  0  0  0  0  0  0  0  0  0  0
  187.3980  177.4380  143.7410 C   0  0  0  0  0  2  0  0  0  0  0  0
  187.4140  178.7950  141.6330 C   0  0  2  0  0  3  0  0  0  0  0  0
  190.9620  178.5640  142.9640 C   0  0  0  0  0  3  0  0  0  0  0  0
  189.9050  176.1690  137.9580 C   0  0  0  0  0  3  0  0  0  0  0  0
  188.8850  177.6310  143.8130 C   0  0  0  0  0  0  0  0  0  0  0  0
  189.5420  177.2730  144.9950 C   0  0  0  0  0  3  0  0  0  0  0  0
  186.7830  179.0010  140.3280 N   0  0  0  0  0  2  0  0  0  0  0  0
  188.3640  177.6260  139.1600 C   0  0  0  0  0  0  0  0  0  0  0  0
  188.7450  176.8290  137.9790 C   0  0  0  0  0  3  0  0  0  0  0  0
  185.3540  179.7610  143.2950 O   0  0  0  0  0  0  0  0  0  0  0  0
  184.7000  178.7460  142.9270 C   0  0  0  0  0  0  0  0  0  0  0  0
  185.3920  177.6140  142.3910 N   0  0  0  0  0  2  0  0  0  0  0  0
  180.4170  178.6690  143.1660 C   0  0  0  0  0  0  0  0  0  0  0  0
  182.4550  178.6320  141.8670 C   0  0  0  0  0  3  0  0  0  0  0  0
  183.2600  178.8720  145.4460 F   0  0  0  0  0  0  0  0  0  0  0  0
  178.9330  178.6410  143.2350 C   0  0  0  0  0  1  0  0  0  0  0  0
  181.0610  178.6060  141.9310 C   0  0  0  0  0  3  0  0  0  0  0  0
  182.5650  178.7850  144.2840 C   0  0  0  0  0  0  0  0  0  0  0  0
  183.2250  178.7230  143.0370 C   0  0  0  0  0  0  0  0  0  0  0  0
  181.1690  178.7580  144.3400 C   0  0  0  0  0  3  0  0  0  0  0  0
  1  9  1  0  0  0  0
  1  6  1  0  0  0  0
  2  3  1  6  0  0  0
  2 13  1  0  0  0  0
  2  5  1  0  0  0  0
  4  7  1  0  0  0  0
  5 14  1  0  0  0  0
  5 16  2  0  0  0  0
  7  3  2  0  0  0  0
  8 23  1  1  0  0  0
  8 12  1  0  0  0  0
 10 18  1  0  0  0  0
 11  4  2  0  0  0  0
 12 16  1  0  0  0  0
 13 18  1  6  0  0  0
 13  8  1  0  0  0  0
 14  1  2  0  0  0  0
 15 20  2  0  0  0  0
 15  4  1  0  0  0  0
 16 17  1  0  0  0  0
 17  6  2  0  0  0  0
 19 10  2  0  0  0  0
 19  3  1  0  0  0  0
 20 19  1  0  0  0  0
 22 30  1  0  0  0  0
 22 21  2  0  0  0  0
 23 22  1  0  0  0  0
 24 27  1  0  0  0  0
 24 31  1  0  0  0  0
 25 28  1  0  0  0  0
 25 30  2  0  0  0  0
 28 24  2  0  0  0  0
 29 31  2  0  0  0  0
 29 26  1  0  0  0  0
 30 29  1  0  0  0  0
M  END
>  <MODEL>
6

>  <REMARK>
 VINA RESULT:      -7.3      3.473      6.151
  Name = 
  2 active torsions:
  status: ('A' for Active; 'I' for Inactive)
    1  A    between atoms: C_5  and  C_30
    2  A    between atoms: C_10  and  N_16
                            x       y       z     vdW  Elec       q    Type
                         _______ _______ _______ _____ _____    ______ ____

>  <TORSDO>
F 2

$$$$
=
 OpenBabel11122411143D

 31 35  0  0  1  0  0  0  0  0999 V2000
  185.1770  179.0400  144.4810 C   0  0  0  0  0  0  0  0  0  0  0  0
  188.9410  178.6050  144.1410 C   0  0  2  0  0  3  0  0  0  0  0  0
  189.4050  177.7600  145.3190 C   0  0  0  0  0  0  0  0  0  0  0  0
  189.0830  176.7530  147.5290 C   0  0  0  0  0  0  0  0  0  0  0  0
  187.4600  178.4950  143.8550 C   0  0  0  0  0  0  0  0  0  0  0  0
  184.6970  178.2520  143.4330 C   0  0  0  0  0  3  0  0  0  0  0  0
  188.5880  177.4800  146.3470 C   0  0  0  0  0  3  0  0  0  0  0  0
  189.3320  176.9730  142.2650 C   0  0  2  0  0  3  0  0  0  0  0  0
  184.3090  179.6830  145.2970 F   0  0  0  0  0  0  0  0  0  0  0  0
  191.6800  177.6570  144.4210 C   0  0  0  0  0  3  0  0  0  0  0  0
  188.2960  176.4660  148.4680 O   0  0  0  0  0  0  0  0  0  0  0  0
  187.8900  177.0820  141.7800 C   0  0  0  0  0  2  0  0  0  0  0  0
  189.7810  178.3050  142.8840 C   0  0  2  0  0  3  0  0  0  0  0  0
  186.5530  179.1620  144.6900 C   0  0  0  0  0  3  0  0  0  0  0  0
  190.5030  176.3760  147.6120 C   0  0  0  0  0  3  0  0  0  0  0  0
  186.9700  177.7000  142.7940 C   0  0  0  0  0  0  0  0  0  0  0  0
  185.5920  177.5930  142.5870 C   0  0  0  0  0  3  0  0  0  0  0  0
  191.2050  178.2700  143.2190 N   0  0  0  0  0  2  0  0  0  0  0  0
  190.8380  177.3690  145.4120 C   0  0  0  0  0  0  0  0  0  0  0  0
  191.3360  176.6720  146.6120 C   0  0  0  0  0  3  0  0  0  0  0  0
  189.3270  178.2800  139.7430 O   0  0  0  0  0  0  0  0  0  0  0  0
  190.1040  177.2950  139.8770 C   0  0  0  0  0  0  0  0  0  0  0  0
  190.1810  176.6190  141.1360 N   0  0  0  0  0  2  0  0  0  0  0  0
  192.4620  175.9630  136.5490 C   0  0  0  0  0  0  0  0  0  0  0  0
  190.3150  176.4390  137.5530 C   0  0  0  0  0  3  0  0  0  0  0  0
  193.0050  177.1710  139.9500 F   0  0  0  0  0  0  0  0  0  0  0  0
  193.2670  175.4990  135.3890 C   0  0  0  0  0  1  0  0  0  0  0  0
  191.0710  176.0030  136.4630 C   0  0  0  0  0  3  0  0  0  0  0  0
  192.3500  176.7950  138.8240 C   0  0  0  0  0  0  0  0  0  0  0  0
  190.9400  176.8380  138.7450 C   0  0  0  0  0  0  0  0  0  0  0  0
  193.0990  176.3570  137.7270 C   0  0  0  0  0  3  0  0  0  0  0  0
  1 14  1  0  0  0  0
  1  9  1  0  0  0  0
  2  5  1  6  0  0  0
  2  3  1  0  0  0  0
  3 19  1  0  0  0  0
  3  7  2  0  0  0  0
  4 15  1  0  0  0  0
  4 11  2  0  0  0  0
  5 14  2  0  0  0  0
  6  1  2  0  0  0  0
  7  4  1  0  0  0  0
  8 23  1  6  0  0  0
  8 13  1  0  0  0  0
 10 19  2  0  0  0  0
 12  8  1  0  0  0  0
 12 16  1  0  0  0  0
 13 18  1  1  0  0  0
 13  2  1  0  0  0  0
 16  5  1  0  0  0  0
 17 16  2  0  0  0  0
 17  6  1  0  0  0  0
 18 10  1  0  0  0  0
 19 20  1  0  0  0  0
 20 15  2  0  0  0  0
 21 22  2  0  0  0  0
 22 23  1  0  0  0  0
 24 31  1  0  0  0  0
 25 30  2  0  0  0  0
 27 24  1  0  0  0  0
 28 24  2  0  0  0  0
 28 25  1  0  0  0  0
 29 26  1  0  0  0  0
 30 29  1  0  0  0  0
 30 22  1  0  0  0  0
 31 29  2  0  0  0  0
M  END
>  <MODEL>
7

>  <REMARK>
 VINA RESULT:      -7.2      3.069      8.468
  Name = 
  2 active torsions:
  status: ('A' for Active; 'I' for Inactive)
    1  A    between atoms: C_5  and  C_30
    2  A    between atoms: C_10  and  N_16
                            x       y       z     vdW  Elec       q    Type
                         _______ _______ _______ _____ _____    ______ ____

>  <TORSDO>
F 2

$$$$
=
 OpenBabel11122411143D

 31 35  0  0  1  0  0  0  0  0999 V2000
  191.7280  177.3320  140.9070 C   0  0  0  0  0  0  0  0  0  0  0  0
  188.9800  177.9960  138.3600 C   0  0  2  0  0  3  0  0  0  0  0  0
  188.7000  176.6810  137.6480 C   0  0  0  0  0  0  0  0  0  0  0  0
  189.2760  174.3820  137.0260 C   0  0  0  0  0  0  0  0  0  0  0  0
  189.6870  177.8330  139.6880 C   0  0  0  0  0  0  0  0  0  0  0  0
  191.0340  177.4270  142.1150 C   0  0  0  0  0  3  0  0  0  0  0  0
  189.4980  175.6130  137.8050 C   0  0  0  0  0  3  0  0  0  0  0  0
  186.8280  178.2530  139.6420 C   0  0  2  0  0  3  0  0  0  0  0  0
  193.0500  177.0400  140.9060 F   0  0  0  0  0  0  0  0  0  0  0  0
  186.8200  177.6750  136.4330 C   0  0  0  0  0  3  0  0  0  0  0  0
  190.0100  173.3780  137.2100 O   0  0  0  0  0  0  0  0  0  0  0  0
  187.5600  178.3880  140.9740 C   0  0  0  0  0  2  0  0  0  0  0  0
  187.6900  178.8280  138.5080 C   0  0  2  0  0  3  0  0  0  0  0  0
  191.0570  177.5370  139.6990 C   0  0  0  0  0  3  0  0  0  0  0  0
  188.2010  174.3380  136.0210 C   0  0  0  0  0  3  0  0  0  0  0  0
  188.9890  177.9310  140.9130 C   0  0  0  0  0  0  0  0  0  0  0  0
  189.6720  177.7350  142.1170 C   0  0  0  0  0  3  0  0  0  0  0  0
  186.9480  178.8450  137.2470 N   0  0  0  0  0  2  0  0  0  0  0  0
  187.6120  176.6230  136.6330 C   0  0  0  0  0  0  0  0  0  0  0  0
  187.4150  175.4010  135.8320 C   0  0  0  0  0  3  0  0  0  0  0  0
  184.3140  177.2070  138.8330 O   0  0  0  0  0  0  0  0  0  0  0  0
  184.3280  178.3900  139.2720 C   0  0  0  0  0  0  0  0  0  0  0  0
  185.5580  178.9590  139.7320 N   0  0  0  0  0  2  0  0  0  0  0  0
  180.7540  180.7610  139.3690 C   0  0  0  0  0  0  0  0  0  0  0  0
  183.0540  180.4430  138.6940 C   0  0  0  0  0  3  0  0  0  0  0  0
  181.8950  177.5180  140.5980 F   0  0  0  0  0  0  0  0  0  0  0  0
  179.5230  181.5920  139.3950 C   0  0  0  0  0  1  0  0  0  0  0  0
  181.8970  181.2250  138.7190 C   0  0  0  0  0  3  0  0  0  0  0  0
  181.9220  178.7250  139.9770 C   0  0  0  0  0  0  0  0  0  0  0  0
  183.0840  179.1870  139.3210 C   0  0  0  0  0  0  0  0  0  0  0  0
  180.7680  179.5130  139.9970 C   0  0  0  0  0  3  0  0  0  0  0  0
  1  6  1  0  0  0  0
  2  3  1  1  0  0  0
  2 13  1  0  0  0  0
  2  5  1  0  0  0  0
  3  7  2  0  0  0  0
  4 11  2  0  0  0  0
  4  7  1  0  0  0  0
  5 14  1  0  0  0  0
  5 16  2  0  0  0  0
  6 17  2  0  0  0  0
  8 23  1  1  0  0  0
  8 12  1  0  0  0  0
  9  1  1  0  0  0  0
 10 19  2  0  0  0  0
 10 18  1  0  0  0  0
 13 18  1  6  0  0  0
 13  8  1  0  0  0  0
 14  1  2  0  0  0  0
 15  4  1  0  0  0  0
 16 12  1  0  0  0  0
 16 17  1  0  0  0  0
 19  3  1  0  0  0  0
 20 15  2  0  0  0  0
 20 19  1  0  0  0  0
 21 22  2  0  0  0  0
 22 30  1  0  0  0  0
 22 23  1  0  0  0  0
 24 27  1  0  0  0  0
 24 31  1  0  0  0  0
 25 28  1  0  0  0  0
 25 30  2  0  0  0  0
 28 24  2  0  0  0  0
 29 31  2  0  0  0  0
 29 26  1  0  0  0  0
 30 29  1  0  0  0  0
M  END
>  <MODEL>
8

>  <REMARK>
 VINA RESULT:      -6.9      3.344      6.407
  Name = 
  2 active torsions:
  status: ('A' for Active; 'I' for Inactive)
    1  A    between atoms: C_5  and  C_30
    2  A    between atoms: C_10  and  N_16
                            x       y       z     vdW  Elec       q    Type
                         _______ _______ _______ _____ _____    ______ ____

>  <TORSDO>
F 2

$$$$
=
 OpenBabel11122411143D

 31 35  0  0  1  0  0  0  0  0999 V2000
  186.9200  178.6470  147.5530 C   0  0  0  0  0  0  0  0  0  0  0  0
  189.5780  178.1490  144.8780 C   0  0  2  0  0  3  0  0  0  0  0  0
  190.4260  176.9580  145.3030 C   0  0  0  0  0  0  0  0  0  0  0  0
  191.2140  175.3340  146.9580 C   0  0  0  0  0  0  0  0  0  0  0  0
  188.2260  178.2080  145.5530 C   0  0  0  0  0  0  0  0  0  0  0  0
  185.7590  178.2480  146.8880 C   0  0  0  0  0  3  0  0  0  0  0  0
  190.3130  176.4160  146.5250 C   0  0  0  0  0  3  0  0  0  0  0  0
  188.4300  177.1600  142.8670 C   0  0  2  0  0  3  0  0  0  0  0  0
  186.8560  179.0500  148.8440 F   0  0  0  0  0  0  0  0  0  0  0  0
  191.6710  177.0230  143.1950 C   0  0  0  0  0  3  0  0  0  0  0  0
  191.0720  174.8110  148.0940 O   0  0  0  0  0  0  0  0  0  0  0  0
  187.0450  177.4870  143.4150 C   0  0  0  0  0  2  0  0  0  0  0  0
  189.4450  178.2110  143.3430 C   0  0  2  0  0  3  0  0  0  0  0  0
  188.1470  178.6290  146.8870 C   0  0  0  0  0  3  0  0  0  0  0  0
  192.2900  174.8780  146.0640 C   0  0  0  0  0  3  0  0  0  0  0  0
  187.0480  177.8070  144.8820 C   0  0  0  0  0  0  0  0  0  0  0  0
  185.8220  177.8390  145.5540 C   0  0  0  0  0  3  0  0  0  0  0  0
  190.7470  178.0020  142.7100 N   0  0  0  0  0  2  0  0  0  0  0  0
  191.5140  176.4850  144.4030 C   0  0  0  0  0  0  0  0  0  0  0  0
  192.4360  175.4270  144.8550 C   0  0  0  0  0  3  0  0  0  0  0  0
  187.6450  179.3380  141.2210 O   0  0  0  0  0  0  0  0  0  0  0  0
  187.9250  178.2530  140.6410 C   0  0  0  0  0  0  0  0  0  0  0  0
  188.3650  177.1300  141.4130 N   0  0  0  0  0  2  0  0  0  0  0  0
  187.5080  177.9150  136.3850 C   0  0  0  0  0  0  0  0  0  0  0  0
  186.5330  178.0930  138.5900 C   0  0  0  0  0  3  0  0  0  0  0  0
  190.2010  178.1040  138.8420 F   0  0  0  0  0  0  0  0  0  0  0  0
  187.3490  177.7980  134.9120 C   0  0  0  0  0  1  0  0  0  0  0  0
  186.3820  177.9830  137.2060 C   0  0  0  0  0  3  0  0  0  0  0  0
  188.9440  178.0660  138.3330 C   0  0  0  0  0  0  0  0  0  0  0  0
  187.8090  178.1350  139.1720 C   0  0  0  0  0  0  0  0  0  0  0  0
  188.7850  177.9560  136.9480 C   0  0  0  0  0  3  0  0  0  0  0  0
  1  9  1  0  0  0  0
  2  3  1  6  0  0  0
  2  5  1  0  0  0  0
  3  7  2  0  0  0  0
  4 11  2  0  0  0  0
  5 14  1  0  0  0  0
  6  1  1  0  0  0  0
  7  4  1  0  0  0  0
  8 23  1  6  0  0  0
  8 13  1  0  0  0  0
  8 12  1  0  0  0  0
 10 19  2  0  0  0  0
 12 16  1  0  0  0  0
 13 18  1  6  0  0  0
 13  2  1  0  0  0  0
 14  1  2  0  0  0  0
 15  4  1  0  0  0  0
 16  5  2  0  0  0  0
 16 17  1  0  0  0  0
 17  6  2  0  0  0  0
 18 10  1  0  0  0  0
 19 20  1  0  0  0  0
 19  3  1  0  0  0  0
 20 15  2  0  0  0  0
 22 21  2  0  0  0  0
 22 23  1  0  0  0  0
 24 31  2  0  0  0  0
 24 28  1  0  0  0  0
 25 30  1  0  0  0  0
 27 24  1  0  0  0  0
 28 25  2  0  0  0  0
 29 26  1  0  0  0  0
 29 30  2  0  0  0  0
 30 22  1  0  0  0  0
 31 29  1  0  0  0  0
M  END
>  <MODEL>
9

>  <REMARK>
 VINA RESULT:      -6.7      2.541      8.841
  Name = 
  2 active torsions:
  status: ('A' for Active; 'I' for Inactive)
    1  A    between atoms: C_5  and  C_30
    2  A    between atoms: C_10  and  N_16
                            x       y       z     vdW  Elec       q    Type
                         _______ _______ _______ _____ _____    ______ ____

>  <TORSDO>
F 2

$$$$
