=
 OpenBabel11122412113D

 34 41  0  0  1  0  0  0  0  0999 V2000
  190.7870  176.8700  143.6510 C   0  0  0  0  0  0  0  0  0  0  0  0
  192.5650  177.4520  141.9440 C   0  0  0  0  0  2  0  0  0  0  0  0
  185.0550  179.1610  145.5990 C   0  0  0  0  0  0  0  0  0  0  0  0
  188.9850  177.1710  145.2250 C   0  0  0  0  0  0  0  0  0  0  0  0
  186.6850  177.6560  144.5060 C   0  0  0  0  0  0  0  0  0  0  0  0
  184.4800  178.3820  143.5270 C   0  0  0  0  0  2  0  0  0  0  0  0
  184.0150  179.9070  144.3040 S   0  0  0  0  0  0  0  0  0  0  0  0
  186.3830  178.6710  147.5020 C   0  0  0  0  0  3  0  0  0  0  0  0
  190.4100  176.7070  141.1600 C   0  0  1  0  0  3  0  0  0  0  0  0
  189.3120  176.5200  138.4240 C   0  0  0  0  0  2  0  0  0  0  0  0
  187.0930  177.2080  143.1200 C   0  0  0  0  0  2  0  0  0  0  0  0
  187.2710  177.8210  146.9620 C   0  0  0  0  0  3  0  0  0  0  0  0
  188.9000  176.9950  141.4080 C   0  0  1  0  0  3  0  0  0  0  0  0
  192.5270  177.6270  140.4310 C   0  0  0  0  0  2  0  0  0  0  0  0
  187.5810  177.5600  145.5270 C   0  0  0  0  0  0  0  0  0  0  0  0
  185.4930  179.5090  146.7590 N   0  0  0  0  0  0  0  0  0  0  0  0
  190.7820  176.9310  138.6580 C   0  0  1  0  0  3  0  0  0  0  0  0
  189.4410  177.1400  143.8980 C   0  0  0  0  0  0  0  0  0  0  0  0
  185.2220  177.9320  144.7460 C   0  0  2  0  0  3  0  0  0  0  0  0
  188.5350  177.5880  142.7810 C   0  0  2  0  0  3  0  0  0  0  0  0
  191.1430  176.6150  145.9880 N   0  0  0  0  0  0  0  0  0  0  0  0
  188.3490  177.5280  138.9830 C   0  0  0  0  0  3  0  0  0  0  0  0
  189.8610  176.8960  146.2300 N   0  0  0  0  0  0  0  0  0  0  0  0
  188.1870  177.7460  140.2990 C   0  0  0  0  0  3  0  0  0  0  0  0
  191.0540  177.5210  140.0560 C   0  0  1  0  0  3  0  0  0  0  0  0
  191.6370  176.6020  144.7230 C   0  0  0  0  0  3  0  0  0  0  0  0
  191.2720  176.8980  142.3100 N   0  0  0  0  0  0  0  0  0  0  0  0
  191.7120  175.9480  138.2470 O   0  0  0  0  0  0  0  0  0  0  0  0
  191.8980  176.0410  136.8540 C   0  0  0  0  0  2  0  0  0  0  0  0
  195.2280  175.6860  136.8020 O   0  0  0  0  0  0  0  0  0  0  0  0
  193.4990  174.2420  137.5040 C   0  0  0  0  0  2  0  0  0  0  0  0
  192.9770  175.0760  136.3710 C   0  0  2  0  0  3  0  0  0  0  0  0
  194.9900  174.4640  137.4460 C   0  0  0  0  0  2  0  0  0  0  0  0
  194.1940  175.8200  135.8630 C   0  0  0  0  0  2  0  0  0  0  0  0
  1 18  2  0  0  0  0
  1 26  1  0  0  0  0
  2 27  1  0  0  0  0
  3 16  2  0  0  0  0
  4 15  1  0  0  0  0
  4 23  2  0  0  0  0
  5 19  1  0  0  0  0
  5 15  2  0  0  0  0
  6  7  1  0  0  0  0
  7  3  1  0  0  0  0
  9 13  1  0  0  0  0
  9 27  1  1  0  0  0
 10 17  1  0  0  0  0
 10 22  1  0  0  0  0
 11  5  1  0  0  0  0
 12  8  2  0  0  0  0
 13 24  1  6  0  0  0
 13 20  1  0  0  0  0
 14  2  1  0  0  0  0
 15 12  1  0  0  0  0
 16  8  1  0  0  0  0
 17 28  1  1  0  0  0
 17 25  1  0  0  0  0
 18  4  1  0  0  0  0
 19  6  1  6  0  0  0
 19  3  1  0  0  0  0
 20 11  1  1  0  0  0
 20 18  1  0  0  0  0
 21 23  1  0  0  0  0
 22 24  2  0  0  0  0
 25 14  1  1  0  0  0
 25  9  1  0  0  0  0
 26 21  2  0  0  0  0
 27  1  1  0  0  0  0
 29 28  1  0  0  0  0
 30 33  1  0  0  0  0
 32 29  1  1  0  0  0
 32 31  1  0  0  0  0
 33 31  1  0  0  0  0
 34 32  1  0  0  0  0
 34 30  1  0  0  0  0
M  END
>  <MODEL>
1

>  <REMARK>
 VINA RESULT:     -10.2      0.000      0.000
  Name = 
  3 active torsions:
  status: ('A' for Active; 'I' for Inactive)
    1  A    between atoms: C_17  and  O_28
    2  A    between atoms: O_28  and  C_29
    3  A    between atoms: C_29  and  C_32
                            x       y       z     vdW  Elec       q    Type
                         _______ _______ _______ _____ _____    ______ ____

>  <TORSDO>
F 3

$$$$
=
 OpenBabel11122412113D

 34 41  0  0  1  0  0  0  0  0999 V2000
  190.8030  176.8630  143.6670 C   0  0  0  0  0  0  0  0  0  0  0  0
  192.5730  177.4390  141.9490 C   0  0  0  0  0  2  0  0  0  0  0  0
  185.0800  179.1590  145.6330 C   0  0  0  0  0  0  0  0  0  0  0  0
  189.0090  177.1690  145.2480 C   0  0  0  0  0  0  0  0  0  0  0  0
  186.7060  177.6500  144.5380 C   0  0  0  0  0  0  0  0  0  0  0  0
  184.4960  178.3720  143.5670 C   0  0  0  0  0  2  0  0  0  0  0  0
  184.0330  179.8990  144.3390 S   0  0  0  0  0  0  0  0  0  0  0  0
  186.4170  178.6780  147.5320 C   0  0  0  0  0  3  0  0  0  0  0  0
  190.4160  176.6900  141.1780 C   0  0  1  0  0  3  0  0  0  0  0  0
  189.3050  176.4910  138.4490 C   0  0  0  0  0  2  0  0  0  0  0  0
  187.1070  177.1970  143.1510 C   0  0  0  0  0  2  0  0  0  0  0  0
  187.3030  177.8260  146.9910 C   0  0  0  0  0  3  0  0  0  0  0  0
  188.9070  176.9780  141.4320 C   0  0  1  0  0  3  0  0  0  0  0  0
  192.5290  177.6080  140.4360 C   0  0  0  0  0  2  0  0  0  0  0  0
  187.6070  177.5590  145.5550 C   0  0  0  0  0  0  0  0  0  0  0  0
  185.5230  179.5120  146.7890 N   0  0  0  0  0  0  0  0  0  0  0  0
  190.7750  176.9030  138.6740 C   0  0  1  0  0  3  0  0  0  0  0  0
  189.4590  177.1330  143.9190 C   0  0  0  0  0  0  0  0  0  0  0  0
  185.2430  177.9260  144.7830 C   0  0  2  0  0  3  0  0  0  0  0  0
  188.5470  177.5760  142.8050 C   0  0  2  0  0  3  0  0  0  0  0  0
  191.1700  176.6170  146.0030 N   0  0  0  0  0  0  0  0  0  0  0  0
  188.3430  177.5010  139.0080 C   0  0  0  0  0  3  0  0  0  0  0  0
  189.8890  176.8990  146.2510 N   0  0  0  0  0  0  0  0  0  0  0  0
  188.1870  177.7240  140.3240 C   0  0  0  0  0  3  0  0  0  0  0  0
  191.0540  177.5000  140.0680 C   0  0  1  0  0  3  0  0  0  0  0  0
  191.6590  176.6000  144.7360 C   0  0  0  0  0  3  0  0  0  0  0  0
  191.2820  176.8860  142.3240 N   0  0  0  0  0  0  0  0  0  0  0  0
  191.7040  175.9200  138.2620 O   0  0  0  0  0  0  0  0  0  0  0  0
  192.1000  176.1830  136.9370 C   0  0  0  0  0  2  0  0  0  0  0  0
  190.1480  173.4680  136.7340 O   0  0  0  0  0  0  0  0  0  0  0  0
  190.5870  175.2140  135.2070 C   0  0  0  0  0  2  0  0  0  0  0  0
  191.8240  174.9900  136.0260 C   0  0  2  0  0  3  0  0  0  0  0  0
  189.7480  173.9930  135.4970 C   0  0  0  0  0  2  0  0  0  0  0  0
  191.5210  173.7420  136.8280 C   0  0  0  0  0  2  0  0  0  0  0  0
  1 18  2  0  0  0  0
  1 26  1  0  0  0  0
  2 27  1  0  0  0  0
  3 16  2  0  0  0  0
  4 15  1  0  0  0  0
  4 23  2  0  0  0  0
  5 19  1  0  0  0  0
  5 15  2  0  0  0  0
  6  7  1  0  0  0  0
  7  3  1  0  0  0  0
  9 13  1  0  0  0  0
  9 27  1  1  0  0  0
 10 17  1  0  0  0  0
 10 22  1  0  0  0  0
 11  5  1  0  0  0  0
 12  8  2  0  0  0  0
 13 24  1  6  0  0  0
 13 20  1  0  0  0  0
 14  2  1  0  0  0  0
 15 12  1  0  0  0  0
 16  8  1  0  0  0  0
 17 28  1  1  0  0  0
 17 25  1  0  0  0  0
 18  4  1  0  0  0  0
 19  6  1  6  0  0  0
 19  3  1  0  0  0  0
 20 11  1  1  0  0  0
 20 18  1  0  0  0  0
 21 23  1  0  0  0  0
 22 24  2  0  0  0  0
 25 14  1  1  0  0  0
 25  9  1  0  0  0  0
 26 21  2  0  0  0  0
 27  1  1  0  0  0  0
 29 28  1  0  0  0  0
 30 34  1  0  0  0  0
 31 33  1  0  0  0  0
 31 32  1  0  0  0  0
 32 34  1  0  0  0  0
 32 29  1  1  0  0  0
 33 30  1  0  0  0  0
M  END
>  <MODEL>
2

>  <REMARK>
 VINA RESULT:      -9.9      1.057      1.635
  Name = 
  3 active torsions:
  status: ('A' for Active; 'I' for Inactive)
    1  A    between atoms: C_17  and  O_28
    2  A    between atoms: O_28  and  C_29
    3  A    between atoms: C_29  and  C_32
                            x       y       z     vdW  Elec       q    Type
                         _______ _______ _______ _____ _____    ______ ____

>  <TORSDO>
F 3

$$$$
=
 OpenBabel11122412113D

 34 41  0  0  1  0  0  0  0  0999 V2000
  186.9840  178.2310  141.2050 C   0  0  0  0  0  0  0  0  0  0  0  0
  188.6920  176.8980  142.5160 C   0  0  0  0  0  2  0  0  0  0  0  0
  180.5780  178.2510  140.2810 C   0  0  0  0  0  0  0  0  0  0  0  0
  184.9620  178.7330  139.9910 C   0  0  0  0  0  0  0  0  0  0  0  0
  182.7890  178.9840  141.1110 C   0  0  0  0  0  0  0  0  0  0  0  0
  180.6600  178.9490  142.4570 C   0  0  0  0  0  2  0  0  0  0  0  0
  179.5660  177.7680  141.7160 S   0  0  0  0  0  0  0  0  0  0  0  0
  181.6650  178.4630  138.1840 C   0  0  0  0  0  3  0  0  0  0  0  0
  187.0990  178.2410  143.7270 C   0  0  1  0  0  3  0  0  0  0  0  0
  186.5980  178.4930  146.6270 C   0  0  0  0  0  2  0  0  0  0  0  0
  183.5480  179.1140  142.4130 C   0  0  0  0  0  2  0  0  0  0  0  0
  182.8710  178.8970  138.5830 C   0  0  0  0  0  3  0  0  0  0  0  0
  185.5670  178.5130  143.7580 C   0  0  1  0  0  3  0  0  0  0  0  0
  188.8420  176.5840  143.9990 C   0  0  0  0  0  2  0  0  0  0  0  0
  183.4830  178.8800  139.9440 C   0  0  0  0  0  0  0  0  0  0  0  0
  180.6690  177.9030  139.0450 N   0  0  0  0  0  0  0  0  0  0  0  0
  187.7680  177.6350  146.1000 C   0  0  1  0  0  3  0  0  0  0  0  0
  185.6090  178.4630  141.2070 C   0  0  0  0  0  0  0  0  0  0  0  0
  181.3050  179.2500  141.1410 C   0  0  2  0  0  3  0  0  0  0  0  0
  184.7970  178.2320  142.4540 C   0  0  2  0  0  3  0  0  0  0  0  0
  187.0230  178.6020  138.8570 N   0  0  0  0  0  0  0  0  0  0  0  0
  185.2630  177.9400  146.2170 C   0  0  0  0  0  3  0  0  0  0  0  0
  185.7030  178.8010  138.8500 N   0  0  0  0  0  0  0  0  0  0  0  0
  184.8230  177.9340  144.9470 C   0  0  0  0  0  3  0  0  0  0  0  0
  187.5830  177.1430  144.6510 C   0  0  1  0  0  3  0  0  0  0  0  0
  187.6880  178.3080  140.0040 C   0  0  0  0  0  3  0  0  0  0  0  0
  187.6390  177.8950  142.4270 N   0  0  0  0  0  0  0  0  0  0  0  0
  189.0390  178.1930  146.3710 O   0  0  0  0  0  0  0  0  0  0  0  0
  189.6710  177.4380  147.3790 C   0  0  0  0  0  2  0  0  0  0  0  0
  192.1890  175.2630  147.7650 O   0  0  0  0  0  0  0  0  0  0  0  0
  191.4280  176.4790  145.8910 C   0  0  0  0  0  2  0  0  0  0  0  0
  191.1680  177.3030  147.1170 C   0  0  2  0  0  3  0  0  0  0  0  0
  192.3680  175.4060  146.3820 C   0  0  0  0  0  2  0  0  0  0  0  0
  191.8560  176.5440  148.2310 C   0  0  0  0  0  2  0  0  0  0  0  0
  1 18  1  0  0  0  0
  1 27  1  0  0  0  0
  2 14  1  0  0  0  0
  3 19  1  0  0  0  0
  3  7  1  0  0  0  0
  4 18  2  0  0  0  0
  5 19  1  0  0  0  0
  5 11  1  0  0  0  0
  7  6  1  0  0  0  0
  8 12  2  0  0  0  0
  8 16  1  0  0  0  0
  9 27  1  6  0  0  0
  9 13  1  0  0  0  0
  9 25  1  0  0  0  0
 12 15  1  0  0  0  0
 13 24  1  1  0  0  0
 15  4  1  0  0  0  0
 15  5  2  0  0  0  0
 16  3  2  0  0  0  0
 17 28  1  6  0  0  0
 17 10  1  0  0  0  0
 18 20  1  0  0  0  0
 19  6  1  1  0  0  0
 20 11  1  6  0  0  0
 20 13  1  0  0  0  0
 21 26  1  0  0  0  0
 22 10  1  0  0  0  0
 23 21  2  0  0  0  0
 23  4  1  0  0  0  0
 24 22  2  0  0  0  0
 25 14  1  6  0  0  0
 25 17  1  0  0  0  0
 26  1  2  0  0  0  0
 27  2  1  0  0  0  0
 28 29  1  0  0  0  0
 30 34  1  0  0  0  0
 31 33  1  0  0  0  0
 31 32  1  0  0  0  0
 32 29  1  1  0  0  0
 32 34  1  0  0  0  0
 33 30  1  0  0  0  0
M  END
>  <MODEL>
3

>  <REMARK>
 VINA RESULT:      -9.2      4.527      7.562
  Name = 
  3 active torsions:
  status: ('A' for Active; 'I' for Inactive)
    1  A    between atoms: C_17  and  O_28
    2  A    between atoms: O_28  and  C_29
    3  A    between atoms: C_29  and  C_32
                            x       y       z     vdW  Elec       q    Type
                         _______ _______ _______ _____ _____    ______ ____

>  <TORSDO>
F 3

$$$$
=
 OpenBabel11122412113D

 34 41  0  0  1  0  0  0  0  0999 V2000
  186.5080  178.3470  141.0360 C   0  0  0  0  0  0  0  0  0  0  0  0
  187.8880  177.1260  142.7730 C   0  0  0  0  0  2  0  0  0  0  0  0
  180.4330  178.2830  138.8040 C   0  0  0  0  0  0  0  0  0  0  0  0
  184.7890  178.7470  139.3930 C   0  0  0  0  0  0  0  0  0  0  0  0
  182.4360  179.0840  140.0140 C   0  0  0  0  0  0  0  0  0  0  0  0
  180.0740  179.1550  140.8880 C   0  0  0  0  0  2  0  0  0  0  0  0
  179.1390  177.9150  140.0320 S   0  0  0  0  0  0  0  0  0  0  0  0
  181.9340  178.3270  136.9680 C   0  0  0  0  0  3  0  0  0  0  0  0
  186.0990  178.5610  143.5180 C   0  0  1  0  0  3  0  0  0  0  0  0
  185.0130  179.0450  146.2220 C   0  0  0  0  0  2  0  0  0  0  0  0
  182.9110  179.3190  141.4310 C   0  0  0  0  0  2  0  0  0  0  0  0
  183.0380  178.7930  137.5730 C   0  0  0  0  0  3  0  0  0  0  0  0
  184.5980  178.8320  143.2080 C   0  0  1  0  0  3  0  0  0  0  0  0
  187.7220  176.9330  144.2760 C   0  0  0  0  0  2  0  0  0  0  0  0
  183.3540  178.8860  139.0280 C   0  0  0  0  0  0  0  0  0  0  0  0
  180.7730  177.8360  137.6460 N   0  0  0  0  0  0  0  0  0  0  0  0
  186.2530  178.1490  146.0180 C   0  0  1  0  0  3  0  0  0  0  0  0
  185.1660  178.5770  140.7340 C   0  0  0  0  0  0  0  0  0  0  0  0
  180.9820  179.3490  139.7150 C   0  0  2  0  0  3  0  0  0  0  0  0
  184.1100  178.4450  141.8000 C   0  0  2  0  0  3  0  0  0  0  0  0
  187.0380  178.5270  138.7250 N   0  0  0  0  0  0  0  0  0  0  0  0
  183.7830  178.4580  145.5890 C   0  0  0  0  0  3  0  0  0  0  0  0
  185.7510  178.7240  138.4290 N   0  0  0  0  0  0  0  0  0  0  0  0
  183.6160  178.3500  144.2600 C   0  0  0  0  0  3  0  0  0  0  0  0
  186.3650  177.5410  144.6060 C   0  0  1  0  0  3  0  0  0  0  0  0
  187.4470  178.3280  140.0050 C   0  0  0  0  0  3  0  0  0  0  0  0
  186.8910  178.1110  142.3890 N   0  0  0  0  0  0  0  0  0  0  0  0
  187.4500  178.7280  146.5020 O   0  0  0  0  0  0  0  0  0  0  0  0
  187.4030  178.7820  147.9090 C   0  0  0  0  0  2  0  0  0  0  0  0
  189.6440  176.4400  147.0640 O   0  0  0  0  0  0  0  0  0  0  0  0
  189.8290  178.4120  148.3470 C   0  0  0  0  0  2  0  0  0  0  0  0
  188.4470  177.8630  148.5360 C   0  0  2  0  0  3  0  0  0  0  0  0
  190.5760  177.2710  147.7020 C   0  0  0  0  0  2  0  0  0  0  0  0
  188.4810  176.5160  147.8460 C   0  0  0  0  0  2  0  0  0  0  0  0
  1 27  1  0  0  0  0
  2 14  1  0  0  0  0
  3 19  1  0  0  0  0
  3  7  1  0  0  0  0
  4 18  2  0  0  0  0
  5 11  1  0  0  0  0
  7  6  1  0  0  0  0
  8 12  2  0  0  0  0
  8 16  1  0  0  0  0
  9 27  1  6  0  0  0
  9 25  1  0  0  0  0
 12 15  1  0  0  0  0
 13  9  1  0  0  0  0
 13 24  1  1  0  0  0
 15  4  1  0  0  0  0
 15  5  2  0  0  0  0
 16  3  2  0  0  0  0
 17 10  1  0  0  0  0
 17 28  1  6  0  0  0
 18  1  1  0  0  0  0
 18 20  1  0  0  0  0
 19  5  1  0  0  0  0
 19  6  1  1  0  0  0
 20 11  1  6  0  0  0
 20 13  1  0  0  0  0
 21 26  1  0  0  0  0
 22 10  1  0  0  0  0
 23 21  2  0  0  0  0
 23  4  1  0  0  0  0
 24 22  2  0  0  0  0
 25 14  1  6  0  0  0
 25 17  1  0  0  0  0
 26  1  2  0  0  0  0
 27  2  1  0  0  0  0
 28 29  1  0  0  0  0
 30 33  1  0  0  0  0
 30 34  1  0  0  0  0
 31 32  1  0  0  0  0
 32 29  1  6  0  0  0
 33 31  1  0  0  0  0
 34 32  1  0  0  0  0
M  END
>  <MODEL>
4

>  <REMARK>
 VINA RESULT:      -8.4      4.851      8.482
  Name = 
  3 active torsions:
  status: ('A' for Active; 'I' for Inactive)
    1  A    between atoms: C_17  and  O_28
    2  A    between atoms: O_28  and  C_29
    3  A    between atoms: C_29  and  C_32
                            x       y       z     vdW  Elec       q    Type
                         _______ _______ _______ _____ _____    ______ ____

>  <TORSDO>
F 3

$$$$
=
 OpenBabel11122412113D

 34 41  0  0  1  0  0  0  0  0999 V2000
  183.4870  178.8430  143.7120 C   0  0  0  0  0  0  0  0  0  0  0  0
  181.2450  178.2550  142.6910 C   0  0  0  0  0  2  0  0  0  0  0  0
  189.6270  176.8330  143.3210 C   0  0  0  0  0  0  0  0  0  0  0  0
  185.7410  178.5640  144.5220 C   0  0  0  0  0  0  0  0  0  0  0  0
  187.6540  178.2910  143.0040 C   0  0  0  0  0  0  0  0  0  0  0  0
  189.3970  177.7880  141.2550 C   0  0  0  0  0  2  0  0  0  0  0  0
  190.1700  176.2510  141.6830 S   0  0  0  0  0  0  0  0  0  0  0  0
  189.0410  177.0990  145.6030 C   0  0  0  0  0  3  0  0  0  0  0  0
  182.9480  179.2000  141.2710 C   0  0  1  0  0  3  0  0  0  0  0  0
  182.9960  179.6470  138.3520 C   0  0  0  0  0  2  0  0  0  0  0  0
  186.7630  178.8010  141.8930 C   0  0  0  0  0  2  0  0  0  0  0  0
  187.9850  177.9200  145.4850 C   0  0  0  0  0  3  0  0  0  0  0  0
  184.4580  179.0030  140.9490 C   0  0  1  0  0  3  0  0  0  0  0  0
  180.7500  178.1850  141.2520 C   0  0  0  0  0  2  0  0  0  0  0  0
  187.1750  178.2550  144.2780 C   0  0  0  0  0  0  0  0  0  0  0  0
  189.6440  176.3780  144.5250 N   0  0  0  0  0  0  0  0  0  0  0  0
  181.7230  179.1200  139.0490 C   0  0  1  0  0  3  0  0  0  0  0  0
  184.8420  178.6530  143.4470 C   0  0  0  0  0  0  0  0  0  0  0  0
  189.1170  178.1030  142.6910 C   0  0  2  0  0  3  0  0  0  0  0  0
  185.3120  178.3450  142.0490 C   0  0  2  0  0  3  0  0  0  0  0  0
  183.9720  178.9150  146.0380 N   0  0  0  0  0  0  0  0  0  0  0  0
  184.1360  178.6740  138.4470 C   0  0  0  0  0  3  0  0  0  0  0  0
  185.2680  178.7090  145.7910 N   0  0  0  0  0  0  0  0  0  0  0  0
  184.7630  178.3800  139.5990 C   0  0  0  0  0  3  0  0  0  0  0  0
  181.9890  178.4190  140.3960 C   0  0  1  0  0  3  0  0  0  0  0  0
  183.0610  178.9780  145.0330 C   0  0  0  0  0  3  0  0  0  0  0  0
  182.5590  178.8720  142.6290 N   0  0  0  0  0  0  0  0  0  0  0  0
  180.6680  180.0610  139.0770 O   0  0  0  0  0  0  0  0  0  0  0  0
  181.1650  181.3270  138.7120 C   0  0  0  0  0  2  0  0  0  0  0  0
  181.1780  183.6850  136.3330 O   0  0  0  0  0  0  0  0  0  0  0  0
  180.3450  181.4760  136.3620 C   0  0  0  0  0  2  0  0  0  0  0  0
  180.2210  182.0380  137.7470 C   0  0  2  0  0  3  0  0  0  0  0  0
  180.6220  182.6930  135.5120 C   0  0  0  0  0  2  0  0  0  0  0  0
  180.5890  183.4990  137.5930 C   0  0  0  0  0  2  0  0  0  0  0  0
  1 26  1  0  0  0  0
  3 16  2  0  0  0  0
  4 23  2  0  0  0  0
  5 15  2  0  0  0  0
  6  7  1  0  0  0  0
  7  3  1  0  0  0  0
  9 27  1  1  0  0  0
 10 22  1  0  0  0  0
 10 17  1  0  0  0  0
 11  5  1  0  0  0  0
 12  8  2  0  0  0  0
 13 24  1  6  0  0  0
 13  9  1  0  0  0  0
 13 20  1  0  0  0  0
 14  2  1  0  0  0  0
 15  4  1  0  0  0  0
 15 12  1  0  0  0  0
 16  8  1  0  0  0  0
 17 28  1  1  0  0  0
 17 25  1  0  0  0  0
 18  1  2  0  0  0  0
 18  4  1  0  0  0  0
 19  6  1  6  0  0  0
 19  5  1  0  0  0  0
 19  3  1  0  0  0  0
 20 11  1  1  0  0  0
 20 18  1  0  0  0  0
 22 24  2  0  0  0  0
 23 21  1  0  0  0  0
 25 14  1  1  0  0  0
 25  9  1  0  0  0  0
 26 21  2  0  0  0  0
 27  2  1  0  0  0  0
 27  1  1  0  0  0  0
 29 28  1  0  0  0  0
 30 34  1  0  0  0  0
 31 32  1  0  0  0  0
 32 29  1  1  0  0  0
 33 30  1  0  0  0  0
 33 31  1  0  0  0  0
 34 32  1  0  0  0  0
M  END
>  <MODEL>
5

>  <REMARK>
 VINA RESULT:      -8.3      5.248      8.847
  Name = 
  3 active torsions:
  status: ('A' for Active; 'I' for Inactive)
    1  A    between atoms: C_17  and  O_28
    2  A    between atoms: O_28  and  C_29
    3  A    between atoms: C_29  and  C_32
                            x       y       z     vdW  Elec       q    Type
                         _______ _______ _______ _____ _____    ______ ____

>  <TORSDO>
F 3

$$$$
=
 OpenBabel11122412113D

 34 41  0  0  1  0  0  0  0  0999 V2000
  188.3700  177.8790  141.0280 C   0  0  0  0  0  0  0  0  0  0  0  0
  188.9610  176.8240  143.2530 C   0  0  0  0  0  2  0  0  0  0  0  0
  183.5370  177.6540  136.7280 C   0  0  0  0  0  0  0  0  0  0  0  0
  187.3930  178.1310  138.8380 C   0  0  0  0  0  0  0  0  0  0  0  0
  184.9930  178.5510  138.5150 C   0  0  0  0  0  0  0  0  0  0  0  0
  182.4810  178.7320  138.4470 C   0  0  0  0  0  2  0  0  0  0  0  0
  181.8690  177.4230  137.4200 S   0  0  0  0  0  0  0  0  0  0  0  0
  185.6060  177.5000  135.5790 C   0  0  0  0  0  3  0  0  0  0  0  0
  187.0920  178.3430  143.1550 C   0  0  1  0  0  3  0  0  0  0  0  0
  185.1150  179.1040  145.2130 C   0  0  0  0  0  2  0  0  0  0  0  0
  184.9270  178.9220  139.9810 C   0  0  0  0  0  2  0  0  0  0  0  0
  186.4330  178.0130  136.5050 C   0  0  0  0  0  3  0  0  0  0  0  0
  185.8220  178.5970  142.2910 C   0  0  1  0  0  3  0  0  0  0  0  0
  188.2480  176.7820  144.5990 C   0  0  0  0  0  2  0  0  0  0  0  0
  186.1980  178.2480  137.9600 C   0  0  0  0  0  0  0  0  0  0  0  0
  184.2570  177.0910  135.8220 N   0  0  0  0  0  0  0  0  0  0  0  0
  186.3010  178.1800  145.5620 C   0  0  1  0  0  3  0  0  0  0  0  0
  187.2440  178.0910  140.2330 C   0  0  0  0  0  0  0  0  0  0  0  0
  183.7630  178.8000  137.6790 C   0  0  2  0  0  3  0  0  0  0  0  0
  185.8660  178.0770  140.8420 C   0  0  2  0  0  3  0  0  0  0  0  0
  189.7170  177.8230  139.0690 N   0  0  0  0  0  0  0  0  0  0  0  0
  184.1760  178.4690  144.2260 C   0  0  0  0  0  3  0  0  0  0  0  0
  188.6380  178.0020  138.3030 N   0  0  0  0  0  0  0  0  0  0  0  0
  184.5020  178.2310  142.9440 C   0  0  0  0  0  3  0  0  0  0  0  0
  186.8940  177.4330  144.3500 C   0  0  1  0  0  3  0  0  0  0  0  0
  189.6190  177.7490  140.4220 C   0  0  0  0  0  3  0  0  0  0  0  0
  188.2200  177.7750  142.4430 N   0  0  0  0  0  0  0  0  0  0  0  0
  187.2620  178.7930  146.3990 O   0  0  0  0  0  0  0  0  0  0  0  0
  186.9280  178.5480  147.7450 C   0  0  0  0  0  2  0  0  0  0  0  0
  189.4500  176.3800  147.3440 O   0  0  0  0  0  0  0  0  0  0  0  0
  189.3920  178.6070  148.1230 C   0  0  0  0  0  2  0  0  0  0  0  0
  188.1030  177.9460  148.5100 C   0  0  2  0  0  3  0  0  0  0  0  0
  190.2730  177.4510  147.7200 C   0  0  0  0  0  2  0  0  0  0  0  0
  188.3070  176.4900  148.1510 C   0  0  0  0  0  2  0  0  0  0  0  0
  1 27  1  0  0  0  0
  2 14  1  0  0  0  0
  3  7  1  0  0  0  0
  3 19  1  0  0  0  0
  4 18  1  0  0  0  0
  5 11  1  0  0  0  0
  7  6  1  0  0  0  0
  8 16  1  0  0  0  0
  8 12  2  0  0  0  0
  9 27  1  6  0  0  0
  9 25  1  0  0  0  0
 10 17  1  0  0  0  0
 12 15  1  0  0  0  0
 13 24  1  1  0  0  0
 13  9  1  0  0  0  0
 15  5  2  0  0  0  0
 15  4  1  0  0  0  0
 16  3  2  0  0  0  0
 17 28  1  6  0  0  0
 18 20  1  0  0  0  0
 18  1  2  0  0  0  0
 19  6  1  1  0  0  0
 19  5  1  0  0  0  0
 20 11  1  6  0  0  0
 20 13  1  0  0  0  0
 21 26  2  0  0  0  0
 22 10  1  0  0  0  0
 23  4  2  0  0  0  0
 23 21  1  0  0  0  0
 24 22  2  0  0  0  0
 25 14  1  1  0  0  0
 25 17  1  0  0  0  0
 26  1  1  0  0  0  0
 27  2  1  0  0  0  0
 28 29  1  0  0  0  0
 30 33  1  0  0  0  0
 30 34  1  0  0  0  0
 31 32  1  0  0  0  0
 32 29  1  6  0  0  0
 33 31  1  0  0  0  0
 34 32  1  0  0  0  0
M  END
>  <MODEL>
6

>  <REMARK>
 VINA RESULT:      -8.1      4.259      8.270
  Name = 
  3 active torsions:
  status: ('A' for Active; 'I' for Inactive)
    1  A    between atoms: C_17  and  O_28
    2  A    between atoms: O_28  and  C_29
    3  A    between atoms: C_29  and  C_32
                            x       y       z     vdW  Elec       q    Type
                         _______ _______ _______ _____ _____    ______ ____

>  <TORSDO>
F 3

$$$$
=
 OpenBabel11122412113D

 34 41  0  0  1  0  0  0  0  0999 V2000
  189.8750  176.9570  141.9650 C   0  0  0  0  0  0  0  0  0  0  0  0
  190.1640  177.9950  139.6730 C   0  0  0  0  0  2  0  0  0  0  0  0
  187.4990  178.6440  147.7440 C   0  0  0  0  0  0  0  0  0  0  0  0
  189.6690  176.8020  144.3620 C   0  0  0  0  0  0  0  0  0  0  0  0
  187.6380  177.5090  145.5510 C   0  0  0  0  0  0  0  0  0  0  0  0
  185.5560  178.5230  146.5440 C   0  0  0  0  0  2  0  0  0  0  0  0
  186.0560  179.7540  147.7170 S   0  0  0  0  0  0  0  0  0  0  0  0
  189.6040  177.5950  148.0470 C   0  0  0  0  0  3  0  0  0  0  0  0
  187.9320  177.5450  140.4630 C   0  0  1  0  0  3  0  0  0  0  0  0
  185.3020  178.1920  139.2860 C   0  0  0  0  0  2  0  0  0  0  0  0
  186.9270  177.4870  144.2160 C   0  0  0  0  0  2  0  0  0  0  0  0
  189.7100  176.9310  146.8840 C   0  0  0  0  0  3  0  0  0  0  0  0
  187.0650  177.7660  141.7370 C   0  0  1  0  0  3  0  0  0  0  0  0
  189.1810  178.6110  138.6850 C   0  0  0  0  0  2  0  0  0  0  0  0
  188.9360  177.1030  145.6210 C   0  0  0  0  0  0  0  0  0  0  0  0
  188.6510  178.6270  148.3180 N   0  0  0  0  0  0  0  0  0  0  0  0
  186.6060  178.4950  138.5180 C   0  0  1  0  0  3  0  0  0  0  0  0
  189.1210  177.1600  143.1200 C   0  0  0  0  0  0  0  0  0  0  0  0
  186.7960  177.7210  146.7840 C   0  0  2  0  0  3  0  0  0  0  0  0
  187.8280  177.9310  143.0640 C   0  0  2  0  0  3  0  0  0  0  0  0
  191.6120  176.0160  143.2870 N   0  0  0  0  0  0  0  0  0  0  0  0
  185.1870  179.0020  140.5460 C   0  0  0  0  0  3  0  0  0  0  0  0
  190.9040  176.2300  144.3980 N   0  0  0  0  0  0  0  0  0  0  0  0
  185.9810  178.8210  141.6150 C   0  0  0  0  0  3  0  0  0  0  0  0
  187.8470  178.6410  139.4210 C   0  0  1  0  0  3  0  0  0  0  0  0
  191.1370  176.3720  142.0660 C   0  0  0  0  0  3  0  0  0  0  0  0
  189.3510  177.3750  140.7050 N   0  0  0  0  0  0  0  0  0  0  0  0
  186.7980  177.6660  137.3880 O   0  0  0  0  0  0  0  0  0  0  0  0
  185.5730  177.0630  137.0420 C   0  0  0  0  0  2  0  0  0  0  0  0
  187.6800  174.4600  136.9720 O   0  0  0  0  0  0  0  0  0  0  0  0
  185.3310  174.5840  137.1620 C   0  0  0  0  0  2  0  0  0  0  0  0
  185.7900  175.7370  136.3200 C   0  0  2  0  0  3  0  0  0  0  0  0
  186.5390  173.6820  137.2130 C   0  0  0  0  0  2  0  0  0  0  0  0
  187.2630  175.4690  136.0900 C   0  0  0  0  0  2  0  0  0  0  0  0
  1 26  2  0  0  0  0
  1 18  1  0  0  0  0
  2 27  1  0  0  0  0
  3 16  2  0  0  0  0
  4 23  1  0  0  0  0
  4 15  1  0  0  0  0
  5 15  2  0  0  0  0
  5 19  1  0  0  0  0
  6  7  1  0  0  0  0
  7  3  1  0  0  0  0
  8 16  1  0  0  0  0
  9 27  1  1  0  0  0
  9 13  1  0  0  0  0
 10 22  1  0  0  0  0
 11  5  1  0  0  0  0
 12  8  2  0  0  0  0
 13 24  1  6  0  0  0
 13 20  1  0  0  0  0
 14  2  1  0  0  0  0
 15 12  1  0  0  0  0
 17 28  1  6  0  0  0
 17 10  1  0  0  0  0
 17 25  1  0  0  0  0
 18  4  2  0  0  0  0
 19  6  1  6  0  0  0
 19  3  1  0  0  0  0
 20 18  1  0  0  0  0
 20 11  1  1  0  0  0
 21 23  2  0  0  0  0
 22 24  2  0  0  0  0
 25 14  1  6  0  0  0
 25  9  1  0  0  0  0
 26 21  1  0  0  0  0
 27  1  1  0  0  0  0
 29 28  1  0  0  0  0
 30 33  1  0  0  0  0
 31 33  1  0  0  0  0
 32 29  1  1  0  0  0
 32 31  1  0  0  0  0
 34 32  1  0  0  0  0
 34 30  1  0  0  0  0
M  END
>  <MODEL>
7

>  <REMARK>
 VINA RESULT:      -8.1      3.004      4.174
  Name = 
  3 active torsions:
  status: ('A' for Active; 'I' for Inactive)
    1  A    between atoms: C_17  and  O_28
    2  A    between atoms: O_28  and  C_29
    3  A    between atoms: C_29  and  C_32
                            x       y       z     vdW  Elec       q    Type
                         _______ _______ _______ _____ _____    ______ ____

>  <TORSDO>
F 3

$$$$
=
 OpenBabel11122412113D

 34 41  0  0  1  0  0  0  0  0999 V2000
  186.2290  178.3320  140.0690 C   0  0  0  0  0  0  0  0  0  0  0  0
  184.5540  179.7830  138.8440 C   0  0  0  0  0  2  0  0  0  0  0  0
  189.0270  178.0900  145.9000 C   0  0  0  0  0  0  0  0  0  0  0  0
  187.9600  177.7080  141.6280 C   0  0  0  0  0  0  0  0  0  0  0  0
  187.5290  177.4640  144.0350 C   0  0  0  0  0  0  0  0  0  0  0  0
  186.8870  177.5210  146.4710 C   0  0  0  0  0  2  0  0  0  0  0  0
  187.9950  178.6280  147.3000 S   0  0  0  0  0  0  0  0  0  0  0  0
  190.6840  177.7860  144.2310 C   0  0  0  0  0  3  0  0  0  0  0  0
  183.7930  178.4700  140.7170 C   0  0  1  0  0  3  0  0  0  0  0  0
  181.1670  178.3730  142.0650 C   0  0  0  0  0  2  0  0  0  0  0  0
  186.0530  177.4300  143.7020 C   0  0  0  0  0  2  0  0  0  0  0  0
  189.9160  177.4080  143.1970 C   0  0  0  0  0  3  0  0  0  0  0  0
  184.2060  178.1600  142.1860 C   0  0  1  0  0  3  0  0  0  0  0  0
  183.1170  180.1870  139.1500 C   0  0  0  0  0  2  0  0  0  0  0  0
  188.4380  177.5200  143.0230 C   0  0  0  0  0  0  0  0  0  0  0  0
  190.1980  178.3690  145.4440 N   0  0  0  0  0  0  0  0  0  0  0  0
  181.3720  179.2300  140.7970 C   0  0  1  0  0  3  0  0  0  0  0  0
  186.6250  178.0640  141.3790 C   0  0  0  0  0  0  0  0  0  0  0  0
  187.9270  177.1620  145.4570 C   0  0  2  0  0  3  0  0  0  0  0  0
  185.6960  178.3460  142.5300 C   0  0  2  0  0  3  0  0  0  0  0  0
  188.4300  177.8280  139.3230 N   0  0  0  0  0  0  0  0  0  0  0  0
  181.9920  178.8670  143.2190 C   0  0  0  0  0  3  0  0  0  0  0  0
  188.8190  177.5930  140.5780 N   0  0  0  0  0  0  0  0  0  0  0  0
  183.3330  178.7870  143.2570 C   0  0  0  0  0  3  0  0  0  0  0  0
  182.8380  179.6330  140.5420 C   0  0  1  0  0  3  0  0  0  0  0  0
  187.1570  178.2050  139.0350 C   0  0  0  0  0  3  0  0  0  0  0  0
  184.8910  178.7560  139.8140 N   0  0  0  0  0  0  0  0  0  0  0  0
  180.6980  178.7230  139.6620 O   0  0  0  0  0  0  0  0  0  0  0  0
  180.2250  177.4270  139.9430 C   0  0  0  0  0  2  0  0  0  0  0  0
  182.6930  176.9920  137.7200 O   0  0  0  0  0  0  0  0  0  0  0  0
  181.8780  175.6220  139.4610 C   0  0  0  0  0  2  0  0  0  0  0  0
  180.7280  176.4160  138.9170 C   0  0  2  0  0  3  0  0  0  0  0  0
  182.9560  175.8060  138.4210 C   0  0  0  0  0  2  0  0  0  0  0  0
  181.2950  177.1070  137.6950 C   0  0  0  0  0  2  0  0  0  0  0  0
  1 18  1  0  0  0  0
  2 14  1  0  0  0  0
  2 27  1  0  0  0  0
  3  7  1  0  0  0  0
  4 15  1  0  0  0  0
  5 19  1  0  0  0  0
  6  7  1  0  0  0  0
  8 16  1  0  0  0  0
  9 27  1  6  0  0  0
  9 13  1  0  0  0  0
 10 22  1  0  0  0  0
 11  5  1  0  0  0  0
 12  8  2  0  0  0  0
 13 20  1  0  0  0  0
 13 24  1  1  0  0  0
 15 12  1  0  0  0  0
 15  5  2  0  0  0  0
 16  3  2  0  0  0  0
 17 28  1  6  0  0  0
 17 10  1  0  0  0  0
 18  4  2  0  0  0  0
 18 20  1  0  0  0  0
 19  3  1  0  0  0  0
 19  6  1  1  0  0  0
 20 11  1  1  0  0  0
 21 23  2  0  0  0  0
 22 24  2  0  0  0  0
 23  4  1  0  0  0  0
 25 14  1  6  0  0  0
 25  9  1  0  0  0  0
 25 17  1  0  0  0  0
 26 21  1  0  0  0  0
 26  1  2  0  0  0  0
 27  1  1  0  0  0  0
 28 29  1  0  0  0  0
 30 33  1  0  0  0  0
 32 31  1  0  0  0  0
 32 29  1  1  0  0  0
 33 31  1  0  0  0  0
 34 30  1  0  0  0  0
 34 32  1  0  0  0  0
M  END
>  <MODEL>
8

>  <REMARK>
 VINA RESULT:      -7.9      4.439      7.802
  Name = 
  3 active torsions:
  status: ('A' for Active; 'I' for Inactive)
    1  A    between atoms: C_17  and  O_28
    2  A    between atoms: O_28  and  C_29
    3  A    between atoms: C_29  and  C_32
                            x       y       z     vdW  Elec       q    Type
                         _______ _______ _______ _____ _____    ______ ____

>  <TORSDO>
F 3

$$$$
=
 OpenBabel11122412113D

 34 41  0  0  1  0  0  0  0  0999 V2000
  187.8540  177.4360  141.9810 C   0  0  0  0  0  0  0  0  0  0  0  0
  186.5250  178.9560  140.4540 C   0  0  0  0  0  2  0  0  0  0  0  0
  190.2110  177.5380  148.0090 C   0  0  0  0  0  0  0  0  0  0  0  0
  189.3570  176.7600  143.7420 C   0  0  0  0  0  0  0  0  0  0  0  0
  188.7450  176.9140  146.1170 C   0  0  0  0  0  0  0  0  0  0  0  0
  187.9740  177.3980  148.4660 C   0  0  0  0  0  2  0  0  0  0  0  0
  189.2000  178.4170  149.2420 S   0  0  0  0  0  0  0  0  0  0  0  0
  191.8920  176.7530  146.5310 C   0  0  0  0  0  3  0  0  0  0  0  0
  185.4410  178.0450  142.4050 C   0  0  1  0  0  3  0  0  0  0  0  0
  182.7590  178.5480  143.5340 C   0  0  0  0  0  2  0  0  0  0  0  0
  187.3080  177.0700  145.6700 C   0  0  0  0  0  2  0  0  0  0  0  0
  191.1350  176.3670  145.4920 C   0  0  0  0  0  3  0  0  0  0  0  0
  185.7060  177.8740  143.9290 C   0  0  1  0  0  3  0  0  0  0  0  0
  185.1600  179.6210  140.5890 C   0  0  0  0  0  2  0  0  0  0  0  0
  189.7110  176.6870  145.1850 C   0  0  0  0  0  0  0  0  0  0  0  0
  191.4380  177.5630  147.6200 N   0  0  0  0  0  0  0  0  0  0  0  0
  183.1820  179.1830  142.1920 C   0  0  1  0  0  3  0  0  0  0  0  0
  188.1190  177.2870  143.3420 C   0  0  0  0  0  0  0  0  0  0  0  0
  188.9990  176.7450  147.5940 C   0  0  2  0  0  3  0  0  0  0  0  0
  187.1810  177.8650  144.3700 C   0  0  2  0  0  3  0  0  0  0  0  0
  189.9800  176.4930  141.4860 N   0  0  0  0  0  0  0  0  0  0  0  0
  183.5830  179.0550  144.6830 C   0  0  0  0  0  3  0  0  0  0  0  0
  190.2470  176.3700  142.7880 N   0  0  0  0  0  0  0  0  0  0  0  0
  184.8870  178.7700  144.8400 C   0  0  0  0  0  3  0  0  0  0  0  0
  184.7080  179.3110  142.0100 C   0  0  1  0  0  3  0  0  0  0  0  0
  188.8090  177.0250  141.0510 C   0  0  0  0  0  3  0  0  0  0  0  0
  186.6250  178.0280  141.5670 N   0  0  0  0  0  0  0  0  0  0  0  0
  182.5030  178.6420  141.0760 O   0  0  0  0  0  0  0  0  0  0  0  0
  181.2340  178.1860  141.4810 C   0  0  0  0  0  2  0  0  0  0  0  0
  180.0570  181.2510  140.8180 O   0  0  0  0  0  0  0  0  0  0  0  0
  180.6300  179.4420  139.4140 C   0  0  0  0  0  2  0  0  0  0  0  0
  180.1190  178.8820  140.7080 C   0  0  2  0  0  3  0  0  0  0  0  0
  180.2200  180.8930  139.4720 C   0  0  0  0  0  2  0  0  0  0  0  0
  179.5980  180.0900  141.4580 C   0  0  0  0  0  2  0  0  0  0  0  0
  1 18  1  0  0  0  0
  2 14  1  0  0  0  0
  2 27  1  0  0  0  0
  3  7  1  0  0  0  0
  4 15  1  0  0  0  0
  5 19  1  0  0  0  0
  6  7  1  0  0  0  0
  8 16  1  0  0  0  0
  9 27  1  6  0  0  0
  9 13  1  0  0  0  0
 10 22  1  0  0  0  0
 11  5  1  0  0  0  0
 12  8  2  0  0  0  0
 13 20  1  0  0  0  0
 13 24  1  1  0  0  0
 15 12  1  0  0  0  0
 15  5  2  0  0  0  0
 16  3  2  0  0  0  0
 17 28  1  6  0  0  0
 17 10  1  0  0  0  0
 18  4  2  0  0  0  0
 18 20  1  0  0  0  0
 19  3  1  0  0  0  0
 19  6  1  1  0  0  0
 20 11  1  1  0  0  0
 21 23  2  0  0  0  0
 22 24  2  0  0  0  0
 23  4  1  0  0  0  0
 25 14  1  6  0  0  0
 25 17  1  0  0  0  0
 25  9  1  0  0  0  0
 26 21  1  0  0  0  0
 26  1  2  0  0  0  0
 27  1  1  0  0  0  0
 28 29  1  0  0  0  0
 30 34  1  0  0  0  0
 31 33  1  0  0  0  0
 31 32  1  0  0  0  0
 32 34  1  0  0  0  0
 32 29  1  1  0  0  0
 33 30  1  0  0  0  0
M  END
>  <MODEL>
9

>  <REMARK>
 VINA RESULT:      -7.7      4.504      8.102
  Name = 
  3 active torsions:
  status: ('A' for Active; 'I' for Inactive)
    1  A    between atoms: C_17  and  O_28
    2  A    between atoms: O_28  and  C_29
    3  A    between atoms: C_29  and  C_32
                            x       y       z     vdW  Elec       q    Type
                         _______ _______ _______ _____ _____    ______ ____

>  <TORSDO>
F 3

$$$$
