=
 OpenBabel11122412093D

 34 42  0  0  1  0  0  0  0  0999 V2000
  182.3500  178.8280  143.3550 C   0  0  0  0  0  0  0  0  0  0  0  0
  183.7730  178.8270  145.4500 C   0  0  0  0  0  2  0  0  0  0  0  0
  181.3070  180.1750  137.4390 C   0  0  2  0  0  3  0  0  0  0  0  0
  181.1090  178.4570  141.3250 C   0  0  0  0  0  0  0  0  0  0  0  0
  182.2720  178.4010  139.0710 C   0  0  1  0  0  3  0  0  0  0  0  0
  182.0320  180.8250  139.3230 O   0  0  0  0  0  0  0  0  0  0  0  0
  181.0100  181.2630  138.4570 C   0  0  0  0  0  2  0  0  0  0  0  0
  179.4000  179.0810  138.3100 C   0  0  0  0  0  2  0  0  0  0  0  0
  184.8430  179.2680  143.3200 C   0  0  2  0  0  3  0  0  0  0  0  0
  187.1750  177.1690  142.7360 C   0  0  0  0  0  2  0  0  0  0  0  0
  183.5280  178.0450  139.8690 C   0  0  0  0  0  2  0  0  0  0  0  0
  179.8010  177.9500  139.2410 C   0  0  0  0  0  2  0  0  0  0  0  0
  184.8590  178.5130  141.9770 C   0  0  1  0  0  3  0  0  0  0  0  0
  185.2540  179.0260  145.7060 C   0  0  0  0  0  2  0  0  0  0  0  0
  181.0620  178.2710  139.8970 N   0  0  0  0  0  0  0  0  0  0  0  0
  180.3150  179.1670  137.2410 O   0  0  0  0  0  0  0  0  0  0  0  0
  186.8200  177.6840  144.1280 C   0  0  1  0  0  0  0  0  0  0  0  0
  182.3360  178.6930  141.9610 C   0  0  0  0  0  0  0  0  0  0  0  0
  182.3940  179.7990  138.4290 C   0  0  2  0  0  3  0  0  0  0  0  0
  183.6050  178.8640  141.1600 C   0  0  2  0  0  3  0  0  0  0  0  0
  180.0110  178.4860  143.4240 C   0  0  0  0  0  3  0  0  0  0  0  0
  187.4130  178.3350  141.7900 C   0  0  0  0  0  2  0  0  0  0  0  0
  179.9750  178.3580  142.0720 N   0  0  0  0  0  0  0  0  0  0  0  0
  186.1150  178.8480  141.1660 C   0  0  0  0  0  2  0  0  0  0  0  0
  185.9610  178.9770  144.3440 C   0  0  1  0  0  3  0  0  0  0  0  0
  181.1910  178.7140  144.0570 N   0  0  0  0  0  0  0  0  0  0  0  0
  183.5960  179.0330  144.0300 N   0  0  0  0  0  0  0  0  0  0  0  0
  186.5780  176.6540  145.0560 O   0  0  0  0  0  0  0  0  0  0  0  0
  187.8530  177.2660  145.1210 C   0  0  2  0  0  3  0  0  0  0  0  0
  187.9550  177.6250  148.6540 C   0  0  0  0  0  2  0  0  0  0  0  0
  189.3930  178.1800  146.8410 C   0  0  0  0  0  2  0  0  0  0  0  0
  187.9630  178.1350  146.3650 C   0  0  2  0  0  3  0  0  0  0  0  0
  189.2690  178.3000  148.3310 C   0  0  0  0  0  2  0  0  0  0  0  0
  187.1480  177.5790  147.4390 N   0  0  0  0  0  2  0  0  0  0  0  0
  1 27  1  0  0  0  0
  1 26  1  0  0  0  0
  2 14  1  0  0  0  0
  3 19  1  0  0  0  0
  3  7  1  1  0  0  0
  4 18  1  0  0  0  0
  4 23  2  0  0  0  0
  5 11  1  1  0  0  0
  5 15  1  0  0  0  0
  7  6  1  0  0  0  0
  8 12  1  0  0  0  0
  9 27  1  1  0  0  0
  9 25  1  0  0  0  0
 12 15  1  0  0  0  0
 13 24  1  6  0  0  0
 13  9  1  0  0  0  0
 15  4  1  0  0  0  0
 16  3  1  0  0  0  0
 16  8  1  0  0  0  0
 17 10  1  6  0  0  0
 17 25  1  0  0  0  0
 17 28  1  0  0  0  0
 17 29  1  0  0  0  0
 18  1  2  0  0  0  0
 19  5  1  0  0  0  0
 19  6  1  1  0  0  0
 20 11  1  6  0  0  0
 20 18  1  0  0  0  0
 20 13  1  0  0  0  0
 21 26  2  0  0  0  0
 22 10  1  0  0  0  0
 23 21  1  0  0  0  0
 24 22  1  0  0  0  0
 25 14  1  1  0  0  0
 27  2  1  0  0  0  0
 29 28  1  1  0  0  0
 29 32  1  0  0  0  0
 31 33  1  0  0  0  0
 32 31  1  1  0  0  0
 32 34  1  0  0  0  0
 33 30  1  0  0  0  0
 34 30  1  0  0  0  0
M  END
>  <MODEL>
1

>  <REMARK>
 VINA RESULT:      -9.5      0.000      0.000
  Name = 
  1 active torsions:
  status: ('A' for Active; 'I' for Inactive)
    1  A    between atoms: C_29  and  C_32
                            x       y       z     vdW  Elec       q    Type
                         _______ _______ _______ _____ _____    ______ ____

>  <TORSDO>
F 1

$$$$
=
 OpenBabel11122412093D

 34 42  0  0  1  0  0  0  0  0999 V2000
  187.7780  177.7740  140.1630 C   0  0  0  0  0  0  0  0  0  0  0  0
  185.9170  178.5750  138.6430 C   0  0  0  0  0  2  0  0  0  0  0  0
  190.9490  177.8250  145.4390 C   0  0  2  0  0  3  0  0  0  0  0  0
  189.3170  176.7040  141.6760 C   0  0  0  0  0  0  0  0  0  0  0  0
  188.9410  176.7620  144.1840 C   0  0  1  0  0  3  0  0  0  0  0  0
  190.0130  178.9460  143.9010 O   0  0  0  0  0  0  0  0  0  0  0  0
  191.3300  178.8620  144.3950 C   0  0  0  0  0  2  0  0  0  0  0  0
  191.9380  176.2480  143.9820 C   0  0  0  0  0  2  0  0  0  0  0  0
  185.7780  179.0740  141.0110 C   0  0  2  0  0  3  0  0  0  0  0  0
  183.1000  177.9010  142.2900 C   0  0  0  0  0  2  0  0  0  0  0  0
  187.4700  176.9970  143.8320 C   0  0  0  0  0  2  0  0  0  0  0  0
  190.8770  175.4770  143.2150 C   0  0  0  0  0  2  0  0  0  0  0  0
  185.8680  178.2000  142.2760 C   0  0  1  0  0  3  0  0  0  0  0  0
  184.6230  179.3280  138.8840 C   0  0  0  0  0  2  0  0  0  0  0  0
  189.7050  176.3190  143.0080 N   0  0  0  0  0  0  0  0  0  0  0  0
  191.4860  176.5100  145.2900 O   0  0  0  0  0  0  0  0  0  0  0  0
  183.2000  178.4390  140.8660 C   0  0  1  0  0  0  0  0  0  0  0  0
  188.1470  177.4530  141.4750 C   0  0  0  0  0  0  0  0  0  0  0  0
  189.5620  178.0070  144.8500 C   0  0  2  0  0  3  0  0  0  0  0  0
  187.3400  177.9580  142.6470 C   0  0  2  0  0  3  0  0  0  0  0  0
  189.6700  176.6220  139.3340 C   0  0  0  0  0  3  0  0  0  0  0  0
  183.6210  178.9320  143.2790 C   0  0  0  0  0  2  0  0  0  0  0  0
  190.0490  176.3050  140.6000 N   0  0  0  0  0  0  0  0  0  0  0  0
  185.1380  178.8510  143.4550 C   0  0  0  0  0  2  0  0  0  0  0  0
  184.3870  179.3510  140.4010 C   0  0  1  0  0  3  0  0  0  0  0  0
  188.5400  177.3470  139.1220 N   0  0  0  0  0  0  0  0  0  0  0  0
  186.5690  178.5050  139.9320 N   0  0  0  0  0  0  0  0  0  0  0  0
  182.7410  177.5300  139.8950 O   0  0  0  0  0  0  0  0  0  0  0  0
  181.8440  178.5630  140.2560 C   0  0  2  0  0  3  0  0  0  0  0  0
  180.2300  179.7520  137.3230 C   0  0  0  0  0  2  0  0  0  0  0  0
  180.6980  180.6270  139.4860 C   0  0  0  0  0  2  0  0  0  0  0  0
  181.7180  179.5760  139.1280 C   0  0  2  0  0  3  0  0  0  0  0  0
  180.0910  181.0000  138.1660 C   0  0  0  0  0  2  0  0  0  0  0  0
  181.2710  178.9130  137.9070 N   0  0  0  0  0  2  0  0  0  0  0  0
  1 18  1  0  0  0  0
  2 14  1  0  0  0  0
  2 27  1  0  0  0  0
  3  7  1  6  0  0  0
  4 15  1  0  0  0  0
  5 11  1  6  0  0  0
  5 19  1  0  0  0  0
  6  7  1  0  0  0  0
  8 16  1  0  0  0  0
  9 27  1  6  0  0  0
  9 13  1  0  0  0  0
 10 22  1  0  0  0  0
 12  8  1  0  0  0  0
 13 20  1  0  0  0  0
 13 24  1  1  0  0  0
 15 12  1  0  0  0  0
 15  5  1  0  0  0  0
 16  3  1  0  0  0  0
 17 10  1  1  0  0  0
 18  4  2  0  0  0  0
 18 20  1  0  0  0  0
 19  6  1  6  0  0  0
 19  3  1  0  0  0  0
 20 11  1  1  0  0  0
 21 23  2  0  0  0  0
 22 24  1  0  0  0  0
 23  4  1  0  0  0  0
 25 14  1  6  0  0  0
 25 17  1  0  0  0  0
 25  9  1  0  0  0  0
 26 21  1  0  0  0  0
 26  1  2  0  0  0  0
 27  1  1  0  0  0  0
 28 17  1  0  0  0  0
 29 28  1  6  0  0  0
 29 17  1  0  0  0  0
 30 34  1  0  0  0  0
 30 33  1  0  0  0  0
 32 31  1  1  0  0  0
 32 29  1  0  0  0  0
 33 31  1  0  0  0  0
 34 32  1  0  0  0  0
M  END
>  <MODEL>
2

>  <REMARK>
 VINA RESULT:      -9.2      3.091      8.999
  Name = 
  1 active torsions:
  status: ('A' for Active; 'I' for Inactive)
    1  A    between atoms: C_29  and  C_32
                            x       y       z     vdW  Elec       q    Type
                         _______ _______ _______ _____ _____    ______ ____

>  <TORSDO>
F 1

$$$$
=
 OpenBabel11122412093D

 34 42  0  0  1  0  0  0  0  0999 V2000
  187.5320  177.6640  140.9760 C   0  0  0  0  0  0  0  0  0  0  0  0
  189.5670  176.8730  142.2600 C   0  0  0  0  0  2  0  0  0  0  0  0
  181.4600  178.1500  140.0910 C   0  0  2  0  0  3  0  0  0  0  0  0
  185.6650  178.7620  139.9240 C   0  0  0  0  0  0  0  0  0  0  0  0
  183.5320  179.2400  141.2120 C   0  0  1  0  0  3  0  0  0  0  0  0
  183.1020  176.9080  140.6010 O   0  0  0  0  0  0  0  0  0  0  0  0
  182.1330  176.8890  139.5770 C   0  0  0  0  0  2  0  0  0  0  0  0
  182.5690  179.2560  138.3210 C   0  0  0  0  0  2  0  0  0  0  0  0
  187.4150  176.8610  143.3740 C   0  0  2  0  0  3  0  0  0  0  0  0
  187.4690  178.6410  146.0220 C   0  0  0  0  0  2  0  0  0  0  0  0
  184.4160  179.1640  142.4590 C   0  0  0  0  0  2  0  0  0  0  0  0
  183.7830  180.0150  138.8300 C   0  0  0  0  0  2  0  0  0  0  0  0
  186.3330  177.9380  143.5800 C   0  0  1  0  0  3  0  0  0  0  0  0
  189.7810  176.3800  143.6780 C   0  0  0  0  0  2  0  0  0  0  0  0
  184.3430  179.3330  139.9890 N   0  0  0  0  0  0  0  0  0  0  0  0
  181.5330  179.3190  139.2730 O   0  0  0  0  0  0  0  0  0  0  0  0
  188.6580  177.8320  145.5150 C   0  0  1  0  0  0  0  0  0  0  0  0
  186.2300  178.1710  141.0640 C   0  0  0  0  0  0  0  0  0  0  0  0
  182.5310  178.0670  141.1630 C   0  0  2  0  0  3  0  0  0  0  0  0
  185.4310  178.0240  142.3380 C   0  0  2  0  0  3  0  0  0  0  0  0
  187.6580  178.3420  138.7140 C   0  0  0  0  0  3  0  0  0  0  0  0
  186.2400  177.7520  146.1390 C   0  0  0  0  0  2  0  0  0  0  0  0
  186.3930  178.8350  138.7770 N   0  0  0  0  0  0  0  0  0  0  0  0
  185.4790  177.6390  144.8180 C   0  0  0  0  0  2  0  0  0  0  0  0
  188.4960  176.6830  144.4620 C   0  0  1  0  0  3  0  0  0  0  0  0
  188.2210  177.7670  139.8090 N   0  0  0  0  0  0  0  0  0  0  0  0
  188.1430  177.0900  142.1370 N   0  0  0  0  0  0  0  0  0  0  0  0
  189.8310  178.5980  145.3740 O   0  0  0  0  0  0  0  0  0  0  0  0
  189.7440  177.7970  146.5390 C   0  0  2  0  0  3  0  0  0  0  0  0
  192.6710  176.0890  147.6010 C   0  0  0  0  0  2  0  0  0  0  0  0
  190.3500  175.5820  147.4840 C   0  0  0  0  0  2  0  0  0  0  0  0
  190.7000  176.6180  146.4460 C   0  0  2  0  0  3  0  0  0  0  0  0
  191.6730  174.9800  147.8490 C   0  0  0  0  0  2  0  0  0  0  0  0
  192.0670  177.0610  146.6960 N   0  0  0  0  0  2  0  0  0  0  0  0
  1 18  1  0  0  0  0
  1 27  1  0  0  0  0
  2 14  1  0  0  0  0
  3  7  1  6  0  0  0
  3 19  1  0  0  0  0
  4 15  1  0  0  0  0
  4 18  2  0  0  0  0
  5 11  1  1  0  0  0
  7  6  1  0  0  0  0
  8 12  1  0  0  0  0
  8 16  1  0  0  0  0
  9 27  1  6  0  0  0
  9 13  1  0  0  0  0
  9 25  1  0  0  0  0
 10 22  1  0  0  0  0
 12 15  1  0  0  0  0
 13 24  1  1  0  0  0
 15  5  1  0  0  0  0
 16  3  1  0  0  0  0
 17 10  1  1  0  0  0
 17 29  1  0  0  0  0
 18 20  1  0  0  0  0
 19  6  1  6  0  0  0
 19  5  1  0  0  0  0
 20 11  1  1  0  0  0
 20 13  1  0  0  0  0
 21 23  2  0  0  0  0
 21 26  1  0  0  0  0
 23  4  1  0  0  0  0
 24 22  1  0  0  0  0
 25 14  1  6  0  0  0
 25 17  1  0  0  0  0
 26  1  2  0  0  0  0
 27  2  1  0  0  0  0
 28 17  1  0  0  0  0
 29 28  1  6  0  0  0
 30 33  1  0  0  0  0
 31 33  1  0  0  0  0
 32 29  1  0  0  0  0
 32 34  1  0  0  0  0
 32 31  1  1  0  0  0
 34 30  1  0  0  0  0
M  END
>  <MODEL>
3

>  <REMARK>
 VINA RESULT:      -7.8      2.760      4.541
  Name = 
  1 active torsions:
  status: ('A' for Active; 'I' for Inactive)
    1  A    between atoms: C_29  and  C_32
                            x       y       z     vdW  Elec       q    Type
                         _______ _______ _______ _____ _____    ______ ____

>  <TORSDO>
F 1

$$$$
=
 OpenBabel11122412093D

 34 42  0  0  1  0  0  0  0  0999 V2000
  186.1990  178.6280  140.4440 C   0  0  0  0  0  0  0  0  0  0  0  0
  188.6810  178.2100  140.1560 C   0  0  0  0  0  2  0  0  0  0  0  0
  180.6160  180.1380  138.3360 C   0  0  2  0  0  3  0  0  0  0  0  0
  183.8060  178.6360  140.7140 C   0  0  0  0  0  0  0  0  0  0  0  0
  182.2650  178.1770  138.7520 C   0  0  1  0  0  3  0  0  0  0  0  0
  182.6950  180.5550  138.3590 O   0  0  0  0  0  0  0  0  0  0  0  0
  181.5410  181.2810  138.7190 C   0  0  0  0  0  2  0  0  0  0  0  0
  180.4570  179.7200  140.6580 C   0  0  0  0  0  2  0  0  0  0  0  0
  187.2740  178.2530  138.1830 C   0  0  2  0  0  3  0  0  0  0  0  0
  187.4700  175.5130  136.5580 C   0  0  0  0  0  2  0  0  0  0  0  0
  183.4670  177.4530  138.1400 C   0  0  0  0  0  2  0  0  0  0  0  0
  181.3200  178.5360  141.0580 C   0  0  0  0  0  2  0  0  0  0  0  0
  185.9800  177.5100  137.7990 C   0  0  1  0  0  3  0  0  0  0  0  0
  189.5600  177.9320  138.9530 C   0  0  0  0  0  2  0  0  0  0  0  0
  182.4810  178.4510  140.1810 N   0  0  0  0  0  0  0  0  0  0  0  0
  179.8930  179.4930  139.3870 O   0  0  0  0  0  0  0  0  0  0  0  0
  188.6340  176.1370  137.3200 C   0  0  1  0  0  0  0  0  0  0  0  0
  184.9250  178.4810  139.8830 C   0  0  0  0  0  0  0  0  0  0  0  0
  181.9160  179.4520  137.9580 C   0  0  2  0  0  3  0  0  0  0  0  0
  184.7610  178.2270  138.4020 C   0  0  2  0  0  3  0  0  0  0  0  0
  185.2320  179.0460  142.5610 C   0  0  0  0  0  3  0  0  0  0  0  0
  186.8660  176.5280  135.5990 C   0  0  0  0  0  2  0  0  0  0  0  0
  183.9870  178.9140  142.0350 N   0  0  0  0  0  0  0  0  0  0  0  0
  185.8230  177.4150  136.2780 C   0  0  0  0  0  2  0  0  0  0  0  0
  188.6290  177.6380  137.7680 C   0  0  1  0  0  3  0  0  0  0  0  0
  186.3270  178.8990  141.7700 N   0  0  0  0  0  0  0  0  0  0  0  0
  187.3570  178.4370  139.6230 N   0  0  0  0  0  0  0  0  0  0  0  0
  189.2370  175.2530  138.2350 O   0  0  0  0  0  0  0  0  0  0  0  0
  189.9090  175.4290  137.0020 C   0  0  2  0  0  3  0  0  0  0  0  0
  193.3290  175.6500  137.9380 C   0  0  0  0  0  2  0  0  0  0  0  0
  192.0620  176.1300  135.9820 C   0  0  0  0  0  2  0  0  0  0  0  0
  191.1810  176.2390  137.2020 C   0  0  2  0  0  3  0  0  0  0  0  0
  193.4530  176.2080  136.5380 C   0  0  0  0  0  2  0  0  0  0  0  0
  191.9290  175.7250  138.3430 N   0  0  0  0  0  2  0  0  0  0  0  0
  1 26  1  0  0  0  0
  3  7  1  1  0  0  0
  3 16  1  0  0  0  0
  4 23  2  0  0  0  0
  5 11  1  6  0  0  0
  5 15  1  0  0  0  0
  6  7  1  0  0  0  0
  8 12  1  0  0  0  0
  9 27  1  1  0  0  0
 13 24  1  6  0  0  0
 13  9  1  0  0  0  0
 13 20  1  0  0  0  0
 14  2  1  0  0  0  0
 15  4  1  0  0  0  0
 15 12  1  0  0  0  0
 16  8  1  0  0  0  0
 17 10  1  6  0  0  0
 17 25  1  0  0  0  0
 17 28  1  0  0  0  0
 18  1  2  0  0  0  0
 18  4  1  0  0  0  0
 19  3  1  0  0  0  0
 19  6  1  1  0  0  0
 19  5  1  0  0  0  0
 20 11  1  1  0  0  0
 20 18  1  0  0  0  0
 22 24  1  0  0  0  0
 22 10  1  0  0  0  0
 23 21  1  0  0  0  0
 25  9  1  0  0  0  0
 25 14  1  1  0  0  0
 26 21  2  0  0  0  0
 27  2  1  0  0  0  0
 27  1  1  0  0  0  0
 29 32  1  0  0  0  0
 29 17  1  0  0  0  0
 29 28  1  1  0  0  0
 30 34  1  0  0  0  0
 31 33  1  0  0  0  0
 32 31  1  6  0  0  0
 32 34  1  0  0  0  0
 33 30  1  0  0  0  0
M  END
>  <MODEL>
4

>  <REMARK>
 VINA RESULT:      -7.6      4.433      6.293
  Name = 
  1 active torsions:
  status: ('A' for Active; 'I' for Inactive)
    1  A    between atoms: C_29  and  C_32
                            x       y       z     vdW  Elec       q    Type
                         _______ _______ _______ _____ _____    ______ ____

>  <TORSDO>
F 1

$$$$
=
 OpenBabel11122412093D

 34 42  0  0  1  0  0  0  0  0999 V2000
  191.2360  176.6200  138.6670 C   0  0  0  0  0  0  0  0  0  0  0  0
  189.1490  177.5710  139.7430 C   0  0  0  0  0  2  0  0  0  0  0  0
  194.1870  172.6720  134.9790 C   0  0  2  0  0  3  0  0  0  0  0  0
  193.1970  176.0240  137.4040 C   0  0  0  0  0  0  0  0  0  0  0  0
  193.0030  174.9790  135.1000 C   0  0  1  0  0  3  0  0  0  0  0  0
  192.7010  172.9680  136.4640 O   0  0  0  0  0  0  0  0  0  0  0  0
  193.8810  172.2010  136.3910 C   0  0  0  0  0  2  0  0  0  0  0  0
  195.7820  174.0980  135.9860 C   0  0  0  0  0  2  0  0  0  0  0  0
  188.9060  176.1500  137.7950 C   0  0  2  0  0  3  0  0  0  0  0  0
  187.3740  177.6620  135.4390 C   0  0  0  0  0  2  0  0  0  0  0  0
  191.6210  175.6360  135.0560 C   0  0  0  0  0  2  0  0  0  0  0  0
  195.2630  175.5230  136.0660 C   0  0  0  0  0  2  0  0  0  0  0  0
  189.5320  176.1810  136.3880 C   0  0  1  0  0  3  0  0  0  0  0  0
  187.6710  177.4770  139.4180 C   0  0  0  0  0  2  0  0  0  0  0  0
  193.8120  175.5160  136.2040 N   0  0  0  0  0  0  0  0  0  0  0  0
  195.3400  173.4940  134.7930 O   0  0  0  0  0  0  0  0  0  0  0  0
  187.0790  177.8730  136.9210 C   0  0  1  0  0  0  0  0  0  0  0  0
  191.7990  176.0830  137.5040 C   0  0  0  0  0  0  0  0  0  0  0  0
  192.8900  173.4410  135.1510 C   0  0  2  0  0  3  0  0  0  0  0  0
  190.9190  175.5200  136.4120 C   0  0  2  0  0  3  0  0  0  0  0  0
  193.3950  177.0170  139.5450 C   0  0  0  0  0  3  0  0  0  0  0  0
  187.3120  176.1810  135.0980 C   0  0  0  0  0  2  0  0  0  0  0  0
  193.9610  176.4940  138.4270 N   0  0  0  0  0  0  0  0  0  0  0  0
  188.6380  175.4700  135.3660 C   0  0  0  0  0  2  0  0  0  0  0  0
  187.5520  176.8590  138.0180 C   0  0  1  0  0  3  0  0  0  0  0  0
  192.0430  177.0830  139.6590 N   0  0  0  0  0  0  0  0  0  0  0  0
  189.8120  176.7250  138.7760 N   0  0  0  0  0  0  0  0  0  0  0  0
  187.1280  179.2250  137.3100 O   0  0  0  0  0  0  0  0  0  0  0  0
  185.8380  178.6830  137.0990 C   0  0  2  0  0  3  0  0  0  0  0  0
  183.3520  179.6690  139.4370 C   0  0  0  0  0  2  0  0  0  0  0  0
  183.8610  177.6860  138.2250 C   0  0  0  0  0  2  0  0  0  0  0  0
  185.1160  178.5000  138.4250 C   0  0  2  0  0  3  0  0  0  0  0  0
  182.9130  178.2340  139.2490 C   0  0  0  0  0  2  0  0  0  0  0  0
  184.7280  179.7960  138.9680 N   0  0  0  0  0  2  0  0  0  0  0  0
  1 27  1  0  0  0  0
  1 26  1  0  0  0  0
  3 19  1  0  0  0  0
  3  7  1  1  0  0  0
  4 18  1  0  0  0  0
  4 23  2  0  0  0  0
  5 11  1  1  0  0  0
  5 19  1  0  0  0  0
  5 15  1  0  0  0  0
  7  6  1  0  0  0  0
  8 12  1  0  0  0  0
  9 25  1  0  0  0  0
  9 27  1  1  0  0  0
 12 15  1  0  0  0  0
 13 24  1  6  0  0  0
 13 20  1  0  0  0  0
 13  9  1  0  0  0  0
 14  2  1  0  0  0  0
 15  4  1  0  0  0  0
 16  3  1  0  0  0  0
 16  8  1  0  0  0  0
 17 10  1  6  0  0  0
 17 29  1  0  0  0  0
 17 28  1  0  0  0  0
 17 25  1  0  0  0  0
 18  1  2  0  0  0  0
 19  6  1  1  0  0  0
 20 11  1  6  0  0  0
 20 18  1  0  0  0  0
 21 26  2  0  0  0  0
 22 24  1  0  0  0  0
 22 10  1  0  0  0  0
 23 21  1  0  0  0  0
 25 14  1  1  0  0  0
 27  2  1  0  0  0  0
 29 28  1  1  0  0  0
 29 32  1  0  0  0  0
 31 33  1  0  0  0  0
 32 31  1  6  0  0  0
 32 34  1  0  0  0  0
 33 30  1  0  0  0  0
 34 30  1  0  0  0  0
M  END
>  <MODEL>
5

>  <REMARK>
 VINA RESULT:      -7.0      7.707     11.206
  Name = 
  1 active torsions:
  status: ('A' for Active; 'I' for Inactive)
    1  A    between atoms: C_29  and  C_32
                            x       y       z     vdW  Elec       q    Type
                         _______ _______ _______ _____ _____    ______ ____

>  <TORSDO>
F 1

$$$$
=
 OpenBabel11122412093D

 34 42  0  0  1  0  0  0  0  0999 V2000
  185.8110  177.8600  137.9710 C   0  0  0  0  0  0  0  0  0  0  0  0
  188.2880  178.2520  137.6150 C   0  0  0  0  0  2  0  0  0  0  0  0
  180.3370  175.5630  136.3390 C   0  0  2  0  0  3  0  0  0  0  0  0
  183.5680  177.2100  138.5610 C   0  0  0  0  0  0  0  0  0  0  0  0
  182.5340  175.0860  137.6370 C   0  0  1  0  0  3  0  0  0  0  0  0
  182.1010  176.5820  135.7470 O   0  0  0  0  0  0  0  0  0  0  0  0
  180.7290  176.9040  135.7420 C   0  0  0  0  0  2  0  0  0  0  0  0
  180.0840  176.7400  138.3740 C   0  0  0  0  0  2  0  0  0  0  0  0
  187.1940  176.5060  136.3390 C   0  0  2  0  0  3  0  0  0  0  0  0
  188.5640  173.6680  136.8440 C   0  0  0  0  0  2  0  0  0  0  0  0
  183.9780  174.6160  137.4440 C   0  0  0  0  0  2  0  0  0  0  0  0
  181.2710  176.5030  139.2910 C   0  0  0  0  0  2  0  0  0  0  0  0
  186.3150  175.3060  136.7390 C   0  0  1  0  0  3  0  0  0  0  0  0
  189.3360  177.5860  136.7460 C   0  0  0  0  0  2  0  0  0  0  0  0
  182.4720  176.2770  138.4970 N   0  0  0  0  0  0  0  0  0  0  0  0
  179.7890  175.5630  137.6590 O   0  0  0  0  0  0  0  0  0  0  0  0
  189.3240  174.9900  136.8240 C   0  0  1  0  0  0  0  0  0  0  0  0
  184.7510  176.9520  137.8530 C   0  0  0  0  0  0  0  0  0  0  0  0
  181.8320  175.3060  136.2810 C   0  0  2  0  0  3  0  0  0  0  0  0
  184.8590  175.7590  136.9320 C   0  0  2  0  0  3  0  0  0  0  0  0
  184.5270  179.1860  139.4490 C   0  0  0  0  0  3  0  0  0  0  0  0
  187.7410  173.5170  135.5740 C   0  0  0  0  0  2  0  0  0  0  0  0
  183.4850  178.3210  139.3430 N   0  0  0  0  0  0  0  0  0  0  0  0
  186.3750  174.1950  135.6850 C   0  0  0  0  0  2  0  0  0  0  0  0
  188.7170  176.2920  136.1980 C   0  0  1  0  0  3  0  0  0  0  0  0
  185.6800  178.9520  138.7700 N   0  0  0  0  0  0  0  0  0  0  0  0
  187.0410  177.5980  137.2870 N   0  0  0  0  0  0  0  0  0  0  0  0
  190.1030  175.2000  137.9780 O   0  0  0  0  0  0  0  0  0  0  0  0
  190.7970  174.7490  136.8300 C   0  0  2  0  0  3  0  0  0  0  0  0
  193.9320  176.3770  136.4530 C   0  0  0  0  0  2  0  0  0  0  0  0
  192.3320  175.3990  134.9890 C   0  0  0  0  0  2  0  0  0  0  0  0
  191.6520  175.8670  136.2510 C   0  0  2  0  0  3  0  0  0  0  0  0
  193.6340  176.1420  134.9890 C   0  0  0  0  0  2  0  0  0  0  0  0
  192.6870  176.2500  137.2040 N   0  0  0  0  0  2  0  0  0  0  0  0
  1 26  1  0  0  0  0
  3  7  1  1  0  0  0
  3 16  1  0  0  0  0
  4 23  2  0  0  0  0
  5 11  1  6  0  0  0
  5 15  1  0  0  0  0
  7  6  1  0  0  0  0
  8 12  1  0  0  0  0
  9 13  1  0  0  0  0
  9 27  1  1  0  0  0
 13 24  1  6  0  0  0
 13 20  1  0  0  0  0
 14  2  1  0  0  0  0
 15  4  1  0  0  0  0
 15 12  1  0  0  0  0
 16  8  1  0  0  0  0
 17 29  1  0  0  0  0
 17 10  1  6  0  0  0
 17 28  1  0  0  0  0
 18  1  2  0  0  0  0
 18  4  1  0  0  0  0
 19  6  1  1  0  0  0
 19  3  1  0  0  0  0
 19  5  1  0  0  0  0
 20 11  1  1  0  0  0
 20 18  1  0  0  0  0
 22 24  1  0  0  0  0
 22 10  1  0  0  0  0
 23 21  1  0  0  0  0
 25  9  1  0  0  0  0
 25 14  1  1  0  0  0
 25 17  1  0  0  0  0
 26 21  2  0  0  0  0
 27  2  1  0  0  0  0
 27  1  1  0  0  0  0
 29 28  1  1  0  0  0
 30 34  1  0  0  0  0
 32 31  1  6  0  0  0
 32 29  1  0  0  0  0
 32 34  1  0  0  0  0
 33 31  1  0  0  0  0
 33 30  1  0  0  0  0
M  END
>  <MODEL>
6

>  <REMARK>
 VINA RESULT:      -6.6      5.676      7.649
  Name = 
  1 active torsions:
  status: ('A' for Active; 'I' for Inactive)
    1  A    between atoms: C_29  and  C_32
                            x       y       z     vdW  Elec       q    Type
                         _______ _______ _______ _____ _____    ______ ____

>  <TORSDO>
F 1

$$$$
