=
 OpenBabel11122410313D

 30 35  0  0  1  0  0  0  0  0999 V2000
  189.2570  177.5370  143.0490 C   0  0  2  0  0  3  0  0  0  0  0  0
  191.2100  176.5620  144.4390 C   0  0  0  0  0  0  0  0  0  0  0  0
  187.0280  178.1030  146.5620 N   0  0  0  0  0  0  0  0  0  0  0  0
  187.7100  177.5110  143.0090 C   0  0  2  0  0  3  0  0  0  0  0  0
  189.7330  176.8180  141.8030 C   0  0  0  0  0  2  0  0  0  0  0  0
  187.5670  178.7580  139.5460 O   0  0  0  0  0  0  0  0  0  0  0  0
  184.7760  177.9870  142.4750 C   0  0  1  0  0  3  0  0  0  0  0  0
  188.0200  178.2380  140.6040 C   0  0  0  0  0  0  0  0  0  0  0  0
  184.7310  178.4300  143.8510 N   0  0  0  0  0  0  0  0  0  0  0  0
  185.8430  178.4300  146.0700 N   0  0  0  0  0  0  0  0  0  0  0  0
  189.4270  177.6840  140.5850 C   0  0  2  0  0  3  0  0  0  0  0  0
  187.2230  178.2430  141.8170 N   0  0  0  0  0  0  0  0  0  0  0  0
  191.7680  176.2310  145.6770 C   0  0  0  0  0  3  0  0  0  0  0  0
  183.4110  178.8650  144.2610 C   0  0  0  0  0  2  0  0  0  0  0  0
  183.3990  178.2690  141.8970 C   0  0  0  0  0  2  0  0  0  0  0  0
  191.9990  176.4160  143.3040 O   0  0  0  0  0  1  0  0  0  0  0  0
  187.8280  177.8350  145.5110 C   0  0  0  0  0  0  0  0  0  0  0  0
  191.0420  176.4110  146.8540 C   0  0  0  0  0  3  0  0  0  0  0  0
  189.8820  177.0490  144.3620 C   0  0  0  0  0  0  0  0  0  0  0  0
  187.1570  178.0070  144.3260 C   0  0  0  0  0  0  0  0  0  0  0  0
  184.6980  178.7230  146.9150 C   0  0  0  0  0  1  0  0  0  0  0  0
  185.8720  178.3450  144.7190 C   0  0  0  0  0  0  0  0  0  0  0  0
  182.4960  178.5820  143.0830 C   0  0  0  0  0  2  0  0  0  0  0  0
  185.5980  179.7720  141.1060 O   0  0  0  0  0  0  0  0  0  0  0  0
  189.7530  176.9390  146.8030 C   0  0  0  0  0  3  0  0  0  0  0  0
  189.1790  177.2720  145.5720 C   0  0  0  0  0  0  0  0  0  0  0  0
  185.8630  178.7130  141.7400 C   0  0  0  0  0  0  0  0  0  0  0  0
  189.6800  176.8820  139.3140 C   0  0  0  0  0  2  0  0  0  0  0  0
  191.7760  176.4710  138.3600 C   0  0  0  0  0  1  0  0  0  0  0  0
  190.8920  176.0880  139.4470 N   0  0  0  0  0  2  0  0  0  0  0  0
  1  5  1  6  0  0  0
  1 19  1  0  0  0  0
  2 13  1  0  0  0  0
  4  1  1  0  0  0  0
  4 20  1  1  0  0  0
  6  8  2  0  0  0  0
  7 15  1  6  0  0  0
  7  9  1  0  0  0  0
  8 12  1  0  0  0  0
  9 14  1  0  0  0  0
  9 22  1  0  0  0  0
 10  3  1  0  0  0  0
 10 21  1  0  0  0  0
 11 28  1  6  0  0  0
 11  8  1  0  0  0  0
 11  5  1  0  0  0  0
 12  4  1  0  0  0  0
 13 18  2  0  0  0  0
 15 23  1  0  0  0  0
 16  2  1  0  0  0  0
 17 26  1  0  0  0  0
 17  3  2  0  0  0  0
 19  2  2  0  0  0  0
 19 26  1  0  0  0  0
 20 22  2  0  0  0  0
 20 17  1  0  0  0  0
 22 10  1  0  0  0  0
 23 14  1  0  0  0  0
 24 27  2  0  0  0  0
 25 18  1  0  0  0  0
 26 25  2  0  0  0  0
 27 12  1  0  0  0  0
 27  7  1  0  0  0  0
 28 30  1  0  0  0  0
 29 30  1  0  0  0  0
M  END
>  <MODEL>
1

>  <REMARK>
 VINA RESULT:     -11.2      0.000      0.000
  Name = 
  2 active torsions:
  status: ('A' for Active; 'I' for Inactive)
    1  A    between atoms: C_11  and  C_28
    2  A    between atoms: C_28  and  N_30
                            x       y       z     vdW  Elec       q    Type
                         _______ _______ _______ _____ _____    ______ ____

>  <TORSDO>
F 2

$$$$
=
 OpenBabel11122410313D

 30 35  0  0  1  0  0  0  0  0999 V2000
  187.6870  178.0720  143.4790 C   0  0  2  0  0  3  0  0  0  0  0  0
  188.8270  177.5360  145.7400 C   0  0  0  0  0  0  0  0  0  0  0  0
  184.0810  178.8700  145.4780 N   0  0  0  0  0  0  0  0  0  0  0  0
  186.3300  177.8620  142.7640 C   0  0  2  0  0  3  0  0  0  0  0  0
  188.7050  177.2440  142.7230 C   0  0  0  0  0  2  0  0  0  0  0  0
  187.7330  178.5810  139.4350 O   0  0  0  0  0  0  0  0  0  0  0  0
  183.9460  177.9160  140.9110 C   0  0  1  0  0  3  0  0  0  0  0  0
  187.6740  178.2720  140.6580 C   0  0  0  0  0  0  0  0  0  0  0  0
  183.2620  178.5410  142.0200 N   0  0  0  0  0  0  0  0  0  0  0  0
  183.2390  178.9850  144.4620 N   0  0  0  0  0  0  0  0  0  0  0  0
  188.9550  177.8870  141.3640 C   0  0  2  0  0  3  0  0  0  0  0  0
  186.4120  178.3570  141.3700 N   0  0  0  0  0  0  0  0  0  0  0  0
  188.7710  177.4500  147.1340 C   0  0  0  0  0  3  0  0  0  0  0  0
  181.8850  178.8750  141.7190 C   0  0  0  0  0  2  0  0  0  0  0  0
  182.9740  177.9530  139.7430 C   0  0  0  0  0  2  0  0  0  0  0  0
  190.0520  177.3230  145.1180 O   0  0  0  0  0  1  0  0  0  0  0  0
  185.2820  178.5500  144.9570 C   0  0  0  0  0  0  0  0  0  0  0  0
  187.5820  177.7100  147.8140 C   0  0  0  0  0  3  0  0  0  0  0  0
  187.6620  177.8510  144.9970 C   0  0  0  0  0  0  0  0  0  0  0  0
  185.2190  178.4730  143.5880 C   0  0  0  0  0  0  0  0  0  0  0  0
  181.8240  179.2600  144.6460 C   0  0  0  0  0  1  0  0  0  0  0  0
  183.8840  178.7130  143.3030 C   0  0  0  0  0  0  0  0  0  0  0  0
  181.6190  178.3240  140.3290 C   0  0  0  0  0  2  0  0  0  0  0  0
  185.2320  179.5720  139.7530 O   0  0  0  0  0  0  0  0  0  0  0  0
  186.4390  178.0730  147.1040 C   0  0  0  0  0  3  0  0  0  0  0  0
  186.4770  178.1600  145.7090 C   0  0  0  0  0  0  0  0  0  0  0  0
  185.2200  178.6510  140.6160 C   0  0  0  0  0  0  0  0  0  0  0  0
  189.7910  176.9470  140.5020 C   0  0  0  0  0  2  0  0  0  0  0  0
  192.0060  177.4200  141.0880 C   0  0  0  0  0  1  0  0  0  0  0  0
  191.0040  177.6130  140.0540 N   0  0  0  0  0  2  0  0  0  0  0  0
  1  5  1  6  0  0  0
  1 19  1  0  0  0  0
  2 13  1  0  0  0  0
  4  1  1  0  0  0  0
  4 20  1  1  0  0  0
  6  8  2  0  0  0  0
  7 15  1  6  0  0  0
  7  9  1  0  0  0  0
  8 11  1  0  0  0  0
  8 12  1  0  0  0  0
  9 22  1  0  0  0  0
 10 21  1  0  0  0  0
 10  3  1  0  0  0  0
 11 28  1  6  0  0  0
 11  5  1  0  0  0  0
 12  4  1  0  0  0  0
 13 18  2  0  0  0  0
 14  9  1  0  0  0  0
 15 23  1  0  0  0  0
 16  2  1  0  0  0  0
 17  3  2  0  0  0  0
 17 26  1  0  0  0  0
 19 26  1  0  0  0  0
 19  2  2  0  0  0  0
 20 17  1  0  0  0  0
 22 20  2  0  0  0  0
 22 10  1  0  0  0  0
 23 14  1  0  0  0  0
 24 27  2  0  0  0  0
 25 18  1  0  0  0  0
 26 25  2  0  0  0  0
 27  7  1  0  0  0  0
 27 12  1  0  0  0  0
 30 28  1  0  0  0  0
 30 29  1  0  0  0  0
M  END
>  <MODEL>
2

>  <REMARK>
 VINA RESULT:     -10.5      1.699      2.433
  Name = 
  2 active torsions:
  status: ('A' for Active; 'I' for Inactive)
    1  A    between atoms: C_11  and  C_28
    2  A    between atoms: C_28  and  N_30
                            x       y       z     vdW  Elec       q    Type
                         _______ _______ _______ _____ _____    ______ ____

>  <TORSDO>
F 2

$$$$
=
 OpenBabel11122410313D

 30 35  0  0  1  0  0  0  0  0999 V2000
  188.2350  177.9390  144.4630 C   0  0  2  0  0  3  0  0  0  0  0  0
  186.3350  178.1310  146.2090 C   0  0  0  0  0  0  0  0  0  0  0  0
  185.5070  178.7940  141.3880 N   0  0  0  0  0  0  0  0  0  0  0  0
  188.4710  177.3980  143.0320 C   0  0  2  0  0  3  0  0  0  0  0  0
  189.0570  177.0700  145.3930 C   0  0  0  0  0  2  0  0  0  0  0  0
  192.1350  177.4050  143.4040 O   0  0  0  0  0  0  0  0  0  0  0  0
  189.5330  176.7020  140.2920 C   0  0  1  0  0  3  0  0  0  0  0  0
  190.9110  177.4120  143.7100 C   0  0  0  0  0  0  0  0  0  0  0  0
  188.4330  177.5050  139.8040 N   0  0  0  0  0  0  0  0  0  0  0  0
  186.2390  178.5480  140.3120 N   0  0  0  0  0  0  0  0  0  0  0  0
  190.5350  177.3710  145.1750 C   0  0  2  0  0  3  0  0  0  0  0  0
  189.9020  177.5280  142.6720 N   0  0  0  0  0  0  0  0  0  0  0  0
  184.9990  178.3960  146.5200 C   0  0  0  0  0  3  0  0  0  0  0  0
  188.3930  177.5880  138.3590 C   0  0  0  0  0  2  0  0  0  0  0  0
  190.3540  176.3270  139.0680 C   0  0  0  0  0  2  0  0  0  0  0  0
  187.2210  177.9100  147.2570 O   0  0  0  0  0  1  0  0  0  0  0  0
  186.2690  178.4940  142.4580 C   0  0  0  0  0  0  0  0  0  0  0  0
  184.0780  178.6800  145.5120 C   0  0  0  0  0  3  0  0  0  0  0  0
  186.7630  178.1090  144.8580 C   0  0  0  0  0  0  0  0  0  0  0  0
  187.5140  178.0650  142.0700 C   0  0  0  0  0  0  0  0  0  0  0  0
  185.7220  178.6950  138.9630 C   0  0  0  0  0  1  0  0  0  0  0  0
  187.4490  178.0680  140.6860 C   0  0  0  0  0  0  0  0  0  0  0  0
  189.4980  176.6750  137.8590 C   0  0  0  0  0  2  0  0  0  0  0  0
  191.3340  178.1470  140.9260 O   0  0  0  0  0  0  0  0  0  0  0  0
  184.4920  178.7160  144.1810 C   0  0  0  0  0  3  0  0  0  0  0  0
  185.8250  178.4500  143.8540 C   0  0  0  0  0  0  0  0  0  0  0  0
  190.3280  177.4810  141.2960 C   0  0  0  0  0  0  0  0  0  0  0  0
  191.3790  176.3460  145.9240 C   0  0  0  0  0  2  0  0  0  0  0  0
  192.4630  175.7900  147.9210 C   0  0  0  0  0  1  0  0  0  0  0  0
  191.7250  176.8440  147.2470 N   0  0  0  0  0  2  0  0  0  0  0  0
  1 19  1  0  0  0  0
  1  5  1  1  0  0  0
  2 13  1  0  0  0  0
  2 16  1  0  0  0  0
  3 17  2  0  0  0  0
  4 20  1  6  0  0  0
  4  1  1  0  0  0  0
  6  8  2  0  0  0  0
  7 15  1  6  0  0  0
  7 27  1  0  0  0  0
  8 11  1  0  0  0  0
  9  7  1  0  0  0  0
  9 22  1  0  0  0  0
 10 22  1  0  0  0  0
 10  3  1  0  0  0  0
 11  5  1  0  0  0  0
 11 28  1  1  0  0  0
 12  4  1  0  0  0  0
 12  8  1  0  0  0  0
 14  9  1  0  0  0  0
 17 26  1  0  0  0  0
 18 13  2  0  0  0  0
 19  2  2  0  0  0  0
 20 17  1  0  0  0  0
 21 10  1  0  0  0  0
 22 20  2  0  0  0  0
 23 14  1  0  0  0  0
 23 15  1  0  0  0  0
 24 27  2  0  0  0  0
 25 18  1  0  0  0  0
 26 25  2  0  0  0  0
 26 19  1  0  0  0  0
 27 12  1  0  0  0  0
 28 30  1  0  0  0  0
 30 29  1  0  0  0  0
M  END
>  <MODEL>
3

>  <REMARK>
 VINA RESULT:     -10.4      2.234      5.856
  Name = 
  2 active torsions:
  status: ('A' for Active; 'I' for Inactive)
    1  A    between atoms: C_11  and  C_28
    2  A    between atoms: C_28  and  N_30
                            x       y       z     vdW  Elec       q    Type
                         _______ _______ _______ _____ _____    ______ ____

>  <TORSDO>
F 2

$$$$
=
 OpenBabel11122410313D

 30 35  0  0  1  0  0  0  0  0999 V2000
  186.9730  177.8760  142.4750 C   0  0  2  0  0  3  0  0  0  0  0  0
  184.6530  178.9760  142.1560 C   0  0  0  0  0  0  0  0  0  0  0  0
  186.2600  177.5460  146.5990 N   0  0  0  0  0  0  0  0  0  0  0  0
  188.1530  177.8800  143.4770 C   0  0  2  0  0  3  0  0  0  0  0  0
  187.4920  178.5060  141.1980 C   0  0  0  0  0  2  0  0  0  0  0  0
  190.4900  176.3760  141.0610 O   0  0  0  0  0  0  0  0  0  0  0  0
  190.6630  177.3290  145.0640 C   0  0  1  0  0  3  0  0  0  0  0  0
  189.4800  176.9790  141.5190 C   0  0  0  0  0  0  0  0  0  0  0  0
  189.7540  176.9900  146.1370 N   0  0  0  0  0  0  0  0  0  0  0  0
  187.4500  177.1690  147.0410 N   0  0  0  0  0  0  0  0  0  0  0  0
  188.4780  177.5480  140.5390 C   0  0  2  0  0  3  0  0  0  0  0  0
  189.2650  177.0550  142.9530 N   0  0  0  0  0  0  0  0  0  0  0  0
  183.4340  179.4060  142.6870 C   0  0  0  0  0  3  0  0  0  0  0  0
  190.4370  176.5700  147.3430 C   0  0  0  0  0  2  0  0  0  0  0  0
  192.0550  176.9870  145.5690 C   0  0  0  0  0  2  0  0  0  0  0  0
  184.8300  179.0470  140.7790 O   0  0  0  0  0  1  0  0  0  0  0  0
  186.3800  177.7450  145.2720 C   0  0  0  0  0  0  0  0  0  0  0  0
  183.1800  179.3060  144.0540 C   0  0  0  0  0  3  0  0  0  0  0  0
  185.6640  178.4680  143.0090 C   0  0  0  0  0  0  0  0  0  0  0  0
  187.6580  177.4770  144.8480 C   0  0  0  0  0  0  0  0  0  0  0  0
  187.7220  176.9260  148.4470 C   0  0  0  0  0  1  0  0  0  0  0  0
  188.3330  177.1530  146.0140 C   0  0  0  0  0  0  0  0  0  0  0  0
  191.9190  176.7530  147.0670 C   0  0  0  0  0  2  0  0  0  0  0  0
  190.8560  175.4570  143.5830 O   0  0  0  0  0  0  0  0  0  0  0  0
  184.1410  178.7590  144.9020 C   0  0  0  0  0  3  0  0  0  0  0  0
  185.3680  178.3280  144.3870 C   0  0  0  0  0  0  0  0  0  0  0  0
  190.3000  176.5640  143.8260 C   0  0  0  0  0  0  0  0  0  0  0  0
  189.1830  178.2560  139.3880 C   0  0  0  0  0  2  0  0  0  0  0  0
  188.9890  179.0020  137.1790 C   0  0  0  0  0  1  0  0  0  0  0  0
  188.2270  178.6260  138.3570 N   0  0  0  0  0  2  0  0  0  0  0  0
  1  5  1  6  0  0  0
  1 19  1  0  0  0  0
  1  4  1  0  0  0  0
  2 13  2  0  0  0  0
  2 19  1  0  0  0  0
  3 10  1  0  0  0  0
  4 20  1  1  0  0  0
  6  8  2  0  0  0  0
  7 15  1  1  0  0  0
  7  9  1  0  0  0  0
  8 12  1  0  0  0  0
  9 14  1  0  0  0  0
 10 21  1  0  0  0  0
 11 28  1  6  0  0  0
 11  5  1  0  0  0  0
 11  8  1  0  0  0  0
 12  4  1  0  0  0  0
 12 27  1  0  0  0  0
 13 18  1  0  0  0  0
 15 23  1  0  0  0  0
 16  2  1  0  0  0  0
 17  3  2  0  0  0  0
 18 25  2  0  0  0  0
 19 26  2  0  0  0  0
 20 17  1  0  0  0  0
 20 22  2  0  0  0  0
 22  9  1  0  0  0  0
 22 10  1  0  0  0  0
 23 14  1  0  0  0  0
 24 27  2  0  0  0  0
 26 25  1  0  0  0  0
 26 17  1  0  0  0  0
 27  7  1  0  0  0  0
 29 30  1  0  0  0  0
 30 28  1  0  0  0  0
M  END
>  <MODEL>
4

>  <REMARK>
 VINA RESULT:     -10.2      1.652      5.442
  Name = 
  2 active torsions:
  status: ('A' for Active; 'I' for Inactive)
    1  A    between atoms: C_11  and  C_28
    2  A    between atoms: C_28  and  N_30
                            x       y       z     vdW  Elec       q    Type
                         _______ _______ _______ _____ _____    ______ ____

>  <TORSDO>
F 2

$$$$
=
 OpenBabel11122410313D

 30 35  0  0  1  0  0  0  0  0999 V2000
  188.4270  177.9020  143.2790 C   0  0  2  0  0  3  0  0  0  0  0  0
  186.2880  178.2120  144.7020 C   0  0  0  0  0  0  0  0  0  0  0  0
  186.2170  178.6280  139.7840 N   0  0  0  0  0  0  0  0  0  0  0  0
  188.8670  177.2820  141.9310 C   0  0  2  0  0  3  0  0  0  0  0  0
  189.0780  177.0730  144.3670 C   0  0  0  0  0  2  0  0  0  0  0  0
  192.4300  177.2600  142.8600 O   0  0  0  0  0  0  0  0  0  0  0  0
  190.3180  176.4270  139.4250 C   0  0  1  0  0  3  0  0  0  0  0  0
  191.1740  177.3000  142.9730 C   0  0  0  0  0  0  0  0  0  0  0  0
  189.3230  177.2170  138.7340 N   0  0  0  0  0  0  0  0  0  0  0  0
  187.1000  178.3160  138.8470 N   0  0  0  0  0  0  0  0  0  0  0  0
  190.5790  177.3420  144.3630 C   0  0  2  0  0  3  0  0  0  0  0  0
  190.3380  177.3740  141.7880 N   0  0  0  0  0  0  0  0  0  0  0  0
  184.9260  178.5120  144.7910 C   0  0  0  0  0  3  0  0  0  0  0  0
  189.5040  177.2240  137.2970 C   0  0  0  0  0  2  0  0  0  0  0  0
  191.3070  175.9770  138.3620 C   0  0  0  0  0  2  0  0  0  0  0  0
  186.9990  178.0360  145.8840 O   0  0  0  0  0  1  0  0  0  0  0  0
  186.8010  178.3750  140.9720 C   0  0  0  0  0  0  0  0  0  0  0  0
  184.1760  178.7540  143.6410 C   0  0  0  0  0  3  0  0  0  0  0  0
  186.9160  178.1130  143.4360 C   0  0  0  0  0  0  0  0  0  0  0  0
  188.0820  177.9100  140.8020 C   0  0  0  0  0  0  0  0  0  0  0  0
  186.7980  178.3970  137.4280 C   0  0  0  0  0  1  0  0  0  0  0  0
  188.2280  177.8400  139.4250 C   0  0  0  0  0  0  0  0  0  0  0  0
  190.6530  176.2710  137.0190 C   0  0  0  0  0  2  0  0  0  0  0  0
  192.0320  177.8790  140.2530 O   0  0  0  0  0  0  0  0  0  0  0  0
  184.7880  178.7130  142.3890 C   0  0  0  0  0  3  0  0  0  0  0  0
  186.1490  178.4120  142.2830 C   0  0  0  0  0  0  0  0  0  0  0  0
  190.9680  177.2480  140.4980 C   0  0  0  0  0  0  0  0  0  0  0  0
  191.2770  176.3480  145.2840 C   0  0  0  0  0  2  0  0  0  0  0  0
  191.9810  175.9490  147.4790 C   0  0  0  0  0  1  0  0  0  0  0  0
  191.6790  176.9980  146.5220 N   0  0  0  0  0  2  0  0  0  0  0  0
  1 19  1  0  0  0  0
  1  5  1  1  0  0  0
  2 13  1  0  0  0  0
  2 16  1  0  0  0  0
  3 17  2  0  0  0  0
  4 20  1  6  0  0  0
  4  1  1  0  0  0  0
  6  8  2  0  0  0  0
  7 15  1  6  0  0  0
  7 27  1  0  0  0  0
  8 11  1  0  0  0  0
  9  7  1  0  0  0  0
  9 22  1  0  0  0  0
 10 22  1  0  0  0  0
 10  3  1  0  0  0  0
 11  5  1  0  0  0  0
 11 28  1  1  0  0  0
 12  4  1  0  0  0  0
 12  8  1  0  0  0  0
 14  9  1  0  0  0  0
 17 26  1  0  0  0  0
 18 13  2  0  0  0  0
 19  2  2  0  0  0  0
 20 17  1  0  0  0  0
 21 10  1  0  0  0  0
 22 20  2  0  0  0  0
 23 14  1  0  0  0  0
 23 15  1  0  0  0  0
 24 27  2  0  0  0  0
 25 18  1  0  0  0  0
 26 25  2  0  0  0  0
 26 19  1  0  0  0  0
 27 12  1  0  0  0  0
 28 30  1  0  0  0  0
 30 29  1  0  0  0  0
M  END
>  <MODEL>
5

>  <REMARK>
 VINA RESULT:     -10.1      2.376      6.398
  Name = 
  2 active torsions:
  status: ('A' for Active; 'I' for Inactive)
    1  A    between atoms: C_11  and  C_28
    2  A    between atoms: C_28  and  N_30
                            x       y       z     vdW  Elec       q    Type
                         _______ _______ _______ _____ _____    ______ ____

>  <TORSDO>
F 2

$$$$
=
 OpenBabel11122410313D

 30 35  0  0  1  0  0  0  0  0999 V2000
  186.0380  178.4600  144.0490 C   0  0  2  0  0  3  0  0  0  0  0  0
  183.4950  178.7020  144.4650 C   0  0  0  0  0  0  0  0  0  0  0  0
  185.4020  178.7980  139.9130 N   0  0  0  0  0  0  0  0  0  0  0  0
  187.0100  177.7900  143.0490 C   0  0  2  0  0  3  0  0  0  0  0  0
  186.2280  177.7510  145.3750 C   0  0  0  0  0  2  0  0  0  0  0  0
  189.8920  178.0880  145.3220 O   0  0  0  0  0  0  0  0  0  0  0  0
  189.3850  176.8860  141.4170 C   0  0  1  0  0  3  0  0  0  0  0  0
  188.6970  178.0430  144.9200 C   0  0  0  0  0  0  0  0  0  0  0  0
  188.7220  177.5550  140.3200 N   0  0  0  0  0  0  0  0  0  0  0  0
  186.6000  178.4930  139.4380 N   0  0  0  0  0  0  0  0  0  0  0  0
  187.5900  178.1290  145.9470 C   0  0  2  0  0  3  0  0  0  0  0  0
  188.4090  177.9800  143.4980 N   0  0  0  0  0  0  0  0  0  0  0  0
  182.2020  178.9050  143.9750 C   0  0  0  0  0  3  0  0  0  0  0  0
  189.4680  177.4850  139.0810 C   0  0  0  0  0  2  0  0  0  0  0  0
  190.7370  176.4430  140.8820 C   0  0  0  0  0  2  0  0  0  0  0  0
  183.6750  178.6540  145.8430 O   0  0  0  0  0  1  0  0  0  0  0  0
  185.4650  178.6650  141.2520 C   0  0  0  0  0  0  0  0  0  0  0  0
  181.9720  179.0180  142.6050 C   0  0  0  0  0  3  0  0  0  0  0  0
  184.5850  178.5680  143.5700 C   0  0  0  0  0  0  0  0  0  0  0  0
  186.7230  178.2850  141.6490 C   0  0  0  0  0  0  0  0  0  0  0  0
  186.8940  178.4620  138.0160 C   0  0  0  0  0  1  0  0  0  0  0  0
  187.4160  178.1390  140.4580 C   0  0  0  0  0  0  0  0  0  0  0  0
  190.6700  176.6030  139.3690 C   0  0  0  0  0  2  0  0  0  0  0  0
  190.5560  178.5090  142.7300 O   0  0  0  0  0  0  0  0  0  0  0  0
  183.0390  178.9440  141.7110 C   0  0  0  0  0  3  0  0  0  0  0  0
  184.3380  178.7370  142.1850 C   0  0  0  0  0  0  0  0  0  0  0  0
  189.5110  177.8180  142.5840 C   0  0  0  0  0  0  0  0  0  0  0  0
  187.8970  177.2490  147.1540 C   0  0  0  0  0  2  0  0  0  0  0  0
  189.2520  178.2600  148.7700 C   0  0  0  0  0  1  0  0  0  0  0  0
  187.8720  178.0370  148.3760 N   0  0  0  0  0  2  0  0  0  0  0  0
  1  5  1  1  0  0  0
  2 16  1  0  0  0  0
  3 17  2  0  0  0  0
  4 20  1  6  0  0  0
  4 12  1  0  0  0  0
  4  1  1  0  0  0  0
  5 11  1  0  0  0  0
  7 15  1  6  0  0  0
  7 27  1  0  0  0  0
  8  6  2  0  0  0  0
  8 11  1  0  0  0  0
  9 22  1  0  0  0  0
  9  7  1  0  0  0  0
 10  3  1  0  0  0  0
 10 22  1  0  0  0  0
 11 28  1  1  0  0  0
 12  8  1  0  0  0  0
 13  2  1  0  0  0  0
 14 23  1  0  0  0  0
 14  9  1  0  0  0  0
 17 20  1  0  0  0  0
 17 26  1  0  0  0  0
 18 13  2  0  0  0  0
 19  1  1  0  0  0  0
 19  2  2  0  0  0  0
 21 10  1  0  0  0  0
 22 20  2  0  0  0  0
 23 15  1  0  0  0  0
 25 26  2  0  0  0  0
 25 18  1  0  0  0  0
 26 19  1  0  0  0  0
 27 24  2  0  0  0  0
 27 12  1  0  0  0  0
 28 30  1  0  0  0  0
 30 29  1  0  0  0  0
M  END
>  <MODEL>
6

>  <REMARK>
 VINA RESULT:     -10.0      2.222      6.925
  Name = 
  2 active torsions:
  status: ('A' for Active; 'I' for Inactive)
    1  A    between atoms: C_11  and  C_28
    2  A    between atoms: C_28  and  N_30
                            x       y       z     vdW  Elec       q    Type
                         _______ _______ _______ _____ _____    ______ ____

>  <TORSDO>
F 2

$$$$
=
 OpenBabel11122410313D

 30 35  0  0  1  0  0  0  0  0999 V2000
  188.7870  177.9910  142.0810 C   0  0  2  0  0  3  0  0  0  0  0  0
  190.7980  177.2530  143.5320 C   0  0  0  0  0  0  0  0  0  0  0  0
  186.4140  178.3320  145.5280 N   0  0  0  0  0  0  0  0  0  0  0  0
  187.2540  177.7910  142.0010 C   0  0  2  0  0  3  0  0  0  0  0  0
  189.3730  177.3210  140.8560 C   0  0  0  0  0  2  0  0  0  0  0  0
  187.0650  178.9860  138.5220 O   0  0  0  0  0  0  0  0  0  0  0  0
  184.3010  177.9300  141.3850 C   0  0  1  0  0  3  0  0  0  0  0  0
  187.5450  178.5290  139.5970 C   0  0  0  0  0  0  0  0  0  0  0  0
  184.1690  178.3760  142.7550 N   0  0  0  0  0  0  0  0  0  0  0  0
  185.2130  178.5190  145.0020 N   0  0  0  0  0  0  0  0  0  0  0  0
  189.0060  178.1370  139.6210 C   0  0  2  0  0  3  0  0  0  0  0  0
  186.7200  178.4540  140.7890 N   0  0  0  0  0  0  0  0  0  0  0  0
  191.3560  176.9970  144.7880 C   0  0  0  0  0  3  0  0  0  0  0  0
  182.7980  178.6630  143.1250 C   0  0  0  0  0  2  0  0  0  0  0  0
  182.9160  178.0510  140.7690 C   0  0  0  0  0  2  0  0  0  0  0  0
  191.6290  177.1880  142.4200 O   0  0  0  0  0  1  0  0  0  0  0  0
  187.2670  178.1470  144.5020 C   0  0  0  0  0  0  0  0  0  0  0  0
  190.5830  177.1030  145.9430 C   0  0  0  0  0  3  0  0  0  0  0  0
  189.4260  177.5880  143.4150 C   0  0  0  0  0  0  0  0  0  0  0  0
  186.6140  178.2330  143.2970 C   0  0  0  0  0  0  0  0  0  0  0  0
  184.0200  178.6880  145.8130 C   0  0  0  0  0  1  0  0  0  0  0  0
  185.2890  178.4270  143.6530 C   0  0  0  0  0  0  0  0  0  0  0  0
  181.9530  178.2690  141.9270 C   0  0  0  0  0  2  0  0  0  0  0  0
  184.9540  179.7850  140.0190 O   0  0  0  0  0  0  0  0  0  0  0  0
  189.2450  177.4830  145.8530 C   0  0  0  0  0  3  0  0  0  0  0  0
  188.6710  177.7400  144.6040 C   0  0  0  0  0  0  0  0  0  0  0  0
  185.3190  178.7680  140.6710 C   0  0  0  0  0  0  0  0  0  0  0  0
  189.3820  177.3580  138.3660 C   0  0  0  0  0  2  0  0  0  0  0  0
  190.9910  175.8110  137.6650 C   0  0  0  0  0  1  0  0  0  0  0  0
  190.0400  176.1100  138.7210 N   0  0  0  0  0  2  0  0  0  0  0  0
  1  5  1  6  0  0  0
  1 19  1  0  0  0  0
  2 13  1  0  0  0  0
  4  1  1  0  0  0  0
  4 20  1  1  0  0  0
  6  8  2  0  0  0  0
  7 15  1  6  0  0  0
  7  9  1  0  0  0  0
  8 11  1  0  0  0  0
  8 12  1  0  0  0  0
  9 14  1  0  0  0  0
  9 22  1  0  0  0  0
 10  3  1  0  0  0  0
 10 21  1  0  0  0  0
 11 28  1  6  0  0  0
 11  5  1  0  0  0  0
 12  4  1  0  0  0  0
 13 18  2  0  0  0  0
 15 23  1  0  0  0  0
 16  2  1  0  0  0  0
 17 26  1  0  0  0  0
 17  3  2  0  0  0  0
 19  2  2  0  0  0  0
 19 26  1  0  0  0  0
 20 22  2  0  0  0  0
 20 17  1  0  0  0  0
 22 10  1  0  0  0  0
 23 14  1  0  0  0  0
 24 27  2  0  0  0  0
 25 18  1  0  0  0  0
 26 25  2  0  0  0  0
 27 12  1  0  0  0  0
 27  7  1  0  0  0  0
 28 30  1  0  0  0  0
 29 30  1  0  0  0  0
M  END
>  <MODEL>
7

>  <REMARK>
 VINA RESULT:      -9.4      1.074      1.206
  Name = 
  2 active torsions:
  status: ('A' for Active; 'I' for Inactive)
    1  A    between atoms: C_11  and  C_28
    2  A    between atoms: C_28  and  N_30
                            x       y       z     vdW  Elec       q    Type
                         _______ _______ _______ _____ _____    ______ ____

>  <TORSDO>
F 2

$$$$
=
 OpenBabel11122410313D

 30 35  0  0  1  0  0  0  0  0999 V2000
  185.3750  178.6960  142.1290 C   0  0  2  0  0  3  0  0  0  0  0  0
  185.1400  178.5600  139.5560 C   0  0  0  0  0  0  0  0  0  0  0  0
  189.5110  178.0590  141.7950 N   0  0  0  0  0  0  0  0  0  0  0  0
  186.1590  178.0200  143.2790 C   0  0  2  0  0  3  0  0  0  0  0  0
  183.9200  178.3210  142.3220 C   0  0  0  0  0  2  0  0  0  0  0  0
  183.8730  179.2900  145.8720 O   0  0  0  0  0  0  0  0  0  0  0  0
  187.4440  177.2400  145.8990 C   0  0  1  0  0  3  0  0  0  0  0  0
  184.3110  178.9500  144.7380 C   0  0  0  0  0  0  0  0  0  0  0  0
  188.6890  177.5400  145.2290 N   0  0  0  0  0  0  0  0  0  0  0  0
  189.8520  177.8810  143.0630 N   0  0  0  0  0  0  0  0  0  0  0  0
  183.3800  179.0460  143.5500 C   0  0  2  0  0  3  0  0  0  0  0  0
  185.6970  178.5460  144.5840 N   0  0  0  0  0  0  0  0  0  0  0  0
  185.7230  178.4240  138.2930 C   0  0  0  0  0  3  0  0  0  0  0  0
  189.8470  177.3510  146.0780 C   0  0  0  0  0  2  0  0  0  0  0  0
  187.8060  176.9460  147.3460 C   0  0  0  0  0  2  0  0  0  0  0  0
  183.7790  178.8290  139.6240 O   0  0  0  0  0  1  0  0  0  0  0  0
  188.1730  178.2170  141.7670 C   0  0  0  0  0  0  0  0  0  0  0  0
  187.0950  178.2100  138.1620 C   0  0  0  0  0  3  0  0  0  0  0  0
  185.9340  178.4430  140.7240 C   0  0  0  0  0  0  0  0  0  0  0  0
  187.6450  178.1580  143.0330 C   0  0  0  0  0  0  0  0  0  0  0  0
  191.2180  177.6120  143.4760 C   0  0  0  0  0  1  0  0  0  0  0  0
  188.7420  177.8960  143.8380 C   0  0  0  0  0  0  0  0  0  0  0  0
  189.3180  176.7770  147.3800 C   0  0  0  0  0  2  0  0  0  0  0  0
  186.4600  179.2820  146.6720 O   0  0  0  0  0  0  0  0  0  0  0  0
  187.9000  178.1450  139.2980 C   0  0  0  0  0  3  0  0  0  0  0  0
  187.3320  178.2760  140.5690 C   0  0  0  0  0  0  0  0  0  0  0  0
  186.5010  178.3990  145.7710 C   0  0  0  0  0  0  0  0  0  0  0  0
  181.9980  178.5020  143.8950 C   0  0  0  0  0  2  0  0  0  0  0  0
  179.6940  178.6400  143.5140 C   0  0  0  0  0  1  0  0  0  0  0  0
  180.9650  179.2860  143.2370 N   0  0  0  0  0  2  0  0  0  0  0  0
  1  5  1  6  0  0  0
  1  4  1  0  0  0  0
  2 16  1  0  0  0  0
  2 19  1  0  0  0  0
  3 10  1  0  0  0  0
  4 20  1  6  0  0  0
  4 12  1  0  0  0  0
  5 11  1  0  0  0  0
  7 15  1  1  0  0  0
  8  6  2  0  0  0  0
  9  7  1  0  0  0  0
  9 14  1  0  0  0  0
 10 21  1  0  0  0  0
 10 22  1  0  0  0  0
 11 28  1  1  0  0  0
 11  8  1  0  0  0  0
 12  8  1  0  0  0  0
 12 27  1  0  0  0  0
 13  2  2  0  0  0  0
 14 23  1  0  0  0  0
 15 23  1  0  0  0  0
 17  3  2  0  0  0  0
 17 20  1  0  0  0  0
 18 13  1  0  0  0  0
 18 25  2  0  0  0  0
 19  1  1  0  0  0  0
 20 22  2  0  0  0  0
 22  9  1  0  0  0  0
 25 26  1  0  0  0  0
 26 19  2  0  0  0  0
 26 17  1  0  0  0  0
 27  7  1  0  0  0  0
 27 24  2  0  0  0  0
 30 29  1  0  0  0  0
 30 28  1  0  0  0  0
M  END
>  <MODEL>
8

>  <REMARK>
 VINA RESULT:      -9.4      2.271      6.912
  Name = 
  2 active torsions:
  status: ('A' for Active; 'I' for Inactive)
    1  A    between atoms: C_11  and  C_28
    2  A    between atoms: C_28  and  N_30
                            x       y       z     vdW  Elec       q    Type
                         _______ _______ _______ _____ _____    ______ ____

>  <TORSDO>
F 2

$$$$
=
 OpenBabel11122410313D

 30 35  0  0  1  0  0  0  0  0999 V2000
  186.3480  178.6010  141.8340 C   0  0  2  0  0  3  0  0  0  0  0  0
  186.9440  178.2530  139.3400 C   0  0  0  0  0  0  0  0  0  0  0  0
  190.3390  177.8480  142.9010 N   0  0  0  0  0  0  0  0  0  0  0  0
  186.6900  178.0080  143.2220 C   0  0  2  0  0  3  0  0  0  0  0  0
  184.8920  178.2750  141.5730 C   0  0  0  0  0  2  0  0  0  0  0  0
  183.7570  179.5420  144.8370 O   0  0  0  0  0  0  0  0  0  0  0  0
  187.0290  177.4240  146.1650 C   0  0  1  0  0  3  0  0  0  0  0  0
  184.5180  179.0980  143.9330 C   0  0  0  0  0  0  0  0  0  0  0  0
  188.4370  177.6400  145.9130 N   0  0  0  0  0  0  0  0  0  0  0  0
  190.2470  177.7710  144.2200 N   0  0  0  0  0  0  0  0  0  0  0  0
  184.0220  179.1130  142.5040 C   0  0  2  0  0  3  0  0  0  0  0  0
  185.8600  178.6520  144.2650 N   0  0  0  0  0  0  0  0  0  0  0  0
  187.8930  177.9980  138.3460 C   0  0  0  0  0  3  0  0  0  0  0  0
  189.2520  177.4980  147.1020 C   0  0  0  0  0  2  0  0  0  0  0  0
  186.8950  177.2460  147.6690 C   0  0  0  0  0  2  0  0  0  0  0  0
  185.6460  178.5560  138.9450 O   0  0  0  0  0  1  0  0  0  0  0  0
  189.0890  178.0320  142.4310 C   0  0  0  0  0  0  0  0  0  0  0  0
  189.2220  177.7440  138.6820 C   0  0  0  0  0  3  0  0  0  0  0  0
  187.3150  178.2180  140.7070 C   0  0  0  0  0  0  0  0  0  0  0  0
  188.1810  178.0920  143.4590 C   0  0  0  0  0  0  0  0  0  0  0  0
  191.3950  177.5080  145.0700 C   0  0  0  0  0  1  0  0  0  0  0  0
  188.9490  177.8760  144.5920 C   0  0  0  0  0  0  0  0  0  0  0  0
  188.3070  177.0470  148.2020 C   0  0  0  0  0  2  0  0  0  0  0  0
  185.9490  179.5450  146.4280 O   0  0  0  0  0  0  0  0  0  0  0  0
  189.6170  177.7580  140.0180 C   0  0  0  0  0  3  0  0  0  0  0  0
  188.6790  178.0080  141.0250 C   0  0  0  0  0  0  0  0  0  0  0  0
  186.2350  178.5890  145.6550 C   0  0  0  0  0  0  0  0  0  0  0  0
  182.5790  178.6300  142.4240 C   0  0  0  0  0  2  0  0  0  0  0  0
  181.1260  179.1320  140.6600 C   0  0  0  0  0  1  0  0  0  0  0  0
  182.2360  178.2810  141.0540 N   0  0  0  0  0  2  0  0  0  0  0  0
  1  5  1  6  0  0  0
  1  4  1  0  0  0  0
  2 19  1  0  0  0  0
  3 10  1  0  0  0  0
  4 20  1  1  0  0  0
  4 12  1  0  0  0  0
  5 11  1  0  0  0  0
  7 15  1  1  0  0  0
  8 12  1  0  0  0  0
  8  6  2  0  0  0  0
  9  7  1  0  0  0  0
  9 14  1  0  0  0  0
 10 22  1  0  0  0  0
 10 21  1  0  0  0  0
 11 28  1  1  0  0  0
 11  8  1  0  0  0  0
 12 27  1  0  0  0  0
 13 18  1  0  0  0  0
 13  2  2  0  0  0  0
 14 23  1  0  0  0  0
 15 23  1  0  0  0  0
 16  2  1  0  0  0  0
 17  3  2  0  0  0  0
 17 20  1  0  0  0  0
 18 25  2  0  0  0  0
 19 26  2  0  0  0  0
 19  1  1  0  0  0  0
 20 22  2  0  0  0  0
 22  9  1  0  0  0  0
 25 26  1  0  0  0  0
 26 17  1  0  0  0  0
 27  7  1  0  0  0  0
 27 24  2  0  0  0  0
 29 30  1  0  0  0  0
 30 28  1  0  0  0  0
M  END
>  <MODEL>
9

>  <REMARK>
 VINA RESULT:      -9.0      2.124      6.105
  Name = 
  2 active torsions:
  status: ('A' for Active; 'I' for Inactive)
    1  A    between atoms: C_11  and  C_28
    2  A    between atoms: C_28  and  N_30
                            x       y       z     vdW  Elec       q    Type
                         _______ _______ _______ _____ _____    ______ ____

>  <TORSDO>
F 2

$$$$
