=
 OpenBabel11122410503D

 32 37  0  0  1  0  0  0  0  0999 V2000
  189.6250  175.9680  137.1540 C   0  0  0  0  0  2  0  0  0  0  0  0
  188.6150  177.3340  142.1100 C   0  0  0  0  0  0  0  0  0  0  0  0
  191.9490  175.8750  145.5370 C   0  0  0  0  0  2  0  0  0  0  0  0
  191.6800  177.1280  146.1200 O   0  0  0  0  0  0  0  0  0  0  0  0
  186.4370  178.1280  143.1500 C   0  0  0  0  0  0  0  0  0  0  0  0
  185.7640  178.6120  144.4010 C   0  0  1  0  0  3  0  0  0  0  0  0
  189.3060  177.6720  139.7210 C   0  0  1  0  0  3  0  0  0  0  0  0
  190.9330  176.6180  141.2780 C   0  0  0  0  0  2  0  0  0  0  0  0
  185.3010  178.2570  146.6110 C   0  0  2  0  0  3  0  0  0  0  0  0
  191.3470  176.4020  138.8040 C   0  0  0  0  0  2  0  0  0  0  0  0
  191.4650  175.8350  144.1090 C   0  0  0  0  0  3  0  0  0  0  0  0
  189.8450  176.4540  142.3460 C   0  0  1  0  0  3  0  0  0  0  0  0
  190.4060  176.5780  143.7430 C   0  0  0  0  0  0  0  0  0  0  0  0
  188.2320  177.2870  144.6660 C   0  0  1  0  0  3  0  0  0  0  0  0
  183.9760  178.6280  145.9460 C   0  0  0  0  0  2  0  0  0  0  0  0
  188.4060  176.4380  137.9650 C   0  0  0  0  0  2  0  0  0  0  0  0
  190.2910  176.4990  139.9110 C   0  0  2  0  0  3  0  0  0  0  0  0
  184.2570  178.6560  144.4470 C   0  0  0  0  0  2  0  0  0  0  0  0
  188.6120  177.7350  138.4810 O   0  0  0  0  0  0  0  0  0  0  0  0
  190.8240  176.7510  137.4780 N   0  0  0  0  0  0  0  0  0  0  0  0
  190.2800  177.2470  146.1610 C   0  0  0  0  0  2  0  0  0  0  0  0
  189.7410  177.5030  144.7440 C   0  0  1  0  0  3  0  0  0  0  0  0
  187.5270  178.0130  145.7330 N   0  0  0  0  0  2  0  0  0  0  0  0
  188.3680  177.8290  140.8830 C   0  0  0  0  0  3  0  0  0  0  0  0
  185.7560  178.3780  141.8410 C   0  0  0  0  0  1  0  0  0  0  0  0
  185.8560  179.4870  147.3290 C   0  0  0  0  0  1  0  0  0  0  0  0
  187.7020  177.6310  143.2650 C   0  0  0  0  0  0  0  0  0  0  0  0
  186.1560  177.7850  145.5190 N   0  0  2  0  0  0  0  0  0  0  0  0
  191.8470  176.3830  136.5150 C   0  0  0  0  0  2  0  0  0  0  0  0
  192.7550  175.3150  137.0990 C   0  0  2  0  0  3  0  0  0  0  0  0
  194.1950  175.6370  136.7610 C   0  0  0  0  0  1  0  0  0  0  0  0
  192.4240  174.0690  136.5640 O   0  0  0  0  0  1  0  0  0  0  0  0
  1 20  1  0  0  0  0
  1 16  1  0  0  0  0
  2 12  1  0  0  0  0
  2 27  1  0  0  0  0
  3  4  1  0  0  0  0
  4 21  1  0  0  0  0
  5 27  2  0  0  0  0
  5  6  1  0  0  0  0
  6 18  1  6  0  0  0
  6 28  1  0  0  0  0
  7 17  1  0  0  0  0
  7 24  1  1  0  0  0
  9 26  1  6  0  0  0
 11  3  1  0  0  0  0
 12  8  1  6  0  0  0
 12 13  1  0  0  0  0
 13 11  2  0  0  0  0
 13 22  1  0  0  0  0
 14 27  1  6  0  0  0
 14 22  1  0  0  0  0
 14 23  1  0  0  0  0
 15  9  1  0  0  0  0
 16 19  1  0  0  0  0
 17 10  1  6  0  0  0
 17  8  1  0  0  0  0
 18 15  1  0  0  0  0
 19  7  1  0  0  0  0
 20 10  1  0  0  0  0
 22 21  1  1  0  0  0
 24  2  2  0  0  0  0
 25  5  1  0  0  0  0
 28 23  1  1  0  0  0
 28  9  1  0  0  0  0
 29 30  1  0  0  0  0
 29 20  1  0  0  0  0
 30 31  1  6  0  0  0
 32 30  1  0  0  0  0
M  END
>  <MODEL>
1

>  <REMARK>
 VINA RESULT:     -10.4      0.000      0.000
  Name = 
  2 active torsions:
  status: ('A' for Active; 'I' for Inactive)
    1  A    between atoms: N_20  and  C_29
    2  A    between atoms: C_29  and  C_30
                            x       y       z     vdW  Elec       q    Type
                         _______ _______ _______ _____ _____    ______ ____

>  <TORSDO>
F 2

$$$$
=
 OpenBabel11122410503D

 32 37  0  0  1  0  0  0  0  0999 V2000
  188.3170  178.2100  147.2260 C   0  0  0  0  0  2  0  0  0  0  0  0
  186.0160  178.2530  142.5200 C   0  0  0  0  0  0  0  0  0  0  0  0
  189.0560  178.6070  138.5670 C   0  0  0  0  0  2  0  0  0  0  0  0
  188.1440  177.7170  137.9700 O   0  0  0  0  0  0  0  0  0  0  0  0
  183.5860  178.6890  141.9190 C   0  0  0  0  0  0  0  0  0  0  0  0
  182.5770  178.7630  140.8100 C   0  0  1  0  0  3  0  0  0  0  0  0
  186.8360  177.2630  144.6750 C   0  0  1  0  0  3  0  0  0  0  0  0
  188.4980  177.7190  142.8830 C   0  0  0  0  0  2  0  0  0  0  0  0
  181.9910  179.6380  138.7820 C   0  0  2  0  0  3  0  0  0  0  0  0
  189.3510  177.3270  145.2190 C   0  0  0  0  0  2  0  0  0  0  0  0
  188.8800  178.6280  140.0650 C   0  0  0  0  0  3  0  0  0  0  0  0
  187.4600  178.5200  142.0880 C   0  0  1  0  0  3  0  0  0  0  0  0
  187.6690  178.3850  140.5970 C   0  0  0  0  0  0  0  0  0  0  0  0
  185.3010  178.8760  140.1150 C   0  0  1  0  0  3  0  0  0  0  0  0
  180.7700  179.7930  139.6880 C   0  0  0  0  0  2  0  0  0  0  0  0
  186.9090  178.4690  146.6650 C   0  0  0  0  0  2  0  0  0  0  0  0
  188.2120  177.8900  144.3610 C   0  0  2  0  0  3  0  0  0  0  0  0
  181.2390  179.4020  141.0860 C   0  0  0  0  0  2  0  0  0  0  0  0
  186.3990  177.3170  146.0280 O   0  0  0  0  0  0  0  0  0  0  0  0
  188.9420  177.0390  146.5990 N   0  0  0  0  0  0  0  0  0  0  0  0
  186.8640  178.2410  138.2220 C   0  0  0  0  0  2  0  0  0  0  0  0
  186.5000  178.0270  139.7000 C   0  0  1  0  0  3  0  0  0  0  0  0
  184.1800  178.7220  139.1760 N   0  0  0  0  0  2  0  0  0  0  0  0
  185.7630  177.7300  143.7330 C   0  0  0  0  0  3  0  0  0  0  0  0
  183.0840  178.5610  143.3220 C   0  0  0  0  0  1  0  0  0  0  0  0
  181.7850  178.4220  137.8780 C   0  0  0  0  0  1  0  0  0  0  0  0
  184.9000  178.5830  141.5690 C   0  0  0  0  0  0  0  0  0  0  0  0
  183.1280  179.4980  139.6950 N   0  0  2  0  0  0  0  0  0  0  0  0
  190.1560  176.7530  147.3440 C   0  0  0  0  0  2  0  0  0  0  0  0
  191.2780  176.3780  146.3900 C   0  0  2  0  0  3  0  0  0  0  0  0
  192.1470  175.3150  147.0270 C   0  0  0  0  0  1  0  0  0  0  0  0
  192.0550  177.5030  146.1100 O   0  0  0  0  0  1  0  0  0  0  0  0
  2 24  2  0  0  0  0
  3 11  1  0  0  0  0
  4 21  1  0  0  0  0
  4  3  1  0  0  0  0
  5 25  1  0  0  0  0
  6 18  1  1  0  0  0
  6  5  1  0  0  0  0
  7 24  1  6  0  0  0
  7 19  1  0  0  0  0
  9 26  1  1  0  0  0
  9 15  1  0  0  0  0
  9 28  1  0  0  0  0
 10 20  1  0  0  0  0
 11 13  2  0  0  0  0
 12  2  1  0  0  0  0
 12  8  1  1  0  0  0
 13 12  1  0  0  0  0
 14 23  1  6  0  0  0
 14 27  1  0  0  0  0
 15 18  1  0  0  0  0
 16  1  1  0  0  0  0
 17  8  1  6  0  0  0
 17  7  1  0  0  0  0
 17 10  1  0  0  0  0
 19 16  1  0  0  0  0
 20  1  1  0  0  0  0
 20 29  1  0  0  0  0
 22 21  1  6  0  0  0
 22 14  1  0  0  0  0
 22 13  1  0  0  0  0
 27  5  2  0  0  0  0
 27  2  1  0  0  0  0
 28 23  1  6  0  0  0
 28  6  1  0  0  0  0
 30 31  1  1  0  0  0
 30 29  1  0  0  0  0
 32 30  1  0  0  0  0
M  END
>  <MODEL>
2

>  <REMARK>
 VINA RESULT:      -9.0      3.021      7.189
  Name = 
  2 active torsions:
  status: ('A' for Active; 'I' for Inactive)
    1  A    between atoms: N_20  and  C_29
    2  A    between atoms: C_29  and  C_30
                            x       y       z     vdW  Elec       q    Type
                         _______ _______ _______ _____ _____    ______ ____

>  <TORSDO>
F 2

$$$$
=
 OpenBabel11122410503D

 32 37  0  0  1  0  0  0  0  0999 V2000
  189.0170  178.5240  136.8890 C   0  0  0  0  0  2  0  0  0  0  0  0
  188.1700  177.7720  142.0040 C   0  0  0  0  0  0  0  0  0  0  0  0
  183.8890  179.5920  143.8350 C   0  0  0  0  0  2  0  0  0  0  0  0
  183.8950  178.4210  144.6160 O   0  0  0  0  0  0  0  0  0  0  0  0
  189.8150  177.1330  143.8320 C   0  0  0  0  0  0  0  0  0  0  0  0
  189.9870  176.8100  145.2880 C   0  0  1  0  0  3  0  0  0  0  0  0
  188.3560  177.1420  139.5820 C   0  0  1  0  0  3  0  0  0  0  0  0
  186.3180  178.3560  140.3280 C   0  0  0  0  0  2  0  0  0  0  0  0
  189.6520  177.4330  147.4610 C   0  0  2  0  0  3  0  0  0  0  0  0
  186.8110  178.2700  137.8600 C   0  0  0  0  0  2  0  0  0  0  0  0
  184.8460  179.4660  142.6760 C   0  0  0  0  0  3  0  0  0  0  0  0
  186.9650  178.6600  141.6850 C   0  0  1  0  0  3  0  0  0  0  0  0
  185.9430  178.6970  142.7970 C   0  0  0  0  0  0  0  0  0  0  0  0
  187.6280  178.1290  144.5060 C   0  0  1  0  0  3  0  0  0  0  0  0
  191.1140  177.0000  147.3560 C   0  0  0  0  0  2  0  0  0  0  0  0
  189.8560  178.1680  138.1270 C   0  0  0  0  0  2  0  0  0  0  0  0
  187.4050  178.3190  139.2730 C   0  0  2  0  0  3  0  0  0  0  0  0
  191.3790  176.7900  145.8690 C   0  0  0  0  0  2  0  0  0  0  0  0
  189.4400  176.9400  138.6840 O   0  0  0  0  0  0  0  0  0  0  0  0
  187.7570  177.7710  136.8560 N   0  0  0  0  0  0  0  0  0  0  0  0
  185.1860  178.3240  145.1640 C   0  0  0  0  0  2  0  0  0  0  0  0
  186.1820  177.9070  144.0690 C   0  0  1  0  0  3  0  0  0  0  0  0
  187.8880  177.5450  145.8300 N   0  0  0  0  0  2  0  0  0  0  0  0
  188.8180  177.1370  141.0100 C   0  0  0  0  0  3  0  0  0  0  0  0
  190.9060  176.7370  142.8880 C   0  0  0  0  0  1  0  0  0  0  0  0
  188.8410  176.2910  148.0730 C   0  0  0  0  0  1  0  0  0  0  0  0
  188.6070  177.6260  143.4340 C   0  0  0  0  0  0  0  0  0  0  0  0
  189.2530  177.7610  146.0900 N   0  0  2  0  0  0  0  0  0  0  0  0
  187.1510  178.0090  135.5570 C   0  0  0  0  0  2  0  0  0  0  0  0
  186.7950  176.6880  134.8960 C   0  0  2  0  0  3  0  0  0  0  0  0
  185.2960  176.4830  134.9550 C   0  0  0  0  0  1  0  0  0  0  0  0
  187.4300  175.6400  135.5630 O   0  0  0  0  0  1  0  0  0  0  0  0
  1 16  1  0  0  0  0
  2 27  1  0  0  0  0
  3  4  1  0  0  0  0
  4 21  1  0  0  0  0
  5  6  1  0  0  0  0
  6 18  1  1  0  0  0
  6 28  1  0  0  0  0
  7 24  1  1  0  0  0
  9 26  1  6  0  0  0
 11 13  2  0  0  0  0
 11  3  1  0  0  0  0
 12  8  1  6  0  0  0
 12  2  1  0  0  0  0
 12 13  1  0  0  0  0
 13 22  1  0  0  0  0
 14 27  1  6  0  0  0
 14 23  1  0  0  0  0
 15  9  1  0  0  0  0
 16 19  1  0  0  0  0
 17 10  1  6  0  0  0
 17  7  1  0  0  0  0
 17  8  1  0  0  0  0
 18 15  1  0  0  0  0
 19  7  1  0  0  0  0
 20  1  1  0  0  0  0
 20 10  1  0  0  0  0
 22 14  1  0  0  0  0
 22 21  1  1  0  0  0
 24  2  2  0  0  0  0
 25  5  1  0  0  0  0
 27  5  2  0  0  0  0
 28 23  1  1  0  0  0
 28  9  1  0  0  0  0
 29 20  1  0  0  0  0
 30 31  1  1  0  0  0
 30 29  1  0  0  0  0
 30 32  1  0  0  0  0
M  END
>  <MODEL>
3

>  <REMARK>
 VINA RESULT:      -8.9      2.501      4.946
  Name = 
  2 active torsions:
  status: ('A' for Active; 'I' for Inactive)
    1  A    between atoms: N_20  and  C_29
    2  A    between atoms: C_29  and  C_30
                            x       y       z     vdW  Elec       q    Type
                         _______ _______ _______ _____ _____    ______ ____

>  <TORSDO>
F 2

$$$$
=
 OpenBabel11122410503D

 32 37  0  0  1  0  0  0  0  0999 V2000
  181.7200  179.9110  139.8390 C   0  0  0  0  0  2  0  0  0  0  0  0
  185.9970  178.2510  142.3680 C   0  0  0  0  0  0  0  0  0  0  0  0
  185.9600  178.7320  147.3440 C   0  0  0  0  0  2  0  0  0  0  0  0
  186.6310  177.4960  147.3230 O   0  0  0  0  0  0  0  0  0  0  0  0
  188.3180  177.7600  141.4570 C   0  0  0  0  0  0  0  0  0  0  0  0
  189.7020  177.2800  141.7830 C   0  0  1  0  0  3  0  0  0  0  0  0
  183.8480  178.0390  141.0910 C   0  0  1  0  0  3  0  0  0  0  0  0
  183.7290  178.6200  143.5060 C   0  0  0  0  0  2  0  0  0  0  0  0
  191.5630  177.4860  143.0930 C   0  0  2  0  0  3  0  0  0  0  0  0
  181.6830  179.0090  142.0900 C   0  0  0  0  0  2  0  0  0  0  0  0
  185.2970  179.0030  146.0170 C   0  0  0  0  0  3  0  0  0  0  0  0
  185.2410  178.8680  143.5480 C   0  0  1  0  0  3  0  0  0  0  0  0
  185.8320  178.5040  144.8890 C   0  0  0  0  0  0  0  0  0  0  0  0
  188.0630  178.1070  143.9160 C   0  0  1  0  0  3  0  0  0  0  0  0
  192.0570  177.4290  141.6480 C   0  0  0  0  0  2  0  0  0  0  0  0
  183.1810  179.5870  139.4860 C   0  0  0  0  0  2  0  0  0  0  0  0
  183.2160  178.9910  142.1290 C   0  0  2  0  0  3  0  0  0  0  0  0
  190.8050  177.5030  140.7790 C   0  0  0  0  0  2  0  0  0  0  0  0
  183.4720  178.2290  139.7320 O   0  0  0  0  0  0  0  0  0  0  0  0
  181.1420  178.8960  140.7300 N   0  0  0  0  0  0  0  0  0  0  0  0
  187.6600  177.6260  146.3730 C   0  0  0  0  0  2  0  0  0  0  0  0
  187.0600  177.6170  144.9570 C   0  0  1  0  0  3  0  0  0  0  0  0
  189.3550  177.4150  144.0420 N   0  0  0  0  0  2  0  0  0  0  0  0
  185.3390  177.9360  141.2380 C   0  0  0  0  0  3  0  0  0  0  0  0
  187.8950  177.7710  140.0220 C   0  0  0  0  0  1  0  0  0  0  0  0
  191.7450  176.1100  143.7330 C   0  0  0  0  0  1  0  0  0  0  0  0
  187.4740  178.0070  142.5000 C   0  0  0  0  0  0  0  0  0  0  0  0
  190.1630  177.9060  143.0010 N   0  0  2  0  0  0  0  0  0  0  0  0
  179.7180  179.1700  140.8230 C   0  0  0  0  0  2  0  0  0  0  0  0
  178.9310  178.0970  140.0910 C   0  0  2  0  0  3  0  0  0  0  0  0
  179.5670  176.7460  140.3410 C   0  0  0  0  0  1  0  0  0  0  0  0
  178.9320  178.3610  138.7210 O   0  0  0  0  0  1  0  0  0  0  0  0
  1 20  1  0  0  0  0
  2 27  1  0  0  0  0
  2 12  1  0  0  0  0
  4  3  1  0  0  0  0
  5  6  1  0  0  0  0
  5 27  2  0  0  0  0
  6 18  1  6  0  0  0
  6 28  1  0  0  0  0
  7 24  1  6  0  0  0
  7 17  1  0  0  0  0
  9 26  1  6  0  0  0
 11  3  1  0  0  0  0
 12  8  1  1  0  0  0
 12 13  1  0  0  0  0
 13 22  1  0  0  0  0
 13 11  2  0  0  0  0
 14 27  1  6  0  0  0
 14 23  1  0  0  0  0
 14 22  1  0  0  0  0
 15  9  1  0  0  0  0
 16 19  1  0  0  0  0
 16  1  1  0  0  0  0
 17 10  1  1  0  0  0
 17  8  1  0  0  0  0
 18 15  1  0  0  0  0
 19  7  1  0  0  0  0
 20 29  1  0  0  0  0
 20 10  1  0  0  0  0
 21  4  1  0  0  0  0
 22 21  1  1  0  0  0
 24  2  2  0  0  0  0
 25  5  1  0  0  0  0
 28  9  1  0  0  0  0
 28 23  1  1  0  0  0
 30 31  1  6  0  0  0
 30 29  1  0  0  0  0
 32 30  1  0  0  0  0
M  END
>  <MODEL>
4

>  <REMARK>
 VINA RESULT:      -8.8      3.637      7.659
  Name = 
  2 active torsions:
  status: ('A' for Active; 'I' for Inactive)
    1  A    between atoms: N_20  and  C_29
    2  A    between atoms: C_29  and  C_30
                            x       y       z     vdW  Elec       q    Type
                         _______ _______ _______ _____ _____    ______ ____

>  <TORSDO>
F 2

$$$$
=
 OpenBabel11122410503D

 32 37  0  0  1  0  0  0  0  0999 V2000
  190.6240  176.6670  139.6790 C   0  0  0  0  0  2  0  0  0  0  0  0
  186.1830  178.2380  141.9700 C   0  0  0  0  0  0  0  0  0  0  0  0
  186.0100  177.8810  146.9540 C   0  0  0  0  0  2  0  0  0  0  0  0
  185.2990  179.0920  146.8700 O   0  0  0  0  0  0  0  0  0  0  0  0
  183.8910  178.6250  140.9440 C   0  0  0  0  0  0  0  0  0  0  0  0
  182.4770  179.0650  141.1960 C   0  0  1  0  0  3  0  0  0  0  0  0
  188.3800  178.4930  140.7850 C   0  0  1  0  0  3  0  0  0  0  0  0
  188.4080  177.9760  143.2180 C   0  0  0  0  0  2  0  0  0  0  0  0
  180.5670  178.8260  142.4270 C   0  0  2  0  0  3  0  0  0  0  0  0
  190.5280  177.6250  141.9050 C   0  0  0  0  0  2  0  0  0  0  0  0
  186.7420  177.6000  145.6650 C   0  0  0  0  0  3  0  0  0  0  0  0
  186.9050  177.6770  143.1980 C   0  0  1  0  0  3  0  0  0  0  0  0
  186.2410  178.0530  144.5020 C   0  0  0  0  0  0  0  0  0  0  0  0
  184.0450  178.3480  143.4200 C   0  0  1  0  0  3  0  0  0  0  0  0
  180.1380  178.8300  140.9590 C   0  0  0  0  0  2  0  0  0  0  0  0
  189.1710  176.9310  139.2530 C   0  0  0  0  0  2  0  0  0  0  0  0
  188.9950  177.5890  141.8750 C   0  0  2  0  0  3  0  0  0  0  0  0
  181.4300  178.7790  140.1500 C   0  0  0  0  0  2  0  0  0  0  0  0
  188.8230  178.2840  139.4500 O   0  0  0  0  0  0  0  0  0  0  0  0
  191.1260  177.7230  140.5680 N   0  0  0  0  0  0  0  0  0  0  0  0
  184.3190  178.9020  145.8800 C   0  0  0  0  0  2  0  0  0  0  0  0
  184.9820  178.8980  144.4920 C   0  0  1  0  0  3  0  0  0  0  0  0
  182.7260  178.9970  143.4710 N   0  0  0  0  0  2  0  0  0  0  0  0
  186.8810  178.5480  140.8630 C   0  0  0  0  0  3  0  0  0  0  0  0
  184.3780  178.5940  139.5310 C   0  0  0  0  0  1  0  0  0  0  0  0
  180.3100  180.2100  143.0220 C   0  0  0  0  0  1  0  0  0  0  0  0
  184.6940  178.4340  142.0300 C   0  0  0  0  0  0  0  0  0  0  0  0
  181.9830  178.4530  142.4080 N   0  0  2  0  0  0  0  0  0  0  0  0
  192.5530  177.5010  140.7310 C   0  0  0  0  0  2  0  0  0  0  0  0
  193.1320  176.8730  139.4760 C   0  0  2  0  0  3  0  0  0  0  0  0
  194.3150  176.0040  139.8460 C   0  0  0  0  0  1  0  0  0  0  0  0
  193.5520  177.8720  138.5970 O   0  0  0  0  0  1  0  0  0  0  0  0
  1 20  1  0  0  0  0
  2 27  1  0  0  0  0
  2 12  1  0  0  0  0
  4  3  1  0  0  0  0
  5  6  1  0  0  0  0
  5 27  2  0  0  0  0
  6 18  1  6  0  0  0
  6 28  1  0  0  0  0
  7 24  1  6  0  0  0
  7 17  1  0  0  0  0
  9 26  1  6  0  0  0
 11  3  1  0  0  0  0
 12  8  1  1  0  0  0
 12 13  1  0  0  0  0
 13 11  2  0  0  0  0
 14 27  1  6  0  0  0
 14 23  1  0  0  0  0
 14 22  1  0  0  0  0
 15  9  1  0  0  0  0
 16 19  1  0  0  0  0
 16  1  1  0  0  0  0
 17 10  1  1  0  0  0
 17  8  1  0  0  0  0
 18 15  1  0  0  0  0
 19  7  1  0  0  0  0
 20 29  1  0  0  0  0
 20 10  1  0  0  0  0
 21  4  1  0  0  0  0
 22 13  1  0  0  0  0
 22 21  1  1  0  0  0
 24  2  2  0  0  0  0
 25  5  1  0  0  0  0
 28  9  1  0  0  0  0
 28 23  1  1  0  0  0
 30 31  1  1  0  0  0
 30 29  1  0  0  0  0
 32 30  1  0  0  0  0
M  END
>  <MODEL>
5

>  <REMARK>
 VINA RESULT:      -8.3      2.881      4.383
  Name = 
  2 active torsions:
  status: ('A' for Active; 'I' for Inactive)
    1  A    between atoms: N_20  and  C_29
    2  A    between atoms: C_29  and  C_30
                            x       y       z     vdW  Elec       q    Type
                         _______ _______ _______ _____ _____    ______ ____

>  <TORSDO>
F 2

$$$$
=
 OpenBabel11122410503D

 32 37  0  0  1  0  0  0  0  0999 V2000
  187.6310  177.0360  144.3100 C   0  0  0  0  0  2  0  0  0  0  0  0
  183.3840  178.6280  141.6890 C   0  0  0  0  0  0  0  0  0  0  0  0
  179.1700  179.0560  144.3430 C   0  0  0  0  0  2  0  0  0  0  0  0
  178.9460  180.1850  143.5330 O   0  0  0  0  0  0  0  0  0  0  0  0
  182.9630  178.6820  139.1840 C   0  0  0  0  0  0  0  0  0  0  0  0
  181.9980  179.0530  138.0960 C   0  0  1  0  0  3  0  0  0  0  0  0
  185.6210  178.8490  142.8030 C   0  0  1  0  0  3  0  0  0  0  0  0
  183.5970  178.7290  144.2430 C   0  0  0  0  0  2  0  0  0  0  0  0
  179.8860  178.8760  137.2400 C   0  0  2  0  0  3  0  0  0  0  0  0
  185.8400  178.3260  145.3130 C   0  0  0  0  0  2  0  0  0  0  0  0
  180.6140  178.6280  144.2770 C   0  0  0  0  0  3  0  0  0  0  0  0
  182.7350  178.3230  143.0410 C   0  0  1  0  0  3  0  0  0  0  0  0
  181.3250  178.8530  143.1580 C   0  0  0  0  0  0  0  0  0  0  0  0
  180.9960  178.8130  140.7150 C   0  0  1  0  0  3  0  0  0  0  0  0
  180.8470  178.6170  136.0780 C   0  0  0  0  0  2  0  0  0  0  0  0
  187.1830  177.1240  142.8420 C   0  0  0  0  0  2  0  0  0  0  0  0
  184.9940  178.1760  144.0430 C   0  0  2  0  0  3  0  0  0  0  0  0
  182.2360  178.5300  136.7020 C   0  0  0  0  0  2  0  0  0  0  0  0
  186.9470  178.4620  142.4640 O   0  0  0  0  0  0  0  0  0  0  0  0
  187.2830  178.2530  145.0540 N   0  0  0  0  0  0  0  0  0  0  0  0
  179.1870  179.7700  142.2120 C   0  0  0  0  0  2  0  0  0  0  0  0
  180.6980  179.5930  141.9930 C   0  0  1  0  0  3  0  0  0  0  0  0
  180.2680  179.3660  139.5630 N   0  0  0  0  0  2  0  0  0  0  0  0
  184.7150  178.8070  141.6070 C   0  0  0  0  0  3  0  0  0  0  0  0
  184.3950  178.4620  138.8100 C   0  0  0  0  0  1  0  0  0  0  0  0
  179.3800  180.3160  137.1500 C   0  0  0  0  0  1  0  0  0  0  0  0
  182.5110  178.7230  140.4700 C   0  0  0  0  0  0  0  0  0  0  0  0
  180.6690  178.6080  138.4480 N   0  0  2  0  0  0  0  0  0  0  0  0
  187.9360  178.1630  146.3490 C   0  0  0  0  0  2  0  0  0  0  0  0
  189.2670  177.4420  146.2150 C   0  0  2  0  0  3  0  0  0  0  0  0
  189.8100  177.1280  147.5930 C   0  0  0  0  0  1  0  0  0  0  0  0
  190.1770  178.2530  145.5350 O   0  0  0  0  0  1  0  0  0  0  0  0
  1 20  1  0  0  0  0
  2 12  1  0  0  0  0
  4  3  1  0  0  0  0
  5 27  2  0  0  0  0
  6 18  1  6  0  0  0
  6 28  1  0  0  0  0
  6  5  1  0  0  0  0
  7 24  1  6  0  0  0
  7 17  1  0  0  0  0
  9 26  1  1  0  0  0
  9 28  1  0  0  0  0
 11  3  1  0  0  0  0
 12 13  1  0  0  0  0
 12  8  1  1  0  0  0
 13 11  2  0  0  0  0
 14 23  1  6  0  0  0
 14 22  1  0  0  0  0
 15 18  1  0  0  0  0
 15  9  1  0  0  0  0
 16  1  1  0  0  0  0
 17  8  1  1  0  0  0
 17 10  1  0  0  0  0
 19  7  1  0  0  0  0
 19 16  1  0  0  0  0
 20 10  1  0  0  0  0
 20 29  1  0  0  0  0
 21  4  1  0  0  0  0
 22 21  1  1  0  0  0
 22 13  1  0  0  0  0
 24  2  2  0  0  0  0
 25  5  1  0  0  0  0
 27 14  1  0  0  0  0
 27  2  1  0  0  0  0
 28 23  1  1  0  0  0
 30 29  1  0  0  0  0
 30 31  1  1  0  0  0
 32 30  1  0  0  0  0
M  END
>  <MODEL>
6

>  <REMARK>
 VINA RESULT:      -8.1      4.796      8.941
  Name = 
  2 active torsions:
  status: ('A' for Active; 'I' for Inactive)
    1  A    between atoms: N_20  and  C_29
    2  A    between atoms: C_29  and  C_30
                            x       y       z     vdW  Elec       q    Type
                         _______ _______ _______ _____ _____    ______ ____

>  <TORSDO>
F 2

$$$$
=
 OpenBabel11122410503D

 32 37  0  0  1  0  0  0  0  0999 V2000
  191.8430  175.6940  146.2970 C   0  0  0  0  0  2  0  0  0  0  0  0
  189.1030  177.5170  142.2210 C   0  0  0  0  0  0  0  0  0  0  0  0
  184.2560  178.4310  143.0350 C   0  0  0  0  0  2  0  0  0  0  0  0
  184.4720  179.5350  142.1890 O   0  0  0  0  0  0  0  0  0  0  0  0
  189.6840  177.4880  139.7470 C   0  0  0  0  0  0  0  0  0  0  0  0
  189.2510  177.8880  138.3670 C   0  0  1  0  0  3  0  0  0  0  0  0
  190.7520  177.5990  144.1110 C   0  0  1  0  0  3  0  0  0  0  0  0
  188.3290  177.7210  144.6570 C   0  0  0  0  0  2  0  0  0  0  0  0
  187.6230  177.8520  136.7630 C   0  0  2  0  0  3  0  0  0  0  0  0
  189.9390  177.1780  146.5160 C   0  0  0  0  0  2  0  0  0  0  0  0
  185.5670  177.8780  143.5370 C   0  0  0  0  0  3  0  0  0  0  0  0
  187.9590  177.3330  143.2200 C   0  0  1  0  0  3  0  0  0  0  0  0
  186.6710  177.9870  142.7770 C   0  0  0  0  0  0  0  0  0  0  0  0
  187.3030  177.8600  140.3970 C   0  0  1  0  0  3  0  0  0  0  0  0
  188.9250  177.4570  136.0660 C   0  0  0  0  0  2  0  0  0  0  0  0
  192.0020  175.7490  144.7690 C   0  0  0  0  0  2  0  0  0  0  0  0
  189.6340  177.0420  145.0190 C   0  0  2  0  0  3  0  0  0  0  0  0
  189.9540  177.2810  137.1790 C   0  0  0  0  0  2  0  0  0  0  0  0
  192.0620  177.0840  144.3150 O   0  0  0  0  0  0  0  0  0  0  0  0
  191.3560  176.9700  146.8350 N   0  0  0  0  0  0  0  0  0  0  0  0
  185.1600  179.0380  141.0680 C   0  0  0  0  0  2  0  0  0  0  0  0
  186.6150  178.7220  141.4520 C   0  0  1  0  0  3  0  0  0  0  0  0
  187.1300  178.4180  139.0470 N   0  0  0  0  0  2  0  0  0  0  0  0
  190.3740  177.5780  142.6570 C   0  0  0  0  0  3  0  0  0  0  0  0
  191.1200  177.1280  139.9590 C   0  0  0  0  0  1  0  0  0  0  0  0
  187.3320  179.3240  136.4690 C   0  0  0  0  0  1  0  0  0  0  0  0
  188.7790  177.6290  140.7580 C   0  0  0  0  0  0  0  0  0  0  0  0
  187.8520  177.5760  138.1830 N   0  0  2  0  0  0  0  0  0  0  0  0
  191.4500  176.8860  148.2830 C   0  0  0  0  0  2  0  0  0  0  0  0
  192.9060  176.8320  148.7100 C   0  0  2  0  0  3  0  0  0  0  0  0
  193.1800  175.5120  149.3990 C   0  0  0  0  0  1  0  0  0  0  0  0
  193.1790  177.8780  149.5930 O   0  0  0  0  0  1  0  0  0  0  0  0
  1 20  1  0  0  0  0
  2 24  2  0  0  0  0
  2 12  1  0  0  0  0
  3 11  1  0  0  0  0
  4  3  1  0  0  0  0
  5 25  1  0  0  0  0
  5 27  2  0  0  0  0
  6 18  1  6  0  0  0
  6  5  1  0  0  0  0
  7 24  1  6  0  0  0
  7 19  1  0  0  0  0
  7 17  1  0  0  0  0
  9 26  1  1  0  0  0
  9 28  1  0  0  0  0
 10 20  1  0  0  0  0
 12  8  1  1  0  0  0
 13 12  1  0  0  0  0
 13 11  2  0  0  0  0
 14 23  1  6  0  0  0
 14 27  1  0  0  0  0
 14 22  1  0  0  0  0
 15  9  1  0  0  0  0
 15 18  1  0  0  0  0
 16  1  1  0  0  0  0
 17  8  1  1  0  0  0
 17 10  1  0  0  0  0
 19 16  1  0  0  0  0
 20 29  1  0  0  0  0
 21  4  1  0  0  0  0
 22 21  1  6  0  0  0
 22 13  1  0  0  0  0
 27  2  1  0  0  0  0
 28  6  1  0  0  0  0
 28 23  1  1  0  0  0
 29 30  1  0  0  0  0
 30 31  1  1  0  0  0
 30 32  1  0  0  0  0
M  END
>  <MODEL>
7

>  <REMARK>
 VINA RESULT:      -7.8      2.826      7.891
  Name = 
  2 active torsions:
  status: ('A' for Active; 'I' for Inactive)
    1  A    between atoms: N_20  and  C_29
    2  A    between atoms: C_29  and  C_30
                            x       y       z     vdW  Elec       q    Type
                         _______ _______ _______ _____ _____    ______ ____

>  <TORSDO>
F 2

$$$$
=
 OpenBabel11122410503D

 32 37  0  0  1  0  0  0  0  0999 V2000
  180.0130  178.3790  139.7220 C   0  0  0  0  0  2  0  0  0  0  0  0
  185.0200  178.4470  141.2630 C   0  0  0  0  0  0  0  0  0  0  0  0
  188.4560  178.0000  137.6610 C   0  0  0  0  0  2  0  0  0  0  0  0
  189.1780  178.9260  138.4350 O   0  0  0  0  0  0  0  0  0  0  0  0
  185.9950  178.1050  143.5840 C   0  0  0  0  0  0  0  0  0  0  0  0
  187.2480  178.0740  144.4110 C   0  0  1  0  0  3  0  0  0  0  0  0
  182.7530  179.3940  140.7530 C   0  0  1  0  0  3  0  0  0  0  0  0
  184.2710  178.8860  138.8500 C   0  0  0  0  0  2  0  0  0  0  0  0
  189.3520  177.2330  144.7050 C   0  0  2  0  0  3  0  0  0  0  0  0
  181.8260  179.2330  138.3580 C   0  0  0  0  0  2  0  0  0  0  0  0
  187.0050  177.9780  138.0680 C   0  0  0  0  0  3  0  0  0  0  0  0
  185.2260  178.1280  139.7800 C   0  0  1  0  0  3  0  0  0  0  0  0
  186.6640  178.2630  139.3370 C   0  0  0  0  0  0  0  0  0  0  0  0
  187.5130  177.8630  141.6170 C   0  0  1  0  0  3  0  0  0  0  0  0
  188.6480  177.1180  146.0570 C   0  0  0  0  0  2  0  0  0  0  0  0
  180.7890  178.1770  141.0340 C   0  0  0  0  0  2  0  0  0  0  0  0
  182.8570  178.7180  139.3690 C   0  0  2  0  0  3  0  0  0  0  0  0
  187.1910  177.4840  145.7980 C   0  0  0  0  0  2  0  0  0  0  0  0
  181.4850  179.3490  141.3960 O   0  0  0  0  0  0  0  0  0  0  0  0
  180.5230  179.5290  138.9660 N   0  0  0  0  0  0  0  0  0  0  0  0
  189.1340  178.4490  139.7570 C   0  0  0  0  0  2  0  0  0  0  0  0
  187.7270  178.6690  140.3390 C   0  0  1  0  0  3  0  0  0  0  0  0
  188.6130  178.0640  142.5730 N   0  0  0  0  0  2  0  0  0  0  0  0
  183.8550  178.9730  141.6820 C   0  0  0  0  0  3  0  0  0  0  0  0
  184.6860  178.2440  144.2940 C   0  0  0  0  0  1  0  0  0  0  0  0
  190.2640  178.4590  144.7240 C   0  0  0  0  0  1  0  0  0  0  0  0
  186.1360  178.1640  142.2280 C   0  0  0  0  0  0  0  0  0  0  0  0
  188.2720  177.3250  143.7200 N   0  0  2  0  0  0  0  0  0  0  0  0
  179.5960  179.7660  137.8720 C   0  0  0  0  0  2  0  0  0  0  0  0
  179.2020  181.2330  137.8290 C   0  0  2  0  0  3  0  0  0  0  0  0
  179.8180  181.8850  136.6100 C   0  0  0  0  0  1  0  0  0  0  0  0
  179.6600  181.8790  138.9780 O   0  0  0  0  0  1  0  0  0  0  0  0
  1 16  1  0  0  0  0
  2 24  2  0  0  0  0
  2 27  1  0  0  0  0
  3 11  1  0  0  0  0
  3  4  1  0  0  0  0
  4 21  1  0  0  0  0
  5 25  1  0  0  0  0
  5  6  1  0  0  0  0
  6 18  1  1  0  0  0
  7 19  1  0  0  0  0
  7 24  1  1  0  0  0
  8 17  1  0  0  0  0
  9 26  1  1  0  0  0
  9 15  1  0  0  0  0
 10 20  1  0  0  0  0
 11 13  2  0  0  0  0
 12  8  1  6  0  0  0
 12  2  1  0  0  0  0
 13 12  1  0  0  0  0
 13 22  1  0  0  0  0
 14 27  1  1  0  0  0
 14 23  1  0  0  0  0
 16 19  1  0  0  0  0
 17 10  1  6  0  0  0
 17  7  1  0  0  0  0
 18 15  1  0  0  0  0
 20  1  1  0  0  0  0
 22 21  1  6  0  0  0
 22 14  1  0  0  0  0
 27  5  2  0  0  0  0
 28 23  1  6  0  0  0
 28  6  1  0  0  0  0
 28  9  1  0  0  0  0
 29 20  1  0  0  0  0
 30 31  1  6  0  0  0
 30 29  1  0  0  0  0
 30 32  1  0  0  0  0
M  END
>  <MODEL>
8

>  <REMARK>
 VINA RESULT:      -7.8      4.379      7.869
  Name = 
  2 active torsions:
  status: ('A' for Active; 'I' for Inactive)
    1  A    between atoms: N_20  and  C_29
    2  A    between atoms: C_29  and  C_30
                            x       y       z     vdW  Elec       q    Type
                         _______ _______ _______ _____ _____    ______ ____

>  <TORSDO>
F 2

$$$$
=
 OpenBabel11122410503D

 32 37  0  0  1  0  0  0  0  0999 V2000
  192.6500  177.4450  139.2150 C   0  0  0  0  0  2  0  0  0  0  0  0
  188.4520  177.7250  142.3370 C   0  0  0  0  0  0  0  0  0  0  0  0
  184.1940  179.2350  140.1980 C   0  0  0  0  0  2  0  0  0  0  0  0
  183.6000  178.2820  141.0450 O   0  0  0  0  0  0  0  0  0  0  0  0
  188.3320  177.7640  144.8740 C   0  0  0  0  0  0  0  0  0  0  0  0
  187.4280  177.8020  146.0730 C   0  0  1  0  0  3  0  0  0  0  0  0
  190.2390  176.6100  140.9730 C   0  0  1  0  0  3  0  0  0  0  0  0
  188.3150  177.6360  139.7770 C   0  0  0  0  0  2  0  0  0  0  0  0
  185.7070  178.8320  147.1660 C   0  0  2  0  0  3  0  0  0  0  0  0
  190.3800  177.0810  138.4460 C   0  0  0  0  0  2  0  0  0  0  0  0
  185.6800  179.0030  140.0890 C   0  0  0  0  0  3  0  0  0  0  0  0
  187.8500  178.3270  141.0640 C   0  0  1  0  0  3  0  0  0  0  0  0
  186.3460  178.4550  141.1210 C   0  0  0  0  0  0  0  0  0  0  0  0
  186.3410  178.5420  143.5850 C   0  0  1  0  0  3  0  0  0  0  0  0
  186.8080  178.6140  148.2040 C   0  0  0  0  0  2  0  0  0  0  0  0
  192.3740  177.5040  140.7260 C   0  0  0  0  0  2  0  0  0  0  0  0
  189.8270  177.5310  139.8040 C   0  0  2  0  0  3  0  0  0  0  0  0
  188.0220  178.1210  147.4220 C   0  0  0  0  0  2  0  0  0  0  0  0
  191.6320  176.3810  141.1490 O   0  0  0  0  0  0  0  0  0  0  0  0
  191.7340  176.5210  138.5350 N   0  0  0  0  0  0  0  0  0  0  0  0
  184.1410  178.5050  142.3240 C   0  0  0  0  0  2  0  0  0  0  0  0
  185.5970  178.0110  142.3620 C   0  0  1  0  0  3  0  0  0  0  0  0
  185.5800  178.3110  144.8220 N   0  0  0  0  0  2  0  0  0  0  0  0
  189.5780  176.9920  142.2660 C   0  0  0  0  0  3  0  0  0  0  0  0
  189.7520  177.3380  145.0750 C   0  0  0  0  0  1  0  0  0  0  0  0
  184.6460  177.7450  147.3360 C   0  0  0  0  0  1  0  0  0  0  0  0
  187.7650  177.9670  143.6500 C   0  0  0  0  0  0  0  0  0  0  0  0
  186.3890  178.7840  145.8710 N   0  0  2  0  0  0  0  0  0  0  0  0
  192.2130  176.3710  137.1710 C   0  0  0  0  0  2  0  0  0  0  0  0
  192.5830  174.9220  136.9040 C   0  0  2  0  0  3  0  0  0  0  0  0
  192.0890  174.5210  135.5300 C   0  0  0  0  0  1  0  0  0  0  0  0
  191.9920  174.0990  137.8630 O   0  0  0  0  0  1  0  0  0  0  0  0
  1 16  1  0  0  0  0
  2 27  1  0  0  0  0
  3  4  1  0  0  0  0
  4 21  1  0  0  0  0
  5 25  1  0  0  0  0
  5  6  1  0  0  0  0
  6 18  1  1  0  0  0
  7 19  1  0  0  0  0
  7 24  1  1  0  0  0
  8 17  1  0  0  0  0
  9 26  1  6  0  0  0
  9 15  1  0  0  0  0
 10 20  1  0  0  0  0
 11  3  1  0  0  0  0
 11 13  2  0  0  0  0
 12  8  1  6  0  0  0
 12 13  1  0  0  0  0
 12  2  1  0  0  0  0
 13 22  1  0  0  0  0
 14 27  1  1  0  0  0
 14 23  1  0  0  0  0
 16 19  1  0  0  0  0
 17 10  1  6  0  0  0
 17  7  1  0  0  0  0
 18 15  1  0  0  0  0
 20  1  1  0  0  0  0
 22 21  1  6  0  0  0
 22 14  1  0  0  0  0
 24  2  2  0  0  0  0
 27  5  2  0  0  0  0
 28 23  1  6  0  0  0
 28  6  1  0  0  0  0
 28  9  1  0  0  0  0
 29 20  1  0  0  0  0
 30 31  1  6  0  0  0
 30 29  1  0  0  0  0
 30 32  1  0  0  0  0
M  END
>  <MODEL>
9

>  <REMARK>
 VINA RESULT:      -7.8      1.762      4.148
  Name = 
  2 active torsions:
  status: ('A' for Active; 'I' for Inactive)
    1  A    between atoms: N_20  and  C_29
    2  A    between atoms: C_29  and  C_30
                            x       y       z     vdW  Elec       q    Type
                         _______ _______ _______ _____ _____    ______ ____

>  <TORSDO>
F 2

$$$$
