=
 OpenBabel11122412223D

 34 40  0  0  1  0  0  0  0  0999 V2000
  187.4100  178.2570  138.6180 C   0  0  1  0  0  3  0  0  0  0  0  0
  186.0430  178.7040  140.7440 C   0  0  0  0  0  3  0  0  0  0  0  0
  192.4640  175.2170  135.3870 C   0  0  1  0  0  3  0  0  0  0  0  0
  188.6320  176.9430  136.8000 C   0  0  0  0  0  0  0  0  0  0  0  0
  191.0970  176.5170  137.1450 C   0  0  2  0  0  3  0  0  0  0  0  0
  193.5520  176.2860  137.4120 C   0  0  0  0  0  1  0  0  0  0  0  0
  193.7780  174.8330  135.1100 O   0  0  0  0  0  1  0  0  0  0  0  0
  190.0900  174.4870  134.9370 C   0  0  0  0  0  2  0  0  0  0  0  0
  188.1960  177.8020  140.9470 C   0  0  0  0  0  0  0  0  0  0  0  0
  189.3540  176.5080  143.5950 C   0  0  0  0  0  2  0  0  0  0  0  0
  190.7610  176.4840  138.5680 N   0  0  0  0  0  2  0  0  0  0  0  0
  189.6080  174.8610  136.1950 O   0  0  0  0  0  0  0  0  0  0  0  0
  189.3920  177.3680  140.5090 C   0  0  0  0  0  0  0  0  0  0  0  0
  186.3740  178.5800  142.2360 C   0  0  0  0  0  3  0  0  0  0  0  0
  189.8520  176.2360  136.2740 C   0  0  1  0  0  3  0  0  0  0  0  0
  191.5460  174.0500  135.0360 C   0  0  0  0  0  2  0  0  0  0  0  0
  187.9060  176.8130  143.2130 C   0  0  2  0  0  3  0  0  0  0  0  0
  188.5850  177.4130  138.1940 C   0  0  0  0  0  0  0  0  0  0  0  0
  192.3040  175.6000  136.8730 C   0  0  2  0  0  3  0  0  0  0  0  0
  189.5710  177.1160  139.0560 C   0  0  0  0  0  0  0  0  0  0  0  0
  186.2930  177.4370  136.6220 C   0  0  0  0  0  3  0  0  0  0  0  0
  190.1620  175.9720  142.4190 C   0  0  0  0  0  2  0  0  0  0  0  0
  187.5430  176.9640  136.0890 N   0  0  0  0  0  0  0  0  0  0  0  0
  190.5200  177.0950  141.4570 C   0  0  0  0  0  2  0  0  0  0  0  0
  187.8250  178.0860  142.3600 C   0  0  1  0  0  3  0  0  0  0  0  0
  186.2230  177.9780  137.8050 N   0  0  0  0  0  0  0  0  0  0  0  0
  187.1420  178.0770  140.0420 N   0  0  0  0  0  0  0  0  0  0  0  0
  187.1650  176.9680  144.3890 O   0  0  0  0  0  0  0  0  0  0  0  0
  187.9230  177.8370  145.1780 C   0  0  0  0  0  2  0  0  0  0  0  0
  189.3680  178.0500  148.4750 C   0  0  0  0  0  2  0  0  0  0  0  0
  187.1660  178.2020  147.5240 C   0  0  0  0  0  2  0  0  0  0  0  0
  187.9830  177.3210  146.6030 C   0  0  0  0  0  3  0  0  0  0  0  0
  187.9070  178.1900  148.8390 C   0  0  0  0  0  2  0  0  0  0  0  0
  189.4100  177.3760  147.1160 C   0  0  0  0  0  2  0  0  0  0  0  0
  1 26  1  6  0  0  0
  1 27  1  0  0  0  0
  2 14  2  0  0  0  0
  3  7  1  1  0  0  0
  3 19  1  0  0  0  0
  4 18  1  0  0  0  0
  5 11  1  1  0  0  0
  8 16  1  0  0  0  0
  8 12  1  0  0  0  0
  9 25  1  0  0  0  0
 11 20  1  0  0  0  0
 13  9  2  0  0  0  0
 13 24  1  0  0  0  0
 15 12  1  1  0  0  0
 15  4  1  0  0  0  0
 15  5  1  0  0  0  0
 16  3  1  0  0  0  0
 17 10  1  0  0  0  0
 17 28  1  1  0  0  0
 18  1  1  0  0  0  0
 18 20  2  0  0  0  0
 19  5  1  0  0  0  0
 19  6  1  6  0  0  0
 20 13  1  0  0  0  0
 21 26  2  0  0  0  0
 22 10  1  0  0  0  0
 23 21  1  0  0  0  0
 23  4  2  0  0  0  0
 24 22  1  0  0  0  0
 25 14  1  6  0  0  0
 25 17  1  0  0  0  0
 27  2  1  0  0  0  0
 27  9  1  0  0  0  0
 28 29  1  0  0  0  0
 29 32  1  0  0  0  0
 30 33  1  0  0  0  0
 31 33  1  0  0  0  0
 32 34  1  0  0  0  0
 32 31  1  0  0  0  0
 34 30  1  0  0  0  0
M  END
>  <MODEL>
1

>  <REMARK>
 VINA RESULT:      -9.6      0.000      0.000
  Name = 
  3 active torsions:
  status: ('A' for Active; 'I' for Inactive)
    1  A    between atoms: C_17  and  O_28
    2  A    between atoms: O_28  and  C_29
    3  A    between atoms: C_29  and  C_32
                            x       y       z     vdW  Elec       q    Type
                         _______ _______ _______ _____ _____    ______ ____

>  <TORSDO>
F 3

$$$$
=
 OpenBabel11122412223D

 34 40  0  0  1  0  0  0  0  0999 V2000
  187.9820  177.6650  138.1090 C   0  0  1  0  0  3  0  0  0  0  0  0
  186.5170  178.6210  139.9890 C   0  0  0  0  0  3  0  0  0  0  0  0
  193.0180  173.7590  135.9650 C   0  0  1  0  0  3  0  0  0  0  0  0
  189.2260  175.9360  136.7000 C   0  0  0  0  0  0  0  0  0  0  0  0
  191.6320  175.4680  137.3080 C   0  0  2  0  0  3  0  0  0  0  0  0
  194.0460  175.1750  137.7990 C   0  0  0  0  0  1  0  0  0  0  0  0
  194.3180  173.2590  135.8720 O   0  0  0  0  0  1  0  0  0  0  0  0
  190.6340  173.0710  135.5010 C   0  0  0  0  0  2  0  0  0  0  0  0
  188.5900  177.6750  140.5340 C   0  0  0  0  0  0  0  0  0  0  0  0
  189.4950  176.9130  143.4710 C   0  0  0  0  0  2  0  0  0  0  0  0
  191.2070  175.7550  138.6790 N   0  0  0  0  0  2  0  0  0  0  0  0
  190.1000  173.7270  136.6150 O   0  0  0  0  0  0  0  0  0  0  0  0
  189.7800  177.0970  140.2860 C   0  0  0  0  0  0  0  0  0  0  0  0
  186.7460  178.7990  141.4940 C   0  0  0  0  0  3  0  0  0  0  0  0
  190.4280  175.0730  136.4240 C   0  0  1  0  0  3  0  0  0  0  0  0
  192.0490  172.5910  135.7970 C   0  0  0  0  0  2  0  0  0  0  0  0
  188.0970  177.2040  142.9280 C   0  0  2  0  0  3  0  0  0  0  0  0
  189.1240  176.6930  137.9580 C   0  0  0  0  0  0  0  0  0  0  0  0
  192.7910  174.4550  137.3230 C   0  0  2  0  0  3  0  0  0  0  0  0
  190.0330  176.5350  138.9350 C   0  0  0  0  0  0  0  0  0  0  0  0
  186.9400  176.4990  136.2500 C   0  0  0  0  0  3  0  0  0  0  0  0
  190.3370  176.1010  142.4960 C   0  0  0  0  0  2  0  0  0  0  0  0
  188.1870  175.8620  135.9210 N   0  0  0  0  0  0  0  0  0  0  0  0
  190.8270  176.9750  141.3510 C   0  0  0  0  0  2  0  0  0  0  0  0
  188.1520  178.2700  141.8250 C   0  0  1  0  0  3  0  0  0  0  0  0
  186.8320  177.2820  137.2860 N   0  0  0  0  0  0  0  0  0  0  0  0
  187.6150  177.8050  139.5160 N   0  0  0  0  0  0  0  0  0  0  0  0
  187.2950  177.6420  143.9880 O   0  0  0  0  0  0  0  0  0  0  0  0
  187.8070  176.9940  145.1150 C   0  0  0  0  0  2  0  0  0  0  0  0
  187.7200  177.9550  148.5890 C   0  0  0  0  0  2  0  0  0  0  0  0
  189.4120  177.6180  146.9160 C   0  0  0  0  0  2  0  0  0  0  0  0
  188.1450  178.0120  146.1880 C   0  0  0  0  0  3  0  0  0  0  0  0
  189.2070  178.0790  148.3390 C   0  0  0  0  0  2  0  0  0  0  0  0
  187.0460  178.0500  147.2330 C   0  0  0  0  0  2  0  0  0  0  0  0
  1 26  1  6  0  0  0
  1 27  1  0  0  0  0
  2 14  2  0  0  0  0
  3  7  1  1  0  0  0
  3 19  1  0  0  0  0
  4 18  1  0  0  0  0
  5 19  1  0  0  0  0
  5 11  1  1  0  0  0
  8 16  1  0  0  0  0
  8 12  1  0  0  0  0
  9 25  1  0  0  0  0
 11 20  1  0  0  0  0
 13  9  2  0  0  0  0
 13 24  1  0  0  0  0
 15 12  1  1  0  0  0
 15  4  1  0  0  0  0
 15  5  1  0  0  0  0
 16  3  1  0  0  0  0
 17 10  1  0  0  0  0
 17 28  1  1  0  0  0
 18  1  1  0  0  0  0
 18 20  2  0  0  0  0
 19  6  1  6  0  0  0
 20 13  1  0  0  0  0
 21 26  2  0  0  0  0
 22 10  1  0  0  0  0
 23 21  1  0  0  0  0
 23  4  2  0  0  0  0
 24 22  1  0  0  0  0
 25 14  1  6  0  0  0
 25 17  1  0  0  0  0
 27  2  1  0  0  0  0
 27  9  1  0  0  0  0
 28 29  1  0  0  0  0
 29 32  1  0  0  0  0
 31 33  1  0  0  0  0
 32 31  1  0  0  0  0
 32 34  1  0  0  0  0
 33 30  1  0  0  0  0
 34 30  1  0  0  0  0
M  END
>  <MODEL>
2

>  <REMARK>
 VINA RESULT:      -9.4      0.974      1.224
  Name = 
  3 active torsions:
  status: ('A' for Active; 'I' for Inactive)
    1  A    between atoms: C_17  and  O_28
    2  A    between atoms: O_28  and  C_29
    3  A    between atoms: C_29  and  C_32
                            x       y       z     vdW  Elec       q    Type
                         _______ _______ _______ _____ _____    ______ ____

>  <TORSDO>
F 3

$$$$
=
 OpenBabel11122412223D

 34 40  0  0  1  0  0  0  0  0999 V2000
  188.0360  177.4560  137.8080 C   0  0  1  0  0  3  0  0  0  0  0  0
  186.5060  178.4860  139.5940 C   0  0  0  0  0  3  0  0  0  0  0  0
  193.2360  173.5860  136.0190 C   0  0  1  0  0  3  0  0  0  0  0  0
  189.3630  175.6790  136.5400 C   0  0  0  0  0  0  0  0  0  0  0  0
  191.7710  175.3350  137.2190 C   0  0  2  0  0  3  0  0  0  0  0  0
  194.1820  175.1570  137.7700 C   0  0  0  0  0  1  0  0  0  0  0  0
  194.5540  173.1250  135.9820 O   0  0  0  0  0  1  0  0  0  0  0  0
  190.8850  172.7890  135.5630 C   0  0  0  0  0  2  0  0  0  0  0  0
  188.5980  177.6490  140.2370 C   0  0  0  0  0  0  0  0  0  0  0  0
  189.4710  177.1170  143.2340 C   0  0  0  0  0  2  0  0  0  0  0  0
  191.3100  175.6980  138.5600 N   0  0  0  0  0  2  0  0  0  0  0  0
  190.3090  173.5000  136.6200 O   0  0  0  0  0  0  0  0  0  0  0  0
  189.8110  177.0960  140.0480 C   0  0  0  0  0  0  0  0  0  0  0  0
  186.7010  178.7720  141.0880 C   0  0  0  0  0  3  0  0  0  0  0  0
  190.5970  174.8400  136.3440 C   0  0  1  0  0  3  0  0  0  0  0  0
  192.3090  172.3780  135.9140 C   0  0  0  0  0  2  0  0  0  0  0  0
  188.0750  177.3230  142.6490 C   0  0  2  0  0  3  0  0  0  0  0  0
  189.2120  176.5150  137.7430 C   0  0  0  0  0  0  0  0  0  0  0  0
  192.9610  174.3640  137.3220 C   0  0  2  0  0  3  0  0  0  0  0  0
  190.1070  176.4530  138.7430 C   0  0  0  0  0  0  0  0  0  0  0  0
  187.0680  176.1330  136.0150 C   0  0  0  0  0  3  0  0  0  0  0  0
  190.3580  176.2700  142.3300 C   0  0  0  0  0  2  0  0  0  0  0  0
  188.3420  175.5180  135.7510 N   0  0  0  0  0  0  0  0  0  0  0  0
  190.8400  177.0810  141.1370 C   0  0  0  0  0  2  0  0  0  0  0  0
  188.1160  178.3140  141.4770 C   0  0  1  0  0  3  0  0  0  0  0  0
  186.9160  176.9790  136.9940 N   0  0  0  0  0  0  0  0  0  0  0  0
  187.6380  177.6780  139.1960 N   0  0  0  0  0  0  0  0  0  0  0  0
  187.2390  177.8040  143.6630 O   0  0  0  0  0  0  0  0  0  0  0  0
  187.7580  177.2600  144.8410 C   0  0  0  0  0  2  0  0  0  0  0  0
  186.0270  179.1050  147.4110 C   0  0  0  0  0  2  0  0  0  0  0  0
  185.4220  177.9080  145.4170 C   0  0  0  0  0  2  0  0  0  0  0  0
  186.7030  177.2870  145.9310 C   0  0  0  0  0  3  0  0  0  0  0  0
  184.8370  178.6410  146.6010 C   0  0  0  0  0  2  0  0  0  0  0  0
  187.1680  178.1590  147.0820 C   0  0  0  0  0  2  0  0  0  0  0  0
  1 26  1  6  0  0  0
  1 27  1  0  0  0  0
  2 14  2  0  0  0  0
  3  7  1  1  0  0  0
  3 19  1  0  0  0  0
  4 18  1  0  0  0  0
  5 19  1  0  0  0  0
  5 11  1  1  0  0  0
  8 16  1  0  0  0  0
  8 12  1  0  0  0  0
  9 25  1  0  0  0  0
 11 20  1  0  0  0  0
 13  9  2  0  0  0  0
 13 24  1  0  0  0  0
 15  4  1  1  0  0  0
 15 12  1  0  0  0  0
 15  5  1  0  0  0  0
 16  3  1  0  0  0  0
 17 10  1  0  0  0  0
 17 28  1  1  0  0  0
 18  1  1  0  0  0  0
 18 20  2  0  0  0  0
 19  6  1  6  0  0  0
 20 13  1  0  0  0  0
 21 26  2  0  0  0  0
 22 10  1  0  0  0  0
 23 21  1  0  0  0  0
 23  4  2  0  0  0  0
 24 22  1  0  0  0  0
 25 14  1  6  0  0  0
 25 17  1  0  0  0  0
 27  2  1  0  0  0  0
 27  9  1  0  0  0  0
 28 29  1  0  0  0  0
 29 32  1  0  0  0  0
 31 32  1  0  0  0  0
 31 33  1  0  0  0  0
 32 34  1  0  0  0  0
 33 30  1  0  0  0  0
 34 30  1  0  0  0  0
M  END
>  <MODEL>
3

>  <REMARK>
 VINA RESULT:      -9.2      1.328      1.665
  Name = 
  3 active torsions:
  status: ('A' for Active; 'I' for Inactive)
    1  A    between atoms: C_17  and  O_28
    2  A    between atoms: O_28  and  C_29
    3  A    between atoms: C_29  and  C_32
                            x       y       z     vdW  Elec       q    Type
                         _______ _______ _______ _____ _____    ______ ____

>  <TORSDO>
F 3

$$$$
=
 OpenBabel11122412223D

 34 40  0  0  1  0  0  0  0  0999 V2000
  183.3910  179.0110  141.2000 C   0  0  1  0  0  3  0  0  0  0  0  0
  183.1640  178.8960  143.7550 C   0  0  0  0  0  3  0  0  0  0  0  0
  186.7840  177.8040  135.5220 C   0  0  1  0  0  3  0  0  0  0  0  0
  183.8400  178.2370  138.8070 C   0  0  0  0  0  0  0  0  0  0  0  0
  186.1870  178.5260  137.9230 C   0  0  2  0  0  3  0  0  0  0  0  0
  188.4450  179.0040  137.0140 C   0  0  0  0  0  1  0  0  0  0  0  0
  187.8470  177.8390  134.6170 O   0  0  0  0  0  1  0  0  0  0  0  0
  184.7220  176.4450  136.0440 C   0  0  0  0  0  2  0  0  0  0  0  0
  185.2850  178.6500  142.7910 C   0  0  0  0  0  0  0  0  0  0  0  0
  187.8360  177.5740  144.3270 C   0  0  0  0  0  2  0  0  0  0  0  0
  186.5990  178.3010  139.3090 N   0  0  0  0  0  2  0  0  0  0  0  0
  184.8400  176.5760  137.4310 O   0  0  0  0  0  0  0  0  0  0  0  0
  186.1820  178.6140  141.7880 C   0  0  0  0  0  0  0  0  0  0  0  0
  184.1940  178.7730  144.8840 C   0  0  0  0  0  3  0  0  0  0  0  0
  184.7760  177.9540  137.6630 C   0  0  1  0  0  3  0  0  0  0  0  0
  186.1000  176.4460  135.3940 C   0  0  0  0  0  2  0  0  0  0  0  0
  186.3590  177.4690  144.7010 C   0  0  2  0  0  3  0  0  0  0  0  0
  184.3690  178.5780  140.1380 C   0  0  0  0  0  0  0  0  0  0  0  0
  187.2820  178.0220  136.9650 C   0  0  2  0  0  3  0  0  0  0  0  0
  185.6870  178.5240  140.3910 C   0  0  0  0  0  0  0  0  0  0  0  0
  181.6640  178.0380  139.7950 C   0  0  0  0  0  3  0  0  0  0  0  0
  188.0710  177.3780  142.8350 C   0  0  0  0  0  2  0  0  0  0  0  0
  182.5700  177.9880  138.6780 N   0  0  0  0  0  0  0  0  0  0  0  0
  187.6560  178.6190  142.0580 C   0  0  0  0  0  2  0  0  0  0  0  0
  185.5920  178.7170  144.2450 C   0  0  1  0  0  3  0  0  0  0  0  0
  182.0560  178.4550  140.9650 N   0  0  0  0  0  0  0  0  0  0  0  0
  183.8940  178.6660  142.5270 N   0  0  0  0  0  0  0  0  0  0  0  0
  186.2660  177.3210  146.0890 O   0  0  0  0  0  0  0  0  0  0  0  0
  187.1720  178.2490  146.6090 C   0  0  0  0  0  2  0  0  0  0  0  0
  190.4300  177.1250  147.6730 C   0  0  0  0  0  2  0  0  0  0  0  0
  188.7510  178.6360  148.4970 C   0  0  0  0  0  2  0  0  0  0  0  0
  188.0350  177.5910  147.6700 C   0  0  0  0  0  3  0  0  0  0  0  0
  190.0830  178.0160  148.8460 C   0  0  0  0  0  2  0  0  0  0  0  0
  189.1150  176.7510  147.0140 C   0  0  0  0  0  2  0  0  0  0  0  0
  1 18  1  6  0  0  0
  1 27  1  0  0  0  0
  2 14  2  0  0  0  0
  3  7  1  6  0  0  0
  3 19  1  0  0  0  0
  4 18  1  0  0  0  0
  5 11  1  1  0  0  0
  8 12  1  0  0  0  0
  9 25  1  0  0  0  0
 10 17  1  0  0  0  0
 11 20  1  0  0  0  0
 13 24  1  0  0  0  0
 13  9  2  0  0  0  0
 15 12  1  1  0  0  0
 15  5  1  0  0  0  0
 15  4  1  0  0  0  0
 16  3  1  0  0  0  0
 16  8  1  0  0  0  0
 17 28  1  1  0  0  0
 18 20  2  0  0  0  0
 19  6  1  6  0  0  0
 19  5  1  0  0  0  0
 20 13  1  0  0  0  0
 21 26  2  0  0  0  0
 22 10  1  0  0  0  0
 23  4  2  0  0  0  0
 23 21  1  0  0  0  0
 24 22  1  0  0  0  0
 25 17  1  0  0  0  0
 25 14  1  1  0  0  0
 26  1  1  0  0  0  0
 27  9  1  0  0  0  0
 27  2  1  0  0  0  0
 28 29  1  0  0  0  0
 29 32  1  0  0  0  0
 30 33  1  0  0  0  0
 31 33  1  0  0  0  0
 32 31  1  0  0  0  0
 34 32  1  0  0  0  0
 34 30  1  0  0  0  0
M  END
>  <MODEL>
4

>  <REMARK>
 VINA RESULT:      -9.0      3.090      4.332
  Name = 
  3 active torsions:
  status: ('A' for Active; 'I' for Inactive)
    1  A    between atoms: C_17  and  O_28
    2  A    between atoms: O_28  and  C_29
    3  A    between atoms: C_29  and  C_32
                            x       y       z     vdW  Elec       q    Type
                         _______ _______ _______ _____ _____    ______ ____

>  <TORSDO>
F 3

$$$$
=
 OpenBabel11122412223D

 34 40  0  0  1  0  0  0  0  0999 V2000
  186.0960  178.5660  138.8620 C   0  0  1  0  0  3  0  0  0  0  0  0
  185.3340  177.6990  136.5690 C   0  0  0  0  0  3  0  0  0  0  0  0
  185.5380  178.8050  145.5590 C   0  0  1  0  0  3  0  0  0  0  0  0
  186.7970  178.5190  141.3180 C   0  0  0  0  0  0  0  0  0  0  0  0
  184.9770  178.8160  143.0430 C   0  0  2  0  0  3  0  0  0  0  0  0
  183.2040  179.3070  144.7060 C   0  0  0  0  0  1  0  0  0  0  0  0
  184.9310  179.0030  146.8010 O   0  0  0  0  0  1  0  0  0  0  0  0
  187.4840  177.5770  144.5220 C   0  0  0  0  0  2  0  0  0  0  0  0
  183.8670  177.5360  138.3890 C   0  0  0  0  0  0  0  0  0  0  0  0
  181.2340  175.7780  138.4160 C   0  0  0  0  0  2  0  0  0  0  0  0
  184.1220  178.1340  142.0700 N   0  0  0  0  0  2  0  0  0  0  0  0
  186.8120  177.2640  143.3370 O   0  0  0  0  0  0  0  0  0  0  0  0
  183.4630  177.7150  139.6600 C   0  0  0  0  0  0  0  0  0  0  0  0
  184.0030  177.1280  136.0650 C   0  0  0  0  0  3  0  0  0  0  0  0
  186.4680  178.5030  142.7860 C   0  0  1  0  0  3  0  0  0  0  0  0
  186.5050  177.6310  145.6880 C   0  0  0  0  0  2  0  0  0  0  0  0
  182.4330  175.7200  137.4710 C   0  0  2  0  0  3  0  0  0  0  0  0
  185.7310  178.3790  140.3130 C   0  0  0  0  0  0  0  0  0  0  0  0
  184.4840  178.5160  144.4700 C   0  0  2  0  0  3  0  0  0  0  0  0
  184.4670  178.1100  140.6800 C   0  0  0  0  0  0  0  0  0  0  0  0
  188.4030  178.2590  139.5570 C   0  0  0  0  0  3  0  0  0  0  0  0
  181.6470  176.0250  139.8610 C   0  0  0  0  0  2  0  0  0  0  0  0
  188.0390  178.4580  140.9350 N   0  0  0  0  0  0  0  0  0  0  0  0
  182.0400  177.4810  140.0670 C   0  0  0  0  0  2  0  0  0  0  0  0
  183.0140  177.1230  137.2420 C   0  0  1  0  0  3  0  0  0  0  0  0
  187.5050  178.2530  138.6140 N   0  0  0  0  0  0  0  0  0  0  0  0
  185.2090  177.7800  138.0080 N   0  0  0  0  0  0  0  0  0  0  0  0
  182.0110  175.1650  136.2580 O   0  0  0  0  0  0  0  0  0  0  0  0
  181.8100  173.8110  136.5360 C   0  0  0  0  0  2  0  0  0  0  0  0
  183.7810  170.7980  136.3330 C   0  0  0  0  0  2  0  0  0  0  0  0
  183.8910  173.0180  135.4190 C   0  0  0  0  0  2  0  0  0  0  0  0
  183.1460  173.1190  136.7320 C   0  0  0  0  0  3  0  0  0  0  0  0
  184.6470  171.7130  135.4950 C   0  0  0  0  0  2  0  0  0  0  0  0
  182.9290  171.6960  137.2110 C   0  0  0  0  0  2  0  0  0  0  0  0
  1 26  1  1  0  0  0
  1 18  1  0  0  0  0
  2 27  1  0  0  0  0
  3 16  1  0  0  0  0
  3  7  1  1  0  0  0
  5 11  1  6  0  0  0
  5 19  1  0  0  0  0
  8 16  1  0  0  0  0
  9 13  2  0  0  0  0
 10 22  1  0  0  0  0
 12  8  1  0  0  0  0
 13 24  1  0  0  0  0
 13 20  1  0  0  0  0
 14  2  2  0  0  0  0
 15  4  1  6  0  0  0
 15  5  1  0  0  0  0
 15 12  1  0  0  0  0
 17 28  1  6  0  0  0
 17 10  1  0  0  0  0
 18 20  2  0  0  0  0
 18  4  1  0  0  0  0
 19  6  1  1  0  0  0
 19  3  1  0  0  0  0
 20 11  1  0  0  0  0
 21 23  1  0  0  0  0
 22 24  1  0  0  0  0
 23  4  2  0  0  0  0
 25 14  1  6  0  0  0
 25 17  1  0  0  0  0
 25  9  1  0  0  0  0
 26 21  2  0  0  0  0
 27  9  1  0  0  0  0
 27  1  1  0  0  0  0
 28 29  1  0  0  0  0
 29 32  1  0  0  0  0
 30 34  1  0  0  0  0
 31 33  1  0  0  0  0
 31 32  1  0  0  0  0
 32 34  1  0  0  0  0
 33 30  1  0  0  0  0
M  END
>  <MODEL>
5

>  <REMARK>
 VINA RESULT:      -8.7      3.963      9.398
  Name = 
  3 active torsions:
  status: ('A' for Active; 'I' for Inactive)
    1  A    between atoms: C_17  and  O_28
    2  A    between atoms: O_28  and  C_29
    3  A    between atoms: C_29  and  C_32
                            x       y       z     vdW  Elec       q    Type
                         _______ _______ _______ _____ _____    ______ ____

>  <TORSDO>
F 3

$$$$
=
 OpenBabel11122412223D

 34 40  0  0  1  0  0  0  0  0999 V2000
  188.5370  178.2510  139.5630 C   0  0  1  0  0  3  0  0  0  0  0  0
  186.4580  178.4840  138.0750 C   0  0  0  0  0  3  0  0  0  0  0  0
  191.4320  176.9110  145.4830 C   0  0  1  0  0  3  0  0  0  0  0  0
  190.1630  177.2280  141.2470 C   0  0  0  0  0  0  0  0  0  0  0  0
  189.8560  177.8550  143.6740 C   0  0  2  0  0  3  0  0  0  0  0  0
  189.6580  178.6420  146.0170 C   0  0  0  0  0  1  0  0  0  0  0  0
  191.6960  177.0250  146.8490 O   0  0  0  0  0  1  0  0  0  0  0  0
  191.6560  175.2540  143.5930 C   0  0  0  0  0  2  0  0  0  0  0  0
  186.1990  178.5350  140.4040 C   0  0  0  0  0  0  0  0  0  0  0  0
  183.4260  178.2550  141.9050 C   0  0  0  0  0  2  0  0  0  0  0  0
  188.4340  177.9340  143.3400 N   0  0  0  0  0  2  0  0  0  0  0  0
  190.4570  175.6180  142.9710 O   0  0  0  0  0  0  0  0  0  0  0  0
  186.6100  178.5300  141.6850 C   0  0  0  0  0  0  0  0  0  0  0  0
  184.9810  178.7500  138.3900 C   0  0  0  0  0  3  0  0  0  0  0  0
  190.6160  176.9720  142.6590 C   0  0  1  0  0  3  0  0  0  0  0  0
  191.5470  175.4380  145.1000 C   0  0  0  0  0  2  0  0  0  0  0  0
  183.7910  177.9070  140.4630 C   0  0  2  0  0  3  0  0  0  0  0  0
  188.8650  177.8710  140.9850 C   0  0  0  0  0  0  0  0  0  0  0  0
  190.0240  177.4460  145.1480 C   0  0  2  0  0  3  0  0  0  0  0  0
  188.0070  178.1280  141.9860 C   0  0  0  0  0  0  0  0  0  0  0  0
  190.3220  176.7400  138.9050 C   0  0  0  0  0  3  0  0  0  0  0  0
  184.5290  177.8850  142.8870 C   0  0  0  0  0  2  0  0  0  0  0  0
  190.8220  176.7060  140.2540 N   0  0  0  0  0  0  0  0  0  0  0  0
  185.6780  178.8800  142.8050 C   0  0  0  0  0  2  0  0  0  0  0  0
  184.8390  178.8860  139.9150 C   0  0  1  0  0  3  0  0  0  0  0  0
  189.2430  177.4020  138.6000 N   0  0  0  0  0  0  0  0  0  0  0  0
  187.0930  178.2240  139.3500 N   0  0  0  0  0  0  0  0  0  0  0  0
  182.6270  177.9570  139.6890 O   0  0  0  0  0  0  0  0  0  0  0  0
  181.8360  178.9340  140.2980 C   0  0  0  0  0  2  0  0  0  0  0  0
  181.1850  181.2320  137.5960 C   0  0  0  0  0  2  0  0  0  0  0  0
  181.0410  178.8580  137.9370 C   0  0  0  0  0  2  0  0  0  0  0  0
  180.8570  179.5090  139.2910 C   0  0  0  0  0  3  0  0  0  0  0  0
  180.7440  179.9460  136.9340 C   0  0  0  0  0  2  0  0  0  0  0  0
  181.1240  180.9890  139.0930 C   0  0  0  0  0  2  0  0  0  0  0  0
  1 26  1  6  0  0  0
  1 18  1  0  0  0  0
  2 14  2  0  0  0  0
  2 27  1  0  0  0  0
  3  7  1  1  0  0  0
  5 11  1  6  0  0  0
  5 19  1  0  0  0  0
  8 16  1  0  0  0  0
  9 13  2  0  0  0  0
 10 22  1  0  0  0  0
 12  8  1  0  0  0  0
 13 20  1  0  0  0  0
 13 24  1  0  0  0  0
 15  4  1  6  0  0  0
 15 12  1  0  0  0  0
 15  5  1  0  0  0  0
 16  3  1  0  0  0  0
 17 28  1  6  0  0  0
 17 10  1  0  0  0  0
 18  4  1  0  0  0  0
 18 20  2  0  0  0  0
 19  3  1  0  0  0  0
 19  6  1  1  0  0  0
 20 11  1  0  0  0  0
 21 23  1  0  0  0  0
 23  4  2  0  0  0  0
 24 22  1  0  0  0  0
 25 14  1  6  0  0  0
 25  9  1  0  0  0  0
 25 17  1  0  0  0  0
 26 21  2  0  0  0  0
 27  1  1  0  0  0  0
 27  9  1  0  0  0  0
 28 29  1  0  0  0  0
 30 34  1  0  0  0  0
 31 32  1  0  0  0  0
 32 29  1  0  0  0  0
 33 30  1  0  0  0  0
 33 31  1  0  0  0  0
 34 32  1  0  0  0  0
M  END
>  <MODEL>
6

>  <REMARK>
 VINA RESULT:      -8.5      3.230      7.562
  Name = 
  3 active torsions:
  status: ('A' for Active; 'I' for Inactive)
    1  A    between atoms: C_17  and  O_28
    2  A    between atoms: O_28  and  C_29
    3  A    between atoms: C_29  and  C_32
                            x       y       z     vdW  Elec       q    Type
                         _______ _______ _______ _____ _____    ______ ____

>  <TORSDO>
F 3

$$$$
=
 OpenBabel11122412223D

 34 40  0  0  1  0  0  0  0  0999 V2000
  181.7920  179.0410  143.5870 C   0  0  1  0  0  3  0  0  0  0  0  0
  183.5390  179.0030  145.4680 C   0  0  0  0  0  3  0  0  0  0  0  0
  179.9610  177.9020  137.2180 C   0  0  1  0  0  3  0  0  0  0  0  0
  180.3870  178.2170  141.6190 C   0  0  0  0  0  0  0  0  0  0  0  0
  181.2780  178.6630  139.2990 C   0  0  2  0  0  3  0  0  0  0  0  0
  182.0750  179.2900  137.0350 C   0  0  0  0  0  1  0  0  0  0  0  0
  179.9990  177.9910  135.8250 O   0  0  0  0  0  1  0  0  0  0  0  0
  179.0820  176.4000  139.0450 C   0  0  0  0  0  2  0  0  0  0  0  0
  184.2650  178.8950  143.2430 C   0  0  0  0  0  0  0  0  0  0  0  0
  187.1940  178.0890  142.3510 C   0  0  0  0  0  2  0  0  0  0  0  0
  182.5970  178.5240  139.9180 N   0  0  0  0  0  2  0  0  0  0  0  0
  180.1750  176.5930  139.8960 O   0  0  0  0  0  0  0  0  0  0  0  0
  184.1250  178.8940  141.9040 C   0  0  0  0  0  0  0  0  0  0  0  0
  185.0720  179.0070  145.4610 C   0  0  0  0  0  3  0  0  0  0  0  0
  180.1900  177.9680  140.1480 C   0  0  1  0  0  3  0  0  0  0  0  0
  179.5210  176.4890  137.5900 C   0  0  0  0  0  2  0  0  0  0  0  0
  186.4920  177.8780  143.6910 C   0  0  2  0  0  3  0  0  0  0  0  0
  181.6970  178.6500  142.1340 C   0  0  0  0  0  0  0  0  0  0  0  0
  181.3430  178.2150  137.8280 C   0  0  2  0  0  3  0  0  0  0  0  0
  182.7690  178.7120  141.3280 C   0  0  0  0  0  0  0  0  0  0  0  0
  179.6800  177.8780  143.8850 C   0  0  0  0  0  3  0  0  0  0  0  0
  186.2630  177.8570  141.1670 C   0  0  0  0  0  2  0  0  0  0  0  0
  179.4630  177.8600  142.4630 N   0  0  0  0  0  0  0  0  0  0  0  0
  185.3090  179.0300  140.9950 C   0  0  0  0  0  2  0  0  0  0  0  0
  185.5390  179.0410  143.9960 C   0  0  1  0  0  3  0  0  0  0  0  0
  180.7730  178.3680  144.3960 N   0  0  0  0  0  0  0  0  0  0  0  0
  183.1380  178.7880  144.0940 N   0  0  0  0  0  0  0  0  0  0  0  0
  187.4680  177.7750  144.6880 O   0  0  0  0  0  0  0  0  0  0  0  0
  188.6560  177.5140  143.9990 C   0  0  0  0  0  2  0  0  0  0  0  0
  190.5490  176.7530  146.9730 C   0  0  0  0  0  2  0  0  0  0  0  0
  190.9780  176.8470  144.6100 C   0  0  0  0  0  2  0  0  0  0  0  0
  189.8470  177.8130  144.8910 C   0  0  0  0  0  3  0  0  0  0  0  0
  191.6510  176.6310  145.9440 C   0  0  0  0  0  2  0  0  0  0  0  0
  189.4680  177.6150  146.3470 C   0  0  0  0  0  2  0  0  0  0  0  0
  1 18  1  6  0  0  0
  1 27  1  0  0  0  0
  1 26  1  0  0  0  0
  3  7  1  6  0  0  0
  3 16  1  0  0  0  0
  3 19  1  0  0  0  0
  4 18  1  0  0  0  0
  4 23  2  0  0  0  0
  5 11  1  1  0  0  0
  5 15  1  0  0  0  0
  8 12  1  0  0  0  0
  9 25  1  0  0  0  0
  9 27  1  0  0  0  0
 10 17  1  0  0  0  0
 11 20  1  0  0  0  0
 13  9  2  0  0  0  0
 14  2  2  0  0  0  0
 15 12  1  1  0  0  0
 15  4  1  0  0  0  0
 16  8  1  0  0  0  0
 17 25  1  0  0  0  0
 17 28  1  1  0  0  0
 19  6  1  6  0  0  0
 19  5  1  0  0  0  0
 20 13  1  0  0  0  0
 20 18  2  0  0  0  0
 21 26  2  0  0  0  0
 22 10  1  0  0  0  0
 23 21  1  0  0  0  0
 24 22  1  0  0  0  0
 24 13  1  0  0  0  0
 25 14  1  1  0  0  0
 27  2  1  0  0  0  0
 29 28  1  0  0  0  0
 29 32  1  0  0  0  0
 31 32  1  0  0  0  0
 31 33  1  0  0  0  0
 32 34  1  0  0  0  0
 33 30  1  0  0  0  0
 34 30  1  0  0  0  0
M  END
>  <MODEL>
7

>  <REMARK>
 VINA RESULT:      -8.5      5.276      7.934
  Name = 
  3 active torsions:
  status: ('A' for Active; 'I' for Inactive)
    1  A    between atoms: C_17  and  O_28
    2  A    between atoms: O_28  and  C_29
    3  A    between atoms: C_29  and  C_32
                            x       y       z     vdW  Elec       q    Type
                         _______ _______ _______ _____ _____    ______ ____

>  <TORSDO>
F 3

$$$$
=
 OpenBabel11122412223D

 34 40  0  0  1  0  0  0  0  0999 V2000
  188.5380  178.2310  139.5670 C   0  0  1  0  0  3  0  0  0  0  0  0
  186.4410  178.4560  138.1020 C   0  0  0  0  0  3  0  0  0  0  0  0
  191.5010  176.9630  145.4680 C   0  0  1  0  0  3  0  0  0  0  0  0
  190.1790  177.2230  141.2450 C   0  0  0  0  0  0  0  0  0  0  0  0
  189.9090  177.8900  143.6650 C   0  0  2  0  0  3  0  0  0  0  0  0
  189.7470  178.7160  145.9990 C   0  0  0  0  0  1  0  0  0  0  0  0
  191.7850  177.0970  146.8290 O   0  0  0  0  0  1  0  0  0  0  0  0
  191.6880  175.2750  143.6020 C   0  0  0  0  0  2  0  0  0  0  0  0
  186.2140  178.5450  140.4330 C   0  0  0  0  0  0  0  0  0  0  0  0
  183.4590  178.3100  141.9750 C   0  0  0  0  0  2  0  0  0  0  0  0
  188.4830  177.9750  143.3490 N   0  0  0  0  0  2  0  0  0  0  0  0
  190.4840  175.6370  142.9900 O   0  0  0  0  0  0  0  0  0  0  0  0
  186.6420  178.5580  141.7090 C   0  0  0  0  0  0  0  0  0  0  0  0
  184.9710  178.7380  138.4320 C   0  0  0  0  0  3  0  0  0  0  0  0
  190.6490  176.9850  142.6550 C   0  0  1  0  0  3  0  0  0  0  0  0
  191.6000  175.4840  145.1080 C   0  0  0  0  0  2  0  0  0  0  0  0
  183.8020  177.9360  140.5340 C   0  0  2  0  0  3  0  0  0  0  0  0
  188.8820  177.8710  140.9900 C   0  0  0  0  0  0  0  0  0  0  0  0
  190.0930  177.5030  145.1440 C   0  0  2  0  0  3  0  0  0  0  0  0
  188.0400  178.1500  141.9980 C   0  0  0  0  0  0  0  0  0  0  0  0
  190.3030  176.6960  138.9100 C   0  0  0  0  0  3  0  0  0  0  0  0
  184.5720  177.9480  142.9480 C   0  0  0  0  0  2  0  0  0  0  0  0
  190.8210  176.6800  140.2520 N   0  0  0  0  0  0  0  0  0  0  0  0
  185.7270  178.9320  142.8360 C   0  0  0  0  0  2  0  0  0  0  0  0
  184.8500  178.8990  139.9570 C   0  0  1  0  0  3  0  0  0  0  0  0
  189.2250  177.3620  138.6080 N   0  0  0  0  0  0  0  0  0  0  0  0
  187.0910  178.2110  139.3720 N   0  0  0  0  0  0  0  0  0  0  0  0
  182.6280  177.9840  139.7750 O   0  0  0  0  0  0  0  0  0  0  0  0
  182.1530  176.6700  139.7690 C   0  0  0  0  0  2  0  0  0  0  0  0
  182.4890  177.2760  136.2300 C   0  0  0  0  0  2  0  0  0  0  0  0
  183.0820  175.5220  137.7620 C   0  0  0  0  0  2  0  0  0  0  0  0
  181.8760  176.2260  138.3450 C   0  0  0  0  0  3  0  0  0  0  0  0
  183.0800  175.8850  136.2970 C   0  0  0  0  0  2  0  0  0  0  0  0
  181.6200  177.4350  137.4650 C   0  0  0  0  0  2  0  0  0  0  0  0
  1 26  1  6  0  0  0
  1 18  1  0  0  0  0
  2 14  2  0  0  0  0
  2 27  1  0  0  0  0
  3  7  1  1  0  0  0
  5 11  1  6  0  0  0
  5 19  1  0  0  0  0
  8 16  1  0  0  0  0
  9 13  2  0  0  0  0
 10 22  1  0  0  0  0
 12  8  1  0  0  0  0
 13 20  1  0  0  0  0
 13 24  1  0  0  0  0
 15  4  1  6  0  0  0
 15 12  1  0  0  0  0
 15  5  1  0  0  0  0
 16  3  1  0  0  0  0
 17 28  1  6  0  0  0
 17 10  1  0  0  0  0
 18  4  1  0  0  0  0
 18 20  2  0  0  0  0
 19  3  1  0  0  0  0
 19  6  1  1  0  0  0
 20 11  1  0  0  0  0
 21 23  1  0  0  0  0
 23  4  2  0  0  0  0
 24 22  1  0  0  0  0
 25 14  1  6  0  0  0
 25  9  1  0  0  0  0
 25 17  1  0  0  0  0
 26 21  2  0  0  0  0
 27  1  1  0  0  0  0
 27  9  1  0  0  0  0
 29 28  1  0  0  0  0
 30 33  1  0  0  0  0
 30 34  1  0  0  0  0
 31 32  1  0  0  0  0
 32 29  1  0  0  0  0
 33 31  1  0  0  0  0
 34 32  1  0  0  0  0
M  END
>  <MODEL>
8

>  <REMARK>
 VINA RESULT:      -8.5      3.038      7.533
  Name = 
  3 active torsions:
  status: ('A' for Active; 'I' for Inactive)
    1  A    between atoms: C_17  and  O_28
    2  A    between atoms: O_28  and  C_29
    3  A    between atoms: C_29  and  C_32
                            x       y       z     vdW  Elec       q    Type
                         _______ _______ _______ _____ _____    ______ ____

>  <TORSDO>
F 3

$$$$
=
 OpenBabel11122412223D

 34 40  0  0  1  0  0  0  0  0999 V2000
  188.9040  178.3700  139.2080 C   0  0  1  0  0  3  0  0  0  0  0  0
  188.8880  177.8060  136.7030 C   0  0  0  0  0  3  0  0  0  0  0  0
  185.9060  178.5810  145.2230 C   0  0  1  0  0  3  0  0  0  0  0  0
  188.5780  178.0670  141.7240 C   0  0  0  0  0  0  0  0  0  0  0  0
  186.3710  178.8120  142.6980 C   0  0  2  0  0  3  0  0  0  0  0  0
  184.2770  179.7330  143.6580 C   0  0  0  0  0  1  0  0  0  0  0  0
  184.9390  178.9080  146.1770 O   0  0  0  0  0  1  0  0  0  0  0  0
  187.7320  176.8890  144.8100 C   0  0  0  0  0  2  0  0  0  0  0  0
  186.8460  178.0100  137.8340 C   0  0  0  0  0  0  0  0  0  0  0  0
  184.0570  177.0510  136.6830 C   0  0  0  0  0  2  0  0  0  0  0  0
  185.8130  178.4200  141.4030 N   0  0  0  0  0  2  0  0  0  0  0  0
  187.5090  176.8060  143.4320 O   0  0  0  0  0  0  0  0  0  0  0  0
  186.0440  178.2610  138.8850 C   0  0  0  0  0  0  0  0  0  0  0  0
  187.7550  177.6400  135.6840 C   0  0  0  0  0  3  0  0  0  0  0  0
  187.7200  178.1050  142.9590 C   0  0  1  0  0  3  0  0  0  0  0  0
  186.4290  177.1830  145.5400 C   0  0  0  0  0  2  0  0  0  0  0  0
  185.4710  176.6870  136.2350 C   0  0  2  0  0  3  0  0  0  0  0  0
  187.9780  178.2540  140.3920 C   0  0  0  0  0  0  0  0  0  0  0  0
  185.3130  178.6250  143.8000 C   0  0  2  0  0  3  0  0  0  0  0  0
  186.6460  178.3360  140.2410 C   0  0  0  0  0  0  0  0  0  0  0  0
  190.6170  177.4170  140.6430 C   0  0  0  0  0  3  0  0  0  0  0  0
  183.9340  177.1360  138.1990 C   0  0  0  0  0  2  0  0  0  0  0  0
  189.8150  177.6740  141.8100 N   0  0  0  0  0  0  0  0  0  0  0  0
  184.5630  178.4200  138.7180 C   0  0  0  0  0  2  0  0  0  0  0  0
  186.4230  177.8790  136.4140 C   0  0  1  0  0  3  0  0  0  0  0  0
  190.1760  177.6840  139.4470 N   0  0  0  0  0  0  0  0  0  0  0  0
  188.2470  177.8820  137.9980 N   0  0  0  0  0  0  0  0  0  0  0  0
  185.4230  176.3020  134.8910 O   0  0  0  0  0  0  0  0  0  0  0  0
  185.1930  174.9250  134.9220 C   0  0  0  0  0  2  0  0  0  0  0  0
  186.7550  171.8720  136.0370 C   0  0  0  0  0  2  0  0  0  0  0  0
  187.4590  173.8890  134.9370 C   0  0  0  0  0  2  0  0  0  0  0  0
  186.2480  174.2430  135.7730 C   0  0  0  0  0  3  0  0  0  0  0  0
  187.9790  172.5990  135.5240 C   0  0  0  0  0  2  0  0  0  0  0  0
  185.7090  172.9350  136.3200 C   0  0  0  0  0  2  0  0  0  0  0  0
  1 26  1  1  0  0  0
  1 18  1  0  0  0  0
  2 27  1  0  0  0  0
  3 16  1  0  0  0  0
  3  7  1  1  0  0  0
  4 23  2  0  0  0  0
  5 11  1  6  0  0  0
  5 15  1  0  0  0  0
  5 19  1  0  0  0  0
  8 16  1  0  0  0  0
  9 27  1  0  0  0  0
  9 13  2  0  0  0  0
 10 22  1  0  0  0  0
 12  8  1  0  0  0  0
 13 20  1  0  0  0  0
 14  2  2  0  0  0  0
 15  4  1  6  0  0  0
 15 12  1  0  0  0  0
 17 28  1  6  0  0  0
 17 25  1  0  0  0  0
 17 10  1  0  0  0  0
 18  4  1  0  0  0  0
 19  6  1  1  0  0  0
 19  3  1  0  0  0  0
 20 18  2  0  0  0  0
 20 11  1  0  0  0  0
 21 23  1  0  0  0  0
 22 24  1  0  0  0  0
 24 13  1  0  0  0  0
 25 14  1  6  0  0  0
 25  9  1  0  0  0  0
 26 21  2  0  0  0  0
 27  1  1  0  0  0  0
 28 29  1  0  0  0  0
 29 32  1  0  0  0  0
 30 34  1  0  0  0  0
 31 33  1  0  0  0  0
 31 32  1  0  0  0  0
 32 34  1  0  0  0  0
 33 30  1  0  0  0  0
M  END
>  <MODEL>
9

>  <REMARK>
 VINA RESULT:      -8.4      2.831      8.853
  Name = 
  3 active torsions:
  status: ('A' for Active; 'I' for Inactive)
    1  A    between atoms: C_17  and  O_28
    2  A    between atoms: O_28  and  C_29
    3  A    between atoms: C_29  and  C_32
                            x       y       z     vdW  Elec       q    Type
                         _______ _______ _______ _____ _____    ______ ____

>  <TORSDO>
F 3

$$$$
