=
 OpenBabel11122411513D

 28 32  0  0  1  0  0  0  0  0999 V2000
  183.7370  176.5800  138.4290 C   0  0  0  0  0  0  0  0  0  0  0  0
  186.4480  177.4880  142.0130 O   0  0  0  0  0  0  0  0  0  0  0  0
  179.5520  180.4540  139.6990 O   0  0  0  0  0  0  0  0  0  0  0  0
  185.4460  178.7140  137.8280 C   0  0  0  0  0  3  0  0  0  0  0  0
  180.5560  179.6980  141.9970 C   0  0  2  0  0  3  0  0  0  0  0  0
  182.7010  175.5190  138.6400 C   0  0  0  0  0  2  0  0  0  0  0  0
  185.7450  179.7700  141.3870 O   0  0  0  0  0  0  0  0  0  0  0  0
  185.4400  178.5760  142.2460 S   0  0  0  0  0  0  0  0  0  0  0  0
  184.2570  178.5220  144.7290 C   0  0  1  0  0  3  0  0  0  0  0  0
  183.7840  177.9680  142.0130 C   0  0  1  0  0  3  0  0  0  0  0  0
  179.0370  176.1370  138.1690 O   0  0  0  0  0  1  0  0  0  0  0  0
  181.9180  178.4560  140.6620 C   0  0  2  0  0  3  0  0  0  0  0  0
  182.8670  178.8930  144.1570 C   0  0  0  0  0  2  0  0  0  0  0  0
  185.4520  179.1080  143.9580 C   0  0  0  0  0  2  0  0  0  0  0  0
  180.1920  175.8070  138.8780 C   0  0  2  0  0  3  0  0  0  0  0  0
  183.9300  177.6100  139.3760 C   0  0  0  0  0  0  0  0  0  0  0  0
  179.4840  179.2350  140.6100 S   0  0  2  0  0  0  0  0  0  0  0  0
  184.3320  178.9300  146.1850 C   0  0  0  0  0  1  0  0  0  0  0  0
  180.2740  176.6530  140.1510 C   0  0  0  0  0  2  0  0  0  0  0  0
  184.7560  178.6900  139.0430 C   0  0  0  0  0  3  0  0  0  0  0  0
  184.4290  176.6110  137.2120 C   0  0  0  0  0  3  0  0  0  0  0  0
  185.2900  177.6680  136.9180 C   0  0  0  0  0  3  0  0  0  0  0  0
  181.4070  175.9570  137.9650 C   0  0  0  0  0  2  0  0  0  0  0  0
  181.5470  178.6380  142.0520 N   0  0  1  0  0  0  0  0  0  0  0  0
  180.6780  178.1000  139.8750 C   0  0  2  0  0  3  0  0  0  0  0  0
  182.8340  178.9840  142.6250 C   0  0  2  0  0  3  0  0  0  0  0  0
  179.7380  179.7090  143.2740 C   0  0  0  0  0  1  0  0  0  0  0  0
  183.1500  177.5820  140.6650 C   0  0  1  0  0  3  0  0  0  0  0  0
  1  6  1  0  0  0  0
  1 16  1  0  0  0  0
  2  8  2  0  0  0  0
  3 17  2  0  0  0  0
  4 20  1  0  0  0  0
  5 24  1  0  0  0  0
  5 27  1  1  0  0  0
  7  8  2  0  0  0  0
  8 14  1  0  0  0  0
  9 18  1  1  0  0  0
 10  8  1  6  0  0  0
 10 26  1  0  0  0  0
 11 15  1  0  0  0  0
 12 28  1  0  0  0  0
 12 24  1  0  0  0  0
 13  9  1  0  0  0  0
 14  9  1  0  0  0  0
 15 19  1  0  0  0  0
 16 28  1  0  0  0  0
 17  5  1  0  0  0  0
 20 16  2  0  0  0  0
 21  1  2  0  0  0  0
 22 21  1  0  0  0  0
 22  4  2  0  0  0  0
 23  6  1  0  0  0  0
 23 15  1  0  0  0  0
 24 26  1  0  0  0  0
 25 19  1  0  0  0  0
 25 17  1  0  0  0  0
 25 12  1  0  0  0  0
 26 13  1  0  0  0  0
 28 10  1  0  0  0  0
M  END
>  <MODEL>
1

>  <REMARK>
 VINA RESULT:      -6.4      0.000      0.000
  Name = 
  0 active torsions:
  status: ('A' for Active; 'I' for Inactive)
                            x       y       z     vdW  Elec       q    Type
                         _______ _______ _______ _____ _____    ______ ____

>  <TORSDO>
F 0

$$$$
=
 OpenBabel11122411513D

 28 32  0  0  1  0  0  0  0  0999 V2000
  191.3100  175.3020  138.1530 C   0  0  0  0  0  0  0  0  0  0  0  0
  191.2760  175.8460  142.7050 O   0  0  0  0  0  0  0  0  0  0  0  0
  187.5870  179.6240  136.8890 O   0  0  0  0  0  0  0  0  0  0  0  0
  193.1950  177.2300  138.9070 C   0  0  0  0  0  3  0  0  0  0  0  0
  186.8790  178.7300  139.2470 C   0  0  2  0  0  3  0  0  0  0  0  0
  190.2810  174.3680  137.5940 C   0  0  0  0  0  2  0  0  0  0  0  0
  191.3090  178.2020  141.9670 O   0  0  0  0  0  0  0  0  0  0  0  0
  190.4370  177.0420  142.3570 S   0  0  0  0  0  0  0  0  0  0  0  0
  187.9690  177.0980  143.5710 C   0  0  1  0  0  3  0  0  0  0  0  0
  189.2390  176.6340  141.1050 C   0  0  1  0  0  3  0  0  0  0  0  0
  187.7690  175.4140  135.0220 O   0  0  0  0  0  1  0  0  0  0  0  0
  188.6650  177.3520  138.9380 C   0  0  2  0  0  3  0  0  0  0  0  0
  187.2720  177.6350  142.2980 C   0  0  0  0  0  2  0  0  0  0  0  0
  189.4290  177.5490  143.7500 C   0  0  0  0  0  2  0  0  0  0  0  0
  188.2020  174.9440  136.2610 C   0  0  2  0  0  3  0  0  0  0  0  0
  190.9590  176.2920  139.0980 C   0  0  0  0  0  0  0  0  0  0  0  0
  186.8650  178.4110  137.4630 S   0  0  2  0  0  0  0  0  0  0  0  0
  187.1590  177.4780  144.7920 C   0  0  0  0  0  1  0  0  0  0  0  0
  187.5470  175.7600  137.3790 C   0  0  0  0  0  2  0  0  0  0  0  0
  191.9020  177.2710  139.4330 C   0  0  0  0  0  3  0  0  0  0  0  0
  192.6070  175.2670  137.6270 C   0  0  0  0  0  3  0  0  0  0  0  0
  193.5500  176.2190  138.0130 C   0  0  0  0  0  3  0  0  0  0  0  0
  189.7290  174.9610  136.3050 C   0  0  0  0  0  2  0  0  0  0  0  0
  187.5280  177.5610  139.8130 N   0  0  1  0  0  0  0  0  0  0  0  0
  188.1560  177.1530  137.5280 C   0  0  2  0  0  3  0  0  0  0  0  0
  188.2050  177.7470  141.0840 C   0  0  2  0  0  3  0  0  0  0  0  0
  185.4500  178.8210  139.7460 C   0  0  0  0  0  1  0  0  0  0  0  0
  189.5490  176.3410  139.6270 C   0  0  1  0  0  3  0  0  0  0  0  0
  1 16  1  0  0  0  0
  3 17  2  0  0  0  0
  4 20  1  0  0  0  0
  5 27  1  1  0  0  0
  5 24  1  0  0  0  0
  6  1  1  0  0  0  0
  7  8  2  0  0  0  0
  8  2  2  0  0  0  0
  8 14  1  0  0  0  0
  9 14  1  0  0  0  0
  9 18  1  1  0  0  0
 10  8  1  1  0  0  0
 11 15  1  0  0  0  0
 12 28  1  0  0  0  0
 12 24  1  0  0  0  0
 13  9  1  0  0  0  0
 15 23  1  0  0  0  0
 15 19  1  0  0  0  0
 16 20  2  0  0  0  0
 16 28  1  0  0  0  0
 17 25  1  0  0  0  0
 17  5  1  0  0  0  0
 19 25  1  0  0  0  0
 21 22  1  0  0  0  0
 21  1  2  0  0  0  0
 22  4  2  0  0  0  0
 23  6  1  0  0  0  0
 24 26  1  0  0  0  0
 25 12  1  0  0  0  0
 26 10  1  0  0  0  0
 26 13  1  0  0  0  0
 28 10  1  0  0  0  0
M  END
>  <MODEL>
2

>  <REMARK>
 VINA RESULT:      -5.6      5.266      7.007
  Name = 
  0 active torsions:
  status: ('A' for Active; 'I' for Inactive)
                            x       y       z     vdW  Elec       q    Type
                         _______ _______ _______ _____ _____    ______ ____

>  <TORSDO>
F 0

$$$$
=
 OpenBabel11122411513D

 28 32  0  0  1  0  0  0  0  0999 V2000
  188.7170  177.8300  136.9570 C   0  0  0  0  0  0  0  0  0  0  0  0
  193.0050  176.2710  136.5130 O   0  0  0  0  0  0  0  0  0  0  0  0
  186.1640  172.6530  137.8610 O   0  0  0  0  0  0  0  0  0  0  0  0
  189.9250  177.6050  139.4730 C   0  0  0  0  0  3  0  0  0  0  0  0
  188.2270  172.1800  136.3180 C   0  0  2  0  0  3  0  0  0  0  0  0
  187.9110  177.9110  135.6970 C   0  0  0  0  0  2  0  0  0  0  0  0
  192.2040  174.8690  138.3800 O   0  0  0  0  0  0  0  0  0  0  0  0
  192.3590  174.9690  136.8890 S   0  0  0  0  0  0  0  0  0  0  0  0
  192.7480  172.9360  135.0770 C   0  0  1  0  0  3  0  0  0  0  0  0
  190.8180  174.7510  136.0240 C   0  0  1  0  0  3  0  0  0  0  0  0
  184.6430  176.1370  135.2550 O   0  0  0  0  0  1  0  0  0  0  0  0
  188.5490  174.4210  136.5550 C   0  0  2  0  0  3  0  0  0  0  0  0
  191.2970  172.4180  135.2350 C   0  0  0  0  0  2  0  0  0  0  0  0
  193.3470  173.5780  136.3400 C   0  0  0  0  0  2  0  0  0  0  0  0
  185.9760  176.4390  134.9770 C   0  0  2  0  0  3  0  0  0  0  0  0
  189.4590  176.6710  137.2750 C   0  0  0  0  0  0  0  0  0  0  0  0
  186.5430  172.8440  136.3980 S   0  0  2  0  0  0  0  0  0  0  0  0
  193.6400  171.8110  134.5970 C   0  0  0  0  0  1  0  0  0  0  0  0
  186.7970  175.1470  134.9360 C   0  0  0  0  0  2  0  0  0  0  0  0
  190.0230  176.5590  138.5520 C   0  0  0  0  0  3  0  0  0  0  0  0
  188.6190  178.8740  137.8850 C   0  0  0  0  0  3  0  0  0  0  0  0
  189.2320  178.7670  139.1330 C   0  0  0  0  0  3  0  0  0  0  0  0
  186.4880  177.4570  135.9940 C   0  0  0  0  0  2  0  0  0  0  0  0
  189.0200  173.2780  135.7960 N   0  0  1  0  0  0  0  0  0  0  0  0
  187.0620  174.5700  136.3260 C   0  0  2  0  0  3  0  0  0  0  0  0
  190.4270  173.2890  136.1520 C   0  0  2  0  0  3  0  0  0  0  0  0
  188.2550  171.0140  135.3490 C   0  0  0  0  0  1  0  0  0  0  0  0
  189.5240  175.5410  136.2810 C   0  0  1  0  0  3  0  0  0  0  0  0
  1 16  2  0  0  0  0
  1 21  1  0  0  0  0
  2  8  2  0  0  0  0
  5 27  1  6  0  0  0
  5 17  1  0  0  0  0
  6 23  1  0  0  0  0
  6  1  1  0  0  0  0
  8  7  2  0  0  0  0
  9 18  1  1  0  0  0
  9 13  1  0  0  0  0
  9 14  1  0  0  0  0
 10 26  1  0  0  0  0
 10 28  1  0  0  0  0
 10  8  1  1  0  0  0
 13 26  1  0  0  0  0
 14  8  1  0  0  0  0
 15 11  1  0  0  0  0
 15 23  1  0  0  0  0
 16 20  1  0  0  0  0
 17  3  2  0  0  0  0
 19 15  1  0  0  0  0
 19 25  1  0  0  0  0
 20  4  2  0  0  0  0
 21 22  2  0  0  0  0
 22  4  1  0  0  0  0
 24 26  1  0  0  0  0
 24  5  1  0  0  0  0
 24 12  1  0  0  0  0
 25 17  1  0  0  0  0
 25 12  1  0  0  0  0
 28 12  1  0  0  0  0
 28 16  1  0  0  0  0
M  END
>  <MODEL>
3

>  <REMARK>
 VINA RESULT:      -5.3      6.943      9.607
  Name = 
  0 active torsions:
  status: ('A' for Active; 'I' for Inactive)
                            x       y       z     vdW  Elec       q    Type
                         _______ _______ _______ _____ _____    ______ ____

>  <TORSDO>
F 0

$$$$
=
 OpenBabel11122411513D

 28 32  0  0  1  0  0  0  0  0999 V2000
  186.3200  174.9320  136.6390 C   0  0  0  0  0  0  0  0  0  0  0  0
  182.2460  174.4460  134.5940 O   0  0  0  0  0  0  0  0  0  0  0  0
  184.4970  178.2530  141.0860 O   0  0  0  0  0  0  0  0  0  0  0  0
  184.9310  172.7750  137.7590 C   0  0  0  0  0  3  0  0  0  0  0  0
  182.9200  178.8160  139.0720 C   0  0  2  0  0  3  0  0  0  0  0  0
  187.1380  176.1100  136.2060 C   0  0  0  0  0  2  0  0  0  0  0  0
  181.5930  174.2230  136.9640 O   0  0  0  0  0  0  0  0  0  0  0  0
  181.7680  175.1760  135.8160 S   0  0  0  0  0  0  0  0  0  0  0  0
  180.3710  177.4880  135.2920 C   0  0  1  0  0  3  0  0  0  0  0  0
  182.8520  176.5320  136.2100 C   0  0  1  0  0  3  0  0  0  0  0  0
  188.3420  178.7340  138.5910 O   0  0  0  0  0  1  0  0  0  0  0  0
  184.1790  177.2370  138.0220 C   0  0  2  0  0  3  0  0  0  0  0  0
  181.0370  178.2450  136.4680 C   0  0  0  0  0  2  0  0  0  0  0  0
  180.1920  175.9760  135.5130 C   0  0  0  0  0  2  0  0  0  0  0  0
  187.6310  178.2340  137.5000 C   0  0  2  0  0  3  0  0  0  0  0  0
  184.9520  175.0720  136.9600 C   0  0  0  0  0  0  0  0  0  0  0  0
  184.5700  179.0450  139.7870 S   0  0  2  0  0  0  0  0  0  0  0  0
  179.0350  178.1230  134.9700 C   0  0  0  0  0  1  0  0  0  0  0  0
  186.1680  178.6780  137.5930 C   0  0  0  0  0  2  0  0  0  0  0  0
  184.2830  173.9960  137.5560 C   0  0  0  0  0  3  0  0  0  0  0  0
  186.9650  173.7060  136.8470 C   0  0  0  0  0  3  0  0  0  0  0  0
  186.2690  172.6280  137.3930 C   0  0  0  0  0  3  0  0  0  0  0  0
  187.8070  176.7190  137.4310 C   0  0  0  0  0  2  0  0  0  0  0  0
  183.1750  178.2490  137.7600 N   0  0  1  0  0  0  0  0  0  0  0  0
  185.3820  177.9040  138.6500 C   0  0  2  0  0  3  0  0  0  0  0  0
  182.1190  177.4310  137.1910 C   0  0  2  0  0  3  0  0  0  0  0  0
  182.2480  180.1680  138.9310 C   0  0  0  0  0  1  0  0  0  0  0  0
  184.2820  176.4070  136.7650 C   0  0  1  0  0  3  0  0  0  0  0  0
  1 21  2  0  0  0  0
  1 16  1  0  0  0  0
  2  8  2  0  0  0  0
  5 27  1  6  0  0  0
  5 17  1  0  0  0  0
  6  1  1  0  0  0  0
  6 23  1  0  0  0  0
  8  7  2  0  0  0  0
  9 18  1  1  0  0  0
  9 14  1  0  0  0  0
  9 13  1  0  0  0  0
 10  8  1  1  0  0  0
 10 28  1  0  0  0  0
 10 26  1  0  0  0  0
 12 25  1  0  0  0  0
 13 26  1  0  0  0  0
 14  8  1  0  0  0  0
 15 19  1  0  0  0  0
 15 11  1  0  0  0  0
 16 20  2  0  0  0  0
 17  3  2  0  0  0  0
 19 25  1  0  0  0  0
 20  4  1  0  0  0  0
 21 22  1  0  0  0  0
 22  4  2  0  0  0  0
 23 15  1  0  0  0  0
 24 12  1  0  0  0  0
 24  5  1  0  0  0  0
 25 17  1  0  0  0  0
 26 24  1  0  0  0  0
 28 16  1  0  0  0  0
 28 12  1  0  0  0  0
M  END
>  <MODEL>
4

>  <REMARK>
 VINA RESULT:      -5.2      3.592      6.783
  Name = 
  0 active torsions:
  status: ('A' for Active; 'I' for Inactive)
                            x       y       z     vdW  Elec       q    Type
                         _______ _______ _______ _____ _____    ______ ____

>  <TORSDO>
F 0

$$$$
=
 OpenBabel11122411513D

 28 32  0  0  1  0  0  0  0  0999 V2000
  191.3900  175.5620  136.7770 C   0  0  0  0  0  0  0  0  0  0  0  0
  187.1050  176.6750  135.5890 O   0  0  0  0  0  0  0  0  0  0  0  0
  190.4910  175.3140  142.5450 O   0  0  0  0  0  0  0  0  0  0  0  0
  189.8370  173.2500  136.4970 C   0  0  0  0  0  3  0  0  0  0  0  0
  188.8140  177.1060  141.6300 C   0  0  2  0  0  3  0  0  0  0  0  0
  192.3150  176.7070  137.0570 C   0  0  0  0  0  2  0  0  0  0  0  0
  186.6670  175.0070  137.3540 O   0  0  0  0  0  0  0  0  0  0  0  0
  186.8560  176.4670  137.0550 S   0  0  0  0  0  0  0  0  0  0  0  0
  185.7440  178.6280  138.3430 C   0  0  1  0  0  3  0  0  0  0  0  0
  188.1500  177.2040  138.0300 C   0  0  1  0  0  3  0  0  0  0  0  0
  194.0990  177.1280  140.3220 O   0  0  0  0  0  1  0  0  0  0  0  0
  189.7340  176.5220  139.6310 C   0  0  2  0  0  3  0  0  0  0  0  0
  186.6210  178.4230  139.6030 C   0  0  0  0  0  2  0  0  0  0  0  0
  185.3830  177.3380  137.5880 C   0  0  0  0  0  2  0  0  0  0  0  0
  193.2210  177.4770  139.2970 C   0  0  2  0  0  3  0  0  0  0  0  0
  190.0930  175.5190  137.3340 C   0  0  0  0  0  0  0  0  0  0  0  0
  190.5430  176.7520  142.0460 S   0  0  2  0  0  0  0  0  0  0  0  0
  184.4830  179.3760  138.7190 C   0  0  0  0  0  1  0  0  0  0  0  0
  191.8500  177.8170  139.8870 C   0  0  0  0  0  2  0  0  0  0  0  0
  189.3460  174.3410  137.2180 C   0  0  0  0  0  3  0  0  0  0  0  0
  191.8780  174.4640  136.0580 C   0  0  0  0  0  3  0  0  0  0  0  0
  191.0990  173.3170  135.9070 C   0  0  0  0  0  3  0  0  0  0  0  0
  193.1800  176.3560  138.2600 C   0  0  0  0  0  2  0  0  0  0  0  0
  188.8570  177.5060  140.2350 N   0  0  1  0  0  0  0  0  0  0  0  0
  191.0730  176.5780  140.3300 C   0  0  2  0  0  3  0  0  0  0  0  0
  187.6480  177.2910  139.4610 C   0  0  2  0  0  3  0  0  0  0  0  0
  188.3240  178.2580  142.4850 C   0  0  0  0  0  1  0  0  0  0  0  0
  189.5960  176.6930  138.1370 C   0  0  1  0  0  3  0  0  0  0  0  0
  1  6  1  0  0  0  0
  1 16  1  0  0  0  0
  2  8  2  0  0  0  0
  4 20  1  0  0  0  0
  5 17  1  0  0  0  0
  5 27  1  1  0  0  0
  6 23  1  0  0  0  0
  8  7  2  0  0  0  0
  8 14  1  0  0  0  0
  9 18  1  1  0  0  0
  9 13  1  0  0  0  0
 10  8  1  6  0  0  0
 10 28  1  0  0  0  0
 10 26  1  0  0  0  0
 12 24  1  0  0  0  0
 12 25  1  0  0  0  0
 14  9  1  0  0  0  0
 15 19  1  0  0  0  0
 15 11  1  0  0  0  0
 16 28  1  0  0  0  0
 17  3  2  0  0  0  0
 19 25  1  0  0  0  0
 20 16  2  0  0  0  0
 21  1  2  0  0  0  0
 22 21  1  0  0  0  0
 22  4  2  0  0  0  0
 23 15  1  0  0  0  0
 24  5  1  0  0  0  0
 25 17  1  0  0  0  0
 26 13  1  0  0  0  0
 26 24  1  0  0  0  0
 28 12  1  0  0  0  0
M  END
>  <MODEL>
5

>  <REMARK>
 VINA RESULT:      -5.1      5.644      8.820
  Name = 
  0 active torsions:
  status: ('A' for Active; 'I' for Inactive)
                            x       y       z     vdW  Elec       q    Type
                         _______ _______ _______ _____ _____    ______ ____

>  <TORSDO>
F 0

$$$$
=
 OpenBabel11122411513D

 28 32  0  0  1  0  0  0  0  0999 V2000
  183.1870  178.2400  137.4020 C   0  0  0  0  0  0  0  0  0  0  0  0
  187.4980  179.6910  136.8250 O   0  0  0  0  0  0  0  0  0  0  0  0
  184.4140  172.5550  137.9570 O   0  0  0  0  0  0  0  0  0  0  0  0
  184.3960  178.6810  139.8880 C   0  0  0  0  0  3  0  0  0  0  0  0
  186.2540  173.5380  136.3720 C   0  0  2  0  0  3  0  0  0  0  0  0
  182.4440  177.8710  136.1550 C   0  0  0  0  0  2  0  0  0  0  0  0
  187.8220  178.0000  138.5940 O   0  0  0  0  0  0  0  0  0  0  0  0
  187.8100  178.2510  137.1130 S   0  0  0  0  0  0  0  0  0  0  0  0
  189.2820  176.9890  135.1600 C   0  0  1  0  0  3  0  0  0  0  0  0
  186.6920  177.1720  136.2440 C   0  0  1  0  0  3  0  0  0  0  0  0
  180.9460  174.4820  135.6110 O   0  0  0  0  0  1  0  0  0  0  0  0
  185.1380  175.4830  136.7630 C   0  0  2  0  0  3  0  0  0  0  0  0
  188.4690  175.6780  135.2900 C   0  0  0  0  0  2  0  0  0  0  0  0
  189.4180  177.7980  136.4620 C   0  0  0  0  0  2  0  0  0  0  0  0
  181.7950  175.5560  135.3460 C   0  0  2  0  0  3  0  0  0  0  0  0
  184.5010  177.7740  137.6340 C   0  0  0  0  0  0  0  0  0  0  0  0
  184.5240  173.0140  136.5080 S   0  0  2  0  0  0  0  0  0  0  0  0
  190.6540  176.6830  134.5980 C   0  0  0  0  0  1  0  0  0  0  0  0
  183.2350  175.0530  135.2100 C   0  0  0  0  0  2  0  0  0  0  0  0
  185.0740  177.9690  138.8960 C   0  0  0  0  0  3  0  0  0  0  0  0
  182.5120  178.9510  138.4010 C   0  0  0  0  0  3  0  0  0  0  0  0
  183.1190  179.1820  139.6360 C   0  0  0  0  0  3  0  0  0  0  0  0
  181.6190  176.6200  136.4280 C   0  0  0  0  0  2  0  0  0  0  0  0
  186.1750  174.9170  135.9240 N   0  0  1  0  0  0  0  0  0  0  0  0
  183.8650  174.6930  136.5550 C   0  0  2  0  0  3  0  0  0  0  0  0
  187.2920  175.7760  136.2710 C   0  0  2  0  0  3  0  0  0  0  0  0
  186.9480  172.6910  135.3240 C   0  0  0  0  0  1  0  0  0  0  0  0
  185.2000  176.9790  136.5630 C   0  0  1  0  0  3  0  0  0  0  0  0
  1 16  2  0  0  0  0
  1 21  1  0  0  0  0
  2  8  2  0  0  0  0
  5 27  1  6  0  0  0
  5 17  1  0  0  0  0
  6 23  1  0  0  0  0
  6  1  1  0  0  0  0
  8  7  2  0  0  0  0
  9 18  1  1  0  0  0
  9 13  1  0  0  0  0
  9 14  1  0  0  0  0
 10 26  1  0  0  0  0
 10 28  1  0  0  0  0
 10  8  1  1  0  0  0
 13 26  1  0  0  0  0
 14  8  1  0  0  0  0
 15 11  1  0  0  0  0
 15 23  1  0  0  0  0
 16 20  1  0  0  0  0
 17 25  1  0  0  0  0
 17  3  2  0  0  0  0
 19 15  1  0  0  0  0
 19 25  1  0  0  0  0
 20  4  2  0  0  0  0
 21 22  2  0  0  0  0
 22  4  1  0  0  0  0
 24 26  1  0  0  0  0
 24  5  1  0  0  0  0
 24 12  1  0  0  0  0
 25 12  1  0  0  0  0
 28 12  1  0  0  0  0
 28 16  1  0  0  0  0
M  END
>  <MODEL>
6

>  <REMARK>
 VINA RESULT:      -4.9      4.175      7.072
  Name = 
  0 active torsions:
  status: ('A' for Active; 'I' for Inactive)
                            x       y       z     vdW  Elec       q    Type
                         _______ _______ _______ _____ _____    ______ ____

>  <TORSDO>
F 0

$$$$
=
 OpenBabel11122411513D

 28 32  0  0  1  0  0  0  0  0999 V2000
  180.7640  180.3480  140.2220 C   0  0  0  0  0  0  0  0  0  0  0  0
  185.0950  179.9980  141.6850 O   0  0  0  0  0  0  0  0  0  0  0  0
  180.8140  175.6750  136.7160 O   0  0  0  0  0  0  0  0  0  0  0  0
  180.9010  178.6230  142.4220 C   0  0  0  0  0  3  0  0  0  0  0  0
  183.2620  176.6050  136.7110 C   0  0  2  0  0  3  0  0  0  0  0  0
  180.5510  181.1670  138.9860 C   0  0  0  0  0  2  0  0  0  0  0  0
  184.4160  177.6240  141.7040 O   0  0  0  0  0  0  0  0  0  0  0  0
  185.0480  178.7210  140.8950 S   0  0  0  0  0  0  0  0  0  0  0  0
  186.9890  178.5070  138.9570 C   0  0  1  0  0  3  0  0  0  0  0  0
  184.2400  178.9720  139.3290 C   0  0  1  0  0  3  0  0  0  0  0  0
  178.9310  179.8010  135.8980 O   0  0  0  0  0  1  0  0  0  0  0  0
  182.3800  178.1160  138.1680 C   0  0  2  0  0  3  0  0  0  0  0  0
  186.0120  177.8580  137.9450 C   0  0  0  0  0  2  0  0  0  0  0  0
  186.6980  178.1900  140.4340 C   0  0  0  0  0  2  0  0  0  0  0  0
  179.9600  180.3600  136.6550 C   0  0  2  0  0  3  0  0  0  0  0  0
  181.7850  179.3730  140.2840 C   0  0  0  0  0  0  0  0  0  0  0  0
  181.5720  176.8450  136.1020 S   0  0  2  0  0  0  0  0  0  0  0  0
  188.4100  178.1120  138.6150 C   0  0  0  0  0  1  0  0  0  0  0  0
  181.2390  179.5390  136.4680 C   0  0  0  0  0  2  0  0  0  0  0  0
  181.8140  178.4930  141.3720 C   0  0  0  0  0  3  0  0  0  0  0  0
  179.8510  180.4720  141.2750 C   0  0  0  0  0  3  0  0  0  0  0  0
  179.9270  179.6210  142.3780 C   0  0  0  0  0  3  0  0  0  0  0  0
  179.5140  180.4740  138.1110 C   0  0  0  0  0  2  0  0  0  0  0  0
  183.5760  177.8490  137.3930 N   0  0  1  0  0  0  0  0  0  0  0  0
  181.2050  178.2110  137.2220 C   0  0  2  0  0  3  0  0  0  0  0  0
  184.5650  177.7750  138.4520 C   0  0  2  0  0  3  0  0  0  0  0  0
  184.1930  176.4130  135.5290 C   0  0  0  0  0  1  0  0  0  0  0  0
  182.7370  179.2270  139.1260 C   0  0  1  0  0  3  0  0  0  0  0  0
  1 16  2  0  0  0  0
  1 21  1  0  0  0  0
  5 27  1  6  0  0  0
  5 24  1  0  0  0  0
  6  1  1  0  0  0  0
  8  2  2  0  0  0  0
  8  7  2  0  0  0  0
  9 18  1  6  0  0  0
  9 14  1  0  0  0  0
 10  8  1  1  0  0  0
 11 15  1  0  0  0  0
 12 28  1  0  0  0  0
 13 26  1  0  0  0  0
 13  9  1  0  0  0  0
 14  8  1  0  0  0  0
 15 23  1  0  0  0  0
 16 20  1  0  0  0  0
 17  5  1  0  0  0  0
 17  3  2  0  0  0  0
 17 25  1  0  0  0  0
 19 15  1  0  0  0  0
 19 25  1  0  0  0  0
 20  4  2  0  0  0  0
 21 22  2  0  0  0  0
 22  4  1  0  0  0  0
 23  6  1  0  0  0  0
 24 12  1  0  0  0  0
 24 26  1  0  0  0  0
 25 12  1  0  0  0  0
 26 10  1  0  0  0  0
 28 10  1  0  0  0  0
 28 16  1  0  0  0  0
M  END
>  <MODEL>
7

>  <REMARK>
 VINA RESULT:      -4.7      2.671      5.361
  Name = 
  0 active torsions:
  status: ('A' for Active; 'I' for Inactive)
                            x       y       z     vdW  Elec       q    Type
                         _______ _______ _______ _____ _____    ______ ____

>  <TORSDO>
F 0

$$$$
=
 OpenBabel11122411513D

 28 32  0  0  1  0  0  0  0  0999 V2000
  180.9990  178.1090  137.8910 C   0  0  0  0  0  0  0  0  0  0  0  0
  179.8990  173.8710  136.5350 O   0  0  0  0  0  0  0  0  0  0  0  0
  186.5100  178.0720  135.9510 O   0  0  0  0  0  0  0  0  0  0  0  0
  180.1280  178.1450  135.2310 C   0  0  0  0  0  3  0  0  0  0  0  0
  185.9510  175.5920  136.5830 C   0  0  2  0  0  3  0  0  0  0  0  0
  181.5750  178.2310  139.2680 C   0  0  0  0  0  2  0  0  0  0  0  0
  181.2150  174.6400  134.5940 O   0  0  0  0  0  0  0  0  0  0  0  0
  181.2650  173.9280  135.9160 S   0  0  0  0  0  0  0  0  0  0  0  0
  182.9590  171.9070  136.6980 C   0  0  1  0  0  3  0  0  0  0  0  0
  182.4420  174.6510  137.0390 C   0  0  1  0  0  3  0  0  0  0  0  0
  184.9300  179.7540  139.9410 O   0  0  0  0  0  1  0  0  0  0  0  0
  183.9170  176.4840  137.0810 C   0  0  2  0  0  3  0  0  0  0  0  0
  184.1780  172.8580  136.7780 C   0  0  0  0  0  2  0  0  0  0  0  0
  181.9140  172.2810  135.6340 C   0  0  0  0  0  2  0  0  0  0  0  0
  183.9710  178.7410  139.9250 C   0  0  2  0  0  3  0  0  0  0  0  0
  181.4710  177.1320  136.9870 C   0  0  0  0  0  0  0  0  0  0  0  0
  186.3560  177.2410  137.2190 S   0  0  2  0  0  0  0  0  0  0  0  0
  183.4370  170.4870  136.4760 C   0  0  0  0  0  1  0  0  0  0  0  0
  184.5590  177.4870  139.2720 C   0  0  0  0  0  2  0  0  0  0  0  0
  181.0550  177.1890  135.6520 C   0  0  0  0  0  3  0  0  0  0  0  0
  180.0720  179.0670  137.4630 C   0  0  0  0  0  3  0  0  0  0  0  0
  179.6270  179.0770  136.1410 C   0  0  0  0  0  3  0  0  0  0  0  0
  182.7060  179.2510  139.2390 C   0  0  0  0  0  2  0  0  0  0  0  0
  184.6880  175.2640  137.2190 N   0  0  1  0  0  0  0  0  0  0  0  0
  184.6720  177.6090  137.7530 C   0  0  2  0  0  3  0  0  0  0  0  0
  183.8300  174.3300  136.5130 C   0  0  2  0  0  3  0  0  0  0  0  0
  187.0230  174.6140  137.0240 C   0  0  0  0  0  1  0  0  0  0  0  0
  182.4970  176.1310  137.4520 C   0  0  1  0  0  3  0  0  0  0  0  0
  1  6  1  0  0  0  0
  3 17  2  0  0  0  0
  4 20  2  0  0  0  0
  4 22  1  0  0  0  0
  5 27  1  1  0  0  0
  5 24  1  0  0  0  0
  5 17  1  0  0  0  0
  7  8  2  0  0  0  0
  8  2  2  0  0  0  0
  9 18  1  6  0  0  0
  9 13  1  0  0  0  0
 10  8  1  6  0  0  0
 10 28  1  0  0  0  0
 12 24  1  0  0  0  0
 12 28  1  0  0  0  0
 12 25  1  0  0  0  0
 14  8  1  0  0  0  0
 14  9  1  0  0  0  0
 15 11  1  0  0  0  0
 16 28  1  0  0  0  0
 16  1  2  0  0  0  0
 17 25  1  0  0  0  0
 19 15  1  0  0  0  0
 20 16  1  0  0  0  0
 21  1  1  0  0  0  0
 22 21  2  0  0  0  0
 23  6  1  0  0  0  0
 23 15  1  0  0  0  0
 25 19  1  0  0  0  0
 26 13  1  0  0  0  0
 26 10  1  0  0  0  0
 26 24  1  0  0  0  0
M  END
>  <MODEL>
8

>  <REMARK>
 VINA RESULT:      -4.6      3.550      7.413
  Name = 
  0 active torsions:
  status: ('A' for Active; 'I' for Inactive)
                            x       y       z     vdW  Elec       q    Type
                         _______ _______ _______ _____ _____    ______ ____

>  <TORSDO>
F 0

$$$$
=
 OpenBabel11122411513D

 28 32  0  0  1  0  0  0  0  0999 V2000
  185.0870  178.9450  144.0300 C   0  0  0  0  0  0  0  0  0  0  0  0
  189.0440  179.2420  141.7330 O   0  0  0  0  0  0  0  0  0  0  0  0
  182.3060  175.4990  140.2180 O   0  0  0  0  0  0  0  0  0  0  0  0
  186.7440  176.7840  144.6810 C   0  0  0  0  0  3  0  0  0  0  0  0
  183.9710  176.9420  138.8030 C   0  0  2  0  0  3  0  0  0  0  0  0
  184.0590  179.9850  143.7080 C   0  0  0  0  0  2  0  0  0  0  0  0
  188.5040  176.8570  141.3990 O   0  0  0  0  0  0  0  0  0  0  0  0
  188.3690  178.2430  140.8370 S   0  0  0  0  0  0  0  0  0  0  0  0
  188.2060  179.0030  138.1980 C   0  0  1  0  0  3  0  0  0  0  0  0
  186.6750  178.7000  140.5390 C   0  0  1  0  0  3  0  0  0  0  0  0
  180.6210  179.1390  142.4900 O   0  0  0  0  0  1  0  0  0  0  0  0
  184.5350  177.7690  140.8470 C   0  0  2  0  0  3  0  0  0  0  0  0
  186.7740  178.4330  138.0450 C   0  0  0  0  0  2  0  0  0  0  0  0
  189.0990  178.2510  139.2000 C   0  0  0  0  0  2  0  0  0  0  0  0
  181.8940  179.7030  142.4180 C   0  0  2  0  0  3  0  0  0  0  0  0
  185.7700  178.2530  143.0050 C   0  0  0  0  0  0  0  0  0  0  0  0
  182.4030  176.9320  139.7120 S   0  0  2  0  0  0  0  0  0  0  0  0
  188.8800  179.0540  136.8440 C   0  0  0  0  0  1  0  0  0  0  0  0
  182.5710  179.2820  141.1110 C   0  0  0  0  0  2  0  0  0  0  0  0
  186.5630  177.1500  143.3450 C   0  0  0  0  0  3  0  0  0  0  0  0
  185.2700  178.5710  145.3660 C   0  0  0  0  0  3  0  0  0  0  0  0
  186.1060  177.5030  145.6920 C   0  0  0  0  0  3  0  0  0  0  0  0
  182.6880  179.3250  143.6670 C   0  0  0  0  0  2  0  0  0  0  0  0
  184.7410  178.0010  139.4310 N   0  0  1  0  0  0  0  0  0  0  0  0
  183.0520  177.8320  141.1350 C   0  0  2  0  0  3  0  0  0  0  0  0
  186.1860  177.8850  139.3530 C   0  0  2  0  0  3  0  0  0  0  0  0
  183.7010  177.2890  137.3520 C   0  0  0  0  0  1  0  0  0  0  0  0
  185.5340  178.6420  141.5680 C   0  0  1  0  0  3  0  0  0  0  0  0
  1 21  1  0  0  0  0
  4 22  1  0  0  0  0
  5 27  1  6  0  0  0
  5 24  1  0  0  0  0
  5 17  1  0  0  0  0
  6  1  1  0  0  0  0
  8  7  2  0  0  0  0
  8  2  2  0  0  0  0
  9 18  1  6  0  0  0
  9 14  1  0  0  0  0
 10  8  1  1  0  0  0
 10 28  1  0  0  0  0
 12 25  1  0  0  0  0
 12 28  1  0  0  0  0
 13  9  1  0  0  0  0
 13 26  1  0  0  0  0
 14  8  1  0  0  0  0
 15 11  1  0  0  0  0
 15 23  1  0  0  0  0
 16 20  1  0  0  0  0
 16  1  2  0  0  0  0
 17  3  2  0  0  0  0
 17 25  1  0  0  0  0
 19 25  1  0  0  0  0
 19 15  1  0  0  0  0
 20  4  2  0  0  0  0
 21 22  2  0  0  0  0
 23  6  1  0  0  0  0
 24 12  1  0  0  0  0
 26 24  1  0  0  0  0
 26 10  1  0  0  0  0
 28 16  1  0  0  0  0
M  END
>  <MODEL>
9

>  <REMARK>
 VINA RESULT:      -4.6      2.431      5.817
  Name = 
  0 active torsions:
  status: ('A' for Active; 'I' for Inactive)
                            x       y       z     vdW  Elec       q    Type
                         _______ _______ _______ _____ _____    ______ ____

>  <TORSDO>
F 0

$$$$
