=
 OpenBabel11122411313D

 37 44  0  0  1  0  0  0  0  0999 V2000
  185.0780  175.6900  136.8410 C   0  0  0  0  0  2  0  0  0  0  0  0
  188.2620  177.7300  137.8700 C   0  0  0  0  0  0  0  0  0  0  0  0
  184.9360  178.5020  140.3620 C   0  0  2  0  0  3  0  0  0  0  0  0
  184.9180  175.1120  135.4370 C   0  0  2  0  0  3  0  0  0  0  0  0
  181.9260  176.2630  139.3680 C   0  0  0  0  0  2  0  0  0  0  0  0
  187.3150  178.1340  140.1820 C   0  0  2  0  0  3  0  0  0  0  0  0
  184.0400  177.8600  139.6070 C   0  0  2  0  0  3  0  0  0  0  0  0
  182.6680  174.1850  136.3100 C   0  0  2  0  0  3  0  0  0  0  0  0
  186.1380  178.8880  139.5910 C   0  0  1  0  0  3  0  0  0  0  0  0
  182.8190  177.1640  140.2420 C   0  0  1  0  0  3  0  0  0  0  0  0
  187.5160  178.5820  141.6320 C   0  0  0  0  0  2  0  0  0  0  0  0
  183.4800  174.6920  135.1130 C   0  0  0  0  0  2  0  0  0  0  0  0
  185.8460  178.3170  138.2670 C   0  0  0  0  0  0  0  0  0  0  0  0
  188.2390  176.2140  137.9550 C   0  0  0  0  0  1  0  0  0  0  0  0
  183.8340  178.3700  142.6360 N   0  0  0  0  0  2  0  0  0  0  0  0
  186.2250  178.4420  142.4240 C   0  0  0  0  0  3  0  0  0  0  0  0
  186.9390  178.2330  137.2400 C   0  0  0  0  0  2  0  0  0  0  0  0
  181.9800  175.2800  137.1470 C   0  0  1  0  0  3  0  0  0  0  0  0
  182.7210  175.5790  138.3830 N   0  0  1  0  0  0  0  0  0  0  0  0
  185.0140  178.4550  141.8380 C   0  0  0  0  0  0  0  0  0  0  0  0
  184.6540  177.7200  138.2440 C   0  0  0  0  0  0  0  0  0  0  0  0
  188.5320  178.3240  139.2740 C   0  0  0  0  0  2  0  0  0  0  0  0
  181.9140  178.1220  141.0470 C   0  0  1  0  0  3  0  0  0  0  0  0
  189.4010  178.1300  136.9580 C   0  0  0  0  0  1  0  0  0  0  0  0
  182.7030  176.5620  137.2910 C   0  0  1  0  0  3  0  0  0  0  0  0
  183.3700  173.2610  137.0890 O   0  0  0  0  0  1  0  0  0  0  0  0
  184.1710  176.9010  137.0630 C   0  0  2  0  0  3  0  0  0  0  0  0
  182.5730  178.9320  142.1720 C   0  0  0  0  0  2  0  0  0  0  0  0
  179.7210  178.7330  140.0030 C   0  0  0  0  0  3  0  0  0  0  0  0
  181.0790  179.0180  140.1780 C   0  0  0  0  0  0  0  0  0  0  0  0
  181.6440  180.1270  139.5280 C   0  0  0  0  0  3  0  0  0  0  0  0
  181.4300  182.0610  138.0540 N   0  0  0  0  0  1  0  0  0  0  0  0
  179.4960  180.6500  138.5410 C   0  0  0  0  0  3  0  0  0  0  0  0
  180.8530  180.9400  138.7110 C   0  0  0  0  0  0  0  0  0  0  0  0
  178.9310  179.5470  139.1870 C   0  0  0  0  0  3  0  0  0  0  0  0
  187.2520  174.4100  134.9120 C   0  0  0  0  0  1  0  0  0  0  0  0
  185.8530  173.9290  135.2460 C   0  0  0  0  0  2  0  0  0  0  0  0
  1 27  1  0  0  0  0
  2 14  1  0  0  0  0
  2 22  1  0  0  0  0
  3 20  1  1  0  0  0
  4 37  1  1  0  0  0
  4  1  1  0  0  0  0
  6 22  1  6  0  0  0
  6 11  1  0  0  0  0
  7 21  1  1  0  0  0
  7 10  1  0  0  0  0
  7  3  1  0  0  0  0
  8 26  1  1  0  0  0
  8 18  1  0  0  0  0
  9 13  1  6  0  0  0
  9  6  1  0  0  0  0
  9  3  1  0  0  0  0
 10  5  1  6  0  0  0
 10 23  1  0  0  0  0
 11 16  1  0  0  0  0
 12  4  1  0  0  0  0
 12  8  1  0  0  0  0
 17  2  1  0  0  0  0
 17 13  1  0  0  0  0
 18 25  1  0  0  0  0
 18 19  1  0  0  0  0
 19  5  1  0  0  0  0
 20 16  2  0  0  0  0
 20 15  1  0  0  0  0
 21 13  2  0  0  0  0
 23 28  1  0  0  0  0
 24  2  1  0  0  0  0
 25 19  1  0  0  0  0
 27 25  1  0  0  0  0
 27 21  1  0  0  0  0
 28 15  1  0  0  0  0
 29 30  1  0  0  0  0
 30 23  1  0  0  0  0
 31 30  2  0  0  0  0
 32 34  1  0  0  0  0
 33 34  2  0  0  0  0
 33 35  1  0  0  0  0
 34 31  1  0  0  0  0
 35 29  2  0  0  0  0
 36 37  1  0  0  0  0
M  END
>  <MODEL>
1

>  <REMARK>
 VINA RESULT:      -6.7      0.000      0.000
  Name = 
  2 active torsions:
  status: ('A' for Active; 'I' for Inactive)
    1  A    between atoms: C_4  and  C_37
    2  A    between atoms: C_23  and  C_30
                            x       y       z     vdW  Elec       q    Type
                         _______ _______ _______ _____ _____    ______ ____

>  <TORSDO>
F 2

$$$$
=
 OpenBabel11122411313D

 37 44  0  0  1  0  0  0  0  0999 V2000
  186.5080  178.4370  144.3080 C   0  0  0  0  0  2  0  0  0  0  0  0
  190.0860  176.8620  144.0370 C   0  0  0  0  0  0  0  0  0  0  0  0
  188.2890  177.5240  140.2690 C   0  0  2  0  0  3  0  0  0  0  0  0
  185.6830  178.3320  145.5880 C   0  0  2  0  0  3  0  0  0  0  0  0
  184.8520  179.2800  140.6750 C   0  0  0  0  0  2  0  0  0  0  0  0
  190.2840  177.6060  141.6270 C   0  0  2  0  0  3  0  0  0  0  0  0
  187.0740  177.8190  140.7400 C   0  0  2  0  0  3  0  0  0  0  0  0
  183.9100  179.7050  144.3020 C   0  0  2  0  0  3  0  0  0  0  0  0
  189.0900  176.7500  141.2430 C   0  0  1  0  0  3  0  0  0  0  0  0
  186.1530  178.8070  139.9980 C   0  0  1  0  0  3  0  0  0  0  0  0
  191.1460  177.8450  140.3840 C   0  0  0  0  0  2  0  0  0  0  0  0
  184.2000  178.6590  145.3850 C   0  0  0  0  0  2  0  0  0  0  0  0
  188.1830  176.6840  142.3990 C   0  0  0  0  0  0  0  0  0  0  0  0
  189.8820  178.2520  144.6130 C   0  0  0  0  0  1  0  0  0  0  0  0
  188.2540  178.7400  138.0490 N   0  0  0  0  0  2  0  0  0  0  0  0
  190.3100  178.4160  139.2480 C   0  0  0  0  0  3  0  0  0  0  0  0
  188.7100  176.2230  143.7270 C   0  0  0  0  0  2  0  0  0  0  0  0
  183.8120  179.1530  142.8670 C   0  0  1  0  0  3  0  0  0  0  0  0
  185.0430  179.3910  142.0970 N   0  0  1  0  0  0  0  0  0  0  0  0
  188.9810  178.2240  139.1640 C   0  0  0  0  0  0  0  0  0  0  0  0
  187.0220  177.2880  142.1440 C   0  0  0  0  0  0  0  0  0  0  0  0
  191.0110  176.9460  142.7990 C   0  0  0  0  0  2  0  0  0  0  0  0
  185.8270  178.3780  138.5500 C   0  0  1  0  0  3  0  0  0  0  0  0
  190.7730  176.0170  145.0880 C   0  0  0  0  0  1  0  0  0  0  0  0
  184.7050  178.0260  142.5230 C   0  0  1  0  0  3  0  0  0  0  0  0
  184.7340  180.8300  144.4000 O   0  0  0  0  0  1  0  0  0  0  0  0
  185.9680  177.5210  143.2090 C   0  0  2  0  0  3  0  0  0  0  0  0
  187.0120  178.1170  137.6110 C   0  0  0  0  0  2  0  0  0  0  0  0
  185.1300  176.1380  137.6750 C   0  0  0  0  0  3  0  0  0  0  0  0
  184.8420  177.2480  138.4760 C   0  0  0  0  0  0  0  0  0  0  0  0
  183.6330  177.2940  139.1880 C   0  0  0  0  0  3  0  0  0  0  0  0
  181.4980  176.2910  139.8150 N   0  0  0  0  0  1  0  0  0  0  0  0
  183.0150  175.1320  138.2920 C   0  0  0  0  0  3  0  0  0  0  0  0
  182.7220  176.2380  139.0940 C   0  0  0  0  0  0  0  0  0  0  0  0
  184.2190  175.0820  137.5830 C   0  0  0  0  0  3  0  0  0  0  0  0
  187.1570  178.4390  147.5960 C   0  0  0  0  0  1  0  0  0  0  0  0
  186.2640  179.2350  146.6640 C   0  0  0  0  0  2  0  0  0  0  0  0
  1  4  1  0  0  0  0
  2 14  1  0  0  0  0
  2 24  1  0  0  0  0
  3 20  1  1  0  0  0
  3  7  1  0  0  0  0
  3  9  1  0  0  0  0
  4 37  1  1  0  0  0
  5 19  1  0  0  0  0
  6 11  1  6  0  0  0
  6 22  1  0  0  0  0
  7 21  1  1  0  0  0
  8 26  1  6  0  0  0
  8 12  1  0  0  0  0
  9  6  1  0  0  0  0
  9 13  1  1  0  0  0
 10  5  1  1  0  0  0
 10  7  1  0  0  0  0
 12  4  1  0  0  0  0
 13 17  1  0  0  0  0
 15 20  1  0  0  0  0
 16 11  1  0  0  0  0
 17  2  1  0  0  0  0
 18  8  1  0  0  0  0
 19 25  1  0  0  0  0
 19 18  1  0  0  0  0
 20 16  2  0  0  0  0
 21 13  2  0  0  0  0
 21 27  1  0  0  0  0
 22  2  1  0  0  0  0
 23 10  1  0  0  0  0
 25 18  1  0  0  0  0
 25 27  1  0  0  0  0
 27  1  1  0  0  0  0
 28 15  1  0  0  0  0
 28 23  1  0  0  0  0
 29 30  1  0  0  0  0
 30 23  1  0  0  0  0
 30 31  2  0  0  0  0
 33 34  2  0  0  0  0
 34 31  1  0  0  0  0
 34 32  1  0  0  0  0
 35 29  2  0  0  0  0
 35 33  1  0  0  0  0
 37 36  1  0  0  0  0
M  END
>  <MODEL>
2

>  <REMARK>
 VINA RESULT:      -6.1      3.178      6.912
  Name = 
  2 active torsions:
  status: ('A' for Active; 'I' for Inactive)
    1  A    between atoms: C_4  and  C_37
    2  A    between atoms: C_23  and  C_30
                            x       y       z     vdW  Elec       q    Type
                         _______ _______ _______ _____ _____    ______ ____

>  <TORSDO>
F 2

$$$$
=
 OpenBabel11122411313D

 37 44  0  0  1  0  0  0  0  0999 V2000
  186.7010  178.3640  144.4090 C   0  0  0  0  0  2  0  0  0  0  0  0
  190.2490  176.8320  143.7600 C   0  0  0  0  0  0  0  0  0  0  0  0
  188.1000  177.5710  140.1970 C   0  0  2  0  0  3  0  0  0  0  0  0
  186.0010  178.2180  145.7580 C   0  0  2  0  0  3  0  0  0  0  0  0
  184.7040  179.2820  140.9710 C   0  0  0  0  0  2  0  0  0  0  0  0
  190.2130  177.6390  141.3630 C   0  0  2  0  0  3  0  0  0  0  0  0
  186.9320  177.8420  140.7880 C   0  0  2  0  0  3  0  0  0  0  0  0
  184.1050  179.6060  144.6800 C   0  0  2  0  0  3  0  0  0  0  0  0
  188.9950  176.7810  141.0700 C   0  0  1  0  0  3  0  0  0  0  0  0
  185.9380  178.8400  140.1620 C   0  0  1  0  0  3  0  0  0  0  0  0
  190.9520  177.9180  140.0510 C   0  0  0  0  0  2  0  0  0  0  0  0
  184.5030  178.5360  145.7030 C   0  0  0  0  0  2  0  0  0  0  0  0
  188.2010  176.6770  142.3050 C   0  0  0  0  0  0  0  0  0  0  0  0
  190.0900  178.2050  144.3900 C   0  0  0  0  0  1  0  0  0  0  0  0
  187.8460  178.8430  138.0230 N   0  0  0  0  0  2  0  0  0  0  0  0
  190.0080  178.5090  139.0140 C   0  0  0  0  0  3  0  0  0  0  0  0
  188.8550  176.1870  143.5650 C   0  0  0  0  0  2  0  0  0  0  0  0
  183.8750  179.0900  143.2470 C   0  0  1  0  0  3  0  0  0  0  0  0
  185.0270  179.3590  142.3710 N   0  0  1  0  0  0  0  0  0  0  0  0
  188.6790  178.3060  139.0510 C   0  0  0  0  0  0  0  0  0  0  0  0
  187.0170  177.2750  142.1760 C   0  0  0  0  0  0  0  0  0  0  0  0
  191.0530  176.9570  142.4430 C   0  0  0  0  0  2  0  0  0  0  0  0
  185.4800  178.4450  138.7410 C   0  0  1  0  0  3  0  0  0  0  0  0
  191.0390  175.9680  144.7190 C   0  0  0  0  0  1  0  0  0  0  0  0
  184.7410  177.9800  142.7910 C   0  0  1  0  0  3  0  0  0  0  0  0
  184.9260  180.7360  144.7300 O   0  0  0  0  0  1  0  0  0  0  0  0
  186.0670  177.4710  143.3410 C   0  0  2  0  0  3  0  0  0  0  0  0
  186.5730  178.2190  137.6880 C   0  0  0  0  0  2  0  0  0  0  0  0
  183.4000  177.3400  139.5930 C   0  0  0  0  0  3  0  0  0  0  0  0
  184.5010  177.3070  138.7310 C   0  0  0  0  0  0  0  0  0  0  0  0
  184.6800  176.2050  137.8790 C   0  0  0  0  0  3  0  0  0  0  0  0
  183.9520  174.0350  137.0310 N   0  0  0  0  0  1  0  0  0  0  0  0
  182.6670  175.1880  138.7590 C   0  0  0  0  0  3  0  0  0  0  0  0
  183.7650  175.1490  137.8940 C   0  0  0  0  0  0  0  0  0  0  0  0
  182.4850  176.2840  139.6070 C   0  0  0  0  0  3  0  0  0  0  0  0
  187.5470  178.2640  147.7130 C   0  0  0  0  0  1  0  0  0  0  0  0
  186.6750  179.1000  146.7970 C   0  0  0  0  0  2  0  0  0  0  0  0
  1  4  1  0  0  0  0
  2 14  1  0  0  0  0
  2 24  1  0  0  0  0
  3 20  1  1  0  0  0
  3  7  1  0  0  0  0
  3  9  1  0  0  0  0
  4 37  1  1  0  0  0
  5 19  1  0  0  0  0
  6 11  1  6  0  0  0
  6 22  1  0  0  0  0
  7 21  1  1  0  0  0
  8 26  1  6  0  0  0
  8 12  1  0  0  0  0
  9  6  1  0  0  0  0
  9 13  1  1  0  0  0
 10  7  1  0  0  0  0
 10  5  1  1  0  0  0
 12  4  1  0  0  0  0
 13 17  1  0  0  0  0
 15 20  1  0  0  0  0
 16 20  2  0  0  0  0
 16 11  1  0  0  0  0
 17  2  1  0  0  0  0
 18  8  1  0  0  0  0
 19 25  1  0  0  0  0
 19 18  1  0  0  0  0
 21 13  2  0  0  0  0
 21 27  1  0  0  0  0
 22  2  1  0  0  0  0
 23 10  1  0  0  0  0
 25 18  1  0  0  0  0
 25 27  1  0  0  0  0
 27  1  1  0  0  0  0
 28 15  1  0  0  0  0
 28 23  1  0  0  0  0
 29 35  1  0  0  0  0
 30 23  1  0  0  0  0
 30 29  2  0  0  0  0
 31 34  2  0  0  0  0
 31 30  1  0  0  0  0
 32 34  1  0  0  0  0
 33 35  2  0  0  0  0
 34 33  1  0  0  0  0
 37 36  1  0  0  0  0
M  END
>  <MODEL>
3

>  <REMARK>
 VINA RESULT:      -5.9      3.210      6.932
  Name = 
  2 active torsions:
  status: ('A' for Active; 'I' for Inactive)
    1  A    between atoms: C_4  and  C_37
    2  A    between atoms: C_23  and  C_30
                            x       y       z     vdW  Elec       q    Type
                         _______ _______ _______ _____ _____    ______ ____

>  <TORSDO>
F 2

$$$$
=
 OpenBabel11122411313D

 37 44  0  0  1  0  0  0  0  0999 V2000
  185.3500  174.6930  136.2230 C   0  0  0  0  0  2  0  0  0  0  0  0
  188.7060  176.6730  136.6410 C   0  0  0  0  0  0  0  0  0  0  0  0
  185.5480  178.2810  138.9460 C   0  0  2  0  0  3  0  0  0  0  0  0
  185.0920  173.8040  135.0090 C   0  0  2  0  0  3  0  0  0  0  0  0
  182.3540  176.1040  138.6070 C   0  0  0  0  0  2  0  0  0  0  0  0
  187.8870  177.6990  138.8040 C   0  0  2  0  0  3  0  0  0  0  0  0
  184.5800  177.5440  138.3940 C   0  0  2  0  0  3  0  0  0  0  0  0
  182.8220  173.2930  136.1370 C   0  0  2  0  0  3  0  0  0  0  0  0
  186.7400  178.3740  138.0750 C   0  0  1  0  0  3  0  0  0  0  0  0
  183.3420  177.1200  139.2100 C   0  0  1  0  0  3  0  0  0  0  0  0
  188.1790  178.4700  140.0940 C   0  0  0  0  0  2  0  0  0  0  0  0
  183.6160  173.4300  134.8330 C   0  0  0  0  0  2  0  0  0  0  0  0
  186.3550  177.5210  136.9390 C   0  0  0  0  0  0  0  0  0  0  0  0
  188.5840  175.2290  137.0970 C   0  0  0  0  0  1  0  0  0  0  0  0
  184.5360  178.7910  141.2090 N   0  0  0  0  0  2  0  0  0  0  0  0
  186.9160  178.6260  140.9280 C   0  0  0  0  0  3  0  0  0  0  0  0
  187.3950  177.1060  135.9390 C   0  0  0  0  0  2  0  0  0  0  0  0
  182.2470  174.6080  136.6950 C   0  0  1  0  0  3  0  0  0  0  0  0
  183.0580  175.1420  137.8010 N   0  0  1  0  0  0  0  0  0  0  0  0
  185.6850  178.5890  140.3860 C   0  0  0  0  0  0  0  0  0  0  0  0
  185.1250  177.0300  137.0930 C   0  0  0  0  0  0  0  0  0  0  0  0
  189.0750  177.5680  137.8490 C   0  0  0  0  0  2  0  0  0  0  0  0
  182.5400  178.3120  139.7760 C   0  0  1  0  0  3  0  0  0  0  0  0
  189.8300  176.7500  135.6310 C   0  0  0  0  0  1  0  0  0  0  0  0
  183.0610  175.8280  136.5010 C   0  0  1  0  0  3  0  0  0  0  0  0
  183.4920  172.5360  137.1030 O   0  0  0  0  0  1  0  0  0  0  0  0
  184.5370  175.9870  136.1620 C   0  0  2  0  0  3  0  0  0  0  0  0
  183.2980  179.3190  140.6500 C   0  0  0  0  0  2  0  0  0  0  0  0
  181.9910  180.3800  138.4740 C   0  0  0  0  0  3  0  0  0  0  0  0
  181.7320  179.0300  138.7330 C   0  0  0  0  0  0  0  0  0  0  0  0
  180.7140  178.3710  138.0260 C   0  0  0  0  0  3  0  0  0  0  0  0
  178.9330  178.3890  136.3570 N   0  0  0  0  0  1  0  0  0  0  0  0
  180.2260  180.4090  136.8150 C   0  0  0  0  0  3  0  0  0  0  0  0
  179.9640  179.0600  137.0700 C   0  0  0  0  0  0  0  0  0  0  0  0
  181.2400  181.0680  137.5160 C   0  0  0  0  0  3  0  0  0  0  0  0
  186.6760  172.4890  136.4150 C   0  0  0  0  0  1  0  0  0  0  0  0
  185.9350  172.5430  135.0930 C   0  0  0  0  0  2  0  0  0  0  0  0
  2 14  1  0  0  0  0
  2 22  1  0  0  0  0
  3 20  1  1  0  0  0
  4 37  1  1  0  0  0
  4  1  1  0  0  0  0
  6 22  1  6  0  0  0
  6 11  1  0  0  0  0
  7 21  1  1  0  0  0
  7  3  1  0  0  0  0
  7 10  1  0  0  0  0
  8 18  1  0  0  0  0
  8 26  1  1  0  0  0
  9 13  1  6  0  0  0
  9  6  1  0  0  0  0
  9  3  1  0  0  0  0
 10  5  1  6  0  0  0
 10 23  1  0  0  0  0
 11 16  1  0  0  0  0
 12  4  1  0  0  0  0
 12  8  1  0  0  0  0
 13 21  2  0  0  0  0
 17  2  1  0  0  0  0
 17 13  1  0  0  0  0
 18 19  1  0  0  0  0
 19  5  1  0  0  0  0
 20 16  2  0  0  0  0
 20 15  1  0  0  0  0
 23 28  1  0  0  0  0
 24  2  1  0  0  0  0
 25 18  1  0  0  0  0
 25 19  1  0  0  0  0
 27  1  1  0  0  0  0
 27 25  1  0  0  0  0
 27 21  1  0  0  0  0
 28 15  1  0  0  0  0
 29 30  1  0  0  0  0
 30 23  1  0  0  0  0
 31 30  2  0  0  0  0
 32 34  1  0  0  0  0
 33 34  2  0  0  0  0
 33 35  1  0  0  0  0
 34 31  1  0  0  0  0
 35 29  2  0  0  0  0
 37 36  1  0  0  0  0
M  END
>  <MODEL>
4

>  <REMARK>
 VINA RESULT:      -5.8      1.492      1.864
  Name = 
  2 active torsions:
  status: ('A' for Active; 'I' for Inactive)
    1  A    between atoms: C_4  and  C_37
    2  A    between atoms: C_23  and  C_30
                            x       y       z     vdW  Elec       q    Type
                         _______ _______ _______ _____ _____    ______ ____

>  <TORSDO>
F 2

$$$$
=
 OpenBabel11122411313D

 37 44  0  0  1  0  0  0  0  0999 V2000
  186.6290  173.4060  135.9890 C   0  0  0  0  0  2  0  0  0  0  0  0
  183.4530  171.1110  135.8960 C   0  0  0  0  0  0  0  0  0  0  0  0
  182.5310  175.1670  136.6470 C   0  0  2  0  0  3  0  0  0  0  0  0
  188.0210  172.8340  136.2440 C   0  0  2  0  0  3  0  0  0  0  0  0
  185.7340  177.3540  136.4980 C   0  0  0  0  0  2  0  0  0  0  0  0
  181.9570  173.1150  135.5120 C   0  0  2  0  0  3  0  0  0  0  0  0
  183.7920  175.5680  136.8350 C   0  0  2  0  0  3  0  0  0  0  0  0
  188.8360  175.2730  135.9770 C   0  0  2  0  0  3  0  0  0  0  0  0
  182.3760  173.7100  136.8440 C   0  0  1  0  0  3  0  0  0  0  0  0
  184.2360  176.9960  136.4620 C   0  0  1  0  0  3  0  0  0  0  0  0
  180.5940  173.6900  135.1170 C   0  0  0  0  0  2  0  0  0  0  0  0
  189.0560  173.8990  136.6200 C   0  0  0  0  0  2  0  0  0  0  0  0
  183.7590  173.2910  137.1180 C   0  0  0  0  0  0  0  0  0  0  0  0
  184.3100  171.3170  134.6590 C   0  0  0  0  0  1  0  0  0  0  0  0
  181.4420  177.3310  135.9140 N   0  0  0  0  0  2  0  0  0  0  0  0
  180.6220  175.2110  135.1390 C   0  0  0  0  0  3  0  0  0  0  0  0
  184.1060  171.8300  137.1030 C   0  0  0  0  0  2  0  0  0  0  0  0
  187.8590  176.1990  136.7270 C   0  0  1  0  0  3  0  0  0  0  0  0
  186.5270  176.2200  136.1030 N   0  0  1  0  0  0  0  0  0  0  0  0
  181.4940  175.9050  135.8930 C   0  0  0  0  0  0  0  0  0  0  0  0
  184.5940  174.3300  137.1180 C   0  0  0  0  0  0  0  0  0  0  0  0
  182.0090  171.5900  135.6110 C   0  0  0  0  0  2  0  0  0  0  0  0
  183.4480  178.0990  137.2020 C   0  0  1  0  0  3  0  0  0  0  0  0
  183.4130  169.6280  136.1940 C   0  0  0  0  0  1  0  0  0  0  0  0
  186.7110  175.5530  137.3990 C   0  0  1  0  0  3  0  0  0  0  0  0
  188.5700  175.1940  134.6060 O   0  0  0  0  0  1  0  0  0  0  0  0
  186.0990  174.1720  137.2030 C   0  0  2  0  0  3  0  0  0  0  0  0
  181.9190  178.0820  137.0680 C   0  0  0  0  0  2  0  0  0  0  0  0
  182.8610  178.1750  139.6360 C   0  0  0  0  0  3  0  0  0  0  0  0
  183.8440  178.2430  138.6440 C   0  0  0  0  0  0  0  0  0  0  0  0
  185.1830  178.4580  139.0080 C   0  0  0  0  0  3  0  0  0  0  0  0
  186.8870  178.8250  140.7170 N   0  0  0  0  0  1  0  0  0  0  0  0
  184.5430  178.5360  141.3410 C   0  0  0  0  0  3  0  0  0  0  0  0
  185.5300  178.6050  140.3530 C   0  0  0  0  0  0  0  0  0  0  0  0
  183.2100  178.3200  140.9820 C   0  0  0  0  0  3  0  0  0  0  0  0
  189.9920  171.7960  135.1240 C   0  0  0  0  0  1  0  0  0  0  0  0
  188.5010  172.0590  135.0280 C   0  0  0  0  0  2  0  0  0  0  0  0
  1  4  1  0  0  0  0
  1 27  1  0  0  0  0
  2 24  1  0  0  0  0
  2 17  1  0  0  0  0
  3 20  1  6  0  0  0
  3  7  1  0  0  0  0
  3  9  1  0  0  0  0
  4 37  1  6  0  0  0
  4 12  1  0  0  0  0
  6 11  1  1  0  0  0
  6 22  1  0  0  0  0
  6  9  1  0  0  0  0
  7 21  1  6  0  0  0
  8 26  1  6  0  0  0
  8 12  1  0  0  0  0
  8 18  1  0  0  0  0
  9 13  1  6  0  0  0
 10  5  1  1  0  0  0
 10  7  1  0  0  0  0
 10 23  1  0  0  0  0
 11 16  1  0  0  0  0
 14  2  1  0  0  0  0
 15 28  1  0  0  0  0
 16 20  2  0  0  0  0
 17 13  1  0  0  0  0
 18 25  1  0  0  0  0
 19  5  1  0  0  0  0
 19 18  1  0  0  0  0
 19 25  1  0  0  0  0
 20 15  1  0  0  0  0
 21 13  2  0  0  0  0
 21 27  1  0  0  0  0
 22  2  1  0  0  0  0
 23 30  1  0  0  0  0
 27 25  1  0  0  0  0
 28 23  1  0  0  0  0
 29 35  1  0  0  0  0
 30 31  1  0  0  0  0
 30 29  2  0  0  0  0
 31 34  2  0  0  0  0
 34 32  1  0  0  0  0
 34 33  1  0  0  0  0
 35 33  2  0  0  0  0
 37 36  1  0  0  0  0
M  END
>  <MODEL>
5

>  <REMARK>
 VINA RESULT:      -5.4      2.454      6.172
  Name = 
  2 active torsions:
  status: ('A' for Active; 'I' for Inactive)
    1  A    between atoms: C_4  and  C_37
    2  A    between atoms: C_23  and  C_30
                            x       y       z     vdW  Elec       q    Type
                         _______ _______ _______ _____ _____    ______ ____

>  <TORSDO>
F 2

$$$$
=
 OpenBabel11122411313D

 37 44  0  0  1  0  0  0  0  0999 V2000
  183.8620  174.0570  136.3750 C   0  0  0  0  0  2  0  0  0  0  0  0
  179.9850  173.7990  136.8840 C   0  0  0  0  0  0  0  0  0  0  0  0
  181.5820  177.4690  138.2430 C   0  0  2  0  0  3  0  0  0  0  0  0
  184.7300  172.8140  136.2020 C   0  0  2  0  0  3  0  0  0  0  0  0
  185.3810  177.6780  137.4830 C   0  0  0  0  0  2  0  0  0  0  0  0
  179.7960  176.3130  137.1000 C   0  0  2  0  0  3  0  0  0  0  0  0
  182.8650  177.1140  138.1360 C   0  0  2  0  0  3  0  0  0  0  0  0
  186.6930  174.4810  135.9730 C   0  0  2  0  0  3  0  0  0  0  0  0
  180.6860  176.2950  138.3300 C   0  0  1  0  0  3  0  0  0  0  0  0
  183.9520  178.1560  137.8030 C   0  0  1  0  0  3  0  0  0  0  0  0
  178.9310  177.5750  137.1300 C   0  0  0  0  0  2  0  0  0  0  0  0
  186.2250  173.0840  136.4000 C   0  0  0  0  0  2  0  0  0  0  0  0
  181.6340  175.1780  138.1930 C   0  0  0  0  0  0  0  0  0  0  0  0
  180.5950  173.8070  135.4930 C   0  0  0  0  0  1  0  0  0  0  0  0
  181.7570  179.9850  138.0340 N   0  0  0  0  0  2  0  0  0  0  0  0
  179.7930  178.8180  137.2940 C   0  0  0  0  0  3  0  0  0  0  0  0
  181.1130  173.7920  137.9450 C   0  0  0  0  0  2  0  0  0  0  0  0
  186.5250  175.5810  137.0380 C   0  0  1  0  0  3  0  0  0  0  0  0
  185.3430  176.4200  136.7860 N   0  0  1  0  0  0  0  0  0  0  0  0
  181.0130  178.7790  137.8600 C   0  0  0  0  0  0  0  0  0  0  0  0
  182.8890  175.6130  138.0780 C   0  0  0  0  0  0  0  0  0  0  0  0
  179.0170  174.9980  137.0320 C   0  0  0  0  0  2  0  0  0  0  0  0
  184.0340  179.3090  138.8260 C   0  0  1  0  0  3  0  0  0  0  0  0
  179.1860  172.5220  137.0360 C   0  0  0  0  0  1  0  0  0  0  0  0
  185.3410  175.4830  137.9190 C   0  0  1  0  0  3  0  0  0  0  0  0
  186.2060  174.8560  134.7180 O   0  0  0  0  0  1  0  0  0  0  0  0
  184.0490  174.6930  137.7530 C   0  0  2  0  0  3  0  0  0  0  0  0
  182.7510  180.1060  139.0920 C   0  0  0  0  0  2  0  0  0  0  0  0
  183.8700  178.6190  141.2280 C   0  0  0  0  0  3  0  0  0  0  0  0
  184.6770  178.9040  140.1220 C   0  0  0  0  0  0  0  0  0  0  0  0
  186.0730  178.8210  140.2430 C   0  0  0  0  0  3  0  0  0  0  0  0
  188.0660  178.3760  141.5790 N   0  0  0  0  0  1  0  0  0  0  0  0
  185.8400  178.1740  142.5630 C   0  0  0  0  0  3  0  0  0  0  0  0
  186.6520  178.4570  141.4610 C   0  0  0  0  0  0  0  0  0  0  0  0
  184.4500  178.2540  142.4460 C   0  0  0  0  0  3  0  0  0  0  0  0
  183.2790  171.2930  134.8610 C   0  0  0  0  0  1  0  0  0  0  0  0
  184.4970  172.1960  134.8330 C   0  0  0  0  0  2  0  0  0  0  0  0
  1 27  1  0  0  0  0
  2 22  1  0  0  0  0
  2 24  1  0  0  0  0
  2 17  1  0  0  0  0
  3 20  1  6  0  0  0
  3  9  1  0  0  0  0
  4 37  1  6  0  0  0
  4  1  1  0  0  0  0
  4 12  1  0  0  0  0
  6 22  1  1  0  0  0
  6 11  1  0  0  0  0
  6  9  1  0  0  0  0
  7 21  1  6  0  0  0
  7  3  1  0  0  0  0
  8 26  1  6  0  0  0
  8 12  1  0  0  0  0
  8 18  1  0  0  0  0
  9 13  1  6  0  0  0
 10  5  1  1  0  0  0
 10  7  1  0  0  0  0
 10 23  1  0  0  0  0
 11 16  1  0  0  0  0
 14  2  1  0  0  0  0
 15 28  1  0  0  0  0
 16 20  2  0  0  0  0
 17 13  1  0  0  0  0
 18 25  1  0  0  0  0
 19 18  1  0  0  0  0
 19  5  1  0  0  0  0
 19 25  1  0  0  0  0
 20 15  1  0  0  0  0
 21 13  2  0  0  0  0
 23 28  1  0  0  0  0
 23 30  1  0  0  0  0
 27 25  1  0  0  0  0
 27 21  1  0  0  0  0
 29 35  1  0  0  0  0
 30 31  1  0  0  0  0
 30 29  2  0  0  0  0
 31 34  2  0  0  0  0
 34 32  1  0  0  0  0
 34 33  1  0  0  0  0
 35 33  2  0  0  0  0
 37 36  1  0  0  0  0
M  END
>  <MODEL>
6

>  <REMARK>
 VINA RESULT:      -5.3      2.099      5.909
  Name = 
  2 active torsions:
  status: ('A' for Active; 'I' for Inactive)
    1  A    between atoms: C_4  and  C_37
    2  A    between atoms: C_23  and  C_30
                            x       y       z     vdW  Elec       q    Type
                         _______ _______ _______ _____ _____    ______ ____

>  <TORSDO>
F 2

$$$$
=
 OpenBabel11122411313D

 37 44  0  0  1  0  0  0  0  0999 V2000
  186.8960  178.3100  143.9430 C   0  0  0  0  0  2  0  0  0  0  0  0
  190.3920  176.6760  144.6270 C   0  0  0  0  0  0  0  0  0  0  0  0
  189.5890  177.1830  140.5080 C   0  0  2  0  0  3  0  0  0  0  0  0
  185.7810  178.2770  144.9850 C   0  0  2  0  0  3  0  0  0  0  0  0
  186.2020  179.0030  139.9830 C   0  0  0  0  0  2  0  0  0  0  0  0
  191.1920  177.3030  142.3100 C   0  0  2  0  0  3  0  0  0  0  0  0
  188.3040  177.5170  140.6530 C   0  0  2  0  0  3  0  0  0  0  0  0
  184.4110  179.6120  143.2460 C   0  0  2  0  0  3  0  0  0  0  0  0
  190.1080  176.4460  141.6810 C   0  0  1  0  0  3  0  0  0  0  0  0
  187.6170  178.4810  139.6660 C   0  0  1  0  0  3  0  0  0  0  0  0
  192.3380  177.4710  141.3080 C   0  0  0  0  0  2  0  0  0  0  0  0
  184.4010  178.6140  144.4100 C   0  0  0  0  0  2  0  0  0  0  0  0
  188.9440  176.4470  142.5800 C   0  0  0  0  0  0  0  0  0  0  0  0
  190.0870  178.0950  145.0760 C   0  0  0  0  0  1  0  0  0  0  0  0
  190.1280  178.2940  138.2990 N   0  0  0  0  0  2  0  0  0  0  0  0
  191.8200  177.9990  139.9780 C   0  0  0  0  0  3  0  0  0  0  0  0
  189.1180  176.0420  144.0160 C   0  0  0  0  0  2  0  0  0  0  0  0
  184.6540  178.9940  141.8550 C   0  0  1  0  0  3  0  0  0  0  0  0
  186.0410  179.1780  141.4020 N   0  0  1  0  0  0  0  0  0  0  0  0
  190.5470  177.8210  139.5790 C   0  0  0  0  0  0  0  0  0  0  0  0
  187.8960  177.0530  142.0230 C   0  0  0  0  0  0  0  0  0  0  0  0
  191.5940  176.6890  143.6510 C   0  0  0  0  0  2  0  0  0  0  0  0
  187.6450  177.9890  138.2030 C   0  0  1  0  0  3  0  0  0  0  0  0
  190.7800  175.8720  145.8490 C   0  0  0  0  0  1  0  0  0  0  0  0
  185.5760  177.8390  141.7900 C   0  0  1  0  0  3  0  0  0  0  0  0
  185.2140  180.7290  143.4950 O   0  0  0  0  0  1  0  0  0  0  0  0
  186.6200  177.3500  142.7850 C   0  0  2  0  0  3  0  0  0  0  0  0
  189.0170  177.6670  137.5950 C   0  0  0  0  0  2  0  0  0  0  0  0
  187.1720  175.6060  137.5930 C   0  0  0  0  0  3  0  0  0  0  0  0
  186.6800  176.8700  137.9370 C   0  0  0  0  0  0  0  0  0  0  0  0
  185.2940  177.0750  138.0160 C   0  0  0  0  0  3  0  0  0  0  0  0
  183.0080  176.2380  137.8290 N   0  0  0  0  0  1  0  0  0  0  0  0
  184.9090  174.7640  137.4070 C   0  0  0  0  0  3  0  0  0  0  0  0
  184.4110  176.0250  137.7500 C   0  0  0  0  0  0  0  0  0  0  0  0
  186.2890  174.5560  137.3290 C   0  0  0  0  0  3  0  0  0  0  0  0
  186.7990  178.4750  147.2530 C   0  0  0  0  0  1  0  0  0  0  0  0
  186.1030  179.2220  146.1310 C   0  0  0  0  0  2  0  0  0  0  0  0
  1  4  1  0  0  0  0
  2 14  1  0  0  0  0
  2 24  1  0  0  0  0
  3 20  1  1  0  0  0
  3  7  1  0  0  0  0
  3  9  1  0  0  0  0
  4 37  1  1  0  0  0
  5 19  1  0  0  0  0
  6 11  1  6  0  0  0
  6 22  1  0  0  0  0
  7 21  1  1  0  0  0
  8 26  1  1  0  0  0
  8 12  1  0  0  0  0
  9  6  1  0  0  0  0
  9 13  1  1  0  0  0
 10  5  1  1  0  0  0
 10  7  1  0  0  0  0
 12  4  1  0  0  0  0
 13 17  1  0  0  0  0
 15 20  1  0  0  0  0
 16 11  1  0  0  0  0
 17  2  1  0  0  0  0
 18  8  1  0  0  0  0
 19 25  1  0  0  0  0
 19 18  1  0  0  0  0
 20 16  2  0  0  0  0
 21 13  2  0  0  0  0
 21 27  1  0  0  0  0
 22  2  1  0  0  0  0
 23 10  1  0  0  0  0
 25 18  1  0  0  0  0
 25 27  1  0  0  0  0
 27  1  1  0  0  0  0
 28 23  1  0  0  0  0
 28 15  1  0  0  0  0
 29 30  1  0  0  0  0
 30 31  2  0  0  0  0
 30 23  1  0  0  0  0
 33 34  2  0  0  0  0
 34 32  1  0  0  0  0
 34 31  1  0  0  0  0
 35 33  1  0  0  0  0
 35 29  2  0  0  0  0
 37 36  1  0  0  0  0
M  END
>  <MODEL>
7

>  <REMARK>
 VINA RESULT:      -5.0      3.416      7.364
  Name = 
  2 active torsions:
  status: ('A' for Active; 'I' for Inactive)
    1  A    between atoms: C_4  and  C_37
    2  A    between atoms: C_23  and  C_30
                            x       y       z     vdW  Elec       q    Type
                         _______ _______ _______ _____ _____    ______ ____

>  <TORSDO>
F 2

$$$$
=
 OpenBabel11122411313D

 37 44  0  0  1  0  0  0  0  0999 V2000
  188.4800  177.1360  138.5730 C   0  0  0  0  0  2  0  0  0  0  0  0
  186.0500  176.0570  135.6940 C   0  0  0  0  0  0  0  0  0  0  0  0
  189.8160  174.1510  135.4700 C   0  0  2  0  0  3  0  0  0  0  0  0
  188.2800  178.4390  139.3420 C   0  0  2  0  0  3  0  0  0  0  0  0
  192.0390  175.1410  138.4930 C   0  0  0  0  0  2  0  0  0  0  0  0
  187.4170  173.9750  135.2540 C   0  0  2  0  0  3  0  0  0  0  0  0
  190.4100  174.8990  136.4030 C   0  0  2  0  0  3  0  0  0  0  0  0
  190.3680  177.7160  140.6840 C   0  0  2  0  0  3  0  0  0  0  0  0
  188.6270  174.8190  134.8960 C   0  0  1  0  0  3  0  0  0  0  0  0
  191.5250  174.3180  137.2960 C   0  0  1  0  0  3  0  0  0  0  0  0
  187.5560  172.6000  134.5940 C   0  0  0  0  0  2  0  0  0  0  0  0
  189.5140  178.8680  140.1430 C   0  0  0  0  0  2  0  0  0  0  0  0
  188.5670  176.0610  135.6820 C   0  0  0  0  0  0  0  0  0  0  0  0
  185.7390  175.7370  137.1450 C   0  0  0  0  0  1  0  0  0  0  0  0
  191.2040  172.0380  135.5890 N   0  0  0  0  0  2  0  0  0  0  0  0
  188.8900  171.9610  134.9510 C   0  0  0  0  0  3  0  0  0  0  0  0
  187.3360  176.9180  135.6180 C   0  0  0  0  0  2  0  0  0  0  0  0
  191.4110  177.1550  139.6990 C   0  0  1  0  0  3  0  0  0  0  0  0
  190.9630  175.9000  139.0740 N   0  0  1  0  0  0  0  0  0  0  0  0
  189.9630  172.6880  135.3120 C   0  0  0  0  0  0  0  0  0  0  0  0
  189.5720  176.1370  136.5540 C   0  0  0  0  0  0  0  0  0  0  0  0
  186.1480  174.7430  134.8820 C   0  0  0  0  0  2  0  0  0  0  0  0
  192.7400  173.7930  136.5010 C   0  0  1  0  0  3  0  0  0  0  0  0
  184.9020  176.8740  135.1390 C   0  0  0  0  0  1  0  0  0  0  0  0
  191.0320  177.1280  138.2700 C   0  0  1  0  0  3  0  0  0  0  0  0
  189.6060  176.7190  141.3000 O   0  0  0  0  0  1  0  0  0  0  0  0
  189.6630  177.2230  137.6080 C   0  0  2  0  0  3  0  0  0  0  0  0
  192.4710  172.7390  135.4190 C   0  0  0  0  0  2  0  0  0  0  0  0
  193.0460  175.8610  135.1210 C   0  0  0  0  0  3  0  0  0  0  0  0
  193.6090  174.8900  135.9560 C   0  0  0  0  0  0  0  0  0  0  0  0
  194.9780  174.9490  136.2610 C   0  0  0  0  0  3  0  0  0  0  0  0
  197.1590  176.0230  136.0440 N   0  0  0  0  0  1  0  0  0  0  0  0
  195.2050  176.9360  134.8990 C   0  0  0  0  0  3  0  0  0  0  0  0
  195.7730  175.9690  135.7330 C   0  0  0  0  0  0  0  0  0  0  0  0
  193.8410  176.8820  134.5940 C   0  0  0  0  0  3  0  0  0  0  0  0
  185.7960  178.5890  139.5090 C   0  0  0  0  0  1  0  0  0  0  0  0
  187.0810  178.3230  140.2700 C   0  0  0  0  0  2  0  0  0  0  0  0
  1  4  1  0  0  0  0
  2 14  1  0  0  0  0
  3 20  1  1  0  0  0
  3  7  1  0  0  0  0
  4 12  1  0  0  0  0
  4 37  1  1  0  0  0
  5 19  1  0  0  0  0
  6 11  1  6  0  0  0
  7 21  1  1  0  0  0
  7 10  1  0  0  0  0
  8 26  1  6  0  0  0
  9  6  1  0  0  0  0
  9  3  1  0  0  0  0
  9 13  1  1  0  0  0
 10  5  1  1  0  0  0
 11 16  1  0  0  0  0
 12  8  1  0  0  0  0
 13 21  2  0  0  0  0
 16 20  2  0  0  0  0
 17 13  1  0  0  0  0
 17  2  1  0  0  0  0
 18  8  1  0  0  0  0
 19 18  1  0  0  0  0
 20 15  1  0  0  0  0
 21 27  1  0  0  0  0
 22  6  1  0  0  0  0
 22  2  1  0  0  0  0
 23 10  1  0  0  0  0
 24  2  1  0  0  0  0
 25 19  1  0  0  0  0
 25 18  1  0  0  0  0
 27 25  1  0  0  0  0
 27  1  1  0  0  0  0
 28 15  1  0  0  0  0
 28 23  1  0  0  0  0
 29 30  1  0  0  0  0
 30 31  2  0  0  0  0
 30 23  1  0  0  0  0
 33 34  2  0  0  0  0
 34 32  1  0  0  0  0
 34 31  1  0  0  0  0
 35 33  1  0  0  0  0
 35 29  2  0  0  0  0
 36 37  1  0  0  0  0
M  END
>  <MODEL>
8

>  <REMARK>
 VINA RESULT:      -4.8      4.722      9.935
  Name = 
  2 active torsions:
  status: ('A' for Active; 'I' for Inactive)
    1  A    between atoms: C_4  and  C_37
    2  A    between atoms: C_23  and  C_30
                            x       y       z     vdW  Elec       q    Type
                         _______ _______ _______ _____ _____    ______ ____

>  <TORSDO>
F 2

$$$$
=
 OpenBabel11122411313D

 37 44  0  0  1  0  0  0  0  0999 V2000
  186.1100  174.6780  136.1510 C   0  0  0  0  0  2  0  0  0  0  0  0
  182.5540  173.0400  135.9720 C   0  0  0  0  0  0  0  0  0  0  0  0
  182.5220  176.8460  137.8100 C   0  0  2  0  0  3  0  0  0  0  0  0
  187.3820  173.8400  136.0530 C   0  0  2  0  0  3  0  0  0  0  0  0
  186.0590  178.4420  137.7270 C   0  0  0  0  0  2  0  0  0  0  0  0
  181.4470  175.2900  136.3090 C   0  0  2  0  0  3  0  0  0  0  0  0
  183.8490  176.9720  137.9020 C   0  0  2  0  0  3  0  0  0  0  0  0
  188.6260  176.0960  136.2680 C   0  0  2  0  0  3  0  0  0  0  0  0
  182.1050  175.4340  137.6690 C   0  0  1  0  0  3  0  0  0  0  0  0
  184.5240  178.3550  137.8260 C   0  0  1  0  0  3  0  0  0  0  0  0
  180.1910  176.1640  136.2690 C   0  0  0  0  0  2  0  0  0  0  0  0
  188.6380  174.5840  136.5200 C   0  0  0  0  0  2  0  0  0  0  0  0
  183.4000  174.7380  137.6270 C   0  0  0  0  0  0  0  0  0  0  0  0
  183.3070  173.4240  134.7100 C   0  0  0  0  0  1  0  0  0  0  0  0
  181.8090  179.2750  137.7910 N   0  0  0  0  0  2  0  0  0  0  0  0
  180.5170  177.5990  136.6550 C   0  0  0  0  0  3  0  0  0  0  0  0
  183.4520  173.2960  137.2080 C   0  0  0  0  0  2  0  0  0  0  0  0
  187.9290  176.9360  137.3550 C   0  0  1  0  0  3  0  0  0  0  0  0
  186.5710  177.3390  136.9570 N   0  0  1  0  0  0  0  0  0  0  0  0
  181.5790  177.9160  137.4180 C   0  0  0  0  0  0  0  0  0  0  0  0
  184.4180  175.5890  137.7560 C   0  0  0  0  0  0  0  0  0  0  0  0
  181.2100  173.8060  136.0260 C   0  0  0  0  0  2  0  0  0  0  0  0
  184.0440  179.3360  138.9180 C   0  0  1  0  0  3  0  0  0  0  0  0
  182.2540  171.5580  135.9050 C   0  0  0  0  0  1  0  0  0  0  0  0
  186.7500  176.3320  138.0110 C   0  0  1  0  0  3  0  0  0  0  0  0
  188.2150  176.4270  134.9730 O   0  0  0  0  0  1  0  0  0  0  0  0
  185.8640  175.1710  137.5780 C   0  0  2  0  0  3  0  0  0  0  0  0
  182.5360  179.6040  139.0100 C   0  0  0  0  0  2  0  0  0  0  0  0
  185.9840  178.8570  140.4290 C   0  0  0  0  0  3  0  0  0  0  0  0
  184.6040  179.0260  140.2770 C   0  0  0  0  0  0  0  0  0  0  0  0
  183.7620  178.8920  141.3930 C   0  0  0  0  0  3  0  0  0  0  0  0
  183.4440  178.4520  143.7720 N   0  0  0  0  0  1  0  0  0  0  0  0
  185.6800  178.4210  142.7920 C   0  0  0  0  0  3  0  0  0  0  0  0
  184.3000  178.5890  142.6460 C   0  0  0  0  0  0  0  0  0  0  0  0
  186.5220  178.5550  141.6830 C   0  0  0  0  0  3  0  0  0  0  0  0
  188.5910  172.2190  134.5940 C   0  0  0  0  0  1  0  0  0  0  0  0
  187.5780  173.3480  134.6280 C   0  0  0  0  0  2  0  0  0  0  0  0
  1 27  1  0  0  0  0
  2 22  1  0  0  0  0
  2 17  1  0  0  0  0
  3 20  1  6  0  0  0
  3  7  1  0  0  0  0
  4 37  1  6  0  0  0
  4  1  1  0  0  0  0
  4 12  1  0  0  0  0
  6 22  1  1  0  0  0
  6  9  1  0  0  0  0
  7 21  1  6  0  0  0
  8 26  1  6  0  0  0
  8 12  1  0  0  0  0
  8 18  1  0  0  0  0
  9 13  1  6  0  0  0
  9  3  1  0  0  0  0
 10  5  1  1  0  0  0
 10  7  1  0  0  0  0
 10 23  1  0  0  0  0
 11  6  1  0  0  0  0
 11 16  1  0  0  0  0
 13 21  2  0  0  0  0
 14  2  1  0  0  0  0
 15 28  1  0  0  0  0
 16 20  2  0  0  0  0
 17 13  1  0  0  0  0
 18 25  1  0  0  0  0
 19 18  1  0  0  0  0
 19  5  1  0  0  0  0
 19 25  1  0  0  0  0
 20 15  1  0  0  0  0
 23 28  1  0  0  0  0
 23 30  1  0  0  0  0
 24  2  1  0  0  0  0
 27 21  1  0  0  0  0
 27 25  1  0  0  0  0
 29 35  1  0  0  0  0
 30 29  2  0  0  0  0
 30 31  1  0  0  0  0
 31 34  2  0  0  0  0
 34 33  1  0  0  0  0
 34 32  1  0  0  0  0
 35 33  2  0  0  0  0
 36 37  1  0  0  0  0
M  END
>  <MODEL>
9

>  <REMARK>
 VINA RESULT:      -4.7      2.029      5.691
  Name = 
  2 active torsions:
  status: ('A' for Active; 'I' for Inactive)
    1  A    between atoms: C_4  and  C_37
    2  A    between atoms: C_23  and  C_30
                            x       y       z     vdW  Elec       q    Type
                         _______ _______ _______ _____ _____    ______ ____

>  <TORSDO>
F 2

$$$$
