=
 OpenBabel11122412013D

 28 32  0  0  1  0  0  0  0  0999 V2000
  190.7140  174.0590  135.9110 C   0  0  0  0  0  0  0  0  0  0  0  0
  190.1660  175.3880  138.8200 F   0  0  0  0  0  0  0  0  0  0  0  0
  185.6540  177.5010  134.6010 C   0  0  0  0  0  1  0  0  0  0  0  0
  192.9860  175.1400  134.6630 C   0  0  0  0  0  3  0  0  0  0  0  0
  186.6190  177.4850  136.8960 C   0  0  2  0  0  3  0  0  0  0  0  0
  189.5330  173.3860  136.5480 C   0  0  0  0  0  2  0  0  0  0  0  0
  192.2700  176.3790  138.4180 C   0  0  0  0  0  1  0  0  0  0  0  0
  190.7880  176.6130  138.6450 C   0  0  1  0  0  0  0  0  0  0  0  0
  189.1890  177.7310  140.2100 C   0  0  1  0  0  3  0  0  0  0  0  0
  190.1890  177.3870  137.4340 C   0  0  2  0  0  3  0  0  0  0  0  0
  186.3130  173.3500  135.8760 O   0  0  0  0  0  0  0  0  0  0  0  0
  188.4190  176.0370  136.5020 C   0  0  1  0  0  3  0  0  0  0  0  0
  188.6600  178.6290  139.1040 C   0  0  0  0  0  2  0  0  0  0  0  0
  190.6500  177.4160  139.9350 C   0  0  0  0  0  2  0  0  0  0  0  0
  187.3980  173.6510  135.3130 C   0  0  0  0  0  0  0  0  0  0  0  0
  190.8460  175.4710  135.7770 C   0  0  0  0  0  0  0  0  0  0  0  0
  186.2680  176.6390  135.6860 C   0  0  2  0  0  3  0  0  0  0  0  0
  189.0770  178.3870  141.4330 O   0  0  0  0  0  1  0  0  0  0  0  0
  187.5110  174.8420  134.5940 O   0  0  0  0  0  0  0  0  0  0  0  0
  191.9850  175.9850  135.1430 C   0  0  0  0  0  3  0  0  0  0  0  0
  191.7300  173.2250  135.4260 C   0  0  0  0  0  3  0  0  0  0  0  0
  192.8600  173.7600  134.8070 C   0  0  0  0  0  3  0  0  0  0  0  0
  188.6010  172.7850  135.4980 C   0  0  0  0  0  2  0  0  0  0  0  0
  187.8170  176.9140  137.5100 N   0  0  1  0  0  0  0  0  0  0  0  0
  187.6010  176.1170  135.2320 C   0  0  2  0  0  3  0  0  0  0  0  0
  188.8010  177.9740  137.7280 C   0  0  2  0  0  3  0  0  0  0  0  0
  185.4720  177.4660  137.8890 C   0  0  0  0  0  1  0  0  0  0  0  0
  189.8360  176.4980  136.2490 C   0  0  2  0  0  3  0  0  0  0  0  0
  1  6  1  0  0  0  0
  3 17  1  0  0  0  0
  4 22  2  0  0  0  0
  4 20  1  0  0  0  0
  5 24  1  0  0  0  0
  5 27  1  1  0  0  0
  8  7  1  6  0  0  0
  8  2  1  0  0  0  0
  8 14  1  0  0  0  0
  9 18  1  1  0  0  0
 10 26  1  0  0  0  0
 10  8  1  0  0  0  0
 12 24  1  0  0  0  0
 13  9  1  0  0  0  0
 14  9  1  0  0  0  0
 15 23  1  0  0  0  0
 15 11  2  0  0  0  0
 16  1  1  0  0  0  0
 16 28  1  0  0  0  0
 17  5  1  0  0  0  0
 19 25  1  0  0  0  0
 19 15  1  0  0  0  0
 20 16  2  0  0  0  0
 21  1  2  0  0  0  0
 22 21  1  0  0  0  0
 23  6  1  0  0  0  0
 24 26  1  0  0  0  0
 25 17  1  0  0  0  0
 25 12  1  0  0  0  0
 26 13  1  0  0  0  0
 28 12  1  0  0  0  0
 28 10  1  0  0  0  0
M  END
>  <MODEL>
1

>  <REMARK>
 VINA RESULT:      -5.8      0.000      0.000
  Name = 
  0 active torsions:
  status: ('A' for Active; 'I' for Inactive)
                            x       y       z     vdW  Elec       q    Type
                         _______ _______ _______ _____ _____    ______ ____

>  <TORSDO>
F 0

$$$$
=
 OpenBabel11122412013D

 28 32  0  0  1  0  0  0  0  0999 V2000
  181.9760  178.5390  140.1780 C   0  0  0  0  0  0  0  0  0  0  0  0
  182.2520  175.4410  139.2530 F   0  0  0  0  0  0  0  0  0  0  0  0
  187.1810  178.8940  136.7200 C   0  0  0  0  0  1  0  0  0  0  0  0
  179.8500  179.8450  138.8890 C   0  0  0  0  0  3  0  0  0  0  0  0
  185.9950  176.7240  137.0100 C   0  0  2  0  0  3  0  0  0  0  0  0
  183.0820  177.8860  140.9570 C   0  0  0  0  0  2  0  0  0  0  0  0
  180.2100  175.9080  138.1670 C   0  0  0  0  0  1  0  0  0  0  0  0
  181.6640  175.5120  138.0010 C   0  0  1  0  0  0  0  0  0  0  0  0
  183.1160  173.6680  137.1360 C   0  0  1  0  0  3  0  0  0  0  0  0
  182.3890  176.5470  137.0900 C   0  0  2  0  0  3  0  0  0  0  0  0
  186.3510  178.2470  140.9840 O   0  0  0  0  0  0  0  0  0  0  0  0
  184.2260  177.4760  138.3510 C   0  0  1  0  0  3  0  0  0  0  0  0
  183.7610  174.5900  136.1140 C   0  0  0  0  0  2  0  0  0  0  0  0
  181.6850  174.1200  137.3760 C   0  0  0  0  0  2  0  0  0  0  0  0
  185.3300  178.8660  140.5860 C   0  0  0  0  0  0  0  0  0  0  0  0
  181.8740  178.4980  138.7580 C   0  0  0  0  0  0  0  0  0  0  0  0
  186.4530  177.9960  137.7000 C   0  0  2  0  0  3  0  0  0  0  0  0
  183.1150  172.3640  136.6470 O   0  0  0  0  0  1  0  0  0  0  0  0
  185.3020  179.4300  139.3090 O   0  0  0  0  0  0  0  0  0  0  0  0
  180.8090  179.1650  138.1380 C   0  0  0  0  0  3  0  0  0  0  0  0
  181.0030  179.2250  140.9170 C   0  0  0  0  0  3  0  0  0  0  0  0
  179.9450  179.8720  140.2780 C   0  0  0  0  0  3  0  0  0  0  0  0
  184.1050  178.9120  141.4390 C   0  0  0  0  0  2  0  0  0  0  0  0
  184.7360  176.3080  137.6270 N   0  0  1  0  0  0  0  0  0  0  0  0
  185.1650  178.6410  138.1260 C   0  0  2  0  0  3  0  0  0  0  0  0
  183.7480  176.0480  136.5800 C   0  0  2  0  0  3  0  0  0  0  0  0
  187.0390  175.6380  137.1870 C   0  0  0  0  0  1  0  0  0  0  0  0
  182.8450  177.8000  137.8260 C   0  0  2  0  0  3  0  0  0  0  0  0
  1 21  1  0  0  0  0
  1  6  1  0  0  0  0
  3 17  1  0  0  0  0
  4 22  1  0  0  0  0
  5 27  1  1  0  0  0
  5 24  1  0  0  0  0
  5 17  1  0  0  0  0
  6 23  1  0  0  0  0
  8  7  1  1  0  0  0
  8  2  1  0  0  0  0
  9 18  1  6  0  0  0
  9 14  1  0  0  0  0
 10 28  1  0  0  0  0
 10  8  1  0  0  0  0
 13 26  1  0  0  0  0
 13  9  1  0  0  0  0
 14  8  1  0  0  0  0
 15 11  2  0  0  0  0
 15 23  1  0  0  0  0
 16  1  2  0  0  0  0
 17 25  1  0  0  0  0
 19 15  1  0  0  0  0
 20 16  1  0  0  0  0
 20  4  2  0  0  0  0
 22 21  2  0  0  0  0
 24 12  1  0  0  0  0
 25 12  1  0  0  0  0
 25 19  1  0  0  0  0
 26 10  1  0  0  0  0
 26 24  1  0  0  0  0
 28 12  1  0  0  0  0
 28 16  1  0  0  0  0
M  END
>  <MODEL>
2

>  <REMARK>
 VINA RESULT:      -5.8      4.085      8.734
  Name = 
  0 active torsions:
  status: ('A' for Active; 'I' for Inactive)
                            x       y       z     vdW  Elec       q    Type
                         _______ _______ _______ _____ _____    ______ ____

>  <TORSDO>
F 0

$$$$
=
 OpenBabel11122412013D

 28 32  0  0  1  0  0  0  0  0999 V2000
  183.1250  177.0870  137.1490 C   0  0  0  0  0  0  0  0  0  0  0  0
  184.7450  174.3030  137.5380 F   0  0  0  0  0  0  0  0  0  0  0  0
  189.0040  179.2320  137.0950 C   0  0  0  0  0  1  0  0  0  0  0  0
  181.9790  177.2980  134.5940 C   0  0  0  0  0  3  0  0  0  0  0  0
  188.5420  176.8020  137.3700 C   0  0  2  0  0  3  0  0  0  0  0  0
  183.6460  177.0100  138.5550 C   0  0  0  0  0  2  0  0  0  0  0  0
  183.7680  173.8030  135.4490 C   0  0  0  0  0  1  0  0  0  0  0  0
  185.0570  174.0210  136.2180 C   0  0  1  0  0  0  0  0  0  0  0  0
  187.1690  172.8610  136.8890 C   0  0  1  0  0  3  0  0  0  0  0  0
  185.8680  175.1790  135.5650 C   0  0  2  0  0  3  0  0  0  0  0  0
  185.9550  178.6710  140.2070 O   0  0  0  0  0  0  0  0  0  0  0  0
  186.2030  176.8790  137.2450 C   0  0  1  0  0  3  0  0  0  0  0  0
  188.0200  173.8740  136.1420 C   0  0  0  0  0  2  0  0  0  0  0  0
  185.8370  172.7100  136.1740 C   0  0  0  0  0  2  0  0  0  0  0  0
  185.2720  178.7840  139.1560 C   0  0  0  0  0  0  0  0  0  0  0  0
  183.9300  176.8870  135.9910 C   0  0  0  0  0  0  0  0  0  0  0  0
  188.1100  178.2040  137.7590 C   0  0  2  0  0  3  0  0  0  0  0  0
  187.8260  171.6330  136.9120 O   0  0  0  0  0  1  0  0  0  0  0  0
  185.8790  179.1760  137.9610 O   0  0  0  0  0  0  0  0  0  0  0  0
  183.3360  177.0060  134.7280 C   0  0  0  0  0  3  0  0  0  0  0  0
  181.7630  177.3770  136.9960 C   0  0  0  0  0  3  0  0  0  0  0  0
  181.1910  177.4810  135.7280 C   0  0  0  0  0  3  0  0  0  0  0  0
  183.8290  178.4010  139.1580 C   0  0  0  0  0  2  0  0  0  0  0  0
  187.3450  175.9630  137.3140 N   0  0  1  0  0  0  0  0  0  0  0  0
  186.7170  178.3020  137.2050 C   0  0  2  0  0  3  0  0  0  0  0  0
  187.3250  175.2350  136.0450 C   0  0  2  0  0  3  0  0  0  0  0  0
  189.5060  176.2530  138.4050 C   0  0  0  0  0  1  0  0  0  0  0  0
  185.4120  176.5670  135.9950 C   0  0  2  0  0  3  0  0  0  0  0  0
  1  6  1  0  0  0  0
  3 17  1  0  0  0  0
  4 20  2  0  0  0  0
  4 22  1  0  0  0  0
  5 17  1  0  0  0  0
  5 27  1  1  0  0  0
  6 23  1  0  0  0  0
  8  7  1  6  0  0  0
  8  2  1  0  0  0  0
  9 18  1  6  0  0  0
 10 28  1  0  0  0  0
 10 26  1  0  0  0  0
 10  8  1  0  0  0  0
 12 24  1  0  0  0  0
 13  9  1  0  0  0  0
 14  8  1  0  0  0  0
 14  9  1  0  0  0  0
 15 23  1  0  0  0  0
 15 11  2  0  0  0  0
 16 28  1  0  0  0  0
 16  1  2  0  0  0  0
 19 15  1  0  0  0  0
 20 16  1  0  0  0  0
 21  1  1  0  0  0  0
 22 21  2  0  0  0  0
 24  5  1  0  0  0  0
 25 12  1  0  0  0  0
 25 17  1  0  0  0  0
 25 19  1  0  0  0  0
 26 13  1  0  0  0  0
 26 24  1  0  0  0  0
 28 12  1  0  0  0  0
M  END
>  <MODEL>
3

>  <REMARK>
 VINA RESULT:      -5.6      2.741      6.885
  Name = 
  0 active torsions:
  status: ('A' for Active; 'I' for Inactive)
                            x       y       z     vdW  Elec       q    Type
                         _______ _______ _______ _____ _____    ______ ____

>  <TORSDO>
F 0

$$$$
=
 OpenBabel11122412013D

 28 32  0  0  1  0  0  0  0  0999 V2000
  191.6220  174.6100  136.9660 C   0  0  0  0  0  0  0  0  0  0  0  0
  190.2220  175.6370  139.7080 F   0  0  0  0  0  0  0  0  0  0  0  0
  186.7500  177.7420  134.5950 C   0  0  0  0  0  1  0  0  0  0  0  0
  194.0200  175.9690  136.4270 C   0  0  0  0  0  3  0  0  0  0  0  0
  187.0950  177.6060  137.0570 C   0  0  2  0  0  3  0  0  0  0  0  0
  190.3890  173.7940  137.2290 C   0  0  0  0  0  2  0  0  0  0  0  0
  192.2500  176.8210  139.9330 C   0  0  0  0  0  1  0  0  0  0  0  0
  190.7450  176.9180  139.7780 C   0  0  1  0  0  0  0  0  0  0  0  0
  188.6970  177.7680  140.9360 C   0  0  1  0  0  3  0  0  0  0  0  0
  190.4010  177.7430  138.5030 C   0  0  2  0  0  3  0  0  0  0  0  0
  187.4670  173.5620  135.7360 O   0  0  0  0  0  0  0  0  0  0  0  0
  189.0680  176.3430  137.0580 C   0  0  1  0  0  3  0  0  0  0  0  0
  188.3820  178.7130  139.7890 C   0  0  0  0  0  2  0  0  0  0  0  0
  190.2030  177.5930  141.0340 C   0  0  0  0  0  2  0  0  0  0  0  0
  188.6250  173.9950  135.4970 C   0  0  0  0  0  0  0  0  0  0  0  0
  191.6440  176.0350  136.9600 C   0  0  0  0  0  0  0  0  0  0  0  0
  187.1490  176.8410  135.7470 C   0  0  2  0  0  3  0  0  0  0  0  0
  188.2130  178.3060  142.1260 O   0  0  0  0  0  1  0  0  0  0  0  0
  188.7990  175.2490  134.9080 O   0  0  0  0  0  0  0  0  0  0  0  0
  192.8510  176.6890  136.6800 C   0  0  0  0  0  3  0  0  0  0  0  0
  192.8050  173.9030  136.7140 C   0  0  0  0  0  3  0  0  0  0  0  0
  193.9970  174.5770  136.4470 C   0  0  0  0  0  3  0  0  0  0  0  0
  189.8190  173.2140  135.9360 C   0  0  0  0  0  2  0  0  0  0  0  0
  188.1460  177.0800  137.9260 N   0  0  1  0  0  0  0  0  0  0  0  0
  188.5980  176.4670  135.6260 C   0  0  2  0  0  3  0  0  0  0  0  0
  188.9330  178.1920  138.4590 C   0  0  2  0  0  3  0  0  0  0  0  0
  185.7400  177.4110  137.7120 C   0  0  0  0  0  1  0  0  0  0  0  0
  190.4510  176.9350  137.2150 C   0  0  2  0  0  3  0  0  0  0  0  0
  1  6  1  0  0  0  0
  2  8  1  0  0  0  0
  3 17  1  0  0  0  0
  4 22  2  0  0  0  0
  4 20  1  0  0  0  0
  5 27  1  1  0  0  0
  5 24  1  0  0  0  0
  8  7  1  1  0  0  0
  8 14  1  0  0  0  0
  9 14  1  0  0  0  0
  9 18  1  1  0  0  0
 10  8  1  0  0  0  0
 12 28  1  0  0  0  0
 12 24  1  0  0  0  0
 13  9  1  0  0  0  0
 15 11  2  0  0  0  0
 15 23  1  0  0  0  0
 16  1  1  0  0  0  0
 16 28  1  0  0  0  0
 17  5  1  0  0  0  0
 19 15  1  0  0  0  0
 19 25  1  0  0  0  0
 20 16  2  0  0  0  0
 21  1  2  0  0  0  0
 22 21  1  0  0  0  0
 23  6  1  0  0  0  0
 24 26  1  0  0  0  0
 25 17  1  0  0  0  0
 25 12  1  0  0  0  0
 26 10  1  0  0  0  0
 26 13  1  0  0  0  0
 28 10  1  0  0  0  0
M  END
>  <MODEL>
4

>  <REMARK>
 VINA RESULT:      -5.5      1.221      1.284
  Name = 
  0 active torsions:
  status: ('A' for Active; 'I' for Inactive)
                            x       y       z     vdW  Elec       q    Type
                         _______ _______ _______ _____ _____    ______ ____

>  <TORSDO>
F 0

$$$$
=
 OpenBabel11122412013D

 28 32  0  0  1  0  0  0  0  0999 V2000
  187.9400  176.1880  136.5380 C   0  0  0  0  0  0  0  0  0  0  0  0
  188.8330  176.0030  139.6520 F   0  0  0  0  0  0  0  0  0  0  0  0
  183.8030  180.1280  139.0930 C   0  0  0  0  0  1  0  0  0  0  0  0
  189.8060  177.5960  134.9830 C   0  0  0  0  0  3  0  0  0  0  0  0
  185.4910  178.9670  140.5080 C   0  0  2  0  0  3  0  0  0  0  0  0
  186.9370  175.3630  137.2920 C   0  0  0  0  0  2  0  0  0  0  0  0
  190.8290  176.9410  138.8130 C   0  0  0  0  0  1  0  0  0  0  0  0
  189.6400  177.1250  139.7370 C   0  0  1  0  0  0  0  0  0  0  0  0
  189.0510  177.4560  142.1450 C   0  0  1  0  0  3  0  0  0  0  0  0
  188.8630  178.4160  139.3410 C   0  0  2  0  0  3  0  0  0  0  0  0
  183.7960  175.8400  138.1440 O   0  0  0  0  0  0  0  0  0  0  0  0
  186.5960  177.7770  138.8180 C   0  0  1  0  0  3  0  0  0  0  0  0
  188.4080  178.8010  141.8530 C   0  0  0  0  0  2  0  0  0  0  0  0
  190.1840  177.2240  141.1590 C   0  0  0  0  0  2  0  0  0  0  0  0
  184.6440  176.3080  137.3410 C   0  0  0  0  0  0  0  0  0  0  0  0
  188.3700  177.4830  136.9460 C   0  0  0  0  0  0  0  0  0  0  0  0
  184.5250  178.8200  139.3460 C   0  0  2  0  0  3  0  0  0  0  0  0
  189.5580  177.4570  143.4430 O   0  0  0  0  0  1  0  0  0  0  0  0
  184.7900  177.6890  137.1970 O   0  0  0  0  0  0  0  0  0  0  0  0
  189.2950  178.1690  136.1480 C   0  0  0  0  0  3  0  0  0  0  0  0
  188.4650  175.6270  135.3670 C   0  0  0  0  0  3  0  0  0  0  0  0
  189.3930  176.3240  134.5940 C   0  0  0  0  0  3  0  0  0  0  0  0
  185.5700  175.3900  136.6130 C   0  0  0  0  0  2  0  0  0  0  0  0
  186.6410  178.1030  140.2460 N   0  0  1  0  0  0  0  0  0  0  0  0
  185.4250  178.4990  138.1870 C   0  0  2  0  0  3  0  0  0  0  0  0
  187.8730  178.8730  140.4210 C   0  0  2  0  0  3  0  0  0  0  0  0
  184.8130  178.5450  141.7980 C   0  0  0  0  0  1  0  0  0  0  0  0
  187.8950  178.2200  138.1830 C   0  0  2  0  0  3  0  0  0  0  0  0
  1 16  1  0  0  0  0
  1  6  1  0  0  0  0
  2  8  1  0  0  0  0
  3 17  1  0  0  0  0
  4 20  1  0  0  0  0
  5 27  1  1  0  0  0
  8  7  1  6  0  0  0
  8 14  1  0  0  0  0
  9 18  1  1  0  0  0
 10  8  1  0  0  0  0
 10 26  1  0  0  0  0
 12 24  1  0  0  0  0
 13  9  1  0  0  0  0
 14  9  1  0  0  0  0
 15 11  2  0  0  0  0
 16 28  1  0  0  0  0
 17  5  1  0  0  0  0
 19 15  1  0  0  0  0
 19 25  1  0  0  0  0
 20 16  2  0  0  0  0
 21  1  2  0  0  0  0
 22  4  2  0  0  0  0
 22 21  1  0  0  0  0
 23  6  1  0  0  0  0
 23 15  1  0  0  0  0
 24 26  1  0  0  0  0
 24  5  1  0  0  0  0
 25 12  1  0  0  0  0
 25 17  1  0  0  0  0
 26 13  1  0  0  0  0
 28 12  1  0  0  0  0
 28 10  1  0  0  0  0
M  END
>  <MODEL>
5

>  <REMARK>
 VINA RESULT:      -5.4      2.499      3.557
  Name = 
  0 active torsions:
  status: ('A' for Active; 'I' for Inactive)
                            x       y       z     vdW  Elec       q    Type
                         _______ _______ _______ _____ _____    ______ ____

>  <TORSDO>
F 0

$$$$
=
 OpenBabel11122412013D

 28 32  0  0  1  0  0  0  0  0999 V2000
  182.6980  178.3970  139.0150 C   0  0  0  0  0  0  0  0  0  0  0  0
  182.9140  175.1670  138.7960 F   0  0  0  0  0  0  0  0  0  0  0  0
  188.0850  177.8760  135.8730 C   0  0  0  0  0  1  0  0  0  0  0  0
  180.6890  179.4400  137.3530 C   0  0  0  0  0  3  0  0  0  0  0  0
  186.8120  175.8480  136.5530 C   0  0  2  0  0  3  0  0  0  0  0  0
  183.7380  177.9040  139.9800 C   0  0  0  0  0  2  0  0  0  0  0  0
  180.9490  175.4330  137.5170 C   0  0  0  0  0  1  0  0  0  0  0  0
  182.3960  174.9780  137.5260 C   0  0  1  0  0  0  0  0  0  0  0  0
  183.8260  172.9580  137.1640 C   0  0  1  0  0  3  0  0  0  0  0  0
  183.2020  175.7750  136.4580 C   0  0  2  0  0  3  0  0  0  0  0  0
  187.0120  178.1870  140.1210 O   0  0  0  0  0  0  0  0  0  0  0  0
  185.0020  176.9120  137.5950 C   0  0  1  0  0  3  0  0  0  0  0  0
  184.5550  173.6210  136.0080 C   0  0  0  0  0  2  0  0  0  0  0  0
  182.4010  173.4840  137.2180 C   0  0  0  0  0  2  0  0  0  0  0  0
  186.0350  178.7280  139.5390 C   0  0  0  0  0  0  0  0  0  0  0  0
  182.6690  178.0510  137.6330 C   0  0  0  0  0  0  0  0  0  0  0  0
  187.2770  177.2280  136.9790 C   0  0  2  0  0  3  0  0  0  0  0  0
  183.8050  171.5790  136.9680 O   0  0  0  0  0  1  0  0  0  0  0  0
  186.0940  179.0020  138.1710 O   0  0  0  0  0  0  0  0  0  0  0  0
  181.6620  178.5920  136.8240 C   0  0  0  0  0  3  0  0  0  0  0  0
  181.7120  179.2480  139.5310 C   0  0  0  0  0  3  0  0  0  0  0  0
  180.7120  179.7660  138.7070 C   0  0  0  0  0  3  0  0  0  0  0  0
  184.7700  178.9860  140.2880 C   0  0  0  0  0  2  0  0  0  0  0  0
  185.5090  175.6040  137.1700 N   0  0  1  0  0  0  0  0  0  0  0  0
  185.9910  177.9790  137.1800 C   0  0  2  0  0  3  0  0  0  0  0  0
  184.5680  175.1460  136.1480 C   0  0  2  0  0  3  0  0  0  0  0  0
  187.8060  174.8020  137.0200 C   0  0  0  0  0  1  0  0  0  0  0  0
  183.6630  177.1460  136.9320 C   0  0  2  0  0  3  0  0  0  0  0  0
  1 21  1  0  0  0  0
  1  6  1  0  0  0  0
  3 17  1  0  0  0  0
  4 22  1  0  0  0  0
  5 17  1  0  0  0  0
  5 27  1  1  0  0  0
  5 24  1  0  0  0  0
  6 23  1  0  0  0  0
  8  7  1  6  0  0  0
  8  2  1  0  0  0  0
  9 18  1  6  0  0  0
  9 14  1  0  0  0  0
 10 28  1  0  0  0  0
 10  8  1  0  0  0  0
 13 26  1  0  0  0  0
 13  9  1  0  0  0  0
 14  8  1  0  0  0  0
 15 11  2  0  0  0  0
 15 23  1  0  0  0  0
 16  1  2  0  0  0  0
 17 25  1  0  0  0  0
 19 15  1  0  0  0  0
 20  4  2  0  0  0  0
 20 16  1  0  0  0  0
 22 21  2  0  0  0  0
 24 12  1  0  0  0  0
 25 12  1  0  0  0  0
 25 19  1  0  0  0  0
 26 10  1  0  0  0  0
 26 24  1  0  0  0  0
 28 12  1  0  0  0  0
 28 16  1  0  0  0  0
M  END
>  <MODEL>
6

>  <REMARK>
 VINA RESULT:      -5.4      3.567      8.036
  Name = 
  0 active torsions:
  status: ('A' for Active; 'I' for Inactive)
                            x       y       z     vdW  Elec       q    Type
                         _______ _______ _______ _____ _____    ______ ____

>  <TORSDO>
F 0

$$$$
=
 OpenBabel11122412013D

 28 32  0  0  1  0  0  0  0  0999 V2000
  182.7260  178.9310  138.6350 C   0  0  0  0  0  0  0  0  0  0  0  0
  181.4580  176.6430  140.5560 F   0  0  0  0  0  0  0  0  0  0  0  0
  182.4210  174.1620  134.5940 C   0  0  0  0  0  1  0  0  0  0  0  0
  180.8500  180.9100  137.9630 C   0  0  0  0  0  3  0  0  0  0  0  0
  181.6510  173.8840  136.9450 C   0  0  2  0  0  3  0  0  0  0  0  0
  183.7990  177.9500  139.0120 C   0  0  0  0  0  2  0  0  0  0  0  0
  179.6270  178.1320  140.5970 C   0  0  0  0  0  1  0  0  0  0  0  0
  180.1210  176.7520  140.2070 C   0  0  1  0  0  0  0  0  0  0  0  0
  179.7320  174.3220  140.6560 C   0  0  1  0  0  3  0  0  0  0  0  0
  179.9130  176.5320  138.6790 C   0  0  2  0  0  3  0  0  0  0  0  0
  185.5000  175.6960  137.3250 O   0  0  0  0  0  0  0  0  0  0  0  0
  182.0690  176.0620  137.7030 C   0  0  1  0  0  3  0  0  0  0  0  0
  179.3670  174.0630  139.2030 C   0  0  0  0  0  2  0  0  0  0  0  0
  179.3240  175.7390  141.0230 C   0  0  0  0  0  2  0  0  0  0  0  0
  184.7840  176.7080  137.1050 C   0  0  0  0  0  0  0  0  0  0  0  0
  181.4630  178.5570  138.0920 C   0  0  0  0  0  0  0  0  0  0  0  0
  182.7160  174.4850  136.0450 C   0  0  2  0  0  3  0  0  0  0  0  0
  179.0560  173.4170  141.4710 O   0  0  0  0  0  1  0  0  0  0  0  0
  183.8010  176.6720  136.1140 O   0  0  0  0  0  0  0  0  0  0  0  0
  180.5490  179.5630  137.7560 C   0  0  0  0  0  3  0  0  0  0  0  0
  183.0110  180.2870  138.8390 C   0  0  0  0  0  3  0  0  0  0  0  0
  182.0800  181.2720  138.5060 C   0  0  0  0  0  3  0  0  0  0  0  0
  184.9150  177.9170  137.9710 C   0  0  0  0  0  2  0  0  0  0  0  0
  181.4730  174.7800  138.0870 N   0  0  1  0  0  0  0  0  0  0  0  0
  182.5730  175.9620  136.2800 C   0  0  2  0  0  3  0  0  0  0  0  0
  180.0480  175.0610  138.2630 C   0  0  2  0  0  3  0  0  0  0  0  0
  182.0960  172.5170  137.4280 C   0  0  0  0  0  1  0  0  0  0  0  0
  181.0110  177.1360  137.8150 C   0  0  2  0  0  3  0  0  0  0  0  0
  1 21  1  0  0  0  0
  1  6  1  0  0  0  0
  3 17  1  0  0  0  0
  4 22  1  0  0  0  0
  5 27  1  1  0  0  0
  5 24  1  0  0  0  0
  8  2  1  0  0  0  0
  8  7  1  1  0  0  0
  8 14  1  0  0  0  0
  9 14  1  0  0  0  0
  9 18  1  1  0  0  0
 10  8  1  0  0  0  0
 12 28  1  0  0  0  0
 12 24  1  0  0  0  0
 13  9  1  0  0  0  0
 15 11  2  0  0  0  0
 15 23  1  0  0  0  0
 16  1  2  0  0  0  0
 17 25  1  0  0  0  0
 17  5  1  0  0  0  0
 19 25  1  0  0  0  0
 19 15  1  0  0  0  0
 20  4  2  0  0  0  0
 20 16  1  0  0  0  0
 22 21  2  0  0  0  0
 23  6  1  0  0  0  0
 24 26  1  0  0  0  0
 25 12  1  0  0  0  0
 26 10  1  0  0  0  0
 26 13  1  0  0  0  0
 28 16  1  0  0  0  0
 28 10  1  0  0  0  0
M  END
>  <MODEL>
7

>  <REMARK>
 VINA RESULT:      -5.0      5.695      9.155
  Name = 
  0 active torsions:
  status: ('A' for Active; 'I' for Inactive)
                            x       y       z     vdW  Elec       q    Type
                         _______ _______ _______ _____ _____    ______ ____

>  <TORSDO>
F 0

$$$$
=
 OpenBabel11122412013D

 28 32  0  0  1  0  0  0  0  0999 V2000
  185.0900  175.0250  137.0060 C   0  0  0  0  0  0  0  0  0  0  0  0
  183.0550  175.6190  139.4620 F   0  0  0  0  0  0  0  0  0  0  0  0
  179.7790  172.7550  134.5940 C   0  0  0  0  0  1  0  0  0  0  0  0
  185.8500  177.3740  135.6680 C   0  0  0  0  0  3  0  0  0  0  0  0
  179.8130  173.7510  136.8750 C   0  0  2  0  0  3  0  0  0  0  0  0
  184.7840  173.7380  137.7170 C   0  0  0  0  0  2  0  0  0  0  0  0
  183.5900  177.8600  138.9550 C   0  0  0  0  0  1  0  0  0  0  0  0
  182.4970  176.8110  139.0290 C   0  0  1  0  0  0  0  0  0  0  0  0
  180.3330  176.3000  140.1740 C   0  0  1  0  0  3  0  0  0  0  0  0
  181.8280  176.6510  137.6310 C   0  0  2  0  0  3  0  0  0  0  0  0
  183.1070  171.0330  136.8850 O   0  0  0  0  0  0  0  0  0  0  0  0
  182.0780  174.3470  136.9560 C   0  0  1  0  0  3  0  0  0  0  0  0
  179.5840  176.2790  138.8520 C   0  0  0  0  0  2  0  0  0  0  0  0
  181.4890  177.2820  140.0720 C   0  0  0  0  0  2  0  0  0  0  0  0
  183.6310  172.0350  136.3310 C   0  0  0  0  0  0  0  0  0  0  0  0
  184.0930  175.9290  136.5370 C   0  0  0  0  0  0  0  0  0  0  0  0
  180.5550  172.8640  135.8920 C   0  0  2  0  0  3  0  0  0  0  0  0
  179.4690  176.7020  141.1900 O   0  0  0  0  0  1  0  0  0  0  0  0
  182.9330  172.7410  135.3490 O   0  0  0  0  0  0  0  0  0  0  0  0
  184.4990  177.0900  135.8650 C   0  0  0  0  0  3  0  0  0  0  0  0
  186.4420  175.3270  136.8010 C   0  0  0  0  0  3  0  0  0  0  0  0
  186.8220  176.4940  136.1380 C   0  0  0  0  0  3  0  0  0  0  0  0
  184.9590  172.5350  136.7940 C   0  0  0  0  0  2  0  0  0  0  0  0
  180.8090  174.4570  137.6810 N   0  0  1  0  0  0  0  0  0  0  0  0
  181.8400  173.6070  135.6590 C   0  0  2  0  0  3  0  0  0  0  0  0
  180.4980  175.8870  137.6890 C   0  0  2  0  0  3  0  0  0  0  0  0
  178.9330  172.9020  137.7730 C   0  0  0  0  0  1  0  0  0  0  0  0
  182.5960  175.7410  136.6820 C   0  0  2  0  0  3  0  0  0  0  0  0
  1  6  1  0  0  0  0
  3 17  1  0  0  0  0
  4 20  2  0  0  0  0
  4 22  1  0  0  0  0
  5 24  1  0  0  0  0
  5 27  1  1  0  0  0
  8  7  1  6  0  0  0
  8  2  1  0  0  0  0
  8 14  1  0  0  0  0
  9 18  1  1  0  0  0
 10 26  1  0  0  0  0
 10  8  1  0  0  0  0
 12 24  1  0  0  0  0
 13  9  1  0  0  0  0
 14  9  1  0  0  0  0
 15 23  1  0  0  0  0
 15 11  2  0  0  0  0
 16 28  1  0  0  0  0
 16  1  2  0  0  0  0
 17  5  1  0  0  0  0
 19 25  1  0  0  0  0
 19 15  1  0  0  0  0
 20 16  1  0  0  0  0
 21  1  1  0  0  0  0
 22 21  2  0  0  0  0
 23  6  1  0  0  0  0
 24 26  1  0  0  0  0
 25 17  1  0  0  0  0
 25 12  1  0  0  0  0
 26 13  1  0  0  0  0
 28 12  1  0  0  0  0
 28 10  1  0  0  0  0
M  END
>  <MODEL>
8

>  <REMARK>
 VINA RESULT:      -5.0      5.020      7.277
  Name = 
  0 active torsions:
  status: ('A' for Active; 'I' for Inactive)
                            x       y       z     vdW  Elec       q    Type
                         _______ _______ _______ _____ _____    ______ ____

>  <TORSDO>
F 0

$$$$
=
 OpenBabel11122412013D

 28 32  0  0  1  0  0  0  0  0999 V2000
  190.2010  177.1670  138.2200 C   0  0  0  0  0  0  0  0  0  0  0  0
  189.3480  174.0880  137.6540 F   0  0  0  0  0  0  0  0  0  0  0  0
  194.9740  175.3620  134.5970 C   0  0  0  0  0  1  0  0  0  0  0  0
  188.5620  178.9900  136.8500 C   0  0  0  0  0  3  0  0  0  0  0  0
  193.1450  173.7740  135.1710 C   0  0  2  0  0  3  0  0  0  0  0  0
  191.0690  176.2540  139.0380 C   0  0  0  0  0  2  0  0  0  0  0  0
  187.5170  175.1190  136.5800 C   0  0  0  0  0  1  0  0  0  0  0  0
  188.7370  174.2320  136.4190 C   0  0  1  0  0  0  0  0  0  0  0  0
  189.4160  171.9250  135.7330 C   0  0  1  0  0  3  0  0  0  0  0  0
  189.7070  174.8590  135.3740 C   0  0  2  0  0  3  0  0  0  0  0  0
  194.2610  175.4680  138.9290 O   0  0  0  0  0  0  0  0  0  0  0  0
  191.8290  175.2180  136.4650 C   0  0  1  0  0  3  0  0  0  0  0  0
  190.2650  172.4620  134.5930 C   0  0  0  0  0  2  0  0  0  0  0  0
  188.2430  172.8630  135.9610 C   0  0  0  0  0  2  0  0  0  0  0  0
  193.4860  176.3580  138.4910 C   0  0  0  0  0  0  0  0  0  0  0  0
  189.9970  177.0220  136.8180 C   0  0  0  0  0  0  0  0  0  0  0  0
  194.0520  174.8720  135.6950 C   0  0  2  0  0  3  0  0  0  0  0  0
  188.9400  170.6590  135.3990 O   0  0  0  0  0  1  0  0  0  0  0  0
  193.5660  176.7660  137.1580 O   0  0  0  0  0  0  0  0  0  0  0  0
  189.1820  177.9500  136.1560 C   0  0  0  0  0  3  0  0  0  0  0  0
  189.5690  178.2150  138.9020 C   0  0  0  0  0  3  0  0  0  0  0  0
  188.7540  179.1210  138.2230 C   0  0  0  0  0  3  0  0  0  0  0  0
  192.4090  176.9070  139.3670 C   0  0  0  0  0  2  0  0  0  0  0  0
  191.8640  173.8800  135.8680 N   0  0  1  0  0  0  0  0  0  0  0  0
  193.0900  175.9600  136.0800 C   0  0  2  0  0  3  0  0  0  0  0  0
  190.7780  173.8730  134.8870 C   0  0  2  0  0  3  0  0  0  0  0  0
  193.7680  172.4170  135.4430 C   0  0  0  0  0  1  0  0  0  0  0  0
  190.6090  175.9440  135.9460 C   0  0  2  0  0  3  0  0  0  0  0  0
  1 21  1  0  0  0  0
  1  6  1  0  0  0  0
  3 17  1  0  0  0  0
  4 22  1  0  0  0  0
  5 27  1  1  0  0  0
  5 17  1  0  0  0  0
  5 24  1  0  0  0  0
  6 23  1  0  0  0  0
  8  7  1  1  0  0  0
  8  2  1  0  0  0  0
  9 18  1  6  0  0  0
  9 14  1  0  0  0  0
 10 28  1  0  0  0  0
 10  8  1  0  0  0  0
 13 26  1  0  0  0  0
 13  9  1  0  0  0  0
 14  8  1  0  0  0  0
 15 11  2  0  0  0  0
 15 23  1  0  0  0  0
 16  1  2  0  0  0  0
 17 25  1  0  0  0  0
 19 15  1  0  0  0  0
 20 16  1  0  0  0  0
 20  4  2  0  0  0  0
 22 21  2  0  0  0  0
 24 12  1  0  0  0  0
 25 12  1  0  0  0  0
 25 19  1  0  0  0  0
 26 10  1  0  0  0  0
 26 24  1  0  0  0  0
 28 12  1  0  0  0  0
 28 16  1  0  0  0  0
M  END
>  <MODEL>
9

>  <REMARK>
 VINA RESULT:      -4.7      2.449      6.376
  Name = 
  0 active torsions:
  status: ('A' for Active; 'I' for Inactive)
                            x       y       z     vdW  Elec       q    Type
                         _______ _______ _______ _____ _____    ______ ____

>  <TORSDO>
F 0

$$$$
