=
 OpenBabel11122412303D

 34 37  0  0  1  0  0  0  0  0999 V2000
  182.4540  178.5880  143.3730 C   0  0  2  0  0  3  0  0  0  0  0  0
  183.4690  179.2720  145.4550 O   0  0  0  0  0  0  0  0  0  0  0  0
  181.4170  178.0280  141.1640 C   0  0  0  0  0  2  0  0  0  0  0  0
  184.9070  179.3110  143.5310 C   0  0  2  0  0  3  0  0  0  0  0  0
  187.6530  178.0790  143.6430 C   0  0  0  0  0  2  0  0  0  0  0  0
  184.9950  178.4340  142.2520 C   0  0  1  0  0  3  0  0  0  0  0  0
  184.5730  178.4500  145.7210 C   0  0  0  0  0  2  0  0  0  0  0  0
  186.5430  177.6380  144.4760 N   0  0  0  0  0  0  0  0  0  0  0  0
  182.4560  178.8850  141.8750 C   0  0  2  0  0  3  0  0  0  0  0  0
  183.8480  178.7120  141.2470 C   0  0  1  0  0  3  0  0  0  0  0  0
  180.1080  177.9080  143.2410 N   0  0  0  0  0  2  0  0  0  0  0  0
  187.4000  177.6720  142.2030 C   0  0  0  0  0  2  0  0  0  0  0  0
  180.0540  178.2520  141.8180 C   0  0  0  0  0  2  0  0  0  0  0  0
  186.3540  178.5730  141.5690 C   0  0  0  0  0  2  0  0  0  0  0  0
  185.6800  178.8000  144.7440 C   0  0  1  0  0  3  0  0  0  0  0  0
  181.0420  178.8120  143.9130 C   0  0  0  0  0  2  0  0  0  0  0  0
  183.4750  179.4940  144.0660 C   0  0  1  0  0  3  0  0  0  0  0  0
  184.1350  179.6990  140.2740 O   0  0  0  0  0  0  0  0  0  0  0  0
  183.6660  179.2560  139.0250 C   0  0  0  0  0  2  0  0  0  0  0  0
  185.6010  178.1050  137.9440 C   0  0  0  0  0  1  0  0  0  0  0  0
  184.2810  177.9120  138.6820 C   0  0  2  0  0  3  0  0  0  0  0  0
  183.2920  177.0740  137.8680 C   0  0  1  0  0  3  0  0  0  0  0  0
  183.6010  177.1230  136.5060 O   0  0  0  0  0  1  0  0  0  0  0  0
  183.2580  175.6250  138.3360 C   0  0  0  0  0  2  0  0  0  0  0  0
  183.7120  174.6810  137.2350 C   0  0  0  0  0  2  0  0  0  0  0  0
  185.0400  174.3020  137.4410 O   0  0  0  0  0  0  0  0  0  0  0  0
  184.9710  172.9490  137.7640 C   0  0  0  0  0  1  0  0  0  0  0  0
  187.1540  177.2110  145.7290 C   0  0  0  0  0  2  0  0  0  0  0  0
  188.6020  177.2750  145.6130 N   0  0  0  0  0  2  0  0  0  0  0  0
  189.1260  177.5810  146.9360 C   0  0  1  0  0  3  0  0  0  0  0  0
  188.3000  178.0830  149.1450 O   0  0  0  0  0  1  0  0  0  0  0  0
  188.0990  177.2790  148.0220 C   0  0  0  0  0  2  0  0  0  0  0  0
  190.7320  176.7520  147.2460 S   0  0  0  0  0  0  0  0  0  0  0  0
  191.3590  176.8880  145.5430 C   0  0  0  0  0  1  0  0  0  0  0  0
  1 16  1  1  0  0  0
  1 17  1  0  0  0  0
  2  7  1  0  0  0  0
  3 13  1  0  0  0  0
  3  9  1  0  0  0  0
  4 17  1  0  0  0  0
  4 15  1  0  0  0  0
  5  8  1  0  0  0  0
  6  4  1  0  0  0  0
  8 15  1  0  0  0  0
  8 28  1  0  0  0  0
  9  1  1  0  0  0  0
 10  9  1  0  0  0  0
 10  6  1  0  0  0  0
 11 16  1  0  0  0  0
 12  5  1  0  0  0  0
 13 11  1  0  0  0  0
 14 12  1  0  0  0  0
 14  6  1  0  0  0  0
 15  7  1  0  0  0  0
 17  2  1  0  0  0  0
 18 10  1  0  0  0  0
 19 18  1  0  0  0  0
 20 21  1  0  0  0  0
 21 19  1  0  0  0  0
 22 24  1  0  0  0  0
 22 21  1  0  0  0  0
 23 22  1  0  0  0  0
 25 26  1  0  0  0  0
 25 24  1  0  0  0  0
 26 27  1  0  0  0  0
 29 28  1  0  0  0  0
 29 30  1  0  0  0  0
 30 33  1  0  0  0  0
 30 32  1  0  0  0  0
 32 31  1  0  0  0  0
 34 33  1  0  0  0  0
M  END
>  <MODEL>
1

>  <REMARK>
 VINA RESULT:      -6.8      0.000      0.000
  Name = 
  12 active torsions:
  status: ('A' for Active; 'I' for Inactive)
    1  A    between atoms: C_3  and  C_16
    2  A    between atoms: C_3  and  C_19
    3  A    between atoms: C_5  and  O_11
    4  A    between atoms: C_5  and  C_19
    5  A    between atoms: C_8  and  O_12
    6  A    between atoms: C_8  and  C_16
    7  A    between atoms: O_11  and  C_20
    8  A    between atoms: N_17  and  C_28
    9  A    between atoms: C_28  and  N_29
   10  A    between atoms: N_29  and  C_32
   11  A    between atoms: S_31  and  C_32
   12  A    between atoms: C_32  and  C_34
                            x       y       z     vdW  Elec       q    Type
                         _______ _______ _______ _____ _____    ______ ____

>  <TORSDO>
F 12

$$$$
=
 OpenBabel11122412303D

 34 37  0  0  1  0  0  0  0  0999 V2000
  188.1350  176.8220  138.0580 C   0  0  2  0  0  3  0  0  0  0  0  0
  186.9860  178.6400  139.1560 O   0  0  0  0  0  0  0  0  0  0  0  0
  189.4280  175.0430  136.8610 C   0  0  0  0  0  2  0  0  0  0  0  0
  189.1870  178.1450  139.9820 C   0  0  2  0  0  3  0  0  0  0  0  0
  189.6900  177.8740  142.9400 C   0  0  0  0  0  2  0  0  0  0  0  0
  189.9980  176.8290  140.1220 C   0  0  1  0  0  3  0  0  0  0  0  0
  186.8830  178.3590  140.5250 C   0  0  0  0  0  2  0  0  0  0  0  0
  188.4010  177.6020  142.3180 N   0  0  0  0  0  0  0  0  0  0  0  0
  189.5210  176.3710  137.6010 C   0  0  2  0  0  3  0  0  0  0  0  0
  190.5220  176.2930  138.7650 C   0  0  1  0  0  3  0  0  0  0  0  0
  187.1170  175.5750  136.2160 N   0  0  0  0  0  2  0  0  0  0  0  0
  190.6780  176.7890  142.5520 C   0  0  0  0  0  2  0  0  0  0  0  0
  188.4340  175.1830  135.7080 C   0  0  0  0  0  2  0  0  0  0  0  0
  191.1460  176.9790  141.1190 C   0  0  0  0  0  2  0  0  0  0  0  0
  188.2610  178.4840  141.1480 C   0  0  1  0  0  3  0  0  0  0  0  0
  187.2200  176.8960  136.8360 C   0  0  0  0  0  2  0  0  0  0  0  0
  188.2540  178.1780  138.7590 C   0  0  1  0  0  3  0  0  0  0  0  0
  191.8140  176.7440  138.4050 O   0  0  0  0  0  0  0  0  0  0  0  0
  192.6290  175.6280  138.1450 C   0  0  0  0  0  2  0  0  0  0  0  0
  192.8470  176.0240  135.6890 C   0  0  0  0  0  1  0  0  0  0  0  0
  193.5940  175.9370  137.0150 C   0  0  2  0  0  3  0  0  0  0  0  0
  194.7070  174.8870  136.9730 C   0  0  1  0  0  3  0  0  0  0  0  0
  195.9430  175.4830  136.7100 O   0  0  0  0  0  1  0  0  0  0  0  0
  194.7840  174.0940  138.2720 C   0  0  0  0  0  2  0  0  0  0  0  0
  196.1090  174.3280  138.9800 C   0  0  0  0  0  2  0  0  0  0  0  0
  195.9500  175.2610  140.0060 O   0  0  0  0  0  0  0  0  0  0  0  0
  197.1860  175.2880  140.6490 C   0  0  0  0  0  1  0  0  0  0  0  0
  187.4100  177.9900  143.3160 C   0  0  0  0  0  2  0  0  0  0  0  0
  187.6420  177.2520  144.5460 N   0  0  0  0  0  2  0  0  0  0  0  0
  187.2020  178.0990  145.6450 C   0  0  1  0  0  3  0  0  0  0  0  0
  185.2740  179.1550  146.6370 O   0  0  0  0  0  1  0  0  0  0  0  0
  185.6860  178.2730  145.6360 C   0  0  0  0  0  2  0  0  0  0  0  0
  187.8250  177.5020  147.2630 S   0  0  0  0  0  0  0  0  0  0  0  0
  189.5160  177.1340  146.7030 C   0  0  0  0  0  1  0  0  0  0  0  0
  1 16  1  6  0  0  0
  1 17  1  0  0  0  0
  2  7  1  0  0  0  0
  3  9  1  0  0  0  0
  4  6  1  0  0  0  0
  4 15  1  0  0  0  0
  6 14  1  0  0  0  0
  7 15  1  0  0  0  0
  8  5  1  0  0  0  0
  8 28  1  0  0  0  0
  9  1  1  0  0  0  0
  9 10  1  0  0  0  0
 10  6  1  0  0  0  0
 11 16  1  0  0  0  0
 12  5  1  0  0  0  0
 13 11  1  0  0  0  0
 13  3  1  0  0  0  0
 14 12  1  0  0  0  0
 15  8  1  0  0  0  0
 17  2  1  0  0  0  0
 17  4  1  0  0  0  0
 18 10  1  0  0  0  0
 19 18  1  0  0  0  0
 20 21  1  0  0  0  0
 21 19  1  0  0  0  0
 22 21  1  0  0  0  0
 22 24  1  0  0  0  0
 23 22  1  0  0  0  0
 24 25  1  0  0  0  0
 25 26  1  0  0  0  0
 26 27  1  0  0  0  0
 28 29  1  0  0  0  0
 29 30  1  0  0  0  0
 30 33  1  0  0  0  0
 32 30  1  0  0  0  0
 32 31  1  0  0  0  0
 34 33  1  0  0  0  0
M  END
>  <MODEL>
2

>  <REMARK>
 VINA RESULT:      -6.6      5.541      7.899
  Name = 
  12 active torsions:
  status: ('A' for Active; 'I' for Inactive)
    1  A    between atoms: C_3  and  C_16
    2  A    between atoms: C_3  and  C_19
    3  A    between atoms: C_5  and  O_11
    4  A    between atoms: C_5  and  C_19
    5  A    between atoms: C_8  and  O_12
    6  A    between atoms: C_8  and  C_16
    7  A    between atoms: O_11  and  C_20
    8  A    between atoms: N_17  and  C_28
    9  A    between atoms: C_28  and  N_29
   10  A    between atoms: N_29  and  C_32
   11  A    between atoms: S_31  and  C_32
   12  A    between atoms: C_32  and  C_34
                            x       y       z     vdW  Elec       q    Type
                         _______ _______ _______ _____ _____    ______ ____

>  <TORSDO>
F 12

$$$$
=
 OpenBabel11122412303D

 34 37  0  0  1  0  0  0  0  0999 V2000
  188.2710  177.4160  141.6350 C   0  0  2  0  0  3  0  0  0  0  0  0
  187.6720  178.8990  139.8250 O   0  0  0  0  0  0  0  0  0  0  0  0
  188.9270  176.0060  143.5980 C   0  0  0  0  0  2  0  0  0  0  0  0
  186.2340  178.9640  141.7480 C   0  0  2  0  0  3  0  0  0  0  0  0
  183.2410  178.8360  141.4300 C   0  0  0  0  0  2  0  0  0  0  0  0
  185.7770  177.8890  142.7710 C   0  0  1  0  0  3  0  0  0  0  0  0
  186.3690  178.6060  139.4030 C   0  0  0  0  0  2  0  0  0  0  0  0
  184.1740  178.2530  140.4760 N   0  0  0  0  0  0  0  0  0  0  0  0
  188.2910  177.3190  143.1590 C   0  0  2  0  0  3  0  0  0  0  0  0
  186.8920  177.4940  143.7730 C   0  0  1  0  0  3  0  0  0  0  0  0
  190.2260  175.9500  141.5120 N   0  0  0  0  0  2  0  0  0  0  0  0
  183.2580  178.0270  142.7140 C   0  0  0  0  0  2  0  0  0  0  0  0
  190.3180  175.8930  142.9730 C   0  0  0  0  0  2  0  0  0  0  0  0
  184.5150  178.3220  143.5150 C   0  0  0  0  0  2  0  0  0  0  0  0
  185.3990  179.0690  140.4740 C   0  0  1  0  0  3  0  0  0  0  0  0
  189.7010  177.2580  141.1190 C   0  0  0  0  0  2  0  0  0  0  0  0
  187.6670  178.7620  141.2250 C   0  0  1  0  0  3  0  0  0  0  0  0
  186.9120  178.2490  144.9710 O   0  0  0  0  0  0  0  0  0  0  0  0
  186.7450  177.3760  146.0600 C   0  0  0  0  0  2  0  0  0  0  0  0
  186.4020  179.5140  147.3050 C   0  0  0  0  0  1  0  0  0  0  0  0
  186.9980  178.1130  147.3630 C   0  0  2  0  0  3  0  0  0  0  0  0
  188.4980  178.1450  147.6650 C   0  0  1  0  0  3  0  0  0  0  0  0
  188.7270  178.3590  149.0270 O   0  0  0  0  0  1  0  0  0  0  0  0
  189.1910  176.8610  147.2240 C   0  0  0  0  0  2  0  0  0  0  0  0
  190.5660  177.1510  146.6440 C   0  0  0  0  0  2  0  0  0  0  0  0
  191.5450  177.0070  147.6290 O   0  0  0  0  0  0  0  0  0  0  0  0
  192.0350  175.7150  147.4490 C   0  0  0  0  0  1  0  0  0  0  0  0
  183.5220  178.3870  139.1770 C   0  0  0  0  0  2  0  0  0  0  0  0
  182.8860  177.1300  138.8190 N   0  0  0  0  0  2  0  0  0  0  0  0
  183.5890  176.6110  137.6540 C   0  0  1  0  0  3  0  0  0  0  0  0
  185.0440  174.7090  137.3680 O   0  0  0  0  0  1  0  0  0  0  0  0
  183.7550  175.0970  137.7390 C   0  0  0  0  0  2  0  0  0  0  0  0
  182.7990  177.1380  136.0860 S   0  0  0  0  0  0  0  0  0  0  0  0
  181.0810  176.9620  136.6580 C   0  0  0  0  0  1  0  0  0  0  0  0
  1 16  1  1  0  0  0
  1  9  1  0  0  0  0
  2 17  1  0  0  0  0
  4  6  1  0  0  0  0
  5 12  1  0  0  0  0
  6 14  1  0  0  0  0
  6 10  1  0  0  0  0
  7  2  1  0  0  0  0
  7 15  1  0  0  0  0
  8  5  1  0  0  0  0
  9  3  1  0  0  0  0
  9 10  1  0  0  0  0
 10 18  1  0  0  0  0
 11 13  1  0  0  0  0
 12 14  1  0  0  0  0
 13  3  1  0  0  0  0
 15  8  1  0  0  0  0
 15  4  1  0  0  0  0
 16 11  1  0  0  0  0
 17  1  1  0  0  0  0
 17  4  1  0  0  0  0
 18 19  1  0  0  0  0
 19 21  1  0  0  0  0
 20 21  1  0  0  0  0
 21 22  1  0  0  0  0
 22 23  1  0  0  0  0
 24 22  1  0  0  0  0
 25 24  1  0  0  0  0
 25 26  1  0  0  0  0
 27 26  1  0  0  0  0
 28  8  1  0  0  0  0
 29 28  1  0  0  0  0
 30 32  1  0  0  0  0
 30 29  1  0  0  0  0
 31 32  1  0  0  0  0
 33 34  1  0  0  0  0
 33 30  1  0  0  0  0
M  END
>  <MODEL>
3

>  <REMARK>
 VINA RESULT:      -6.5      3.264      8.971
  Name = 
  12 active torsions:
  status: ('A' for Active; 'I' for Inactive)
    1  A    between atoms: C_3  and  C_16
    2  A    between atoms: C_3  and  C_19
    3  A    between atoms: C_5  and  O_11
    4  A    between atoms: C_5  and  C_19
    5  A    between atoms: C_8  and  O_12
    6  A    between atoms: C_8  and  C_16
    7  A    between atoms: O_11  and  C_20
    8  A    between atoms: N_17  and  C_28
    9  A    between atoms: C_28  and  N_29
   10  A    between atoms: N_29  and  C_32
   11  A    between atoms: S_31  and  C_32
   12  A    between atoms: C_32  and  C_34
                            x       y       z     vdW  Elec       q    Type
                         _______ _______ _______ _____ _____    ______ ____

>  <TORSDO>
F 12

$$$$
=
 OpenBabel11122412303D

 34 37  0  0  1  0  0  0  0  0999 V2000
  187.9920  176.8750  137.8210 C   0  0  2  0  0  3  0  0  0  0  0  0
  186.8680  178.6520  139.0090 O   0  0  0  0  0  0  0  0  0  0  0  0
  189.2580  175.1400  136.5320 C   0  0  0  0  0  2  0  0  0  0  0  0
  189.0880  178.1310  139.7660 C   0  0  2  0  0  3  0  0  0  0  0  0
  189.6600  177.7570  142.6990 C   0  0  0  0  0  2  0  0  0  0  0  0
  189.9030  176.8120  139.8400 C   0  0  1  0  0  3  0  0  0  0  0  0
  186.7970  178.3220  140.3690 C   0  0  0  0  0  2  0  0  0  0  0  0
  188.3570  177.5060  142.0990 N   0  0  0  0  0  0  0  0  0  0  0  0
  189.3670  176.4420  137.3160 C   0  0  2  0  0  3  0  0  0  0  0  0
  190.3960  176.3250  138.4530 C   0  0  1  0  0  3  0  0  0  0  0  0
  186.9320  175.6910  135.9600 N   0  0  0  0  0  2  0  0  0  0  0  0
  190.6390  176.6890  142.2510 C   0  0  0  0  0  2  0  0  0  0  0  0
  188.2370  175.3200  135.4090 C   0  0  0  0  0  2  0  0  0  0  0  0
  191.0730  176.9290  140.8150 C   0  0  0  0  0  2  0  0  0  0  0  0
  188.1890  178.4280  140.9640 C   0  0  1  0  0  3  0  0  0  0  0  0
  187.0490  176.9900  136.6240 C   0  0  0  0  0  2  0  0  0  0  0  0
  188.1260  178.2050  138.5660 C   0  0  1  0  0  3  0  0  0  0  0  0
  191.6790  176.7900  138.0800 O   0  0  0  0  0  0  0  0  0  0  0  0
  192.5230  175.6840  137.8800 C   0  0  0  0  0  2  0  0  0  0  0  0
  192.8550  175.9960  135.4250 C   0  0  0  0  0  1  0  0  0  0  0  0
  193.5340  175.9880  136.7890 C   0  0  2  0  0  3  0  0  0  0  0  0
  194.6850  174.9810  136.8460 C   0  0  1  0  0  3  0  0  0  0  0  0
  195.9140  175.6180  136.6520 O   0  0  0  0  0  1  0  0  0  0  0  0
  194.7040  174.2170  138.1640 C   0  0  0  0  0  2  0  0  0  0  0  0
  196.0290  174.4010  138.8860 C   0  0  0  0  0  2  0  0  0  0  0  0
  195.8660  175.2430  139.9870 O   0  0  0  0  0  0  0  0  0  0  0  0
  197.1090  175.2400  140.6180 C   0  0  0  0  0  1  0  0  0  0  0  0
  187.3880  177.8560  143.1320 C   0  0  0  0  0  2  0  0  0  0  0  0
  187.3150  176.7870  144.1140 N   0  0  0  0  0  2  0  0  0  0  0  0
  186.9980  177.4020  145.3950 C   0  0  1  0  0  3  0  0  0  0  0  0
  189.2630  176.8710  146.0270 O   0  0  0  0  0  1  0  0  0  0  0  0
  188.2620  177.8390  146.1270 C   0  0  0  0  0  2  0  0  0  0  0  0
  185.7880  178.7680  145.2180 S   0  0  0  0  0  0  0  0  0  0  0  0
  184.8110  178.3630  146.6990 C   0  0  0  0  0  1  0  0  0  0  0  0
  1 16  1  6  0  0  0
  1 17  1  0  0  0  0
  2  7  1  0  0  0  0
  3  9  1  0  0  0  0
  4  6  1  0  0  0  0
  4 15  1  0  0  0  0
  6 14  1  0  0  0  0
  7 15  1  0  0  0  0
  8  5  1  0  0  0  0
  8 28  1  0  0  0  0
  9  1  1  0  0  0  0
  9 10  1  0  0  0  0
 10  6  1  0  0  0  0
 11 16  1  0  0  0  0
 12  5  1  0  0  0  0
 13 11  1  0  0  0  0
 13  3  1  0  0  0  0
 14 12  1  0  0  0  0
 15  8  1  0  0  0  0
 17  2  1  0  0  0  0
 17  4  1  0  0  0  0
 18 10  1  0  0  0  0
 19 18  1  0  0  0  0
 20 21  1  0  0  0  0
 21 22  1  0  0  0  0
 21 19  1  0  0  0  0
 22 24  1  0  0  0  0
 23 22  1  0  0  0  0
 24 25  1  0  0  0  0
 25 26  1  0  0  0  0
 26 27  1  0  0  0  0
 28 29  1  0  0  0  0
 29 30  1  0  0  0  0
 30 32  1  0  0  0  0
 31 32  1  0  0  0  0
 33 30  1  0  0  0  0
 33 34  1  0  0  0  0
M  END
>  <MODEL>
4

>  <REMARK>
 VINA RESULT:      -6.4      5.638      7.994
  Name = 
  12 active torsions:
  status: ('A' for Active; 'I' for Inactive)
    1  A    between atoms: C_3  and  C_16
    2  A    between atoms: C_3  and  C_19
    3  A    between atoms: C_5  and  O_11
    4  A    between atoms: C_5  and  C_19
    5  A    between atoms: C_8  and  O_12
    6  A    between atoms: C_8  and  C_16
    7  A    between atoms: O_11  and  C_20
    8  A    between atoms: N_17  and  C_28
    9  A    between atoms: C_28  and  N_29
   10  A    between atoms: N_29  and  C_32
   11  A    between atoms: S_31  and  C_32
   12  A    between atoms: C_32  and  C_34
                            x       y       z     vdW  Elec       q    Type
                         _______ _______ _______ _____ _____    ______ ____

>  <TORSDO>
F 12

$$$$
=
 OpenBabel11122412303D

 34 37  0  0  1  0  0  0  0  0999 V2000
  187.9340  177.5120  141.8700 C   0  0  2  0  0  3  0  0  0  0  0  0
  186.8980  178.9210  140.2040 O   0  0  0  0  0  0  0  0  0  0  0  0
  189.0650  176.1830  143.6660 C   0  0  0  0  0  2  0  0  0  0  0  0
  186.0000  179.0970  142.4250 C   0  0  2  0  0  3  0  0  0  0  0  0
  183.0250  179.0020  142.8890 C   0  0  0  0  0  2  0  0  0  0  0  0
  185.8160  178.0770  143.5820 C   0  0  1  0  0  3  0  0  0  0  0  0
  185.5290  178.6300  140.1430 C   0  0  0  0  0  2  0  0  0  0  0  0
  183.6800  178.3620  141.7570 N   0  0  0  0  0  0  0  0  0  0  0  0
  188.3430  177.4840  143.3420 C   0  0  2  0  0  3  0  0  0  0  0  0
  187.1490  177.7100  144.2830 C   0  0  1  0  0  3  0  0  0  0  0  0
  189.7860  176.0100  141.3220 N   0  0  0  0  0  2  0  0  0  0  0  0
  183.3670  178.2530  144.1630 C   0  0  0  0  0  2  0  0  0  0  0  0
  190.2490  176.0190  142.7120 C   0  0  0  0  0  2  0  0  0  0  0  0
  184.7880  178.5630  144.6010 C   0  0  0  0  0  2  0  0  0  0  0  0
  184.8670  179.1570  141.4030 C   0  0  1  0  0  3  0  0  0  0  0  0
  189.1830  177.3080  141.0140 C   0  0  0  0  0  2  0  0  0  0  0  0
  187.2510  178.8480  141.5640 C   0  0  1  0  0  3  0  0  0  0  0  0
  187.4770  178.5180  145.3980 O   0  0  0  0  0  0  0  0  0  0  0  0
  187.0430  177.8740  146.5700 C   0  0  0  0  0  2  0  0  0  0  0  0
  187.7290  176.4090  148.4720 C   0  0  0  0  0  1  0  0  0  0  0  0
  188.1700  177.0470  147.1600 C   0  0  2  0  0  3  0  0  0  0  0  0
  189.4180  177.9140  147.3410 C   0  0  1  0  0  3  0  0  0  0  0  0
  189.2710  178.7770  148.4300 O   0  0  0  0  0  1  0  0  0  0  0  0
  190.6730  177.0680  147.5210 C   0  0  0  0  0  2  0  0  0  0  0  0
  191.3260  176.7620  146.1830 C   0  0  0  0  0  2  0  0  0  0  0  0
  192.3930  175.8800  146.3560 O   0  0  0  0  0  0  0  0  0  0  0  0
  192.4180  175.6260  147.7260 C   0  0  0  0  0  1  0  0  0  0  0  0
  182.7190  178.4470  140.6630 C   0  0  0  0  0  2  0  0  0  0  0  0
  181.5800  177.5900  140.9470 N   0  0  0  0  0  2  0  0  0  0  0  0
  180.4040  178.2370  140.3840 C   0  0  1  0  0  3  0  0  0  0  0  0
  179.3280  177.6330  142.4560 O   0  0  0  0  0  1  0  0  0  0  0  0
  179.4080  178.6220  141.4740 C   0  0  0  0  0  2  0  0  0  0  0  0
  180.8500  179.6590  139.3150 S   0  0  0  0  0  0  0  0  0  0  0  0
  179.8650  180.8990  140.2110 C   0  0  0  0  0  1  0  0  0  0  0  0
  1 16  1  6  0  0  0
  1  9  1  0  0  0  0
  2 17  1  0  0  0  0
  4  6  1  0  0  0  0
  5 12  1  0  0  0  0
  6 10  1  0  0  0  0
  6 14  1  0  0  0  0
  7  2  1  0  0  0  0
  7 15  1  0  0  0  0
  8  5  1  0  0  0  0
  9  3  1  0  0  0  0
  9 10  1  0  0  0  0
 10 18  1  0  0  0  0
 11 13  1  0  0  0  0
 12 14  1  0  0  0  0
 13  3  1  0  0  0  0
 15  8  1  0  0  0  0
 15  4  1  0  0  0  0
 16 11  1  0  0  0  0
 17  1  1  0  0  0  0
 17  4  1  0  0  0  0
 18 19  1  0  0  0  0
 19 21  1  0  0  0  0
 21 22  1  0  0  0  0
 21 20  1  0  0  0  0
 22 24  1  0  0  0  0
 22 23  1  0  0  0  0
 25 26  1  0  0  0  0
 25 24  1  0  0  0  0
 26 27  1  0  0  0  0
 28 29  1  0  0  0  0
 28  8  1  0  0  0  0
 30 29  1  0  0  0  0
 30 32  1  0  0  0  0
 32 31  1  0  0  0  0
 33 34  1  0  0  0  0
 33 30  1  0  0  0  0
M  END
>  <MODEL>
5

>  <REMARK>
 VINA RESULT:      -6.1      3.539      8.845
  Name = 
  12 active torsions:
  status: ('A' for Active; 'I' for Inactive)
    1  A    between atoms: C_3  and  C_16
    2  A    between atoms: C_3  and  C_19
    3  A    between atoms: C_5  and  O_11
    4  A    between atoms: C_5  and  C_19
    5  A    between atoms: C_8  and  O_12
    6  A    between atoms: C_8  and  C_16
    7  A    between atoms: O_11  and  C_20
    8  A    between atoms: N_17  and  C_28
    9  A    between atoms: C_28  and  N_29
   10  A    between atoms: N_29  and  C_32
   11  A    between atoms: S_31  and  C_32
   12  A    between atoms: C_32  and  C_34
                            x       y       z     vdW  Elec       q    Type
                         _______ _______ _______ _____ _____    ______ ____

>  <TORSDO>
F 12

$$$$
=
 OpenBabel11122412303D

 34 37  0  0  1  0  0  0  0  0999 V2000
  188.5090  176.6240  137.2400 C   0  0  2  0  0  3  0  0  0  0  0  0
  189.8780  174.9390  136.1800 O   0  0  0  0  0  0  0  0  0  0  0  0
  187.0510  178.2620  138.4470 C   0  0  0  0  0  2  0  0  0  0  0  0
  190.6260  175.6870  138.3370 C   0  0  2  0  0  3  0  0  0  0  0  0
  193.5050  176.4530  138.7800 C   0  0  0  0  0  2  0  0  0  0  0  0
  190.5590  177.0540  139.0700 C   0  0  1  0  0  3  0  0  0  0  0  0
  191.1840  175.4270  136.0410 C   0  0  0  0  0  2  0  0  0  0  0  0
  192.8410  176.5470  137.4880 N   0  0  0  0  0  0  0  0  0  0  0  0
  187.9940  177.0770  138.6040 C   0  0  2  0  0  3  0  0  0  0  0  0
  189.1360  177.3970  139.5830 C   0  0  1  0  0  3  0  0  0  0  0  0
  186.4870  177.5010  136.1800 N   0  0  0  0  0  2  0  0  0  0  0  0
  192.9550  177.5180  139.7110 C   0  0  0  0  0  2  0  0  0  0  0  0
  185.9300  177.8830  137.4800 C   0  0  0  0  0  2  0  0  0  0  0  0
  191.5730  177.1300  140.2090 C   0  0  0  0  0  2  0  0  0  0  0  0
  191.8260  175.4840  137.4150 C   0  0  1  0  0  3  0  0  0  0  0  0
  187.3100  176.3030  136.3480 C   0  0  0  0  0  2  0  0  0  0  0  0
  189.4180  175.4050  137.4250 C   0  0  1  0  0  3  0  0  0  0  0  0
  188.8600  176.9700  140.9040 O   0  0  0  0  0  0  0  0  0  0  0  0
  188.4320  178.0760  141.6580 C   0  0  0  0  0  2  0  0  0  0  0  0
  186.0370  178.5750  142.1590 C   0  0  0  0  0  1  0  0  0  0  0  0
  187.2330  177.6970  142.5080 C   0  0  2  0  0  3  0  0  0  0  0  0
  187.5920  177.7880  143.9930 C   0  0  1  0  0  3  0  0  0  0  0  0
  186.5240  177.3680  144.7900 O   0  0  0  0  0  1  0  0  0  0  0  0
  188.8340  176.9700  144.3250 C   0  0  0  0  0  2  0  0  0  0  0  0
  189.8600  177.8080  145.0700 C   0  0  0  0  0  2  0  0  0  0  0  0
  191.0990  177.7370  144.4300 O   0  0  0  0  0  0  0  0  0  0  0  0
  191.3070  179.0190  143.9270 C   0  0  0  0  0  1  0  0  0  0  0  0
  193.8820  176.2660  136.5050 C   0  0  0  0  0  2  0  0  0  0  0  0
  195.0310  175.6700  137.1680 N   0  0  0  0  0  2  0  0  0  0  0  0
  195.6050  174.7020  136.2450 C   0  0  1  0  0  3  0  0  0  0  0  0
  197.5220  176.1620  136.1530 O   0  0  0  0  0  1  0  0  0  0  0  0
  197.1250  174.8240  136.1900 C   0  0  0  0  0  2  0  0  0  0  0  0
  195.0580  172.9920  136.6180 S   0  0  0  0  0  0  0  0  0  0  0  0
  195.1950  173.1280  138.4270 C   0  0  0  0  0  1  0  0  0  0  0  0
  1 16  1  6  0  0  0
  1 17  1  0  0  0  0
  1  9  1  0  0  0  0
  2 17  1  0  0  0  0
  3  9  1  0  0  0  0
  4  6  1  0  0  0  0
  5 12  1  0  0  0  0
  6 10  1  0  0  0  0
  6 14  1  0  0  0  0
  7  2  1  0  0  0  0
  7 15  1  0  0  0  0
  8  5  1  0  0  0  0
  9 10  1  0  0  0  0
 10 18  1  0  0  0  0
 11 16  1  0  0  0  0
 11 13  1  0  0  0  0
 12 14  1  0  0  0  0
 13  3  1  0  0  0  0
 15  8  1  0  0  0  0
 15  4  1  0  0  0  0
 17  4  1  0  0  0  0
 18 19  1  0  0  0  0
 19 21  1  0  0  0  0
 20 21  1  0  0  0  0
 21 22  1  0  0  0  0
 22 24  1  0  0  0  0
 22 23  1  0  0  0  0
 24 25  1  0  0  0  0
 26 25  1  0  0  0  0
 27 26  1  0  0  0  0
 28 29  1  0  0  0  0
 28  8  1  0  0  0  0
 30 33  1  0  0  0  0
 30 29  1  0  0  0  0
 31 32  1  0  0  0  0
 32 30  1  0  0  0  0
 33 34  1  0  0  0  0
M  END
>  <MODEL>
6

>  <REMARK>
 VINA RESULT:      -6.0      6.386      9.416
  Name = 
  12 active torsions:
  status: ('A' for Active; 'I' for Inactive)
    1  A    between atoms: C_3  and  C_16
    2  A    between atoms: C_3  and  C_19
    3  A    between atoms: C_5  and  O_11
    4  A    between atoms: C_5  and  C_19
    5  A    between atoms: C_8  and  O_12
    6  A    between atoms: C_8  and  C_16
    7  A    between atoms: O_11  and  C_20
    8  A    between atoms: N_17  and  C_28
    9  A    between atoms: C_28  and  N_29
   10  A    between atoms: N_29  and  C_32
   11  A    between atoms: S_31  and  C_32
   12  A    between atoms: C_32  and  C_34
                            x       y       z     vdW  Elec       q    Type
                         _______ _______ _______ _____ _____    ______ ____

>  <TORSDO>
F 12

$$$$
=
 OpenBabel11122412303D

 34 37  0  0  1  0  0  0  0  0999 V2000
  188.5290  176.6070  137.3240 C   0  0  2  0  0  3  0  0  0  0  0  0
  189.8730  174.8550  136.3460 O   0  0  0  0  0  0  0  0  0  0  0  0
  187.0940  178.3220  138.4520 C   0  0  0  0  0  2  0  0  0  0  0  0
  190.6220  175.6800  138.4740 C   0  0  2  0  0  3  0  0  0  0  0  0
  193.5120  176.4120  138.9040 C   0  0  0  0  0  2  0  0  0  0  0  0
  190.5750  177.0770  139.1490 C   0  0  1  0  0  3  0  0  0  0  0  0
  191.1880  175.3140  136.1950 C   0  0  0  0  0  2  0  0  0  0  0  0
  192.8580  176.4630  137.6040 N   0  0  0  0  0  0  0  0  0  0  0  0
  188.0140  177.1270  138.6650 C   0  0  2  0  0  3  0  0  0  0  0  0
  189.1570  177.4670  139.6370 C   0  0  1  0  0  3  0  0  0  0  0  0
  186.5290  177.4750  136.2150 N   0  0  0  0  0  2  0  0  0  0  0  0
  192.9760  177.5250  139.7860 C   0  0  0  0  0  2  0  0  0  0  0  0
  185.9730  177.9220  137.4940 C   0  0  0  0  0  2  0  0  0  0  0  0
  191.5850  177.1830  140.2910 C   0  0  0  0  0  2  0  0  0  0  0  0
  191.8230  175.4160  137.5690 C   0  0  1  0  0  3  0  0  0  0  0  0
  187.3300  176.2710  136.4390 C   0  0  0  0  0  2  0  0  0  0  0  0
  189.4150  175.3820  137.5670 C   0  0  1  0  0  3  0  0  0  0  0  0
  188.8650  177.1020  140.9730 O   0  0  0  0  0  0  0  0  0  0  0  0
  188.5250  178.2580  141.6960 C   0  0  0  0  0  2  0  0  0  0  0  0
  187.9340  176.3680  143.2180 C   0  0  0  0  0  1  0  0  0  0  0  0
  187.8860  177.8780  143.0200 C   0  0  2  0  0  3  0  0  0  0  0  0
  186.4550  178.4150  143.0850 C   0  0  1  0  0  3  0  0  0  0  0  0
  185.6740  177.8780  142.0580 O   0  0  0  0  0  1  0  0  0  0  0  0
  185.8030  178.1250  144.4310 C   0  0  0  0  0  2  0  0  0  0  0  0
  184.5810  179.0040  144.6510 C   0  0  0  0  0  2  0  0  0  0  0  0
  184.1890  178.9590  145.9890 O   0  0  0  0  0  0  0  0  0  0  0  0
  185.3510  178.6280  146.6840 C   0  0  0  0  0  1  0  0  0  0  0  0
  193.8990  176.1220  136.6410 C   0  0  0  0  0  2  0  0  0  0  0  0
  195.0210  175.5080  137.3330 N   0  0  0  0  0  2  0  0  0  0  0  0
  195.7120  174.6650  136.3680 C   0  0  1  0  0  3  0  0  0  0  0  0
  197.5720  176.1750  136.0930 O   0  0  0  0  0  1  0  0  0  0  0  0
  197.2220  174.8680  136.4370 C   0  0  0  0  0  2  0  0  0  0  0  0
  195.2380  172.9020  136.5340 S   0  0  0  0  0  0  0  0  0  0  0  0
  195.0560  172.9140  138.3440 C   0  0  0  0  0  1  0  0  0  0  0  0
  1 16  1  6  0  0  0
  1 17  1  0  0  0  0
  1  9  1  0  0  0  0
  2 17  1  0  0  0  0
  3  9  1  0  0  0  0
  4  6  1  0  0  0  0
  5 12  1  0  0  0  0
  6 10  1  0  0  0  0
  6 14  1  0  0  0  0
  7  2  1  0  0  0  0
  7 15  1  0  0  0  0
  8  5  1  0  0  0  0
  9 10  1  0  0  0  0
 10 18  1  0  0  0  0
 11 16  1  0  0  0  0
 11 13  1  0  0  0  0
 12 14  1  0  0  0  0
 13  3  1  0  0  0  0
 15  8  1  0  0  0  0
 15  4  1  0  0  0  0
 17  4  1  0  0  0  0
 18 19  1  0  0  0  0
 19 21  1  0  0  0  0
 21 22  1  0  0  0  0
 21 20  1  0  0  0  0
 22 24  1  0  0  0  0
 23 22  1  0  0  0  0
 24 25  1  0  0  0  0
 25 26  1  0  0  0  0
 26 27  1  0  0  0  0
 28 29  1  0  0  0  0
 28  8  1  0  0  0  0
 30 32  1  0  0  0  0
 30 33  1  0  0  0  0
 30 29  1  0  0  0  0
 31 32  1  0  0  0  0
 33 34  1  0  0  0  0
M  END
>  <MODEL>
7

>  <REMARK>
 VINA RESULT:      -5.9      6.280      9.250
  Name = 
  12 active torsions:
  status: ('A' for Active; 'I' for Inactive)
    1  A    between atoms: C_3  and  C_16
    2  A    between atoms: C_3  and  C_19
    3  A    between atoms: C_5  and  O_11
    4  A    between atoms: C_5  and  C_19
    5  A    between atoms: C_8  and  O_12
    6  A    between atoms: C_8  and  C_16
    7  A    between atoms: O_11  and  C_20
    8  A    between atoms: N_17  and  C_28
    9  A    between atoms: C_28  and  N_29
   10  A    between atoms: N_29  and  C_32
   11  A    between atoms: S_31  and  C_32
   12  A    between atoms: C_32  and  C_34
                            x       y       z     vdW  Elec       q    Type
                         _______ _______ _______ _____ _____    ______ ____

>  <TORSDO>
F 12

$$$$
=
 OpenBabel11122412303D

 34 37  0  0  1  0  0  0  0  0999 V2000
  190.1750  176.9010  141.2530 C   0  0  2  0  0  3  0  0  0  0  0  0
  192.0030  177.1000  139.6860 O   0  0  0  0  0  0  0  0  0  0  0  0
  188.2760  176.8530  142.8840 C   0  0  0  0  0  2  0  0  0  0  0  0
  189.8590  177.8390  138.8900 C   0  0  2  0  0  3  0  0  0  0  0  0
  188.8370  176.9600  136.1970 C   0  0  0  0  0  2  0  0  0  0  0  0
  188.4050  177.3660  139.1590 C   0  0  1  0  0  3  0  0  0  0  0  0
  191.6960  176.3750  138.5280 C   0  0  0  0  0  2  0  0  0  0  0  0
  189.7720  176.1770  136.9930 N   0  0  0  0  0  0  0  0  0  0  0  0
  188.8950  177.5990  141.7090 C   0  0  2  0  0  3  0  0  0  0  0  0
  187.8860  177.7720  140.5620 C   0  0  1  0  0  3  0  0  0  0  0  0
  190.4980  176.0100  143.5090 N   0  0  0  0  0  2  0  0  0  0  0  0
  187.4700  176.9390  136.8550 C   0  0  0  0  0  2  0  0  0  0  0  0
  189.3160  176.7240  143.9960 C   0  0  0  0  0  2  0  0  0  0  0  0
  187.4480  177.8490  138.0710 C   0  0  0  0  0  2  0  0  0  0  0  0
  190.6020  177.1090  137.7740 C   0  0  1  0  0  3  0  0  0  0  0  0
  191.1250  176.7980  142.4460 C   0  0  0  0  0  2  0  0  0  0  0  0
  190.7980  177.6960  140.1020 C   0  0  1  0  0  3  0  0  0  0  0  0
  187.2120  179.0160  140.6110 O   0  0  0  0  0  0  0  0  0  0  0  0
  186.4250  179.0610  141.7740 C   0  0  0  0  0  2  0  0  0  0  0  0
  184.5500  179.0190  140.1240 C   0  0  0  0  0  1  0  0  0  0  0  0
  185.0320  178.5300  141.4840 C   0  0  2  0  0  3  0  0  0  0  0  0
  184.0730  178.9330  142.6060 C   0  0  1  0  0  3  0  0  0  0  0  0
  182.7550  178.6020  142.2770 O   0  0  0  0  0  1  0  0  0  0  0  0
  184.4500  178.2840  143.9330 C   0  0  0  0  0  2  0  0  0  0  0  0
  184.0120  179.1430  145.1080 C   0  0  0  0  0  2  0  0  0  0  0  0
  184.8490  178.9240  146.2040 O   0  0  0  0  0  0  0  0  0  0  0  0
  186.0540  178.5010  145.6450 C   0  0  0  0  0  1  0  0  0  0  0  0
  190.6220  175.4970  136.0220 C   0  0  0  0  0  2  0  0  0  0  0  0
  189.8540  175.2050  134.8230 N   0  0  0  0  0  2  0  0  0  0  0  0
  189.7330  173.7560  134.7330 C   0  0  1  0  0  3  0  0  0  0  0  0
  191.3010  171.9440  135.0050 O   0  0  0  0  0  1  0  0  0  0  0  0
  190.7460  173.0600  135.6360 C   0  0  0  0  0  2  0  0  0  0  0  0
  188.0170  173.1910  135.0440 S   0  0  0  0  0  0  0  0  0  0  0  0
  188.2640  172.7570  136.7940 C   0  0  0  0  0  1  0  0  0  0  0  0
  1  9  1  0  0  0  0
  1 16  1  1  0  0  0
  2 17  1  0  0  0  0
  3 13  1  0  0  0  0
  4  6  1  0  0  0  0
  4 17  1  0  0  0  0
  5 12  1  0  0  0  0
  5  8  1  0  0  0  0
  6 10  1  0  0  0  0
  7  2  1  0  0  0  0
  8 15  1  0  0  0  0
  9  3  1  0  0  0  0
 10 18  1  0  0  0  0
 10  9  1  0  0  0  0
 11 13  1  0  0  0  0
 12 14  1  0  0  0  0
 14  6  1  0  0  0  0
 15  7  1  0  0  0  0
 15  4  1  0  0  0  0
 16 11  1  0  0  0  0
 17  1  1  0  0  0  0
 18 19  1  0  0  0  0
 20 21  1  0  0  0  0
 21 19  1  0  0  0  0
 21 22  1  0  0  0  0
 22 24  1  0  0  0  0
 23 22  1  0  0  0  0
 24 25  1  0  0  0  0
 25 26  1  0  0  0  0
 27 26  1  0  0  0  0
 28  8  1  0  0  0  0
 29 28  1  0  0  0  0
 30 29  1  0  0  0  0
 30 33  1  0  0  0  0
 30 32  1  0  0  0  0
 31 32  1  0  0  0  0
 33 34  1  0  0  0  0
M  END
>  <MODEL>
8

>  <REMARK>
 VINA RESULT:      -5.9      4.766      8.757
  Name = 
  12 active torsions:
  status: ('A' for Active; 'I' for Inactive)
    1  A    between atoms: C_3  and  C_16
    2  A    between atoms: C_3  and  C_19
    3  A    between atoms: C_5  and  O_11
    4  A    between atoms: C_5  and  C_19
    5  A    between atoms: C_8  and  O_12
    6  A    between atoms: C_8  and  C_16
    7  A    between atoms: O_11  and  C_20
    8  A    between atoms: N_17  and  C_28
    9  A    between atoms: C_28  and  N_29
   10  A    between atoms: N_29  and  C_32
   11  A    between atoms: S_31  and  C_32
   12  A    between atoms: C_32  and  C_34
                            x       y       z     vdW  Elec       q    Type
                         _______ _______ _______ _____ _____    ______ ____

>  <TORSDO>
F 12

$$$$
=
 OpenBabel11122412303D

 34 37  0  0  1  0  0  0  0  0999 V2000
  190.5480  177.1810  141.7240 C   0  0  2  0  0  3  0  0  0  0  0  0
  192.3970  177.2630  140.1740 O   0  0  0  0  0  0  0  0  0  0  0  0
  188.6140  177.2520  143.3140 C   0  0  0  0  0  2  0  0  0  0  0  0
  190.2320  177.7260  139.2410 C   0  0  2  0  0  3  0  0  0  0  0  0
  189.3370  176.3820  136.6990 C   0  0  0  0  0  2  0  0  0  0  0  0
  188.8050  177.2030  139.5570 C   0  0  1  0  0  3  0  0  0  0  0  0
  192.1670  176.3510  139.1350 C   0  0  0  0  0  2  0  0  0  0  0  0
  190.3000  175.7940  137.6200 N   0  0  0  0  0  0  0  0  0  0  0  0
  189.2140  177.8510  142.0480 C   0  0  2  0  0  3  0  0  0  0  0  0
  188.2250  177.7810  140.8730 C   0  0  1  0  0  3  0  0  0  0  0  0
  190.8690  176.6660  144.0940 N   0  0  0  0  0  2  0  0  0  0  0  0
  187.9580  176.3690  137.3310 C   0  0  0  0  0  2  0  0  0  0  0  0
  189.6320  177.3640  144.4490 C   0  0  0  0  0  2  0  0  0  0  0  0
  187.8460  177.4490  138.3930 C   0  0  0  0  0  2  0  0  0  0  0  0
  191.0480  176.8870  138.2610 C   0  0  1  0  0  3  0  0  0  0  0  0
  191.4710  177.3240  142.9330 C   0  0  0  0  0  2  0  0  0  0  0  0
  191.1470  177.8320  140.4750 C   0  0  1  0  0  3  0  0  0  0  0  0
  187.4720  178.9690  140.7210 O   0  0  0  0  0  0  0  0  0  0  0  0
  186.4770  179.0070  141.7130 C   0  0  0  0  0  2  0  0  0  0  0  0
  184.9100  179.3080  139.7920 C   0  0  0  0  0  1  0  0  0  0  0  0
  185.1360  178.6060  141.1260 C   0  0  2  0  0  3  0  0  0  0  0  0
  184.0150  178.9070  142.1240 C   0  0  1  0  0  3  0  0  0  0  0  0
  182.8780  178.1450  141.8390 O   0  0  0  0  0  1  0  0  0  0  0  0
  184.4550  178.6560  143.5610 C   0  0  0  0  0  2  0  0  0  0  0  0
  183.4540  179.2290  144.5500 C   0  0  0  0  0  2  0  0  0  0  0  0
  183.8740  178.9860  145.8580 O   0  0  0  0  0  0  0  0  0  0  0  0
  185.2660  179.0040  145.7880 C   0  0  0  0  0  1  0  0  0  0  0  0
  191.2160  175.0330  136.7770 C   0  0  0  0  0  2  0  0  0  0  0  0
  191.8020  175.9110  135.7780 N   0  0  0  0  0  2  0  0  0  0  0  0
  192.9640  175.2250  135.2320 C   0  0  1  0  0  3  0  0  0  0  0  0
  194.3270  176.7770  136.4760 O   0  0  0  0  0  1  0  0  0  0  0  0
  194.1970  176.1240  135.2490 C   0  0  0  0  0  2  0  0  0  0  0  0
  193.2640  173.6170  136.0620 S   0  0  0  0  0  0  0  0  0  0  0  0
  194.6080  173.0730  134.9640 C   0  0  0  0  0  1  0  0  0  0  0  0
  1  9  1  0  0  0  0
  1 16  1  1  0  0  0
  2 17  1  0  0  0  0
  3 13  1  0  0  0  0
  4  6  1  0  0  0  0
  4 17  1  0  0  0  0
  5 12  1  0  0  0  0
  5  8  1  0  0  0  0
  6 10  1  0  0  0  0
  7  2  1  0  0  0  0
  8 15  1  0  0  0  0
  9  3  1  0  0  0  0
 10  9  1  0  0  0  0
 11 13  1  0  0  0  0
 12 14  1  0  0  0  0
 14  6  1  0  0  0  0
 15  7  1  0  0  0  0
 15  4  1  0  0  0  0
 16 11  1  0  0  0  0
 17  1  1  0  0  0  0
 18 10  1  0  0  0  0
 18 19  1  0  0  0  0
 20 21  1  0  0  0  0
 21 19  1  0  0  0  0
 21 22  1  0  0  0  0
 22 24  1  0  0  0  0
 23 22  1  0  0  0  0
 24 25  1  0  0  0  0
 25 26  1  0  0  0  0
 27 26  1  0  0  0  0
 28  8  1  0  0  0  0
 29 28  1  0  0  0  0
 30 32  1  0  0  0  0
 30 29  1  0  0  0  0
 30 33  1  0  0  0  0
 32 31  1  0  0  0  0
 34 33  1  0  0  0  0
M  END
>  <MODEL>
9

>  <REMARK>
 VINA RESULT:      -5.9      5.356      8.686
  Name = 
  12 active torsions:
  status: ('A' for Active; 'I' for Inactive)
    1  A    between atoms: C_3  and  C_16
    2  A    between atoms: C_3  and  C_19
    3  A    between atoms: C_5  and  O_11
    4  A    between atoms: C_5  and  C_19
    5  A    between atoms: C_8  and  O_12
    6  A    between atoms: C_8  and  C_16
    7  A    between atoms: O_11  and  C_20
    8  A    between atoms: N_17  and  C_28
    9  A    between atoms: C_28  and  N_29
   10  A    between atoms: N_29  and  C_32
   11  A    between atoms: S_31  and  C_32
   12  A    between atoms: C_32  and  C_34
                            x       y       z     vdW  Elec       q    Type
                         _______ _______ _______ _____ _____    ______ ____

>  <TORSDO>
F 12

$$$$
