=
 OpenBabel11122410303D

 30 35  0  0  1  0  0  0  0  0999 V2000
  187.9220  177.9910  143.1970 C   0  0  0  0  0  0  0  0  0  0  0  0
  189.3010  177.1540  145.1020 C   0  0  0  0  0  0  0  0  0  0  0  0
  184.6390  178.6580  145.7400 N   0  0  0  0  0  2  0  0  0  0  0  0
  186.6850  178.4900  142.7200 C   0  0  0  0  0  0  0  0  0  0  0  0
  188.9850  177.7760  142.2590 N   0  0  0  0  0  2  0  0  0  0  0  0
  187.4400  178.6470  139.0490 O   0  0  0  0  0  1  0  0  0  0  0  0
  184.1660  177.7900  141.2930 C   0  0  1  0  0  3  0  0  0  0  0  0
  187.4960  178.1210  140.3430 C   0  0  1  0  0  3  0  0  0  0  0  0
  183.4930  178.2010  142.5390 N   0  0  2  0  0  0  0  0  0  0  0  0
  183.7150  179.1500  144.7730 C   0  0  0  0  0  0  0  0  0  0  0  0
  188.9220  178.2360  140.8760 C   0  0  2  0  0  3  0  0  0  0  0  0
  186.5410  178.8970  141.2610 C   0  0  1  0  0  3  0  0  0  0  0  0
  189.4100  176.8610  146.4650 C   0  0  0  0  0  3  0  0  0  0  0  0
  182.2490  178.8200  142.0990 C   0  0  0  0  0  2  0  0  0  0  0  0
  183.0770  177.4640  140.2880 C   0  0  0  0  0  2  0  0  0  0  0  0
  190.4120  176.9260  144.2970 O   0  0  0  0  0  1  0  0  0  0  0  0
  185.8010  178.3800  144.9740 C   0  0  0  0  0  0  0  0  0  0  0  0
  188.3340  177.0720  147.3260 C   0  0  0  0  0  3  0  0  0  0  0  0
  188.0890  177.6680  144.5760 C   0  0  0  0  0  0  0  0  0  0  0  0
  185.6410  178.6710  143.6400 C   0  0  0  0  0  0  0  0  0  0  0  0
  182.5650  179.5500  145.0880 O   0  0  0  0  0  0  0  0  0  0  0  0
  184.2460  179.1610  143.3670 C   0  0  1  0  0  3  0  0  0  0  0  0
  181.8260  178.1280  140.8220 C   0  0  0  0  0  2  0  0  0  0  0  0
  184.7440  179.6690  139.9460 O   0  0  0  0  0  0  0  0  0  0  0  0
  187.1350  177.5800  146.8330 C   0  0  0  0  0  3  0  0  0  0  0  0
  187.0020  177.8780  145.4720 C   0  0  0  0  0  0  0  0  0  0  0  0
  185.1250  178.8320  140.7500 C   0  0  0  0  0  0  0  0  0  0  0  0
  189.8780  177.4160  140.0240 C   0  0  0  0  0  2  0  0  0  0  0  0
  192.0250  177.4610  140.5180 C   0  0  0  0  0  1  0  0  0  0  0  0
  190.8360  176.8060  140.8350 O   0  0  0  0  0  0  0  0  0  0  0  0
  1 19  1  0  0  0  0
  2 13  1  0  0  0  0
  4  1  2  0  0  0  0
  4 20  1  0  0  0  0
  5  1  1  0  0  0  0
  7 15  1  6  0  0  0
  7  9  1  0  0  0  0
  8  6  1  6  0  0  0
  8 11  1  0  0  0  0
  8 12  1  0  0  0  0
  9 14  1  6  0  0  0
  9 22  1  0  0  0  0
 10 21  2  0  0  0  0
 10  3  1  0  0  0  0
 11 28  1  6  0  0  0
 11  5  1  0  0  0  0
 12 27  1  6  0  0  0
 12  4  1  0  0  0  0
 13 18  2  0  0  0  0
 15 23  1  0  0  0  0
 16  2  1  0  0  0  0
 17 26  1  0  0  0  0
 17  3  1  0  0  0  0
 19  2  2  0  0  0  0
 19 26  1  0  0  0  0
 20 17  2  0  0  0  0
 22 20  1  1  0  0  0
 22 10  1  0  0  0  0
 23 14  1  0  0  0  0
 24 27  2  0  0  0  0
 25 18  1  0  0  0  0
 26 25  2  0  0  0  0
 27  7  1  0  0  0  0
 28 30  1  0  0  0  0
 29 30  1  0  0  0  0
M  END
>  <MODEL>
1

>  <REMARK>
 VINA RESULT:     -10.4      0.000      0.000
  Name = 
  2 active torsions:
  status: ('A' for Active; 'I' for Inactive)
    1  A    between atoms: C_11  and  C_28
    2  A    between atoms: C_28  and  O_30
                            x       y       z     vdW  Elec       q    Type
                         _______ _______ _______ _____ _____    ______ ____

>  <TORSDO>
F 2

$$$$
=
 OpenBabel11122410303D

 30 35  0  0  1  0  0  0  0  0999 V2000
  189.3870  177.4990  143.2650 C   0  0  0  0  0  0  0  0  0  0  0  0
  191.1140  176.3690  144.6700 C   0  0  0  0  0  0  0  0  0  0  0  0
  186.9870  178.2400  146.6380 N   0  0  0  0  0  2  0  0  0  0  0  0
  188.1340  178.1530  143.1730 C   0  0  0  0  0  0  0  0  0  0  0  0
  190.1350  177.2700  142.0630 N   0  0  0  0  0  2  0  0  0  0  0  0
  187.9100  178.5680  139.4510 O   0  0  0  0  0  1  0  0  0  0  0  0
  185.2660  177.8230  142.4410 C   0  0  1  0  0  3  0  0  0  0  0  0
  188.2440  177.9250  140.6470 C   0  0  1  0  0  3  0  0  0  0  0  0
  184.9960  178.1820  143.8450 N   0  0  2  0  0  0  0  0  0  0  0  0
  185.9040  178.9020  145.9900 C   0  0  0  0  0  0  0  0  0  0  0  0
  189.7640  177.8570  140.7790 C   0  0  2  0  0  3  0  0  0  0  0  0
  187.6590  178.7010  141.8340 C   0  0  1  0  0  3  0  0  0  0  0  0
  191.5430  175.9460  145.9320 C   0  0  0  0  0  3  0  0  0  0  0  0
  183.7590  178.9520  143.7980 C   0  0  0  0  0  2  0  0  0  0  0  0
  183.9210  177.6930  141.7510 C   0  0  0  0  0  2  0  0  0  0  0  0
  191.9400  176.1110  143.5820 O   0  0  0  0  0  1  0  0  0  0  0  0
  187.8670  177.9240  145.5710 C   0  0  0  0  0  0  0  0  0  0  0  0
  190.7630  176.1790  147.0640 C   0  0  0  0  0  3  0  0  0  0  0  0
  189.8730  177.0400  144.5250 C   0  0  0  0  0  0  0  0  0  0  0  0
  187.3960  178.3480  144.3500 C   0  0  0  0  0  0  0  0  0  0  0  0
  184.9300  179.3780  146.6290 O   0  0  0  0  0  0  0  0  0  0  0  0
  186.0450  178.9890  144.4960 C   0  0  1  0  0  3  0  0  0  0  0  0
  182.9390  178.4200  142.6430 C   0  0  0  0  0  2  0  0  0  0  0  0
  185.6800  179.7530  141.1060 O   0  0  0  0  0  0  0  0  0  0  0  0
  189.5420  176.8390  146.9460 C   0  0  0  0  0  3  0  0  0  0  0  0
  189.0910  177.2690  145.6930 C   0  0  0  0  0  0  0  0  0  0  0  0
  186.1610  178.8150  141.7240 C   0  0  0  0  0  0  0  0  0  0  0  0
  190.3620  177.0310  139.6520 C   0  0  0  0  0  2  0  0  0  0  0  0
  192.1690  176.4080  138.5560 C   0  0  0  0  0  1  0  0  0  0  0  0
  191.7540  177.1280  139.6750 O   0  0  0  0  0  0  0  0  0  0  0  0
  1 19  1  0  0  0  0
  2 13  1  0  0  0  0
  4  1  2  0  0  0  0
  4 20  1  0  0  0  0
  5  1  1  0  0  0  0
  7 15  1  6  0  0  0
  7  9  1  0  0  0  0
  8  6  1  6  0  0  0
  8 11  1  0  0  0  0
  8 12  1  0  0  0  0
  9 14  1  6  0  0  0
  9 22  1  0  0  0  0
 10 21  2  0  0  0  0
 10  3  1  0  0  0  0
 11 28  1  6  0  0  0
 11  5  1  0  0  0  0
 12 27  1  1  0  0  0
 12  4  1  0  0  0  0
 13 18  2  0  0  0  0
 15 23  1  0  0  0  0
 16  2  1  0  0  0  0
 17 26  1  0  0  0  0
 17  3  1  0  0  0  0
 19  2  2  0  0  0  0
 19 26  1  0  0  0  0
 20 17  2  0  0  0  0
 22 20  1  1  0  0  0
 22 10  1  0  0  0  0
 23 14  1  0  0  0  0
 24 27  2  0  0  0  0
 25 18  1  0  0  0  0
 26 25  2  0  0  0  0
 27  7  1  0  0  0  0
 28 30  1  0  0  0  0
 29 30  1  0  0  0  0
M  END
>  <MODEL>
2

>  <REMARK>
 VINA RESULT:      -9.4      1.429      1.914
  Name = 
  2 active torsions:
  status: ('A' for Active; 'I' for Inactive)
    1  A    between atoms: C_11  and  C_28
    2  A    between atoms: C_28  and  O_30
                            x       y       z     vdW  Elec       q    Type
                         _______ _______ _______ _____ _____    ______ ____

>  <TORSDO>
F 2

$$$$
=
 OpenBabel11122410303D

 30 35  0  0  1  0  0  0  0  0999 V2000
  186.2090  178.4440  142.7830 C   0  0  0  0  0  0  0  0  0  0  0  0
  187.1530  177.9790  145.0470 C   0  0  0  0  0  0  0  0  0  0  0  0
  182.3520  178.9340  144.3850 N   0  0  0  0  0  2  0  0  0  0  0  0
  185.0850  178.7330  141.9720 C   0  0  0  0  0  0  0  0  0  0  0  0
  187.4870  178.2740  142.1540 N   0  0  0  0  0  2  0  0  0  0  0  0
  186.7010  178.6250  138.5880 O   0  0  0  0  0  1  0  0  0  0  0  0
  183.0780  177.5830  140.0950 C   0  0  1  0  0  3  0  0  0  0  0  0
  186.4890  178.2390  139.9160 C   0  0  1  0  0  3  0  0  0  0  0  0
  182.0810  178.0250  141.0880 N   0  0  2  0  0  0  0  0  0  0  0  0
  181.6500  179.2090  143.1750 C   0  0  0  0  0  0  0  0  0  0  0  0
  187.7210  178.5850  140.7480 C   0  0  2  0  0  3  0  0  0  0  0  0
  185.2650  178.9730  140.4800 C   0  0  1  0  0  3  0  0  0  0  0  0
  186.9510  177.8370  146.4230 C   0  0  0  0  0  3  0  0  0  0  0  0
  180.9280  178.4360  140.2960 C   0  0  0  0  0  2  0  0  0  0  0  0
  182.3080  177.0250  138.9130 C   0  0  0  0  0  2  0  0  0  0  0  0
  188.4440  177.8160  144.5590 O   0  0  0  0  0  1  0  0  0  0  0  0
  183.6880  178.7320  143.9530 C   0  0  0  0  0  0  0  0  0  0  0  0
  185.6810  177.9930  146.9760 C   0  0  0  0  0  3  0  0  0  0  0  0
  186.0630  178.2810  144.1930 C   0  0  0  0  0  0  0  0  0  0  0  0
  183.8330  178.8690  142.5920 C   0  0  0  0  0  0  0  0  0  0  0  0
  180.4240  179.4880  143.1600 O   0  0  0  0  0  0  0  0  0  0  0  0
  182.5070  179.1490  141.9420 C   0  0  1  0  0  3  0  0  0  0  0  0
  180.9040  177.5740  139.0530 C   0  0  0  0  0  2  0  0  0  0  0  0
  183.7800  179.3790  138.6960 O   0  0  0  0  0  0  0  0  0  0  0  0
  184.5950  178.2940  146.1570 C   0  0  0  0  0  3  0  0  0  0  0  0
  184.7730  178.4380  144.7760 C   0  0  0  0  0  0  0  0  0  0  0  0
  184.0320  178.6800  139.6650 C   0  0  0  0  0  0  0  0  0  0  0  0
  188.9340  177.8140  140.2530 C   0  0  0  0  0  2  0  0  0  0  0  0
  190.6170  176.8400  141.2890 C   0  0  0  0  0  1  0  0  0  0  0  0
  189.2330  176.7760  141.1360 O   0  0  0  0  0  0  0  0  0  0  0  0
  1 19  1  0  0  0  0
  2 13  1  0  0  0  0
  4 20  1  0  0  0  0
  4  1  2  0  0  0  0
  5  1  1  0  0  0  0
  7 15  1  6  0  0  0
  7  9  1  0  0  0  0
  8  6  1  6  0  0  0
  8 12  1  0  0  0  0
  8 11  1  0  0  0  0
  9 14  1  6  0  0  0
  9 22  1  0  0  0  0
 10  3  1  0  0  0  0
 11 28  1  6  0  0  0
 11  5  1  0  0  0  0
 12 27  1  6  0  0  0
 12  4  1  0  0  0  0
 13 18  2  0  0  0  0
 15 23  1  0  0  0  0
 16  2  1  0  0  0  0
 17  3  1  0  0  0  0
 17 26  1  0  0  0  0
 19 26  1  0  0  0  0
 19  2  2  0  0  0  0
 20 17  2  0  0  0  0
 21 10  2  0  0  0  0
 22 20  1  1  0  0  0
 22 10  1  0  0  0  0
 23 14  1  0  0  0  0
 24 27  2  0  0  0  0
 25 18  1  0  0  0  0
 26 25  2  0  0  0  0
 27  7  1  0  0  0  0
 28 30  1  0  0  0  0
 30 29  1  0  0  0  0
M  END
>  <MODEL>
3

>  <REMARK>
 VINA RESULT:      -9.1      1.497      2.046
  Name = 
  2 active torsions:
  status: ('A' for Active; 'I' for Inactive)
    1  A    between atoms: C_11  and  C_28
    2  A    between atoms: C_28  and  O_30
                            x       y       z     vdW  Elec       q    Type
                         _______ _______ _______ _____ _____    ______ ____

>  <TORSDO>
F 2

$$$$
=
 OpenBabel11122410303D

 30 35  0  0  1  0  0  0  0  0999 V2000
  186.1770  178.1410  142.0460 C   0  0  0  0  0  0  0  0  0  0  0  0
  183.8190  178.9250  142.2860 C   0  0  0  0  0  0  0  0  0  0  0  0
  186.5360  177.6350  146.2050 N   0  0  0  0  0  2  0  0  0  0  0  0
  187.3770  177.6950  142.6530 C   0  0  0  0  0  0  0  0  0  0  0  0
  186.1450  178.3030  140.6210 N   0  0  0  0  0  2  0  0  0  0  0  0
  189.5780  177.4850  139.6230 O   0  0  0  0  0  1  0  0  0  0  0  0
  190.1110  178.5000  143.5180 C   0  0  1  0  0  3  0  0  0  0  0  0
  188.5720  178.0140  140.4370 C   0  0  1  0  0  3  0  0  0  0  0  0
  189.6570  178.1260  144.8700 N   0  0  2  0  0  0  0  0  0  0  0  0
  187.8860  177.1800  146.2510 C   0  0  0  0  0  0  0  0  0  0  0  0
  187.2200  177.8390  139.7500 C   0  0  2  0  0  3  0  0  0  0  0  0
  188.5610  177.2880  141.7880 C   0  0  1  0  0  3  0  0  0  0  0  0
  182.7330  179.2200  143.1170 C   0  0  0  0  0  3  0  0  0  0  0  0
  190.8380  177.5610  145.5130 C   0  0  0  0  0  2  0  0  0  0  0  0
  191.5780  178.8690  143.6290 C   0  0  0  0  0  2  0  0  0  0  0  0
  183.6570  179.0990  140.9170 O   0  0  0  0  0  1  0  0  0  0  0  0
  186.3090  177.8570  144.8230 C   0  0  0  0  0  0  0  0  0  0  0  0
  182.8300  179.0620  144.4980 C   0  0  0  0  0  3  0  0  0  0  0  0
  185.0390  178.4630  142.8430 C   0  0  0  0  0  0  0  0  0  0  0  0
  187.4090  177.5660  144.0500 C   0  0  0  0  0  0  0  0  0  0  0  0
  188.4400  176.8340  147.3260 O   0  0  0  0  0  0  0  0  0  0  0  0
  188.5640  177.1380  144.9110 C   0  0  1  0  0  3  0  0  0  0  0  0
  192.0460  178.2650  144.9350 C   0  0  0  0  0  2  0  0  0  0  0  0
  190.7630  176.5900  142.2520 O   0  0  0  0  0  0  0  0  0  0  0  0
  184.0160  178.6060  145.0670 C   0  0  0  0  0  3  0  0  0  0  0  0
  185.1170  178.3070  144.2560 C   0  0  0  0  0  0  0  0  0  0  0  0
  189.8910  177.4130  142.4830 C   0  0  0  0  0  0  0  0  0  0  0  0
  187.1800  178.6100  138.4410 C   0  0  0  0  0  2  0  0  0  0  0  0
  185.8090  177.5480  137.0820 C   0  0  0  0  0  1  0  0  0  0  0  0
  185.8770  178.6420  137.9440 O   0  0  0  0  0  0  0  0  0  0  0  0
  1  4  2  0  0  0  0
  1 19  1  0  0  0  0
  2 19  2  0  0  0  0
  2 13  1  0  0  0  0
  3 10  1  0  0  0  0
  4 20  1  0  0  0  0
  5  1  1  0  0  0  0
  7 15  1  1  0  0  0
  7  9  1  0  0  0  0
  8  6  1  6  0  0  0
  8 12  1  0  0  0  0
  9 22  1  0  0  0  0
  9 14  1  1  0  0  0
 10 21  2  0  0  0  0
 11 28  1  6  0  0  0
 11  8  1  0  0  0  0
 11  5  1  0  0  0  0
 12 27  1  1  0  0  0
 12  4  1  0  0  0  0
 13 18  2  0  0  0  0
 15 23  1  0  0  0  0
 16  2  1  0  0  0  0
 17  3  1  0  0  0  0
 18 25  1  0  0  0  0
 19 26  1  0  0  0  0
 20 17  2  0  0  0  0
 22 20  1  6  0  0  0
 22 10  1  0  0  0  0
 23 14  1  0  0  0  0
 24 27  2  0  0  0  0
 26 17  1  0  0  0  0
 26 25  2  0  0  0  0
 27  7  1  0  0  0  0
 29 30  1  0  0  0  0
 30 28  1  0  0  0  0
M  END
>  <MODEL>
4

>  <REMARK>
 VINA RESULT:      -9.0      1.912      5.580
  Name = 
  2 active torsions:
  status: ('A' for Active; 'I' for Inactive)
    1  A    between atoms: C_11  and  C_28
    2  A    between atoms: C_28  and  O_30
                            x       y       z     vdW  Elec       q    Type
                         _______ _______ _______ _____ _____    ______ ____

>  <TORSDO>
F 2

$$$$
=
 OpenBabel11122410303D

 30 35  0  0  1  0  0  0  0  0999 V2000
  188.1580  177.8780  142.7360 C   0  0  0  0  0  0  0  0  0  0  0  0
  186.0190  178.0490  144.0130 C   0  0  0  0  0  0  0  0  0  0  0  0
  186.1870  178.7730  139.1300 N   0  0  0  0  0  2  0  0  0  0  0  0
  188.8380  177.9330  141.4950 C   0  0  0  0  0  0  0  0  0  0  0  0
  188.9020  177.5490  143.9160 N   0  0  0  0  0  2  0  0  0  0  0  0
  192.2720  176.9150  142.6130 O   0  0  0  0  0  1  0  0  0  0  0  0
  190.0150  176.3100  139.2920 C   0  0  1  0  0  3  0  0  0  0  0  0
  190.8730  176.9040  142.6100 C   0  0  1  0  0  3  0  0  0  0  0  0
  189.0400  177.0020  138.4290 N   0  0  2  0  0  0  0  0  0  0  0  0
  187.3060  178.7070  138.2500 C   0  0  0  0  0  0  0  0  0  0  0  0
  190.3590  177.4670  143.9330 C   0  0  2  0  0  3  0  0  0  0  0  0
  190.3500  177.7600  141.4490 C   0  0  1  0  0  3  0  0  0  0  0  0
  184.6410  178.2850  144.0170 C   0  0  0  0  0  3  0  0  0  0  0  0
  189.7310  177.1790  137.1580 C   0  0  0  0  0  2  0  0  0  0  0  0
  190.8760  175.4500  138.3860 C   0  0  0  0  0  2  0  0  0  0  0  0
  186.6340  177.7640  145.2270 O   0  0  0  0  0  1  0  0  0  0  0  0
  186.7440  178.4660  140.3980 C   0  0  0  0  0  0  0  0  0  0  0  0
  183.9670  178.5820  142.8340 C   0  0  0  0  0  3  0  0  0  0  0  0
  186.7500  178.1040  142.7990 C   0  0  0  0  0  0  0  0  0  0  0  0
  188.0970  178.2280  140.3400 C   0  0  0  0  0  0  0  0  0  0  0  0
  187.2120  178.9680  137.0230 O   0  0  0  0  0  0  0  0  0  0  0  0
  188.5920  178.3180  138.9240 C   0  0  1  0  0  3  0  0  0  0  0  0
  190.6800  176.0110  136.9940 C   0  0  0  0  0  2  0  0  0  0  0  0
  191.9340  177.6610  139.7070 O   0  0  0  0  0  0  0  0  0  0  0  0
  184.6640  178.6450  141.6300 C   0  0  0  0  0  3  0  0  0  0  0  0
  186.0440  178.4100  141.6010 C   0  0  0  0  0  0  0  0  0  0  0  0
  190.8620  177.2530  140.1260 C   0  0  0  0  0  0  0  0  0  0  0  0
  190.8040  176.5940  145.0950 C   0  0  0  0  0  2  0  0  0  0  0  0
  191.5440  176.6240  147.1700 C   0  0  0  0  0  1  0  0  0  0  0  0
  191.5980  177.3350  145.9720 O   0  0  0  0  0  0  0  0  0  0  0  0
  1 19  1  0  0  0  0
  1  5  1  0  0  0  0
  2 13  1  0  0  0  0
  2 16  1  0  0  0  0
  3 17  1  0  0  0  0
  4  1  2  0  0  0  0
  5 11  1  0  0  0  0
  7 15  1  6  0  0  0
  7 27  1  0  0  0  0
  8  6  1  1  0  0  0
  8 11  1  0  0  0  0
  9 14  1  6  0  0  0
  9 22  1  0  0  0  0
  9  7  1  0  0  0  0
 10  3  1  0  0  0  0
 11 28  1  1  0  0  0
 12 27  1  6  0  0  0
 12  4  1  0  0  0  0
 12  8  1  0  0  0  0
 17 26  1  0  0  0  0
 18 13  2  0  0  0  0
 19  2  2  0  0  0  0
 20 17  2  0  0  0  0
 20  4  1  0  0  0  0
 21 10  2  0  0  0  0
 22 10  1  6  0  0  0
 22 20  1  0  0  0  0
 23 14  1  0  0  0  0
 23 15  1  0  0  0  0
 24 27  2  0  0  0  0
 25 18  1  0  0  0  0
 26 25  2  0  0  0  0
 26 19  1  0  0  0  0
 28 30  1  0  0  0  0
 30 29  1  0  0  0  0
M  END
>  <MODEL>
5

>  <REMARK>
 VINA RESULT:      -8.9      2.264      5.910
  Name = 
  2 active torsions:
  status: ('A' for Active; 'I' for Inactive)
    1  A    between atoms: C_11  and  C_28
    2  A    between atoms: C_28  and  O_30
                            x       y       z     vdW  Elec       q    Type
                         _______ _______ _______ _____ _____    ______ ____

>  <TORSDO>
F 2

$$$$
=
 OpenBabel11122410303D

 30 35  0  0  1  0  0  0  0  0999 V2000
  187.8800  178.0370  142.8340 C   0  0  0  0  0  0  0  0  0  0  0  0
  186.7910  177.8780  145.0740 C   0  0  0  0  0  0  0  0  0  0  0  0
  184.2380  179.1190  141.0320 N   0  0  0  0  0  2  0  0  0  0  0  0
  187.7680  178.2830  141.4430 C   0  0  0  0  0  0  0  0  0  0  0  0
  189.1570  177.6560  143.3650 N   0  0  0  0  0  2  0  0  0  0  0  0
  191.2710  177.4720  140.3730 O   0  0  0  0  0  1  0  0  0  0  0  0
  187.5750  177.0120  138.7560 C   0  0  1  0  0  3  0  0  0  0  0  0
  190.1000  177.3340  141.1260 C   0  0  1  0  0  3  0  0  0  0  0  0
  186.2720  177.6980  138.6640 N   0  0  2  0  0  0  0  0  0  0  0  0
  184.6920  179.2470  139.6870 C   0  0  0  0  0  0  0  0  0  0  0  0
  190.3850  177.7060  142.5790 C   0  0  2  0  0  3  0  0  0  0  0  0
  189.0090  178.2540  140.5640 C   0  0  1  0  0  3  0  0  0  0  0  0
  185.6360  177.9860  145.8560 C   0  0  0  0  0  3  0  0  0  0  0  0
  186.1490  178.0690  137.2590 C   0  0  0  0  0  2  0  0  0  0  0  0
  187.8130  176.3340  137.4210 C   0  0  0  0  0  2  0  0  0  0  0  0
  187.9760  177.5250  145.7100 O   0  0  0  0  0  1  0  0  0  0  0  0
  185.4050  178.7340  141.7400 C   0  0  0  0  0  0  0  0  0  0  0  0
  184.4180  178.3410  145.2800 C   0  0  0  0  0  3  0  0  0  0  0  0
  186.7350  178.1260  143.6800 C   0  0  0  0  0  0  0  0  0  0  0  0
  186.5090  178.6280  140.9270 C   0  0  0  0  0  0  0  0  0  0  0  0
  183.9350  179.6250  138.7560 O   0  0  0  0  0  0  0  0  0  0  0  0
  186.1440  178.9090  139.4970 C   0  0  1  0  0  3  0  0  0  0  0  0
  186.8750  177.0160  136.4490 C   0  0  0  0  0  2  0  0  0  0  0  0
  189.3800  178.4820  138.2470 O   0  0  0  0  0  0  0  0  0  0  0  0
  184.3390  178.5930  143.9120 C   0  0  0  0  0  3  0  0  0  0  0  0
  185.4810  178.4890  143.1100 C   0  0  0  0  0  0  0  0  0  0  0  0
  188.7220  177.9360  139.1190 C   0  0  0  0  0  0  0  0  0  0  0  0
  191.4120  176.7620  143.1820 C   0  0  0  0  0  2  0  0  0  0  0  0
  191.6810  176.7170  145.3680 C   0  0  0  0  0  1  0  0  0  0  0  0
  190.9020  176.1800  144.3440 O   0  0  0  0  0  0  0  0  0  0  0  0
  1  5  1  0  0  0  0
  1 19  1  0  0  0  0
  2 16  1  0  0  0  0
  2 13  1  0  0  0  0
  3 17  1  0  0  0  0
  4  1  2  0  0  0  0
  7 15  1  6  0  0  0
  7 27  1  0  0  0  0
  8  6  1  6  0  0  0
  8 11  1  0  0  0  0
  9 14  1  6  0  0  0
  9  7  1  0  0  0  0
  9 22  1  0  0  0  0
 10  3  1  0  0  0  0
 11 28  1  1  0  0  0
 11  5  1  0  0  0  0
 12 27  1  6  0  0  0
 12  8  1  0  0  0  0
 12  4  1  0  0  0  0
 17 26  1  0  0  0  0
 18 13  2  0  0  0  0
 19  2  2  0  0  0  0
 20  4  1  0  0  0  0
 20 17  2  0  0  0  0
 21 10  2  0  0  0  0
 22 10  1  1  0  0  0
 22 20  1  0  0  0  0
 23 14  1  0  0  0  0
 23 15  1  0  0  0  0
 24 27  2  0  0  0  0
 25 18  1  0  0  0  0
 26 19  1  0  0  0  0
 26 25  2  0  0  0  0
 28 30  1  0  0  0  0
 30 29  1  0  0  0  0
M  END
>  <MODEL>
6

>  <REMARK>
 VINA RESULT:      -8.5      2.122      4.092
  Name = 
  2 active torsions:
  status: ('A' for Active; 'I' for Inactive)
    1  A    between atoms: C_11  and  C_28
    2  A    between atoms: C_28  and  O_30
                            x       y       z     vdW  Elec       q    Type
                         _______ _______ _______ _____ _____    ______ ____

>  <TORSDO>
F 2

$$$$
=
 OpenBabel11122410303D

 30 35  0  0  1  0  0  0  0  0999 V2000
  187.1840  178.1900  141.9990 C   0  0  0  0  0  0  0  0  0  0  0  0
  186.3800  178.1700  144.3620 C   0  0  0  0  0  0  0  0  0  0  0  0
  183.3250  179.0940  140.5920 N   0  0  0  0  0  2  0  0  0  0  0  0
  186.8970  178.3370  140.6200 C   0  0  0  0  0  0  0  0  0  0  0  0
  188.5240  177.8640  142.3920 N   0  0  0  0  0  2  0  0  0  0  0  0
  190.2600  177.5030  139.1810 O   0  0  0  0  0  1  0  0  0  0  0  0
  186.4050  176.8810  138.0680 C   0  0  1  0  0  3  0  0  0  0  0  0
  189.1930  177.4010  140.0800 C   0  0  1  0  0  3  0  0  0  0  0  0
  185.0860  177.5410  138.0910 N   0  0  2  0  0  0  0  0  0  0  0  0
  183.6090  179.1340  139.1960 C   0  0  0  0  0  0  0  0  0  0  0  0
  189.6460  177.8770  141.4590 C   0  0  2  0  0  3  0  0  0  0  0  0
  188.0220  178.2650  139.5970 C   0  0  1  0  0  3  0  0  0  0  0  0
  185.3280  178.3160  145.2720 C   0  0  0  0  0  3  0  0  0  0  0  0
  184.7840  177.8120  136.6910 C   0  0  0  0  0  2  0  0  0  0  0  0
  186.4930  176.1150  136.7610 C   0  0  0  0  0  2  0  0  0  0  0  0
  187.6420  177.8780  144.8690 O   0  0  0  0  0  1  0  0  0  0  0  0
  184.5780  178.7740  141.1750 C   0  0  0  0  0  0  0  0  0  0  0  0
  184.0410  178.6140  144.8280 C   0  0  0  0  0  3  0  0  0  0  0  0
  186.1490  178.3200  142.9720 C   0  0  0  0  0  0  0  0  0  0  0  0
  185.5770  178.6280  140.2410 C   0  0  0  0  0  0  0  0  0  0  0  0
  182.7350  179.4360  138.3430 O   0  0  0  0  0  0  0  0  0  0  0  0
  185.0340  178.8040  138.8510 C   0  0  1  0  0  3  0  0  0  0  0  0
  185.4280  176.7160  135.8700 C   0  0  0  0  0  2  0  0  0  0  0  0
  188.1000  178.3370  137.2430 O   0  0  0  0  0  0  0  0  0  0  0  0
  183.7900  178.7690  143.4670 C   0  0  0  0  0  3  0  0  0  0  0  0
  184.8270  178.6250  142.5380 C   0  0  0  0  0  0  0  0  0  0  0  0
  187.5660  177.8440  138.2240 C   0  0  0  0  0  0  0  0  0  0  0  0
  190.7590  176.9900  141.9920 C   0  0  0  0  0  2  0  0  0  0  0  0
  191.3060  176.2440  143.9920 C   0  0  0  0  0  1  0  0  0  0  0  0
  190.2840  176.2060  143.0440 O   0  0  0  0  0  0  0  0  0  0  0  0
  1  5  1  0  0  0  0
  1 19  1  0  0  0  0
  2 16  1  0  0  0  0
  2 13  1  0  0  0  0
  3 17  1  0  0  0  0
  4  1  2  0  0  0  0
  7 15  1  6  0  0  0
  7  9  1  0  0  0  0
  7 27  1  0  0  0  0
  8  6  1  6  0  0  0
  8 11  1  0  0  0  0
  9 14  1  6  0  0  0
  9 22  1  0  0  0  0
 10  3  1  0  0  0  0
 11 28  1  1  0  0  0
 11  5  1  0  0  0  0
 12 27  1  6  0  0  0
 12  8  1  0  0  0  0
 12  4  1  0  0  0  0
 17 26  1  0  0  0  0
 18 13  2  0  0  0  0
 19  2  2  0  0  0  0
 20  4  1  0  0  0  0
 20 17  2  0  0  0  0
 21 10  2  0  0  0  0
 22 10  1  1  0  0  0
 22 20  1  0  0  0  0
 23 14  1  0  0  0  0
 23 15  1  0  0  0  0
 24 27  2  0  0  0  0
 25 18  1  0  0  0  0
 26 19  1  0  0  0  0
 26 25  2  0  0  0  0
 28 30  1  0  0  0  0
 30 29  1  0  0  0  0
M  END
>  <MODEL>
7

>  <REMARK>
 VINA RESULT:      -8.2      2.241      4.040
  Name = 
  2 active torsions:
  status: ('A' for Active; 'I' for Inactive)
    1  A    between atoms: C_11  and  C_28
    2  A    between atoms: C_28  and  O_30
                            x       y       z     vdW  Elec       q    Type
                         _______ _______ _______ _____ _____    ______ ____

>  <TORSDO>
F 2

$$$$
=
 OpenBabel11122410303D

 30 35  0  0  1  0  0  0  0  0999 V2000
  187.8160  177.6950  142.4290 C   0  0  0  0  0  0  0  0  0  0  0  0
  186.5010  178.5670  140.4940 C   0  0  0  0  0  0  0  0  0  0  0  0
  184.5940  178.3690  145.0460 N   0  0  0  0  0  2  0  0  0  0  0  0
  187.8950  177.4120  143.8150 C   0  0  0  0  0  0  0  0  0  0  0  0
  188.9680  177.4520  141.6100 N   0  0  0  0  0  2  0  0  0  0  0  0
  191.4750  176.3120  144.0320 O   0  0  0  0  0  1  0  0  0  0  0  0
  188.9310  178.3680  146.4380 C   0  0  1  0  0  3  0  0  0  0  0  0
  190.3970  177.0710  143.5630 C   0  0  1  0  0  3  0  0  0  0  0  0
  187.5140  178.3980  146.8450 N   0  0  2  0  0  0  0  0  0  0  0  0
  185.1990  177.9160  146.2540 C   0  0  0  0  0  0  0  0  0  0  0  0
  190.1450  176.7390  142.0950 C   0  0  2  0  0  3  0  0  0  0  0  0
  189.1420  176.7530  144.3860 C   0  0  1  0  0  3  0  0  0  0  0  0
  185.3090  179.1060  140.0010 C   0  0  0  0  0  3  0  0  0  0  0  0
  187.5250  178.0100  148.2510 C   0  0  0  0  0  2  0  0  0  0  0  0
  189.7520  178.7210  147.6650 C   0  0  0  0  0  2  0  0  0  0  0  0
  187.5400  178.3520  139.5940 O   0  0  0  0  0  1  0  0  0  0  0  0
  185.6180  178.1990  144.0790 C   0  0  0  0  0  0  0  0  0  0  0  0
  184.2280  179.3390  140.8500 C   0  0  0  0  0  3  0  0  0  0  0  0
  186.6270  178.2530  141.8710 C   0  0  0  0  0  0  0  0  0  0  0  0
  186.7730  177.6790  144.6140 C   0  0  0  0  0  0  0  0  0  0  0  0
  184.5720  177.8730  147.3440 O   0  0  0  0  0  0  0  0  0  0  0  0
  186.6300  177.4840  146.0980 C   0  0  1  0  0  3  0  0  0  0  0  0
  188.8290  178.4980  148.8430 C   0  0  0  0  0  2  0  0  0  0  0  0
  189.8330  176.1660  146.5610 O   0  0  0  0  0  0  0  0  0  0  0  0
  184.3280  179.0360  142.2060 C   0  0  0  0  0  3  0  0  0  0  0  0
  185.5120  178.4980  142.7220 C   0  0  0  0  0  0  0  0  0  0  0  0
  189.3630  177.0390  145.8480 C   0  0  0  0  0  0  0  0  0  0  0  0
  191.3500  177.1130  141.2470 C   0  0  0  0  0  2  0  0  0  0  0  0
  191.4960  176.7520  139.0780 C   0  0  0  0  0  1  0  0  0  0  0  0
  190.9290  177.6150  140.0140 O   0  0  0  0  0  0  0  0  0  0  0  0
  1  4  1  0  0  0  0
  2 19  1  0  0  0  0
  3 10  1  0  0  0  0
  4 20  2  0  0  0  0
  5 11  1  0  0  0  0
  5  1  1  0  0  0  0
  7  9  1  0  0  0  0
  7 15  1  1  0  0  0
  8  6  1  1  0  0  0
  8 12  1  0  0  0  0
  9 14  1  1  0  0  0
 10 21  2  0  0  0  0
 11 28  1  6  0  0  0
 11  8  1  0  0  0  0
 12  4  1  6  0  0  0
 12 27  1  0  0  0  0
 13  2  2  0  0  0  0
 13 18  1  0  0  0  0
 14 23  1  0  0  0  0
 15 23  1  0  0  0  0
 16  2  1  0  0  0  0
 17 20  1  0  0  0  0
 17  3  1  0  0  0  0
 18 25  2  0  0  0  0
 19  1  2  0  0  0  0
 19 26  1  0  0  0  0
 22 20  1  6  0  0  0
 22 10  1  0  0  0  0
 22  9  1  0  0  0  0
 25 26  1  0  0  0  0
 26 17  2  0  0  0  0
 27  7  1  0  0  0  0
 27 24  2  0  0  0  0
 29 30  1  0  0  0  0
 30 28  1  0  0  0  0
M  END
>  <MODEL>
8

>  <REMARK>
 VINA RESULT:      -8.1      1.620      5.417
  Name = 
  2 active torsions:
  status: ('A' for Active; 'I' for Inactive)
    1  A    between atoms: C_11  and  C_28
    2  A    between atoms: C_28  and  O_30
                            x       y       z     vdW  Elec       q    Type
                         _______ _______ _______ _____ _____    ______ ____

>  <TORSDO>
F 2

$$$$
=
 OpenBabel11122410303D

 30 35  0  0  1  0  0  0  0  0999 V2000
  183.1590  178.5960  141.3020 C   0  0  0  0  0  0  0  0  0  0  0  0
  181.9640  178.1440  139.1570 C   0  0  0  0  0  0  0  0  0  0  0  0
  186.8950  178.3410  139.3860 N   0  0  0  0  0  2  0  0  0  0  0  0
  184.3810  178.7490  142.0030 C   0  0  0  0  0  0  0  0  0  0  0  0
  181.9300  178.6800  142.0350 N   0  0  0  0  0  2  0  0  0  0  0  0
  183.0630  179.1290  145.4950 O   0  0  0  0  0  1  0  0  0  0  0  0
  186.3330  177.4110  143.8100 C   0  0  1  0  0  3  0  0  0  0  0  0
  183.0980  178.6280  144.1890 C   0  0  1  0  0  3  0  0  0  0  0  0
  187.2990  177.6180  142.7150 N   0  0  2  0  0  0  0  0  0  0  0  0
  187.7320  178.5750  140.5160 C   0  0  0  0  0  0  0  0  0  0  0  0
  181.8680  179.1160  143.4260 C   0  0  2  0  0  3  0  0  0  0  0  0
  184.3690  179.1130  143.4800 C   0  0  1  0  0  3  0  0  0  0  0  0
  182.0230  177.8820  137.7850 C   0  0  0  0  0  3  0  0  0  0  0  0
  188.5660  177.8850  143.3850 C   0  0  0  0  0  2  0  0  0  0  0  0
  187.1040  176.8130  144.9730 C   0  0  0  0  0  2  0  0  0  0  0  0
  180.7100  178.2280  139.7510 O   0  0  0  0  0  1  0  0  0  0  0  0
  185.5850  178.3900  139.9300 C   0  0  0  0  0  0  0  0  0  0  0  0
  183.2490  177.7910  137.1290 C   0  0  0  0  0  3  0  0  0  0  0  0
  183.1580  178.3190  139.9020 C   0  0  0  0  0  0  0  0  0  0  0  0
  185.5800  178.6370  141.2830 C   0  0  0  0  0  0  0  0  0  0  0  0
  188.9840  178.6510  140.4180 O   0  0  0  0  0  0  0  0  0  0  0  0
  186.9850  178.7380  141.8090 C   0  0  1  0  0  3  0  0  0  0  0  0
  188.5590  177.1140  144.6870 C   0  0  0  0  0  2  0  0  0  0  0  0
  186.0470  179.3860  145.1120 O   0  0  0  0  0  0  0  0  0  0  0  0
  184.4350  177.9630  137.8400 C   0  0  0  0  0  3  0  0  0  0  0  0
  184.4010  178.2240  139.2150 C   0  0  0  0  0  0  0  0  0  0  0  0
  185.6050  178.6760  144.2220 C   0  0  0  0  0  0  0  0  0  0  0  0
  180.5960  178.5880  144.0680 C   0  0  0  0  0  2  0  0  0  0  0  0
  178.9320  179.8720  143.4050 C   0  0  0  0  0  1  0  0  0  0  0  0
  179.5420  178.6440  143.1550 O   0  0  0  0  0  0  0  0  0  0  0  0
  1  4  1  0  0  0  0
  1  5  1  0  0  0  0
  2 16  1  0  0  0  0
  2 19  1  0  0  0  0
  3 17  1  0  0  0  0
  3 10  1  0  0  0  0
  5 11  1  0  0  0  0
  7 27  1  0  0  0  0
  7 15  1  1  0  0  0
  8  6  1  1  0  0  0
  9 14  1  1  0  0  0
  9  7  1  0  0  0  0
 11 28  1  1  0  0  0
 11  8  1  0  0  0  0
 12  4  1  6  0  0  0
 12  8  1  0  0  0  0
 12 27  1  0  0  0  0
 13  2  2  0  0  0  0
 14 23  1  0  0  0  0
 17 20  1  0  0  0  0
 18 13  1  0  0  0  0
 18 25  2  0  0  0  0
 19  1  2  0  0  0  0
 20 22  1  0  0  0  0
 20  4  2  0  0  0  0
 21 10  2  0  0  0  0
 22 10  1  6  0  0  0
 22  9  1  0  0  0  0
 23 15  1  0  0  0  0
 25 26  1  0  0  0  0
 26 19  1  0  0  0  0
 26 17  2  0  0  0  0
 27 24  2  0  0  0  0
 30 29  1  0  0  0  0
 30 28  1  0  0  0  0
M  END
>  <MODEL>
9

>  <REMARK>
 VINA RESULT:      -7.9      2.117      7.559
  Name = 
  2 active torsions:
  status: ('A' for Active; 'I' for Inactive)
    1  A    between atoms: C_11  and  C_28
    2  A    between atoms: C_28  and  O_30
                            x       y       z     vdW  Elec       q    Type
                         _______ _______ _______ _____ _____    ______ ____

>  <TORSDO>
F 2

$$$$
