=
 OpenBabel11122412173D

 34 40  0  0  1  0  0  0  0  0999 V2000
  181.6760  179.4320  142.5820 C   0  0  0  0  0  0  0  0  0  0  0  0
  182.5740  178.5100  144.7280 C   0  0  0  0  0  2  0  0  0  0  0  0
  181.5240  176.8460  136.4670 C   0  0  2  0  0  3  0  0  0  0  0  0
  180.6910  178.6360  140.5100 C   0  0  0  0  0  0  0  0  0  0  0  0
  181.9610  177.1900  139.0170 C   0  0  0  0  0  0  0  0  0  0  0  0
  181.6000  174.9180  138.0680 C   0  0  0  0  0  1  0  0  0  0  0  0
  182.4630  176.5090  135.3260 C   0  0  0  0  0  1  0  0  0  0  0  0
  179.8980  178.6760  137.1170 C   0  0  0  0  0  2  0  0  0  0  0  0
  184.1660  179.2030  143.0390 C   0  0  2  0  0  3  0  0  0  0  0  0
  187.1990  178.4500  143.0650 C   0  0  0  0  0  2  0  0  0  0  0  0
  183.0460  177.2660  139.8900 C   0  0  0  0  0  3  0  0  0  0  0  0
  179.6110  177.8530  138.3750 C   0  0  0  0  0  2  0  0  0  0  0  0
  184.1970  178.0640  141.9840 C   0  0  1  0  0  3  0  0  0  0  0  0
  183.9620  178.2250  145.2740 C   0  0  0  0  0  2  0  0  0  0  0  0
  180.7710  177.8840  139.3260 C   0  0  0  0  0  0  0  0  0  0  0  0
  181.2480  178.3470  136.4680 C   0  0  0  0  0  2  0  0  0  0  0  0
  186.1740  177.8900  144.0570 C   0  0  2  0  0  3  0  0  0  0  0  0
  181.8000  178.6980  141.3900 C   0  0  0  0  0  0  0  0  0  0  0  0
  182.1170  176.3170  137.7890 C   0  0  1  0  0  3  0  0  0  0  0  0
  182.9980  178.0380  141.0600 C   0  0  0  0  0  0  0  0  0  0  0  0
  179.4200  180.0260  141.9650 C   0  0  0  0  0  3  0  0  0  0  0  0
  186.6200  178.9450  141.7390 C   0  0  0  0  0  2  0  0  0  0  0  0
  179.5440  179.3040  140.8210 N   0  0  0  0  0  0  0  0  0  0  0  0
  185.5190  178.0410  141.1810 C   0  0  0  0  0  2  0  0  0  0  0  0
  184.9690  178.8300  144.2970 C   0  0  1  0  0  3  0  0  0  0  0  0
  180.4800  180.0970  142.8650 C   0  0  0  0  0  3  0  0  0  0  0  0
  182.7790  179.4880  143.5930 C   0  0  1  0  0  3  0  0  0  0  0  0
  186.8960  177.5810  145.3320 C   0  0  0  0  0  3  0  0  0  0  0  0
  188.1960  177.2930  145.3270 C   0  0  0  0  0  3  0  0  0  0  0  0
  188.9870  178.8420  148.0680 O   0  0  0  0  0  0  0  0  0  0  0  0
  187.9340  176.7620  147.7110 C   0  0  0  0  0  2  0  0  0  0  0  0
  188.9180  176.9830  146.5980 C   0  0  2  0  0  3  0  0  0  0  0  0
  188.2890  177.8200  148.7260 C   0  0  0  0  0  2  0  0  0  0  0  0
  189.6990  178.1990  147.0440 C   0  0  0  0  0  2  0  0  0  0  0  0
  1 26  1  0  0  0  0
  1 27  1  0  0  0  0
  2 14  1  0  0  0  0
  3  7  1  6  0  0  0
  3 16  1  0  0  0  0
  3 19  1  0  0  0  0
  4 23  2  0  0  0  0
  4 18  1  0  0  0  0
  5 15  2  0  0  0  0
  5 11  1  0  0  0  0
  8 12  1  0  0  0  0
  9 27  1  0  0  0  0
  9 25  1  0  0  0  0
 10 17  1  0  0  0  0
 11 20  2  0  0  0  0
 12 15  1  0  0  0  0
 13  9  1  0  0  0  0
 15  4  1  0  0  0  0
 16  8  1  0  0  0  0
 17 25  1  0  0  0  0
 17 28  1  0  0  0  0
 18  1  2  0  0  0  0
 19  6  1  0  0  0  0
 19  5  1  0  0  0  0
 20 18  1  0  0  0  0
 20 13  1  0  0  0  0
 21 26  2  0  0  0  0
 22 10  1  0  0  0  0
 23 21  1  0  0  0  0
 24 22  1  0  0  0  0
 24 13  1  0  0  0  0
 25 14  1  0  0  0  0
 27  2  1  0  0  0  0
 29 28  2  0  0  0  0
 29 32  1  0  0  0  0
 30 33  1  0  0  0  0
 31 33  1  0  0  0  0
 32 34  1  0  0  0  0
 32 31  1  0  0  0  0
 34 30  1  0  0  0  0
M  END
>  <MODEL>
1

>  <REMARK>
 VINA RESULT:      -8.1      0.000      0.000
  Name = 
  2 active torsions:
  status: ('A' for Active; 'I' for Inactive)
    1  A    between atoms: C_17  and  C_28
    2  A    between atoms: C_29  and  C_32
                            x       y       z     vdW  Elec       q    Type
                         _______ _______ _______ _____ _____    ______ ____

>  <TORSDO>
F 2

$$$$
=
 OpenBabel11122412173D

 34 40  0  0  1  0  0  0  0  0999 V2000
  187.1770  178.2530  140.2660 C   0  0  0  0  0  0  0  0  0  0  0  0
  186.8930  177.3810  142.5940 C   0  0  0  0  0  2  0  0  0  0  0  0
  190.4680  175.7570  135.0640 C   0  0  2  0  0  3  0  0  0  0  0  0
  187.4940  177.4040  138.0120 C   0  0  0  0  0  0  0  0  0  0  0  0
  189.4740  176.0990  137.4530 C   0  0  0  0  0  0  0  0  0  0  0  0
  189.8550  173.8190  136.5320 C   0  0  0  0  0  1  0  0  0  0  0  0
  191.8890  175.5230  134.5950 C   0  0  0  0  0  1  0  0  0  0  0  0
  188.5960  177.4260  134.7060 C   0  0  0  0  0  2  0  0  0  0  0  0
  189.0680  178.2390  141.9650 C   0  0  2  0  0  3  0  0  0  0  0  0
  191.6900  177.7570  143.5980 C   0  0  0  0  0  2  0  0  0  0  0  0
  189.9300  176.2580  138.7620 C   0  0  0  0  0  3  0  0  0  0  0  0
  187.7620  176.5620  135.6550 C   0  0  0  0  0  2  0  0  0  0  0  0
  189.7430  177.1230  141.1200 C   0  0  1  0  0  3  0  0  0  0  0  0
  187.8060  177.2120  143.7940 C   0  0  0  0  0  2  0  0  0  0  0  0
  188.2450  176.6800  137.0710 C   0  0  0  0  0  0  0  0  0  0  0  0
  190.1070  177.2280  134.8700 C   0  0  0  0  0  2  0  0  0  0  0  0
  190.3480  177.0930  143.9260 C   0  0  2  0  0  3  0  0  0  0  0  0
  187.9680  177.5510  139.3400 C   0  0  0  0  0  0  0  0  0  0  0  0
  190.3220  175.2630  136.5180 C   0  0  1  0  0  3  0  0  0  0  0  0
  189.2120  177.0040  139.7070 C   0  0  0  0  0  0  0  0  0  0  0  0
  185.5390  178.6530  138.5410 C   0  0  0  0  0  3  0  0  0  0  0  0
  191.8520  178.2190  142.1490 C   0  0  0  0  0  2  0  0  0  0  0  0
  186.3030  177.9630  137.6560 N   0  0  0  0  0  0  0  0  0  0  0  0
  191.2860  177.2290  141.1280 C   0  0  0  0  0  2  0  0  0  0  0  0
  189.1220  177.9190  143.4680 C   0  0  1  0  0  3  0  0  0  0  0  0
  185.9600  178.8050  139.8590 C   0  0  0  0  0  3  0  0  0  0  0  0
  187.5790  178.3900  141.7020 C   0  0  1  0  0  3  0  0  0  0  0  0
  190.3180  176.8300  145.3990 C   0  0  0  0  0  3  0  0  0  0  0  0
  189.6700  177.6500  146.2250 C   0  0  0  0  0  3  0  0  0  0  0  0
  187.9960  178.6880  148.8040 O   0  0  0  0  0  0  0  0  0  0  0  0
  188.4770  176.5080  148.0430 C   0  0  0  0  0  2  0  0  0  0  0  0
  189.6410  177.3910  147.6960 C   0  0  2  0  0  3  0  0  0  0  0  0
  187.6630  177.3420  149.0020 C   0  0  0  0  0  2  0  0  0  0  0  0
  189.3480  178.6800  148.4300 C   0  0  0  0  0  2  0  0  0  0  0  0
  1 27  1  0  0  0  0
  2 14  1  0  0  0  0
  3  7  1  1  0  0  0
  3 19  1  0  0  0  0
  4 18  1  0  0  0  0
  5 11  1  0  0  0  0
  8 16  1  0  0  0  0
  8 12  1  0  0  0  0
  9 25  1  0  0  0  0
 10 17  1  0  0  0  0
 11 20  2  0  0  0  0
 12 15  1  0  0  0  0
 13 24  1  0  0  0  0
 13  9  1  0  0  0  0
 15  5  2  0  0  0  0
 15  4  1  0  0  0  0
 16  3  1  0  0  0  0
 17 28  1  0  0  0  0
 18 20  1  0  0  0  0
 18  1  2  0  0  0  0
 19  6  1  0  0  0  0
 19  5  1  0  0  0  0
 20 13  1  0  0  0  0
 21 26  2  0  0  0  0
 22 10  1  0  0  0  0
 23  4  2  0  0  0  0
 23 21  1  0  0  0  0
 24 22  1  0  0  0  0
 25 14  1  0  0  0  0
 25 17  1  0  0  0  0
 26  1  1  0  0  0  0
 27  9  1  0  0  0  0
 27  2  1  0  0  0  0
 28 29  2  0  0  0  0
 29 32  1  0  0  0  0
 30 33  1  0  0  0  0
 31 33  1  0  0  0  0
 32 31  1  0  0  0  0
 32 34  1  0  0  0  0
 34 30  1  0  0  0  0
M  END
>  <MODEL>
2

>  <REMARK>
 VINA RESULT:      -7.6      4.505      6.241
  Name = 
  2 active torsions:
  status: ('A' for Active; 'I' for Inactive)
    1  A    between atoms: C_17  and  C_28
    2  A    between atoms: C_29  and  C_32
                            x       y       z     vdW  Elec       q    Type
                         _______ _______ _______ _____ _____    ______ ____

>  <TORSDO>
F 2

$$$$
=
 OpenBabel11122412173D

 34 40  0  0  1  0  0  0  0  0999 V2000
  183.8850  178.8820  144.0100 C   0  0  0  0  0  0  0  0  0  0  0  0
  185.3900  177.5500  145.5010 C   0  0  0  0  0  2  0  0  0  0  0  0
  181.9280  177.8260  137.7520 C   0  0  2  0  0  3  0  0  0  0  0  0
  182.3300  178.5260  142.1780 C   0  0  0  0  0  0  0  0  0  0  0  0
  183.1050  177.5860  140.0680 C   0  0  0  0  0  0  0  0  0  0  0  0
  182.4920  175.5850  138.7230 C   0  0  0  0  0  1  0  0  0  0  0  0
  182.4850  177.8490  136.3430 C   0  0  0  0  0  1  0  0  0  0  0  0
  180.5590  179.3100  139.2810 C   0  0  0  0  0  2  0  0  0  0  0  0
  186.3990  178.7540  143.6580 C   0  0  2  0  0  3  0  0  0  0  0  0
  189.3060  178.2660  142.6180 C   0  0  0  0  0  2  0  0  0  0  0  0
  184.4020  177.5400  140.5820 C   0  0  0  0  0  3  0  0  0  0  0  0
  180.6670  178.1900  140.3190 C   0  0  0  0  0  2  0  0  0  0  0  0
  186.1210  177.9060  142.3870 C   0  0  1  0  0  3  0  0  0  0  0  0
  186.8790  177.2570  145.5350 C   0  0  0  0  0  2  0  0  0  0  0  0
  182.0580  178.0870  140.8720 C   0  0  0  0  0  0  0  0  0  0  0  0
  181.6550  179.2570  138.2110 C   0  0  0  0  0  2  0  0  0  0  0  0
  188.6290  177.4030  143.6890 C   0  0  2  0  0  3  0  0  0  0  0  0
  183.6510  178.4660  142.6880 C   0  0  0  0  0  0  0  0  0  0  0  0
  182.8920  177.0480  138.6700 C   0  0  1  0  0  3  0  0  0  0  0  0
  184.7000  178.0030  141.8710 C   0  0  0  0  0  0  0  0  0  0  0  0
  181.5440  179.4200  144.2390 C   0  0  0  0  0  3  0  0  0  0  0  0
  188.3540  179.0140  141.6850 C   0  0  0  0  0  2  0  0  0  0  0  0
  181.3250  179.0040  142.9640 N   0  0  0  0  0  0  0  0  0  0  0  0
  187.1420  178.1830  141.2580 C   0  0  0  0  0  2  0  0  0  0  0  0
  187.5440  178.1580  144.4940 C   0  0  1  0  0  3  0  0  0  0  0  0
  182.8240  179.3610  144.7830 C   0  0  0  0  0  3  0  0  0  0  0  0
  185.2400  178.7840  144.6400 C   0  0  1  0  0  3  0  0  0  0  0  0
  189.7000  176.8590  144.5810 C   0  0  0  0  0  3  0  0  0  0  0  0
  190.6090  177.6670  145.1260 C   0  0  0  0  0  3  0  0  0  0  0  0
  190.8130  175.7170  147.7130 O   0  0  0  0  0  0  0  0  0  0  0  0
  191.9740  175.6960  145.6610 C   0  0  0  0  0  2  0  0  0  0  0  0
  191.6810  177.1250  146.0150 C   0  0  2  0  0  3  0  0  0  0  0  0
  191.6750  174.9370  146.9310 C   0  0  0  0  0  2  0  0  0  0  0  0
  191.1660  177.0460  147.4350 C   0  0  0  0  0  2  0  0  0  0  0  0
  1 27  1  0  0  0  0
  1 26  1  0  0  0  0
  2 14  1  0  0  0  0
  3  7  1  6  0  0  0
  3 16  1  0  0  0  0
  3 19  1  0  0  0  0
  4 18  1  0  0  0  0
  4 23  2  0  0  0  0
  5 11  1  0  0  0  0
  5 15  2  0  0  0  0
  8 12  1  0  0  0  0
  9 25  1  0  0  0  0
  9 27  1  0  0  0  0
 10 17  1  0  0  0  0
 11 20  2  0  0  0  0
 12 15  1  0  0  0  0
 13  9  1  0  0  0  0
 15  4  1  0  0  0  0
 16  8  1  0  0  0  0
 17 25  1  0  0  0  0
 17 28  1  0  0  0  0
 18  1  2  0  0  0  0
 19  6  1  0  0  0  0
 19  5  1  0  0  0  0
 20 13  1  0  0  0  0
 20 18  1  0  0  0  0
 21 26  2  0  0  0  0
 22 10  1  0  0  0  0
 23 21  1  0  0  0  0
 24 22  1  0  0  0  0
 24 13  1  0  0  0  0
 25 14  1  0  0  0  0
 27  2  1  0  0  0  0
 28 29  2  0  0  0  0
 29 32  1  0  0  0  0
 31 32  1  0  0  0  0
 31 33  1  0  0  0  0
 32 34  1  0  0  0  0
 33 30  1  0  0  0  0
 34 30  1  0  0  0  0
M  END
>  <MODEL>
3

>  <REMARK>
 VINA RESULT:      -7.5      1.732      2.579
  Name = 
  2 active torsions:
  status: ('A' for Active; 'I' for Inactive)
    1  A    between atoms: C_17  and  C_28
    2  A    between atoms: C_29  and  C_32
                            x       y       z     vdW  Elec       q    Type
                         _______ _______ _______ _____ _____    ______ ____

>  <TORSDO>
F 2

$$$$
=
 OpenBabel11122412173D

 34 40  0  0  1  0  0  0  0  0999 V2000
  188.9570  178.1120  138.5530 C   0  0  0  0  0  0  0  0  0  0  0  0
  187.4750  177.5760  140.4960 C   0  0  0  0  0  2  0  0  0  0  0  0
  194.1550  174.8430  136.0220 C   0  0  2  0  0  3  0  0  0  0  0  0
  190.2740  176.9550  136.8720 C   0  0  0  0  0  0  0  0  0  0  0  0
  192.1410  175.5350  137.5310 C   0  0  0  0  0  0  0  0  0  0  0  0
  192.7200  173.1420  137.1750 C   0  0  0  0  0  1  0  0  0  0  0  0
  195.5930  174.5100  136.3620 C   0  0  0  0  0  1  0  0  0  0  0  0
  192.8700  176.4930  134.5940 C   0  0  0  0  0  2  0  0  0  0  0  0
  189.7430  178.2840  140.9640 C   0  0  2  0  0  3  0  0  0  0  0  0
  191.1490  177.9650  143.7370 C   0  0  0  0  0  2  0  0  0  0  0  0
  191.8990  175.8610  138.8650 C   0  0  0  0  0  3  0  0  0  0  0  0
  191.6000  175.7890  135.0780 C   0  0  0  0  0  2  0  0  0  0  0  0
  190.6430  177.0460  140.7000 C   0  0  1  0  0  3  0  0  0  0  0  0
  187.6510  177.5510  142.0040 C   0  0  0  0  0  2  0  0  0  0  0  0
  191.3240  176.0890  136.5220 C   0  0  0  0  0  0  0  0  0  0  0  0
  194.0740  176.2820  135.5180 C   0  0  0  0  0  2  0  0  0  0  0  0
  189.7680  177.3870  143.4120 C   0  0  2  0  0  3  0  0  0  0  0  0
  190.0360  177.2700  138.2330 C   0  0  0  0  0  0  0  0  0  0  0  0
  193.2610  174.5580  137.2460 C   0  0  1  0  0  3  0  0  0  0  0  0
  190.8770  176.7480  139.2330 C   0  0  0  0  0  0  0  0  0  0  0  0
  188.4370  178.3130  136.2050 C   0  0  0  0  0  3  0  0  0  0  0  0
  192.0510  178.2200  142.5290 C   0  0  0  0  0  2  0  0  0  0  0  0
  189.4740  177.4880  135.9060 N   0  0  0  0  0  0  0  0  0  0  0  0
  191.9810  177.1140  141.4740 C   0  0  0  0  0  2  0  0  0  0  0  0
  189.0130  178.1730  142.3140 C   0  0  1  0  0  3  0  0  0  0  0  0
  188.1600  178.6340  137.5320 C   0  0  0  0  0  3  0  0  0  0  0  0
  188.6020  178.4360  139.9710 C   0  0  1  0  0  3  0  0  0  0  0  0
  188.9860  177.3300  144.6860 C   0  0  0  0  0  3  0  0  0  0  0  0
  189.5550  176.9200  145.8190 C   0  0  0  0  0  3  0  0  0  0  0  0
  188.6260  178.9740  148.1530 O   0  0  0  0  0  0  0  0  0  0  0  0
  187.3960  177.4150  146.8800 C   0  0  0  0  0  2  0  0  0  0  0  0
  188.7750  176.8600  147.0920 C   0  0  2  0  0  3  0  0  0  0  0  0
  187.3190  178.5740  147.8440 C   0  0  0  0  0  2  0  0  0  0  0  0
  189.3910  177.7990  148.1040 C   0  0  0  0  0  2  0  0  0  0  0  0
  1 27  1  0  0  0  0
  2 14  1  0  0  0  0
  3  7  1  1  0  0  0
  3 19  1  0  0  0  0
  4 18  1  0  0  0  0
  5 11  2  0  0  0  0
  6 19  1  0  0  0  0
  8 12  1  0  0  0  0
  8 16  1  0  0  0  0
  9 25  1  0  0  0  0
 11 20  1  0  0  0  0
 12 15  1  0  0  0  0
 13  9  1  0  0  0  0
 13 24  1  0  0  0  0
 14 25  1  0  0  0  0
 15  4  2  0  0  0  0
 15  5  1  0  0  0  0
 16  3  1  0  0  0  0
 17 10  1  0  0  0  0
 17 28  1  0  0  0  0
 18  1  1  0  0  0  0
 18 20  2  0  0  0  0
 19  5  1  0  0  0  0
 20 13  1  0  0  0  0
 21 26  1  0  0  0  0
 22 10  1  0  0  0  0
 23 21  2  0  0  0  0
 23  4  1  0  0  0  0
 24 22  1  0  0  0  0
 25 17  1  0  0  0  0
 26  1  2  0  0  0  0
 27  2  1  0  0  0  0
 27  9  1  0  0  0  0
 28 29  2  0  0  0  0
 29 32  1  0  0  0  0
 31 32  1  0  0  0  0
 31 33  1  0  0  0  0
 32 34  1  0  0  0  0
 33 30  1  0  0  0  0
 34 30  1  0  0  0  0
M  END
>  <MODEL>
4

>  <REMARK>
 VINA RESULT:      -7.4      6.104      8.416
  Name = 
  2 active torsions:
  status: ('A' for Active; 'I' for Inactive)
    1  A    between atoms: C_17  and  C_28
    2  A    between atoms: C_29  and  C_32
                            x       y       z     vdW  Elec       q    Type
                         _______ _______ _______ _____ _____    ______ ____

>  <TORSDO>
F 2

$$$$
=
 OpenBabel11122412173D

 34 40  0  0  1  0  0  0  0  0999 V2000
  186.9300  178.4210  140.6670 C   0  0  0  0  0  0  0  0  0  0  0  0
  186.7250  177.4640  142.9700 C   0  0  0  0  0  2  0  0  0  0  0  0
  189.9810  176.0850  135.2490 C   0  0  2  0  0  3  0  0  0  0  0  0
  187.1480  177.6550  138.3720 C   0  0  0  0  0  0  0  0  0  0  0  0
  189.0860  176.3480  137.6870 C   0  0  0  0  0  0  0  0  0  0  0  0
  189.3990  174.1000  136.6660 C   0  0  0  0  0  1  0  0  0  0  0  0
  191.3800  175.8510  134.7160 C   0  0  0  0  0  1  0  0  0  0  0  0
  188.1200  177.7880  135.0280 C   0  0  0  0  0  2  0  0  0  0  0  0
  188.8860  178.3190  142.2880 C   0  0  2  0  0  3  0  0  0  0  0  0
  191.5620  177.7430  143.7970 C   0  0  0  0  0  2  0  0  0  0  0  0
  189.5950  176.4520  138.9810 C   0  0  0  0  0  3  0  0  0  0  0  0
  187.3120  176.8990  135.9770 C   0  0  0  0  0  2  0  0  0  0  0  0
  189.5120  177.2280  141.3760 C   0  0  1  0  0  3  0  0  0  0  0  0
  187.6830  177.2390  144.1260 C   0  0  0  0  0  2  0  0  0  0  0  0
  187.8520  176.9580  137.3760 C   0  0  0  0  0  0  0  0  0  0  0  0
  189.6340  177.5660  135.1250 C   0  0  0  0  0  2  0  0  0  0  0  0
  190.2250  177.0840  144.1530 C   0  0  2  0  0  3  0  0  0  0  0  0
  187.6750  177.7450  139.6840 C   0  0  0  0  0  0  0  0  0  0  0  0
  189.8850  175.5380  136.6880 C   0  0  1  0  0  3  0  0  0  0  0  0
  188.9250  177.1700  139.9810 C   0  0  0  0  0  0  0  0  0  0  0  0
  185.2320  178.9070  139.0240 C   0  0  0  0  0  3  0  0  0  0  0  0
  191.6740  178.2580  142.3610 C   0  0  0  0  0  2  0  0  0  0  0  0
  185.9520  178.2410  138.0840 N   0  0  0  0  0  0  0  0  0  0  0  0
  191.0560  177.3150  141.3270 C   0  0  0  0  0  2  0  0  0  0  0  0
  188.9940  177.9410  143.7750 C   0  0  1  0  0  3  0  0  0  0  0  0
  185.7070  179.0030  140.3290 C   0  0  0  0  0  3  0  0  0  0  0  0
  187.3900  178.4990  142.0900 C   0  0  1  0  0  3  0  0  0  0  0  0
  190.2490  176.7660  145.6150 C   0  0  0  0  0  3  0  0  0  0  0  0
  191.3980  176.5160  146.2400 C   0  0  0  0  0  3  0  0  0  0  0  0
  193.5750  176.4970  148.6470 O   0  0  0  0  0  0  0  0  0  0  0  0
  191.4270  177.4620  148.5070 C   0  0  0  0  0  2  0  0  0  0  0  0
  191.4240  176.1950  147.6990 C   0  0  2  0  0  3  0  0  0  0  0  0
  192.7070  177.3810  149.3020 C   0  0  0  0  0  2  0  0  0  0  0  0
  192.7410  175.5400  148.0490 C   0  0  0  0  0  2  0  0  0  0  0  0
  1 27  1  0  0  0  0
  2 14  1  0  0  0  0
  3  7  1  1  0  0  0
  3 19  1  0  0  0  0
  4 18  1  0  0  0  0
  5 11  1  0  0  0  0
  6 19  1  0  0  0  0
  8 16  1  0  0  0  0
  8 12  1  0  0  0  0
  9 25  1  0  0  0  0
 10 17  1  0  0  0  0
 11 20  2  0  0  0  0
 12 15  1  0  0  0  0
 13  9  1  0  0  0  0
 15  5  2  0  0  0  0
 15  4  1  0  0  0  0
 16  3  1  0  0  0  0
 17 28  1  0  0  0  0
 18 20  1  0  0  0  0
 18  1  2  0  0  0  0
 19  5  1  0  0  0  0
 20 13  1  0  0  0  0
 21 26  2  0  0  0  0
 22 10  1  0  0  0  0
 23  4  2  0  0  0  0
 23 21  1  0  0  0  0
 24 13  1  0  0  0  0
 24 22  1  0  0  0  0
 25 14  1  0  0  0  0
 25 17  1  0  0  0  0
 26  1  1  0  0  0  0
 27  9  1  0  0  0  0
 27  2  1  0  0  0  0
 28 29  2  0  0  0  0
 29 32  1  0  0  0  0
 30 33  1  0  0  0  0
 31 33  1  0  0  0  0
 32 34  1  0  0  0  0
 32 31  1  0  0  0  0
 34 30  1  0  0  0  0
M  END
>  <MODEL>
5

>  <REMARK>
 VINA RESULT:      -7.4      4.418      6.095
  Name = 
  2 active torsions:
  status: ('A' for Active; 'I' for Inactive)
    1  A    between atoms: C_17  and  C_28
    2  A    between atoms: C_29  and  C_32
                            x       y       z     vdW  Elec       q    Type
                         _______ _______ _______ _____ _____    ______ ____

>  <TORSDO>
F 2

$$$$
=
 OpenBabel11122412173D

 34 40  0  0  1  0  0  0  0  0999 V2000
  186.3530  178.7670  141.5500 C   0  0  0  0  0  0  0  0  0  0  0  0
  188.2330  177.1340  141.7980 C   0  0  0  0  0  2  0  0  0  0  0  0
  181.1450  178.8030  137.4280 C   0  0  2  0  0  3  0  0  0  0  0  0
  184.0150  178.7900  140.8940 C   0  0  0  0  0  0  0  0  0  0  0  0
  183.3600  178.1400  138.6400 C   0  0  0  0  0  0  0  0  0  0  0  0
  181.8400  176.4090  137.6980 C   0  0  0  0  0  1  0  0  0  0  0  0
  180.8290  179.0070  135.9610 C   0  0  0  0  0  1  0  0  0  0  0  0
  181.0650  180.1140  139.5940 C   0  0  0  0  0  2  0  0  0  0  0  0
  188.2100  178.5430  139.8280 C   0  0  2  0  0  3  0  0  0  0  0  0
  189.9610  178.0450  137.2870 C   0  0  0  0  0  2  0  0  0  0  0  0
  184.7040  177.9370  138.3240 C   0  0  0  0  0  3  0  0  0  0  0  0
  181.5740  178.8440  140.2800 C   0  0  0  0  0  2  0  0  0  0  0  0
  187.1640  177.9180  138.8640 C   0  0  1  0  0  3  0  0  0  0  0  0
  189.4380  176.7500  140.9560 C   0  0  0  0  0  2  0  0  0  0  0  0
  183.0100  178.5740  139.9360 C   0  0  0  0  0  0  0  0  0  0  0  0
  181.3680  180.1590  138.0920 C   0  0  0  0  0  2  0  0  0  0  0  0
  189.8780  177.0710  138.4680 C   0  0  2  0  0  3  0  0  0  0  0  0
  185.3750  178.5730  140.5600 C   0  0  0  0  0  0  0  0  0  0  0  0
  182.3390  177.8360  137.5640 C   0  0  1  0  0  3  0  0  0  0  0  0
  185.7240  178.1790  139.2540 C   0  0  0  0  0  0  0  0  0  0  0  0
  184.6270  179.4040  143.1100 C   0  0  0  0  0  3  0  0  0  0  0  0
  188.7640  178.9840  137.1300 C   0  0  0  0  0  2  0  0  0  0  0  0
  183.6870  179.2020  142.1510 N   0  0  0  0  0  0  0  0  0  0  0  0
  187.4190  178.3020  137.3880 C   0  0  0  0  0  2  0  0  0  0  0  0
  189.5330  177.7580  139.8110 C   0  0  1  0  0  3  0  0  0  0  0  0
  185.9730  179.1850  142.8270 C   0  0  0  0  0  3  0  0  0  0  0  0
  187.8030  178.4920  141.2910 C   0  0  1  0  0  3  0  0  0  0  0  0
  191.1770  176.3340  138.5430 C   0  0  0  0  0  3  0  0  0  0  0  0
  192.0540  176.3920  137.5410 C   0  0  0  0  0  3  0  0  0  0  0  0
  193.3930  173.7690  136.1770 O   0  0  0  0  0  0  0  0  0  0  0  0
  194.1950  175.9740  136.4130 C   0  0  0  0  0  2  0  0  0  0  0  0
  193.3510  175.6540  137.6130 C   0  0  2  0  0  3  0  0  0  0  0  0
  194.4100  174.6340  135.7530 C   0  0  0  0  0  2  0  0  0  0  0  0
  193.0940  174.1690  137.4890 C   0  0  0  0  0  2  0  0  0  0  0  0
  1 26  1  0  0  0  0
  3  7  1  6  0  0  0
  3 19  1  0  0  0  0
  3 16  1  0  0  0  0
  4 23  2  0  0  0  0
  5 15  2  0  0  0  0
  8 12  1  0  0  0  0
  9 27  1  0  0  0  0
 10 17  1  0  0  0  0
 11  5  1  0  0  0  0
 11 20  2  0  0  0  0
 13 20  1  0  0  0  0
 13  9  1  0  0  0  0
 14  2  1  0  0  0  0
 15 12  1  0  0  0  0
 15  4  1  0  0  0  0
 16  8  1  0  0  0  0
 17 28  1  0  0  0  0
 17 25  1  0  0  0  0
 18  4  1  0  0  0  0
 18  1  2  0  0  0  0
 19  6  1  0  0  0  0
 19  5  1  0  0  0  0
 20 18  1  0  0  0  0
 22 10  1  0  0  0  0
 22 24  1  0  0  0  0
 23 21  1  0  0  0  0
 24 13  1  0  0  0  0
 25  9  1  0  0  0  0
 25 14  1  0  0  0  0
 26 21  2  0  0  0  0
 27  1  1  0  0  0  0
 27  2  1  0  0  0  0
 29 32  1  0  0  0  0
 29 28  2  0  0  0  0
 30 34  1  0  0  0  0
 31 32  1  0  0  0  0
 33 30  1  0  0  0  0
 33 31  1  0  0  0  0
 34 32  1  0  0  0  0
M  END
>  <MODEL>
6

>  <REMARK>
 VINA RESULT:      -7.2      4.974      6.579
  Name = 
  2 active torsions:
  status: ('A' for Active; 'I' for Inactive)
    1  A    between atoms: C_17  and  C_28
    2  A    between atoms: C_29  and  C_32
                            x       y       z     vdW  Elec       q    Type
                         _______ _______ _______ _____ _____    ______ ____

>  <TORSDO>
F 2

$$$$
=
 OpenBabel11122412173D

 34 40  0  0  1  0  0  0  0  0999 V2000
  182.0260  179.2860  142.8710 C   0  0  0  0  0  0  0  0  0  0  0  0
  183.4480  178.2640  144.6580 C   0  0  0  0  0  2  0  0  0  0  0  0
  180.3580  177.0550  136.8420 C   0  0  2  0  0  3  0  0  0  0  0  0
  180.5570  178.5860  141.0680 C   0  0  0  0  0  0  0  0  0  0  0  0
  181.4230  177.2620  139.2160 C   0  0  0  0  0  0  0  0  0  0  0  0
  180.8560  175.0410  138.2480 C   0  0  0  0  0  1  0  0  0  0  0  0
  180.9800  176.8090  135.4830 C   0  0  0  0  0  1  0  0  0  0  0  0
  178.9310  178.8020  137.9940 C   0  0  0  0  0  2  0  0  0  0  0  0
  184.5540  179.0950  142.6700 C   0  0  2  0  0  3  0  0  0  0  0  0
  187.5020  178.4190  141.8830 C   0  0  0  0  0  2  0  0  0  0  0  0
  182.6930  177.3160  139.7900 C   0  0  0  0  0  3  0  0  0  0  0  0
  178.9800  177.9010  139.2300 C   0  0  0  0  0  2  0  0  0  0  0  0
  184.3280  178.0200  141.5720 C   0  0  1  0  0  3  0  0  0  0  0  0
  184.9320  177.9840  144.8190 C   0  0  0  0  0  2  0  0  0  0  0  0
  180.3430  177.9060  139.8580 C   0  0  0  0  0  0  0  0  0  0  0  0
  180.0750  178.5470  137.0070 C   0  0  0  0  0  2  0  0  0  0  0  0
  186.7680  177.7760  143.0650 C   0  0  2  0  0  3  0  0  0  0  0  0
  181.8520  178.6250  141.6430 C   0  0  0  0  0  0  0  0  0  0  0  0
  181.2710  176.4670  137.9370 C   0  0  1  0  0  3  0  0  0  0  0  0
  182.9340  178.0160  140.9800 C   0  0  0  0  0  0  0  0  0  0  0  0
  179.6820  179.8560  142.8810 C   0  0  0  0  0  3  0  0  0  0  0  0
  186.6010  178.9760  140.7790 C   0  0  0  0  0  2  0  0  0  0  0  0
  179.5200  179.2050  141.7000 N   0  0  0  0  0  0  0  0  0  0  0  0
  185.4040  178.0770  140.4610 C   0  0  0  0  0  2  0  0  0  0  0  0
  185.6530  178.6700  143.6580 C   0  0  1  0  0  3  0  0  0  0  0  0
  180.9350  179.9020  143.4870 C   0  0  0  0  0  3  0  0  0  0  0  0
  183.3500  179.3110  143.5720 C   0  0  1  0  0  3  0  0  0  0  0  0
  187.7910  177.4130  144.0940 C   0  0  0  0  0  3  0  0  0  0  0  0
  188.8800  176.7220  143.7590 C   0  0  0  0  0  3  0  0  0  0  0  0
  192.0300  177.2850  144.3060 O   0  0  0  0  0  0  0  0  0  0  0  0
  190.1470  177.5170  145.7080 C   0  0  0  0  0  2  0  0  0  0  0  0
  189.9020  176.3570  144.7860 C   0  0  2  0  0  3  0  0  0  0  0  0
  191.6170  177.8120  145.5370 C   0  0  0  0  0  2  0  0  0  0  0  0
  191.2390  176.1420  144.1130 C   0  0  0  0  0  2  0  0  0  0  0  0
  1 26  1  0  0  0  0
  1 27  1  0  0  0  0
  2 14  1  0  0  0  0
  3  7  1  6  0  0  0
  3 16  1  0  0  0  0
  3 19  1  0  0  0  0
  4 18  1  0  0  0  0
  4 23  2  0  0  0  0
  5 11  1  0  0  0  0
  5 15  2  0  0  0  0
  8 12  1  0  0  0  0
  9 27  1  0  0  0  0
  9 25  1  0  0  0  0
 10 17  1  0  0  0  0
 11 20  2  0  0  0  0
 12 15  1  0  0  0  0
 13  9  1  0  0  0  0
 15  4  1  0  0  0  0
 16  8  1  0  0  0  0
 17 25  1  0  0  0  0
 17 28  1  0  0  0  0
 18  1  2  0  0  0  0
 19  6  1  0  0  0  0
 19  5  1  0  0  0  0
 20 13  1  0  0  0  0
 20 18  1  0  0  0  0
 21 26  2  0  0  0  0
 22 10  1  0  0  0  0
 23 21  1  0  0  0  0
 24 22  1  0  0  0  0
 24 13  1  0  0  0  0
 25 14  1  0  0  0  0
 27  2  1  0  0  0  0
 29 28  2  0  0  0  0
 29 32  1  0  0  0  0
 30 33  1  0  0  0  0
 32 31  1  0  0  0  0
 33 31  1  0  0  0  0
 34 30  1  0  0  0  0
 34 32  1  0  0  0  0
M  END
>  <MODEL>
7

>  <REMARK>
 VINA RESULT:      -7.1      1.487      1.747
  Name = 
  2 active torsions:
  status: ('A' for Active; 'I' for Inactive)
    1  A    between atoms: C_17  and  C_28
    2  A    between atoms: C_29  and  C_32
                            x       y       z     vdW  Elec       q    Type
                         _______ _______ _______ _____ _____    ______ ____

>  <TORSDO>
F 2

$$$$
=
 OpenBabel11122412173D

 34 40  0  0  1  0  0  0  0  0999 V2000
  182.4180  178.6450  142.5940 C   0  0  0  0  0  0  0  0  0  0  0  0
  181.0790  180.2210  141.1860 C   0  0  0  0  0  2  0  0  0  0  0  0
  188.9110  177.2460  142.5730 C   0  0  2  0  0  3  0  0  0  0  0  0
  184.6680  178.4350  143.4840 C   0  0  0  0  0  0  0  0  0  0  0  0
  186.5770  178.2530  141.9820 C   0  0  0  0  0  0  0  0  0  0  0  0
  188.6660  179.5640  141.6510 C   0  0  0  0  0  1  0  0  0  0  0  0
  189.9420  176.5390  141.7180 C   0  0  0  0  0  1  0  0  0  0  0  0
  187.5170  176.7940  144.6390 C   0  0  0  0  0  2  0  0  0  0  0  0
  181.9180  178.2030  140.1410 C   0  0  2  0  0  3  0  0  0  0  0  0
  182.0110  177.7290  137.0530 C   0  0  0  0  0  2  0  0  0  0  0  0
  185.7060  178.3030  140.8930 C   0  0  0  0  0  3  0  0  0  0  0  0
  186.9720  178.2150  144.4750 C   0  0  0  0  0  2  0  0  0  0  0  0
  183.4200  178.4650  139.8460 C   0  0  1  0  0  3  0  0  0  0  0  0
  180.6480  180.2560  139.7310 C   0  0  0  0  0  2  0  0  0  0  0  0
  186.0550  178.3160  143.2920 C   0  0  0  0  0  0  0  0  0  0  0  0
  188.0980  176.2100  143.3460 C   0  0  0  0  0  2  0  0  0  0  0  0
  181.6120  179.0610  137.6980 C   0  0  2  0  0  3  0  0  0  0  0  0
  183.7970  178.4920  142.3680 C   0  0  0  0  0  0  0  0  0  0  0  0
  188.0590  178.1740  141.6830 C   0  0  1  0  0  3  0  0  0  0  0  0
  184.3170  178.3890  141.0640 C   0  0  0  0  0  0  0  0  0  0  0  0
  182.8230  178.6400  144.9730 C   0  0  0  0  0  3  0  0  0  0  0  0
  182.8830  176.8190  137.9200 C   0  0  0  0  0  2  0  0  0  0  0  0
  184.1550  178.5050  144.7450 N   0  0  0  0  0  0  0  0  0  0  0  0
  183.9600  177.5750  138.7010 C   0  0  0  0  0  2  0  0  0  0  0  0
  181.0120  178.9050  139.1150 C   0  0  1  0  0  3  0  0  0  0  0  0
  181.9350  178.7170  143.9030 C   0  0  0  0  0  3  0  0  0  0  0  0
  181.4440  178.7800  141.4650 C   0  0  1  0  0  3  0  0  0  0  0  0
  180.6640  179.7510  136.7690 C   0  0  0  0  0  3  0  0  0  0  0  0
  180.7900  181.0510  136.5070 C   0  0  0  0  0  3  0  0  0  0  0  0
  179.3920  183.9690  136.2560 O   0  0  0  0  0  0  0  0  0  0  0  0
  180.5900  182.6840  134.6830 C   0  0  0  0  0  2  0  0  0  0  0  0
  179.8420  181.7420  135.5820 C   0  0  2  0  0  3  0  0  0  0  0  0
  179.9890  184.0340  134.9900 C   0  0  0  0  0  2  0  0  0  0  0  0
  178.9310  182.6490  136.3780 C   0  0  0  0  0  2  0  0  0  0  0  0
  1 26  1  0  0  0  0
  2 27  1  0  0  0  0
  3  7  1  6  0  0  0
  3 16  1  0  0  0  0
  4 23  2  0  0  0  0
  5 15  2  0  0  0  0
  6 19  1  0  0  0  0
  9 27  1  0  0  0  0
 10 17  1  0  0  0  0
 10 22  1  0  0  0  0
 11 20  2  0  0  0  0
 11  5  1  0  0  0  0
 12  8  1  0  0  0  0
 13  9  1  0  0  0  0
 13 20  1  0  0  0  0
 14  2  1  0  0  0  0
 15  4  1  0  0  0  0
 15 12  1  0  0  0  0
 16  8  1  0  0  0  0
 17 25  1  0  0  0  0
 18  1  2  0  0  0  0
 18  4  1  0  0  0  0
 19  5  1  0  0  0  0
 19  3  1  0  0  0  0
 20 18  1  0  0  0  0
 22 24  1  0  0  0  0
 23 21  1  0  0  0  0
 24 13  1  0  0  0  0
 25 14  1  0  0  0  0
 25  9  1  0  0  0  0
 26 21  2  0  0  0  0
 27  1  1  0  0  0  0
 28 17  1  0  0  0  0
 29 28  2  0  0  0  0
 30 34  1  0  0  0  0
 31 33  1  0  0  0  0
 31 32  1  0  0  0  0
 32 34  1  0  0  0  0
 32 29  1  0  0  0  0
 33 30  1  0  0  0  0
M  END
>  <MODEL>
8

>  <REMARK>
 VINA RESULT:      -6.8      3.615      8.862
  Name = 
  2 active torsions:
  status: ('A' for Active; 'I' for Inactive)
    1  A    between atoms: C_17  and  C_28
    2  A    between atoms: C_29  and  C_32
                            x       y       z     vdW  Elec       q    Type
                         _______ _______ _______ _____ _____    ______ ____

>  <TORSDO>
F 2

$$$$
=
 OpenBabel11122412173D

 34 40  0  0  1  0  0  0  0  0999 V2000
  183.7810  178.4520  144.5880 C   0  0  0  0  0  0  0  0  0  0  0  0
  182.0380  180.0730  143.8160 C   0  0  0  0  0  2  0  0  0  0  0  0
  189.8010  177.0580  142.1550 C   0  0  2  0  0  3  0  0  0  0  0  0
  186.1980  178.2140  144.5890 C   0  0  0  0  0  0  0  0  0  0  0  0
  187.4240  178.0820  142.4880 C   0  0  0  0  0  0  0  0  0  0  0  0
  189.2630  179.4050  141.4580 C   0  0  0  0  0  1  0  0  0  0  0  0
  190.4410  176.3790  140.9610 C   0  0  0  0  0  1  0  0  0  0  0  0
  189.2520  176.5380  144.5730 C   0  0  0  0  0  2  0  0  0  0  0  0
  182.4140  178.0910  142.4750 C   0  0  2  0  0  3  0  0  0  0  0  0
  181.3690  177.7180  139.5530 C   0  0  0  0  0  2  0  0  0  0  0  0
  186.2160  178.1680  141.7950 C   0  0  0  0  0  3  0  0  0  0  0  0
  188.7010  177.9630  144.6630 C   0  0  0  0  0  2  0  0  0  0  0  0
  183.7080  178.3630  141.6600 C   0  0  1  0  0  3  0  0  0  0  0  0
  181.1060  180.1560  142.6200 C   0  0  0  0  0  2  0  0  0  0  0  0
  187.4170  178.1030  143.8990 C   0  0  0  0  0  0  0  0  0  0  0  0
  189.3140  175.9970  143.1390 C   0  0  0  0  0  2  0  0  0  0  0  0
  181.2480  179.0280  140.3400 C   0  0  2  0  0  3  0  0  0  0  0  0
  184.9800  178.3080  143.8700 C   0  0  0  0  0  0  0  0  0  0  0  0
  188.6940  178.0140  141.6670 C   0  0  1  0  0  3  0  0  0  0  0  0
  184.9870  178.2470  142.4640 C   0  0  0  0  0  0  0  0  0  0  0  0
  185.0250  178.3690  146.6540 C   0  0  0  0  0  3  0  0  0  0  0  0
  182.4860  176.7810  140.0130 C   0  0  0  0  0  2  0  0  0  0  0  0
  186.1800  178.2430  145.9510 N   0  0  0  0  0  0  0  0  0  0  0  0
  183.7830  177.5110  140.3710 C   0  0  0  0  0  2  0  0  0  0  0  0
  181.2040  178.8260  141.8730 C   0  0  1  0  0  3  0  0  0  0  0  0
  183.8090  178.4810  145.9850 C   0  0  0  0  0  3  0  0  0  0  0  0
  182.4630  178.6240  143.8980 C   0  0  1  0  0  3  0  0  0  0  0  0
  180.0340  179.7480  139.8430 C   0  0  0  0  0  3  0  0  0  0  0  0
  180.1420  180.7350  138.9540 C   0  0  0  0  0  3  0  0  0  0  0  0
  179.3740  183.7360  137.9850 O   0  0  0  0  0  0  0  0  0  0  0  0
  179.0090  181.6380  136.9700 C   0  0  0  0  0  2  0  0  0  0  0  0
  178.9310  181.4560  138.4590 C   0  0  2  0  0  3  0  0  0  0  0  0
  178.9710  183.1350  136.7850 C   0  0  0  0  0  2  0  0  0  0  0  0
  178.9310  182.8690  138.9960 C   0  0  0  0  0  2  0  0  0  0  0  0
  1 26  1  0  0  0  0
  2 27  1  0  0  0  0
  3  7  1  6  0  0  0
  3 16  1  0  0  0  0
  4 23  2  0  0  0  0
  5 15  2  0  0  0  0
  6 19  1  0  0  0  0
  8 12  1  0  0  0  0
  9 27  1  0  0  0  0
 10 22  1  0  0  0  0
 10 17  1  0  0  0  0
 11 20  2  0  0  0  0
 11  5  1  0  0  0  0
 13 20  1  0  0  0  0
 13  9  1  0  0  0  0
 14  2  1  0  0  0  0
 15  4  1  0  0  0  0
 15 12  1  0  0  0  0
 16  8  1  0  0  0  0
 17 25  1  0  0  0  0
 18  1  2  0  0  0  0
 18  4  1  0  0  0  0
 19  3  1  0  0  0  0
 19  5  1  0  0  0  0
 20 18  1  0  0  0  0
 22 24  1  0  0  0  0
 23 21  1  0  0  0  0
 24 13  1  0  0  0  0
 25  9  1  0  0  0  0
 25 14  1  0  0  0  0
 26 21  2  0  0  0  0
 27  1  1  0  0  0  0
 28 17  1  0  0  0  0
 29 28  2  0  0  0  0
 30 34  1  0  0  0  0
 31 32  1  0  0  0  0
 32 29  1  0  0  0  0
 32 34  1  0  0  0  0
 33 31  1  0  0  0  0
 33 30  1  0  0  0  0
M  END
>  <MODEL>
9

>  <REMARK>
 VINA RESULT:      -5.9      3.530      8.628
  Name = 
  2 active torsions:
  status: ('A' for Active; 'I' for Inactive)
    1  A    between atoms: C_17  and  C_28
    2  A    between atoms: C_29  and  C_32
                            x       y       z     vdW  Elec       q    Type
                         _______ _______ _______ _____ _____    ______ ____

>  <TORSDO>
F 2

$$$$
