=
 OpenBabel11122411313D

 37 44  0  0  1  0  0  0  0  0999 V2000
  188.3970  178.6490  140.8370 C   0  0  0  0  0  2  0  0  0  0  0  0
  183.5950  178.6400  139.5510 C   0  0  0  0  0  0  0  0  0  0  0  0
  184.7940  178.6350  143.5230 C   0  0  0  0  0  0  0  0  0  0  0  0
  189.3680  178.2740  139.8100 N   0  0  0  0  0  0  0  0  0  0  0  0
  188.0920  176.6850  144.3390 C   0  0  0  0  0  2  0  0  0  0  0  0
  182.9610  178.8910  141.9380 C   0  0  0  0  0  0  0  0  0  0  0  0
  186.1240  177.9990  143.4520 C   0  0  0  0  0  0  0  0  0  0  0  0
  190.8060  177.1270  141.5140 C   0  0  2  0  0  3  0  0  0  0  0  0
  184.3630  178.7660  142.2850 C   0  0  0  0  0  0  0  0  0  0  0  0
  186.8940  177.6010  144.5130 C   0  0  0  0  0  0  0  0  0  0  0  0
  182.0650  179.0230  142.8720 N   0  0  0  0  0  0  0  0  0  0  0  0
  190.3690  177.2300  140.0460 C   0  0  0  0  0  2  0  0  0  0  0  0
  185.2910  178.3150  141.3300 N   0  0  0  0  0  0  0  0  0  0  0  0
  184.0120  180.0320  139.1130 C   0  0  0  0  0  1  0  0  0  0  0  0
  184.1530  178.6130  145.9010 C   0  0  0  0  0  3  0  0  0  0  0  0
  182.4000  179.1430  144.3040 C   0  0  0  0  0  2  0  0  0  0  0  0
  184.8440  177.8540  140.0150 C   0  0  0  0  0  2  0  0  0  0  0  0
  189.8760  176.3180  142.4400 C   0  0  1  0  0  3  0  0  0  0  0  0
  188.9400  177.2050  143.2280 C   0  0  1  0  0  3  0  0  0  0  0  0
  183.8270  178.7290  144.6250 C   0  0  0  0  0  0  0  0  0  0  0  0
  186.3870  177.7980  142.0260 N   0  0  0  0  0  0  0  0  0  0  0  0
  182.6050  178.7430  140.5930 O   0  0  0  0  0  0  0  0  0  0  0  0
  186.6400  177.9910  145.9400 C   0  0  0  0  0  0  0  0  0  0  0  0
  182.9860  177.9290  138.3620 C   0  0  0  0  0  1  0  0  0  0  0  0
  188.3870  176.3800  142.0940 C   0  0  1  0  0  3  0  0  0  0  0  0
  191.1560  178.3710  142.0470 O   0  0  0  0  0  1  0  0  0  0  0  0
  187.6130  177.4180  141.3010 C   0  0  2  0  0  3  0  0  0  0  0  0
  185.4760  178.3670  146.4850 C   0  0  0  0  0  3  0  0  0  0  0  0
  187.6610  178.5250  148.1540 C   0  0  0  0  0  3  0  0  0  0  0  0
  187.7710  177.9350  146.8890 C   0  0  0  0  0  0  0  0  0  0  0  0
  188.9820  177.3300  146.5290 C   0  0  0  0  0  3  0  0  0  0  0  0
  191.5690  176.5660  146.9860 Cl  0  0  0  0  0  0  0  0  0  0  0  0
  189.8990  177.9270  148.6720 C   0  0  0  0  0  3  0  0  0  0  0  0
  190.0530  177.3260  147.4210 C   0  0  0  0  0  0  0  0  0  0  0  0
  188.7150  178.5060  149.0110 N   0  0  0  0  0  0  0  0  0  0  0  0
  188.6390  178.5380  137.5160 C   0  0  0  0  0  2  0  0  0  0  0  0
  189.3850  178.9370  138.5440 C   0  0  0  0  0  3  0  0  0  0  0  0
  1 27  1  0  0  0  0
  2 17  1  0  0  0  0
  2 22  1  0  0  0  0
  3 20  1  0  0  0  0
  4 12  1  0  0  0  0
  4  1  1  0  0  0  0
  5 10  1  0  0  0  0
  6  9  1  0  0  0  0
  6 11  2  0  0  0  0
  7  3  1  0  0  0  0
  7 10  2  0  0  0  0
  8 26  1  1  0  0  0
  8 18  1  0  0  0  0
  9  3  2  0  0  0  0
 10 23  1  0  0  0  0
 11 16  1  0  0  0  0
 12  8  1  0  0  0  0
 13 21  1  0  0  0  0
 13  9  1  0  0  0  0
 14  2  1  0  0  0  0
 15 28  1  0  0  0  0
 16 20  1  0  0  0  0
 17 13  1  0  0  0  0
 18 19  1  0  0  0  0
 19  5  1  0  0  0  0
 20 15  2  0  0  0  0
 21  7  1  0  0  0  0
 22  6  1  0  0  0  0
 23 28  2  0  0  0  0
 23 30  1  0  0  0  0
 24  2  1  0  0  0  0
 25 18  1  0  0  0  0
 25 19  1  0  0  0  0
 27 21  1  0  0  0  0
 27 25  1  0  0  0  0
 29 35  1  0  0  0  0
 30 29  2  0  0  0  0
 31 30  1  0  0  0  0
 31 34  2  0  0  0  0
 32 34  1  0  0  0  0
 33 35  2  0  0  0  0
 34 33  1  0  0  0  0
 36 37  2  0  0  0  0
 37  4  1  0  0  0  0
M  END
>  <MODEL>
1

>  <REMARK>
 VINA RESULT:     -10.1      0.000      0.000
  Name = 
  2 active torsions:
  status: ('A' for Active; 'I' for Inactive)
    1  A    between atoms: N_4  and  C_37
    2  A    between atoms: C_23  and  C_30
                            x       y       z     vdW  Elec       q    Type
                         _______ _______ _______ _____ _____    ______ ____

>  <TORSDO>
F 2

$$$$
=
 OpenBabel11122411313D

 37 44  0  0  1  0  0  0  0  0999 V2000
  189.0140  176.5060  139.1480 C   0  0  0  0  0  2  0  0  0  0  0  0
  190.4950  177.6870  143.7440 C   0  0  0  0  0  0  0  0  0  0  0  0
  186.5150  177.9340  142.5990 C   0  0  0  0  0  0  0  0  0  0  0  0
  190.0400  176.4360  138.1090 N   0  0  0  0  0  0  0  0  0  0  0  0
  185.8380  178.9670  138.8820 C   0  0  0  0  0  2  0  0  0  0  0  0
  188.1270  177.9790  144.4270 C   0  0  0  0  0  0  0  0  0  0  0  0
  186.6180  178.1490  141.1430 C   0  0  0  0  0  0  0  0  0  0  0  0
  188.4540  177.3650  136.4050 C   0  0  2  0  0  3  0  0  0  0  0  0
  187.7410  177.7500  143.0480 C   0  0  0  0  0  0  0  0  0  0  0  0
  185.5900  178.4640  140.2920 C   0  0  0  0  0  0  0  0  0  0  0  0
  187.2230  178.2450  145.3240 N   0  0  0  0  0  0  0  0  0  0  0  0
  189.9100  177.1760  136.8500 C   0  0  0  0  0  2  0  0  0  0  0  0
  188.7080  177.7750  142.0290 N   0  0  0  0  0  0  0  0  0  0  0  0
  190.7160  176.1850  143.7430 C   0  0  0  0  0  1  0  0  0  0  0  0
  184.1940  178.4860  143.2110 C   0  0  0  0  0  3  0  0  0  0  0  0
  185.7760  178.2460  145.0390 C   0  0  0  0  0  2  0  0  0  0  0  0
  190.0930  178.1460  142.3230 C   0  0  0  0  0  2  0  0  0  0  0  0
  187.6910  178.5310  137.0650 C   0  0  1  0  0  3  0  0  0  0  0  0
  186.8280  178.0710  138.2170 C   0  0  1  0  0  3  0  0  0  0  0  0
  185.4540  178.2810  143.5540 C   0  0  0  0  0  0  0  0  0  0  0  0
  188.0450  178.0560  140.8320 N   0  0  0  0  0  0  0  0  0  0  0  0
  189.4940  178.0230  144.7230 O   0  0  0  0  0  0  0  0  0  0  0  0
  184.1350  178.3760  140.6500 C   0  0  0  0  0  0  0  0  0  0  0  0
  191.7980  178.3600  144.1220 C   0  0  0  0  0  1  0  0  0  0  0  0
  188.0890  178.8430  138.5090 C   0  0  1  0  0  3  0  0  0  0  0  0
  187.7370  176.1650  136.4260 O   0  0  0  0  0  1  0  0  0  0  0  0
  188.7620  177.9630  139.5470 C   0  0  2  0  0  3  0  0  0  0  0  0
  183.5940  178.4290  141.8740 C   0  0  0  0  0  3  0  0  0  0  0  0
  182.8400  176.9860  139.0300 C   0  0  0  0  0  3  0  0  0  0  0  0
  183.1550  178.2470  139.5510 C   0  0  0  0  0  0  0  0  0  0  0  0
  182.5550  179.3790  138.9870 C   0  0  0  0  0  3  0  0  0  0  0  0
  180.9050  180.6500  137.2120 Cl  0  0  0  0  0  0  0  0  0  0  0  0
  181.3830  177.9650  137.4330 C   0  0  0  0  0  3  0  0  0  0  0  0
  181.6670  179.2420  137.9220 C   0  0  0  0  0  0  0  0  0  0  0  0
  181.9680  176.8720  137.9950 N   0  0  0  0  0  0  0  0  0  0  0  0
  192.4290  176.0510  138.0140 C   0  0  0  0  0  2  0  0  0  0  0  0
  191.2000  175.6170  138.2810 C   0  0  0  0  0  3  0  0  0  0  0  0
  1 27  1  0  0  0  0
  2 24  1  0  0  0  0
  2 22  1  0  0  0  0
  3  9  2  0  0  0  0
  3 20  1  0  0  0  0
  4 37  1  0  0  0  0
  4  1  1  0  0  0  0
  5 10  1  0  0  0  0
  6 22  1  0  0  0  0
  6 11  2  0  0  0  0
  7  3  1  0  0  0  0
  8 26  1  1  0  0  0
  8 12  1  0  0  0  0
  8 18  1  0  0  0  0
  9  6  1  0  0  0  0
 10 23  1  0  0  0  0
 10  7  2  0  0  0  0
 12  4  1  0  0  0  0
 13 17  1  0  0  0  0
 13  9  1  0  0  0  0
 14  2  1  0  0  0  0
 15 20  2  0  0  0  0
 16 11  1  0  0  0  0
 17  2  1  0  0  0  0
 18 19  1  0  0  0  0
 18 25  1  0  0  0  0
 19 25  1  0  0  0  0
 19  5  1  0  0  0  0
 20 16  1  0  0  0  0
 21  7  1  0  0  0  0
 21 13  1  0  0  0  0
 23 28  2  0  0  0  0
 25 27  1  0  0  0  0
 27 21  1  0  0  0  0
 28 15  1  0  0  0  0
 29 30  1  0  0  0  0
 30 23  1  0  0  0  0
 31 30  2  0  0  0  0
 32 34  1  0  0  0  0
 33 34  2  0  0  0  0
 33 35  1  0  0  0  0
 34 31  1  0  0  0  0
 35 29  2  0  0  0  0
 36 37  2  0  0  0  0
M  END
>  <MODEL>
2

>  <REMARK>
 VINA RESULT:      -9.9      3.487      7.136
  Name = 
  2 active torsions:
  status: ('A' for Active; 'I' for Inactive)
    1  A    between atoms: N_4  and  C_37
    2  A    between atoms: C_23  and  C_30
                            x       y       z     vdW  Elec       q    Type
                         _______ _______ _______ _____ _____    ______ ____

>  <TORSDO>
F 2

$$$$
=
 OpenBabel11122411313D

 37 44  0  0  1  0  0  0  0  0999 V2000
  189.0540  176.6430  139.5250 C   0  0  0  0  0  2  0  0  0  0  0  0
  190.7660  177.8330  144.0370 C   0  0  0  0  0  0  0  0  0  0  0  0
  186.7140  177.8960  143.1500 C   0  0  0  0  0  0  0  0  0  0  0  0
  190.0140  176.6390  138.4210 N   0  0  0  0  0  0  0  0  0  0  0  0
  185.7510  178.9450  139.5010 C   0  0  0  0  0  2  0  0  0  0  0  0
  188.4350  177.9960  144.8730 C   0  0  0  0  0  0  0  0  0  0  0  0
  186.7120  178.1360  141.6940 C   0  0  0  0  0  0  0  0  0  0  0  0
  188.2780  177.5100  136.8370 C   0  0  2  0  0  3  0  0  0  0  0  0
  187.9730  177.7670  143.5180 C   0  0  0  0  0  0  0  0  0  0  0  0
  185.6180  178.4100  140.9160 C   0  0  0  0  0  0  0  0  0  0  0  0
  187.5780  178.2040  145.8300 N   0  0  0  0  0  0  0  0  0  0  0  0
  189.7680  177.3890  137.1870 C   0  0  0  0  0  2  0  0  0  0  0  0
  188.8700  177.8550  142.4400 N   0  0  0  0  0  0  0  0  0  0  0  0
  191.0600  176.3440  143.9970 C   0  0  0  0  0  1  0  0  0  0  0  0
  184.4120  178.3220  143.9160 C   0  0  0  0  0  3  0  0  0  0  0  0
  186.1170  178.1360  145.6370 C   0  0  0  0  0  2  0  0  0  0  0  0
  190.2520  178.2910  142.6520 C   0  0  0  0  0  2  0  0  0  0  0  0
  187.5030  178.6280  137.5640 C   0  0  1  0  0  3  0  0  0  0  0  0
  186.7390  178.1090  138.7600 C   0  0  1  0  0  3  0  0  0  0  0  0
  185.7000  178.1750  144.1760 C   0  0  0  0  0  0  0  0  0  0  0  0
  188.1190  178.1190  141.2920 N   0  0  0  0  0  0  0  0  0  0  0  0
  189.8140  178.1040  145.0830 O   0  0  0  0  0  0  0  0  0  0  0  0
  184.1950  178.2440  141.3620 C   0  0  0  0  0  0  0  0  0  0  0  0
  192.0560  178.5640  144.3440 C   0  0  0  0  0  1  0  0  0  0  0  0
  187.9770  178.9390  138.9850 C   0  0  1  0  0  3  0  0  0  0  0  0
  187.6240  176.2760  136.8830 O   0  0  0  0  0  1  0  0  0  0  0  0
  188.7560  178.0790  139.9630 C   0  0  2  0  0  3  0  0  0  0  0  0
  183.7310  178.2530  142.6190 C   0  0  0  0  0  3  0  0  0  0  0  0
  182.4460  179.1950  139.8560 C   0  0  0  0  0  3  0  0  0  0  0  0
  183.1550  178.0820  140.3260 C   0  0  0  0  0  0  0  0  0  0  0  0
  182.8300  176.8150  139.8250 C   0  0  0  0  0  3  0  0  0  0  0  0
  181.4060  175.0980  138.2410 Cl  0  0  0  0  0  0  0  0  0  0  0  0
  181.1340  177.8130  138.4400 C   0  0  0  0  0  3  0  0  0  0  0  0
  181.8150  176.6760  138.8800 C   0  0  0  0  0  0  0  0  0  0  0  0
  181.4640  179.0390  138.9310 N   0  0  0  0  0  0  0  0  0  0  0  0
  192.4090  176.3770  138.1770 C   0  0  0  0  0  2  0  0  0  0  0  0
  191.2210  175.8760  138.5060 C   0  0  0  0  0  3  0  0  0  0  0  0
  1 27  1  0  0  0  0
  2 24  1  0  0  0  0
  2 22  1  0  0  0  0
  3  9  2  0  0  0  0
  3 20  1  0  0  0  0
  4 37  1  0  0  0  0
  4  1  1  0  0  0  0
  5 10  1  0  0  0  0
  6 22  1  0  0  0  0
  6 11  2  0  0  0  0
  7  3  1  0  0  0  0
  8 26  1  1  0  0  0
  8 12  1  0  0  0  0
  8 18  1  0  0  0  0
  9  6  1  0  0  0  0
 10 23  1  0  0  0  0
 10  7  2  0  0  0  0
 12  4  1  0  0  0  0
 13 17  1  0  0  0  0
 13  9  1  0  0  0  0
 14  2  1  0  0  0  0
 15 20  2  0  0  0  0
 16 11  1  0  0  0  0
 17  2  1  0  0  0  0
 18 19  1  0  0  0  0
 18 25  1  0  0  0  0
 19 25  1  0  0  0  0
 19  5  1  0  0  0  0
 20 16  1  0  0  0  0
 21  7  1  0  0  0  0
 21 13  1  0  0  0  0
 23 28  2  0  0  0  0
 25 27  1  0  0  0  0
 27 21  1  0  0  0  0
 28 15  1  0  0  0  0
 29 30  1  0  0  0  0
 30 23  1  0  0  0  0
 31 30  2  0  0  0  0
 32 34  1  0  0  0  0
 33 34  2  0  0  0  0
 33 35  1  0  0  0  0
 34 31  1  0  0  0  0
 35 29  2  0  0  0  0
 36 37  2  0  0  0  0
M  END
>  <MODEL>
3

>  <REMARK>
 VINA RESULT:      -9.9      3.173      6.844
  Name = 
  2 active torsions:
  status: ('A' for Active; 'I' for Inactive)
    1  A    between atoms: N_4  and  C_37
    2  A    between atoms: C_23  and  C_30
                            x       y       z     vdW  Elec       q    Type
                         _______ _______ _______ _____ _____    ______ ____

>  <TORSDO>
F 2

$$$$
=
 OpenBabel11122411313D

 37 44  0  0  1  0  0  0  0  0999 V2000
  189.2010  176.4990  142.6260 C   0  0  0  0  0  2  0  0  0  0  0  0
  188.5090  177.9190  147.3390 C   0  0  0  0  0  0  0  0  0  0  0  0
  185.4700  178.1340  144.5230 C   0  0  0  0  0  0  0  0  0  0  0  0
  190.5810  176.3640  142.1600 N   0  0  0  0  0  0  0  0  0  0  0  0
  186.5590  178.9670  140.8530 C   0  0  0  0  0  2  0  0  0  0  0  0
  186.0960  178.2670  146.8750 C   0  0  0  0  0  0  0  0  0  0  0  0
  186.2190  178.2680  143.2580 C   0  0  0  0  0  0  0  0  0  0  0  0
  189.9530  177.2100  139.8860 C   0  0  2  0  0  3  0  0  0  0  0  0
  186.3590  177.9650  145.4810 C   0  0  0  0  0  0  0  0  0  0  0  0
  185.6910  178.5430  142.0240 C   0  0  0  0  0  0  0  0  0  0  0  0
  184.8950  178.5880  147.2580 N   0  0  0  0  0  0  0  0  0  0  0  0
  191.0500  177.0350  140.9450 C   0  0  0  0  0  2  0  0  0  0  0  0
  187.6800  177.9270  145.0030 N   0  0  0  0  0  0  0  0  0  0  0  0
  188.6600  176.4180  147.5050 C   0  0  0  0  0  1  0  0  0  0  0  0
  183.1390  178.7360  144.0040 C   0  0  0  0  0  3  0  0  0  0  0  0
  183.7290  178.5850  146.3560 C   0  0  0  0  0  2  0  0  0  0  0  0
  188.7990  178.3020  145.8680 C   0  0  0  0  0  2  0  0  0  0  0  0
  189.0130  178.4170  140.0810 C   0  0  1  0  0  3  0  0  0  0  0  0
  187.7120  178.0280  140.7430 C   0  0  1  0  0  3  0  0  0  0  0  0
  184.1060  178.5410  144.8840 C   0  0  0  0  0  0  0  0  0  0  0  0
  187.6310  178.1470  143.6240 N   0  0  0  0  0  0  0  0  0  0  0  0
  187.1870  178.3160  147.7500 O   0  0  0  0  0  0  0  0  0  0  0  0
  184.2270  178.4860  141.6950 C   0  0  0  0  0  0  0  0  0  0  0  0
  189.5260  178.6010  148.2290 C   0  0  0  0  0  1  0  0  0  0  0  0
  188.7340  178.8050  141.5340 C   0  0  1  0  0  3  0  0  0  0  0  0
  189.2650  176.0190  139.6390 O   0  0  0  0  0  1  0  0  0  0  0  0
  188.8430  177.9770  142.8020 C   0  0  2  0  0  3  0  0  0  0  0  0
  183.1980  178.6110  142.5430 C   0  0  0  0  0  3  0  0  0  0  0  0
  183.7140  179.4140  139.4360 C   0  0  0  0  0  3  0  0  0  0  0  0
  183.8380  178.3050  140.2820 C   0  0  0  0  0  0  0  0  0  0  0  0
  183.5490  177.0330  139.7730 C   0  0  0  0  0  3  0  0  0  0  0  0
  182.7830  175.3000  137.7990 Cl  0  0  0  0  0  0  0  0  0  0  0  0
  183.0280  178.0200  137.6410 C   0  0  0  0  0  3  0  0  0  0  0  0
  183.1400  176.8860  138.4480 C   0  0  0  0  0  0  0  0  0  0  0  0
  183.3190  179.2500  138.1460 N   0  0  0  0  0  0  0  0  0  0  0  0
  191.7010  175.6490  144.1850 C   0  0  0  0  0  2  0  0  0  0  0  0
  191.5140  175.5460  142.8710 C   0  0  0  0  0  3  0  0  0  0  0  0
  1 27  1  0  0  0  0
  2 14  1  0  0  0  0
  2 22  1  0  0  0  0
  2 24  1  0  0  0  0
  3 20  1  0  0  0  0
  3  9  2  0  0  0  0
  4  1  1  0  0  0  0
  4 37  1  0  0  0  0
  5 10  1  0  0  0  0
  6 11  2  0  0  0  0
  6 22  1  0  0  0  0
  7 21  1  0  0  0  0
  7  3  1  0  0  0  0
  8 26  1  1  0  0  0
  8 18  1  0  0  0  0
  8 12  1  0  0  0  0
  9  6  1  0  0  0  0
 10  7  2  0  0  0  0
 12  4  1  0  0  0  0
 13  9  1  0  0  0  0
 13 17  1  0  0  0  0
 15 20  2  0  0  0  0
 16 11  1  0  0  0  0
 17  2  1  0  0  0  0
 18 19  1  0  0  0  0
 18 25  1  0  0  0  0
 19  5  1  0  0  0  0
 19 25  1  0  0  0  0
 20 16  1  0  0  0  0
 21 13  1  0  0  0  0
 23 10  1  0  0  0  0
 23 28  2  0  0  0  0
 25 27  1  0  0  0  0
 27 21  1  0  0  0  0
 28 15  1  0  0  0  0
 29 30  1  0  0  0  0
 30 23  1  0  0  0  0
 31 30  2  0  0  0  0
 32 34  1  0  0  0  0
 33 35  1  0  0  0  0
 33 34  2  0  0  0  0
 34 31  1  0  0  0  0
 35 29  2  0  0  0  0
 37 36  2  0  0  0  0
M  END
>  <MODEL>
4

>  <REMARK>
 VINA RESULT:      -9.8      2.996      6.658
  Name = 
  2 active torsions:
  status: ('A' for Active; 'I' for Inactive)
    1  A    between atoms: N_4  and  C_37
    2  A    between atoms: C_23  and  C_30
                            x       y       z     vdW  Elec       q    Type
                         _______ _______ _______ _____ _____    ______ ____

>  <TORSDO>
F 2

$$$$
=
 OpenBabel11122411313D

 37 44  0  0  1  0  0  0  0  0999 V2000
  190.6410  177.9710  141.4330 C   0  0  0  0  0  2  0  0  0  0  0  0
  188.1960  177.8520  137.1070 C   0  0  0  0  0  0  0  0  0  0  0  0
  186.2410  178.5200  140.7050 C   0  0  0  0  0  0  0  0  0  0  0  0
  191.9860  177.3960  141.4610 N   0  0  0  0  0  0  0  0  0  0  0  0
  187.6870  176.6650  143.8380 C   0  0  0  0  0  2  0  0  0  0  0  0
  186.1130  178.5360  138.2710 C   0  0  0  0  0  0  0  0  0  0  0  0
  187.1270  177.8490  141.6760 C   0  0  0  0  0  0  0  0  0  0  0  0
  191.6270  176.5340  143.7870 C   0  0  2  0  0  3  0  0  0  0  0  0
  186.8290  178.4410  139.5280 C   0  0  0  0  0  0  0  0  0  0  0  0
  186.8620  177.6260  143.0010 C   0  0  0  0  0  0  0  0  0  0  0  0
  184.8520  178.8530  138.2600 N   0  0  0  0  0  0  0  0  0  0  0  0
  192.3690  176.3860  142.4510 C   0  0  0  0  0  2  0  0  0  0  0  0
  188.0820  177.8050  139.5830 N   0  0  0  0  0  0  0  0  0  0  0  0
  188.9940  179.1340  136.9560 C   0  0  0  0  0  1  0  0  0  0  0  0
  184.1200  178.9340  141.8870 C   0  0  0  0  0  3  0  0  0  0  0  0
  184.0970  179.2160  139.4740 C   0  0  0  0  0  2  0  0  0  0  0  0
  188.6280  177.1300  138.4050 C   0  0  0  0  0  2  0  0  0  0  0  0
  190.2120  175.9250  143.8450 C   0  0  1  0  0  3  0  0  0  0  0  0
  189.1330  176.9590  143.6240 C   0  0  1  0  0  3  0  0  0  0  0  0
  184.8070  178.8310  140.7620 C   0  0  0  0  0  0  0  0  0  0  0  0
  188.2830  177.3930  140.9020 N   0  0  0  0  0  0  0  0  0  0  0  0
  186.7890  178.1610  137.1040 O   0  0  0  0  0  0  0  0  0  0  0  0
  185.7380  178.2680  143.7620 C   0  0  0  0  0  0  0  0  0  0  0  0
  188.5050  176.9560  135.9260 C   0  0  0  0  0  1  0  0  0  0  0  0
  189.4260  175.9610  142.5330 C   0  0  1  0  0  3  0  0  0  0  0  0
  191.6760  177.8440  144.2740 O   0  0  0  0  0  1  0  0  0  0  0  0
  189.5920  176.8610  141.3210 C   0  0  2  0  0  3  0  0  0  0  0  0
  184.5980  178.7630  143.2630 C   0  0  0  0  0  3  0  0  0  0  0  0
  184.7190  178.6110  146.0150 C   0  0  0  0  0  3  0  0  0  0  0  0
  185.8520  178.3540  145.2320 C   0  0  0  0  0  0  0  0  0  0  0  0
  187.0930  178.2190  145.8660 C   0  0  0  0  0  3  0  0  0  0  0  0
  188.7340  178.1730  148.0550 Cl  0  0  0  0  0  0  0  0  0  0  0  0
  186.0340  178.6050  147.9920 C   0  0  0  0  0  3  0  0  0  0  0  0
  187.1890  178.3460  147.2510 C   0  0  0  0  0  0  0  0  0  0  0  0
  184.8320  178.7270  147.3640 N   0  0  0  0  0  0  0  0  0  0  0  0
  193.3590  177.0820  139.4910 C   0  0  0  0  0  2  0  0  0  0  0  0
  192.9820  177.8250  140.5290 C   0  0  0  0  0  3  0  0  0  0  0  0
  1  4  1  0  0  0  0
  2 17  1  0  0  0  0
  3 20  1  0  0  0  0
  3  7  1  0  0  0  0
  4 12  1  0  0  0  0
  6  9  1  0  0  0  0
  7 10  2  0  0  0  0
  8 18  1  0  0  0  0
  8 26  1  6  0  0  0
  9 13  1  0  0  0  0
  9  3  2  0  0  0  0
 10 23  1  0  0  0  0
 10  5  1  0  0  0  0
 11  6  2  0  0  0  0
 11 16  1  0  0  0  0
 12  8  1  0  0  0  0
 13 21  1  0  0  0  0
 14  2  1  0  0  0  0
 15 28  1  0  0  0  0
 16 20  1  0  0  0  0
 17 13  1  0  0  0  0
 19  5  1  0  0  0  0
 19 18  1  0  0  0  0
 20 15  2  0  0  0  0
 21 27  1  0  0  0  0
 21  7  1  0  0  0  0
 22  2  1  0  0  0  0
 22  6  1  0  0  0  0
 23 30  1  0  0  0  0
 24  2  1  0  0  0  0
 25 19  1  0  0  0  0
 25 18  1  0  0  0  0
 27  1  1  0  0  0  0
 27 25  1  0  0  0  0
 28 23  2  0  0  0  0
 29 35  1  0  0  0  0
 30 31  1  0  0  0  0
 30 29  2  0  0  0  0
 31 34  2  0  0  0  0
 34 33  1  0  0  0  0
 34 32  1  0  0  0  0
 35 33  2  0  0  0  0
 36 37  2  0  0  0  0
 37  4  1  0  0  0  0
M  END
>  <MODEL>
5

>  <REMARK>
 VINA RESULT:      -9.4      2.136      3.639
  Name = 
  2 active torsions:
  status: ('A' for Active; 'I' for Inactive)
    1  A    between atoms: N_4  and  C_37
    2  A    between atoms: C_23  and  C_30
                            x       y       z     vdW  Elec       q    Type
                         _______ _______ _______ _____ _____    ______ ____

>  <TORSDO>
F 2

$$$$
=
 OpenBabel11122411313D

 37 44  0  0  1  0  0  0  0  0999 V2000
  184.5000  176.9700  137.9730 C   0  0  0  0  0  2  0  0  0  0  0  0
  189.0470  176.9860  135.9630 C   0  0  0  0  0  0  0  0  0  0  0  0
  188.4590  177.4490  140.0440 C   0  0  0  0  0  0  0  0  0  0  0  0
  183.3670  177.1790  137.0720 N   0  0  0  0  0  0  0  0  0  0  0  0
  185.2200  179.3690  141.1250 C   0  0  0  0  0  2  0  0  0  0  0  0
  190.0450  177.0600  138.2340 C   0  0  0  0  0  0  0  0  0  0  0  0
  187.1010  178.0230  140.1050 C   0  0  0  0  0  0  0  0  0  0  0  0
  182.1410  178.4790  138.8300 C   0  0  2  0  0  3  0  0  0  0  0  0
  188.7060  177.1780  138.7780 C   0  0  0  0  0  0  0  0  0  0  0  0
  186.4790  178.5240  141.2180 C   0  0  0  0  0  0  0  0  0  0  0  0
  191.0760  177.0780  139.0270 N   0  0  0  0  0  0  0  0  0  0  0  0
  182.3570  178.2080  137.3350 C   0  0  0  0  0  2  0  0  0  0  0  0
  187.6220  177.4720  137.9330 N   0  0  0  0  0  0  0  0  0  0  0  0
  188.6440  175.5360  135.7640 C   0  0  0  0  0  1  0  0  0  0  0  0
  189.4480  177.7930  142.2730 C   0  0  0  0  0  3  0  0  0  0  0  0
  190.9670  177.1280  140.4970 C   0  0  0  0  0  2  0  0  0  0  0  0
  187.8410  177.7800  136.5180 C   0  0  0  0  0  2  0  0  0  0  0  0
  183.1550  179.4310  139.4970 C   0  0  1  0  0  3  0  0  0  0  0  0
  184.2450  178.6840  140.2300 C   0  0  1  0  0  3  0  0  0  0  0  0
  189.5840  177.5280  140.9850 C   0  0  0  0  0  0  0  0  0  0  0  0
  186.6170  178.0340  138.7240 N   0  0  0  0  0  0  0  0  0  0  0  0
  190.1860  177.0500  136.8420 O   0  0  0  0  0  0  0  0  0  0  0  0
  186.9650  178.3260  142.6240 C   0  0  0  0  0  0  0  0  0  0  0  0
  189.4310  177.5630  134.6170 C   0  0  0  0  0  1  0  0  0  0  0  0
  184.5760  179.3780  138.9330 C   0  0  1  0  0  3  0  0  0  0  0  0
  181.9420  177.3010  139.5550 O   0  0  0  0  0  1  0  0  0  0  0  0
  185.2770  178.2760  138.1590 C   0  0  2  0  0  3  0  0  0  0  0  0
  188.2160  178.0630  143.0220 C   0  0  0  0  0  3  0  0  0  0  0  0
  186.4200  178.4670  145.0560 C   0  0  0  0  0  3  0  0  0  0  0  0
  185.9880  178.4620  143.7240 C   0  0  0  0  0  0  0  0  0  0  0  0
  184.6150  178.5470  143.4600 C   0  0  0  0  0  3  0  0  0  0  0  0
  181.9870  178.7420  144.1940 Cl  0  0  0  0  0  0  0  0  0  0  0  0
  184.1800  178.6290  145.8250 C   0  0  0  0  0  3  0  0  0  0  0  0
  183.7050  178.6280  144.5120 C   0  0  0  0  0  0  0  0  0  0  0  0
  185.5170  178.5530  146.0680 N   0  0  0  0  0  0  0  0  0  0  0  0
  184.2150  175.9920  135.1390 C   0  0  0  0  0  2  0  0  0  0  0  0
  183.1960  176.3610  135.9120 C   0  0  0  0  0  3  0  0  0  0  0  0
  1 27  1  0  0  0  0
  2 17  1  0  0  0  0
  2 22  1  0  0  0  0
  3  7  1  0  0  0  0
  3 20  1  0  0  0  0
  4 12  1  0  0  0  0
  4  1  1  0  0  0  0
  5 10  1  0  0  0  0
  6  9  1  0  0  0  0
  6 11  2  0  0  0  0
  7 10  2  0  0  0  0
  8 18  1  0  0  0  0
  8 26  1  1  0  0  0
  9  3  2  0  0  0  0
 10 23  1  0  0  0  0
 11 16  1  0  0  0  0
 12  8  1  0  0  0  0
 13 21  1  0  0  0  0
 13  9  1  0  0  0  0
 14  2  1  0  0  0  0
 15 28  1  0  0  0  0
 16 20  1  0  0  0  0
 17 13  1  0  0  0  0
 18 19  1  0  0  0  0
 19  5  1  0  0  0  0
 20 15  2  0  0  0  0
 21  7  1  0  0  0  0
 22  6  1  0  0  0  0
 23 28  2  0  0  0  0
 23 30  1  0  0  0  0
 24  2  1  0  0  0  0
 25 18  1  0  0  0  0
 25 19  1  0  0  0  0
 27 21  1  0  0  0  0
 27 25  1  0  0  0  0
 29 35  1  0  0  0  0
 30 29  2  0  0  0  0
 31 30  1  0  0  0  0
 31 34  2  0  0  0  0
 32 34  1  0  0  0  0
 33 35  2  0  0  0  0
 34 33  1  0  0  0  0
 36 37  2  0  0  0  0
 37  4  1  0  0  0  0
M  END
>  <MODEL>
6

>  <REMARK>
 VINA RESULT:      -9.1      2.917      6.550
  Name = 
  2 active torsions:
  status: ('A' for Active; 'I' for Inactive)
    1  A    between atoms: N_4  and  C_37
    2  A    between atoms: C_23  and  C_30
                            x       y       z     vdW  Elec       q    Type
                         _______ _______ _______ _____ _____    ______ ____

>  <TORSDO>
F 2

$$$$
=
 OpenBabel11122411313D

 37 44  0  0  1  0  0  0  0  0999 V2000
  184.5750  176.9600  137.9450 C   0  0  0  0  0  2  0  0  0  0  0  0
  189.1190  177.0310  135.9310 C   0  0  0  0  0  0  0  0  0  0  0  0
  188.5340  177.4240  140.0190 C   0  0  0  0  0  0  0  0  0  0  0  0
  183.4400  177.1770  137.0500 N   0  0  0  0  0  0  0  0  0  0  0  0
  185.2870  179.3110  141.1360 C   0  0  0  0  0  2  0  0  0  0  0  0
  190.1200  177.0730  138.2020 C   0  0  0  0  0  0  0  0  0  0  0  0
  187.1730  177.9910  140.0910 C   0  0  0  0  0  0  0  0  0  0  0  0
  182.2090  178.4430  138.8300 C   0  0  2  0  0  3  0  0  0  0  0  0
  188.7800  177.1750  138.7490 C   0  0  0  0  0  0  0  0  0  0  0  0
  186.5500  178.4710  141.2130 C   0  0  0  0  0  0  0  0  0  0  0  0
  191.1520  177.0840  138.9930 N   0  0  0  0  0  0  0  0  0  0  0  0
  182.4250  178.1970  137.3300 C   0  0  0  0  0  2  0  0  0  0  0  0
  187.6950  177.4780  137.9100 N   0  0  0  0  0  0  0  0  0  0  0  0
  188.7240  175.5820  135.7080 C   0  0  0  0  0  1  0  0  0  0  0  0
  189.5240  177.7370  142.2530 C   0  0  0  0  0  3  0  0  0  0  0  0
  191.0440  177.1090  140.4640 C   0  0  0  0  0  2  0  0  0  0  0  0
  187.9100  177.8100  136.5000 C   0  0  0  0  0  2  0  0  0  0  0  0
  183.2190  179.3880  139.5110 C   0  0  1  0  0  3  0  0  0  0  0  0
  184.3140  178.6350  140.2300 C   0  0  1  0  0  3  0  0  0  0  0  0
  189.6600  177.4940  140.9600 C   0  0  0  0  0  0  0  0  0  0  0  0
  186.6870  178.0220  138.7110 N   0  0  0  0  0  0  0  0  0  0  0  0
  190.2590  177.0860  136.8090 O   0  0  0  0  0  0  0  0  0  0  0  0
  187.0390  178.2530  142.6150 C   0  0  0  0  0  0  0  0  0  0  0  0
  189.4980  177.6320  134.5940 C   0  0  0  0  0  1  0  0  0  0  0  0
  184.6400  179.3520  138.9450 C   0  0  1  0  0  3  0  0  0  0  0  0
  182.0180  177.2520  139.5360 O   0  0  0  0  0  1  0  0  0  0  0  0
  185.3460  178.2660  138.1520 C   0  0  2  0  0  3  0  0  0  0  0  0
  188.2920  177.9890  143.0070 C   0  0  0  0  0  3  0  0  0  0  0  0
  184.6890  178.2880  143.4560 C   0  0  0  0  0  3  0  0  0  0  0  0
  186.0620  178.3650  143.7180 C   0  0  0  0  0  0  0  0  0  0  0  0
  186.4860  178.5880  145.0340 C   0  0  0  0  0  3  0  0  0  0  0  0
  186.0680  179.0090  147.7050 Cl  0  0  0  0  0  0  0  0  0  0  0  0
  184.1900  178.6540  145.7480 C   0  0  0  0  0  3  0  0  0  0  0  0
  185.5490  178.7360  146.0550 C   0  0  0  0  0  0  0  0  0  0  0  0
  183.7910  178.4290  144.4660 N   0  0  0  0  0  0  0  0  0  0  0  0
  184.2940  175.7980  135.2520 C   0  0  0  0  0  2  0  0  0  0  0  0
  183.2710  176.3780  135.8760 C   0  0  0  0  0  3  0  0  0  0  0  0
  1 27  1  0  0  0  0
  2 17  1  0  0  0  0
  2 22  1  0  0  0  0
  3  7  1  0  0  0  0
  3 20  1  0  0  0  0
  4 12  1  0  0  0  0
  4  1  1  0  0  0  0
  5 10  1  0  0  0  0
  6  9  1  0  0  0  0
  6 11  2  0  0  0  0
  7 10  2  0  0  0  0
  8 18  1  0  0  0  0
  8 26  1  1  0  0  0
  9  3  2  0  0  0  0
 10 23  1  0  0  0  0
 11 16  1  0  0  0  0
 12  8  1  0  0  0  0
 13 21  1  0  0  0  0
 13  9  1  0  0  0  0
 14  2  1  0  0  0  0
 15 28  1  0  0  0  0
 16 20  1  0  0  0  0
 17 13  1  0  0  0  0
 18 19  1  0  0  0  0
 19  5  1  0  0  0  0
 20 15  2  0  0  0  0
 21  7  1  0  0  0  0
 22  6  1  0  0  0  0
 23 28  2  0  0  0  0
 23 30  1  0  0  0  0
 24  2  1  0  0  0  0
 25 18  1  0  0  0  0
 25 19  1  0  0  0  0
 27 21  1  0  0  0  0
 27 25  1  0  0  0  0
 29 30  2  0  0  0  0
 29 35  1  0  0  0  0
 30 31  1  0  0  0  0
 31 34  2  0  0  0  0
 33 34  1  0  0  0  0
 34 32  1  0  0  0  0
 35 33  2  0  0  0  0
 36 37  2  0  0  0  0
 37  4  1  0  0  0  0
M  END
>  <MODEL>
7

>  <REMARK>
 VINA RESULT:      -8.9      2.641      6.418
  Name = 
  2 active torsions:
  status: ('A' for Active; 'I' for Inactive)
    1  A    between atoms: N_4  and  C_37
    2  A    between atoms: C_23  and  C_30
                            x       y       z     vdW  Elec       q    Type
                         _______ _______ _______ _____ _____    ______ ____

>  <TORSDO>
F 2

$$$$
=
 OpenBabel11122411313D

 37 44  0  0  1  0  0  0  0  0999 V2000
  189.0080  176.7960  144.0650 C   0  0  0  0  0  2  0  0  0  0  0  0
  184.8970  179.3310  142.8890 C   0  0  0  0  0  0  0  0  0  0  0  0
  187.4780  177.8830  139.9820 C   0  0  0  0  0  0  0  0  0  0  0  0
  189.4870  176.8960  145.4430 N   0  0  0  0  0  0  0  0  0  0  0  0
  191.2840  177.8310  140.9090 C   0  0  0  0  0  2  0  0  0  0  0  0
  185.3090  178.8760  140.4840 C   0  0  0  0  0  0  0  0  0  0  0  0
  188.7650  177.8230  140.7020 C   0  0  0  0  0  0  0  0  0  0  0  0
  191.8730  176.8240  144.6740 C   0  0  2  0  0  3  0  0  0  0  0  0
  186.5640  178.2500  140.8570 C   0  0  0  0  0  0  0  0  0  0  0  0
  189.9940  177.5660  140.1530 C   0  0  0  0  0  0  0  0  0  0  0  0
  184.9730  178.9700  139.2310 N   0  0  0  0  0  0  0  0  0  0  0  0
  190.8710  177.2700  145.7490 C   0  0  0  0  0  2  0  0  0  0  0  0
  187.0810  178.4180  142.1520 N   0  0  0  0  0  0  0  0  0  0  0  0
  184.3010  178.0440  143.4310 C   0  0  0  0  0  1  0  0  0  0  0  0
  188.0230  177.6660  137.5890 C   0  0  0  0  0  3  0  0  0  0  0  0
  185.7680  178.3890  138.1330 C   0  0  0  0  0  2  0  0  0  0  0  0
  186.4280  179.3170  143.1060 C   0  0  0  0  0  2  0  0  0  0  0  0
  191.9920  177.7410  143.4410 C   0  0  1  0  0  3  0  0  0  0  0  0
  191.1740  177.2410  142.2740 C   0  0  1  0  0  3  0  0  0  0  0  0
  187.1790  178.0060  138.5490 C   0  0  0  0  0  0  0  0  0  0  0  0
  188.4580  178.1940  142.0840 N   0  0  0  0  0  0  0  0  0  0  0  0
  184.5500  179.4700  141.4980 O   0  0  0  0  0  0  0  0  0  0  0  0
  190.2100  177.0300  138.7680 C   0  0  0  0  0  0  0  0  0  0  0  0
  184.3060  180.4910  143.6620 C   0  0  0  0  0  1  0  0  0  0  0  0
  190.7070  178.4600  143.0280 C   0  0  1  0  0  3  0  0  0  0  0  0
  191.7170  175.4760  144.3370 O   0  0  0  0  0  1  0  0  0  0  0  0
  189.2580  178.1110  143.3200 C   0  0  2  0  0  3  0  0  0  0  0  0
  189.3820  177.1280  137.7200 C   0  0  0  0  0  3  0  0  0  0  0  0
  192.7000  176.9040  138.8770 C   0  0  0  0  0  3  0  0  0  0  0  0
  191.4830  176.3370  138.4810 C   0  0  0  0  0  0  0  0  0  0  0  0
  191.5000  175.1270  137.7760 C   0  0  0  0  0  3  0  0  0  0  0  0
  192.7460  172.9950  136.5990 Cl  0  0  0  0  0  0  0  0  0  0  0  0
  193.9030  175.1120  137.8880 C   0  0  0  0  0  3  0  0  0  0  0  0
  192.7130  174.5110  137.4740 C   0  0  0  0  0  0  0  0  0  0  0  0
  193.8720  176.2840  138.5790 N   0  0  0  0  0  0  0  0  0  0  0  0
  188.5150  177.4020  147.6020 C   0  0  0  0  0  2  0  0  0  0  0  0
  188.6190  176.6050  146.5410 C   0  0  0  0  0  3  0  0  0  0  0  0
  1  4  1  0  0  0  0
  2 17  1  0  0  0  0
  2 14  1  0  0  0  0
  2 24  1  0  0  0  0
  3  7  1  0  0  0  0
  3  9  2  0  0  0  0
  4 12  1  0  0  0  0
  4 37  1  0  0  0  0
  5 19  1  0  0  0  0
  6  9  1  0  0  0  0
  6 22  1  0  0  0  0
  7 21  1  0  0  0  0
  8 26  1  6  0  0  0
  8 12  1  0  0  0  0
  9 13  1  0  0  0  0
 10  7  2  0  0  0  0
 10  5  1  0  0  0  0
 11  6  2  0  0  0  0
 13 17  1  0  0  0  0
 15 28  1  0  0  0  0
 15 20  2  0  0  0  0
 16 20  1  0  0  0  0
 16 11  1  0  0  0  0
 18  8  1  0  0  0  0
 19 25  1  0  0  0  0
 19 18  1  0  0  0  0
 20  3  1  0  0  0  0
 21 13  1  0  0  0  0
 21 27  1  0  0  0  0
 22  2  1  0  0  0  0
 23 10  1  0  0  0  0
 25 27  1  0  0  0  0
 25 18  1  0  0  0  0
 27  1  1  0  0  0  0
 28 23  2  0  0  0  0
 30 23  1  0  0  0  0
 30 29  2  0  0  0  0
 31 30  1  0  0  0  0
 32 34  1  0  0  0  0
 33 35  2  0  0  0  0
 34 31  2  0  0  0  0
 34 33  1  0  0  0  0
 35 29  1  0  0  0  0
 37 36  2  0  0  0  0
M  END
>  <MODEL>
8

>  <REMARK>
 VINA RESULT:      -8.3      2.902      6.741
  Name = 
  2 active torsions:
  status: ('A' for Active; 'I' for Inactive)
    1  A    between atoms: N_4  and  C_37
    2  A    between atoms: C_23  and  C_30
                            x       y       z     vdW  Elec       q    Type
                         _______ _______ _______ _____ _____    ______ ____

>  <TORSDO>
F 2

$$$$
=
 OpenBabel11122411313D

 37 44  0  0  1  0  0  0  0  0999 V2000
  188.4390  176.8560  142.2910 C   0  0  0  0  0  2  0  0  0  0  0  0
  185.5990  178.7850  145.8860 C   0  0  0  0  0  0  0  0  0  0  0  0
  184.1540  178.1850  142.0430 C   0  0  0  0  0  0  0  0  0  0  0  0
  189.8850  176.8560  142.5050 N   0  0  0  0  0  0  0  0  0  0  0  0
  186.7250  178.6620  139.1270 C   0  0  0  0  0  2  0  0  0  0  0  0
  183.6380  178.7210  144.3650 C   0  0  0  0  0  0  0  0  0  0  0  0
  185.3820  178.2530  141.2290 C   0  0  0  0  0  0  0  0  0  0  0  0
  190.2990  177.2910  140.0710 C   0  0  2  0  0  3  0  0  0  0  0  0
  184.5230  178.2750  143.3050 C   0  0  0  0  0  0  0  0  0  0  0  0
  185.4510  178.2820  139.8610 C   0  0  0  0  0  0  0  0  0  0  0  0
  182.3760  178.9180  144.1230 N   0  0  0  0  0  0  0  0  0  0  0  0
  190.8080  177.4170  141.5130 C   0  0  0  0  0  2  0  0  0  0  0  0
  185.9160  178.3600  143.4640 N   0  0  0  0  0  0  0  0  0  0  0  0
  185.7570  177.3560  146.3740 C   0  0  0  0  0  1  0  0  0  0  0  0
  182.2740  178.3760  140.4630 C   0  0  0  0  0  3  0  0  0  0  0  0
  181.7460  178.6280  142.8210 C   0  0  0  0  0  2  0  0  0  0  0  0
  186.4950  179.0040  144.6450 C   0  0  0  0  0  2  0  0  0  0  0  0
  189.2940  178.3670  139.6130 C   0  0  1  0  0  3  0  0  0  0  0  0
  187.8630  177.8900  139.7040 C   0  0  1  0  0  3  0  0  0  0  0  0
  182.7490  178.4400  141.6950 C   0  0  0  0  0  0  0  0  0  0  0  0
  186.4810  178.3840  142.1870 N   0  0  0  0  0  0  0  0  0  0  0  0
  184.2100  179.0420  145.6010 O   0  0  0  0  0  0  0  0  0  0  0  0
  184.3020  177.9740  138.9460 C   0  0  0  0  0  0  0  0  0  0  0  0
  186.0560  179.7180  146.9870 C   0  0  0  0  0  1  0  0  0  0  0  0
  188.3630  178.9040  140.7010 C   0  0  1  0  0  3  0  0  0  0  0  0
  189.8770  175.9920  139.7730 O   0  0  0  0  0  1  0  0  0  0  0  0
  187.9420  178.2790  142.0200 C   0  0  2  0  0  3  0  0  0  0  0  0
  182.9950  178.0650  139.2240 C   0  0  0  0  0  3  0  0  0  0  0  0
  183.5990  177.5370  136.5910 C   0  0  0  0  0  3  0  0  0  0  0  0
  184.6070  177.5510  137.5630 C   0  0  0  0  0  0  0  0  0  0  0  0
  185.8920  177.1210  137.2100 C   0  0  0  0  0  3  0  0  0  0  0  0
  187.7540  176.1490  135.4560 Cl  0  0  0  0  0  0  0  0  0  0  0  0
  185.1140  176.6840  134.9750 C   0  0  0  0  0  3  0  0  0  0  0  0
  186.1500  176.6830  135.9120 C   0  0  0  0  0  0  0  0  0  0  0  0
  183.8720  177.1110  135.3300 N   0  0  0  0  0  0  0  0  0  0  0  0
  190.5160  176.9420  144.8410 C   0  0  0  0  0  2  0  0  0  0  0  0
  190.4490  176.2830  143.6870 C   0  0  0  0  0  3  0  0  0  0  0  0
  1  4  1  0  0  0  0
  2 14  1  0  0  0  0
  2 24  1  0  0  0  0
  3  9  2  0  0  0  0
  4 37  1  0  0  0  0
  5 19  1  0  0  0  0
  5 10  1  0  0  0  0
  6 22  1  0  0  0  0
  7  3  1  0  0  0  0
  7 21  1  0  0  0  0
  8 26  1  1  0  0  0
  8 12  1  0  0  0  0
  9 13  1  0  0  0  0
  9  6  1  0  0  0  0
 10  7  2  0  0  0  0
 11  6  2  0  0  0  0
 12  4  1  0  0  0  0
 13 17  1  0  0  0  0
 15 20  2  0  0  0  0
 16 11  1  0  0  0  0
 17  2  1  0  0  0  0
 18 19  1  0  0  0  0
 18  8  1  0  0  0  0
 18 25  1  0  0  0  0
 19 25  1  0  0  0  0
 20  3  1  0  0  0  0
 20 16  1  0  0  0  0
 21 13  1  0  0  0  0
 22  2  1  0  0  0  0
 23 28  2  0  0  0  0
 23 10  1  0  0  0  0
 25 27  1  0  0  0  0
 27 21  1  0  0  0  0
 27  1  1  0  0  0  0
 28 15  1  0  0  0  0
 29 30  1  0  0  0  0
 30 23  1  0  0  0  0
 31 30  2  0  0  0  0
 32 34  1  0  0  0  0
 33 35  1  0  0  0  0
 33 34  2  0  0  0  0
 34 31  1  0  0  0  0
 35 29  2  0  0  0  0
 37 36  2  0  0  0  0
M  END
>  <MODEL>
9

>  <REMARK>
 VINA RESULT:      -8.1      2.951      6.807
  Name = 
  2 active torsions:
  status: ('A' for Active; 'I' for Inactive)
    1  A    between atoms: N_4  and  C_37
    2  A    between atoms: C_23  and  C_30
                            x       y       z     vdW  Elec       q    Type
                         _______ _______ _______ _____ _____    ______ ____

>  <TORSDO>
F 2

$$$$
