=
 OpenBabel11122411343D

 37 44  0  0  1  0  0  0  0  0999 V2000
  189.1810  176.4650  142.3100 C   0  0  0  0  0  2  0  0  0  0  0  0
  188.7320  177.5780  147.1850 C   0  0  0  0  0  0  0  0  0  0  0  0
  185.5560  178.3620  144.4670 C   0  0  0  0  0  0  0  0  0  0  0  0
  190.5830  176.3190  141.7030 C   0  0  1  0  0  3  0  0  0  0  0  0
  186.3030  178.9490  140.8270 C   0  0  0  0  0  2  0  0  0  0  0  0
  186.3300  178.3930  146.7900 C   0  0  0  0  0  0  0  0  0  0  0  0
  186.1910  178.2640  143.2850 C   0  0  0  0  0  0  0  0  0  0  0  0
  189.6420  177.3460  139.5980 C   0  0  1  0  0  3  0  0  0  0  0  0
  186.5430  178.2160  145.4950 C   0  0  0  0  0  0  0  0  0  0  0  0
  185.5610  178.4230  141.9820 N   0  0  0  0  0  0  0  0  0  0  0  0
  184.9650  178.8620  147.2480 C   0  0  0  0  0  2  0  0  0  0  0  0
  190.8480  177.2610  140.5270 C   0  0  0  0  0  2  0  0  0  0  0  0
  187.8140  177.9750  144.8940 C   0  0  0  0  0  0  0  0  0  0  0  0
  188.4590  176.0890  147.3220 C   0  0  0  0  0  1  0  0  0  0  0  0
  182.9790  178.5230  143.9330 C   0  0  0  0  0  2  0  0  0  0  0  0
  183.8920  178.8120  146.1640 C   0  0  0  0  0  3  0  0  0  0  0  0
  189.0680  177.9080  145.7110 C   0  0  0  0  0  2  0  0  0  0  0  0
  188.7500  178.5480  139.9190 C   0  0  1  0  0  3  0  0  0  0  0  0
  187.4910  178.0640  140.6070 C   0  0  1  0  0  3  0  0  0  0  0  0
  184.1530  178.6440  144.8550 C   0  0  0  0  0  0  0  0  0  0  0  0
  187.6590  178.0230  143.5740 C   0  0  0  0  0  0  0  0  0  0  0  0
  187.5160  178.3780  147.7280 C   0  0  0  0  0  2  0  0  0  0  0  0
  184.1520  178.0460  141.8260 C   0  0  1  0  0  3  0  0  0  0  0  0
  189.9400  177.9130  148.0340 C   0  0  0  0  0  1  0  0  0  0  0  0
  188.5270  178.8210  141.4070 C   0  0  1  0  0  3  0  0  0  0  0  0
  190.0830  177.4450  138.2790 O   0  0  0  0  0  1  0  0  0  0  0  0
  188.8170  177.9240  142.6100 C   0  0  2  0  0  3  0  0  0  0  0  0
  183.2520  179.0380  142.5350 C   0  0  0  0  0  2  0  0  0  0  0  0
  183.8990  178.8090  139.4560 C   0  0  0  0  0  3  0  0  0  0  0  0
  183.7350  177.7910  140.4030 C   0  0  0  0  0  0  0  0  0  0  0  0
  183.1460  176.5760  140.0180 C   0  0  0  0  0  3  0  0  0  0  0  0
  182.1470  175.1460  138.3090 N   0  0  0  0  0  1  0  0  0  0  0  0
  182.9130  177.3980  137.7530 C   0  0  0  0  0  3  0  0  0  0  0  0
  182.7410  176.3800  138.6950 C   0  0  0  0  0  0  0  0  0  0  0  0
  183.4920  178.6130  138.1330 C   0  0  0  0  0  3  0  0  0  0  0  0
  191.4400  175.6460  143.8310 O   0  0  0  0  0  1  0  0  0  0  0  0
  191.6590  176.5140  142.7600 C   0  0  0  0  0  2  0  0  0  0  0  0
  1 27  1  0  0  0  0
  2 14  1  0  0  0  0
  2 22  1  0  0  0  0
  2 24  1  0  0  0  0
  3 20  1  0  0  0  0
  3  9  1  0  0  0  0
  4  1  1  0  0  0  0
  4 37  1  1  0  0  0
  5 10  1  0  0  0  0
  6 11  1  0  0  0  0
  6 22  1  0  0  0  0
  7 21  1  0  0  0  0
  7  3  2  0  0  0  0
  8 26  1  6  0  0  0
  8 18  1  0  0  0  0
  8 12  1  0  0  0  0
  9  6  2  0  0  0  0
 10  7  1  0  0  0  0
 12  4  1  0  0  0  0
 13  9  1  0  0  0  0
 13 17  1  0  0  0  0
 15 20  1  0  0  0  0
 16 11  1  0  0  0  0
 17  2  1  0  0  0  0
 18 19  1  0  0  0  0
 18 25  1  0  0  0  0
 19  5  1  0  0  0  0
 19 25  1  0  0  0  0
 20 16  2  0  0  0  0
 21 13  2  0  0  0  0
 23 10  1  0  0  0  0
 23 28  1  0  0  0  0
 25 27  1  0  0  0  0
 27 21  1  0  0  0  0
 28 15  1  0  0  0  0
 29 30  1  0  0  0  0
 30 23  1  0  0  0  0
 31 30  2  0  0  0  0
 32 34  1  0  0  0  0
 33 35  1  0  0  0  0
 33 34  2  0  0  0  0
 34 31  1  0  0  0  0
 35 29  2  0  0  0  0
 37 36  1  0  0  0  0
M  END
>  <MODEL>
1

>  <REMARK>
 VINA RESULT:     -10.6      0.000      0.000
  Name = 
  2 active torsions:
  status: ('A' for Active; 'I' for Inactive)
    1  A    between atoms: C_4  and  C_37
    2  A    between atoms: C_23  and  C_30
                            x       y       z     vdW  Elec       q    Type
                         _______ _______ _______ _____ _____    ______ ____

>  <TORSDO>
F 2

$$$$
=
 OpenBabel11122411343D

 37 44  0  0  1  0  0  0  0  0999 V2000
  189.0540  176.5180  142.1490 C   0  0  0  0  0  2  0  0  0  0  0  0
  189.0160  177.4720  147.0780 C   0  0  0  0  0  0  0  0  0  0  0  0
  185.6390  178.3750  144.6550 C   0  0  0  0  0  0  0  0  0  0  0  0
  190.4010  176.3800  141.4250 C   0  0  1  0  0  3  0  0  0  0  0  0
  186.0940  179.0760  140.9870 C   0  0  0  0  0  2  0  0  0  0  0  0
  186.5990  178.3210  146.9060 C   0  0  0  0  0  0  0  0  0  0  0  0
  186.1740  178.3100  143.4230 C   0  0  0  0  0  0  0  0  0  0  0  0
  189.3030  177.4850  139.4380 C   0  0  1  0  0  3  0  0  0  0  0  0
  186.7040  178.1860  145.5940 C   0  0  0  0  0  0  0  0  0  0  0  0
  185.4430  178.5180  142.1810 N   0  0  0  0  0  0  0  0  0  0  0  0
  185.2820  178.7870  147.4890 C   0  0  0  0  0  2  0  0  0  0  0  0
  190.5790  177.3570  140.2620 C   0  0  0  0  0  2  0  0  0  0  0  0
  187.9190  177.9530  144.8830 C   0  0  0  0  0  0  0  0  0  0  0  0
  188.7370  175.9820  147.1880 C   0  0  0  0  0  1  0  0  0  0  0  0
  183.0290  178.5770  144.3390 C   0  0  0  0  0  2  0  0  0  0  0  0
  184.1230  178.7830  146.4960 C   0  0  0  0  0  3  0  0  0  0  0  0
  189.2340  177.8480  145.5930 C   0  0  0  0  0  2  0  0  0  0  0  0
  188.4540  178.6830  139.8690 C   0  0  1  0  0  3  0  0  0  0  0  0
  187.2500  178.1880  140.6420 C   0  0  1  0  0  3  0  0  0  0  0  0
  184.2750  178.6560  145.1650 C   0  0  0  0  0  0  0  0  0  0  0  0
  187.6580  178.0470  143.5830 C   0  0  0  0  0  0  0  0  0  0  0  0
  187.8570  178.2650  147.7430 C   0  0  0  0  0  2  0  0  0  0  0  0
  184.0210  178.1590  142.1280 C   0  0  1  0  0  3  0  0  0  0  0  0
  190.2920  177.7680  147.8360 C   0  0  0  0  0  1  0  0  0  0  0  0
  188.3570  178.9090  141.3790 C   0  0  1  0  0  3  0  0  0  0  0  0
  189.6370  177.6240  138.0910 O   0  0  0  0  0  1  0  0  0  0  0  0
  188.7320  177.9690  142.5250 C   0  0  2  0  0  3  0  0  0  0  0  0
  183.1930  179.1350  142.9400 C   0  0  0  0  0  2  0  0  0  0  0  0
  183.5390  176.6760  140.1700 C   0  0  0  0  0  3  0  0  0  0  0  0
  183.4870  177.9560  140.7360 C   0  0  0  0  0  0  0  0  0  0  0  0
  182.9840  179.0260  139.9800 C   0  0  0  0  0  3  0  0  0  0  0  0
  182.0120  179.9000  137.9170 N   0  0  0  0  0  1  0  0  0  0  0  0
  182.5730  177.5310  138.1210 C   0  0  0  0  0  3  0  0  0  0  0  0
  182.5240  178.8120  138.6780 C   0  0  0  0  0  0  0  0  0  0  0  0
  183.0800  176.4630  138.8670 C   0  0  0  0  0  3  0  0  0  0  0  0
  191.3140  175.7910  143.5540 O   0  0  0  0  0  1  0  0  0  0  0  0
  191.5610  176.5290  142.3970 C   0  0  0  0  0  2  0  0  0  0  0  0
  1 27  1  0  0  0  0
  2 14  1  0  0  0  0
  2 22  1  0  0  0  0
  2 24  1  0  0  0  0
  3 20  1  0  0  0  0
  3  9  1  0  0  0  0
  4  1  1  0  0  0  0
  4 37  1  1  0  0  0
  5 10  1  0  0  0  0
  6 11  1  0  0  0  0
  6 22  1  0  0  0  0
  7 21  1  0  0  0  0
  7  3  2  0  0  0  0
  8 26  1  6  0  0  0
  8 18  1  0  0  0  0
  8 12  1  0  0  0  0
  9  6  2  0  0  0  0
 10  7  1  0  0  0  0
 12  4  1  0  0  0  0
 13 17  1  0  0  0  0
 13  9  1  0  0  0  0
 15 20  1  0  0  0  0
 16 11  1  0  0  0  0
 17  2  1  0  0  0  0
 18 19  1  0  0  0  0
 18 25  1  0  0  0  0
 19  5  1  0  0  0  0
 19 25  1  0  0  0  0
 20 16  2  0  0  0  0
 21 13  2  0  0  0  0
 23 10  1  0  0  0  0
 23 28  1  0  0  0  0
 25 27  1  0  0  0  0
 27 21  1  0  0  0  0
 28 15  1  0  0  0  0
 29 30  1  0  0  0  0
 30 23  1  0  0  0  0
 31 30  2  0  0  0  0
 32 34  1  0  0  0  0
 33 34  2  0  0  0  0
 33 35  1  0  0  0  0
 34 31  1  0  0  0  0
 35 29  2  0  0  0  0
 37 36  1  0  0  0  0
M  END
>  <MODEL>
2

>  <REMARK>
 VINA RESULT:     -10.1      0.886      1.148
  Name = 
  2 active torsions:
  status: ('A' for Active; 'I' for Inactive)
    1  A    between atoms: C_4  and  C_37
    2  A    between atoms: C_23  and  C_30
                            x       y       z     vdW  Elec       q    Type
                         _______ _______ _______ _____ _____    ______ ____

>  <TORSDO>
F 2

$$$$
=
 OpenBabel11122411343D

 37 44  0  0  1  0  0  0  0  0999 V2000
  188.7670  176.5160  141.8460 C   0  0  0  0  0  2  0  0  0  0  0  0
  187.0970  177.9560  146.3560 C   0  0  0  0  0  0  0  0  0  0  0  0
  184.6840  178.4220  142.8850 C   0  0  0  0  0  0  0  0  0  0  0  0
  190.2790  176.3810  141.6160 C   0  0  1  0  0  3  0  0  0  0  0  0
  186.3010  178.7770  139.5080 C   0  0  0  0  0  2  0  0  0  0  0  0
  184.8540  178.6470  145.3170 C   0  0  0  0  0  0  0  0  0  0  0  0
  185.5940  178.2640  141.9090 C   0  0  0  0  0  0  0  0  0  0  0  0
  189.8720  177.2190  139.2700 C   0  0  1  0  0  3  0  0  0  0  0  0
  185.3860  178.3880  144.1330 C   0  0  0  0  0  0  0  0  0  0  0  0
  185.3060  178.3060  140.4810 N   0  0  0  0  0  0  0  0  0  0  0  0
  183.4090  179.0960  145.3860 C   0  0  0  0  0  2  0  0  0  0  0  0
  190.8090  177.2460  140.4720 C   0  0  0  0  0  2  0  0  0  0  0  0
  186.7710  178.1530  143.8850 C   0  0  0  0  0  0  0  0  0  0  0  0
  186.8270  176.4710  146.5370 C   0  0  0  0  0  1  0  0  0  0  0  0
  182.3170  178.4460  141.7210 C   0  0  0  0  0  2  0  0  0  0  0  0
  182.6400  178.9280  144.0790 C   0  0  0  0  0  3  0  0  0  0  0  0
  187.7830  178.1920  144.9890 C   0  0  0  0  0  2  0  0  0  0  0  0
  188.9050  178.4060  139.2660 C   0  0  1  0  0  3  0  0  0  0  0  0
  187.5240  177.9240  139.6570 C   0  0  1  0  0  3  0  0  0  0  0  0
  183.2220  178.6770  142.8910 C   0  0  0  0  0  0  0  0  0  0  0  0
  186.9480  178.1010  142.5690 C   0  0  0  0  0  0  0  0  0  0  0  0
  185.7690  178.7450  146.5170 C   0  0  0  0  0  2  0  0  0  0  0  0
  183.9870  177.8650  140.0130 C   0  0  1  0  0  3  0  0  0  0  0  0
  188.0490  178.3960  147.4480 C   0  0  0  0  0  1  0  0  0  0  0  0
  188.3130  178.7750  140.6270 C   0  0  1  0  0  3  0  0  0  0  0  0
  190.6250  177.2410  138.0970 O   0  0  0  0  0  1  0  0  0  0  0  0
  188.3110  177.9770  141.9310 C   0  0  2  0  0  3  0  0  0  0  0  0
  182.9200  178.8700  140.3980 C   0  0  0  0  0  2  0  0  0  0  0  0
  183.0290  178.1430  137.7170 C   0  0  0  0  0  3  0  0  0  0  0  0
  183.9430  177.4940  138.5550 C   0  0  0  0  0  0  0  0  0  0  0  0
  184.7640  176.4820  138.0320 C   0  0  0  0  0  3  0  0  0  0  0  0
  185.5140  175.1140  136.1530 N   0  0  0  0  0  1  0  0  0  0  0  0
  183.7680  176.7940  135.8470 C   0  0  0  0  0  3  0  0  0  0  0  0
  184.6780  176.1370  136.6800 C   0  0  0  0  0  0  0  0  0  0  0  0
  182.9430  177.7970  136.3660 C   0  0  0  0  0  3  0  0  0  0  0  0
  191.6790  177.9330  142.7760 O   0  0  0  0  0  1  0  0  0  0  0  0
  191.0530  176.6910  142.8880 C   0  0  0  0  0  2  0  0  0  0  0  0
  1 27  1  0  0  0  0
  2 22  1  0  0  0  0
  2 14  1  0  0  0  0
  2 24  1  0  0  0  0
  3 20  1  0  0  0  0
  3  9  1  0  0  0  0
  4  1  1  0  0  0  0
  4 37  1  1  0  0  0
  5 19  1  0  0  0  0
  5 10  1  0  0  0  0
  6 11  1  0  0  0  0
  6 22  1  0  0  0  0
  7 21  1  0  0  0  0
  7  3  2  0  0  0  0
  8 26  1  6  0  0  0
  8 12  1  0  0  0  0
  9  6  2  0  0  0  0
 10  7  1  0  0  0  0
 12  4  1  0  0  0  0
 13  9  1  0  0  0  0
 13 17  1  0  0  0  0
 15 20  1  0  0  0  0
 16 11  1  0  0  0  0
 17  2  1  0  0  0  0
 18  8  1  0  0  0  0
 18 19  1  0  0  0  0
 18 25  1  0  0  0  0
 19 25  1  0  0  0  0
 20 16  2  0  0  0  0
 21 13  2  0  0  0  0
 23 28  1  0  0  0  0
 23 10  1  0  0  0  0
 25 27  1  0  0  0  0
 27 21  1  0  0  0  0
 28 15  1  0  0  0  0
 29 30  1  0  0  0  0
 30 23  1  0  0  0  0
 31 30  2  0  0  0  0
 32 34  1  0  0  0  0
 33 35  1  0  0  0  0
 33 34  2  0  0  0  0
 34 31  1  0  0  0  0
 35 29  2  0  0  0  0
 36 37  1  0  0  0  0
M  END
>  <MODEL>
3

>  <REMARK>
 VINA RESULT:      -9.4      1.346      1.849
  Name = 
  2 active torsions:
  status: ('A' for Active; 'I' for Inactive)
    1  A    between atoms: C_4  and  C_37
    2  A    between atoms: C_23  and  C_30
                            x       y       z     vdW  Elec       q    Type
                         _______ _______ _______ _____ _____    ______ ____

>  <TORSDO>
F 2

$$$$
=
 OpenBabel11122411343D

 37 44  0  0  1  0  0  0  0  0999 V2000
  188.2990  176.4810  138.6460 C   0  0  0  0  0  2  0  0  0  0  0  0
  190.4050  177.0620  143.1660 C   0  0  0  0  0  0  0  0  0  0  0  0
  186.3280  178.0820  142.5110 C   0  0  0  0  0  0  0  0  0  0  0  0
  189.1990  176.4220  137.4040 C   0  0  1  0  0  3  0  0  0  0  0  0
  185.1680  179.0640  139.0700 C   0  0  0  0  0  2  0  0  0  0  0  0
  188.1640  177.8770  144.1180 C   0  0  0  0  0  0  0  0  0  0  0  0
  186.2780  178.1190  141.1680 C   0  0  0  0  0  0  0  0  0  0  0  0
  187.3700  177.6530  136.1740 C   0  0  1  0  0  3  0  0  0  0  0  0
  187.6900  177.8430  142.8820 C   0  0  0  0  0  0  0  0  0  0  0  0
  185.0860  178.4070  140.3820 N   0  0  0  0  0  0  0  0  0  0  0  0
  187.2340  178.2740  145.2450 C   0  0  0  0  0  2  0  0  0  0  0  0
  188.8740  177.4870  136.3550 C   0  0  0  0  0  2  0  0  0  0  0  0
  188.4770  177.6860  141.7020 C   0  0  0  0  0  0  0  0  0  0  0  0
  190.1770  175.5630  143.2730 C   0  0  0  0  0  1  0  0  0  0  0  0
  183.8400  178.2590  143.3670 C   0  0  0  0  0  2  0  0  0  0  0  0
  185.7600  178.3230  144.8510 C   0  0  0  0  0  3  0  0  0  0  0  0
  189.9670  177.5520  141.7650 C   0  0  0  0  0  2  0  0  0  0  0  0
  186.8090  178.8000  137.0180 C   0  0  1  0  0  3  0  0  0  0  0  0
  186.0480  178.2260  138.1940 C   0  0  1  0  0  3  0  0  0  0  0  0
  185.3210  178.2990  143.5790 C   0  0  0  0  0  0  0  0  0  0  0  0
  187.6820  177.8720  140.6530 C   0  0  0  0  0  0  0  0  0  0  0  0
  189.6590  177.7810  144.3240 C   0  0  0  0  0  2  0  0  0  0  0  0
  183.7750  178.0270  140.9210 C   0  0  1  0  0  3  0  0  0  0  0  0
  191.8880  177.3230  143.3200 C   0  0  0  0  0  1  0  0  0  0  0  0
  187.3760  178.9100  138.4350 C   0  0  1  0  0  3  0  0  0  0  0  0
  187.0920  177.8980  134.8300 O   0  0  0  0  0  1  0  0  0  0  0  0
  188.1930  177.8940  139.2320 C   0  0  2  0  0  3  0  0  0  0  0  0
  183.3940  178.9240  142.0820 C   0  0  0  0  0  2  0  0  0  0  0  0
  181.8210  179.0000  139.6960 C   0  0  0  0  0  3  0  0  0  0  0  0
  182.6900  177.9190  139.8840 C   0  0  0  0  0  0  0  0  0  0  0  0
  182.5040  176.7440  139.1380 C   0  0  0  0  0  3  0  0  0  0  0  0
  181.2850  175.4710  137.4480 N   0  0  0  0  0  1  0  0  0  0  0  0
  180.6080  177.7470  138.0170 C   0  0  0  0  0  3  0  0  0  0  0  0
  181.4680  176.6620  138.2040 C   0  0  0  0  0  0  0  0  0  0  0  0
  180.7840  178.9160  138.7620 C   0  0  0  0  0  3  0  0  0  0  0  0
  190.9580  175.6030  138.8000 O   0  0  0  0  0  1  0  0  0  0  0  0
  190.6670  176.5190  137.7890 C   0  0  0  0  0  2  0  0  0  0  0  0
  1 27  1  0  0  0  0
  2 14  1  0  0  0  0
  2 24  1  0  0  0  0
  2 22  1  0  0  0  0
  3  9  1  0  0  0  0
  3 20  1  0  0  0  0
  4 37  1  1  0  0  0
  4  1  1  0  0  0  0
  5 10  1  0  0  0  0
  6 22  1  0  0  0  0
  6 11  1  0  0  0  0
  7  3  2  0  0  0  0
  8 26  1  6  0  0  0
  8 12  1  0  0  0  0
  8 18  1  0  0  0  0
  9  6  2  0  0  0  0
 10 23  1  0  0  0  0
 10  7  1  0  0  0  0
 12  4  1  0  0  0  0
 13 17  1  0  0  0  0
 13  9  1  0  0  0  0
 15 20  1  0  0  0  0
 16 11  1  0  0  0  0
 17  2  1  0  0  0  0
 18 19  1  0  0  0  0
 18 25  1  0  0  0  0
 19 25  1  0  0  0  0
 19  5  1  0  0  0  0
 20 16  2  0  0  0  0
 21  7  1  0  0  0  0
 21 13  2  0  0  0  0
 23 28  1  0  0  0  0
 25 27  1  0  0  0  0
 27 21  1  0  0  0  0
 28 15  1  0  0  0  0
 29 30  1  0  0  0  0
 30 23  1  0  0  0  0
 31 30  2  0  0  0  0
 32 34  1  0  0  0  0
 33 34  2  0  0  0  0
 33 35  1  0  0  0  0
 34 31  1  0  0  0  0
 35 29  2  0  0  0  0
 37 36  1  0  0  0  0
M  END
>  <MODEL>
4

>  <REMARK>
 VINA RESULT:      -8.9      1.920      3.223
  Name = 
  2 active torsions:
  status: ('A' for Active; 'I' for Inactive)
    1  A    between atoms: C_4  and  C_37
    2  A    between atoms: C_23  and  C_30
                            x       y       z     vdW  Elec       q    Type
                         _______ _______ _______ _____ _____    ______ ____

>  <TORSDO>
F 2

$$$$
=
 OpenBabel11122411343D

 37 44  0  0  1  0  0  0  0  0999 V2000
  183.4010  177.1250  140.4900 C   0  0  0  0  0  2  0  0  0  0  0  0
  183.8210  177.0730  135.4870 C   0  0  0  0  0  0  0  0  0  0  0  0
  187.2420  177.6030  137.9580 C   0  0  0  0  0  0  0  0  0  0  0  0
  182.0410  177.4510  141.1230 C   0  0  1  0  0  3  0  0  0  0  0  0
  186.8640  179.0860  141.3950 C   0  0  0  0  0  2  0  0  0  0  0  0
  186.3660  177.3440  135.6870 C   0  0  0  0  0  0  0  0  0  0  0  0
  186.6710  177.9050  139.1370 C   0  0  1  0  0  3  0  0  0  0  0  0
  183.3170  178.6280  142.9560 C   0  0  1  0  0  3  0  0  0  0  0  0
  186.1920  177.4930  136.9900 C   0  0  0  0  0  0  0  0  0  0  0  0
  187.3930  178.1710  140.3740 N   0  0  2  0  0  0  0  0  0  0  0  0
  187.7750  177.3650  135.1310 C   0  0  0  0  0  3  0  0  0  0  0  0
  182.0740  178.6490  142.0730 C   0  0  0  0  0  2  0  0  0  0  0  0
  184.9360  177.6960  137.6370 C   0  0  0  0  0  0  0  0  0  0  0  0
  183.7270  175.5670  135.6690 C   0  0  0  0  0  1  0  0  0  0  0  0
  189.8110  177.2400  138.4310 C   0  0  0  0  0  2  0  0  0  0  0  0
  188.8660  177.2780  136.1940 C   0  0  0  0  0  3  0  0  0  0  0  0
  183.6570  177.7700  136.8590 C   0  0  0  0  0  2  0  0  0  0  0  0
  184.4480  179.4850  142.3820 C   0  0  1  0  0  3  0  0  0  0  0  0
  185.5150  178.5800  141.8050 C   0  0  1  0  0  3  0  0  0  0  0  0
  188.6480  177.4500  137.5110 C   0  0  0  0  0  0  0  0  0  0  0  0
  185.1740  177.9740  138.9150 C   0  0  0  0  0  0  0  0  0  0  0  0
  185.1590  177.4260  134.7800 C   0  0  0  0  0  2  0  0  0  0  0  0
  188.6810  177.5030  140.5980 C   0  0  1  0  0  3  0  0  0  0  0  0
  182.6800  177.5100  134.5940 C   0  0  0  0  0  1  0  0  0  0  0  0
  184.6430  179.3860  140.8680 C   0  0  1  0  0  3  0  0  0  0  0  0
  182.9880  179.0990  144.2260 O   0  0  0  0  0  1  0  0  0  0  0  0
  184.0820  178.3580  139.8850 C   0  0  2  0  0  3  0  0  0  0  0  0
  189.7480  178.0800  139.6890 C   0  0  0  0  0  2  0  0  0  0  0  0
  188.3100  176.7550  142.9570 C   0  0  0  0  0  3  0  0  0  0  0  0
  189.1060  177.4520  142.0400 C   0  0  0  0  0  0  0  0  0  0  0  0
  190.2530  178.1240  142.4910 C   0  0  0  0  0  3  0  0  0  0  0  0
  191.7710  178.7650  144.2930 N   0  0  0  0  0  1  0  0  0  0  0  0
  189.8100  177.3820  144.7520 C   0  0  0  0  0  3  0  0  0  0  0  0
  190.6050  178.0850  143.8430 C   0  0  0  0  0  0  0  0  0  0  0  0
  188.6630  176.7170  144.3090 C   0  0  0  0  0  3  0  0  0  0  0  0
  180.5450  179.0040  140.0910 O   0  0  0  0  0  1  0  0  0  0  0  0
  180.9830  177.6800  140.0540 C   0  0  0  0  0  2  0  0  0  0  0  0
  1  4  1  0  0  0  0
  2 14  1  0  0  0  0
  2 17  1  0  0  0  0
  4 37  1  6  0  0  0
  4 12  1  0  0  0  0
  5 19  1  0  0  0  0
  6  9  1  0  0  0  0
  7  3  1  6  0  0  0
  7 10  1  0  0  0  0
  8 26  1  1  0  0  0
  9 13  1  0  0  0  0
  9  3  2  0  0  0  0
 10 23  1  0  0  0  0
 10  5  1  1  0  0  0
 11  6  2  0  0  0  0
 11 16  1  0  0  0  0
 12  8  1  0  0  0  0
 13 21  2  0  0  0  0
 15 28  1  0  0  0  0
 16 20  2  0  0  0  0
 17 13  1  0  0  0  0
 18  8  1  0  0  0  0
 19 18  1  0  0  0  0
 20  3  1  0  0  0  0
 20 15  1  0  0  0  0
 21  7  1  0  0  0  0
 21 27  1  0  0  0  0
 22  2  1  0  0  0  0
 22  6  1  0  0  0  0
 23 30  1  0  0  0  0
 24  2  1  0  0  0  0
 25 19  1  0  0  0  0
 25 18  1  0  0  0  0
 27  1  1  0  0  0  0
 27 25  1  0  0  0  0
 28 23  1  0  0  0  0
 29 35  1  0  0  0  0
 30 31  1  0  0  0  0
 30 29  2  0  0  0  0
 31 34  2  0  0  0  0
 34 32  1  0  0  0  0
 34 33  1  0  0  0  0
 35 33  2  0  0  0  0
 37 36  1  0  0  0  0
M  END
>  <MODEL>
5

>  <REMARK>
 VINA RESULT:      -8.4      3.239      8.860
  Name = 
  2 active torsions:
  status: ('A' for Active; 'I' for Inactive)
    1  A    between atoms: C_4  and  C_37
    2  A    between atoms: C_23  and  C_30
                            x       y       z     vdW  Elec       q    Type
                         _______ _______ _______ _____ _____    ______ ____

>  <TORSDO>
F 2

$$$$
=
 OpenBabel11122411343D

 37 44  0  0  1  0  0  0  0  0999 V2000
  188.0670  179.0930  138.5120 C   0  0  0  0  0  2  0  0  0  0  0  0
  183.0570  179.3170  138.7510 C   0  0  0  0  0  0  0  0  0  0  0  0
  185.3660  178.3770  142.1970 C   0  0  0  0  0  0  0  0  0  0  0  0
  188.7410  178.8640  137.1510 C   0  0  1  0  0  3  0  0  0  0  0  0
  188.7550  176.7900  141.8110 C   0  0  0  0  0  2  0  0  0  0  0  0
  183.1440  178.8100  141.2670 C   0  0  0  0  0  0  0  0  0  0  0  0
  186.5550  178.0780  141.6440 C   0  0  0  0  0  0  0  0  0  0  0  0
  190.4750  177.5010  138.3800 C   0  0  1  0  0  3  0  0  0  0  0  0
  184.4460  178.6220  141.1270 C   0  0  0  0  0  0  0  0  0  0  0  0
  187.7500  177.6960  142.3840 N   0  0  0  0  0  0  0  0  0  0  0  0
  182.5320  178.6850  142.6460 C   0  0  0  0  0  2  0  0  0  0  0  0
  189.6420  177.6290  137.1090 C   0  0  0  0  0  2  0  0  0  0  0  0
  185.1340  178.5060  139.8820 C   0  0  0  0  0  0  0  0  0  0  0  0
  183.3000  180.8160  138.8030 C   0  0  0  0  0  1  0  0  0  0  0  0
  185.7490  178.4860  144.8040 C   0  0  0  0  0  2  0  0  0  0  0  0
  183.5530  178.6280  143.7790 C   0  0  0  0  0  3  0  0  0  0  0  0
  184.4070  178.5810  138.5750 C   0  0  0  0  0  2  0  0  0  0  0  0
  189.8230  176.5700  139.4050 C   0  0  1  0  0  3  0  0  0  0  0  0
  189.2390  177.3990  140.5300 C   0  0  1  0  0  3  0  0  0  0  0  0
  184.8700  178.4210  143.5940 C   0  0  0  0  0  0  0  0  0  0  0  0
  186.3900  178.1540  140.1400 C   0  0  0  0  0  0  0  0  0  0  0  0
  182.2840  178.8750  140.0240 C   0  0  0  0  0  2  0  0  0  0  0  0
  187.9480  178.2350  143.7340 C   0  0  1  0  0  3  0  0  0  0  0  0
  182.1940  179.0230  137.5430 C   0  0  0  0  0  1  0  0  0  0  0  0
  188.3070  176.7150  139.5530 C   0  0  1  0  0  3  0  0  0  0  0  0
  191.7380  177.0090  138.0550 O   0  0  0  0  0  1  0  0  0  0  0  0
  187.3880  177.8290  139.0530 C   0  0  2  0  0  3  0  0  0  0  0  0
  186.9750  177.6030  144.7100 C   0  0  0  0  0  2  0  0  0  0  0  0
  190.3260  179.0030  143.5940 C   0  0  0  0  0  3  0  0  0  0  0  0
  189.3730  178.1870  144.2150 C   0  0  0  0  0  0  0  0  0  0  0  0
  189.7730  177.3110  145.2360 C   0  0  0  0  0  3  0  0  0  0  0  0
  191.5100  176.3790  146.6780 N   0  0  0  0  0  1  0  0  0  0  0  0
  192.0560  178.0880  145.0200 C   0  0  0  0  0  3  0  0  0  0  0  0
  191.1100  177.2660  145.6400 C   0  0  0  0  0  0  0  0  0  0  0  0
  191.6640  178.9560  143.9970 C   0  0  0  0  0  3  0  0  0  0  0  0
  187.6970  177.4920  135.4950 O   0  0  0  0  0  1  0  0  0  0  0  0
  187.7080  178.7770  136.0390 C   0  0  0  0  0  2  0  0  0  0  0  0
  1 27  1  0  0  0  0
  2 14  1  0  0  0  0
  2 22  1  0  0  0  0
  3 20  1  0  0  0  0
  4 37  1  6  0  0  0
  4  1  1  0  0  0  0
  5 10  1  0  0  0  0
  6 11  1  0  0  0  0
  7  3  2  0  0  0  0
  7 10  1  0  0  0  0
  8 26  1  6  0  0  0
  8 18  1  0  0  0  0
  9  6  2  0  0  0  0
  9  3  1  0  0  0  0
 10 23  1  0  0  0  0
 11 16  1  0  0  0  0
 12  4  1  0  0  0  0
 12  8  1  0  0  0  0
 13 21  2  0  0  0  0
 13  9  1  0  0  0  0
 17  2  1  0  0  0  0
 17 13  1  0  0  0  0
 18 25  1  0  0  0  0
 18 19  1  0  0  0  0
 19  5  1  0  0  0  0
 20 16  2  0  0  0  0
 20 15  1  0  0  0  0
 21  7  1  0  0  0  0
 22  6  1  0  0  0  0
 23 30  1  0  0  0  0
 23 28  1  0  0  0  0
 24  2  1  0  0  0  0
 25 19  1  0  0  0  0
 27 25  1  0  0  0  0
 27 21  1  0  0  0  0
 28 15  1  0  0  0  0
 29 35  2  0  0  0  0
 29 30  1  0  0  0  0
 30 31  2  0  0  0  0
 31 34  1  0  0  0  0
 33 34  2  0  0  0  0
 34 32  1  0  0  0  0
 35 33  1  0  0  0  0
 36 37  1  0  0  0  0
M  END
>  <MODEL>
6

>  <REMARK>
 VINA RESULT:      -8.3      2.318      6.830
  Name = 
  2 active torsions:
  status: ('A' for Active; 'I' for Inactive)
    1  A    between atoms: C_4  and  C_37
    2  A    between atoms: C_23  and  C_30
                            x       y       z     vdW  Elec       q    Type
                         _______ _______ _______ _____ _____    ______ ____

>  <TORSDO>
F 2

$$$$
=
 OpenBabel11122411343D

 37 44  0  0  1  0  0  0  0  0999 V2000
  189.5630  176.3910  142.7550 C   0  0  0  0  0  2  0  0  0  0  0  0
  186.2710  177.9620  146.2050 C   0  0  0  0  0  0  0  0  0  0  0  0
  185.4450  178.3770  142.0530 C   0  0  0  0  0  0  0  0  0  0  0  0
  191.0380  176.2300  143.1480 C   0  0  1  0  0  3  0  0  0  0  0  0
  188.2790  178.6280  139.5920 C   0  0  0  0  0  2  0  0  0  0  0  0
  184.6400  178.6580  144.3480 C   0  0  0  0  0  0  0  0  0  0  0  0
  186.6650  178.1830  141.5220 C   0  0  0  0  0  0  0  0  0  0  0  0
  191.6150  177.0170  140.8200 C   0  0  1  0  0  3  0  0  0  0  0  0
  185.5930  178.3630  143.4780 C   0  0  0  0  0  0  0  0  0  0  0  0
  186.9690  178.1950  140.0980 N   0  0  0  0  0  0  0  0  0  0  0  0
  183.2980  179.1280  143.8300 C   0  0  0  0  0  2  0  0  0  0  0  0
  191.9980  177.0600  142.2950 C   0  0  0  0  0  2  0  0  0  0  0  0
  186.9570  178.1040  143.8050 C   0  0  0  0  0  0  0  0  0  0  0  0
  185.9180  176.4860  146.2890 C   0  0  0  0  0  1  0  0  0  0  0  0
  183.7380  178.4050  140.0440 C   0  0  0  0  0  2  0  0  0  0  0  0
  183.1080  178.9390  142.3270 C   0  0  0  0  0  3  0  0  0  0  0  0
  187.4480  178.1560  145.2200 C   0  0  0  0  0  2  0  0  0  0  0  0
  190.7560  178.2160  140.4110 C   0  0  1  0  0  3  0  0  0  0  0  0
  189.3220  177.7630  140.2300 C   0  0  1  0  0  3  0  0  0  0  0  0
  184.1080  178.6510  141.4740 C   0  0  0  0  0  0  0  0  0  0  0  0
  187.6410  178.0180  142.6690 C   0  0  0  0  0  0  0  0  0  0  0  0
  185.0050  178.7730  145.8110 C   0  0  0  0  0  2  0  0  0  0  0  0
  185.9350  177.7600  139.1500 C   0  0  1  0  0  3  0  0  0  0  0  0
  186.7200  178.4150  147.5780 C   0  0  0  0  0  1  0  0  0  0  0  0
  189.6800  178.6270  141.4190 C   0  0  1  0  0  3  0  0  0  0  0  0
  192.7720  177.0000  140.0430 O   0  0  0  0  0  1  0  0  0  0  0  0
  189.1430  177.8600  142.6280 C   0  0  2  0  0  3  0  0  0  0  0  0
  184.8250  178.7890  139.0620 C   0  0  0  0  0  2  0  0  0  0  0  0
  186.3580  178.2520  136.7330 C   0  0  0  0  0  3  0  0  0  0  0  0
  186.4660  177.3540  137.8020 C   0  0  0  0  0  0  0  0  0  0  0  0
  187.0220  176.0840  137.5850 C   0  0  0  0  0  3  0  0  0  0  0  0
  188.0430  174.4360  136.1000 N   0  0  0  0  0  1  0  0  0  0  0  0
  187.3720  176.6260  135.2520 C   0  0  0  0  0  3  0  0  0  0  0  0
  187.4770  175.7240  136.3140 C   0  0  0  0  0  0  0  0  0  0  0  0
  186.8130  177.8900  135.4620 C   0  0  0  0  0  3  0  0  0  0  0  0
  191.6820  177.8800  144.7540 O   0  0  0  0  0  1  0  0  0  0  0  0
  191.2500  176.5610  144.6170 C   0  0  0  0  0  2  0  0  0  0  0  0
  1  4  1  0  0  0  0
  2 14  1  0  0  0  0
  2 24  1  0  0  0  0
  3  9  1  0  0  0  0
  4 37  1  1  0  0  0
  5 10  1  0  0  0  0
  5 19  1  0  0  0  0
  6 22  1  0  0  0  0
  7  3  2  0  0  0  0
  7 21  1  0  0  0  0
  8 26  1  6  0  0  0
  8 12  1  0  0  0  0
  9 13  1  0  0  0  0
  9  6  2  0  0  0  0
 10  7  1  0  0  0  0
 11  6  1  0  0  0  0
 12  4  1  0  0  0  0
 13 17  1  0  0  0  0
 15 20  1  0  0  0  0
 16 11  1  0  0  0  0
 17  2  1  0  0  0  0
 18  8  1  0  0  0  0
 18 25  1  0  0  0  0
 19 18  1  0  0  0  0
 19 25  1  0  0  0  0
 20  3  1  0  0  0  0
 20 16  2  0  0  0  0
 21 13  2  0  0  0  0
 22  2  1  0  0  0  0
 23 10  1  0  0  0  0
 25 27  1  0  0  0  0
 27 21  1  0  0  0  0
 27  1  1  0  0  0  0
 28 23  1  0  0  0  0
 28 15  1  0  0  0  0
 29 30  1  0  0  0  0
 30 23  1  0  0  0  0
 31 30  2  0  0  0  0
 32 34  1  0  0  0  0
 33 35  1  0  0  0  0
 33 34  2  0  0  0  0
 34 31  1  0  0  0  0
 35 29  2  0  0  0  0
 37 36  1  0  0  0  0
M  END
>  <MODEL>
7

>  <REMARK>
 VINA RESULT:      -8.2      2.231      3.134
  Name = 
  2 active torsions:
  status: ('A' for Active; 'I' for Inactive)
    1  A    between atoms: C_4  and  C_37
    2  A    between atoms: C_23  and  C_30
                            x       y       z     vdW  Elec       q    Type
                         _______ _______ _______ _____ _____    ______ ____

>  <TORSDO>
F 2

$$$$
=
 OpenBabel11122411343D

 37 44  0  0  1  0  0  0  0  0999 V2000
  183.8160  177.1560  140.1360 C   0  0  0  0  0  2  0  0  0  0  0  0
  186.5270  177.1720  135.9100 C   0  0  0  0  0  0  0  0  0  0  0  0
  188.3950  177.6400  139.7020 C   0  0  0  0  0  0  0  0  0  0  0  0
  182.3180  177.4830  140.0640 C   0  0  1  0  0  3  0  0  0  0  0  0
  186.4540  179.0780  142.5860 C   0  0  0  0  0  2  0  0  0  0  0  0
  188.6830  177.4200  137.2810 C   0  0  0  0  0  0  0  0  0  0  0  0
  187.3380  177.9300  140.4820 C   0  0  1  0  0  3  0  0  0  0  0  0
  182.5880  178.6240  142.3000 C   0  0  1  0  0  3  0  0  0  0  0  0
  187.9200  177.5520  138.3540 C   0  0  0  0  0  0  0  0  0  0  0  0
  187.3990  178.1730  141.9170 N   0  0  2  0  0  0  0  0  0  0  0  0
  190.1880  177.4380  137.4490 C   0  0  0  0  0  3  0  0  0  0  0  0
  181.9030  178.6670  140.9380 C   0  0  0  0  0  2  0  0  0  0  0  0
  186.5070  177.7560  138.3410 C   0  0  0  0  0  0  0  0  0  0  0  0
  186.3590  175.6640  136.0020 C   0  0  0  0  0  1  0  0  0  0  0  0
  190.4450  177.2510  141.3150 C   0  0  0  0  0  2  0  0  0  0  0  0
  190.6560  177.3280  138.8980 C   0  0  0  0  0  3  0  0  0  0  0  0
  185.7410  177.8490  137.0570 C   0  0  0  0  0  2  0  0  0  0  0  0
  183.8560  179.4810  142.3350 C   0  0  1  0  0  3  0  0  0  0  0  0
  185.0700  178.5760  142.3100 C   0  0  1  0  0  3  0  0  0  0  0  0
  189.8470  177.4830  139.9620 C   0  0  0  0  0  0  0  0  0  0  0  0
  186.1200  178.0140  139.5860 C   0  0  0  0  0  0  0  0  0  0  0  0
  188.0400  177.5240  135.9160 C   0  0  0  0  0  2  0  0  0  0  0  0
  188.4320  177.4920  142.7060 C   0  0  1  0  0  3  0  0  0  0  0  0
  185.9360  177.6290  134.5940 C   0  0  0  0  0  1  0  0  0  0  0  0
  184.7370  179.4010  141.0860 C   0  0  1  0  0  3  0  0  0  0  0  0
  181.7030  179.0800  143.2760 O   0  0  0  0  0  1  0  0  0  0  0  0
  184.7010  178.3920  139.9390 C   0  0  2  0  0  3  0  0  0  0  0  0
  189.8000  178.0740  142.4110 C   0  0  0  0  0  2  0  0  0  0  0  0
  186.8030  177.2900  144.5950 C   0  0  0  0  0  3  0  0  0  0  0  0
  188.1330  177.4170  144.1790 C   0  0  0  0  0  0  0  0  0  0  0  0
  189.1520  177.5190  145.1400 C   0  0  0  0  0  3  0  0  0  0  0  0
  189.8760  177.5780  147.4710 N   0  0  0  0  0  1  0  0  0  0  0  0
  187.5100  177.3440  146.9100 C   0  0  0  0  0  3  0  0  0  0  0  0
  188.8400  177.4780  146.5010 C   0  0  0  0  0  0  0  0  0  0  0  0
  186.4920  177.2500  145.9580 C   0  0  0  0  0  3  0  0  0  0  0  0
  181.6290  179.0940  138.4370 O   0  0  0  0  0  1  0  0  0  0  0  0
  181.8830  177.7350  138.6290 C   0  0  0  0  0  2  0  0  0  0  0  0
  2 22  1  0  0  0  0
  2 14  1  0  0  0  0
  2 17  1  0  0  0  0
  3 20  1  0  0  0  0
  3  7  1  0  0  0  0
  4 37  1  6  0  0  0
  4  1  1  0  0  0  0
  4 12  1  0  0  0  0
  6 11  2  0  0  0  0
  6  9  1  0  0  0  0
  7 21  1  6  0  0  0
  7 10  1  0  0  0  0
  8 18  1  0  0  0  0
  8 26  1  1  0  0  0
  9  3  2  0  0  0  0
 10  5  1  1  0  0  0
 10 23  1  0  0  0  0
 11 16  1  0  0  0  0
 12  8  1  0  0  0  0
 13  9  1  0  0  0  0
 13 21  2  0  0  0  0
 15 28  1  0  0  0  0
 16 20  2  0  0  0  0
 17 13  1  0  0  0  0
 19 18  1  0  0  0  0
 19  5  1  0  0  0  0
 20 15  1  0  0  0  0
 21 27  1  0  0  0  0
 22  6  1  0  0  0  0
 23 30  1  0  0  0  0
 24  2  1  0  0  0  0
 25 19  1  0  0  0  0
 25 18  1  0  0  0  0
 27  1  1  0  0  0  0
 27 25  1  0  0  0  0
 28 23  1  0  0  0  0
 29 35  1  0  0  0  0
 30 29  2  0  0  0  0
 30 31  1  0  0  0  0
 31 34  2  0  0  0  0
 34 33  1  0  0  0  0
 34 32  1  0  0  0  0
 35 33  2  0  0  0  0
 36 37  1  0  0  0  0
M  END
>  <MODEL>
8

>  <REMARK>
 VINA RESULT:      -8.1      3.086      8.375
  Name = 
  2 active torsions:
  status: ('A' for Active; 'I' for Inactive)
    1  A    between atoms: C_4  and  C_37
    2  A    between atoms: C_23  and  C_30
                            x       y       z     vdW  Elec       q    Type
                         _______ _______ _______ _____ _____    ______ ____

>  <TORSDO>
F 2

$$$$
=
 OpenBabel11122411343D

 37 44  0  0  1  0  0  0  0  0999 V2000
  188.3190  178.9250  140.7840 C   0  0  0  0  0  2  0  0  0  0  0  0
  183.5680  179.2310  139.1910 C   0  0  0  0  0  0  0  0  0  0  0  0
  184.4530  178.4100  143.2690 C   0  0  0  0  0  0  0  0  0  0  0  0
  189.4310  178.6280  139.7680 C   0  0  1  0  0  3  0  0  0  0  0  0
  187.7060  176.7590  144.1890 C   0  0  0  0  0  2  0  0  0  0  0  0
  182.7280  178.8330  141.5840 C   0  0  0  0  0  0  0  0  0  0  0  0
  185.7520  178.0700  143.1930 C   0  0  0  0  0  0  0  0  0  0  0  0
  190.5650  177.2940  141.5870 C   0  0  1  0  0  3  0  0  0  0  0  0
  183.9880  178.6210  141.9310 C   0  0  0  0  0  0  0  0  0  0  0  0
  186.5890  177.7040  144.3280 N   0  0  0  0  0  0  0  0  0  0  0  0
  181.6570  178.7780  142.6530 C   0  0  0  0  0  2  0  0  0  0  0  0
  190.2500  177.3790  140.0970 C   0  0  0  0  0  2  0  0  0  0  0  0
  185.0740  178.4410  141.0240 C   0  0  0  0  0  0  0  0  0  0  0  0
  183.8200  180.7280  139.2740 C   0  0  0  0  0  1  0  0  0  0  0  0
  183.8740  178.6280  145.8330 C   0  0  0  0  0  2  0  0  0  0  0  0
  182.1990  178.7560  144.0800 C   0  0  0  0  0  3  0  0  0  0  0  0
  184.8690  178.4690  139.5400 C   0  0  0  0  0  2  0  0  0  0  0  0
  189.5610  176.4180  142.3400 C   0  0  1  0  0  3  0  0  0  0  0  0
  188.6360  177.3040  143.1480 C   0  0  1  0  0  3  0  0  0  0  0  0
  183.4880  178.5220  144.3900 C   0  0  0  0  0  0  0  0  0  0  0  0
  186.1420  178.0820  141.7290 C   0  0  0  0  0  0  0  0  0  0  0  0
  182.3750  178.8570  140.1140 C   0  0  0  0  0  2  0  0  0  0  0  0
  186.3030  178.2980  145.6390 C   0  0  1  0  0  3  0  0  0  0  0  0
  183.1890  178.8980  137.7640 C   0  0  0  0  0  1  0  0  0  0  0  0
  188.0980  176.5920  141.9260 C   0  0  1  0  0  3  0  0  0  0  0  0
  191.8450  176.7700  141.7580 O   0  0  0  0  0  1  0  0  0  0  0  0
  187.4540  177.6960  141.0890 C   0  0  2  0  0  3  0  0  0  0  0  0
  185.0260  177.7230  146.2190 C   0  0  0  0  0  2  0  0  0  0  0  0
  187.2460  178.6320  147.9330 C   0  0  0  0  0  3  0  0  0  0  0  0
  187.4570  178.2510  146.6030 C   0  0  0  0  0  0  0  0  0  0  0  0
  188.7450  177.8790  146.1860 C   0  0  0  0  0  3  0  0  0  0  0  0
  191.1070  177.4940  146.6700 N   0  0  0  0  0  1  0  0  0  0  0  0
  189.5860  178.2500  148.4250 C   0  0  0  0  0  3  0  0  0  0  0  0
  189.8050  177.8750  147.0970 C   0  0  0  0  0  0  0  0  0  0  0  0
  188.3070  178.6280  148.8430 C   0  0  0  0  0  3  0  0  0  0  0  0
  189.0550  179.7000  137.6640 O   0  0  0  0  0  1  0  0  0  0  0  0
  188.8650  178.5070  138.3610 C   0  0  0  0  0  2  0  0  0  0  0  0
  1 27  1  0  0  0  0
  2 14  1  0  0  0  0
  2 17  1  0  0  0  0
  2 22  1  0  0  0  0
  3 20  1  0  0  0  0
  4 37  1  6  0  0  0
  4 12  1  0  0  0  0
  4  1  1  0  0  0  0
  5 10  1  0  0  0  0
  6  9  2  0  0  0  0
  6 11  1  0  0  0  0
  7  3  2  0  0  0  0
  7 10  1  0  0  0  0
  8 26  1  6  0  0  0
  8 18  1  0  0  0  0
  9  3  1  0  0  0  0
 10 23  1  0  0  0  0
 11 16  1  0  0  0  0
 12  8  1  0  0  0  0
 13 21  2  0  0  0  0
 13  9  1  0  0  0  0
 15 28  1  0  0  0  0
 16 20  2  0  0  0  0
 17 13  1  0  0  0  0
 18 19  1  0  0  0  0
 19  5  1  0  0  0  0
 20 15  1  0  0  0  0
 21  7  1  0  0  0  0
 22  6  1  0  0  0  0
 23 28  1  0  0  0  0
 23 30  1  0  0  0  0
 24  2  1  0  0  0  0
 25 18  1  0  0  0  0
 25 19  1  0  0  0  0
 27 21  1  0  0  0  0
 27 25  1  0  0  0  0
 29 35  1  0  0  0  0
 30 29  2  0  0  0  0
 31 30  1  0  0  0  0
 31 34  2  0  0  0  0
 32 34  1  0  0  0  0
 33 35  2  0  0  0  0
 34 33  1  0  0  0  0
 36 37  1  0  0  0  0
M  END
>  <MODEL>
9

>  <REMARK>
 VINA RESULT:      -7.8      1.862      6.647
  Name = 
  2 active torsions:
  status: ('A' for Active; 'I' for Inactive)
    1  A    between atoms: C_4  and  C_37
    2  A    between atoms: C_23  and  C_30
                            x       y       z     vdW  Elec       q    Type
                         _______ _______ _______ _____ _____    ______ ____

>  <TORSDO>
F 2

$$$$
