=
 OpenBabel11122410473D

 32 37  0  0  1  0  0  0  0  0999 V2000
  186.9410  178.1730  141.9530 C   0  0  0  0  0  0  0  0  0  0  0  0
  185.1000  178.3610  146.4170 C   0  0  0  0  0  3  0  0  0  0  0  0
  183.8520  178.6870  145.8880 C   0  0  0  0  0  3  0  0  0  0  0  0
  185.4540  178.6360  139.9780 C   0  0  0  0  0  0  0  0  0  0  0  0
  184.1780  178.9640  139.5430 C   0  0  0  0  0  0  0  0  0  0  0  0
  189.2690  177.6400  141.6580 N   0  0  0  0  0  0  0  0  0  0  0  0
  188.3210  177.7360  143.8370 C   0  0  0  0  0  3  0  0  0  0  0  0
  182.0710  179.4560  139.6870 C   0  0  0  0  0  0  0  0  0  0  0  0
  186.1830  178.1510  145.5620 C   0  0  0  0  0  3  0  0  0  0  0  0
  187.0970  178.0580  143.3180 N   0  0  0  0  0  0  0  0  0  0  0  0
  186.0390  178.2630  144.1630 C   0  0  0  0  0  0  0  0  0  0  0  0
  184.6020  178.7110  142.2480 C   0  0  0  0  0  0  0  0  0  0  0  0
  182.4270  179.4450  138.3800 N   0  0  0  0  0  0  0  0  0  0  0  0
  189.4210  177.5090  143.0080 C   0  0  0  0  0  0  0  0  0  0  0  0
  183.7220  179.1410  138.2880 N   0  0  0  0  0  0  0  0  0  0  0  0
  183.6880  178.8030  144.5080 C   0  0  0  0  0  3  0  0  0  0  0  0
  184.7710  178.5940  143.6370 C   0  0  0  0  0  0  0  0  0  0  0  0
  183.3600  179.0350  141.7600 N   0  0  0  0  0  0  0  0  0  0  0  0
  188.0600  177.9610  141.1300 C   0  0  0  0  0  3  0  0  0  0  0  0
  186.3700  178.4650  139.1270 O   0  0  0  0  0  0  0  0  0  0  0  0
  180.7040  179.7530  140.1930 C   0  0  0  0  0  1  0  0  0  0  0  0
  185.6710  178.5060  141.3940 C   0  0  0  0  0  0  0  0  0  0  0  0
  183.1800  179.1510  140.4270 C   0  0  0  0  0  0  0  0  0  0  0  0
  191.2200  178.3040  144.3690 O   0  0  0  0  0  0  0  0  0  0  0  0
  190.7570  177.1990  143.6260 C   0  0  1  0  0  3  0  0  0  0  0  0
  190.6680  177.2420  145.1040 C   0  0  1  0  0  3  0  0  0  0  0  0
  191.7910  176.4250  145.7110 C   0  0  0  0  0  2  0  0  0  0  0  0
  191.7170  176.4830  147.1970 C   0  0  0  0  0  0  0  0  0  0  0  0
  192.7600  175.9840  147.9650 O   0  0  0  0  0  1  0  0  0  0  0  0
  190.7220  177.0130  147.7570 O   0  0  0  0  0  0  0  0  0  0  0  0
  189.9330  177.6620  139.3060 C   0  0  0  0  0  1  0  0  0  0  0  0
  190.3880  177.4490  140.7400 C   0  0  0  0  0  2  0  0  0  0  0  0
  1 10  1  0  0  0  0
  3  2  1  0  0  0  0
  4 22  1  0  0  0  0
  5  4  1  0  0  0  0
  5 23  1  0  0  0  0
  6 14  1  0  0  0  0
  8 21  1  0  0  0  0
  8 23  1  0  0  0  0
  9  2  2  0  0  0  0
 10  7  1  0  0  0  0
 10 11  1  0  0  0  0
 11  9  1  0  0  0  0
 12 17  1  0  0  0  0
 13  8  2  0  0  0  0
 14  7  2  0  0  0  0
 15 13  1  0  0  0  0
 15  5  2  0  0  0  0
 16  3  2  0  0  0  0
 17 11  2  0  0  0  0
 17 16  1  0  0  0  0
 18 12  1  0  0  0  0
 19  6  1  0  0  0  0
 19  1  2  0  0  0  0
 20  4  2  0  0  0  0
 22  1  1  0  0  0  0
 22 12  2  0  0  0  0
 23 18  2  0  0  0  0
 24 26  1  0  0  0  0
 25 14  1  6  0  0  0
 25 24  1  0  0  0  0
 25 26  1  0  0  0  0
 26 27  1  1  0  0  0
 27 28  1  0  0  0  0
 28 30  2  0  0  0  0
 28 29  1  0  0  0  0
 31 32  1  0  0  0  0
 32  6  1  0  0  0  0
M  END
>  <MODEL>
1

>  <REMARK>
 VINA RESULT:      -9.8      0.000      0.000
  Name = 
  4 active torsions:
  status: ('A' for Active; 'I' for Inactive)
    1  A    between atoms: N_7  and  C_19
    2  A    between atoms: C_10  and  C_17
    3  A    between atoms: C_20  and  C_29
    4  A    between atoms: C_29  and  C_30
                            x       y       z     vdW  Elec       q    Type
                         _______ _______ _______ _____ _____    ______ ____

>  <TORSDO>
F 4

$$$$
=
 OpenBabel11122410473D

 32 37  0  0  1  0  0  0  0  0999 V2000
  186.7000  178.1330  142.8850 C   0  0  0  0  0  0  0  0  0  0  0  0
  189.8610  177.8240  139.2430 C   0  0  0  0  0  3  0  0  0  0  0  0
  190.8600  177.4520  140.1410 C   0  0  0  0  0  3  0  0  0  0  0  0
  187.4560  177.6260  145.2290 C   0  0  0  0  0  0  0  0  0  0  0  0
  188.5120  177.2510  146.0470 C   0  0  0  0  0  0  0  0  0  0  0  0
  184.4260  178.7720  142.4230 N   0  0  0  0  0  0  0  0  0  0  0  0
  186.0120  178.6010  140.6590 C   0  0  0  0  0  3  0  0  0  0  0  0
  190.5310  176.6700  146.5830 C   0  0  0  0  0  0  0  0  0  0  0  0
  188.5710  178.0860  139.7060 C   0  0  0  0  0  3  0  0  0  0  0  0
  186.9920  178.2380  141.5410 N   0  0  0  0  0  0  0  0  0  0  0  0
  188.2560  177.9820  141.0780 C   0  0  0  0  0  0  0  0  0  0  0  0
  188.9850  177.4930  143.3500 C   0  0  0  0  0  0  0  0  0  0  0  0
  189.7770  176.7090  147.7080 N   0  0  0  0  0  0  0  0  0  0  0  0
  184.7100  178.8590  141.0900 C   0  0  0  0  0  0  0  0  0  0  0  0
  188.5350  177.0650  147.3810 N   0  0  0  0  0  2  0  0  0  0  0  0
  190.5690  177.3430  141.5010 C   0  0  0  0  0  3  0  0  0  0  0  0
  189.2740  177.6040  141.9810 C   0  0  0  0  0  0  0  0  0  0  0  0
  189.9920  177.1250  144.2090 N   0  0  0  0  0  2  0  0  0  0  0  0
  185.3900  178.4140  143.3090 C   0  0  0  0  0  3  0  0  0  0  0  0
  186.3240  177.8420  145.7430 O   0  0  0  0  0  0  0  0  0  0  0  0
  191.9740  176.3120  146.5390 C   0  0  0  0  0  1  0  0  0  0  0  0
  187.7090  177.7530  143.8190 C   0  0  0  0  0  0  0  0  0  0  0  0
  189.7300  177.0130  145.5280 C   0  0  0  0  0  0  0  0  0  0  0  0
  184.2840  180.0170  139.0410 O   0  0  0  0  0  0  0  0  0  0  0  0
  183.6760  179.2960  140.0900 C   0  0  1  0  0  3  0  0  0  0  0  0
  183.9410  178.6830  138.7680 C   0  0  1  0  0  3  0  0  0  0  0  0
  182.6660  178.6590  137.9470 C   0  0  0  0  0  2  0  0  0  0  0  0
  182.6310  177.4360  137.0980 C   0  0  0  0  0  0  0  0  0  0  0  0
  182.0450  176.2730  137.5780 O   0  0  0  0  0  1  0  0  0  0  0  0
  183.1040  177.4660  135.9330 O   0  0  0  0  0  0  0  0  0  0  0  0
  183.0650  178.8810  144.4500 C   0  0  0  0  0  1  0  0  0  0  0  0
  183.0930  179.0620  142.9420 C   0  0  0  0  0  2  0  0  0  0  0  0
  1 19  2  0  0  0  0
  1 22  1  0  0  0  0
  2  9  2  0  0  0  0
  2  3  1  0  0  0  0
  3 16  2  0  0  0  0
  4 20  2  0  0  0  0
  4  5  1  0  0  0  0
  5 15  1  0  0  0  0
  6 32  1  0  0  0  0
  6 19  1  0  0  0  0
  7 14  2  0  0  0  0
  7 10  1  0  0  0  0
  8 13  2  0  0  0  0
  9 11  1  0  0  0  0
 10  1  1  0  0  0  0
 11 10  1  0  0  0  0
 11 17  2  0  0  0  0
 12 22  2  0  0  0  0
 12 18  1  0  0  0  0
 14  6  1  0  0  0  0
 15 13  1  0  0  0  0
 16 17  1  0  0  0  0
 17 12  1  0  0  0  0
 18 23  1  0  0  0  0
 21  8  1  0  0  0  0
 22  4  1  0  0  0  0
 23  5  2  0  0  0  0
 23  8  1  0  0  0  0
 24 25  1  0  0  0  0
 25 14  1  1  0  0  0
 26 27  1  6  0  0  0
 26 24  1  0  0  0  0
 26 25  1  0  0  0  0
 28 29  1  0  0  0  0
 28 27  1  0  0  0  0
 30 28  2  0  0  0  0
 32 31  1  0  0  0  0
M  END
>  <MODEL>
2

>  <REMARK>
 VINA RESULT:      -9.6      2.460      8.606
  Name = 
  4 active torsions:
  status: ('A' for Active; 'I' for Inactive)
    1  A    between atoms: N_7  and  C_19
    2  A    between atoms: C_10  and  C_17
    3  A    between atoms: C_20  and  C_29
    4  A    between atoms: C_29  and  C_30
                            x       y       z     vdW  Elec       q    Type
                         _______ _______ _______ _____ _____    ______ ____

>  <TORSDO>
F 4

$$$$
=
 OpenBabel11122410473D

 32 37  0  0  1  0  0  0  0  0999 V2000
  187.2820  178.0550  142.0590 C   0  0  0  0  0  0  0  0  0  0  0  0
  183.7260  178.8910  145.2230 C   0  0  0  0  0  3  0  0  0  0  0  0
  184.5840  178.5690  146.2730 C   0  0  0  0  0  3  0  0  0  0  0  0
  189.5420  177.3360  142.8950 C   0  0  0  0  0  0  0  0  0  0  0  0
  190.3220  177.0320  144.0010 C   0  0  0  0  0  0  0  0  0  0  0  0
  186.8570  178.3330  139.7060 N   0  0  0  0  0  0  0  0  0  0  0  0
  185.1370  178.7400  141.2980 C   0  0  0  0  0  3  0  0  0  0  0  0
  190.8190  176.7470  146.0930 C   0  0  0  0  0  0  0  0  0  0  0  0
  184.1880  178.8440  143.9070 C   0  0  0  0  0  3  0  0  0  0  0  0
  185.9800  178.4220  142.3270 N   0  0  0  0  0  0  0  0  0  0  0  0
  185.5180  178.4710  143.6170 C   0  0  0  0  0  0  0  0  0  0  0  0
  187.7080  177.7740  144.4220 C   0  0  0  0  0  0  0  0  0  0  0  0
  191.9140  176.4740  145.3450 N   0  0  0  0  0  0  0  0  0  0  0  0
  185.5730  178.7130  139.9720 C   0  0  0  0  0  0  0  0  0  0  0  0
  191.6120  176.6490  144.0580 N   0  0  0  0  0  0  0  0  0  0  0  0
  185.9020  178.1990  146.0070 C   0  0  0  0  0  3  0  0  0  0  0  0
  186.3810  178.1460  144.6860 C   0  0  0  0  0  0  0  0  0  0  0  0
  188.5280  177.4610  145.4790 N   0  0  0  0  0  0  0  0  0  0  0  0
  187.7020  178.0130  140.7190 C   0  0  0  0  0  3  0  0  0  0  0  0
  190.0500  177.2630  141.7430 O   0  0  0  0  0  0  0  0  0  0  0  0
  190.7610  176.6650  147.5770 C   0  0  0  0  0  1  0  0  0  0  0  0
  188.1750  177.7220  143.1210 C   0  0  0  0  0  0  0  0  0  0  0  0
  189.8070  177.1010  145.2430 C   0  0  0  0  0  0  0  0  0  0  0  0
  183.9110  177.8650  138.4760 O   0  0  0  0  0  0  0  0  0  0  0  0
  184.6000  179.0310  138.8700 C   0  0  1  0  0  3  0  0  0  0  0  0
  183.2120  178.7550  139.3080 C   0  0  1  0  0  3  0  0  0  0  0  0
  182.2380  179.5560  138.4670 C   0  0  0  0  0  2  0  0  0  0  0  0
  181.2080  180.1830  139.3400 C   0  0  0  0  0  0  0  0  0  0  0  0
  180.7470  179.5110  140.4640 O   0  0  0  0  0  1  0  0  0  0  0  0
  180.7760  181.3350  139.0770 O   0  0  0  0  0  0  0  0  0  0  0  0
  188.8470  178.5790  138.3080 C   0  0  0  0  0  1  0  0  0  0  0  0
  187.3640  178.2510  138.3400 C   0  0  0  0  0  2  0  0  0  0  0  0
  1 10  1  0  0  0  0
  1 22  1  0  0  0  0
  2  3  1  0  0  0  0
  4 22  1  0  0  0  0
  4  5  1  0  0  0  0
  5 15  2  0  0  0  0
  5 23  1  0  0  0  0
  6 14  1  0  0  0  0
  6 19  1  0  0  0  0
  7 10  1  0  0  0  0
  8 21  1  0  0  0  0
  9  2  2  0  0  0  0
 10 11  1  0  0  0  0
 11  9  1  0  0  0  0
 11 17  2  0  0  0  0
 12 17  1  0  0  0  0
 12 18  1  0  0  0  0
 13  8  2  0  0  0  0
 14  7  2  0  0  0  0
 15 13  1  0  0  0  0
 16  3  2  0  0  0  0
 17 16  1  0  0  0  0
 19  1  2  0  0  0  0
 20  4  2  0  0  0  0
 22 12  2  0  0  0  0
 23 18  2  0  0  0  0
 23  8  1  0  0  0  0
 24 25  1  0  0  0  0
 24 26  1  0  0  0  0
 25 26  1  0  0  0  0
 25 14  1  1  0  0  0
 26 27  1  6  0  0  0
 27 28  1  0  0  0  0
 28 29  1  0  0  0  0
 30 28  2  0  0  0  0
 31 32  1  0  0  0  0
 32  6  1  0  0  0  0
M  END
>  <MODEL>
3

>  <REMARK>
 VINA RESULT:      -9.6      2.353      7.656
  Name = 
  4 active torsions:
  status: ('A' for Active; 'I' for Inactive)
    1  A    between atoms: N_7  and  C_19
    2  A    between atoms: C_10  and  C_17
    3  A    between atoms: C_20  and  C_29
    4  A    between atoms: C_29  and  C_30
                            x       y       z     vdW  Elec       q    Type
                         _______ _______ _______ _____ _____    ______ ____

>  <TORSDO>
F 4

$$$$
=
 OpenBabel11122410473D

 32 37  0  0  1  0  0  0  0  0999 V2000
  188.4620  177.7710  141.3690 C   0  0  0  0  0  0  0  0  0  0  0  0
  191.7480  176.4460  144.6550 C   0  0  0  0  0  3  0  0  0  0  0  0
  190.8160  176.6510  145.6710 C   0  0  0  0  0  3  0  0  0  0  0  0
  186.1550  178.4320  142.1200 C   0  0  0  0  0  0  0  0  0  0  0  0
  185.2950  178.6090  143.1950 C   0  0  0  0  0  0  0  0  0  0  0  0
  189.0640  177.7890  139.0390 N   0  0  0  0  0  0  0  0  0  0  0  0
  190.6490  177.1370  140.6890 C   0  0  0  0  0  3  0  0  0  0  0  0
  184.6420  178.6340  145.2630 C   0  0  0  0  0  0  0  0  0  0  0  0
  191.3900  176.6750  143.3260 C   0  0  0  0  0  3  0  0  0  0  0  0
  189.7340  177.3410  141.6850 N   0  0  0  0  0  0  0  0  0  0  0  0
  190.0930  177.1140  142.9880 C   0  0  0  0  0  0  0  0  0  0  0  0
  187.8570  177.7550  143.7110 C   0  0  0  0  0  0  0  0  0  0  0  0
  183.6120  179.0280  144.4760 N   0  0  0  0  0  0  0  0  0  0  0  0
  190.3180  177.3470  139.3490 C   0  0  0  0  0  0  0  0  0  0  0  0
  184.0100  179.0130  143.2040 N   0  0  0  0  0  0  0  0  0  0  0  0
  189.5280  177.0850  145.3570 C   0  0  0  0  0  3  0  0  0  0  0  0
  189.1550  177.3190  144.0220 C   0  0  0  0  0  0  0  0  0  0  0  0
  186.9620  177.9490  144.7350 N   0  0  0  0  0  0  0  0  0  0  0  0
  188.1470  177.9970  140.0190 C   0  0  0  0  0  3  0  0  0  0  0  0
  185.7380  178.6650  140.9520 O   0  0  0  0  0  0  0  0  0  0  0  0
  184.5850  178.5220  146.7450 C   0  0  0  0  0  1  0  0  0  0  0  0
  187.4940  177.9860  142.3960 C   0  0  0  0  0  0  0  0  0  0  0  0
  185.7110  178.3680  144.4520 C   0  0  0  0  0  0  0  0  0  0  0  0
  192.5690  176.6930  138.8740 O   0  0  0  0  0  0  0  0  0  0  0  0
  191.3690  177.1500  138.2910 C   0  0  1  0  0  3  0  0  0  0  0  0
  191.7800  175.7280  138.2260 C   0  0  1  0  0  3  0  0  0  0  0  0
  192.3820  175.4290  136.8670 C   0  0  0  0  0  2  0  0  0  0  0  0
  193.7740  174.9250  137.0280 C   0  0  0  0  0  0  0  0  0  0  0  0
  194.8490  175.7180  136.6490 O   0  0  0  0  0  0  0  0  0  0  0  0
  193.9780  173.7920  137.5360 O   0  0  0  0  0  1  0  0  0  0  0  0
  187.1550  177.9890  137.5270 C   0  0  0  0  0  1  0  0  0  0  0  0
  188.6660  178.0600  137.6610 C   0  0  0  0  0  2  0  0  0  0  0  0
  1 10  1  0  0  0  0
  1 22  1  0  0  0  0
  2  3  1  0  0  0  0
  4 22  1  0  0  0  0
  4  5  1  0  0  0  0
  5 15  2  0  0  0  0
  5 23  1  0  0  0  0
  6 14  1  0  0  0  0
  6 19  1  0  0  0  0
  7 10  1  0  0  0  0
  8 21  1  0  0  0  0
  9  2  2  0  0  0  0
 10 11  1  0  0  0  0
 11  9  1  0  0  0  0
 11 17  2  0  0  0  0
 12 17  1  0  0  0  0
 12 18  1  0  0  0  0
 13  8  2  0  0  0  0
 14  7  2  0  0  0  0
 15 13  1  0  0  0  0
 16  3  2  0  0  0  0
 17 16  1  0  0  0  0
 19  1  2  0  0  0  0
 20  4  2  0  0  0  0
 22 12  2  0  0  0  0
 23 18  2  0  0  0  0
 23  8  1  0  0  0  0
 25 24  1  0  0  0  0
 25 14  1  1  0  0  0
 26 27  1  6  0  0  0
 26 25  1  0  0  0  0
 26 24  1  0  0  0  0
 27 28  1  0  0  0  0
 28 30  1  0  0  0  0
 29 28  2  0  0  0  0
 31 32  1  0  0  0  0
 32  6  1  0  0  0  0
M  END
>  <MODEL>
4

>  <REMARK>
 VINA RESULT:      -9.6      3.300      5.867
  Name = 
  4 active torsions:
  status: ('A' for Active; 'I' for Inactive)
    1  A    between atoms: N_7  and  C_19
    2  A    between atoms: C_10  and  C_17
    3  A    between atoms: C_20  and  C_29
    4  A    between atoms: C_29  and  C_30
                            x       y       z     vdW  Elec       q    Type
                         _______ _______ _______ _____ _____    ______ ____

>  <TORSDO>
F 4

$$$$
=
 OpenBabel11122410473D

 32 37  0  0  1  0  0  0  0  0999 V2000
  188.5620  177.7380  142.1910 C   0  0  0  0  0  0  0  0  0  0  0  0
  183.8690  178.8600  142.4540 C   0  0  0  0  0  3  0  0  0  0  0  0
  183.9300  178.7930  143.8450 C   0  0  0  0  0  3  0  0  0  0  0  0
  189.8640  177.3480  144.3070 C   0  0  0  0  0  0  0  0  0  0  0  0
  189.8300  177.3030  145.6930 C   0  0  0  0  0  0  0  0  0  0  0  0
  189.6150  177.5620  140.0340 N   0  0  0  0  0  0  0  0  0  0  0  0
  187.3080  178.1180  140.2080 C   0  0  0  0  0  3  0  0  0  0  0  0
  188.9890  177.4320  147.6880 C   0  0  0  0  0  0  0  0  0  0  0  0
  185.0130  178.6130  141.6940 C   0  0  0  0  0  3  0  0  0  0  0  0
  187.3690  178.0510  141.5730 N   0  0  0  0  0  0  0  0  0  0  0  0
  186.2410  178.2940  142.3120 C   0  0  0  0  0  0  0  0  0  0  0  0
  187.5050  177.9140  144.3590 C   0  0  0  0  0  0  0  0  0  0  0  0
  190.3020  177.1120  147.7890 N   0  0  0  0  0  0  0  0  0  0  0  0
  188.4380  177.8880  139.4220 C   0  0  0  0  0  0  0  0  0  0  0  0
  190.8220  177.0330  146.5640 N   0  0  0  0  0  2  0  0  0  0  0  0
  185.1350  178.4790  144.4740 C   0  0  0  0  0  3  0  0  0  0  0  0
  186.2950  178.2280  143.7210 C   0  0  0  0  0  0  0  0  0  0  0  0
  187.5320  177.8550  145.7310 N   0  0  0  0  0  2  0  0  0  0  0  0
  189.6870  177.4900  141.3880 C   0  0  0  0  0  3  0  0  0  0  0  0
  190.9480  177.1090  143.7090 O   0  0  0  0  0  0  0  0  0  0  0  0
  188.0670  177.6110  148.8420 C   0  0  0  0  0  1  0  0  0  0  0  0
  188.6440  177.6660  143.6140 C   0  0  0  0  0  0  0  0  0  0  0  0
  188.6870  177.5540  146.3590 C   0  0  0  0  0  0  0  0  0  0  0  0
  188.2200  176.6250  137.4030 O   0  0  0  0  0  0  0  0  0  0  0  0
  188.3140  177.9320  137.9240 C   0  0  1  0  0  3  0  0  0  0  0  0
  187.0210  177.3510  137.4930 C   0  0  1  0  0  3  0  0  0  0  0  0
  186.6550  177.8730  136.1170 C   0  0  0  0  0  2  0  0  0  0  0  0
  185.7260  176.9250  135.4440 C   0  0  0  0  0  0  0  0  0  0  0  0
  186.2270  175.8120  134.7820 O   0  0  0  0  0  0  0  0  0  0  0  0
  184.4830  177.1150  135.5010 O   0  0  0  0  0  1  0  0  0  0  0  0
  192.0480  177.3790  140.1590 C   0  0  0  0  0  1  0  0  0  0  0  0
  190.8230  177.2760  139.2670 C   0  0  0  0  0  2  0  0  0  0  0  0
  1 22  1  0  0  0  0
  2  3  1  0  0  0  0
  3 16  2  0  0  0  0
  4  5  1  0  0  0  0
  5 23  2  0  0  0  0
  5 15  1  0  0  0  0
  6 19  1  0  0  0  0
  7 10  1  0  0  0  0
  8 13  2  0  0  0  0
  8 21  1  0  0  0  0
  9 11  1  0  0  0  0
  9  2  2  0  0  0  0
 10  1  1  0  0  0  0
 10 11  1  0  0  0  0
 11 17  2  0  0  0  0
 12 18  1  0  0  0  0
 14  6  1  0  0  0  0
 14  7  2  0  0  0  0
 15 13  1  0  0  0  0
 17 12  1  0  0  0  0
 17 16  1  0  0  0  0
 18 23  1  0  0  0  0
 19  1  2  0  0  0  0
 20  4  2  0  0  0  0
 22  4  1  0  0  0  0
 22 12  2  0  0  0  0
 23  8  1  0  0  0  0
 24 26  1  0  0  0  0
 24 25  1  0  0  0  0
 25 14  1  1  0  0  0
 26 27  1  6  0  0  0
 26 25  1  0  0  0  0
 28 30  1  0  0  0  0
 28 27  1  0  0  0  0
 29 28  2  0  0  0  0
 32  6  1  0  0  0  0
 32 31  1  0  0  0  0
M  END
>  <MODEL>
5

>  <REMARK>
 VINA RESULT:      -9.5      2.655      7.460
  Name = 
  4 active torsions:
  status: ('A' for Active; 'I' for Inactive)
    1  A    between atoms: N_7  and  C_19
    2  A    between atoms: C_10  and  C_17
    3  A    between atoms: C_20  and  C_29
    4  A    between atoms: C_29  and  C_30
                            x       y       z     vdW  Elec       q    Type
                         _______ _______ _______ _____ _____    ______ ____

>  <TORSDO>
F 4

$$$$
=
 OpenBabel11122410473D

 32 37  0  0  1  0  0  0  0  0999 V2000
  185.1560  178.5180  141.5630 C   0  0  0  0  0  0  0  0  0  0  0  0
  186.5870  178.2500  146.1710 C   0  0  0  0  0  3  0  0  0  0  0  0
  185.2650  178.3930  146.5900 C   0  0  0  0  0  3  0  0  0  0  0  0
  182.7140  178.8090  141.0380 C   0  0  0  0  0  0  0  0  0  0  0  0
  181.4310  178.9450  141.5470 C   0  0  0  0  0  0  0  0  0  0  0  0
  186.7960  178.3720  139.8070 N   0  0  0  0  0  0  0  0  0  0  0  0
  187.4570  178.2380  142.0880 C   0  0  0  0  0  3  0  0  0  0  0  0
  179.8670  179.0910  143.0420 C   0  0  0  0  0  0  0  0  0  0  0  0
  186.8880  178.2450  144.8080 C   0  0  0  0  0  3  0  0  0  0  0  0
  186.1600  178.3800  142.4990 N   0  0  0  0  0  0  0  0  0  0  0  0
  185.8720  178.3840  143.8390 C   0  0  0  0  0  0  0  0  0  0  0  0
  183.5080  178.6660  143.3260 C   0  0  0  0  0  0  0  0  0  0  0  0
  179.3040  179.1830  141.8140 N   0  0  0  0  0  0  0  0  0  0  0  0
  187.7880  178.2190  140.7330 C   0  0  0  0  0  0  0  0  0  0  0  0
  180.2630  179.0930  140.8920 N   0  0  0  0  0  0  0  0  0  0  0  0
  184.2470  178.5310  145.6470 C   0  0  0  0  0  3  0  0  0  0  0  0
  184.5360  178.5280  144.2710 C   0  0  0  0  0  0  0  0  0  0  0  0
  182.2160  178.8050  143.7720 N   0  0  0  0  0  0  0  0  0  0  0  0
  185.5050  178.5160  140.2020 C   0  0  0  0  0  3  0  0  0  0  0  0
  182.8860  178.8160  139.7880 O   0  0  0  0  0  0  0  0  0  0  0  0
  179.1180  179.1490  144.3260 C   0  0  0  0  0  1  0  0  0  0  0  0
  183.7970  178.6640  141.9730 C   0  0  0  0  0  0  0  0  0  0  0  0
  181.2160  178.9400  142.8760 C   0  0  0  0  0  0  0  0  0  0  0  0
  189.9650  177.4250  141.3260 O   0  0  0  0  0  0  0  0  0  0  0  0
  189.2320  178.1020  140.3290 C   0  0  1  0  0  3  0  0  0  0  0  0
  189.6180  176.6790  140.1870 C   0  0  1  0  0  3  0  0  0  0  0  0
  190.8310  176.5630  139.2840 C   0  0  0  0  0  2  0  0  0  0  0  0
  190.5120  175.7020  138.1120 C   0  0  0  0  0  0  0  0  0  0  0  0
  189.6960  176.1850  137.0970 O   0  0  0  0  0  0  0  0  0  0  0  0
  191.0070  174.5490  138.0250 O   0  0  0  0  0  1  0  0  0  0  0  0
  185.9020  177.8380  137.5970 C   0  0  0  0  0  1  0  0  0  0  0  0
  187.0810  178.3950  138.3760 C   0  0  0  0  0  2  0  0  0  0  0  0
  1 22  1  0  0  0  0
  1 10  1  0  0  0  0
  2  3  1  0  0  0  0
  4  5  1  0  0  0  0
  4 22  1  0  0  0  0
  5 23  1  0  0  0  0
  6 19  1  0  0  0  0
  6 14  1  0  0  0  0
  7 10  1  0  0  0  0
  8 21  1  0  0  0  0
  9  2  2  0  0  0  0
 10 11  1  0  0  0  0
 11 17  2  0  0  0  0
 11  9  1  0  0  0  0
 12 18  1  0  0  0  0
 12 17  1  0  0  0  0
 13  8  2  0  0  0  0
 14  7  2  0  0  0  0
 15  5  2  0  0  0  0
 15 13  1  0  0  0  0
 16  3  2  0  0  0  0
 17 16  1  0  0  0  0
 19  1  2  0  0  0  0
 20  4  2  0  0  0  0
 22 12  2  0  0  0  0
 23  8  1  0  0  0  0
 23 18  2  0  0  0  0
 25 14  1  1  0  0  0
 25 24  1  0  0  0  0
 26 27  1  6  0  0  0
 26 25  1  0  0  0  0
 26 24  1  0  0  0  0
 28 27  1  0  0  0  0
 29 28  2  0  0  0  0
 30 28  1  0  0  0  0
 31 32  1  0  0  0  0
 32  6  1  0  0  0  0
M  END
>  <MODEL>
6

>  <REMARK>
 VINA RESULT:      -9.2      2.920      4.393
  Name = 
  4 active torsions:
  status: ('A' for Active; 'I' for Inactive)
    1  A    between atoms: N_7  and  C_19
    2  A    between atoms: C_10  and  C_17
    3  A    between atoms: C_20  and  C_29
    4  A    between atoms: C_29  and  C_30
                            x       y       z     vdW  Elec       q    Type
                         _______ _______ _______ _____ _____    ______ ____

>  <TORSDO>
F 4

$$$$
=
 OpenBabel11122410473D

 32 37  0  0  1  0  0  0  0  0999 V2000
  186.4090  178.1900  141.6490 C   0  0  0  0  0  0  0  0  0  0  0  0
  183.8990  178.5470  145.7630 C   0  0  0  0  0  3  0  0  0  0  0  0
  185.0610  178.2980  146.4930 C   0  0  0  0  0  3  0  0  0  0  0  0
  188.8760  177.7090  141.7390 C   0  0  0  0  0  0  0  0  0  0  0  0
  189.9780  177.4690  142.5470 C   0  0  0  0  0  0  0  0  0  0  0  0
  185.2740  178.4740  139.5460 N   0  0  0  0  0  0  0  0  0  0  0  0
  184.0780  178.6480  141.5940 C   0  0  0  0  0  3  0  0  0  0  0  0
  191.1040  177.1920  144.3790 C   0  0  0  0  0  0  0  0  0  0  0  0
  183.9490  178.5820  144.3690 C   0  0  0  0  0  3  0  0  0  0  0  0
  185.2170  178.4020  142.3100 N   0  0  0  0  0  0  0  0  0  0  0  0
  185.1610  178.3690  143.6790 C   0  0  0  0  0  0  0  0  0  0  0  0
  187.5500  177.9020  143.7620 C   0  0  0  0  0  0  0  0  0  0  0  0
  191.9470  177.0620  143.3270 N   0  0  0  0  0  0  0  0  0  0  0  0
  184.0970  178.7010  140.2000 C   0  0  0  0  0  0  0  0  0  0  0  0
  191.2570  177.2320  142.1980 N   0  0  0  0  0  0  0  0  0  0  0  0
  186.2680  178.0840  145.8290 C   0  0  0  0  0  3  0  0  0  0  0  0
  186.3320  178.1170  144.4250 C   0  0  0  0  0  0  0  0  0  0  0  0
  188.6750  177.6590  144.5100 N   0  0  0  0  0  0  0  0  0  0  0  0
  186.4110  178.2270  140.2440 C   0  0  0  0  0  3  0  0  0  0  0  0
  189.0210  177.7220  140.4860 O   0  0  0  0  0  0  0  0  0  0  0  0
  191.5020  177.0680  145.8070 C   0  0  0  0  0  1  0  0  0  0  0  0
  187.6080  177.9340  142.3790 C   0  0  0  0  0  0  0  0  0  0  0  0
  189.8540  177.4500  143.8870 C   0  0  0  0  0  0  0  0  0  0  0  0
  181.9010  179.6470  140.2600 O   0  0  0  0  0  0  0  0  0  0  0  0
  182.8120  178.9330  139.4540 C   0  0  1  0  0  3  0  0  0  0  0  0
  182.5730  180.3840  139.2710 C   0  0  1  0  0  3  0  0  0  0  0  0
  181.6360  180.6080  138.1000 C   0  0  0  0  0  2  0  0  0  0  0  0
  181.0630  181.9810  138.1630 C   0  0  0  0  0  0  0  0  0  0  0  0
  179.7190  182.1600  138.4630 O   0  0  0  0  0  1  0  0  0  0  0  0
  181.8030  182.9810  137.9740 O   0  0  0  0  0  0  0  0  0  0  0  0
  186.7880  178.2620  137.6390 C   0  0  0  0  0  1  0  0  0  0  0  0
  185.3540  178.4820  138.0880 C   0  0  0  0  0  2  0  0  0  0  0  0
  1 10  1  0  0  0  0
  1 22  1  0  0  0  0
  2  3  1  0  0  0  0
  4 22  1  0  0  0  0
  4  5  1  0  0  0  0
  5 23  1  0  0  0  0
  6 14  1  0  0  0  0
  6 19  1  0  0  0  0
  7 10  1  0  0  0  0
  8 21  1  0  0  0  0
  9  2  2  0  0  0  0
 10 11  1  0  0  0  0
 11  9  1  0  0  0  0
 11 17  2  0  0  0  0
 12 17  1  0  0  0  0
 12 18  1  0  0  0  0
 13  8  2  0  0  0  0
 14  7  2  0  0  0  0
 15  5  2  0  0  0  0
 15 13  1  0  0  0  0
 16  3  2  0  0  0  0
 17 16  1  0  0  0  0
 19  1  2  0  0  0  0
 20  4  2  0  0  0  0
 22 12  2  0  0  0  0
 23  8  1  0  0  0  0
 23 18  2  0  0  0  0
 25 14  1  1  0  0  0
 25 24  1  0  0  0  0
 26 27  1  6  0  0  0
 26 25  1  0  0  0  0
 26 24  1  0  0  0  0
 27 28  1  0  0  0  0
 28 29  1  0  0  0  0
 30 28  2  0  0  0  0
 31 32  1  0  0  0  0
 32  6  1  0  0  0  0
M  END
>  <MODEL>
7

>  <REMARK>
 VINA RESULT:      -9.0      2.586      7.940
  Name = 
  4 active torsions:
  status: ('A' for Active; 'I' for Inactive)
    1  A    between atoms: N_7  and  C_19
    2  A    between atoms: C_10  and  C_17
    3  A    between atoms: C_20  and  C_29
    4  A    between atoms: C_29  and  C_30
                            x       y       z     vdW  Elec       q    Type
                         _______ _______ _______ _____ _____    ______ ____

>  <TORSDO>
F 4

$$$$
=
 OpenBabel11122410473D

 32 37  0  0  1  0  0  0  0  0999 V2000
  187.0630  178.2470  141.7280 C   0  0  0  0  0  0  0  0  0  0  0  0
  191.7490  177.0890  141.9530 C   0  0  0  0  0  3  0  0  0  0  0  0
  191.6810  177.0860  143.3460 C   0  0  0  0  0  3  0  0  0  0  0  0
  185.7540  178.5370  143.8560 C   0  0  0  0  0  0  0  0  0  0  0  0
  185.7810  178.5110  145.2430 C   0  0  0  0  0  0  0  0  0  0  0  0
  186.0210  178.5380  139.5780 N   0  0  0  0  0  0  0  0  0  0  0  0
  188.3230  177.9620  139.7340 C   0  0  0  0  0  3  0  0  0  0  0  0
  186.6120  178.2770  147.2320 C   0  0  0  0  0  0  0  0  0  0  0  0
  190.6090  177.3800  141.2020 C   0  0  0  0  0  3  0  0  0  0  0  0
  188.2570  177.9600  141.1000 N   0  0  0  0  0  0  0  0  0  0  0  0
  189.3800  177.6740  141.8300 C   0  0  0  0  0  0  0  0  0  0  0  0
  188.1090  177.9570  143.8890 C   0  0  0  0  0  0  0  0  0  0  0  0
  185.3010  178.5990  147.3440 N   0  0  0  0  0  0  0  0  0  0  0  0
  187.1980  178.2380  138.9560 C   0  0  0  0  0  0  0  0  0  0  0  0
  184.7870  178.7420  146.1220 N   0  0  0  0  0  2  0  0  0  0  0  0
  190.4760  177.3730  143.9850 C   0  0  0  0  0  3  0  0  0  0  0  0
  189.3200  177.6680  143.2410 C   0  0  0  0  0  0  0  0  0  0  0  0
  188.0760  177.9460  145.2620 N   0  0  0  0  0  2  0  0  0  0  0  0
  185.9420  178.5420  140.9340 C   0  0  0  0  0  3  0  0  0  0  0  0
  184.6730  178.8110  143.2660 O   0  0  0  0  0  0  0  0  0  0  0  0
  187.5290  178.0350  148.3790 C   0  0  0  0  0  1  0  0  0  0  0  0
  186.9740  178.2480  143.1530 C   0  0  0  0  0  0  0  0  0  0  0  0
  186.9200  178.2210  145.9000 C   0  0  0  0  0  0  0  0  0  0  0  0
  188.0410  179.4170  137.0530 O   0  0  0  0  0  0  0  0  0  0  0  0
  187.3280  178.2690  137.4570 C   0  0  1  0  0  3  0  0  0  0  0  0
  188.7540  178.2070  137.0590 C   0  0  1  0  0  3  0  0  0  0  0  0
  188.8700  177.6940  135.6370 C   0  0  0  0  0  2  0  0  0  0  0  0
  189.7870  176.5220  135.5930 C   0  0  0  0  0  0  0  0  0  0  0  0
  190.7990  176.3950  136.5340 O   0  0  0  0  0  1  0  0  0  0  0  0
  189.6260  175.6300  134.7200 O   0  0  0  0  0  0  0  0  0  0  0  0
  183.7310  179.3740  139.7560 C   0  0  0  0  0  1  0  0  0  0  0  0
  184.8170  178.8690  138.8220 C   0  0  0  0  0  2  0  0  0  0  0  0
  1 22  1  0  0  0  0
  2  3  1  0  0  0  0
  3 16  2  0  0  0  0
  4  5  1  0  0  0  0
  5 23  2  0  0  0  0
  5 15  1  0  0  0  0
  6 19  1  0  0  0  0
  7 10  1  0  0  0  0
  8 13  2  0  0  0  0
  8 21  1  0  0  0  0
  9 11  1  0  0  0  0
  9  2  2  0  0  0  0
 10  1  1  0  0  0  0
 10 11  1  0  0  0  0
 11 17  2  0  0  0  0
 12 18  1  0  0  0  0
 14  6  1  0  0  0  0
 14  7  2  0  0  0  0
 15 13  1  0  0  0  0
 17 12  1  0  0  0  0
 17 16  1  0  0  0  0
 18 23  1  0  0  0  0
 19  1  2  0  0  0  0
 20  4  2  0  0  0  0
 22  4  1  0  0  0  0
 22 12  2  0  0  0  0
 23  8  1  0  0  0  0
 24 26  1  0  0  0  0
 24 25  1  0  0  0  0
 25 14  1  1  0  0  0
 26 27  1  6  0  0  0
 26 25  1  0  0  0  0
 28 27  1  0  0  0  0
 28 29  1  0  0  0  0
 30 28  2  0  0  0  0
 32  6  1  0  0  0  0
 32 31  1  0  0  0  0
M  END
>  <MODEL>
8

>  <REMARK>
 VINA RESULT:      -8.9      3.083      7.220
  Name = 
  4 active torsions:
  status: ('A' for Active; 'I' for Inactive)
    1  A    between atoms: N_7  and  C_19
    2  A    between atoms: C_10  and  C_17
    3  A    between atoms: C_20  and  C_29
    4  A    between atoms: C_29  and  C_30
                            x       y       z     vdW  Elec       q    Type
                         _______ _______ _______ _____ _____    ______ ____

>  <TORSDO>
F 4

$$$$
=
 OpenBabel11122410473D

 32 37  0  0  1  0  0  0  0  0999 V2000
  187.1810  178.2590  140.8700 C   0  0  0  0  0  0  0  0  0  0  0  0
  188.6070  177.2950  145.3860 C   0  0  0  0  0  3  0  0  0  0  0  0
  187.2960  177.4520  145.8330 C   0  0  0  0  0  3  0  0  0  0  0  0
  184.7580  178.7510  140.4130 C   0  0  0  0  0  0  0  0  0  0  0  0
  183.4850  178.8880  140.9490 C   0  0  0  0  0  0  0  0  0  0  0  0
  188.8060  178.2610  139.0950 N   0  0  0  0  0  0  0  0  0  0  0  0
  189.4640  177.7850  141.3300 C   0  0  0  0  0  3  0  0  0  0  0  0
  181.9360  178.9170  142.4660 C   0  0  0  0  0  0  0  0  0  0  0  0
  188.9030  177.4570  144.0320 C   0  0  0  0  0  3  0  0  0  0  0  0
  188.1780  177.9410  141.7690 N   0  0  0  0  0  0  0  0  0  0  0  0
  187.8950  177.7800  143.1000 C   0  0  0  0  0  0  0  0  0  0  0  0
  185.5490  178.2590  142.6540 C   0  0  0  0  0  0  0  0  0  0  0  0
  181.3760  179.2040  141.2660 N   0  0  0  0  0  0  0  0  0  0  0  0
  189.7900  177.9300  139.9810 C   0  0  0  0  0  0  0  0  0  0  0  0
  182.3260  179.1870  140.3310 N   0  0  0  0  0  0  0  0  0  0  0  0
  186.2840  177.7710  144.9280 C   0  0  0  0  0  3  0  0  0  0  0  0
  186.5700  177.9380  143.5610 C   0  0  0  0  0  0  0  0  0  0  0  0
  184.2680  178.4070  143.1270 N   0  0  0  0  0  0  0  0  0  0  0  0
  187.5260  178.4200  139.5180 C   0  0  0  0  0  3  0  0  0  0  0  0
  184.9270  178.9170  139.1740 O   0  0  0  0  0  0  0  0  0  0  0  0
  181.1950  178.8420  143.7530 C   0  0  0  0  0  1  0  0  0  0  0  0
  185.8340  178.4230  141.3100 C   0  0  0  0  0  0  0  0  0  0  0  0
  183.2740  178.7160  142.2670 C   0  0  0  0  0  0  0  0  0  0  0  0
  191.9310  176.9760  140.4620 O   0  0  0  0  0  0  0  0  0  0  0  0
  191.2250  177.7900  139.5510 C   0  0  1  0  0  3  0  0  0  0  0  0
  191.5420  176.3730  139.2540 C   0  0  1  0  0  3  0  0  0  0  0  0
  192.7420  176.2970  138.3310 C   0  0  0  0  0  2  0  0  0  0  0  0
  192.7190  175.0170  137.5710 C   0  0  0  0  0  0  0  0  0  0  0  0
  193.7940  174.6670  136.7670 O   0  0  0  0  0  0  0  0  0  0  0  0
  191.7370  174.2380  137.6820 O   0  0  0  0  0  1  0  0  0  0  0  0
  187.7990  178.7090  136.9140 C   0  0  0  0  0  1  0  0  0  0  0  0
  189.0880  178.4600  137.6770 C   0  0  0  0  0  2  0  0  0  0  0  0
  1 22  1  0  0  0  0
  1 10  1  0  0  0  0
  2  3  1  0  0  0  0
  4  5  1  0  0  0  0
  4 22  1  0  0  0  0
  5 23  1  0  0  0  0
  6 19  1  0  0  0  0
  6 14  1  0  0  0  0
  7 10  1  0  0  0  0
  8 21  1  0  0  0  0
  9  2  2  0  0  0  0
 10 11  1  0  0  0  0
 11 17  2  0  0  0  0
 11  9  1  0  0  0  0
 12 18  1  0  0  0  0
 12 17  1  0  0  0  0
 13  8  2  0  0  0  0
 14  7  2  0  0  0  0
 15  5  2  0  0  0  0
 15 13  1  0  0  0  0
 16  3  2  0  0  0  0
 17 16  1  0  0  0  0
 19  1  2  0  0  0  0
 20  4  2  0  0  0  0
 22 12  2  0  0  0  0
 23  8  1  0  0  0  0
 23 18  2  0  0  0  0
 25 14  1  1  0  0  0
 25 24  1  0  0  0  0
 26 27  1  6  0  0  0
 26 25  1  0  0  0  0
 26 24  1  0  0  0  0
 28 30  1  0  0  0  0
 28 27  1  0  0  0  0
 29 28  2  0  0  0  0
 31 32  1  0  0  0  0
 32  6  1  0  0  0  0
M  END
>  <MODEL>
9

>  <REMARK>
 VINA RESULT:      -8.9      2.750      4.406
  Name = 
  4 active torsions:
  status: ('A' for Active; 'I' for Inactive)
    1  A    between atoms: N_7  and  C_19
    2  A    between atoms: C_10  and  C_17
    3  A    between atoms: C_20  and  C_29
    4  A    between atoms: C_29  and  C_30
                            x       y       z     vdW  Elec       q    Type
                         _______ _______ _______ _____ _____    ______ ____

>  <TORSDO>
F 4

$$$$
