=
 OpenBabel11122410383D

 32 37  0  0  1  0  0  0  0  0999 V2000
  182.0290  177.0200  138.8640 C   0  0  0  0  0  2  0  0  0  0  0  0
  185.6240  178.6820  142.8560 C   0  0  1  0  0  3  0  0  0  0  0  0
  188.6920  177.0890  139.2820 C   0  0  0  0  0  2  0  0  0  0  0  0
  189.8200  176.8520  140.2940 C   0  0  0  0  0  2  0  0  0  0  0  0
  186.2320  178.1230  145.2540 C   0  0  0  0  0  0  0  0  0  0  0  0
  187.3010  178.0240  146.2630 C   0  0  0  0  0  0  0  0  0  0  0  0
  183.5310  178.3860  141.4760 C   0  0  1  0  0  3  0  0  0  0  0  0
  185.3040  179.6130  140.5020 C   0  0  0  0  0  2  0  0  0  0  0  0
  189.4480  177.7250  147.1240 C   0  0  1  0  0  3  0  0  0  0  0  0
  183.4690  179.0640  139.1720 C   0  0  0  0  0  2  0  0  0  0  0  0
  187.8490  178.3060  139.6670 C   0  0  0  0  0  2  0  0  0  0  0  0
  186.3220  179.1650  141.5590 C   0  0  2  0  0  3  0  0  0  0  0  0
  187.2960  178.0930  141.0730 C   0  0  2  0  0  3  0  0  0  0  0  0
  188.0650  178.1820  143.5250 C   0  0  2  0  0  3  0  0  0  0  0  0
  188.5270  178.0760  148.2930 C   0  0  0  0  0  3  0  0  0  0  0  0
  182.4530  176.4340  140.2070 C   0  0  0  0  0  2  0  0  0  0  0  0
  184.3190  178.5670  140.2460 N   0  0  2  0  0  0  0  0  0  0  0  0
  187.1190  178.2300  147.7190 C   0  0  0  0  0  3  0  0  0  0  0  0
  182.2960  177.4890  141.2970 C   0  0  0  0  0  2  0  0  0  0  0  0
  183.1090  177.9090  138.2490 C   0  0  2  0  0  3  0  0  0  0  0  0
  189.2740  176.7360  141.7200 C   0  0  0  0  0  2  0  0  0  0  0  0
  188.4760  177.9970  142.0460 C   0  0  1  0  0  3  0  0  0  0  0  0
  188.9940  177.4870  144.5310 C   0  0  0  0  0  2  0  0  0  0  0  0
  184.4210  177.7810  142.5550 C   0  0  0  0  0  2  0  0  0  0  0  0
  185.0420  178.3270  145.6150 O   0  0  0  0  0  0  0  0  0  0  0  0
  189.9950  176.3240  147.3190 C   0  0  0  0  0  1  0  0  0  0  0  0
  186.5690  177.8990  143.7980 C   0  0  2  0  0  3  0  0  0  0  0  0
  188.5540  177.7680  145.9400 C   0  0  0  0  0  0  0  0  0  0  0  0
  182.6410  178.4410  136.9780 N   0  0  0  0  0  2  0  0  0  0  0  0
  182.5430  177.6430  135.7970 C   0  0  0  0  0  0  0  0  0  0  0  0
  182.8880  176.4320  135.8110 O   0  0  0  0  0  0  0  0  0  0  0  0
  182.0550  178.2240  134.5940 N   0  0  0  0  0  1  0  0  0  0  0  0
  1 16  1  0  0  0  0
  2 24  1  6  0  0  0
  2 27  1  0  0  0  0
  3 11  1  0  0  0  0
  3  4  1  0  0  0  0
  4 21  1  0  0  0  0
  5 25  2  0  0  0  0
  5  6  1  0  0  0  0
  6 18  1  0  0  0  0
  7 19  1  6  0  0  0
  7 24  1  0  0  0  0
  9 26  1  1  0  0  0
  9 15  1  0  0  0  0
 12  8  1  6  0  0  0
 12  2  1  0  0  0  0
 13 11  1  6  0  0  0
 13 12  1  0  0  0  0
 13 22  1  0  0  0  0
 14 27  1  0  0  0  0
 14 23  1  1  0  0  0
 16 19  1  0  0  0  0
 17 10  1  6  0  0  0
 17  8  1  0  0  0  0
 17  7  1  0  0  0  0
 18 15  2  0  0  0  0
 20 29  1  6  0  0  0
 20  1  1  0  0  0  0
 20 10  1  0  0  0  0
 22 21  1  1  0  0  0
 22 14  1  0  0  0  0
 23 28  1  0  0  0  0
 27  5  1  1  0  0  0
 28  6  2  0  0  0  0
 28  9  1  0  0  0  0
 30 31  2  0  0  0  0
 30 29  1  0  0  0  0
 32 30  1  0  0  0  0
M  END
>  <MODEL>
1

>  <REMARK>
 VINA RESULT:      -8.6      0.000      0.000
  Name = 
  1 active torsions:
  status: ('A' for Active; 'I' for Inactive)
    1  A    between atoms: C_20  and  N_29
                            x       y       z     vdW  Elec       q    Type
                         _______ _______ _______ _____ _____    ______ ____

>  <TORSDO>
F 1

$$$$
=
 OpenBabel11122410383D

 32 37  0  0  1  0  0  0  0  0999 V2000
  187.5540  176.9590  143.7660 C   0  0  0  0  0  2  0  0  0  0  0  0
  190.7310  177.2860  139.1380 C   0  0  1  0  0  3  0  0  0  0  0  0
  186.4120  175.6130  137.3270 C   0  0  0  0  0  2  0  0  0  0  0  0
  187.1080  175.0140  136.0980 C   0  0  0  0  0  2  0  0  0  0  0  0
  192.8610  176.2880  138.1890 C   0  0  0  0  0  0  0  0  0  0  0  0
  193.5800  175.8350  136.9860 C   0  0  0  0  0  0  0  0  0  0  0  0
  189.8560  177.6160  141.4820 C   0  0  1  0  0  3  0  0  0  0  0  0
  188.6090  178.5790  139.7180 C   0  0  0  0  0  2  0  0  0  0  0  0
  193.8860  174.9890  134.8340 C   0  0  1  0  0  3  0  0  0  0  0  0
  187.7010  178.6050  141.8650 C   0  0  0  0  0  2  0  0  0  0  0  0
  187.0900  176.9110  137.7710 C   0  0  0  0  0  2  0  0  0  0  0  0
  189.3560  177.7920  138.6330 C   0  0  2  0  0  3  0  0  0  0  0  0
  188.5620  176.6220  138.0520 C   0  0  2  0  0  3  0  0  0  0  0  0
  190.7650  176.2120  136.7920 C   0  0  2  0  0  3  0  0  0  0  0  0
  195.2650  175.3540  135.3860 C   0  0  0  0  0  3  0  0  0  0  0  0
  188.7030  176.1190  143.2190 C   0  0  0  0  0  2  0  0  0  0  0  0
  188.4970  177.8020  140.9470 N   0  0  2  0  0  0  0  0  0  0  0  0
  195.0510  175.8700  136.8090 C   0  0  0  0  0  3  0  0  0  0  0  0
  189.8900  177.0220  142.9000 C   0  0  0  0  0  2  0  0  0  0  0  0
  186.7870  177.6860  142.6640 C   0  0  2  0  0  3  0  0  0  0  0  0
  188.6050  174.8150  136.3480 C   0  0  0  0  0  2  0  0  0  0  0  0
  189.2210  176.1540  136.7500 C   0  0  1  0  0  3  0  0  0  0  0  0
  191.4600  175.2100  135.8580 C   0  0  0  0  0  2  0  0  0  0  0  0
  190.6390  176.6990  140.5500 C   0  0  0  0  0  2  0  0  0  0  0  0
  193.5070  176.6770  139.1990 O   0  0  0  0  0  0  0  0  0  0  0  0
  193.8210  173.4930  134.5940 C   0  0  0  0  0  1  0  0  0  0  0  0
  191.3520  176.2040  138.2220 C   0  0  2  0  0  3  0  0  0  0  0  0
  192.9520  175.3760  135.9200 C   0  0  0  0  0  0  0  0  0  0  0  0
  185.7130  178.4740  143.2510 N   0  0  0  0  0  2  0  0  0  0  0  0
  184.3940  178.5100  142.7020 C   0  0  0  0  0  0  0  0  0  0  0  0
  184.1180  177.8650  141.6550 O   0  0  0  0  0  0  0  0  0  0  0  0
  183.3870  179.2830  143.3410 N   0  0  0  0  0  1  0  0  0  0  0  0
  2 24  1  1  0  0  0
  3 11  1  0  0  0  0
  4 21  1  0  0  0  0
  4  3  1  0  0  0  0
  5 25  2  0  0  0  0
  6  5  1  0  0  0  0
  7 24  1  6  0  0  0
  7 19  1  0  0  0  0
  9 26  1  1  0  0  0
  9 15  1  0  0  0  0
  9 28  1  0  0  0  0
 10 20  1  0  0  0  0
 12  2  1  0  0  0  0
 12  8  1  1  0  0  0
 13 11  1  6  0  0  0
 13 12  1  0  0  0  0
 14 23  1  6  0  0  0
 14 27  1  0  0  0  0
 15 18  2  0  0  0  0
 16  1  1  0  0  0  0
 17  8  1  6  0  0  0
 17  7  1  0  0  0  0
 17 10  1  0  0  0  0
 18  6  1  0  0  0  0
 19 16  1  0  0  0  0
 20 29  1  1  0  0  0
 20  1  1  0  0  0  0
 22 21  1  1  0  0  0
 22 14  1  0  0  0  0
 22 13  1  0  0  0  0
 23 28  1  0  0  0  0
 27  5  1  6  0  0  0
 27  2  1  0  0  0  0
 28  6  2  0  0  0  0
 30 29  1  0  0  0  0
 30 32  1  0  0  0  0
 31 30  2  0  0  0  0
M  END
>  <MODEL>
2

>  <REMARK>
 VINA RESULT:      -8.3      4.195      8.250
  Name = 
  1 active torsions:
  status: ('A' for Active; 'I' for Inactive)
    1  A    between atoms: C_20  and  N_29
                            x       y       z     vdW  Elec       q    Type
                         _______ _______ _______ _____ _____    ______ ____

>  <TORSDO>
F 1

$$$$
=
 OpenBabel11122410383D

 32 37  0  0  1  0  0  0  0  0999 V2000
  192.6970  174.0060  136.9530 C   0  0  0  0  0  2  0  0  0  0  0  0
  188.8800  177.7590  138.6770 C   0  0  1  0  0  3  0  0  0  0  0  0
  190.7840  176.1510  142.9800 C   0  0  0  0  0  2  0  0  0  0  0  0
  189.5220  176.5680  143.7460 C   0  0  0  0  0  2  0  0  0  0  0  0
  186.3750  178.1420  138.5780 C   0  0  0  0  0  0  0  0  0  0  0  0
  185.1810  178.6660  139.2620 C   0  0  0  0  0  0  0  0  0  0  0  0
  190.5020  176.4650  137.2390 C   0  0  1  0  0  3  0  0  0  0  0  0
  191.4160  177.8110  138.9570 C   0  0  0  0  0  2  0  0  0  0  0  0
  183.7930  179.2810  141.0330 C   0  0  1  0  0  3  0  0  0  0  0  0
  192.8380  176.3780  137.7910 C   0  0  0  0  0  2  0  0  0  0  0  0
  191.0860  177.1230  141.8380 C   0  0  0  0  0  2  0  0  0  0  0  0
  190.0610  178.0170  139.6470 C   0  0  2  0  0  3  0  0  0  0  0  0
  189.8730  177.1860  140.9150 C   0  0  2  0  0  3  0  0  0  0  0  0
  187.5210  178.2210  140.8210 C   0  0  2  0  0  3  0  0  0  0  0  0
  183.0870  179.6770  139.7360 C   0  0  0  0  0  3  0  0  0  0  0  0
  191.1740  173.9980  137.0280 C   0  0  0  0  0  2  0  0  0  0  0  0
  191.4900  176.4960  138.3300 N   0  0  2  0  0  0  0  0  0  0  0  0
  183.9910  179.2330  138.5850 C   0  0  0  0  0  3  0  0  0  0  0  0
  190.6210  175.2340  136.3260 C   0  0  0  0  0  2  0  0  0  0  0  0
  193.3260  174.9480  137.9790 C   0  0  2  0  0  3  0  0  0  0  0  0
  188.3260  176.7260  142.8030 C   0  0  0  0  0  2  0  0  0  0  0  0
  188.6860  177.7340  141.7130 C   0  0  1  0  0  3  0  0  0  0  0  0
  186.1420  178.1610  141.4930 C   0  0  0  0  0  2  0  0  0  0  0  0
  189.1000  176.4980  137.8340 C   0  0  0  0  0  2  0  0  0  0  0  0
  186.4040  178.0850  137.3190 O   0  0  0  0  0  0  0  0  0  0  0  0
  182.9710  178.2270  141.7510 C   0  0  0  0  0  1  0  0  0  0  0  0
  187.5220  177.6050  139.4020 C   0  0  2  0  0  3  0  0  0  0  0  0
  185.0820  178.7060  140.5780 C   0  0  0  0  0  0  0  0  0  0  0  0
  194.7750  174.9170  137.8510 N   0  0  0  0  0  2  0  0  0  0  0  0
  195.5790  173.8900  138.4330 C   0  0  0  0  0  0  0  0  0  0  0  0
  195.0500  172.9690  139.1120 O   0  0  0  0  0  0  0  0  0  0  0  0
  196.9890  173.9090  138.2490 N   0  0  0  0  0  1  0  0  0  0  0  0
  1 16  1  0  0  0  0
  1 20  1  0  0  0  0
  2 24  1  1  0  0  0
  2 27  1  0  0  0  0
  2 12  1  0  0  0  0
  3  4  1  0  0  0  0
  5  6  1  0  0  0  0
  6 28  2  0  0  0  0
  7 19  1  1  0  0  0
  7 24  1  0  0  0  0
  7 17  1  0  0  0  0
  9 26  1  6  0  0  0
 10 20  1  0  0  0  0
 11  3  1  0  0  0  0
 12  8  1  6  0  0  0
 12 13  1  0  0  0  0
 13 22  1  0  0  0  0
 13 11  1  1  0  0  0
 14 23  1  1  0  0  0
 14 22  1  0  0  0  0
 15  9  1  0  0  0  0
 17 10  1  6  0  0  0
 17  8  1  0  0  0  0
 18  6  1  0  0  0  0
 18 15  2  0  0  0  0
 19 16  1  0  0  0  0
 20 29  1  6  0  0  0
 21  4  1  0  0  0  0
 22 21  1  1  0  0  0
 25  5  2  0  0  0  0
 27  5  1  6  0  0  0
 27 14  1  0  0  0  0
 28  9  1  0  0  0  0
 28 23  1  0  0  0  0
 29 30  1  0  0  0  0
 30 31  2  0  0  0  0
 32 30  1  0  0  0  0
M  END
>  <MODEL>
3

>  <REMARK>
 VINA RESULT:      -7.6      4.843      8.368
  Name = 
  1 active torsions:
  status: ('A' for Active; 'I' for Inactive)
    1  A    between atoms: C_20  and  N_29
                            x       y       z     vdW  Elec       q    Type
                         _______ _______ _______ _____ _____    ______ ____

>  <TORSDO>
F 1

$$$$
=
 OpenBabel11122410383D

 32 37  0  0  1  0  0  0  0  0999 V2000
  189.3770  175.0250  136.7140 C   0  0  0  0  0  2  0  0  0  0  0  0
  185.8410  178.3840  139.5140 C   0  0  1  0  0  3  0  0  0  0  0  0
  188.8810  176.8220  143.1260 C   0  0  0  0  0  2  0  0  0  0  0  0
  187.8240  177.1070  144.2000 C   0  0  0  0  0  2  0  0  0  0  0  0
  183.3700  178.5530  140.0580 C   0  0  0  0  0  0  0  0  0  0  0  0
  182.3490  178.9520  141.0430 C   0  0  0  0  0  0  0  0  0  0  0  0
  187.1440  177.2770  137.6570 C   0  0  1  0  0  3  0  0  0  0  0  0
  188.3540  178.6460  139.1590 C   0  0  0  0  0  2  0  0  0  0  0  0
  181.4080  179.3930  143.1300 C   0  0  1  0  0  3  0  0  0  0  0  0
  189.5430  177.3750  137.6070 C   0  0  0  0  0  2  0  0  0  0  0  0
  188.8120  177.8490  141.9940 C   0  0  0  0  0  2  0  0  0  0  0  0
  187.2050  178.7150  140.1730 C   0  0  2  0  0  3  0  0  0  0  0  0
  187.4050  177.8330  141.4050 C   0  0  2  0  0  3  0  0  0  0  0  0
  185.0330  178.6650  141.9480 C   0  0  2  0  0  3  0  0  0  0  0  0
  180.3710  179.7640  142.0690 C   0  0  0  0  0  3  0  0  0  0  0  0
  187.9270  174.8830  137.1640 C   0  0  0  0  0  2  0  0  0  0  0  0
  188.3690  177.3610  138.4690 N   0  0  2  0  0  0  0  0  0  0  0  0
  180.9880  179.4330  140.7110 C   0  0  0  0  0  3  0  0  0  0  0  0
  187.1230  176.0870  136.6830 C   0  0  0  0  0  2  0  0  0  0  0  0
  190.1700  175.9880  137.5970 C   0  0  2  0  0  3  0  0  0  0  0  0
  186.4210  177.1880  143.5930 C   0  0  0  0  0  2  0  0  0  0  0  0
  186.4180  178.2540  142.4990 C   0  0  1  0  0  3  0  0  0  0  0  0
  183.8750  178.4670  142.9380 C   0  0  0  0  0  2  0  0  0  0  0  0
  185.9370  177.1720  138.5820 C   0  0  0  0  0  2  0  0  0  0  0  0
  183.0860  178.5350  138.8300 O   0  0  0  0  0  0  0  0  0  0  0  0
  180.8750  178.2520  143.9760 C   0  0  0  0  0  1  0  0  0  0  0  0
  184.7250  178.0920  140.5450 C   0  0  2  0  0  3  0  0  0  0  0  0
  182.5820  178.9450  142.3420 C   0  0  0  0  0  0  0  0  0  0  0  0
  191.5390  176.0850  137.1130 N   0  0  0  0  0  2  0  0  0  0  0  0
  192.6290  176.4630  137.9540 C   0  0  0  0  0  0  0  0  0  0  0  0
  192.4350  176.7540  139.1640 O   0  0  0  0  0  0  0  0  0  0  0  0
  193.9460  176.5160  137.4190 N   0  0  0  0  0  1  0  0  0  0  0  0
  1 16  1  0  0  0  0
  1 20  1  0  0  0  0
  2 24  1  6  0  0  0
  2 12  1  0  0  0  0
  2 27  1  0  0  0  0
  3  4  1  0  0  0  0
  5  6  1  0  0  0  0
  6 28  2  0  0  0  0
  7 19  1  6  0  0  0
  7 17  1  0  0  0  0
  7 24  1  0  0  0  0
  9 26  1  1  0  0  0
 11  3  1  0  0  0  0
 12  8  1  6  0  0  0
 12 13  1  0  0  0  0
 13 11  1  1  0  0  0
 13 22  1  0  0  0  0
 14 22  1  0  0  0  0
 14 23  1  1  0  0  0
 15  9  1  0  0  0  0
 17 10  1  6  0  0  0
 17  8  1  0  0  0  0
 18  6  1  0  0  0  0
 18 15  2  0  0  0  0
 19 16  1  0  0  0  0
 20 29  1  6  0  0  0
 20 10  1  0  0  0  0
 21  4  1  0  0  0  0
 22 21  1  1  0  0  0
 25  5  2  0  0  0  0
 27  5  1  6  0  0  0
 27 14  1  0  0  0  0
 28 23  1  0  0  0  0
 28  9  1  0  0  0  0
 29 30  1  0  0  0  0
 30 31  2  0  0  0  0
 32 30  1  0  0  0  0
M  END
>  <MODEL>
4

>  <REMARK>
 VINA RESULT:      -7.3      3.642      6.772
  Name = 
  1 active torsions:
  status: ('A' for Active; 'I' for Inactive)
    1  A    between atoms: C_20  and  N_29
                            x       y       z     vdW  Elec       q    Type
                         _______ _______ _______ _____ _____    ______ ____

>  <TORSDO>
F 1

$$$$
=
 OpenBabel11122410383D

 32 37  0  0  1  0  0  0  0  0999 V2000
  189.7650  175.0760  136.2850 C   0  0  0  0  0  2  0  0  0  0  0  0
  187.5810  178.2380  140.3900 C   0  0  1  0  0  3  0  0  0  0  0  0
  191.6630  176.3930  142.5490 C   0  0  0  0  0  2  0  0  0  0  0  0
  191.0720  176.6040  143.9490 C   0  0  0  0  0  2  0  0  0  0  0  0
  185.4770  178.3820  141.7990 C   0  0  0  0  0  0  0  0  0  0  0  0
  184.8920  178.7130  143.1100 C   0  0  0  0  0  0  0  0  0  0  0  0
  188.0930  177.2640  138.1180 C   0  0  1  0  0  3  0  0  0  0  0  0
  189.8060  178.5110  139.1710 C   0  0  0  0  0  2  0  0  0  0  0  0
  184.7780  179.0040  145.4210 C   0  0  1  0  0  3  0  0  0  0  0  0
  190.3160  177.3520  137.2140 C   0  0  0  0  0  2  0  0  0  0  0  0
  191.2260  177.5030  141.5900 C   0  0  0  0  0  2  0  0  0  0  0  0
  189.1000  178.5110  140.5330 C   0  0  2  0  0  3  0  0  0  0  0  0
  189.7010  177.5390  141.5490 C   0  0  2  0  0  3  0  0  0  0  0  0
  187.7110  178.3430  142.9650 C   0  0  2  0  0  3  0  0  0  0  0  0
  183.4420  179.4590  144.8330 C   0  0  0  0  0  3  0  0  0  0  0  0
  188.5690  174.9090  137.2170 C   0  0  0  0  0  2  0  0  0  0  0  0
  189.5300  177.2800  138.4380 N   0  0  2  0  0  0  0  0  0  0  0  0
  183.5180  179.2260  143.3240 C   0  0  0  0  0  3  0  0  0  0  0  0
  187.6850  176.1510  137.1400 C   0  0  0  0  0  2  0  0  0  0  0  0
  190.8520  175.9650  136.8850 C   0  0  2  0  0  3  0  0  0  0  0  0
  189.5480  176.7390  143.8950 C   0  0  0  0  0  2  0  0  0  0  0  0
  189.1870  177.8840  142.9510 C   0  0  1  0  0  3  0  0  0  0  0  0
  186.9800  178.0790  144.2900 C   0  0  0  0  0  2  0  0  0  0  0  0
  187.2970  177.0980  139.4070 C   0  0  0  0  0  2  0  0  0  0  0  0
  184.7710  178.4570  140.7570 O   0  0  0  0  0  0  0  0  0  0  0  0
  184.5480  177.8060  146.3230 C   0  0  0  0  0  1  0  0  0  0  0  0
  186.9010  177.8780  141.7320 C   0  0  2  0  0  3  0  0  0  0  0  0
  185.5750  178.6070  144.2340 C   0  0  0  0  0  0  0  0  0  0  0  0
  191.9580  176.0890  135.9470 N   0  0  0  0  0  2  0  0  0  0  0  0
  193.3080  176.2880  136.3690 C   0  0  0  0  0  0  0  0  0  0  0  0
  193.5900  176.3870  137.5930 O   0  0  0  0  0  0  0  0  0  0  0  0
  194.3430  176.3780  135.3980 N   0  0  0  0  0  1  0  0  0  0  0  0
  1 20  1  0  0  0  0
  1 16  1  0  0  0  0
  2 24  1  6  0  0  0
  2 12  1  0  0  0  0
  2 27  1  0  0  0  0
  3  4  1  0  0  0  0
  5  6  1  0  0  0  0
  6 18  1  0  0  0  0
  6 28  2  0  0  0  0
  7 19  1  6  0  0  0
  7 17  1  0  0  0  0
  7 24  1  0  0  0  0
  9 26  1  1  0  0  0
 11  3  1  0  0  0  0
 12  8  1  6  0  0  0
 12 13  1  0  0  0  0
 13 11  1  1  0  0  0
 13 22  1  0  0  0  0
 14 23  1  1  0  0  0
 15  9  1  0  0  0  0
 17 10  1  6  0  0  0
 17  8  1  0  0  0  0
 18 15  2  0  0  0  0
 19 16  1  0  0  0  0
 20 29  1  6  0  0  0
 20 10  1  0  0  0  0
 21  4  1  0  0  0  0
 22 14  1  0  0  0  0
 22 21  1  1  0  0  0
 25  5  2  0  0  0  0
 27  5  1  6  0  0  0
 27 14  1  0  0  0  0
 28 23  1  0  0  0  0
 28  9  1  0  0  0  0
 29 30  1  0  0  0  0
 30 31  2  0  0  0  0
 32 30  1  0  0  0  0
M  END
>  <MODEL>
5

>  <REMARK>
 VINA RESULT:      -7.2      4.013      6.039
  Name = 
  1 active torsions:
  status: ('A' for Active; 'I' for Inactive)
    1  A    between atoms: C_20  and  N_29
                            x       y       z     vdW  Elec       q    Type
                         _______ _______ _______ _____ _____    ______ ____

>  <TORSDO>
F 1

$$$$
=
 OpenBabel11122410383D

 32 37  0  0  1  0  0  0  0  0999 V2000
  191.0680  173.5440  136.5100 C   0  0  0  0  0  2  0  0  0  0  0  0
  187.3460  177.5730  137.7500 C   0  0  1  0  0  3  0  0  0  0  0  0
  189.9930  177.2640  141.9480 C   0  0  0  0  0  2  0  0  0  0  0  0
  188.8430  177.8610  142.7700 C   0  0  0  0  0  2  0  0  0  0  0  0
  184.8380  177.8770  137.9690 C   0  0  0  0  0  0  0  0  0  0  0  0
  183.7350  178.5540  138.6730 C   0  0  0  0  0  0  0  0  0  0  0  0
  188.8000  175.9520  136.4730 C   0  0  1  0  0  3  0  0  0  0  0  0
  189.8870  177.7390  137.5770 C   0  0  0  0  0  2  0  0  0  0  0  0
  182.6060  179.6200  140.4130 C   0  0  1  0  0  3  0  0  0  0  0  0
  191.1940  176.0570  136.6290 C   0  0  0  0  0  2  0  0  0  0  0  0
  190.0530  177.8820  140.5500 C   0  0  0  0  0  2  0  0  0  0  0  0
  188.6460  178.1100  138.4010 C   0  0  2  0  0  3  0  0  0  0  0  0
  188.7090  177.6650  139.8610 C   0  0  2  0  0  3  0  0  0  0  0  0
  186.3130  178.5980  139.8800 C   0  0  2  0  0  3  0  0  0  0  0  0
  181.6840  179.6260  139.1930 C   0  0  0  0  0  3  0  0  0  0  0  0
  189.5780  173.5340  136.8370 C   0  0  0  0  0  2  0  0  0  0  0  0
  189.9420  176.3020  137.3320 N   0  0  2  0  0  0  0  0  0  0  0  0
  182.4220  178.8900  138.0750 C   0  0  0  0  0  3  0  0  0  0  0  0
  188.8490  174.5160  135.9260 C   0  0  0  0  0  2  0  0  0  0  0  0
  191.7910  174.7450  137.1180 C   0  0  2  0  0  3  0  0  0  0  0  0
  187.5070  177.7310  142.0340 C   0  0  0  0  0  2  0  0  0  0  0  0
  187.6300  178.3980  140.6650 C   0  0  1  0  0  3  0  0  0  0  0  0
  185.0620  178.7090  140.7640 C   0  0  0  0  0  2  0  0  0  0  0  0
  187.5070  176.1300  137.2610 C   0  0  0  0  0  2  0  0  0  0  0  0
  184.6740  177.4690  136.7870 O   0  0  0  0  0  0  0  0  0  0  0  0
  181.9720  178.7980  141.5190 C   0  0  0  0  0  1  0  0  0  0  0  0
  186.1300  177.6090  138.7060 C   0  0  2  0  0  3  0  0  0  0  0  0
  183.8410  178.9590  139.9240 C   0  0  0  0  0  0  0  0  0  0  0  0
  193.2010  174.7000  136.7630 N   0  0  0  0  0  2  0  0  0  0  0  0
  194.2130  175.3410  137.5420 C   0  0  0  0  0  0  0  0  0  0  0  0
  193.9080  176.0010  138.5700 O   0  0  0  0  0  0  0  0  0  0  0  0
  195.5750  175.2370  137.1490 N   0  0  0  0  0  1  0  0  0  0  0  0
  1 16  1  0  0  0  0
  1 20  1  0  0  0  0
  2 24  1  1  0  0  0
  2 12  1  0  0  0  0
  2 27  1  0  0  0  0
  3  4  1  0  0  0  0
  5  6  1  0  0  0  0
  6 28  2  0  0  0  0
  7 19  1  1  0  0  0
  7 24  1  0  0  0  0
  7 17  1  0  0  0  0
  9 26  1  1  0  0  0
 10 20  1  0  0  0  0
 11  3  1  0  0  0  0
 12  8  1  6  0  0  0
 12 13  1  0  0  0  0
 13 11  1  1  0  0  0
 13 22  1  0  0  0  0
 14 22  1  0  0  0  0
 14 23  1  1  0  0  0
 15  9  1  0  0  0  0
 17 10  1  6  0  0  0
 17  8  1  0  0  0  0
 18  6  1  0  0  0  0
 18 15  2  0  0  0  0
 19 16  1  0  0  0  0
 20 29  1  6  0  0  0
 21  4  1  0  0  0  0
 22 21  1  1  0  0  0
 25  5  2  0  0  0  0
 27  5  1  6  0  0  0
 27 14  1  0  0  0  0
 28  9  1  0  0  0  0
 28 23  1  0  0  0  0
 29 30  1  0  0  0  0
 30 31  2  0  0  0  0
 32 30  1  0  0  0  0
M  END
>  <MODEL>
6

>  <REMARK>
 VINA RESULT:      -7.2      4.370      8.009
  Name = 
  1 active torsions:
  status: ('A' for Active; 'I' for Inactive)
    1  A    between atoms: C_20  and  N_29
                            x       y       z     vdW  Elec       q    Type
                         _______ _______ _______ _____ _____    ______ ____

>  <TORSDO>
F 1

$$$$
=
 OpenBabel11122410383D

 32 37  0  0  1  0  0  0  0  0999 V2000
  189.0490  178.7460  148.3410 C   0  0  0  0  0  2  0  0  0  0  0  0
  185.3300  177.7330  144.2470 C   0  0  1  0  0  3  0  0  0  0  0  0
  189.5710  178.2530  141.7030 C   0  0  0  0  0  2  0  0  0  0  0  0
  188.8100  178.6180  140.4220 C   0  0  0  0  0  2  0  0  0  0  0  0
  183.2360  178.7590  143.2500 C   0  0  0  0  0  0  0  0  0  0  0  0
  182.4380  178.9950  142.0340 C   0  0  0  0  0  0  0  0  0  0  0  0
  186.4320  177.8780  146.5130 C   0  0  1  0  0  3  0  0  0  0  0  0
  187.3370  176.3320  144.9680 C   0  0  0  0  0  2  0  0  0  0  0  0
  181.9810  179.3090  139.7690 C   0  0  1  0  0  3  0  0  0  0  0  0
  188.4850  176.7150  146.9620 C   0  0  0  0  0  2  0  0  0  0  0  0
  188.8010  177.2200  142.5290 C   0  0  0  0  0  2  0  0  0  0  0  0
  186.5660  176.9220  143.7800 C   0  0  2  0  0  3  0  0  0  0  0  0
  187.4180  177.7810  142.8470 C   0  0  2  0  0  3  0  0  0  0  0  0
  185.1450  178.1770  141.7120 C   0  0  2  0  0  3  0  0  0  0  0  0
  180.6440  179.2990  140.5110 C   0  0  0  0  0  3  0  0  0  0  0  0
  187.9510  179.5790  147.6890 C   0  0  0  0  0  2  0  0  0  0  0  0
  187.6860  177.3680  145.9340 N   0  0  2  0  0  0  0  0  0  0  0  0
  180.9630  179.1310  141.9970 C   0  0  0  0  0  3  0  0  0  0  0  0
  186.6360  178.8070  147.7210 C   0  0  0  0  0  2  0  0  0  0  0  0
  189.5890  177.6610  147.4100 C   0  0  2  0  0  3  0  0  0  0  0  0
  187.3880  179.0890  140.7350 C   0  0  0  0  0  2  0  0  0  0  0  0
  186.6700  177.9980  141.5270 C   0  0  1  0  0  3  0  0  0  0  0  0
  184.4680  179.0030  140.6080 C   0  0  0  0  0  2  0  0  0  0  0  0
  185.6570  178.6350  145.4410 C   0  0  0  0  0  2  0  0  0  0  0  0
  182.6730  178.7340  144.3770 O   0  0  0  0  0  0  0  0  0  0  0  0
  182.1940  180.6720  139.1370 C   0  0  0  0  0  1  0  0  0  0  0  0
  184.7370  178.6290  143.1330 C   0  0  2  0  0  3  0  0  0  0  0  0
  182.9850  179.0750  140.8360 C   0  0  0  0  0  0  0  0  0  0  0  0
  190.6240  176.8990  148.0920 N   0  0  0  0  0  2  0  0  0  0  0  0
  191.8290  176.4860  147.4460 C   0  0  0  0  0  0  0  0  0  0  0  0
  192.0300  176.7530  146.2320 O   0  0  0  0  0  0  0  0  0  0  0  0
  192.8090  175.7620  148.1800 N   0  0  0  0  0  1  0  0  0  0  0  0
  2 24  1  1  0  0  0
  3 11  1  0  0  0  0
  4 21  1  0  0  0  0
  4  3  1  0  0  0  0
  5 25  2  0  0  0  0
  6  5  1  0  0  0  0
  7 24  1  6  0  0  0
  7 19  1  0  0  0  0
  9 26  1  1  0  0  0
  9 15  1  0  0  0  0
  9 28  1  0  0  0  0
 10 20  1  0  0  0  0
 12  2  1  0  0  0  0
 12  8  1  1  0  0  0
 13 11  1  6  0  0  0
 13 12  1  0  0  0  0
 14 23  1  6  0  0  0
 14 27  1  0  0  0  0
 15 18  2  0  0  0  0
 16 19  1  0  0  0  0
 16  1  1  0  0  0  0
 17  8  1  6  0  0  0
 17  7  1  0  0  0  0
 17 10  1  0  0  0  0
 18  6  1  0  0  0  0
 20 29  1  1  0  0  0
 20  1  1  0  0  0  0
 22 21  1  1  0  0  0
 22 14  1  0  0  0  0
 22 13  1  0  0  0  0
 23 28  1  0  0  0  0
 27  5  1  6  0  0  0
 27  2  1  0  0  0  0
 28  6  2  0  0  0  0
 30 29  1  0  0  0  0
 30 32  1  0  0  0  0
 31 30  2  0  0  0  0
M  END
>  <MODEL>
7

>  <REMARK>
 VINA RESULT:      -6.8      3.846      8.360
  Name = 
  1 active torsions:
  status: ('A' for Active; 'I' for Inactive)
    1  A    between atoms: C_20  and  N_29
                            x       y       z     vdW  Elec       q    Type
                         _______ _______ _______ _____ _____    ______ ____

>  <TORSDO>
F 1

$$$$
=
 OpenBabel11122410383D

 32 37  0  0  1  0  0  0  0  0999 V2000
  188.4140  172.8910  136.7980 C   0  0  0  0  0  2  0  0  0  0  0  0
  185.0560  177.4010  136.9170 C   0  0  1  0  0  3  0  0  0  0  0  0
  187.7990  178.0300  141.0170 C   0  0  0  0  0  2  0  0  0  0  0  0
  186.7250  178.9210  141.6530 C   0  0  0  0  0  2  0  0  0  0  0  0
  182.5870  177.9590  137.0660 C   0  0  0  0  0  0  0  0  0  0  0  0
  181.5630  178.8930  137.5670 C   0  0  0  0  0  0  0  0  0  0  0  0
  186.3390  175.3780  136.1210 C   0  0  1  0  0  3  0  0  0  0  0  0
  187.5950  177.3010  136.6840 C   0  0  0  0  0  2  0  0  0  0  0  0
  180.5740  180.4830  138.9580 C   0  0  1  0  0  3  0  0  0  0  0  0
  188.7380  175.3230  136.2220 C   0  0  0  0  0  2  0  0  0  0  0  0
  187.8640  178.2350  139.5020 C   0  0  0  0  0  2  0  0  0  0  0  0
  186.4130  177.9850  137.3850 C   0  0  2  0  0  3  0  0  0  0  0  0
  186.4870  177.9510  138.9110 C   0  0  2  0  0  3  0  0  0  0  0  0
  184.1720  179.0500  138.6940 C   0  0  2  0  0  3  0  0  0  0  0  0
  179.6170  180.2320  137.7910 C   0  0  0  0  0  3  0  0  0  0  0  0
  186.9390  173.0950  137.1280 C   0  0  0  0  0  2  0  0  0  0  0  0
  187.5310  175.8530  136.8420 N   0  0  2  0  0  0  0  0  0  0  0  0
  180.2610  179.1610  136.9110 C   0  0  0  0  0  3  0  0  0  0  0  0
  186.2600  173.8480  135.9890 C   0  0  0  0  0  2  0  0  0  0  0  0
  189.2460  174.1480  137.0470 C   0  0  2  0  0  3  0  0  0  0  0  0
  185.3610  178.7070  140.9920 C   0  0  0  0  0  2  0  0  0  0  0  0
  185.4930  178.9620  139.4920 C   0  0  1  0  0  3  0  0  0  0  0  0
  182.9610  179.5010  139.5240 C   0  0  0  0  0  2  0  0  0  0  0  0
  185.0900  175.8710  136.8420 C   0  0  0  0  0  2  0  0  0  0  0  0
  182.3550  177.2600  136.0430 O   0  0  0  0  0  0  0  0  0  0  0  0
  179.9120  180.0490  140.2520 C   0  0  0  0  0  1  0  0  0  0  0  0
  183.8770  177.7960  137.8370 C   0  0  2  0  0  3  0  0  0  0  0  0
  181.7380  179.6130  138.6580 C   0  0  0  0  0  0  0  0  0  0  0  0
  190.6370  173.8910  136.7060 N   0  0  0  0  0  2  0  0  0  0  0  0
  191.7270  174.4550  137.4380 C   0  0  0  0  0  0  0  0  0  0  0  0
  191.5150  175.2290  138.4090 O   0  0  0  0  0  0  0  0  0  0  0  0
  193.0630  174.1430  137.0630 N   0  0  0  0  0  1  0  0  0  0  0  0
  1 20  1  0  0  0  0
  1 16  1  0  0  0  0
  2 24  1  1  0  0  0
  2 12  1  0  0  0  0
  2 27  1  0  0  0  0
  3  4  1  0  0  0  0
  5  6  1  0  0  0  0
  6 28  2  0  0  0  0
  7 19  1  1  0  0  0
  7 24  1  0  0  0  0
  7 17  1  0  0  0  0
  8 17  1  0  0  0  0
  9 26  1  1  0  0  0
 10 20  1  0  0  0  0
 11  3  1  0  0  0  0
 12  8  1  6  0  0  0
 12 13  1  0  0  0  0
 13 22  1  0  0  0  0
 13 11  1  6  0  0  0
 14 22  1  0  0  0  0
 14 23  1  1  0  0  0
 15  9  1  0  0  0  0
 17 10  1  6  0  0  0
 18  6  1  0  0  0  0
 18 15  2  0  0  0  0
 19 16  1  0  0  0  0
 20 29  1  6  0  0  0
 21  4  1  0  0  0  0
 22 21  1  1  0  0  0
 25  5  2  0  0  0  0
 27  5  1  6  0  0  0
 27 14  1  0  0  0  0
 28  9  1  0  0  0  0
 28 23  1  0  0  0  0
 29 30  1  0  0  0  0
 30 31  2  0  0  0  0
 32 30  1  0  0  0  0
M  END
>  <MODEL>
8

>  <REMARK>
 VINA RESULT:      -6.7      4.064      8.186
  Name = 
  1 active torsions:
  status: ('A' for Active; 'I' for Inactive)
    1  A    between atoms: C_20  and  N_29
                            x       y       z     vdW  Elec       q    Type
                         _______ _______ _______ _____ _____    ______ ____

>  <TORSDO>
F 1

$$$$
=
 OpenBabel11122410383D

 32 37  0  0  1  0  0  0  0  0999 V2000
  186.1900  178.6580  141.6650 C   0  0  0  0  0  2  0  0  0  0  0  0
  189.8540  176.8060  137.8230 C   0  0  1  0  0  3  0  0  0  0  0  0
  186.0330  173.6810  137.2180 C   0  0  0  0  0  2  0  0  0  0  0  0
  186.9450  172.6150  136.5970 C   0  0  0  0  0  2  0  0  0  0  0  0
  192.1920  175.8300  137.7040 C   0  0  0  0  0  0  0  0  0  0  0  0
  193.1060  174.9010  137.0180 C   0  0  0  0  0  0  0  0  0  0  0  0
  188.6590  178.2670  139.4990 C   0  0  1  0  0  3  0  0  0  0  0  0
  187.5330  177.8070  137.4700 C   0  0  0  0  0  2  0  0  0  0  0  0
  193.7790  173.0390  135.7850 C   0  0  1  0  0  3  0  0  0  0  0  0
  186.3680  178.9060  139.1640 C   0  0  0  0  0  2  0  0  0  0  0  0
  186.4860  175.0910  136.8330 C   0  0  0  0  0  2  0  0  0  0  0  0
  188.5000  176.6820  137.0770 C   0  0  2  0  0  3  0  0  0  0  0  0
  187.9350  175.2760  137.2730 C   0  0  2  0  0  3  0  0  0  0  0  0
  190.3120  174.6040  136.5580 C   0  0  2  0  0  3  0  0  0  0  0  0
  195.0230  173.8870  136.0560 C   0  0  0  0  0  3  0  0  0  0  0  0
  187.4920  177.8700  141.7490 C   0  0  0  0  0  2  0  0  0  0  0  0
  187.3650  177.8730  138.9170 N   0  0  2  0  0  0  0  0  0  0  0  0
  194.5710  175.0810  136.8980 C   0  0  0  0  0  3  0  0  0  0  0  0
  188.5890  178.6140  140.9950 C   0  0  0  0  0  2  0  0  0  0  0  0
  185.4820  178.4730  140.3240 C   0  0  2  0  0  3  0  0  0  0  0  0
  188.4130  172.8590  136.9590 C   0  0  0  0  0  2  0  0  0  0  0  0
  188.8040  174.2670  136.5140 C   0  0  1  0  0  3  0  0  0  0  0  0
  191.2360  173.3860  136.4130 C   0  0  0  0  0  2  0  0  0  0  0  0
  189.6600  177.1340  139.3070 C   0  0  0  0  0  2  0  0  0  0  0  0
  192.6540  176.8350  138.3100 O   0  0  0  0  0  0  0  0  0  0  0  0
  193.9300  171.6930  136.4680 C   0  0  0  0  0  1  0  0  0  0  0  0
  190.7120  175.5220  137.7370 C   0  0  2  0  0  3  0  0  0  0  0  0
  192.6770  173.8120  136.4080 C   0  0  0  0  0  0  0  0  0  0  0  0
  184.2540  179.2550  140.3040 N   0  0  0  0  0  2  0  0  0  0  0  0
  182.9590  178.6550  140.2380 C   0  0  0  0  0  0  0  0  0  0  0  0
  182.8350  177.4030  140.1690 O   0  0  0  0  0  0  0  0  0  0  0  0
  181.8000  179.4790  140.2450 N   0  0  0  0  0  1  0  0  0  0  0  0
  1 16  1  0  0  0  0
  2 24  1  1  0  0  0
  4 21  1  0  0  0  0
  4  3  1  0  0  0  0
  5 25  2  0  0  0  0
  6  5  1  0  0  0  0
  7 24  1  1  0  0  0
  7 19  1  0  0  0  0
  9 15  1  0  0  0  0
  9 28  1  0  0  0  0
  9 26  1  1  0  0  0
 10 20  1  0  0  0  0
 11  3  1  0  0  0  0
 12 13  1  0  0  0  0
 12  8  1  1  0  0  0
 12  2  1  0  0  0  0
 13 11  1  6  0  0  0
 14 23  1  1  0  0  0
 14 27  1  0  0  0  0
 15 18  2  0  0  0  0
 17  8  1  6  0  0  0
 17 10  1  0  0  0  0
 17  7  1  0  0  0  0
 18  6  1  0  0  0  0
 19 16  1  0  0  0  0
 20 29  1  1  0  0  0
 20  1  1  0  0  0  0
 22 14  1  0  0  0  0
 22 21  1  1  0  0  0
 22 13  1  0  0  0  0
 27  5  1  6  0  0  0
 27  2  1  0  0  0  0
 28 23  1  0  0  0  0
 28  6  2  0  0  0  0
 30 32  1  0  0  0  0
 30 29  1  0  0  0  0
 31 30  2  0  0  0  0
M  END
>  <MODEL>
9

>  <REMARK>
 VINA RESULT:      -6.7      4.344      7.834
  Name = 
  1 active torsions:
  status: ('A' for Active; 'I' for Inactive)
    1  A    between atoms: C_20  and  N_29
                            x       y       z     vdW  Elec       q    Type
                         _______ _______ _______ _____ _____    ______ ____

>  <TORSDO>
F 1

$$$$
