=
 OpenBabel11122410443D

 32 37  0  0  1  0  0  0  0  0999 V2000
  186.5600  174.7310  136.2100 C   0  0  0  0  0  2  0  0  0  0  0  0
  184.3130  178.6820  138.8390 C   0  0  1  0  0  3  0  0  0  0  0  0
  187.7280  178.1590  142.3790 C   0  0  0  0  0  3  0  0  0  0  0  0
  186.7150  178.0830  143.3360 C   0  0  0  0  0  3  0  0  0  0  0  0
  182.0820  179.3600  139.4650 C   0  0  1  0  0  3  0  0  0  0  0  0
  181.2060  179.8470  140.6080 C   0  0  1  0  0  3  0  0  0  0  0  0
  184.6950  176.8390  137.2670 N   0  0  1  0  0  0  0  0  0  0  0  0
  186.6210  178.0780  138.2150 C   0  0  0  0  0  2  0  0  0  0  0  0
  180.4430  179.3030  142.7940 N   0  0  0  0  0  0  0  0  0  0  0  0
  187.0070  176.1300  136.6520 C   0  0  2  0  0  3  0  0  0  0  0  0
  187.4040  178.3320  141.0310 C   0  0  0  0  0  3  0  0  0  0  0  0
  185.7180  178.5830  139.2420 N   0  0  0  0  0  0  0  0  0  0  0  0
  186.0630  178.4380  140.6310 C   0  0  0  0  0  0  0  0  0  0  0  0
  183.6050  178.4470  141.1530 C   0  0  1  0  0  3  0  0  0  0  0  0
  178.9310  179.7220  141.9540 S   0  0  0  0  0  0  0  0  0  0  0  0
  185.1460  174.0870  137.1700 S   0  0  0  0  0  0  0  0  0  0  0  0
  186.0940  176.7210  137.7330 C   0  0  2  0  0  3  0  0  0  0  0  0
  179.7340  179.8060  140.3200 C   0  0  0  0  0  2  0  0  0  0  0  0
  184.1260  175.5650  136.7960 C   0  0  0  0  0  2  0  0  0  0  0  0
  185.3770  178.1890  142.9480 C   0  0  0  0  0  3  0  0  0  0  0  0
  185.0440  178.3890  141.5990 C   0  0  0  0  0  0  0  0  0  0  0  0
  182.7610  178.9990  142.2210 N   0  0  0  0  0  2  0  0  0  0  0  0
  183.8460  177.2940  138.3710 C   0  0  0  0  0  2  0  0  0  0  0  0
  181.9910  180.2620  138.4010 O   0  0  0  0  0  1  0  0  0  0  0  0
  180.1600  178.1210  143.5890 C   0  0  0  0  0  1  0  0  0  0  0  0
  183.4850  179.2590  139.9170 N   0  0  1  0  0  0  0  0  0  0  0  0
  181.3840  178.9090  141.7590 C   0  0  2  0  0  3  0  0  0  0  0  0
  187.0620  176.9720  135.5370 O   0  0  0  0  0  0  0  0  0  0  0  0
  188.2410  176.6180  134.8760 C   0  0  0  0  0  2  0  0  0  0  0  0
  189.4130  177.0990  135.6540 C   0  0  0  0  0  0  0  0  0  0  0  0
  189.4080  178.2570  136.1480 O   0  0  0  0  0  0  0  0  0  0  0  0
  190.5210  176.2360  135.8780 N   0  0  0  0  0  1  0  0  0  0  0  0
  1 10  1  0  0  0  0
  1 16  1  0  0  0  0
  2 23  1  1  0  0  0
  2 12  1  0  0  0  0
  2 26  1  0  0  0  0
  3  4  1  0  0  0  0
  5 24  1  6  0  0  0
  5 26  1  0  0  0  0
  5  6  1  0  0  0  0
  6 18  1  6  0  0  0
  6 27  1  0  0  0  0
  7 19  1  1  0  0  0
  7 17  1  0  0  0  0
  7 23  1  0  0  0  0
  8 12  1  0  0  0  0
  9 25  1  0  0  0  0
 10 28  1  6  0  0  0
 10 17  1  0  0  0  0
 11  3  2  0  0  0  0
 12 13  1  0  0  0  0
 13 11  1  0  0  0  0
 13 21  2  0  0  0  0
 14 21  1  1  0  0  0
 14 22  1  0  0  0  0
 15  9  1  0  0  0  0
 17  8  1  6  0  0  0
 18 15  1  0  0  0  0
 19 16  1  0  0  0  0
 20  4  2  0  0  0  0
 21 20  1  0  0  0  0
 26 14  1  0  0  0  0
 27 22  1  0  0  0  0
 27  9  1  0  0  0  0
 29 28  1  0  0  0  0
 29 30  1  0  0  0  0
 30 32  1  0  0  0  0
 30 31  2  0  0  0  0
M  END
>  <MODEL>
1

>  <REMARK>
 VINA RESULT:      -6.0      0.000      0.000
  Name = 
  3 active torsions:
  status: ('A' for Active; 'I' for Inactive)
    1  A    between atoms: C_10  and  O_20
    2  A    between atoms: O_20  and  C_29
    3  A    between atoms: C_29  and  C_30
                            x       y       z     vdW  Elec       q    Type
                         _______ _______ _______ _____ _____    ______ ____

>  <TORSDO>
F 3

$$$$
=
 OpenBabel11122410443D

 32 37  0  0  1  0  0  0  0  0999 V2000
  181.9350  178.8680  140.4990 C   0  0  0  0  0  2  0  0  0  0  0  0
  184.8520  177.0820  136.5150 C   0  0  1  0  0  3  0  0  0  0  0  0
  182.7230  172.6500  137.0530 C   0  0  0  0  0  3  0  0  0  0  0  0
  183.9860  172.0580  137.1150 C   0  0  0  0  0  3  0  0  0  0  0  0
  187.1600  177.1880  135.8140 C   0  0  1  0  0  3  0  0  0  0  0  0
  188.3450  176.3780  135.3140 C   0  0  1  0  0  3  0  0  0  0  0  0
  184.0150  178.4520  138.3690 N   0  0  1  0  0  0  0  0  0  0  0  0
  182.4710  176.9510  137.1440 C   0  0  0  0  0  2  0  0  0  0  0  0
  189.7600  174.5400  135.8410 N   0  0  0  0  0  0  0  0  0  0  0  0
  181.6340  178.3100  139.1020 C   0  0  2  0  0  3  0  0  0  0  0  0
  182.6070  174.0320  136.8830 C   0  0  0  0  0  3  0  0  0  0  0  0
  183.6460  176.2590  136.6260 N   0  0  0  0  0  0  0  0  0  0  0  0
  183.7550  174.8320  136.7670 C   0  0  0  0  0  0  0  0  0  0  0  0
  186.2520  175.1060  136.7330 C   0  0  1  0  0  3  0  0  0  0  0  0
  190.9290  175.8120  135.4120 S   0  0  0  0  0  0  0  0  0  0  0  0
  183.5840  178.3980  141.1260 S   0  0  0  0  0  0  0  0  0  0  0  0
  182.8340  177.5710  138.4980 C   0  0  2  0  0  3  0  0  0  0  0  0
  189.6530  177.1130  135.3440 C   0  0  0  0  0  2  0  0  0  0  0  0
  184.4210  179.0760  139.6410 C   0  0  0  0  0  2  0  0  0  0  0  0
  185.1340  172.8460  136.9980 C   0  0  0  0  0  3  0  0  0  0  0  0
  185.0260  174.2310  136.8020 C   0  0  0  0  0  0  0  0  0  0  0  0
  187.3820  174.3570  136.1680 N   0  0  0  0  0  2  0  0  0  0  0  0
  185.1630  177.6710  137.9010 C   0  0  0  0  0  2  0  0  0  0  0  0
  186.9040  178.2280  134.9170 O   0  0  0  0  0  1  0  0  0  0  0  0
  190.2900  173.8710  137.0160 C   0  0  0  0  0  1  0  0  0  0  0  0
  185.9710  176.3190  135.9260 N   0  0  1  0  0  0  0  0  0  0  0  0
  188.5470  175.2270  136.2480 C   0  0  2  0  0  3  0  0  0  0  0  0
  181.2240  179.3530  138.2660 O   0  0  0  0  0  0  0  0  0  0  0  0
  181.0560  180.4510  139.1150 C   0  0  0  0  0  2  0  0  0  0  0  0
  181.5530  181.6800  138.4420 C   0  0  0  0  0  0  0  0  0  0  0  0
  182.7280  182.0810  138.6520 O   0  0  0  0  0  0  0  0  0  0  0  0
  180.7160  182.3800  137.5310 N   0  0  0  0  0  1  0  0  0  0  0  0
  1 16  1  0  0  0  0
  2 12  1  0  0  0  0
  2 23  1  1  0  0  0
  3  4  1  0  0  0  0
  5 24  1  6  0  0  0
  5 26  1  0  0  0  0
  6 18  1  1  0  0  0
  6  5  1  0  0  0  0
  6 27  1  0  0  0  0
  7 23  1  1  0  0  0
  7 17  1  0  0  0  0
  7 19  1  0  0  0  0
  9 27  1  0  0  0  0
  9 25  1  0  0  0  0
 10 28  1  6  0  0  0
 10  1  1  0  0  0  0
 11  3  2  0  0  0  0
 12 13  1  0  0  0  0
 12  8  1  0  0  0  0
 13 21  2  0  0  0  0
 13 11  1  0  0  0  0
 14 22  1  6  0  0  0
 14 21  1  0  0  0  0
 15  9  1  0  0  0  0
 17  8  1  6  0  0  0
 17 10  1  0  0  0  0
 18 15  1  0  0  0  0
 19 16  1  0  0  0  0
 20  4  2  0  0  0  0
 21 20  1  0  0  0  0
 22 27  1  0  0  0  0
 26  2  1  0  0  0  0
 26 14  1  0  0  0  0
 28 29  1  0  0  0  0
 30 31  2  0  0  0  0
 30 29  1  0  0  0  0
 32 30  1  0  0  0  0
M  END
>  <MODEL>
2

>  <REMARK>
 VINA RESULT:      -5.6      2.740      8.054
  Name = 
  3 active torsions:
  status: ('A' for Active; 'I' for Inactive)
    1  A    between atoms: C_10  and  O_20
    2  A    between atoms: O_20  and  C_29
    3  A    between atoms: C_29  and  C_30
                            x       y       z     vdW  Elec       q    Type
                         _______ _______ _______ _____ _____    ______ ____

>  <TORSDO>
F 3

$$$$
=
 OpenBabel11122410443D

 32 37  0  0  1  0  0  0  0  0999 V2000
  191.3380  173.3800  136.2080 C   0  0  0  0  0  2  0  0  0  0  0  0
  188.9000  177.7120  137.8980 C   0  0  1  0  0  3  0  0  0  0  0  0
  191.4290  177.3820  142.1360 C   0  0  0  0  0  3  0  0  0  0  0  0
  190.2320  177.4670  142.8490 C   0  0  0  0  0  3  0  0  0  0  0  0
  186.6480  178.5790  137.9500 C   0  0  1  0  0  3  0  0  0  0  0  0
  185.5890  179.2360  138.8210 C   0  0  1  0  0  3  0  0  0  0  0  0
  189.4630  175.6910  136.6270 N   0  0  1  0  0  0  0  0  0  0  0  0
  191.2330  176.9140  137.8560 C   0  0  0  0  0  2  0  0  0  0  0  0
  184.3370  178.9750  140.8270 N   0  0  0  0  0  0  0  0  0  0  0  0
  191.7890  174.7900  136.6060 C   0  0  2  0  0  3  0  0  0  0  0  0
  191.4140  177.4260  140.7390 C   0  0  0  0  0  3  0  0  0  0  0  0
  190.1740  177.5780  138.6070 N   0  0  0  0  0  0  0  0  0  0  0  0
  190.2020  177.5640  140.0460 C   0  0  0  0  0  0  0  0  0  0  0  0
  187.6980  177.7690  140.0100 C   0  0  1  0  0  3  0  0  0  0  0  0
  183.0760  179.3860  139.6390 S   0  0  0  0  0  0  0  0  0  0  0  0
  189.7050  172.9240  136.8880 S   0  0  0  0  0  0  0  0  0  0  0  0
  190.7160  175.5460  137.3990 C   0  0  2  0  0  3  0  0  0  0  0  0
  184.2140  179.2470  138.2210 C   0  0  0  0  0  2  0  0  0  0  0  0
  188.9080  174.4080  136.1630 C   0  0  0  0  0  2  0  0  0  0  0  0
  189.0200  177.6070  142.1680 C   0  0  0  0  0  3  0  0  0  0  0  0
  189.0000  177.6780  140.7660 C   0  0  0  0  0  0  0  0  0  0  0  0
  186.6920  178.4800  140.8100 N   0  0  0  0  0  2  0  0  0  0  0  0
  188.4360  176.3110  137.4690 C   0  0  0  0  0  2  0  0  0  0  0  0
  186.8570  179.3650  136.8130 O   0  0  0  0  0  1  0  0  0  0  0  0
  183.7980  177.9040  141.6470 C   0  0  0  0  0  1  0  0  0  0  0  0
  187.9090  178.4490  138.7070 N   0  0  1  0  0  0  0  0  0  0  0  0
  185.4420  178.4190  140.0660 C   0  0  2  0  0  3  0  0  0  0  0  0
  192.1470  175.5020  135.4570 O   0  0  0  0  0  0  0  0  0  0  0  0
  193.4620  175.1140  135.1870 C   0  0  0  0  0  2  0  0  0  0  0  0
  194.3900  175.8310  136.1020 C   0  0  0  0  0  0  0  0  0  0  0  0
  194.4250  177.0890  136.1040 O   0  0  0  0  0  0  0  0  0  0  0  0
  195.2070  175.0960  137.0040 N   0  0  0  0  0  1  0  0  0  0  0  0
  1 10  1  0  0  0  0
  1 16  1  0  0  0  0
  2 23  1  1  0  0  0
  2 12  1  0  0  0  0
  2 26  1  0  0  0  0
  3  4  1  0  0  0  0
  5 24  1  6  0  0  0
  5 26  1  0  0  0  0
  5  6  1  0  0  0  0
  6 18  1  6  0  0  0
  6 27  1  0  0  0  0
  7 19  1  1  0  0  0
  7 17  1  0  0  0  0
  7 23  1  0  0  0  0
  8 12  1  0  0  0  0
  9 25  1  0  0  0  0
 10 28  1  6  0  0  0
 10 17  1  0  0  0  0
 11  3  2  0  0  0  0
 12 13  1  0  0  0  0
 13 11  1  0  0  0  0
 13 21  2  0  0  0  0
 14 21  1  1  0  0  0
 14 22  1  0  0  0  0
 15  9  1  0  0  0  0
 17  8  1  6  0  0  0
 18 15  1  0  0  0  0
 19 16  1  0  0  0  0
 20  4  2  0  0  0  0
 21 20  1  0  0  0  0
 26 14  1  0  0  0  0
 27 22  1  0  0  0  0
 27  9  1  0  0  0  0
 29 28  1  0  0  0  0
 29 30  1  0  0  0  0
 30 31  2  0  0  0  0
 30 32  1  0  0  0  0
M  END
>  <MODEL>
3

>  <REMARK>
 VINA RESULT:      -5.5      3.086      4.666
  Name = 
  3 active torsions:
  status: ('A' for Active; 'I' for Inactive)
    1  A    between atoms: C_10  and  O_20
    2  A    between atoms: O_20  and  C_29
    3  A    between atoms: C_29  and  C_30
                            x       y       z     vdW  Elec       q    Type
                         _______ _______ _______ _____ _____    ______ ____

>  <TORSDO>
F 3

$$$$
=
 OpenBabel11122410443D

 32 37  0  0  1  0  0  0  0  0999 V2000
  183.4830  175.1740  134.8730 C   0  0  0  0  0  2  0  0  0  0  0  0
  186.5350  178.0020  138.0750 C   0  0  1  0  0  3  0  0  0  0  0  0
  190.4310  176.8270  135.2640 C   0  0  0  0  0  3  0  0  0  0  0  0
  191.1130  176.3920  136.4020 C   0  0  0  0  0  3  0  0  0  0  0  0
  186.8530  178.2670  140.4540 C   0  0  1  0  0  3  0  0  0  0  0  0
  187.8820  178.3300  141.5710 C   0  0  1  0  0  3  0  0  0  0  0  0
  184.6510  176.7180  137.1730 N   0  0  1  0  0  0  0  0  0  0  0  0
  186.2530  177.8150  135.6330 C   0  0  0  0  0  2  0  0  0  0  0  0
  189.6550  177.1260  142.6030 N   0  0  0  0  0  0  0  0  0  0  0  0
  184.3510  176.4280  134.7130 C   0  0  2  0  0  3  0  0  0  0  0  0
  189.1370  177.3410  135.3790 C   0  0  0  0  0  3  0  0  0  0  0  0
  187.1720  177.9250  136.7590 N   0  0  0  0  0  0  0  0  0  0  0  0
  188.5170  177.4290  136.6350 C   0  0  0  0  0  0  0  0  0  0  0  0
  188.5190  177.0630  139.1210 C   0  0  1  0  0  3  0  0  0  0  0  0
  188.6650  177.6220  143.9970 S   0  0  0  0  0  0  0  0  0  0  0  0
  183.9400  174.1580  136.3200 S   0  0  0  0  0  0  0  0  0  0  0  0
  185.3420  176.6050  135.8700 C   0  0  2  0  0  3  0  0  0  0  0  0
  187.3040  178.2340  142.9520 C   0  0  0  0  0  2  0  0  0  0  0  0
  183.7620  175.5800  137.4650 C   0  0  0  0  0  2  0  0  0  0  0  0
  190.5050  176.4780  137.6570 C   0  0  0  0  0  3  0  0  0  0  0  0
  189.2150  177.0160  137.7840 C   0  0  0  0  0  0  0  0  0  0  0  0
  189.5010  177.2120  140.2030 N   0  0  0  0  0  2  0  0  0  0  0  0
  185.6410  176.7640  138.2520 C   0  0  0  0  0  2  0  0  0  0  0  0
  186.0620  179.4190  140.4940 O   0  0  0  0  0  1  0  0  0  0  0  0
  190.0450  175.7480  142.8420 C   0  0  0  0  0  1  0  0  0  0  0  0
  187.5360  178.1740  139.1480 N   0  0  1  0  0  0  0  0  0  0  0  0
  188.7650  177.1270  141.4550 C   0  0  2  0  0  3  0  0  0  0  0  0
  183.5260  177.5500  134.5940 O   0  0  0  0  0  0  0  0  0  0  0  0
  182.2240  177.0420  134.6000 C   0  0  0  0  0  2  0  0  0  0  0  0
  181.3200  177.9990  135.2920 C   0  0  0  0  0  0  0  0  0  0  0  0
  180.3550  178.5150  134.6710 O   0  0  0  0  0  0  0  0  0  0  0  0
  181.5210  178.2990  136.6670 N   0  0  0  0  0  1  0  0  0  0  0  0
  1 16  1  0  0  0  0
  2 23  1  1  0  0  0
  2 26  1  0  0  0  0
  3 11  2  0  0  0  0
  3  4  1  0  0  0  0
  4 20  2  0  0  0  0
  5 24  1  6  0  0  0
  5  6  1  0  0  0  0
  6 18  1  1  0  0  0
  7 19  1  1  0  0  0
  7 23  1  0  0  0  0
  8 12  1  0  0  0  0
  9 25  1  0  0  0  0
  9 15  1  0  0  0  0
 10 28  1  1  0  0  0
 10  1  1  0  0  0  0
 10 17  1  0  0  0  0
 11 13  1  0  0  0  0
 12  2  1  0  0  0  0
 13 12  1  0  0  0  0
 13 21  2  0  0  0  0
 14 21  1  6  0  0  0
 14 26  1  0  0  0  0
 14 22  1  0  0  0  0
 16 19  1  0  0  0  0
 17  8  1  6  0  0  0
 17  7  1  0  0  0  0
 18 15  1  0  0  0  0
 20 21  1  0  0  0  0
 22 27  1  0  0  0  0
 26  5  1  0  0  0  0
 27  6  1  0  0  0  0
 27  9  1  0  0  0  0
 28 29  1  0  0  0  0
 29 30  1  0  0  0  0
 30 32  1  0  0  0  0
 31 30  2  0  0  0  0
M  END
>  <MODEL>
4

>  <REMARK>
 VINA RESULT:      -5.1      3.831      6.219
  Name = 
  3 active torsions:
  status: ('A' for Active; 'I' for Inactive)
    1  A    between atoms: C_10  and  O_20
    2  A    between atoms: O_20  and  C_29
    3  A    between atoms: C_29  and  C_30
                            x       y       z     vdW  Elec       q    Type
                         _______ _______ _______ _____ _____    ______ ____

>  <TORSDO>
F 3

$$$$
=
 OpenBabel11122410443D

 32 37  0  0  1  0  0  0  0  0999 V2000
  182.3630  175.9370  137.1940 C   0  0  0  0  0  2  0  0  0  0  0  0
  184.5630  178.8880  140.9390 C   0  0  1  0  0  3  0  0  0  0  0  0
  188.9520  178.2470  138.7500 C   0  0  0  0  0  3  0  0  0  0  0  0
  189.4900  177.8250  139.9670 C   0  0  0  0  0  3  0  0  0  0  0  0
  184.4760  179.0620  143.3460 C   0  0  1  0  0  3  0  0  0  0  0  0
  185.3060  179.1700  144.6150 C   0  0  1  0  0  3  0  0  0  0  0  0
  182.9880  177.4710  139.7030 N   0  0  1  0  0  0  0  0  0  0  0  0
  184.6860  178.7970  138.4780 C   0  0  0  0  0  2  0  0  0  0  0  0
  187.0130  178.0970  145.8760 N   0  0  0  0  0  0  0  0  0  0  0  0
  183.1090  177.2770  137.2180 C   0  0  2  0  0  3  0  0  0  0  0  0
  187.6080  178.6240  138.6740 C   0  0  0  0  0  3  0  0  0  0  0  0
  185.4020  178.9410  139.7400 N   0  0  0  0  0  0  0  0  0  0  0  0
  186.7940  178.5870  139.8160 C   0  0  0  0  0  0  0  0  0  0  0  0
  186.4470  178.0980  142.2560 C   0  0  1  0  0  3  0  0  0  0  0  0
  185.7720  178.4210  147.1100 S   0  0  0  0  0  0  0  0  0  0  0  0
  182.6940  174.8990  138.6600 S   0  0  0  0  0  0  0  0  0  0  0  0
  183.8820  177.4930  138.5240 C   0  0  2  0  0  3  0  0  0  0  0  0
  184.5330  178.9480  145.8810 C   0  0  0  0  0  2  0  0  0  0  0  0
  182.1910  176.2370  139.8100 C   0  0  0  0  0  2  0  0  0  0  0  0
  188.6880  177.7870  141.1100 C   0  0  0  0  0  3  0  0  0  0  0  0
  187.3440  178.1880  141.0480 C   0  0  0  0  0  0  0  0  0  0  0  0
  187.2270  178.2880  143.4860 N   0  0  0  0  0  2  0  0  0  0  0  0
  183.7870  177.5600  140.9280 C   0  0  0  0  0  2  0  0  0  0  0  0
  183.5710  180.1260  143.2980 O   0  0  0  0  0  1  0  0  0  0  0  0
  187.5050  176.7530  146.1270 C   0  0  0  0  0  1  0  0  0  0  0  0
  185.3600  179.1040  142.1630 N   0  0  1  0  0  0  0  0  0  0  0  0
  186.3180  178.0680  144.6010 C   0  0  2  0  0  3  0  0  0  0  0  0
  182.1980  178.3170  137.0060 O   0  0  0  0  0  0  0  0  0  0  0  0
  181.0000  177.6830  136.6680 C   0  0  0  0  0  2  0  0  0  0  0  0
  179.8530  178.4920  137.1600 C   0  0  0  0  0  0  0  0  0  0  0  0
  179.0330  178.9840  136.3420 O   0  0  0  0  0  0  0  0  0  0  0  0
  179.6580  178.6740  138.5570 N   0  0  0  0  0  1  0  0  0  0  0  0
  1 10  1  0  0  0  0
  1 16  1  0  0  0  0
  2 23  1  1  0  0  0
  2 26  1  0  0  0  0
  3  4  1  0  0  0  0
  4 20  2  0  0  0  0
  5 24  1  6  0  0  0
  5  6  1  0  0  0  0
  6 18  1  1  0  0  0
  7 19  1  1  0  0  0
  7 23  1  0  0  0  0
  8 12  1  0  0  0  0
  9 25  1  0  0  0  0
  9 15  1  0  0  0  0
 10 28  1  1  0  0  0
 10 17  1  0  0  0  0
 11  3  2  0  0  0  0
 11 13  1  0  0  0  0
 12 13  1  0  0  0  0
 12  2  1  0  0  0  0
 13 21  2  0  0  0  0
 14 21  1  6  0  0  0
 14 22  1  0  0  0  0
 16 19  1  0  0  0  0
 17  8  1  6  0  0  0
 17  7  1  0  0  0  0
 18 15  1  0  0  0  0
 21 20  1  0  0  0  0
 22 27  1  0  0  0  0
 26 14  1  0  0  0  0
 26  5  1  0  0  0  0
 27  6  1  0  0  0  0
 27  9  1  0  0  0  0
 29 28  1  0  0  0  0
 29 30  1  0  0  0  0
 30 32  1  0  0  0  0
 31 30  2  0  0  0  0
M  END
>  <MODEL>
5

>  <REMARK>
 VINA RESULT:      -5.0      3.392      5.507
  Name = 
  3 active torsions:
  status: ('A' for Active; 'I' for Inactive)
    1  A    between atoms: C_10  and  O_20
    2  A    between atoms: O_20  and  C_29
    3  A    between atoms: C_29  and  C_30
                            x       y       z     vdW  Elec       q    Type
                         _______ _______ _______ _____ _____    ______ ____

>  <TORSDO>
F 3

$$$$
=
 OpenBabel11122410443D

 32 37  0  0  1  0  0  0  0  0999 V2000
  180.6560  176.0940  137.4730 C   0  0  0  0  0  2  0  0  0  0  0  0
  183.5160  178.9770  140.8010 C   0  0  1  0  0  3  0  0  0  0  0  0
  187.3910  178.4850  137.7670 C   0  0  0  0  0  3  0  0  0  0  0  0
  188.1650  178.0380  138.8380 C   0  0  0  0  0  3  0  0  0  0  0  0
  183.9070  179.0800  143.1810 C   0  0  1  0  0  3  0  0  0  0  0  0
  184.9710  179.1680  144.2640 C   0  0  1  0  0  3  0  0  0  0  0  0
  181.7460  177.5660  139.8570 N   0  0  1  0  0  0  0  0  0  0  0  0
  183.1490  178.9600  138.3620 C   0  0  0  0  0  2  0  0  0  0  0  0
  186.9090  178.0920  145.1260 N   0  0  0  0  0  0  0  0  0  0  0  0
  181.3730  177.4470  137.3920 C   0  0  2  0  0  3  0  0  0  0  0  0
  186.0540  178.8380  137.9700 C   0  0  0  0  0  3  0  0  0  0  0  0
  184.0990  179.0810  139.4620 N   0  0  0  0  0  0  0  0  0  0  0  0
  185.4840  178.7520  139.2490 C   0  0  0  0  0  0  0  0  0  0  0  0
  185.6350  178.1860  141.6930 C   0  0  1  0  0  3  0  0  0  0  0  0
  185.9330  178.3560  146.5910 S   0  0  0  0  0  0  0  0  0  0  0  0
  181.2850  175.0200  138.8100 S   0  0  0  0  0  0  0  0  0  0  0  0
  182.3880  177.6390  138.5260 C   0  0  2  0  0  3  0  0  0  0  0  0
  184.4680  178.8940  145.6500 C   0  0  0  0  0  2  0  0  0  0  0  0
  181.0020  176.3150  140.0800 C   0  0  0  0  0  2  0  0  0  0  0  0
  187.6070  177.9520  140.1160 C   0  0  0  0  0  3  0  0  0  0  0  0
  186.2730  178.3280  140.3340 C   0  0  0  0  0  0  0  0  0  0  0  0
  186.6420  178.3560  142.7490 N   0  0  0  0  0  2  0  0  0  0  0  0
  182.7720  177.6360  140.9010 C   0  0  0  0  0  2  0  0  0  0  0  0
  182.9960  180.1280  143.3480 O   0  0  0  0  0  1  0  0  0  0  0  0
  187.4590  176.7520  145.2320 C   0  0  0  0  0  1  0  0  0  0  0  0
  184.5380  179.1730  141.8490 N   0  0  1  0  0  0  0  0  0  0  0  0
  185.9740  178.0860  144.0140 C   0  0  2  0  0  3  0  0  0  0  0  0
  180.4250  178.4740  137.3990 O   0  0  0  0  0  0  0  0  0  0  0  0
  180.3550  178.9090  136.0720 C   0  0  0  0  0  2  0  0  0  0  0  0
  180.5860  180.3770  136.0170 C   0  0  0  0  0  0  0  0  0  0  0  0
  180.6730  181.0410  137.0820 O   0  0  0  0  0  0  0  0  0  0  0  0
  180.7500  181.0240  134.7620 N   0  0  0  0  0  1  0  0  0  0  0  0
  1 16  1  0  0  0  0
  2 23  1  1  0  0  0
  2 26  1  0  0  0  0
  3 11  2  0  0  0  0
  3  4  1  0  0  0  0
  4 20  2  0  0  0  0
  5 24  1  1  0  0  0
  5  6  1  0  0  0  0
  6 18  1  1  0  0  0
  7 19  1  6  0  0  0
  7 23  1  0  0  0  0
  8 12  1  0  0  0  0
  9 25  1  0  0  0  0
  9 15  1  0  0  0  0
 10 28  1  1  0  0  0
 10  1  1  0  0  0  0
 10 17  1  0  0  0  0
 11 13  1  0  0  0  0
 12  2  1  0  0  0  0
 13 12  1  0  0  0  0
 13 21  2  0  0  0  0
 14 21  1  6  0  0  0
 14 26  1  0  0  0  0
 14 22  1  0  0  0  0
 16 19  1  0  0  0  0
 17  8  1  6  0  0  0
 17  7  1  0  0  0  0
 18 15  1  0  0  0  0
 20 21  1  0  0  0  0
 22 27  1  0  0  0  0
 26  5  1  0  0  0  0
 27  6  1  0  0  0  0
 27  9  1  0  0  0  0
 29 28  1  0  0  0  0
 30 29  1  0  0  0  0
 30 31  2  0  0  0  0
 32 30  1  0  0  0  0
M  END
>  <MODEL>
6

>  <REMARK>
 VINA RESULT:      -5.0      3.544      5.618
  Name = 
  3 active torsions:
  status: ('A' for Active; 'I' for Inactive)
    1  A    between atoms: C_10  and  O_20
    2  A    between atoms: O_20  and  C_29
    3  A    between atoms: C_29  and  C_30
                            x       y       z     vdW  Elec       q    Type
                         _______ _______ _______ _____ _____    ______ ____

>  <TORSDO>
F 3

$$$$
=
 OpenBabel11122410443D

 32 37  0  0  1  0  0  0  0  0999 V2000
  188.5460  177.0020  143.9060 C   0  0  0  0  0  2  0  0  0  0  0  0
  190.7320  177.3030  139.1410 C   0  0  1  0  0  3  0  0  0  0  0  0
  186.2230  177.9180  137.2040 C   0  0  0  0  0  3  0  0  0  0  0  0
  186.4720  176.8760  136.3090 C   0  0  0  0  0  3  0  0  0  0  0  0
  192.3920  176.1000  137.8670 C   0  0  1  0  0  3  0  0  0  0  0  0
  192.7060  175.4620  136.5230 C   0  0  1  0  0  3  0  0  0  0  0  0
  190.3760  176.8530  141.5260 N   0  0  1  0  0  0  0  0  0  0  0  0
  189.0470  178.6060  140.3850 C   0  0  0  0  0  2  0  0  0  0  0  0
  191.9540  173.8350  134.9600 N   0  0  0  0  0  0  0  0  0  0  0  0
  188.6360  178.0840  142.8230 C   0  0  2  0  0  3  0  0  0  0  0  0
  187.2030  178.2980  138.1240 C   0  0  0  0  0  3  0  0  0  0  0  0
  189.4460  178.0040  139.1180 N   0  0  0  0  0  0  0  0  0  0  0  0
  188.4430  177.6420  138.1520 C   0  0  0  0  0  0  0  0  0  0  0  0
  190.0180  175.8760  137.3080 C   0  0  1  0  0  3  0  0  0  0  0  0
  193.6800  173.4340  135.1300 S   0  0  0  0  0  0  0  0  0  0  0  0
  188.8320  175.3140  143.2690 S   0  0  0  0  0  0  0  0  0  0  0  0
  189.0550  177.5150  141.4620 C   0  0  2  0  0  3  0  0  0  0  0  0
  193.9220  174.5820  136.5240 C   0  0  0  0  0  2  0  0  0  0  0  0
  190.4480  175.7860  142.5390 C   0  0  0  0  0  2  0  0  0  0  0  0
  187.7050  176.2190  136.3270 C   0  0  0  0  0  3  0  0  0  0  0  0
  188.7040  176.6110  137.2320 C   0  0  0  0  0  0  0  0  0  0  0  0
  190.3740  175.3290  135.9910 N   0  0  0  0  0  2  0  0  0  0  0  0
  190.6750  176.2250  140.2360 C   0  0  0  0  0  2  0  0  0  0  0  0
  193.3930  177.0240  138.1810 O   0  0  0  0  0  1  0  0  0  0  0  0
  191.2350  172.5720  134.9590 C   0  0  0  0  0  1  0  0  0  0  0  0
  191.0830  176.7810  137.8060 N   0  0  1  0  0  0  0  0  0  0  0  0
  191.5820  174.5380  136.1760 C   0  0  2  0  0  3  0  0  0  0  0  0
  189.5260  179.0800  143.2370 O   0  0  0  0  0  0  0  0  0  0  0  0
  189.8510  178.7480  144.5550 C   0  0  0  0  0  2  0  0  0  0  0  0
  191.3070  178.4610  144.6510 C   0  0  0  0  0  0  0  0  0  0  0  0
  192.1290  179.1560  143.9990 O   0  0  0  0  0  0  0  0  0  0  0  0
  191.7730  177.4310  145.5120 N   0  0  0  0  0  1  0  0  0  0  0  0
  2 23  1  1  0  0  0
  3 11  1  0  0  0  0
  4 20  1  0  0  0  0
  4  3  2  0  0  0  0
  5 24  1  6  0  0  0
  6 18  1  1  0  0  0
  6  5  1  0  0  0  0
  7 23  1  6  0  0  0
  7 19  1  0  0  0  0
  9 15  1  0  0  0  0
  9 27  1  0  0  0  0
 10 28  1  1  0  0  0
 10  1  1  0  0  0  0
 11 13  2  0  0  0  0
 12  2  1  0  0  0  0
 12  8  1  0  0  0  0
 13 12  1  0  0  0  0
 14 22  1  6  0  0  0
 14 26  1  0  0  0  0
 15 18  1  0  0  0  0
 16  1  1  0  0  0  0
 17  8  1  6  0  0  0
 17  7  1  0  0  0  0
 17 10  1  0  0  0  0
 19 16  1  0  0  0  0
 20 21  2  0  0  0  0
 21 14  1  0  0  0  0
 21 13  1  0  0  0  0
 22 27  1  0  0  0  0
 25  9  1  0  0  0  0
 26  5  1  0  0  0  0
 26  2  1  0  0  0  0
 27  6  1  0  0  0  0
 28 29  1  0  0  0  0
 29 30  1  0  0  0  0
 30 32  1  0  0  0  0
 31 30  2  0  0  0  0
M  END
>  <MODEL>
7

>  <REMARK>
 VINA RESULT:      -5.0      5.266      9.463
  Name = 
  3 active torsions:
  status: ('A' for Active; 'I' for Inactive)
    1  A    between atoms: C_10  and  O_20
    2  A    between atoms: O_20  and  C_29
    3  A    between atoms: C_29  and  C_30
                            x       y       z     vdW  Elec       q    Type
                         _______ _______ _______ _____ _____    ______ ____

>  <TORSDO>
F 3

$$$$
=
 OpenBabel11122410443D

 32 37  0  0  1  0  0  0  0  0999 V2000
  188.4790  177.1510  142.7100 C   0  0  0  0  0  2  0  0  0  0  0  0
  190.9870  176.4630  138.1480 C   0  0  1  0  0  3  0  0  0  0  0  0
  187.1480  173.7930  136.5350 C   0  0  0  0  0  3  0  0  0  0  0  0
  188.0210  172.7620  136.1850 C   0  0  0  0  0  3  0  0  0  0  0  0
  193.2080  175.8700  137.4120 C   0  0  1  0  0  3  0  0  0  0  0  0
  194.0120  174.9830  136.4760 C   0  0  1  0  0  3  0  0  0  0  0  0
  190.5100  176.9610  140.5020 N   0  0  1  0  0  0  0  0  0  0  0  0
  188.7010  177.1050  138.8150 C   0  0  0  0  0  2  0  0  0  0  0  0
  194.4260  172.7170  135.8800 N   0  0  0  0  0  0  0  0  0  0  0  0
  188.2030  177.5430  141.2530 C   0  0  2  0  0  3  0  0  0  0  0  0
  187.6480  174.9700  137.1000 C   0  0  0  0  0  3  0  0  0  0  0  0
  189.5470  176.3190  137.9240 N   0  0  0  0  0  0  0  0  0  0  0  0
  189.0260  175.1260  137.3120 C   0  0  0  0  0  0  0  0  0  0  0  0
  191.3800  174.2520  137.2190 C   0  0  1  0  0  3  0  0  0  0  0  0
  196.0710  173.3730  136.0620 S   0  0  0  0  0  0  0  0  0  0  0  0
  189.6570  175.7650  142.8750 S   0  0  0  0  0  0  0  0  0  0  0  0
  189.0660  176.7530  140.2610 C   0  0  2  0  0  3  0  0  0  0  0  0
  195.4840  174.9470  136.7670 C   0  0  0  0  0  2  0  0  0  0  0  0
  190.9280  176.6330  141.8760 C   0  0  0  0  0  2  0  0  0  0  0  0
  189.3950  172.9080  136.3910 C   0  0  0  0  0  3  0  0  0  0  0  0
  189.9080  174.0970  136.9340 C   0  0  0  0  0  0  0  0  0  0  0  0
  192.1700  173.4650  136.2620 N   0  0  0  0  0  2  0  0  0  0  0  0
  191.2870  176.0950  139.6100 C   0  0  0  0  0  2  0  0  0  0  0  0
  193.5580  177.2060  137.1900 O   0  0  0  0  0  1  0  0  0  0  0  0
  194.4310  171.4070  136.5060 C   0  0  0  0  0  1  0  0  0  0  0  0
  191.7650  175.6840  137.1640 N   0  0  1  0  0  0  0  0  0  0  0  0
  193.5610  173.5700  136.6770 C   0  0  2  0  0  3  0  0  0  0  0  0
  188.4060  178.9180  141.0980 O   0  0  0  0  0  0  0  0  0  0  0  0
  187.3070  179.5170  141.7190 C   0  0  0  0  0  2  0  0  0  0  0  0
  186.0510  179.0030  141.1100 C   0  0  0  0  0  0  0  0  0  0  0  0
  185.9120  179.0030  139.8590 O   0  0  0  0  0  0  0  0  0  0  0  0
  185.0250  178.4730  141.9390 N   0  0  0  0  0  1  0  0  0  0  0  0
  1 16  1  0  0  0  0
  2 23  1  1  0  0  0
  3 11  1  0  0  0  0
  4 20  1  0  0  0  0
  4  3  2  0  0  0  0
  5 24  1  6  0  0  0
  6 27  1  0  0  0  0
  6 18  1  1  0  0  0
  6  5  1  0  0  0  0
  7 23  1  6  0  0  0
  7 19  1  0  0  0  0
  9 15  1  0  0  0  0
  9 25  1  0  0  0  0
  9 27  1  0  0  0  0
 10 28  1  1  0  0  0
 10  1  1  0  0  0  0
 11 13  2  0  0  0  0
 12  2  1  0  0  0  0
 12  8  1  0  0  0  0
 13 12  1  0  0  0  0
 14 22  1  6  0  0  0
 15 18  1  0  0  0  0
 17  8  1  6  0  0  0
 17  7  1  0  0  0  0
 17 10  1  0  0  0  0
 19 16  1  0  0  0  0
 20 21  2  0  0  0  0
 21 14  1  0  0  0  0
 21 13  1  0  0  0  0
 22 27  1  0  0  0  0
 26 14  1  0  0  0  0
 26  5  1  0  0  0  0
 26  2  1  0  0  0  0
 28 29  1  0  0  0  0
 30 29  1  0  0  0  0
 30 32  1  0  0  0  0
 31 30  2  0  0  0  0
M  END
>  <MODEL>
8

>  <REMARK>
 VINA RESULT:      -4.7      4.341     10.074
  Name = 
  3 active torsions:
  status: ('A' for Active; 'I' for Inactive)
    1  A    between atoms: C_10  and  O_20
    2  A    between atoms: O_20  and  C_29
    3  A    between atoms: C_29  and  C_30
                            x       y       z     vdW  Elec       q    Type
                         _______ _______ _______ _____ _____    ______ ____

>  <TORSDO>
F 3

$$$$
=
 OpenBabel11122410443D

 32 37  0  0  1  0  0  0  0  0999 V2000
  189.1880  177.3850  139.3380 C   0  0  0  0  0  2  0  0  0  0  0  0
  193.0000  175.8320  136.0780 C   0  0  1  0  0  3  0  0  0  0  0  0
  190.1110  172.0960  134.6110 C   0  0  0  0  0  3  0  0  0  0  0  0
  191.1480  171.2000  134.8730 C   0  0  0  0  0  3  0  0  0  0  0  0
  195.3890  175.4900  136.1710 C   0  0  1  0  0  3  0  0  0  0  0  0
  196.5210  174.5330  135.8350 C   0  0  1  0  0  3  0  0  0  0  0  0
  191.7940  176.9270  137.9120 N   0  0  1  0  0  0  0  0  0  0  0  0
  190.5670  176.1860  135.8910 C   0  0  0  0  0  2  0  0  0  0  0  0
  197.3210  172.3230  136.1940 N   0  0  0  0  0  0  0  0  0  0  0  0
  189.3220  177.2470  137.8160 C   0  0  2  0  0  3  0  0  0  0  0  0
  190.2970  173.4640  134.8310 C   0  0  0  0  0  3  0  0  0  0  0  0
  191.7160  175.3470  135.5710 N   0  0  0  0  0  0  0  0  0  0  0  0
  191.5260  173.9450  135.3090 C   0  0  0  0  0  0  0  0  0  0  0  0
  193.8760  173.5650  136.1130 C   0  0  1  0  0  3  0  0  0  0  0  0
  198.7620  173.3120  136.5350 S   0  0  0  0  0  0  0  0  0  0  0  0
  190.3970  176.3780  140.2650 S   0  0  0  0  0  0  0  0  0  0  0  0
  190.5170  176.3760  137.4110 C   0  0  2  0  0  3  0  0  0  0  0  0
  197.8340  174.8790  136.4740 C   0  0  0  0  0  2  0  0  0  0  0  0
  191.8140  177.1270  139.3710 C   0  0  0  0  0  2  0  0  0  0  0  0
  192.3750  171.6690  135.3460 C   0  0  0  0  0  3  0  0  0  0  0  0
  192.5790  173.0440  135.5460 C   0  0  0  0  0  0  0  0  0  0  0  0
  194.9910  172.6930  135.7200 N   0  0  0  0  0  2  0  0  0  0  0  0
  192.8850  175.9990  137.6030 C   0  0  0  0  0  2  0  0  0  0  0  0
  195.6510  176.7340  135.5880 O   0  0  0  0  0  1  0  0  0  0  0  0
  197.2720  171.2960  137.2220 C   0  0  0  0  0  1  0  0  0  0  0  0
  194.1120  174.9570  135.6550 N   0  0  1  0  0  0  0  0  0  0  0  0
  196.1760  173.1920  136.4020 C   0  0  2  0  0  3  0  0  0  0  0  0
  189.4220  178.5190  137.2440 O   0  0  0  0  0  0  0  0  0  0  0  0
  188.1110  179.0040  137.2130 C   0  0  0  0  0  2  0  0  0  0  0  0
  187.3170  178.2280  136.2240 C   0  0  0  0  0  0  0  0  0  0  0  0
  187.7150  178.1300  135.0340 O   0  0  0  0  0  0  0  0  0  0  0  0
  186.1290  177.5620  136.6320 N   0  0  0  0  0  1  0  0  0  0  0  0
  1 16  1  0  0  0  0
  2 23  1  1  0  0  0
  3 11  2  0  0  0  0
  3  4  1  0  0  0  0
  4 20  2  0  0  0  0
  5 24  1  6  0  0  0
  6  5  1  0  0  0  0
  6 27  1  0  0  0  0
  6 18  1  1  0  0  0
  7 23  1  1  0  0  0
  7 19  1  0  0  0  0
  9 27  1  0  0  0  0
  9 15  1  0  0  0  0
  9 25  1  0  0  0  0
 10 28  1  6  0  0  0
 10  1  1  0  0  0  0
 11 13  1  0  0  0  0
 12  8  1  0  0  0  0
 12  2  1  0  0  0  0
 13 21  2  0  0  0  0
 13 12  1  0  0  0  0
 14 21  1  6  0  0  0
 17  8  1  6  0  0  0
 17 10  1  0  0  0  0
 17  7  1  0  0  0  0
 18 15  1  0  0  0  0
 19 16  1  0  0  0  0
 20 21  1  0  0  0  0
 22 14  1  0  0  0  0
 22 27  1  0  0  0  0
 26  2  1  0  0  0  0
 26 14  1  0  0  0  0
 26  5  1  0  0  0  0
 29 28  1  0  0  0  0
 30 32  1  0  0  0  0
 30 29  1  0  0  0  0
 31 30  2  0  0  0  0
M  END
>  <MODEL>
9

>  <REMARK>
 VINA RESULT:      -4.7      5.556     11.574
  Name = 
  3 active torsions:
  status: ('A' for Active; 'I' for Inactive)
    1  A    between atoms: C_10  and  O_20
    2  A    between atoms: O_20  and  C_29
    3  A    between atoms: C_29  and  C_30
                            x       y       z     vdW  Elec       q    Type
                         _______ _______ _______ _____ _____    ______ ____

>  <TORSDO>
F 3

$$$$
