=
 OpenBabel11122411283D

 37 43  0  0  1  0  0  0  0  0999 V2000
  180.4710  180.7010  138.5150 O   0  0  0  0  0  0  0  0  0  0  0  0
  180.5980  178.8100  143.3420 C   0  0  0  0  0  0  0  0  0  0  0  0
  183.5560  179.3180  140.2140 C   0  0  1  0  0  3  0  0  0  0  0  0
  179.5490  181.1690  137.5590 C   0  0  2  0  0  3  0  0  0  0  0  0
  182.1480  176.8370  137.4640 C   0  0  0  0  0  2  0  0  0  0  0  0
  183.0170  178.5660  142.5990 C   0  0  1  0  0  3  0  0  0  0  0  0
  182.6640  178.8250  139.0750 C   0  0  1  0  0  3  0  0  0  0  0  0
  180.4890  179.7220  135.6690 C   0  0  2  0  0  3  0  0  0  0  0  0
  182.6340  179.4810  141.4230 C   0  0  2  0  0  3  0  0  0  0  0  0
  183.1800  177.5450  138.3620 C   0  0  2  0  0  3  0  0  0  0  0  0
  184.4690  178.7880  143.0180 C   0  0  0  0  0  2  0  0  0  0  0  0
  180.1950  181.1440  136.1700 C   0  0  0  0  0  2  0  0  0  0  0  0
  181.2310  179.3250  140.9820 N   0  0  2  0  0  0  0  0  0  0  0  0
  179.9970  180.1760  143.6170 C   0  0  0  0  0  1  0  0  0  0  0  0
  185.8280  178.4390  139.3820 C   0  0  0  0  0  2  0  0  0  0  0  0
  185.4440  178.8050  141.8300 C   0  0  0  0  0  2  0  0  0  0  0  0
  180.4270  178.4580  141.8580 C   0  0  0  0  0  2  0  0  0  0  0  0
  181.0580  178.9210  136.7560 N   0  0  2  0  0  0  0  0  0  0  0  0
  181.6590  177.6800  136.2780 C   0  0  0  0  0  2  0  0  0  0  0  0
  184.7840  178.4240  140.5050 C   0  0  1  0  0  3  0  0  0  0  0  0
  181.2570  178.6940  139.6660 C   0  0  1  0  0  3  0  0  0  0  0  0
  182.0730  178.8140  143.7690 C   0  0  0  0  0  2  0  0  0  0  0  0
  184.4890  177.8090  137.5870 C   0  0  1  0  0  3  0  0  0  0  0  0
  179.8570  177.7830  144.1710 C   0  0  0  0  0  1  0  0  0  0  0  0
  180.0270  178.5790  137.5760 O   0  0  0  0  0  0  0  0  0  0  0  0
  181.3810  179.8100  134.5970 O   0  0  0  0  0  1  0  0  0  0  0  0
  180.1910  179.3330  138.7600 C   0  0  2  0  0  3  0  0  0  0  0  0
  185.3010  178.8340  138.1330 O   0  0  0  0  0  0  0  0  0  0  0  0
  186.4440  176.7030  136.4790 C   0  0  0  0  0  3  0  0  0  0  0  0
  185.2540  176.5720  137.2030 C   0  0  0  0  0  0  0  0  0  0  0  0
  184.8110  175.2950  137.5830 C   0  0  0  0  0  3  0  0  0  0  0  0
  185.0720  172.8130  137.6290 C   0  0  0  0  0  1  0  0  0  0  0  0
  186.7330  174.2980  136.4990 C   0  0  0  0  0  3  0  0  0  0  0  0
  185.5480  174.1620  137.2280 C   0  0  0  0  0  0  0  0  0  0  0  0
  187.1820  175.5690  136.1260 C   0  0  0  0  0  3  0  0  0  0  0  0
  180.2010  183.5100  137.5140 N   0  0  0  0  0  1  0  0  0  0  0  0
  179.1430  182.5910  137.8950 C   0  0  0  0  0  2  0  0  0  0  0  0
  1 27  1  0  0  0  0
  2 14  1  0  0  0  0
  2 22  1  0  0  0  0
  2 24  1  0  0  0  0
  3 20  1  0  0  0  0
  3  9  1  0  0  0  0
  4 37  1  0  0  0  0
  4  1  1  0  0  0  0
  5 10  1  0  0  0  0
  6 11  1  0  0  0  0
  6 22  1  0  0  0  0
  7 21  1  0  0  0  0
  7  3  1  0  0  0  0
  8 12  1  0  0  0  0
  8 18  1  0  0  0  0
  9  6  1  0  0  0  0
 10  7  1  0  0  0  0
 12  4  1  0  0  0  0
 13  9  1  0  0  0  0
 13 17  1  0  0  0  0
 15 20  1  0  0  0  0
 16 11  1  0  0  0  0
 17  2  1  0  0  0  0
 18 25  1  0  0  0  0
 19 18  1  0  0  0  0
 19  5  1  0  0  0  0
 20 16  1  0  0  0  0
 21 13  1  0  0  0  0
 23 28  1  0  0  0  0
 23 10  1  0  0  0  0
 25 27  1  0  0  0  0
 26  8  1  0  0  0  0
 27 21  1  0  0  0  0
 28 15  1  0  0  0  0
 29 30  1  0  0  0  0
 30 31  2  0  0  0  0
 30 23  1  0  0  0  0
 33 34  2  0  0  0  0
 34 31  1  0  0  0  0
 34 32  1  0  0  0  0
 35 29  2  0  0  0  0
 35 33  1  0  0  0  0
 36 37  1  0  0  0  0
M  END
>  <MODEL>
1

>  <REMARK>
 VINA RESULT:      -6.5      0.000      0.000
  Name = 
  2 active torsions:
  status: ('A' for Active; 'I' for Inactive)
    1  A    between atoms: C_4  and  C_37
    2  A    between atoms: C_23  and  C_30
                            x       y       z     vdW  Elec       q    Type
                         _______ _______ _______ _____ _____    ______ ____

>  <TORSDO>
F 2

$$$$
=
 OpenBabel11122411283D

 37 43  0  0  1  0  0  0  0  0999 V2000
  181.4040  179.4080  140.0810 O   0  0  0  0  0  0  0  0  0  0  0  0
  185.3010  178.7160  143.4310 C   0  0  0  0  0  0  0  0  0  0  0  0
  184.9380  178.4600  139.1190 C   0  0  1  0  0  3  0  0  0  0  0  0
  180.0150  179.6390  140.0680 C   0  0  2  0  0  3  0  0  0  0  0  0
  182.4430  175.4010  138.7740 C   0  0  0  0  0  2  0  0  0  0  0  0
  186.4290  178.2960  141.1920 C   0  0  1  0  0  3  0  0  0  0  0  0
  183.6040  177.7130  139.1200 C   0  0  1  0  0  3  0  0  0  0  0  0
  179.5330  177.7820  138.3740 C   0  0  2  0  0  3  0  0  0  0  0  0
  185.1640  178.9070  140.5640 C   0  0  2  0  0  3  0  0  0  0  0  0
  183.6590  176.2990  138.4780 C   0  0  2  0  0  3  0  0  0  0  0  0
  187.6650  178.6070  140.3500 C   0  0  0  0  0  2  0  0  0  0  0  0
  179.4500  179.2830  138.6890 C   0  0  0  0  0  2  0  0  0  0  0  0
  183.9330  178.6550  141.3430 N   0  0  2  0  0  0  0  0  0  0  0  0
  184.8590  180.1100  143.8360 C   0  0  0  0  0  1  0  0  0  0  0  0
  186.0140  177.4030  137.0320 C   0  0  0  0  0  2  0  0  0  0  0  0
  187.4590  178.3390  138.8510 C   0  0  0  0  0  2  0  0  0  0  0  0
  184.1770  178.0230  142.6490 C   0  0  0  0  0  2  0  0  0  0  0  0
  180.8380  177.2600  138.7880 N   0  0  2  0  0  0  0  0  0  0  0  0
  181.1130  175.9390  138.2300 C   0  0  0  0  0  2  0  0  0  0  0  0
  186.1270  177.6570  138.5400 C   0  0  1  0  0  3  0  0  0  0  0  0
  183.1110  177.7290  140.5690 C   0  0  1  0  0  3  0  0  0  0  0  0
  186.5970  178.8180  142.6140 C   0  0  0  0  0  2  0  0  0  0  0  0
  183.9310  176.3680  136.9610 C   0  0  1  0  0  3  0  0  0  0  0  0
  185.5820  177.9170  144.6850 C   0  0  0  0  0  1  0  0  0  0  0  0
  180.7980  177.1250  140.1410 O   0  0  0  0  0  0  0  0  0  0  0  0
  179.3420  177.6100  137.0000 O   0  0  0  0  0  1  0  0  0  0  0  0
  181.6320  178.1390  140.6690 C   0  0  2  0  0  3  0  0  0  0  0  0
  184.6900  177.4910  136.5480 O   0  0  0  0  0  0  0  0  0  0  0  0
  183.7330  174.6010  135.1960 C   0  0  0  0  0  3  0  0  0  0  0  0
  184.3830  175.0730  136.3420 C   0  0  0  0  0  0  0  0  0  0  0  0
  185.4580  174.3470  136.8770 C   0  0  0  0  0  3  0  0  0  0  0  0
  187.0060  172.3890  136.8480 C   0  0  0  0  0  1  0  0  0  0  0  0
  185.2140  172.6850  135.1340 C   0  0  0  0  0  3  0  0  0  0  0  0
  185.8700  173.1550  136.2750 C   0  0  0  0  0  0  0  0  0  0  0  0
  184.1460  173.4090  134.5940 C   0  0  0  0  0  3  0  0  0  0  0  0
  179.3160  181.2580  141.7410 N   0  0  0  0  0  1  0  0  0  0  0  0
  179.7370  181.1010  140.3600 C   0  0  0  0  0  2  0  0  0  0  0  0
  1 27  1  0  0  0  0
  2 14  1  0  0  0  0
  2 24  1  0  0  0  0
  3  7  1  0  0  0  0
  3  9  1  0  0  0  0
  4  1  1  0  0  0  0
  4 37  1  0  0  0  0
  6 22  1  0  0  0  0
  7 21  1  0  0  0  0
  8 12  1  0  0  0  0
  8 18  1  0  0  0  0
  9  6  1  0  0  0  0
  9 13  1  0  0  0  0
 10  5  1  0  0  0  0
 10  7  1  0  0  0  0
 11  6  1  0  0  0  0
 12  4  1  0  0  0  0
 13 17  1  0  0  0  0
 15 20  1  0  0  0  0
 16 11  1  0  0  0  0
 17  2  1  0  0  0  0
 18 25  1  0  0  0  0
 19  5  1  0  0  0  0
 19 18  1  0  0  0  0
 20 16  1  0  0  0  0
 20  3  1  0  0  0  0
 21 27  1  0  0  0  0
 21 13  1  0  0  0  0
 22  2  1  0  0  0  0
 23 10  1  0  0  0  0
 25 27  1  0  0  0  0
 26  8  1  0  0  0  0
 28 23  1  0  0  0  0
 28 15  1  0  0  0  0
 29 30  1  0  0  0  0
 30 31  2  0  0  0  0
 30 23  1  0  0  0  0
 33 34  2  0  0  0  0
 34 32  1  0  0  0  0
 34 31  1  0  0  0  0
 35 33  1  0  0  0  0
 35 29  2  0  0  0  0
 37 36  1  0  0  0  0
M  END
>  <MODEL>
2

>  <REMARK>
 VINA RESULT:      -6.5      2.245      3.182
  Name = 
  2 active torsions:
  status: ('A' for Active; 'I' for Inactive)
    1  A    between atoms: C_4  and  C_37
    2  A    between atoms: C_23  and  C_30
                            x       y       z     vdW  Elec       q    Type
                         _______ _______ _______ _____ _____    ______ ____

>  <TORSDO>
F 2

$$$$
=
 OpenBabel11122411283D

 37 43  0  0  1  0  0  0  0  0999 V2000
  184.4240  178.3540  141.6820 O   0  0  0  0  0  0  0  0  0  0  0  0
  181.3580  180.6570  138.1900 C   0  0  0  0  0  0  0  0  0  0  0  0
  183.8380  177.1010  138.1600 C   0  0  1  0  0  3  0  0  0  0  0  0
  184.9480  178.5680  142.9710 C   0  0  2  0  0  3  0  0  0  0  0  0
  187.4340  178.7110  138.5740 C   0  0  0  0  0  2  0  0  0  0  0  0
  182.2040  178.6270  136.9150 C   0  0  1  0  0  3  0  0  0  0  0  0
  185.0300  177.7380  138.8720 C   0  0  1  0  0  3  0  0  0  0  0  0
  187.3510  178.0120  142.2890 C   0  0  2  0  0  3  0  0  0  0  0  0
  182.6950  178.1110  138.2790 C   0  0  2  0  0  3  0  0  0  0  0  0
  186.3350  177.7800  138.0290 C   0  0  2  0  0  3  0  0  0  0  0  0
  181.7840  177.4700  136.0090 C   0  0  0  0  0  2  0  0  0  0  0  0
  186.1590  177.6550  143.1880 C   0  0  0  0  0  2  0  0  0  0  0  0
  183.1000  179.1870  139.2090 N   0  0  2  0  0  0  0  0  0  0  0  0
  180.3750  180.5080  139.3360 C   0  0  0  0  0  1  0  0  0  0  0  0
  185.0910  175.4920  136.5890 C   0  0  0  0  0  2  0  0  0  0  0  0
  182.8140  176.3310  135.9690 C   0  0  0  0  0  2  0  0  0  0  0  0
  182.7940  180.5400  138.7200 C   0  0  0  0  0  2  0  0  0  0  0  0
  186.8810  178.2930  140.9300 N   0  0  2  0  0  0  0  0  0  0  0  0
  187.9690  178.3160  139.9570 C   0  0  0  0  0  2  0  0  0  0  0  0
  184.1130  176.6670  136.7010 C   0  0  1  0  0  3  0  0  0  0  0  0
  184.5500  179.1080  139.3600 C   0  0  1  0  0  3  0  0  0  0  0  0
  181.0480  179.5990  137.1220 C   0  0  0  0  0  2  0  0  0  0  0  0
  186.8960  176.3660  137.7700 C   0  0  1  0  0  3  0  0  0  0  0  0
  181.1790  182.0290  137.5780 C   0  0  0  0  0  1  0  0  0  0  0  0
  186.3330  179.5380  140.9520 O   0  0  0  0  0  0  0  0  0  0  0  0
  188.2430  176.9360  142.2930 O   0  0  0  0  0  1  0  0  0  0  0  0
  184.9360  179.3630  140.8270 C   0  0  2  0  0  3  0  0  0  0  0  0
  185.9170  175.3420  137.7250 O   0  0  0  0  0  0  0  0  0  0  0  0
  187.9210  177.2770  135.6750 C   0  0  0  0  0  3  0  0  0  0  0  0
  187.9080  176.2840  136.6600 C   0  0  0  0  0  0  0  0  0  0  0  0
  188.8530  175.2470  136.6120 C   0  0  0  0  0  3  0  0  0  0  0  0
  190.7880  174.0990  135.5300 C   0  0  0  0  0  1  0  0  0  0  0  0
  189.7980  176.1920  134.5940 C   0  0  0  0  0  3  0  0  0  0  0  0
  189.7930  175.2000  135.5790 C   0  0  0  0  0  0  0  0  0  0  0  0
  188.8630  177.2310  134.6420 C   0  0  0  0  0  3  0  0  0  0  0  0
  184.0820  179.0930  145.1810 N   0  0  0  0  0  1  0  0  0  0  0  0
  183.8910  178.2530  144.0110 C   0  0  0  0  0  2  0  0  0  0  0  0
  1  4  1  0  0  0  0
  2 17  1  0  0  0  0
  2 14  1  0  0  0  0
  3  9  1  0  0  0  0
  3  7  1  0  0  0  0
  4 12  1  0  0  0  0
  4 37  1  0  0  0  0
  5 19  1  0  0  0  0
  6 22  1  0  0  0  0
  6  9  1  0  0  0  0
  7 21  1  0  0  0  0
  8 26  1  0  0  0  0
  8 12  1  0  0  0  0
  9 13  1  0  0  0  0
 10  5  1  0  0  0  0
 10  7  1  0  0  0  0
 11  6  1  0  0  0  0
 13 21  1  0  0  0  0
 15 20  1  0  0  0  0
 15 28  1  0  0  0  0
 16 11  1  0  0  0  0
 16 20  1  0  0  0  0
 17 13  1  0  0  0  0
 18 25  1  0  0  0  0
 18  8  1  0  0  0  0
 19 18  1  0  0  0  0
 20  3  1  0  0  0  0
 21 27  1  0  0  0  0
 22  2  1  0  0  0  0
 23 10  1  0  0  0  0
 24  2  1  0  0  0  0
 27 25  1  0  0  0  0
 27  1  1  0  0  0  0
 28 23  1  0  0  0  0
 29 30  1  0  0  0  0
 30 23  1  0  0  0  0
 31 30  2  0  0  0  0
 32 34  1  0  0  0  0
 33 35  1  0  0  0  0
 33 34  2  0  0  0  0
 34 31  1  0  0  0  0
 35 29  2  0  0  0  0
 37 36  1  0  0  0  0
M  END
>  <MODEL>
3

>  <REMARK>
 VINA RESULT:      -6.5      2.829      5.999
  Name = 
  2 active torsions:
  status: ('A' for Active; 'I' for Inactive)
    1  A    between atoms: C_4  and  C_37
    2  A    between atoms: C_23  and  C_30
                            x       y       z     vdW  Elec       q    Type
                         _______ _______ _______ _____ _____    ______ ____

>  <TORSDO>
F 2

$$$$
=
 OpenBabel11122411283D

 37 43  0  0  1  0  0  0  0  0999 V2000
  183.0130  174.3710  136.1470 O   0  0  0  0  0  0  0  0  0  0  0  0
  187.5220  176.8880  135.6710 C   0  0  0  0  0  0  0  0  0  0  0  0
  184.1500  177.2090  138.3760 C   0  0  1  0  0  3  0  0  0  0  0  0
  182.2390  173.4010  135.4820 C   0  0  2  0  0  3  0  0  0  0  0  0
  181.3040  178.3510  135.8670 C   0  0  0  0  0  2  0  0  0  0  0  0
  186.4730  178.0310  137.6840 C   0  0  1  0  0  3  0  0  0  0  0  0
  183.0740  177.0750  137.2990 C   0  0  1  0  0  3  0  0  0  0  0  0
  180.0880  174.7840  135.5770 C   0  0  2  0  0  3  0  0  0  0  0  0
  185.4720  176.8620  137.6880 C   0  0  2  0  0  3  0  0  0  0  0  0
  182.1530  178.3170  137.1520 C   0  0  2  0  0  3  0  0  0  0  0  0
  186.7390  178.5310  139.1020 C   0  0  0  0  0  2  0  0  0  0  0  0
  180.7900  173.4770  135.9750 C   0  0  0  0  0  2  0  0  0  0  0  0
  185.1850  176.3210  136.3420 N   0  0  2  0  0  0  0  0  0  0  0  0
  188.0320  175.4610  135.7580 C   0  0  0  0  0  1  0  0  0  0  0  0
  182.9520  178.8370  139.9710 C   0  0  0  0  0  2  0  0  0  0  0  0
  185.4550  178.7450  139.9190 C   0  0  0  0  0  2  0  0  0  0  0  0
  186.0370  176.8840  135.2830 C   0  0  0  0  0  2  0  0  0  0  0  0
  180.9920  175.9170  135.7850 N   0  0  2  0  0  0  0  0  0  0  0  0
  180.2980  177.2000  135.7430 C   0  0  0  0  0  2  0  0  0  0  0  0
  184.1810  178.5810  139.0900 C   0  0  1  0  0  3  0  0  0  0  0  0
  183.8080  176.6780  136.0150 C   0  0  1  0  0  3  0  0  0  0  0  0
  187.7690  177.5920  137.0120 C   0  0  0  0  0  2  0  0  0  0  0  0
  181.2660  178.5240  138.3980 C   0  0  1  0  0  3  0  0  0  0  0  0
  188.3010  177.6120  134.5940 C   0  0  0  0  0  1  0  0  0  0  0  0
  181.8810  175.9070  134.7540 O   0  0  0  0  0  0  0  0  0  0  0  0
  178.9360  174.9180  136.3570 O   0  0  0  0  0  1  0  0  0  0  0  0
  183.1210  175.5020  135.3000 C   0  0  2  0  0  3  0  0  0  0  0  0
  181.8330  178.0550  139.6100 O   0  0  0  0  0  0  0  0  0  0  0  0
  179.5230  180.0640  139.3280 C   0  0  0  0  0  3  0  0  0  0  0  0
  180.6450  179.8900  138.5100 C   0  0  0  0  0  0  0  0  0  0  0  0
  181.1870  180.9930  137.8330 C   0  0  0  0  0  3  0  0  0  0  0  0
  181.1780  183.4180  137.2430 C   0  0  0  0  0  1  0  0  0  0  0  0
  179.4780  182.4220  138.7780 C   0  0  0  0  0  3  0  0  0  0  0  0
  180.6020  182.2550  137.9650 C   0  0  0  0  0  0  0  0  0  0  0  0
  178.9390  181.3270  139.4610 C   0  0  0  0  0  3  0  0  0  0  0  0
  183.3830  171.9910  137.0980 N   0  0  0  0  0  1  0  0  0  0  0  0
  182.7930  172.0190  135.7710 C   0  0  0  0  0  2  0  0  0  0  0  0
  2 14  1  0  0  0  0
  2 22  1  0  0  0  0
  3 20  1  0  0  0  0
  4 37  1  0  0  0  0
  4 12  1  0  0  0  0
  4  1  1  0  0  0  0
  5 10  1  0  0  0  0
  6  9  1  0  0  0  0
  6 11  1  0  0  0  0
  7  3  1  0  0  0  0
  8 18  1  0  0  0  0
  8 12  1  0  0  0  0
  8 26  1  0  0  0  0
  9  3  1  0  0  0  0
 10  7  1  0  0  0  0
 10 23  1  0  0  0  0
 11 16  1  0  0  0  0
 13  9  1  0  0  0  0
 17  2  1  0  0  0  0
 17 13  1  0  0  0  0
 19 18  1  0  0  0  0
 19  5  1  0  0  0  0
 20 16  1  0  0  0  0
 20 15  1  0  0  0  0
 21 13  1  0  0  0  0
 21  7  1  0  0  0  0
 22  6  1  0  0  0  0
 23 30  1  0  0  0  0
 23 28  1  0  0  0  0
 24  2  1  0  0  0  0
 25 27  1  0  0  0  0
 25 18  1  0  0  0  0
 27 21  1  0  0  0  0
 27  1  1  0  0  0  0
 28 15  1  0  0  0  0
 29 35  1  0  0  0  0
 30 29  2  0  0  0  0
 31 34  2  0  0  0  0
 31 30  1  0  0  0  0
 32 34  1  0  0  0  0
 33 35  2  0  0  0  0
 34 33  1  0  0  0  0
 37 36  1  0  0  0  0
M  END
>  <MODEL>
4

>  <REMARK>
 VINA RESULT:      -5.4      2.921      7.315
  Name = 
  2 active torsions:
  status: ('A' for Active; 'I' for Inactive)
    1  A    between atoms: C_4  and  C_37
    2  A    between atoms: C_23  and  C_30
                            x       y       z     vdW  Elec       q    Type
                         _______ _______ _______ _____ _____    ______ ____

>  <TORSDO>
F 2

$$$$
=
 OpenBabel11122411283D

 37 43  0  0  1  0  0  0  0  0999 V2000
  188.8680  176.7500  140.2730 O   0  0  0  0  0  0  0  0  0  0  0  0
  186.7080  177.3270  135.5940 C   0  0  0  0  0  0  0  0  0  0  0  0
  189.7270  174.6780  137.2260 C   0  0  1  0  0  3  0  0  0  0  0  0
  188.8900  177.3650  141.5390 C   0  0  2  0  0  3  0  0  0  0  0  0
  192.5880  177.2770  138.0980 C   0  0  0  0  0  2  0  0  0  0  0  0
  188.3150  175.3940  135.2150 C   0  0  1  0  0  3  0  0  0  0  0  0
  190.4680  175.7560  138.0160 C   0  0  1  0  0  3  0  0  0  0  0  0
  191.4440  177.3710  141.7000 C   0  0  2  0  0  3  0  0  0  0  0  0
  188.4290  175.3320  136.7490 C   0  0  2  0  0  3  0  0  0  0  0  0
  191.9390  175.9840  137.5700 C   0  0  2  0  0  3  0  0  0  0  0  0
  188.4560  174.0040  134.5970 C   0  0  0  0  0  2  0  0  0  0  0  0
  190.1220  176.8910  142.3170 C   0  0  0  0  0  2  0  0  0  0  0  0
  188.2830  176.6470  137.4090 N   0  0  2  0  0  0  0  0  0  0  0  0
  185.4570  177.1530  136.4350 C   0  0  0  0  0  1  0  0  0  0  0  0
  191.7220  173.1920  136.5620 C   0  0  0  0  0  2  0  0  0  0  0  0
  189.6510  173.2150  135.1540 C   0  0  0  0  0  2  0  0  0  0  0  0
  187.8850  177.7280  136.4940 C   0  0  0  0  0  2  0  0  0  0  0  0
  191.3950  177.2200  140.2440 N   0  0  2  0  0  0  0  0  0  0  0  0
  192.7120  177.3430  139.6260 C   0  0  0  0  0  2  0  0  0  0  0  0
  190.5450  174.0450  136.0750 C   0  0  1  0  0  3  0  0  0  0  0  0
  189.5890  177.0080  137.9520 C   0  0  1  0  0  3  0  0  0  0  0  0
  186.9840  176.0260  134.8270 C   0  0  0  0  0  2  0  0  0  0  0  0
  192.8280  174.7600  137.8790 C   0  0  1  0  0  3  0  0  0  0  0  0
  186.4640  178.4370  134.5940 C   0  0  0  0  0  1  0  0  0  0  0  0
  190.6300  178.2400  139.7670 O   0  0  0  0  0  0  0  0  0  0  0  0
  192.4830  176.6120  142.2440 O   0  0  0  0  0  1  0  0  0  0  0  0
  189.4150  177.6600  139.3340 C   0  0  2  0  0  3  0  0  0  0  0  0
  192.1460  173.5180  137.8700 O   0  0  0  0  0  0  0  0  0  0  0  0
  194.2210  175.3080  135.8710 C   0  0  0  0  0  3  0  0  0  0  0  0
  194.1410  174.7340  137.1440 C   0  0  0  0  0  0  0  0  0  0  0  0
  195.2880  174.1710  137.7240 C   0  0  0  0  0  3  0  0  0  0  0  0
  197.7100  173.5720  137.6460 C   0  0  0  0  0  1  0  0  0  0  0  0
  196.5730  174.7420  135.7540 C   0  0  0  0  0  3  0  0  0  0  0  0
  196.5000  174.1720  137.0290 C   0  0  0  0  0  0  0  0  0  0  0  0
  195.4340  175.3110  135.1760 C   0  0  0  0  0  3  0  0  0  0  0  0
  187.9980  176.2620  143.5130 N   0  0  0  0  0  1  0  0  0  0  0  0
  187.6380  176.9910  142.3100 C   0  0  0  0  0  2  0  0  0  0  0  0
  1  4  1  0  0  0  0
  2 14  1  0  0  0  0
  2 17  1  0  0  0  0
  3  7  1  0  0  0  0
  4 37  1  0  0  0  0
  4 12  1  0  0  0  0
  5 19  1  0  0  0  0
  6  9  1  0  0  0  0
  8 26  1  0  0  0  0
  8 12  1  0  0  0  0
  9  3  1  0  0  0  0
  9 13  1  0  0  0  0
 10 23  1  0  0  0  0
 10  7  1  0  0  0  0
 10  5  1  0  0  0  0
 11 16  1  0  0  0  0
 11  6  1  0  0  0  0
 13 21  1  0  0  0  0
 15 28  1  0  0  0  0
 16 20  1  0  0  0  0
 17 13  1  0  0  0  0
 18  8  1  0  0  0  0
 19 18  1  0  0  0  0
 20 15  1  0  0  0  0
 20  3  1  0  0  0  0
 21  7  1  0  0  0  0
 21 27  1  0  0  0  0
 22  6  1  0  0  0  0
 22  2  1  0  0  0  0
 24  2  1  0  0  0  0
 25 18  1  0  0  0  0
 27 25  1  0  0  0  0
 27  1  1  0  0  0  0
 28 23  1  0  0  0  0
 29 30  1  0  0  0  0
 30 31  2  0  0  0  0
 30 23  1  0  0  0  0
 33 34  2  0  0  0  0
 34 32  1  0  0  0  0
 34 31  1  0  0  0  0
 35 33  1  0  0  0  0
 35 29  2  0  0  0  0
 37 36  1  0  0  0  0
M  END
>  <MODEL>
5

>  <REMARK>
 VINA RESULT:      -5.3      5.964     10.152
  Name = 
  2 active torsions:
  status: ('A' for Active; 'I' for Inactive)
    1  A    between atoms: C_4  and  C_37
    2  A    between atoms: C_23  and  C_30
                            x       y       z     vdW  Elec       q    Type
                         _______ _______ _______ _____ _____    ______ ____

>  <TORSDO>
F 2

$$$$
=
 OpenBabel11122411283D

 37 43  0  0  1  0  0  0  0  0999 V2000
  182.1940  179.6900  139.0240 O   0  0  0  0  0  0  0  0  0  0  0  0
  185.3880  178.6210  142.9660 C   0  0  0  0  0  0  0  0  0  0  0  0
  185.7670  178.5070  138.6490 C   0  0  1  0  0  3  0  0  0  0  0  0
  180.8470  180.0240  138.7810 C   0  0  2  0  0  3  0  0  0  0  0  0
  183.1670  175.6530  137.7600 C   0  0  0  0  0  2  0  0  0  0  0  0
  186.8580  178.1770  140.9410 C   0  0  1  0  0  3  0  0  0  0  0  0
  184.4060  177.8610  138.3920 C   0  0  1  0  0  3  0  0  0  0  0  0
  180.5430  178.2540  136.9580 C   0  0  2  0  0  3  0  0  0  0  0  0
  185.7680  178.8970  140.1280 C   0  0  2  0  0  3  0  0  0  0  0  0
  184.4740  176.4650  137.7140 C   0  0  2  0  0  3  0  0  0  0  0  0
  188.2410  178.4170  140.3380 C   0  0  0  0  0  2  0  0  0  0  0  0
  180.5090  179.7480  137.3120 C   0  0  0  0  0  2  0  0  0  0  0  0
  184.4050  178.7170  140.6730 N   0  0  2  0  0  0  0  0  0  0  0  0
  184.9790  180.0320  143.3430 C   0  0  0  0  0  1  0  0  0  0  0  0
  187.1160  177.4280  136.7400 C   0  0  0  0  0  2  0  0  0  0  0  0
  188.2820  178.2060  138.8170 C   0  0  0  0  0  2  0  0  0  0  0  0
  184.3730  178.0340  141.9760 C   0  0  0  0  0  2  0  0  0  0  0  0
  181.7160  177.6260  137.5700 N   0  0  2  0  0  0  0  0  0  0  0  0
  181.9920  176.3030  137.0170 C   0  0  0  0  0  2  0  0  0  0  0  0
  186.9810  177.6330  138.2540 C   0  0  1  0  0  3  0  0  0  0  0  0
  183.6700  177.8760  139.7340 C   0  0  1  0  0  3  0  0  0  0  0  0
  186.8110  178.6470  142.3900 C   0  0  0  0  0  2  0  0  0  0  0  0
  185.0120  176.5540  136.2700 C   0  0  1  0  0  3  0  0  0  0  0  0
  185.3890  177.7700  144.2180 C   0  0  0  0  0  1  0  0  0  0  0  0
  181.4310  177.4580  138.8900 O   0  0  0  0  0  0  0  0  0  0  0  0
  180.5840  178.1340  135.5660 O   0  0  0  0  0  1  0  0  0  0  0  0
  182.2270  178.3920  139.5920 C   0  0  2  0  0  3  0  0  0  0  0  0
  185.9070  177.6280  136.0380 O   0  0  0  0  0  0  0  0  0  0  0  0
  186.8110  175.1080  135.2980 C   0  0  0  0  0  3  0  0  0  0  0  0
  185.4750  175.2460  135.6880 C   0  0  0  0  0  0  0  0  0  0  0  0
  184.5990  174.1570  135.5580 C   0  0  0  0  0  3  0  0  0  0  0  0
  184.1240  171.7990  134.8890 C   0  0  0  0  0  1  0  0  0  0  0  0
  186.3910  172.8170  134.6350 C   0  0  0  0  0  3  0  0  0  0  0  0
  185.0560  172.9470  135.0290 C   0  0  0  0  0  0  0  0  0  0  0  0
  187.2690  173.8970  134.7700 C   0  0  0  0  0  3  0  0  0  0  0  0
  180.3020  182.2030  137.8500 N   0  0  0  0  0  1  0  0  0  0  0  0
  180.6240  181.4940  139.0770 C   0  0  0  0  0  2  0  0  0  0  0  0
  1 27  1  0  0  0  0
  2 14  1  0  0  0  0
  2 24  1  0  0  0  0
  3  9  1  0  0  0  0
  4  1  1  0  0  0  0
  4 37  1  0  0  0  0
  6 22  1  0  0  0  0
  7  3  1  0  0  0  0
  7 21  1  0  0  0  0
  8 12  1  0  0  0  0
  8 18  1  0  0  0  0
  9 13  1  0  0  0  0
  9  6  1  0  0  0  0
 10  5  1  0  0  0  0
 10  7  1  0  0  0  0
 11  6  1  0  0  0  0
 12  4  1  0  0  0  0
 13 17  1  0  0  0  0
 15 20  1  0  0  0  0
 16 11  1  0  0  0  0
 17  2  1  0  0  0  0
 18 25  1  0  0  0  0
 19 18  1  0  0  0  0
 19  5  1  0  0  0  0
 20  3  1  0  0  0  0
 20 16  1  0  0  0  0
 21 13  1  0  0  0  0
 22  2  1  0  0  0  0
 23 10  1  0  0  0  0
 25 27  1  0  0  0  0
 26  8  1  0  0  0  0
 27 21  1  0  0  0  0
 28 23  1  0  0  0  0
 28 15  1  0  0  0  0
 29 30  1  0  0  0  0
 30 23  1  0  0  0  0
 31 30  2  0  0  0  0
 32 34  1  0  0  0  0
 33 35  1  0  0  0  0
 33 34  2  0  0  0  0
 34 31  1  0  0  0  0
 35 29  2  0  0  0  0
 36 37  1  0  0  0  0
M  END
>  <MODEL>
6

>  <REMARK>
 VINA RESULT:      -5.1      2.131      3.011
  Name = 
  2 active torsions:
  status: ('A' for Active; 'I' for Inactive)
    1  A    between atoms: C_4  and  C_37
    2  A    between atoms: C_23  and  C_30
                            x       y       z     vdW  Elec       q    Type
                         _______ _______ _______ _____ _____    ______ ____

>  <TORSDO>
F 2

$$$$
=
 OpenBabel11122411283D

 37 43  0  0  1  0  0  0  0  0999 V2000
  186.6240  175.8640  135.6240 O   0  0  0  0  0  0  0  0  0  0  0  0
  183.5990  171.6610  135.8990 C   0  0  0  0  0  0  0  0  0  0  0  0
  182.8570  175.8860  135.2700 C   0  0  1  0  0  3  0  0  0  0  0  0
  187.9670  176.2450  135.8080 C   0  0  2  0  0  3  0  0  0  0  0  0
  184.0200  177.3610  138.7580 C   0  0  0  0  0  2  0  0  0  0  0  0
  181.9150  173.5140  135.4590 C   0  0  1  0  0  3  0  0  0  0  0  0
  183.8220  176.3750  136.3500 C   0  0  1  0  0  3  0  0  0  0  0  0
  187.3900  178.2490  137.2930 C   0  0  2  0  0  3  0  0  0  0  0  0
  183.1330  174.3890  135.1140 C   0  0  2  0  0  3  0  0  0  0  0  0
  183.1470  177.1640  137.5060 C   0  0  2  0  0  3  0  0  0  0  0  0
  180.6990  173.9100  134.6230 C   0  0  0  0  0  2  0  0  0  0  0  0
  188.0460  177.7640  135.9910 C   0  0  0  0  0  2  0  0  0  0  0  0
  184.3490  174.0430  135.8800 N   0  0  2  0  0  0  0  0  0  0  0  0
  184.5670  171.2110  134.8210 C   0  0  0  0  0  1  0  0  0  0  0  0
  181.0400  177.6980  135.4730 C   0  0  0  0  0  2  0  0  0  0  0  0
  180.4540  175.4270  134.5940 C   0  0  0  0  0  2  0  0  0  0  0  0
  184.2110  172.8240  136.6920 C   0  0  0  0  0  2  0  0  0  0  0  0
  186.1170  177.5520  137.4950 N   0  0  2  0  0  0  0  0  0  0  0  0
  185.2920  178.1850  138.5190 C   0  0  0  0  0  2  0  0  0  0  0  0
  181.3680  176.2020  135.5430 C   0  0  1  0  0  3  0  0  0  0  0  0
  184.6090  175.1420  136.8040 C   0  0  1  0  0  3  0  0  0  0  0  0
  182.2630  172.0460  135.2460 C   0  0  0  0  0  2  0  0  0  0  0  0
  182.5750  178.5130  137.0210 C   0  0  1  0  0  3  0  0  0  0  0  0
  183.3590  170.5040  136.8440 C   0  0  0  0  0  1  0  0  0  0  0  0
  186.4180  176.3010  137.9370 O   0  0  0  0  0  0  0  0  0  0  0  0
  187.1920  179.6290  137.1980 O   0  0  0  0  0  1  0  0  0  0  0  0
  186.1210  175.4190  136.8720 C   0  0  2  0  0  3  0  0  0  0  0  0
  182.1670  178.5280  135.6630 O   0  0  0  0  0  0  0  0  0  0  0  0
  181.4340  180.5400  137.9490 C   0  0  0  0  0  3  0  0  0  0  0  0
  181.5820  179.1490  137.9560 C   0  0  0  0  0  0  0  0  0  0  0  0
  180.7870  178.3720  138.8110 C   0  0  0  0  0  3  0  0  0  0  0  0
  179.0240  178.1570  140.5660 C   0  0  0  0  0  1  0  0  0  0  0  0
  179.7200  180.3750  139.6530 C   0  0  0  0  0  3  0  0  0  0  0  0
  179.8610  178.9840  139.6600 C   0  0  0  0  0  0  0  0  0  0  0  0
  180.5060  181.1530  138.7970 C   0  0  0  0  0  3  0  0  0  0  0  0
  190.1750  176.2060  134.7920 N   0  0  0  0  0  1  0  0  0  0  0  0
  188.7820  175.8450  134.5940 C   0  0  0  0  0  2  0  0  0  0  0  0
  1  4  1  0  0  0  0
  1 27  1  0  0  0  0
  2 17  1  0  0  0  0
  2 24  1  0  0  0  0
  3 20  1  0  0  0  0
  3  7  1  0  0  0  0
  4 12  1  0  0  0  0
  7 21  1  0  0  0  0
  7 10  1  0  0  0  0
  8 18  1  0  0  0  0
  9  3  1  0  0  0  0
  9  6  1  0  0  0  0
  9 13  1  0  0  0  0
 10  5  1  0  0  0  0
 11  6  1  0  0  0  0
 12  8  1  0  0  0  0
 13 17  1  0  0  0  0
 13 21  1  0  0  0  0
 14  2  1  0  0  0  0
 15 20  1  0  0  0  0
 15 28  1  0  0  0  0
 16 11  1  0  0  0  0
 16 20  1  0  0  0  0
 18 25  1  0  0  0  0
 18 19  1  0  0  0  0
 19  5  1  0  0  0  0
 21 27  1  0  0  0  0
 22  6  1  0  0  0  0
 22  2  1  0  0  0  0
 23 10  1  0  0  0  0
 23 30  1  0  0  0  0
 26  8  1  0  0  0  0
 27 25  1  0  0  0  0
 28 23  1  0  0  0  0
 29 30  2  0  0  0  0
 29 35  1  0  0  0  0
 30 31  1  0  0  0  0
 31 34  2  0  0  0  0
 33 34  1  0  0  0  0
 34 32  1  0  0  0  0
 35 33  2  0  0  0  0
 37 36  1  0  0  0  0
 37  4  1  0  0  0  0
M  END
>  <MODEL>
7

>  <REMARK>
 VINA RESULT:      -4.6      3.038      8.043
  Name = 
  2 active torsions:
  status: ('A' for Active; 'I' for Inactive)
    1  A    between atoms: C_4  and  C_37
    2  A    between atoms: C_23  and  C_30
                            x       y       z     vdW  Elec       q    Type
                         _______ _______ _______ _____ _____    ______ ____

>  <TORSDO>
F 2

$$$$
=
 OpenBabel11122411283D

 37 43  0  0  1  0  0  0  0  0999 V2000
  191.0220  177.4600  139.9920 O   0  0  0  0  0  0  0  0  0  0  0  0
  187.8370  175.0500  136.6840 C   0  0  0  0  0  0  0  0  0  0  0  0
  187.3760  178.3330  139.4780 C   0  0  1  0  0  3  0  0  0  0  0  0
  192.3260  177.3530  140.5120 C   0  0  2  0  0  3  0  0  0  0  0  0
  187.9740  176.4580  142.9160 C   0  0  0  0  0  2  0  0  0  0  0  0
  186.3260  176.8280  137.6950 C   0  0  1  0  0  3  0  0  0  0  0  0
  188.1570  177.6780  140.6160 C   0  0  1  0  0  3  0  0  0  0  0  0
  191.5780  177.6000  142.9460 C   0  0  2  0  0  3  0  0  0  0  0  0
  187.6180  177.4540  138.2500 C   0  0  2  0  0  3  0  0  0  0  0  0
  187.3230  177.4150  141.9010 C   0  0  2  0  0  3  0  0  0  0  0  0
  185.2890  177.9020  137.3710 C   0  0  0  0  0  2  0  0  0  0  0  0
  192.4300  178.1700  141.8030 C   0  0  0  0  0  2  0  0  0  0  0  0
  188.6690  176.4640  138.5660 N   0  0  2  0  0  0  0  0  0  0  0  0
  188.9590  175.4250  135.7340 C   0  0  0  0  0  1  0  0  0  0  0  0
  185.6220  179.6210  140.8530 C   0  0  0  0  0  2  0  0  0  0  0  0
  185.1110  178.9280  138.5010 C   0  0  0  0  0  2  0  0  0  0  0  0
  188.3460  175.0960  138.1310 C   0  0  0  0  0  2  0  0  0  0  0  0
  190.2640  177.2040  142.4350 N   0  0  2  0  0  0  0  0  0  0  0  0
  189.2980  176.9640  143.5030 C   0  0  0  0  0  2  0  0  0  0  0  0
  185.8750  178.5630  139.7730 C   0  0  1  0  0  3  0  0  0  0  0  0
  188.8070  176.4270  140.0190 C   0  0  1  0  0  3  0  0  0  0  0  0
  186.6500  175.9980  136.4580 C   0  0  0  0  0  2  0  0  0  0  0  0
  186.8950  178.7310  142.5850 C   0  0  1  0  0  3  0  0  0  0  0  0
  187.3930  173.6370  136.3720 C   0  0  0  0  0  1  0  0  0  0  0  0
  190.4350  176.0250  141.7760 O   0  0  0  0  0  0  0  0  0  0  0  0
  191.4520  178.5820  143.9320 O   0  0  0  0  0  1  0  0  0  0  0  0
  190.2930  176.3140  140.3990 C   0  0  2  0  0  3  0  0  0  0  0  0
  186.7300  179.8280  141.7040 O   0  0  0  0  0  0  0  0  0  0  0  0
  186.0960  178.3290  144.9250 C   0  0  0  0  0  3  0  0  0  0  0  0
  185.7810  178.5870  143.5860 C   0  0  0  0  0  0  0  0  0  0  0  0
  184.4380  178.7330  143.2060 C   0  0  0  0  0  3  0  0  0  0  0  0
  182.0020  178.7630  143.7490 C   0  0  0  0  0  1  0  0  0  0  0  0
  183.7420  178.3470  145.4920 C   0  0  0  0  0  3  0  0  0  0  0  0
  183.4220  178.6100  144.1570 C   0  0  0  0  0  0  0  0  0  0  0  0
  185.0790  178.2080  145.8760 C   0  0  0  0  0  3  0  0  0  0  0  0
  193.5680  176.8880  138.4740 N   0  0  0  0  0  1  0  0  0  0  0  0
  193.3230  177.8860  139.5010 C   0  0  0  0  0  2  0  0  0  0  0  0
  1 27  1  0  0  0  0
  1  4  1  0  0  0  0
  2 17  1  0  0  0  0
  3 20  1  0  0  0  0
  3  7  1  0  0  0  0
  4 12  1  0  0  0  0
  5 19  1  0  0  0  0
  6  9  1  0  0  0  0
  7 10  1  0  0  0  0
  8 26  1  0  0  0  0
  9 13  1  0  0  0  0
  9  3  1  0  0  0  0
 10 23  1  0  0  0  0
 10  5  1  0  0  0  0
 11  6  1  0  0  0  0
 11 16  1  0  0  0  0
 12  8  1  0  0  0  0
 13 21  1  0  0  0  0
 14  2  1  0  0  0  0
 15 28  1  0  0  0  0
 16 20  1  0  0  0  0
 17 13  1  0  0  0  0
 18  8  1  0  0  0  0
 18 19  1  0  0  0  0
 20 15  1  0  0  0  0
 21 27  1  0  0  0  0
 21  7  1  0  0  0  0
 22  2  1  0  0  0  0
 22  6  1  0  0  0  0
 23 30  1  0  0  0  0
 24  2  1  0  0  0  0
 25 18  1  0  0  0  0
 27 25  1  0  0  0  0
 28 23  1  0  0  0  0
 29 35  1  0  0  0  0
 30 29  2  0  0  0  0
 31 30  1  0  0  0  0
 31 34  2  0  0  0  0
 32 34  1  0  0  0  0
 33 35  2  0  0  0  0
 34 33  1  0  0  0  0
 36 37  1  0  0  0  0
 37  4  1  0  0  0  0
M  END
>  <MODEL>
8

>  <REMARK>
 VINA RESULT:      -4.2      4.705      9.527
  Name = 
  2 active torsions:
  status: ('A' for Active; 'I' for Inactive)
    1  A    between atoms: C_4  and  C_37
    2  A    between atoms: C_23  and  C_30
                            x       y       z     vdW  Elec       q    Type
                         _______ _______ _______ _____ _____    ______ ____

>  <TORSDO>
F 2

$$$$
=
 OpenBabel11122411283D

 37 43  0  0  1  0  0  0  0  0999 V2000
  183.2530  179.6240  138.3010 O   0  0  0  0  0  0  0  0  0  0  0  0
  188.1480  177.9240  138.5000 C   0  0  0  0  0  0  0  0  0  0  0  0
  184.6650  176.8460  136.1550 C   0  0  1  0  0  3  0  0  0  0  0  0
  182.3830  180.5030  138.9750 C   0  0  2  0  0  3  0  0  0  0  0  0
  182.2750  175.4520  138.9910 C   0  0  0  0  0  2  0  0  0  0  0  0
  187.1430  176.4720  136.6720 C   0  0  1  0  0  3  0  0  0  0  0  0
  183.6760  176.8850  137.3200 C   0  0  1  0  0  3  0  0  0  0  0  0
  180.4980  178.7830  139.1730 C   0  0  2  0  0  3  0  0  0  0  0  0
  185.9610  177.4570  136.6910 C   0  0  2  0  0  3  0  0  0  0  0  0
  182.9950  175.5250  137.6320 C   0  0  2  0  0  3  0  0  0  0  0  0
  187.3710  175.9130  135.2680 C   0  0  0  0  0  2  0  0  0  0  0  0
  180.9330  180.1520  138.6290 C   0  0  0  0  0  2  0  0  0  0  0  0
  185.7010  178.0470  138.0210 N   0  0  2  0  0  0  0  0  0  0  0  0
  188.3990  179.4040  138.2750 C   0  0  0  0  0  1  0  0  0  0  0  0
  183.6320  174.9250  134.7870 C   0  0  0  0  0  2  0  0  0  0  0  0
  186.0780  175.4300  134.5940 C   0  0  0  0  0  2  0  0  0  0  0  0
  186.7220  177.7150  139.0270 C   0  0  0  0  0  2  0  0  0  0  0  0
  181.5620  177.8010  138.9500 N   0  0  2  0  0  0  0  0  0  0  0  0
  181.1020  176.4290  139.1380 C   0  0  0  0  0  2  0  0  0  0  0  0
  184.8680  175.4460  135.5290 C   0  0  1  0  0  3  0  0  0  0  0  0
  184.4370  177.4950  138.5000 C   0  0  1  0  0  3  0  0  0  0  0  0
  188.3970  177.1680  137.1870 C   0  0  0  0  0  2  0  0  0  0  0  0
  182.0550  175.0790  136.4910 C   0  0  1  0  0  3  0  0  0  0  0  0
  189.1260  177.4230  139.5400 C   0  0  0  0  0  1  0  0  0  0  0  0
  182.5190  178.0360  139.8890 O   0  0  0  0  0  0  0  0  0  0  0  0
  179.3250  178.4020  138.5170 O   0  0  0  0  0  1  0  0  0  0  0  0
  183.6220  178.5950  139.2030 C   0  0  2  0  0  3  0  0  0  0  0  0
  182.4300  175.5390  135.2040 O   0  0  0  0  0  0  0  0  0  0  0  0
  180.3130  173.2820  136.5730 C   0  0  0  0  0  3  0  0  0  0  0  0
  181.6680  173.6260  136.5250 C   0  0  0  0  0  0  0  0  0  0  0  0
  182.6390  172.6130  136.4800 C   0  0  0  0  0  3  0  0  0  0  0  0
  183.2860  170.2030  136.4540 C   0  0  0  0  0  1  0  0  0  0  0  0
  180.8990  170.9320  136.5510 C   0  0  0  0  0  3  0  0  0  0  0  0
  182.2550  171.2700  136.4970 C   0  0  0  0  0  0  0  0  0  0  0  0
  179.9280  171.9370  136.5880 C   0  0  0  0  0  3  0  0  0  0  0  0
  181.4610  182.5360  138.0130 N   0  0  0  0  0  1  0  0  0  0  0  0
  182.6680  181.9300  138.5490 C   0  0  0  0  0  2  0  0  0  0  0  0
  1  4  1  0  0  0  0
  1 27  1  0  0  0  0
  2 17  1  0  0  0  0
  2 24  1  0  0  0  0
  3  9  1  0  0  0  0
  3  7  1  0  0  0  0
  5 19  1  0  0  0  0
  6  9  1  0  0  0  0
  6 22  1  0  0  0  0
  7 10  1  0  0  0  0
  7 21  1  0  0  0  0
  9 13  1  0  0  0  0
 10  5  1  0  0  0  0
 11  6  1  0  0  0  0
 12  4  1  0  0  0  0
 12  8  1  0  0  0  0
 13 21  1  0  0  0  0
 13 17  1  0  0  0  0
 14  2  1  0  0  0  0
 15 28  1  0  0  0  0
 15 20  1  0  0  0  0
 16 11  1  0  0  0  0
 16 20  1  0  0  0  0
 18 19  1  0  0  0  0
 18  8  1  0  0  0  0
 18 25  1  0  0  0  0
 20  3  1  0  0  0  0
 21 27  1  0  0  0  0
 22  2  1  0  0  0  0
 23 30  1  0  0  0  0
 23 10  1  0  0  0  0
 26  8  1  0  0  0  0
 27 25  1  0  0  0  0
 28 23  1  0  0  0  0
 29 35  1  0  0  0  0
 30 29  2  0  0  0  0
 31 34  2  0  0  0  0
 31 30  1  0  0  0  0
 32 34  1  0  0  0  0
 33 35  2  0  0  0  0
 34 33  1  0  0  0  0
 36 37  1  0  0  0  0
 37  4  1  0  0  0  0
M  END
>  <MODEL>
9

>  <REMARK>
 VINA RESULT:      -4.0      2.684      5.698
  Name = 
  2 active torsions:
  status: ('A' for Active; 'I' for Inactive)
    1  A    between atoms: C_4  and  C_37
    2  A    between atoms: C_23  and  C_30
                            x       y       z     vdW  Elec       q    Type
                         _______ _______ _______ _____ _____    ______ ____

>  <TORSDO>
F 2

$$$$
