=
 OpenBabel11122410333D

 30 35  0  0  1  0  0  0  0  0999 V2000
  186.1580  178.0810  142.1620 C   0  0  2  0  0  3  0  0  0  0  0  0
  183.9810  178.6400  140.9490 C   0  0  0  0  0  0  0  0  0  0  0  0
  184.6140  179.2600  145.5740 O   0  0  0  0  0  0  0  0  0  0  0  0
  186.8080  178.3010  143.5430 C   0  0  2  0  0  3  0  0  0  0  0  0
  186.8480  178.8650  141.2200 O   0  0  0  0  0  0  0  0  0  0  0  0
  190.1630  178.2880  141.9960 O   0  0  0  0  0  0  0  0  0  0  0  0
  188.7000  176.8420  145.7440 C   0  0  2  0  0  3  0  0  0  0  0  0
  188.9500  178.2060  142.1250 C   0  0  0  0  0  0  0  0  0  0  0  0
  188.0040  178.0830  146.2530 C   0  0  2  0  0  3  0  0  0  0  0  0
  185.6980  179.1310  146.4170 C   0  0  0  0  0  0  0  0  0  0  0  0
  188.0370  178.1790  140.9230 C   0  0  2  0  0  3  0  0  0  0  0  0
  188.3510  178.0580  143.4990 C   0  0  2  0  0  3  0  0  0  0  0  0
  182.6580  178.9470  140.9710 N   0  0  0  0  0  0  0  0  0  0  0  0
  188.3910  178.2280  147.6480 N   0  0  0  0  0  2  0  0  0  0  0  0
  190.0120  176.8610  146.4720 C   0  0  0  0  0  2  0  0  0  0  0  0
  184.6320  178.5040  139.6880 N   0  0  0  0  0  1  0  0  0  0  0  0
  184.5720  178.1480  144.6950 C   0  0  2  0  0  3  0  0  0  0  0  0
  181.9600  179.0420  142.1310 C   0  0  0  0  0  3  0  0  0  0  0  0
  184.6850  178.4390  142.1600 C   0  0  0  0  0  0  0  0  0  0  0  0
  186.0070  177.5880  144.6660 C   0  0  2  0  0  3  0  0  0  0  0  0
  185.9260  179.9220  147.3690 O   0  0  0  0  0  0  0  0  0  0  0  0
  186.4950  177.9210  146.0990 C   0  0  1  0  0  3  0  0  0  0  0  0
  189.7110  177.6090  147.7610 C   0  0  0  0  0  2  0  0  0  0  0  0
  188.3090  175.5220  143.6490 C   0  0  0  0  0  1  0  0  0  0  0  0
  182.5950  178.8030  143.3460 C   0  0  0  0  0  3  0  0  0  0  0  0
  183.9550  178.4870  143.3670 C   0  0  0  0  0  0  0  0  0  0  0  0
  188.8840  176.8070  144.2230 C   0  0  2  0  0  3  0  0  0  0  0  0
  188.6930  178.8100  139.7030 C   0  0  0  0  0  2  0  0  0  0  0  0
  187.6060  178.9480  137.5940 O   0  0  0  0  0  1  0  0  0  0  0  0
  188.2780  178.0720  138.4450 C   0  0  0  0  0  2  0  0  0  0  0  0
  1  5  1  6  0  0  0
  1  4  1  0  0  0  0
  2 13  2  0  0  0  0
  2 19  1  0  0  0  0
  3 10  1  0  0  0  0
  4 20  1  0  0  0  0
  6  8  2  0  0  0  0
  7  9  1  0  0  0  0
  7 15  1  0  0  0  0
  8 12  1  0  0  0  0
  9 14  1  0  0  0  0
 10 21  2  0  0  0  0
 11  5  1  0  0  0  0
 11  8  1  0  0  0  0
 12  4  1  0  0  0  0
 12 27  1  0  0  0  0
 13 18  1  0  0  0  0
 14 23  1  0  0  0  0
 15 23  1  0  0  0  0
 16  2  1  0  0  0  0
 17  3  1  0  0  0  0
 18 25  2  0  0  0  0
 19  1  1  0  0  0  0
 19 26  2  0  0  0  0
 20 17  1  0  0  0  0
 20 22  1  0  0  0  0
 22  9  1  0  0  0  0
 22 10  1  0  0  0  0
 24 27  1  0  0  0  0
 25 26  1  0  0  0  0
 26 17  1  0  0  0  0
 27  7  1  0  0  0  0
 28 11  1  0  0  0  0
 29 30  1  0  0  0  0
 30 28  1  0  0  0  0
M  END
>  <MODEL>
1

>  <REMARK>
 VINA RESULT:      -9.1      0.000      0.000
  Name = 
  2 active torsions:
  status: ('A' for Active; 'I' for Inactive)
    1  A    between atoms: C_11  and  C_28
    2  A    between atoms: C_28  and  C_30
                            x       y       z     vdW  Elec       q    Type
                         _______ _______ _______ _____ _____    ______ ____

>  <TORSDO>
F 2

$$$$
=
 OpenBabel11122410333D

 30 35  0  0  1  0  0  0  0  0999 V2000
  187.1870  177.8750  142.7050 C   0  0  2  0  0  3  0  0  0  0  0  0
  184.8200  178.6370  142.1220 C   0  0  0  0  0  0  0  0  0  0  0  0
  186.5330  178.5920  146.5080 O   0  0  0  0  0  0  0  0  0  0  0  0
  188.1480  177.8870  143.9100 C   0  0  2  0  0  3  0  0  0  0  0  0
  187.6800  178.7700  141.7380 O   0  0  0  0  0  0  0  0  0  0  0  0
  191.0510  178.0310  141.6290 O   0  0  0  0  0  0  0  0  0  0  0  0
  190.4210  176.1010  145.3920 C   0  0  2  0  0  3  0  0  0  0  0  0
  189.8980  177.9530  142.0280 C   0  0  0  0  0  0  0  0  0  0  0  0
  189.9240  177.2710  146.2090 C   0  0  2  0  0  3  0  0  0  0  0  0
  187.7730  178.3270  147.0480 C   0  0  0  0  0  0  0  0  0  0  0  0
  188.7320  178.1110  141.0820 C   0  0  2  0  0  3  0  0  0  0  0  0
  189.6250  177.6250  143.4730 C   0  0  2  0  0  3  0  0  0  0  0  0
  183.5540  178.9600  142.4950 N   0  0  0  0  0  0  0  0  0  0  0  0
  190.6290  177.2130  147.4810 N   0  0  0  0  0  2  0  0  0  0  0  0
  191.8640  175.9950  145.7880 C   0  0  0  0  0  2  0  0  0  0  0  0
  185.1550  178.6660  140.7370 N   0  0  0  0  0  1  0  0  0  0  0  0
  186.2330  177.6150  145.5250 C   0  0  2  0  0  3  0  0  0  0  0  0
  183.1480  178.9050  143.7890 C   0  0  0  0  0  3  0  0  0  0  0  0
  185.7730  178.2560  143.0960 C   0  0  0  0  0  0  0  0  0  0  0  0
  187.5930  177.0390  145.0860 C   0  0  2  0  0  3  0  0  0  0  0  0
  188.2550  178.9720  148.0150 O   0  0  0  0  0  0  0  0  0  0  0  0
  188.4150  177.1590  146.3950 C   0  0  1  0  0  3  0  0  0  0  0  0
  191.9070  176.5600  147.1970 C   0  0  0  0  0  2  0  0  0  0  0  0
  189.4920  175.0940  143.2930 C   0  0  0  0  0  1  0  0  0  0  0  0
  184.0340  178.4870  144.7780 C   0  0  0  0  0  3  0  0  0  0  0  0
  185.3440  178.1480  144.4370 C   0  0  0  0  0  0  0  0  0  0  0  0
  190.2480  176.2760  143.8800 C   0  0  2  0  0  3  0  0  0  0  0  0
  189.1200  178.8940  139.8350 C   0  0  0  0  0  2  0  0  0  0  0  0
  187.4450  178.6320  138.1710 O   0  0  0  0  0  1  0  0  0  0  0  0
  188.6820  178.1480  138.5900 C   0  0  0  0  0  2  0  0  0  0  0  0
  1  5  1  6  0  0  0
  1 19  1  0  0  0  0
  1  4  1  0  0  0  0
  2 13  2  0  0  0  0
  2 19  1  0  0  0  0
  3 10  1  0  0  0  0
  4 20  1  0  0  0  0
  6  8  2  0  0  0  0
  7 15  1  0  0  0  0
  7  9  1  0  0  0  0
  8 12  1  0  0  0  0
  9 22  1  0  0  0  0
  9 14  1  0  0  0  0
 10 21  2  0  0  0  0
 11  5  1  0  0  0  0
 11  8  1  0  0  0  0
 12 27  1  0  0  0  0
 12  4  1  0  0  0  0
 13 18  1  0  0  0  0
 15 23  1  0  0  0  0
 16  2  1  0  0  0  0
 17  3  1  0  0  0  0
 18 25  2  0  0  0  0
 19 26  2  0  0  0  0
 20 17  1  0  0  0  0
 20 22  1  0  0  0  0
 22 10  1  0  0  0  0
 23 14  1  0  0  0  0
 24 27  1  0  0  0  0
 26 25  1  0  0  0  0
 26 17  1  0  0  0  0
 27  7  1  0  0  0  0
 28 11  1  0  0  0  0
 29 30  1  0  0  0  0
 30 28  1  0  0  0  0
M  END
>  <MODEL>
2

>  <REMARK>
 VINA RESULT:      -8.5      1.275      1.703
  Name = 
  2 active torsions:
  status: ('A' for Active; 'I' for Inactive)
    1  A    between atoms: C_11  and  C_28
    2  A    between atoms: C_28  and  C_30
                            x       y       z     vdW  Elec       q    Type
                         _______ _______ _______ _____ _____    ______ ____

>  <TORSDO>
F 2

$$$$
=
 OpenBabel11122410333D

 30 35  0  0  1  0  0  0  0  0999 V2000
  184.7040  178.8210  141.2750 C   0  0  2  0  0  3  0  0  0  0  0  0
  184.9770  178.7670  138.7370 C   0  0  0  0  0  0  0  0  0  0  0  0
  188.1480  176.9930  141.7320 O   0  0  0  0  0  0  0  0  0  0  0  0
  185.3690  178.2170  142.5290 C   0  0  2  0  0  3  0  0  0  0  0  0
  183.4370  178.2300  141.1200 O   0  0  0  0  0  0  0  0  0  0  0  0
  182.1380  178.3060  144.3190 O   0  0  0  0  0  0  0  0  0  0  0  0
  186.1710  178.9260  145.5960 C   0  0  2  0  0  3  0  0  0  0  0  0
  182.9800  178.4620  143.4460 C   0  0  0  0  0  0  0  0  0  0  0  0
  186.8140  177.6670  145.0650 C   0  0  2  0  0  3  0  0  0  0  0  0
  188.1790  176.8180  143.1000 C   0  0  0  0  0  0  0  0  0  0  0  0
  182.5860  178.8590  142.0440 C   0  0  2  0  0  3  0  0  0  0  0  0
  184.4420  178.3250  143.7820 C   0  0  2  0  0  3  0  0  0  0  0  0
  185.7470  178.5830  137.6320 N   0  0  0  0  0  0  0  0  0  0  0  0
  187.6580  177.1540  146.1330 N   0  0  0  0  0  2  0  0  0  0  0  0
  185.9540  178.6160  147.0470 C   0  0  0  0  0  2  0  0  0  0  0  0
  183.6140  179.1460  138.5670 N   0  0  0  0  0  1  0  0  0  0  0  0
  187.6400  178.2840  141.4390 C   0  0  2  0  0  3  0  0  0  0  0  0
  187.0650  178.2730  137.7160 C   0  0  0  0  0  3  0  0  0  0  0  0
  185.5360  178.6060  140.0270 C   0  0  0  0  0  0  0  0  0  0  0  0
  186.8350  178.7050  142.6830 C   0  0  2  0  0  3  0  0  0  0  0  0
  188.6790  175.8040  143.6520 O   0  0  0  0  0  0  0  0  0  0  0  0
  187.6220  177.9940  143.8140 C   0  0  1  0  0  3  0  0  0  0  0  0
  187.0410  177.6080  147.3800 C   0  0  0  0  0  2  0  0  0  0  0  0
  184.9450  180.7440  144.3790 C   0  0  0  0  0  1  0  0  0  0  0  0
  187.6730  178.1530  138.9620 C   0  0  0  0  0  3  0  0  0  0  0  0
  186.9180  178.3320  140.1220 C   0  0  0  0  0  0  0  0  0  0  0  0
  184.8690  179.3120  144.8860 C   0  0  2  0  0  3  0  0  0  0  0  0
  181.1430  178.4870  141.7370 C   0  0  0  0  0  2  0  0  0  0  0  0
  180.1650  180.4960  142.5470 O   0  0  0  0  0  1  0  0  0  0  0  0
  180.3420  179.7290  141.3970 C   0  0  0  0  0  2  0  0  0  0  0  0
  1 19  1  6  0  0  0
  1  4  1  0  0  0  0
  2 19  1  0  0  0  0
  3 10  1  0  0  0  0
  4 20  1  0  0  0  0
  4 12  1  0  0  0  0
  5  1  1  0  0  0  0
  5 11  1  0  0  0  0
  7 15  1  0  0  0  0
  8 12  1  0  0  0  0
  8  6  2  0  0  0  0
  9  7  1  0  0  0  0
  9 14  1  0  0  0  0
 10 21  2  0  0  0  0
 10 22  1  0  0  0  0
 11  8  1  0  0  0  0
 12 27  1  0  0  0  0
 13 18  1  0  0  0  0
 13  2  2  0  0  0  0
 14 23  1  0  0  0  0
 15 23  1  0  0  0  0
 16  2  1  0  0  0  0
 17  3  1  0  0  0  0
 17 20  1  0  0  0  0
 18 25  2  0  0  0  0
 19 26  2  0  0  0  0
 20 22  1  0  0  0  0
 22  9  1  0  0  0  0
 24 27  1  0  0  0  0
 25 26  1  0  0  0  0
 26 17  1  0  0  0  0
 27  7  1  0  0  0  0
 28 11  1  0  0  0  0
 30 28  1  0  0  0  0
 30 29  1  0  0  0  0
M  END
>  <MODEL>
3

>  <REMARK>
 VINA RESULT:      -7.4      2.023      5.063
  Name = 
  2 active torsions:
  status: ('A' for Active; 'I' for Inactive)
    1  A    between atoms: C_11  and  C_28
    2  A    between atoms: C_28  and  C_30
                            x       y       z     vdW  Elec       q    Type
                         _______ _______ _______ _____ _____    ______ ____

>  <TORSDO>
F 2

$$$$
=
 OpenBabel11122410333D

 30 35  0  0  1  0  0  0  0  0999 V2000
  187.7710  178.0960  144.1910 C   0  0  2  0  0  3  0  0  0  0  0  0
  185.2950  178.4850  144.6810 C   0  0  0  0  0  0  0  0  0  0  0  0
  186.9940  177.6420  140.3700 O   0  0  0  0  0  0  0  0  0  0  0  0
  188.6660  177.6240  143.0280 C   0  0  2  0  0  3  0  0  0  0  0  0
  187.7790  177.1020  145.1860 O   0  0  0  0  0  0  0  0  0  0  0  0
  191.1200  176.2640  145.4310 O   0  0  0  0  0  0  0  0  0  0  0  0
  191.5450  178.1680  141.6270 C   0  0  2  0  0  3  0  0  0  0  0  0
  190.1370  176.8360  144.9830 C   0  0  0  0  0  0  0  0  0  0  0  0
  190.6060  177.3210  140.8000 C   0  0  2  0  0  3  0  0  0  0  0  0
  188.2400  177.3110  139.8810 C   0  0  0  0  0  0  0  0  0  0  0  0
  188.9930  177.2400  145.8800 C   0  0  2  0  0  3  0  0  0  0  0  0
  190.0880  177.2120  143.5250 C   0  0  2  0  0  3  0  0  0  0  0  0
  184.0310  178.7490  144.2570 N   0  0  0  0  0  0  0  0  0  0  0  0
  191.3060  177.0240  139.5590 N   0  0  0  0  0  2  0  0  0  0  0  0
  192.8970  177.6100  141.2920 C   0  0  0  0  0  2  0  0  0  0  0  0
  185.5340  178.3460  146.0780 N   0  0  0  0  0  1  0  0  0  0  0  0
  187.1290  178.6770  141.3310 C   0  0  2  0  0  3  0  0  0  0  0  0
  183.7360  178.9440  142.9470 C   0  0  0  0  0  3  0  0  0  0  0  0
  186.3500  178.3740  143.7440 C   0  0  0  0  0  0  0  0  0  0  0  0
  188.5870  178.5980  141.8220 C   0  0  2  0  0  3  0  0  0  0  0  0
  188.4150  176.4930  138.9410 O   0  0  0  0  0  0  0  0  0  0  0  0
  189.3130  178.0890  140.5490 C   0  0  1  0  0  3  0  0  0  0  0  0
  192.7300  177.0460  139.8910 C   0  0  0  0  0  2  0  0  0  0  0  0
  191.0930  179.5410  143.6750 C   0  0  0  0  0  1  0  0  0  0  0  0
  184.7480  178.8970  141.9920 C   0  0  0  0  0  3  0  0  0  0  0  0
  186.0590  178.6260  142.3860 C   0  0  0  0  0  0  0  0  0  0  0  0
  191.2610  178.1300  143.1320 C   0  0  2  0  0  3  0  0  0  0  0  0
  188.9480  176.4000  147.1490 C   0  0  0  0  0  2  0  0  0  0  0  0
  188.9380  178.3690  148.4800 O   0  0  0  0  0  1  0  0  0  0  0  0
  188.2640  177.1690  148.2630 C   0  0  0  0  0  2  0  0  0  0  0  0
  1 19  1  6  0  0  0
  1  5  1  0  0  0  0
  2 16  1  0  0  0  0
  3 17  1  0  0  0  0
  4 12  1  0  0  0  0
  4  1  1  0  0  0  0
  5 11  1  0  0  0  0
  7 27  1  0  0  0  0
  8  6  2  0  0  0  0
  8 11  1  0  0  0  0
  9  7  1  0  0  0  0
 10  3  1  0  0  0  0
 10 22  1  0  0  0  0
 11 28  1  0  0  0  0
 12  8  1  0  0  0  0
 13  2  1  0  0  0  0
 14 23  1  0  0  0  0
 14  9  1  0  0  0  0
 15  7  1  0  0  0  0
 17 20  1  0  0  0  0
 17 26  1  0  0  0  0
 18 13  2  0  0  0  0
 19  2  2  0  0  0  0
 20  4  1  0  0  0  0
 21 10  2  0  0  0  0
 22  9  1  0  0  0  0
 22 20  1  0  0  0  0
 23 15  1  0  0  0  0
 25 26  2  0  0  0  0
 25 18  1  0  0  0  0
 26 19  1  0  0  0  0
 27 12  1  0  0  0  0
 27 24  1  0  0  0  0
 28 30  1  0  0  0  0
 30 29  1  0  0  0  0
M  END
>  <MODEL>
4

>  <REMARK>
 VINA RESULT:      -7.2      2.620      5.737
  Name = 
  2 active torsions:
  status: ('A' for Active; 'I' for Inactive)
    1  A    between atoms: C_11  and  C_28
    2  A    between atoms: C_28  and  C_30
                            x       y       z     vdW  Elec       q    Type
                         _______ _______ _______ _____ _____    ______ ____

>  <TORSDO>
F 2

$$$$
=
 OpenBabel11122410333D

 30 35  0  0  1  0  0  0  0  0999 V2000
  188.4370  177.4420  140.0270 C   0  0  2  0  0  3  0  0  0  0  0  0
  187.5860  177.9970  142.3700 C   0  0  0  0  0  0  0  0  0  0  0  0
  192.1520  177.6300  141.2810 O   0  0  0  0  0  0  0  0  0  0  0  0
  189.7680  177.4210  139.2490 C   0  0  2  0  0  3  0  0  0  0  0  0
  187.6500  178.4940  139.5260 O   0  0  0  0  0  0  0  0  0  0  0  0
  187.9730  178.1570  136.1050 O   0  0  0  0  0  0  0  0  0  0  0  0
  191.3880  175.7400  136.9890 C   0  0  2  0  0  3  0  0  0  0  0  0
  188.1850  177.9050  137.2820 C   0  0  0  0  0  0  0  0  0  0  0  0
  192.2340  176.7420  137.7390 C   0  0  2  0  0  3  0  0  0  0  0  0
  192.8430  177.4440  140.1020 C   0  0  0  0  0  0  0  0  0  0  0  0
  187.0960  178.0400  138.3180 C   0  0  2  0  0  3  0  0  0  0  0  0
  189.5330  177.3800  137.7050 C   0  0  2  0  0  3  0  0  0  0  0  0
  187.7960  178.1300  143.7060 N   0  0  0  0  0  0  0  0  0  0  0  0
  193.5840  176.6150  137.2120 N   0  0  0  0  0  2  0  0  0  0  0  0
  191.9820  175.7510  135.6120 C   0  0  0  0  0  2  0  0  0  0  0  0
  186.2770  178.2260  141.8560 N   0  0  0  0  0  1  0  0  0  0  0  0
  191.0430  176.7480  141.3160 C   0  0  2  0  0  3  0  0  0  0  0  0
  189.0020  177.8780  144.2740 C   0  0  0  0  0  3  0  0  0  0  0  0
  188.6480  177.6130  141.5180 C   0  0  0  0  0  0  0  0  0  0  0  0
  190.7570  176.3830  139.8460 C   0  0  2  0  0  3  0  0  0  0  0  0
  193.9300  178.0220  139.8440 O   0  0  0  0  0  0  0  0  0  0  0  0
  192.1800  176.4410  139.2330 C   0  0  1  0  0  3  0  0  0  0  0  0
  193.4310  176.1480  135.8350 C   0  0  0  0  0  2  0  0  0  0  0  0
  189.0830  174.8890  137.4870 C   0  0  0  0  0  1  0  0  0  0  0  0
  190.0660  177.4490  143.4860 C   0  0  0  0  0  3  0  0  0  0  0  0
  189.8920  177.3010  142.1090 C   0  0  0  0  0  0  0  0  0  0  0  0
  189.8910  176.0710  136.9760 C   0  0  2  0  0  3  0  0  0  0  0  0
  186.0060  179.0030  137.8670 C   0  0  0  0  0  2  0  0  0  0  0  0
  184.5560  180.0000  139.4640 O   0  0  0  0  0  1  0  0  0  0  0  0
  184.7700  178.8360  138.7290 C   0  0  0  0  0  2  0  0  0  0  0  0
  1  5  1  6  0  0  0
  1 19  1  0  0  0  0
  2 13  1  0  0  0  0
  3 17  1  0  0  0  0
  4 20  1  0  0  0  0
  4  1  1  0  0  0  0
  6  8  2  0  0  0  0
  7  9  1  0  0  0  0
  8 12  1  0  0  0  0
  8 11  1  0  0  0  0
  9 22  1  0  0  0  0
 10  3  1  0  0  0  0
 11  5  1  0  0  0  0
 12  4  1  0  0  0  0
 13 18  2  0  0  0  0
 14  9  1  0  0  0  0
 15 23  1  0  0  0  0
 15  7  1  0  0  0  0
 16  2  1  0  0  0  0
 17 26  1  0  0  0  0
 19 26  1  0  0  0  0
 19  2  2  0  0  0  0
 20 17  1  0  0  0  0
 21 10  2  0  0  0  0
 22 20  1  0  0  0  0
 22 10  1  0  0  0  0
 23 14  1  0  0  0  0
 25 18  1  0  0  0  0
 26 25  2  0  0  0  0
 27  7  1  0  0  0  0
 27 24  1  0  0  0  0
 27 12  1  0  0  0  0
 28 11  1  0  0  0  0
 28 30  1  0  0  0  0
 30 29  1  0  0  0  0
M  END
>  <MODEL>
5

>  <REMARK>
 VINA RESULT:      -7.0      3.452      7.262
  Name = 
  2 active torsions:
  status: ('A' for Active; 'I' for Inactive)
    1  A    between atoms: C_11  and  C_28
    2  A    between atoms: C_28  and  C_30
                            x       y       z     vdW  Elec       q    Type
                         _______ _______ _______ _____ _____    ______ ____

>  <TORSDO>
F 2

$$$$
=
 OpenBabel11122410333D

 30 35  0  0  1  0  0  0  0  0999 V2000
  188.3080  177.6340  140.8810 C   0  0  2  0  0  3  0  0  0  0  0  0
  187.7430  177.9360  138.4090 C   0  0  0  0  0  0  0  0  0  0  0  0
  185.0030  179.4830  141.9120 O   0  0  0  0  0  0  0  0  0  0  0  0
  187.8140  178.1290  142.2550 C   0  0  2  0  0  3  0  0  0  0  0  0
  189.5670  178.2090  140.6320 O   0  0  0  0  0  0  0  0  0  0  0  0
  191.2270  177.8000  143.6320 O   0  0  0  0  0  0  0  0  0  0  0  0
  187.3520  177.1480  145.3180 C   0  0  2  0  0  3  0  0  0  0  0  0
  190.2850  177.7470  142.8550 C   0  0  0  0  0  0  0  0  0  0  0  0
  186.6940  178.4670  144.9850 C   0  0  2  0  0  3  0  0  0  0  0  0
  185.1370  179.5280  143.2840 C   0  0  0  0  0  0  0  0  0  0  0  0
  190.4990  177.4770  141.3850 C   0  0  2  0  0  3  0  0  0  0  0  0
  188.8770  177.8820  143.3740 C   0  0  2  0  0  3  0  0  0  0  0  0
  186.8570  178.2410  137.4260 N   0  0  0  0  0  0  0  0  0  0  0  0
  185.9970  178.8930  146.1890 N   0  0  0  0  0  2  0  0  0  0  0  0
  187.7470  177.3140  146.7550 C   0  0  0  0  0  2  0  0  0  0  0  0
  189.0640  177.5460  138.0440 N   0  0  0  0  0  1  0  0  0  0  0  0
  185.4310  178.2160  141.4420 C   0  0  2  0  0  3  0  0  0  0  0  0
  185.5680  178.5700  137.6940 C   0  0  0  0  0  3  0  0  0  0  0  0
  187.3440  177.9850  139.7660 C   0  0  0  0  0  0  0  0  0  0  0  0
  186.3610  177.6600  142.5370 C   0  0  2  0  0  3  0  0  0  0  0  0
  184.7390  180.4950  143.9820 O   0  0  0  0  0  0  0  0  0  0  0  0
  185.7350  178.2780  143.8140 C   0  0  1  0  0  3  0  0  0  0  0  0
  186.7390  178.3090  147.3060 C   0  0  0  0  0  2  0  0  0  0  0  0
  188.3680  175.4290  143.8010 C   0  0  0  0  0  1  0  0  0  0  0  0
  185.1130  178.5830  139.0090 C   0  0  0  0  0  3  0  0  0  0  0  0
  185.9920  178.2780  140.0490 C   0  0  0  0  0  0  0  0  0  0  0  0
  188.5500  176.8040  144.4250 C   0  0  2  0  0  3  0  0  0  0  0  0
  191.9080  177.8450  140.9440 C   0  0  0  0  0  2  0  0  0  0  0  0
  193.6310  177.1640  139.4550 O   0  0  0  0  0  1  0  0  0  0  0  0
  192.2500  177.1460  139.6430 C   0  0  0  0  0  2  0  0  0  0  0  0
  1 19  1  6  0  0  0
  1  4  1  0  0  0  0
  2 19  1  0  0  0  0
  3 10  1  0  0  0  0
  4 20  1  0  0  0  0
  4 12  1  0  0  0  0
  5  1  1  0  0  0  0
  5 11  1  0  0  0  0
  7 15  1  0  0  0  0
  8 12  1  0  0  0  0
  8  6  2  0  0  0  0
  9  7  1  0  0  0  0
  9 14  1  0  0  0  0
 10 22  1  0  0  0  0
 10 21  2  0  0  0  0
 11  8  1  0  0  0  0
 12 27  1  0  0  0  0
 13 18  1  0  0  0  0
 13  2  2  0  0  0  0
 14 23  1  0  0  0  0
 15 23  1  0  0  0  0
 16  2  1  0  0  0  0
 17  3  1  0  0  0  0
 17 20  1  0  0  0  0
 18 25  2  0  0  0  0
 19 26  2  0  0  0  0
 20 22  1  0  0  0  0
 22  9  1  0  0  0  0
 24 27  1  0  0  0  0
 25 26  1  0  0  0  0
 26 17  1  0  0  0  0
 27  7  1  0  0  0  0
 28 11  1  0  0  0  0
 29 30  1  0  0  0  0
 30 28  1  0  0  0  0
M  END
>  <MODEL>
6

>  <REMARK>
 VINA RESULT:      -6.6      2.167      3.436
  Name = 
  2 active torsions:
  status: ('A' for Active; 'I' for Inactive)
    1  A    between atoms: C_11  and  C_28
    2  A    between atoms: C_28  and  C_30
                            x       y       z     vdW  Elec       q    Type
                         _______ _______ _______ _____ _____    ______ ____

>  <TORSDO>
F 2

$$$$
=
 OpenBabel11122410333D

 30 35  0  0  1  0  0  0  0  0999 V2000
  187.9490  177.8160  143.7730 C   0  0  2  0  0  3  0  0  0  0  0  0
  187.2940  177.9400  146.2390 C   0  0  0  0  0  0  0  0  0  0  0  0
  184.1770  178.0550  142.7110 O   0  0  0  0  0  0  0  0  0  0  0  0
  187.2730  177.6360  142.3990 C   0  0  2  0  0  3  0  0  0  0  0  0
  188.6840  176.6520  144.0590 O   0  0  0  0  0  0  0  0  0  0  0  0
  190.3150  176.0030  141.0860 O   0  0  0  0  0  0  0  0  0  0  0  0
  187.4450  178.6280  139.3100 C   0  0  2  0  0  3  0  0  0  0  0  0
  189.5520  176.5850  141.8430 C   0  0  0  0  0  0  0  0  0  0  0  0
  186.1690  177.8960  139.6540 C   0  0  2  0  0  3  0  0  0  0  0  0
  184.2740  177.9080  141.3440 C   0  0  0  0  0  0  0  0  0  0  0  0
  189.8700  176.7330  143.3110 C   0  0  2  0  0  3  0  0  0  0  0  0
  188.3040  177.2300  141.2980 C   0  0  2  0  0  3  0  0  0  0  0  0
  186.3790  178.1970  147.2100 N   0  0  0  0  0  0  0  0  0  0  0  0
  185.3600  177.8900  138.4440 N   0  0  0  0  0  2  0  0  0  0  0  0
  187.6940  178.2340  137.8850 C   0  0  0  0  0  2  0  0  0  0  0  0
  188.6100  177.5510  146.6230 N   0  0  0  0  0  1  0  0  0  0  0  0
  185.2270  178.8930  143.1660 C   0  0  2  0  0  3  0  0  0  0  0  0
  185.1230  178.6210  146.9220 C   0  0  0  0  0  3  0  0  0  0  0  0
  186.9430  178.0810  144.8760 C   0  0  0  0  0  0  0  0  0  0  0  0
  186.3170  178.8170  142.0790 C   0  0  2  0  0  3  0  0  0  0  0  0
  183.4150  177.2990  140.6550 O   0  0  0  0  0  0  0  0  0  0  0  0
  185.4630  178.6110  140.8020 C   0  0  1  0  0  3  0  0  0  0  0  0
  186.3090  177.9410  137.3320 C   0  0  0  0  0  2  0  0  0  0  0  0
  189.2280  179.5480  140.8150 C   0  0  0  0  0  1  0  0  0  0  0  0
  184.7440  178.8250  145.5980 C   0  0  0  0  0  3  0  0  0  0  0  0
  185.6540  178.5700  144.5710 C   0  0  0  0  0  0  0  0  0  0  0  0
  188.6290  178.2820  140.2200 C   0  0  2  0  0  3  0  0  0  0  0  0
  190.8430  175.6640  143.7870 C   0  0  0  0  0  2  0  0  0  0  0  0
  191.6780  177.5850  144.9090 O   0  0  0  0  0  1  0  0  0  0  0  0
  191.6810  176.1910  144.9350 C   0  0  0  0  0  2  0  0  0  0  0  0
  1  5  1  1  0  0  0
  1 19  1  0  0  0  0
  2 16  1  0  0  0  0
  2 13  1  0  0  0  0
  3 17  1  0  0  0  0
  4  1  1  0  0  0  0
  6  8  2  0  0  0  0
  7  9  1  0  0  0  0
  7 27  1  0  0  0  0
  8 11  1  0  0  0  0
  9 22  1  0  0  0  0
 10  3  1  0  0  0  0
 11 28  1  0  0  0  0
 11  5  1  0  0  0  0
 12  8  1  0  0  0  0
 12  4  1  0  0  0  0
 14  9  1  0  0  0  0
 15  7  1  0  0  0  0
 17 26  1  0  0  0  0
 18 13  2  0  0  0  0
 19  2  2  0  0  0  0
 20  4  1  0  0  0  0
 20 17  1  0  0  0  0
 21 10  2  0  0  0  0
 22 10  1  0  0  0  0
 22 20  1  0  0  0  0
 23 15  1  0  0  0  0
 23 14  1  0  0  0  0
 25 18  1  0  0  0  0
 26 19  1  0  0  0  0
 26 25  2  0  0  0  0
 27 24  1  0  0  0  0
 27 12  1  0  0  0  0
 28 30  1  0  0  0  0
 29 30  1  0  0  0  0
M  END
>  <MODEL>
7

>  <REMARK>
 VINA RESULT:      -6.5      2.260      5.769
  Name = 
  2 active torsions:
  status: ('A' for Active; 'I' for Inactive)
    1  A    between atoms: C_11  and  C_28
    2  A    between atoms: C_28  and  C_30
                            x       y       z     vdW  Elec       q    Type
                         _______ _______ _______ _____ _____    ______ ____

>  <TORSDO>
F 2

$$$$
=
 OpenBabel11122410333D

 30 35  0  0  1  0  0  0  0  0999 V2000
  186.5940  178.3810  139.7200 C   0  0  2  0  0  3  0  0  0  0  0  0
  184.4770  179.0080  141.0030 C   0  0  0  0  0  0  0  0  0  0  0  0
  184.4840  176.2550  137.1830 O   0  0  0  0  0  0  0  0  0  0  0  0
  187.0330  177.4100  138.6050 C   0  0  2  0  0  3  0  0  0  0  0  0
  187.1630  177.9490  140.9310 O   0  0  0  0  0  0  0  0  0  0  0  0
  190.4270  177.2370  140.0560 O   0  0  0  0  0  0  0  0  0  0  0  0
  188.9960  177.1890  136.0270 C   0  0  2  0  0  3  0  0  0  0  0  0
  189.2630  177.5650  139.8750 C   0  0  0  0  0  0  0  0  0  0  0  0
  187.9740  176.0810  136.1220 C   0  0  2  0  0  3  0  0  0  0  0  0
  185.4780  175.7090  136.3990 C   0  0  0  0  0  0  0  0  0  0  0  0
  188.5060  178.3600  140.9120 C   0  0  2  0  0  3  0  0  0  0  0  0
  188.5850  177.2370  138.5700 C   0  0  2  0  0  3  0  0  0  0  0  0
  183.1230  179.0790  141.0920 N   0  0  0  0  0  0  0  0  0  0  0  0
  188.1760  175.2350  134.9550 N   0  0  0  0  0  2  0  0  0  0  0  0
  190.1860  176.5080  135.4180 C   0  0  0  0  0  2  0  0  0  0  0  0
  185.2610  179.5160  142.0790 N   0  0  0  0  0  1  0  0  0  0  0  0
  184.7980  177.6100  137.4590 C   0  0  2  0  0  3  0  0  0  0  0  0
  182.3120  178.6630  140.0860 C   0  0  0  0  0  3  0  0  0  0  0  0
  185.0860  178.4580  139.8500 C   0  0  0  0  0  0  0  0  0  0  0  0
  186.3220  177.7300  137.2630 C   0  0  2  0  0  3  0  0  0  0  0  0
  185.4140  174.5480  135.9170 O   0  0  0  0  0  0  0  0  0  0  0  0
  186.5720  176.6800  136.1500 C   0  0  1  0  0  3  0  0  0  0  0  0
  189.5890  175.3720  134.6040 C   0  0  0  0  0  2  0  0  0  0  0  0
  189.1430  179.3550  137.2820 C   0  0  0  0  0  1  0  0  0  0  0  0
  182.8640  178.1630  138.9110 C   0  0  0  0  0  3  0  0  0  0  0  0
  184.2510  178.0700  138.7800 C   0  0  0  0  0  0  0  0  0  0  0  0
  189.3320  177.8480  137.3690 C   0  0  2  0  0  3  0  0  0  0  0  0
  189.1070  178.1920  142.3000 C   0  0  0  0  0  2  0  0  0  0  0  0
  188.9390  175.9450  143.0570 O   0  0  0  0  0  1  0  0  0  0  0  0
  188.3040  177.1850  143.1000 C   0  0  0  0  0  2  0  0  0  0  0  0
  1 19  1  1  0  0  0
  1  5  1  0  0  0  0
  2 13  1  0  0  0  0
  2 16  1  0  0  0  0
  3 17  1  0  0  0  0
  4  1  1  0  0  0  0
  7  9  1  0  0  0  0
  7 27  1  0  0  0  0
  8  6  2  0  0  0  0
  8 11  1  0  0  0  0
  9 22  1  0  0  0  0
 10  3  1  0  0  0  0
 11  5  1  0  0  0  0
 11 28  1  0  0  0  0
 12  4  1  0  0  0  0
 12  8  1  0  0  0  0
 14  9  1  0  0  0  0
 15  7  1  0  0  0  0
 17 26  1  0  0  0  0
 18 13  2  0  0  0  0
 19  2  2  0  0  0  0
 20 17  1  0  0  0  0
 20  4  1  0  0  0  0
 21 10  2  0  0  0  0
 22 10  1  0  0  0  0
 22 20  1  0  0  0  0
 23 14  1  0  0  0  0
 23 15  1  0  0  0  0
 24 27  1  0  0  0  0
 25 18  1  0  0  0  0
 26 25  2  0  0  0  0
 26 19  1  0  0  0  0
 27 12  1  0  0  0  0
 28 30  1  0  0  0  0
 29 30  1  0  0  0  0
M  END
>  <MODEL>
8

>  <REMARK>
 VINA RESULT:      -6.5      3.114      7.151
  Name = 
  2 active torsions:
  status: ('A' for Active; 'I' for Inactive)
    1  A    between atoms: C_11  and  C_28
    2  A    between atoms: C_28  and  C_30
                            x       y       z     vdW  Elec       q    Type
                         _______ _______ _______ _____ _____    ______ ____

>  <TORSDO>
F 2

$$$$
=
 OpenBabel11122410333D

 30 35  0  0  1  0  0  0  0  0999 V2000
  187.6490  178.2070  143.6730 C   0  0  2  0  0  3  0  0  0  0  0  0
  186.6430  178.6330  141.3640 C   0  0  0  0  0  0  0  0  0  0  0  0
  190.3930  175.8830  142.1000 O   0  0  0  0  0  0  0  0  0  0  0  0
  188.6870  177.2790  144.3350 C   0  0  2  0  0  3  0  0  0  0  0  0
  186.3710  177.8340  144.1270 O   0  0  0  0  0  0  0  0  0  0  0  0
  186.8300  177.4330  147.5250 O   0  0  0  0  0  0  0  0  0  0  0  0
  191.0020  177.2390  146.6130 C   0  0  2  0  0  3  0  0  0  0  0  0
  187.1560  177.6490  146.3670 C   0  0  0  0  0  0  0  0  0  0  0  0
  191.0170  176.0380  145.6960 C   0  0  2  0  0  3  0  0  0  0  0  0
  191.0420  175.4310  143.2310 C   0  0  0  0  0  0  0  0  0  0  0  0
  186.2320  178.3710  145.4170 C   0  0  2  0  0  3  0  0  0  0  0  0
  188.5290  177.2540  145.8890 C   0  0  2  0  0  3  0  0  0  0  0  0
  186.7220  178.5760  140.0090 N   0  0  0  0  0  0  0  0  0  0  0  0
  192.1380  175.2120  146.1180 N   0  0  0  0  0  2  0  0  0  0  0  0
  191.4520  176.6720  147.9270 C   0  0  0  0  0  2  0  0  0  0  0  0
  185.4870  179.2160  141.9590 N   0  0  0  0  0  1  0  0  0  0  0  0
  190.1010  177.2620  142.2490 C   0  0  2  0  0  3  0  0  0  0  0  0
  187.8130  178.0820  139.3710 C   0  0  0  0  0  3  0  0  0  0  0  0
  187.7040  178.1410  142.1600 C   0  0  0  0  0  0  0  0  0  0  0  0
  190.1110  177.5260  143.7670 C   0  0  2  0  0  3  0  0  0  0  0  0
  191.5120  174.2690  143.3360 O   0  0  0  0  0  0  0  0  0  0  0  0
  191.1700  176.5020  144.2510 C   0  0  1  0  0  3  0  0  0  0  0  0
  192.3160  175.4830  147.5450 C   0  0  0  0  0  2  0  0  0  0  0  0
  189.7700  179.4120  146.4000 C   0  0  0  0  0  1  0  0  0  0  0  0
  188.9050  177.6320  140.1080 C   0  0  0  0  0  3  0  0  0  0  0  0
  188.8630  177.6720  141.5030 C   0  0  0  0  0  0  0  0  0  0  0  0
  189.6390  177.9300  146.7170 C   0  0  2  0  0  3  0  0  0  0  0  0
  184.7780  178.2650  145.8560 C   0  0  0  0  0  2  0  0  0  0  0  0
  182.9000  178.5190  144.4220 O   0  0  0  0  0  1  0  0  0  0  0  0
  183.9180  179.2260  145.0580 C   0  0  0  0  0  2  0  0  0  0  0  0
  1 19  1  6  0  0  0
  1  5  1  0  0  0  0
  1  4  1  0  0  0  0
  2 16  1  0  0  0  0
  2 19  1  0  0  0  0
  3 17  1  0  0  0  0
  3 10  1  0  0  0  0
  4 12  1  0  0  0  0
  5 11  1  0  0  0  0
  7 27  1  0  0  0  0
  7 15  1  0  0  0  0
  8  6  2  0  0  0  0
  9 14  1  0  0  0  0
  9  7  1  0  0  0  0
 10 21  2  0  0  0  0
 10 22  1  0  0  0  0
 11 28  1  0  0  0  0
 11  8  1  0  0  0  0
 12  8  1  0  0  0  0
 12 27  1  0  0  0  0
 13  2  2  0  0  0  0
 14 23  1  0  0  0  0
 17 20  1  0  0  0  0
 18 13  1  0  0  0  0
 18 25  2  0  0  0  0
 20 22  1  0  0  0  0
 20  4  1  0  0  0  0
 22  9  1  0  0  0  0
 23 15  1  0  0  0  0
 24 27  1  0  0  0  0
 25 26  1  0  0  0  0
 26 19  2  0  0  0  0
 26 17  1  0  0  0  0
 29 30  1  0  0  0  0
 30 28  1  0  0  0  0
M  END
>  <MODEL>
9

>  <REMARK>
 VINA RESULT:      -6.5      2.279      5.252
  Name = 
  2 active torsions:
  status: ('A' for Active; 'I' for Inactive)
    1  A    between atoms: C_11  and  C_28
    2  A    between atoms: C_28  and  C_30
                            x       y       z     vdW  Elec       q    Type
                         _______ _______ _______ _____ _____    ______ ____

>  <TORSDO>
F 2

$$$$
