=
 OpenBabel11122410533D

 32 38  0  0  1  0  0  0  0  0999 V2000
  191.9600  176.4230  143.3910 O   0  0  0  0  0  0  0  0  0  0  0  0
  187.2670  178.0860  141.9290 C   0  0  2  0  0  3  0  0  0  0  0  0
  184.6240  178.9950  146.0230 C   0  0  0  0  0  3  0  0  0  0  0  0
  183.4650  178.7250  145.2940 C   0  0  0  0  0  3  0  0  0  0  0  0
  186.0870  178.1830  139.7650 C   0  0  1  0  0  3  0  0  0  0  0  0
  184.8810  178.7970  139.0420 C   0  0  1  0  0  3  0  0  0  0  0  0
  189.7740  177.9190  142.2170 C   0  0  1  0  0  3  0  0  0  0  0  0
  188.2770  178.0270  144.1220 O   0  0  0  0  0  0  0  0  0  0  0  0
  182.5880  179.1790  139.1280 C   0  0  2  0  0  3  0  0  0  0  0  0
  190.6470  178.0750  144.5730 C   0  0  0  0  0  2  0  0  0  0  0  0
  185.8690  178.9660  145.3900 C   0  0  0  0  0  3  0  0  0  0  0  0
  187.3020  178.6890  143.3490 C   0  0  2  0  0  3  0  0  0  0  0  0
  185.9630  178.6600  144.0260 C   0  0  0  0  0  0  0  0  0  0  0  0
  184.9120  178.0500  141.8200 C   0  0  1  0  0  3  0  0  0  0  0  0
  182.8850  178.4090  137.8470 C   0  0  0  0  0  2  0  0  0  0  0  0
  190.7270  175.7480  143.2900 C   0  0  2  0  0  3  0  0  0  0  0  0
  189.5200  178.4640  143.6270 C   0  0  1  0  0  3  0  0  0  0  0  0
  184.2830  177.8720  138.0140 C   0  0  0  0  0  2  0  0  0  0  0  0
  189.8290  176.3880  142.2190 C   0  0  0  0  0  2  0  0  0  0  0  0
  191.0600  176.6030  144.4640 C   0  0  1  0  0  0  0  0  0  0  0  0
  183.5500  178.4400  143.9290 C   0  0  0  0  0  3  0  0  0  0  0  0
  184.7940  178.4370  143.2770 C   0  0  0  0  0  0  0  0  0  0  0  0
  183.6130  178.3010  141.0310 C   0  0  0  0  0  2  0  0  0  0  0  0
  188.6400  178.3910  141.3030 C   0  0  0  0  0  2  0  0  0  0  0  0
  187.2240  178.6020  139.0720 O   0  0  0  0  0  1  0  0  0  0  0  0
  182.1140  180.5770  138.7870 C   0  0  0  0  0  1  0  0  0  0  0  0
  186.1130  178.6300  141.1760 N   0  0  1  0  0  0  0  0  0  0  0  0
  183.8060  179.2480  139.9330 N   0  0  1  0  0  0  0  0  0  0  0  0
  191.5360  175.8770  145.7160 C   0  0  0  0  0  2  0  0  0  0  0  0
  191.0560  176.5400  146.9690 C   0  0  0  0  0  0  0  0  0  0  0  0
  189.5940  176.6600  147.2280 C   0  0  0  0  0  1  0  0  0  0  0  0
  191.8540  177.0050  147.7660 O   0  0  0  0  0  0  0  0  0  0  0  0
  1 20  1  0  0  0  0
  2 24  1  6  0  0  0
  2 12  1  0  0  0  0
  4  3  2  0  0  0  0
  5 25  1  6  0  0  0
  5 27  1  0  0  0  0
  6 18  1  6  0  0  0
  6  5  1  0  0  0  0
  6 28  1  0  0  0  0
  7 24  1  6  0  0  0
  7 19  1  0  0  0  0
  7 17  1  0  0  0  0
  9 26  1  6  0  0  0
  9 28  1  0  0  0  0
 11  3  1  0  0  0  0
 12 13  1  1  0  0  0
 12  8  1  0  0  0  0
 13 11  2  0  0  0  0
 14 23  1  6  0  0  0
 14 22  1  0  0  0  0
 15 18  1  0  0  0  0
 15  9  1  0  0  0  0
 16 19  1  6  0  0  0
 16  1  1  0  0  0  0
 16 20  1  0  0  0  0
 17  8  1  0  0  0  0
 17 10  1  1  0  0  0
 20 10  1  0  0  0  0
 20 29  1  1  0  0  0
 21  4  1  0  0  0  0
 22 21  2  0  0  0  0
 22 13  1  0  0  0  0
 27 14  1  0  0  0  0
 27  2  1  0  0  0  0
 28 23  1  0  0  0  0
 29 30  1  0  0  0  0
 30 31  1  0  0  0  0
 30 32  2  0  0  0  0
M  END
>  <MODEL>
1

>  <REMARK>
 VINA RESULT:      -9.7      0.000      0.000
  Name = 
  2 active torsions:
  status: ('A' for Active; 'I' for Inactive)
    1  A    between atoms: C_20  and  C_29
    2  A    between atoms: C_29  and  C_30
                            x       y       z     vdW  Elec       q    Type
                         _______ _______ _______ _____ _____    ______ ____

>  <TORSDO>
F 2

$$$$
=
 OpenBabel11122410533D

 32 38  0  0  1  0  0  0  0  0999 V2000
  191.3870  175.6460  136.4310 O   0  0  0  0  0  0  0  0  0  0  0  0
  188.6780  177.4290  140.4810 C   0  0  2  0  0  3  0  0  0  0  0  0
  191.4720  176.8990  144.5410 C   0  0  0  0  0  3  0  0  0  0  0  0
  190.3010  176.8050  145.2940 C   0  0  0  0  0  3  0  0  0  0  0  0
  186.3320  178.1240  140.7940 C   0  0  1  0  0  3  0  0  0  0  0  0
  185.3790  178.8660  141.7410 C   0  0  1  0  0  3  0  0  0  0  0  0
  189.8810  177.3130  138.2600 C   0  0  1  0  0  3  0  0  0  0  0  0
  190.9920  176.7540  140.3410 O   0  0  0  0  0  0  0  0  0  0  0  0
  184.6470  179.0820  143.9370 C   0  0  2  0  0  3  0  0  0  0  0  0
  192.3410  176.7850  138.3400 C   0  0  0  0  0  2  0  0  0  0  0  0
  191.4020  177.1310  143.1650 C   0  0  0  0  0  3  0  0  0  0  0  0
  190.1000  177.5680  141.0650 C   0  0  2  0  0  3  0  0  0  0  0  0
  190.1580  177.2630  142.5330 C   0  0  0  0  0  0  0  0  0  0  0  0
  187.6400  177.3060  142.5950 C   0  0  1  0  0  3  0  0  0  0  0  0
  183.4360  178.7600  143.0720 C   0  0  0  0  0  2  0  0  0  0  0  0
  190.6330  174.9710  137.4110 C   0  0  2  0  0  3  0  0  0  0  0  0
  191.1640  177.3850  139.0950 C   0  0  1  0  0  3  0  0  0  0  0  0
  183.9950  178.2710  141.7610 C   0  0  0  0  0  2  0  0  0  0  0  0
  189.5030  175.8600  137.9530 C   0  0  0  0  0  2  0  0  0  0  0  0
  192.0230  175.4410  137.6750 C   0  0  1  0  0  0  0  0  0  0  0  0
  189.0580  176.9580  144.6740 C   0  0  0  0  0  3  0  0  0  0  0  0
  188.9770  177.2200  143.2960 C   0  0  0  0  0  0  0  0  0  0  0  0
  186.4970  177.7180  143.5410 C   0  0  0  0  0  2  0  0  0  0  0  0
  188.7520  177.9830  139.0470 C   0  0  0  0  0  2  0  0  0  0  0  0
  186.2820  178.7940  139.5700 O   0  0  0  0  0  1  0  0  0  0  0  0
  184.5260  180.4920  144.4830 C   0  0  0  0  0  1  0  0  0  0  0  0
  187.7010  178.1170  141.3570 N   0  0  1  0  0  0  0  0  0  0  0  0
  185.8550  178.9650  143.1250 N   0  0  1  0  0  0  0  0  0  0  0  0
  193.1220  174.3910  137.5710 C   0  0  0  0  0  2  0  0  0  0  0  0
  194.4640  175.0030  137.3200 C   0  0  0  0  0  0  0  0  0  0  0  0
  194.8290  175.4460  135.9460 C   0  0  0  0  0  1  0  0  0  0  0  0
  195.2710  175.1180  138.2280 O   0  0  0  0  0  0  0  0  0  0  0  0
  1 16  1  0  0  0  0
  1 20  1  0  0  0  0
  2 24  1  6  0  0  0
  2 12  1  0  0  0  0
  2 27  1  0  0  0  0
  3  4  1  0  0  0  0
  5 25  1  6  0  0  0
  5 27  1  0  0  0  0
  5  6  1  0  0  0  0
  6 18  1  1  0  0  0
  6 28  1  0  0  0  0
  7 19  1  1  0  0  0
  7 24  1  0  0  0  0
  7 17  1  0  0  0  0
  9 26  1  6  0  0  0
 11  3  2  0  0  0  0
 12  8  1  6  0  0  0
 12 13  1  0  0  0  0
 13 11  1  0  0  0  0
 13 22  2  0  0  0  0
 14 22  1  0  0  0  0
 14 23  1  1  0  0  0
 15  9  1  0  0  0  0
 16 20  1  0  0  0  0
 16 19  1  1  0  0  0
 17 10  1  6  0  0  0
 17  8  1  0  0  0  0
 18 15  1  0  0  0  0
 20 29  1  1  0  0  0
 20 10  1  0  0  0  0
 21  4  2  0  0  0  0
 22 21  1  0  0  0  0
 27 14  1  0  0  0  0
 28 23  1  0  0  0  0
 28  9  1  0  0  0  0
 30 29  1  0  0  0  0
 30 32  2  0  0  0  0
 31 30  1  0  0  0  0
M  END
>  <MODEL>
2

>  <REMARK>
 VINA RESULT:      -8.9      3.471      5.858
  Name = 
  2 active torsions:
  status: ('A' for Active; 'I' for Inactive)
    1  A    between atoms: C_20  and  C_29
    2  A    between atoms: C_29  and  C_30
                            x       y       z     vdW  Elec       q    Type
                         _______ _______ _______ _____ _____    ______ ____

>  <TORSDO>
F 2

$$$$
=
 OpenBabel11122410533D

 32 38  0  0  1  0  0  0  0  0999 V2000
  192.0330  176.7030  145.8680 O   0  0  0  0  0  0  0  0  0  0  0  0
  190.2260  177.2690  141.0380 C   0  0  2  0  0  3  0  0  0  0  0  0
  185.6810  179.2290  141.3270 C   0  0  0  0  0  3  0  0  0  0  0  0
  185.3720  178.6080  140.1160 C   0  0  0  0  0  3  0  0  0  0  0  0
  190.9980  176.5030  138.8240 C   0  0  1  0  0  3  0  0  0  0  0  0
  190.8160  176.7060  137.3130 C   0  0  1  0  0  3  0  0  0  0  0  0
  191.6760  177.4740  143.0990 C   0  0  1  0  0  3  0  0  0  0  0  0
  189.3240  178.0640  143.1330 O   0  0  0  0  0  0  0  0  0  0  0  0
  189.2810  176.8510  135.5730 C   0  0  2  0  0  3  0  0  0  0  0  0
  190.6060  178.5100  145.1280 C   0  0  0  0  0  2  0  0  0  0  0  0
  186.9670  179.1190  141.8610 C   0  0  0  0  0  3  0  0  0  0  0  0
  189.3430  178.3180  141.7470 C   0  0  2  0  0  3  0  0  0  0  0  0
  187.9510  178.3800  141.1900 C   0  0  0  0  0  0  0  0  0  0  0  0
  188.7110  176.9520  139.2580 C   0  0  1  0  0  3  0  0  0  0  0  0
  190.2560  175.7290  135.2420 C   0  0  0  0  0  2  0  0  0  0  0  0
  191.1520  175.9080  145.1090 C   0  0  2  0  0  3  0  0  0  0  0  0
  190.5960  178.4350  143.6080 C   0  0  1  0  0  3  0  0  0  0  0  0
  190.9800  175.4300  136.5290 C   0  0  0  0  0  2  0  0  0  0  0  0
  191.4310  176.0490  143.6050 C   0  0  0  0  0  2  0  0  0  0  0  0
  190.6920  177.1410  145.8100 C   0  0  1  0  0  0  0  0  0  0  0  0
  186.3550  177.8880  139.4310 C   0  0  0  0  0  3  0  0  0  0  0  0
  187.6590  177.7950  139.9440 C   0  0  0  0  0  0  0  0  0  0  0  0
  188.4470  176.7830  137.7510 C   0  0  0  0  0  2  0  0  0  0  0  0
  191.6540  177.4880  141.5670 C   0  0  0  0  0  2  0  0  0  0  0  0
  192.3370  176.7800  139.1060 O   0  0  0  0  0  1  0  0  0  0  0  0
  189.4620  177.9940  134.5940 C   0  0  0  0  0  1  0  0  0  0  0  0
  190.0870  177.4020  139.5680 N   0  0  1  0  0  0  0  0  0  0  0  0
  189.5370  177.3160  136.9340 N   0  0  1  0  0  0  0  0  0  0  0  0
  189.9830  176.9350  147.1430 C   0  0  0  0  0  2  0  0  0  0  0  0
  188.6040  177.5160  147.1430 C   0  0  0  0  0  0  0  0  0  0  0  0
  188.1070  178.2410  148.3460 C   0  0  0  0  0  1  0  0  0  0  0  0
  187.8740  177.3770  146.1750 O   0  0  0  0  0  0  0  0  0  0  0  0
  2 24  1  6  0  0  0
  2 12  1  0  0  0  0
  3 11  1  0  0  0  0
  4  3  2  0  0  0  0
  5 25  1  1  0  0  0
  5 27  1  0  0  0  0
  6 18  1  6  0  0  0
  6  5  1  0  0  0  0
  7 24  1  6  0  0  0
  7 19  1  0  0  0  0
  7 17  1  0  0  0  0
  8 17  1  0  0  0  0
  9 26  1  6  0  0  0
  9 28  1  0  0  0  0
 10 20  1  0  0  0  0
 12 13  1  6  0  0  0
 12  8  1  0  0  0  0
 13 11  2  0  0  0  0
 14 23  1  6  0  0  0
 14 27  1  0  0  0  0
 14 22  1  0  0  0  0
 15  9  1  0  0  0  0
 15 18  1  0  0  0  0
 16 19  1  6  0  0  0
 16 20  1  0  0  0  0
 16  1  1  0  0  0  0
 17 10  1  1  0  0  0
 20  1  1  0  0  0  0
 20 29  1  1  0  0  0
 21 22  2  0  0  0  0
 21  4  1  0  0  0  0
 22 13  1  0  0  0  0
 27  2  1  0  0  0  0
 28  6  1  0  0  0  0
 28 23  1  0  0  0  0
 29 30  1  0  0  0  0
 30 31  1  0  0  0  0
 32 30  2  0  0  0  0
M  END
>  <MODEL>
3

>  <REMARK>
 VINA RESULT:      -8.4      3.117      4.687
  Name = 
  2 active torsions:
  status: ('A' for Active; 'I' for Inactive)
    1  A    between atoms: C_20  and  C_29
    2  A    between atoms: C_29  and  C_30
                            x       y       z     vdW  Elec       q    Type
                         _______ _______ _______ _____ _____    ______ ____

>  <TORSDO>
F 2

$$$$
=
 OpenBabel11122410533D

 32 38  0  0  1  0  0  0  0  0999 V2000
  181.9820  178.5940  139.4950 O   0  0  0  0  0  0  0  0  0  0  0  0
  185.9340  178.2020  142.8340 C   0  0  2  0  0  3  0  0  0  0  0  0
  190.0680  177.3960  140.2210 C   0  0  0  0  0  3  0  0  0  0  0  0
  190.5990  176.7330  141.3280 C   0  0  0  0  0  3  0  0  0  0  0  0
  186.0830  178.0220  145.2900 C   0  0  1  0  0  3  0  0  0  0  0  0
  187.0470  178.1280  146.4800 C   0  0  1  0  0  3  0  0  0  0  0  0
  183.9500  179.1120  141.5560 C   0  0  1  0  0  3  0  0  0  0  0  0
  185.9500  178.3390  140.4230 O   0  0  0  0  0  0  0  0  0  0  0  0
  189.0990  177.4600  147.3460 C   0  0  2  0  0  3  0  0  0  0  0  0
  184.2350  179.3630  139.0680 C   0  0  0  0  0  2  0  0  0  0  0  0
  188.8040  177.9840  140.2990 C   0  0  0  0  0  3  0  0  0  0  0  0
  186.7280  178.5940  141.5700 C   0  0  2  0  0  3  0  0  0  0  0  0
  188.0590  177.9080  141.4840 C   0  0  0  0  0  0  0  0  0  0  0  0
  187.7760  177.1570  143.8720 C   0  0  1  0  0  3  0  0  0  0  0  0
  188.0180  177.0480  148.3380 C   0  0  0  0  0  2  0  0  0  0  0  0
  182.6370  177.4660  140.0270 C   0  0  2  0  0  3  0  0  0  0  0  0
  184.9470  179.3270  140.4120 C   0  0  1  0  0  3  0  0  0  0  0  0
  186.7170  177.1590  147.5850 C   0  0  0  0  0  2  0  0  0  0  0  0
  183.2270  177.7690  141.4130 C   0  0  0  0  0  2  0  0  0  0  0  0
  183.2070  178.2410  138.8880 C   0  0  1  0  0  0  0  0  0  0  0  0
  189.8710  176.6710  142.5200 C   0  0  0  0  0  3  0  0  0  0  0  0
  188.6110  177.2850  142.6180 C   0  0  0  0  0  0  0  0  0  0  0  0
  188.6260  176.9060  145.1300 C   0  0  0  0  0  2  0  0  0  0  0  0
  184.7180  179.1440  142.8810 C   0  0  0  0  0  2  0  0  0  0  0  0
  185.0810  178.9710  145.5010 O   0  0  0  0  0  1  0  0  0  0  0  0
  189.9690  178.5420  147.9560 C   0  0  0  0  0  1  0  0  0  0  0  0
  186.8120  178.2710  144.0250 N   0  0  1  0  0  0  0  0  0  0  0  0
  188.4620  177.9600  146.1310 N   0  0  1  0  0  0  0  0  0  0  0  0
  182.9900  177.6570  137.4980 C   0  0  0  0  0  2  0  0  0  0  0  0
  184.1870  176.9020  137.0100 C   0  0  0  0  0  0  0  0  0  0  0  0
  184.3110  175.4460  137.3020 C   0  0  0  0  0  1  0  0  0  0  0  0
  185.0720  177.4760  136.3990 O   0  0  0  0  0  0  0  0  0  0  0  0
  1 16  1  0  0  0  0
  2 24  1  1  0  0  0
  2 27  1  0  0  0  0
  3 11  2  0  0  0  0
  3  4  1  0  0  0  0
  4 21  2  0  0  0  0
  5 25  1  1  0  0  0
  5  6  1  0  0  0  0
  6 18  1  1  0  0  0
  7 19  1  6  0  0  0
  7 24  1  0  0  0  0
  9 26  1  1  0  0  0
  9 15  1  0  0  0  0
 11 13  1  0  0  0  0
 12  8  1  6  0  0  0
 12  2  1  0  0  0  0
 13 12  1  0  0  0  0
 13 22  2  0  0  0  0
 14 27  1  0  0  0  0
 14 23  1  1  0  0  0
 16 19  1  1  0  0  0
 17 10  1  6  0  0  0
 17  8  1  0  0  0  0
 17  7  1  0  0  0  0
 18 15  1  0  0  0  0
 20 29  1  6  0  0  0
 20 10  1  0  0  0  0
 20  1  1  0  0  0  0
 20 16  1  0  0  0  0
 21 22  1  0  0  0  0
 22 14  1  0  0  0  0
 23 28  1  0  0  0  0
 27  5  1  0  0  0  0
 28  6  1  0  0  0  0
 28  9  1  0  0  0  0
 30 31  1  0  0  0  0
 30 29  1  0  0  0  0
 32 30  2  0  0  0  0
M  END
>  <MODEL>
4

>  <REMARK>
 VINA RESULT:      -8.2      2.661      8.152
  Name = 
  2 active torsions:
  status: ('A' for Active; 'I' for Inactive)
    1  A    between atoms: C_20  and  C_29
    2  A    between atoms: C_29  and  C_30
                            x       y       z     vdW  Elec       q    Type
                         _______ _______ _______ _____ _____    ______ ____

>  <TORSDO>
F 2

$$$$
=
 OpenBabel11122410533D

 32 38  0  0  1  0  0  0  0  0999 V2000
  187.9970  177.0530  136.1210 O   0  0  0  0  0  0  0  0  0  0  0  0
  187.6310  177.8670  141.2320 C   0  0  2  0  0  3  0  0  0  0  0  0
  191.9650  176.6220  143.2910 C   0  0  0  0  0  3  0  0  0  0  0  0
  191.2830  176.3330  144.4740 C   0  0  0  0  0  3  0  0  0  0  0  0
  185.7580  178.3940  142.7480 C   0  0  1  0  0  3  0  0  0  0  0  0
  185.4120  178.8910  144.1590 C   0  0  1  0  0  3  0  0  0  0  0  0
  187.6390  178.2530  138.7330 C   0  0  1  0  0  3  0  0  0  0  0  0
  189.5590  177.3220  139.8840 O   0  0  0  0  0  0  0  0  0  0  0  0
  185.8140  178.6250  146.4330 C   0  0  2  0  0  3  0  0  0  0  0  0
  189.8080  177.8120  137.5340 C   0  0  0  0  0  2  0  0  0  0  0  0
  191.2710  177.1280  142.1900 C   0  0  0  0  0  3  0  0  0  0  0  0
  189.1660  177.9370  141.0890 C   0  0  2  0  0  3  0  0  0  0  0  0
  189.8880  177.3400  142.2610 C   0  0  0  0  0  0  0  0  0  0  0  0
  187.7030  177.2750  143.5140 C   0  0  1  0  0  3  0  0  0  0  0  0
  184.3210  178.4410  146.1990 C   0  0  0  0  0  2  0  0  0  0  0  0
  187.7500  176.1640  137.1850 C   0  0  2  0  0  3  0  0  0  0  0  0
  189.1650  178.2010  138.8570 C   0  0  1  0  0  3  0  0  0  0  0  0
  184.1650  178.2530  144.7130 C   0  0  0  0  0  2  0  0  0  0  0  0
  187.0680  176.8810  138.3610 C   0  0  0  0  0  2  0  0  0  0  0  0
  189.1280  176.6220  136.8480 C   0  0  1  0  0  0  0  0  0  0  0  0
  189.9070  176.5630  144.5590 C   0  0  0  0  0  3  0  0  0  0  0  0
  189.2040  177.0970  143.4670 C   0  0  0  0  0  0  0  0  0  0  0  0
  187.1690  177.4420  144.9480 C   0  0  0  0  0  2  0  0  0  0  0  0
  187.0580  178.7050  140.0760 C   0  0  0  0  0  2  0  0  0  0  0  0
  185.1830  179.2980  141.8540 O   0  0  0  0  0  1  0  0  0  0  0  0
  186.0550  179.8880  147.2380 C   0  0  0  0  0  1  0  0  0  0  0  0
  187.2280  178.3230  142.5830 N   0  0  1  0  0  0  0  0  0  0  0  0
  186.4890  178.7220  145.1410 N   0  0  1  0  0  0  0  0  0  0  0  0
  189.9790  175.6580  136.0310 C   0  0  0  0  0  2  0  0  0  0  0  0
  191.1690  175.1690  136.7960 C   0  0  0  0  0  0  0  0  0  0  0  0
  192.5410  175.4730  136.3010 C   0  0  0  0  0  1  0  0  0  0  0  0
  191.0240  174.5020  137.8070 O   0  0  0  0  0  0  0  0  0  0  0  0
  1 20  1  0  0  0  0
  1 16  1  0  0  0  0
  2 24  1  6  0  0  0
  2 27  1  0  0  0  0
  3  4  1  0  0  0  0
  4 21  2  0  0  0  0
  5 25  1  6  0  0  0
  5  6  1  0  0  0  0
  6 18  1  1  0  0  0
  6 28  1  0  0  0  0
  7 19  1  1  0  0  0
  7 17  1  0  0  0  0
  7 24  1  0  0  0  0
  9 26  1  1  0  0  0
 11 13  1  0  0  0  0
 11  3  2  0  0  0  0
 12  8  1  6  0  0  0
 12  2  1  0  0  0  0
 12 13  1  0  0  0  0
 13 22  2  0  0  0  0
 14 23  1  1  0  0  0
 15  9  1  0  0  0  0
 16 19  1  1  0  0  0
 17 10  1  6  0  0  0
 17  8  1  0  0  0  0
 18 15  1  0  0  0  0
 20 29  1  6  0  0  0
 20 16  1  0  0  0  0
 20 10  1  0  0  0  0
 22 14  1  0  0  0  0
 22 21  1  0  0  0  0
 23 28  1  0  0  0  0
 27  5  1  0  0  0  0
 27 14  1  0  0  0  0
 28  9  1  0  0  0  0
 29 30  1  0  0  0  0
 30 32  2  0  0  0  0
 31 30  1  0  0  0  0
M  END
>  <MODEL>
5

>  <REMARK>
 VINA RESULT:      -8.0      2.984      6.658
  Name = 
  2 active torsions:
  status: ('A' for Active; 'I' for Inactive)
    1  A    between atoms: C_20  and  C_29
    2  A    between atoms: C_29  and  C_30
                            x       y       z     vdW  Elec       q    Type
                         _______ _______ _______ _____ _____    ______ ____

>  <TORSDO>
F 2

$$$$
=
 OpenBabel11122410533D

 32 38  0  0  1  0  0  0  0  0999 V2000
  188.8320  177.5110  144.8210 O   0  0  0  0  0  0  0  0  0  0  0  0
  190.6680  176.8460  140.0130 C   0  0  2  0  0  3  0  0  0  0  0  0
  186.8380  177.0540  136.8730 C   0  0  0  0  0  3  0  0  0  0  0  0
  187.5520  176.2330  135.9990 C   0  0  0  0  0  3  0  0  0  0  0  0
  192.8570  176.1690  139.0990 C   0  0  1  0  0  3  0  0  0  0  0  0
  193.6990  176.1230  137.8170 C   0  0  1  0  0  3  0  0  0  0  0  0
  190.2820  177.7880  142.3280 C   0  0  1  0  0  3  0  0  0  0  0  0
  188.4610  177.4900  140.7540 O   0  0  0  0  0  0  0  0  0  0  0  0
  193.7400  175.5090  135.5750 C   0  0  2  0  0  3  0  0  0  0  0  0
  187.9510  178.5880  142.8420 C   0  0  0  0  0  2  0  0  0  0  0  0
  187.4210  177.4750  138.0700 C   0  0  0  0  0  3  0  0  0  0  0  0
  189.3540  177.5780  139.6680 C   0  0  2  0  0  3  0  0  0  0  0  0
  188.7200  177.0710  138.4050 C   0  0  0  0  0  0  0  0  0  0  0  0
  190.8410  175.8080  137.9030 C   0  0  1  0  0  3  0  0  0  0  0  0
  194.8820  174.7850  136.2770 C   0  0  0  0  0  2  0  0  0  0  0  0
  188.8680  176.3720  143.9920 C   0  0  2  0  0  3  0  0  0  0  0  0
  188.9780  178.3450  141.7460 C   0  0  1  0  0  3  0  0  0  0  0  0
  194.5950  174.9130  137.7500 C   0  0  0  0  0  2  0  0  0  0  0  0
  190.0490  176.4360  143.0100 C   0  0  0  0  0  2  0  0  0  0  0  0
  187.8260  177.4260  143.8340 C   0  0  1  0  0  0  0  0  0  0  0  0
  188.8570  175.8440  136.3170 C   0  0  0  0  0  3  0  0  0  0  0  0
  189.4630  176.2850  137.5050 C   0  0  0  0  0  0  0  0  0  0  0  0
  191.6970  175.3880  136.6940 C   0  0  0  0  0  2  0  0  0  0  0  0
  191.2900  177.6220  141.1870 C   0  0  0  0  0  2  0  0  0  0  0  0
  193.5700  176.9390  140.0190 O   0  0  0  0  0  1  0  0  0  0  0  0
  194.3010  176.5240  134.5980 C   0  0  0  0  0  1  0  0  0  0  0  0
  191.5280  176.7550  138.8100 N   0  0  1  0  0  0  0  0  0  0  0  0
  192.9190  176.1840  136.5770 N   0  0  1  0  0  0  0  0  0  0  0  0
  186.4650  177.1290  144.4520 C   0  0  0  0  0  2  0  0  0  0  0  0
  185.7390  178.3770  144.8450 C   0  0  0  0  0  0  0  0  0  0  0  0
  184.6390  178.8940  143.9840 C   0  0  0  0  0  1  0  0  0  0  0  0
  186.0600  178.9880  145.8520 O   0  0  0  0  0  0  0  0  0  0  0  0
  2 24  1  1  0  0  0
  3 11  1  0  0  0  0
  4 21  1  0  0  0  0
  4  3  2  0  0  0  0
  5 25  1  1  0  0  0
  6 18  1  6  0  0  0
  6  5  1  0  0  0  0
  7 24  1  6  0  0  0
  7 19  1  0  0  0  0
  8 17  1  0  0  0  0
  9 26  1  6  0  0  0
  9 15  1  0  0  0  0
  9 28  1  0  0  0  0
 10 20  1  0  0  0  0
 11 13  2  0  0  0  0
 12 13  1  6  0  0  0
 12  2  1  0  0  0  0
 12  8  1  0  0  0  0
 14 23  1  6  0  0  0
 14 27  1  0  0  0  0
 15 18  1  0  0  0  0
 16 19  1  6  0  0  0
 16  1  1  0  0  0  0
 17  7  1  0  0  0  0
 17 10  1  1  0  0  0
 20 16  1  0  0  0  0
 20 29  1  1  0  0  0
 20  1  1  0  0  0  0
 21 22  2  0  0  0  0
 22 14  1  0  0  0  0
 22 13  1  0  0  0  0
 27  5  1  0  0  0  0
 27  2  1  0  0  0  0
 28 23  1  0  0  0  0
 28  6  1  0  0  0  0
 29 30  1  0  0  0  0
 30 32  2  0  0  0  0
 31 30  1  0  0  0  0
M  END
>  <MODEL>
6

>  <REMARK>
 VINA RESULT:      -7.8      4.357      7.455
  Name = 
  2 active torsions:
  status: ('A' for Active; 'I' for Inactive)
    1  A    between atoms: C_20  and  C_29
    2  A    between atoms: C_29  and  C_30
                            x       y       z     vdW  Elec       q    Type
                         _______ _______ _______ _____ _____    ______ ____

>  <TORSDO>
F 2

$$$$
=
 OpenBabel11122410533D

 32 38  0  0  1  0  0  0  0  0999 V2000
  187.7450  178.1220  145.0220 O   0  0  0  0  0  0  0  0  0  0  0  0
  184.0970  178.4340  141.3460 C   0  0  2  0  0  3  0  0  0  0  0  0
  179.6810  178.6280  143.5880 C   0  0  0  0  0  3  0  0  0  0  0  0
  179.1150  178.0460  142.4520 C   0  0  0  0  0  3  0  0  0  0  0  0
  184.1200  178.1880  138.8910 C   0  0  1  0  0  3  0  0  0  0  0  0
  183.3060  178.4440  137.6160 C   0  0  1  0  0  3  0  0  0  0  0  0
  186.1140  178.9570  142.7780 C   0  0  1  0  0  3  0  0  0  0  0  0
  183.9070  178.6720  143.7410 O   0  0  0  0  0  0  0  0  0  0  0  0
  181.2390  178.1890  136.5810 C   0  0  2  0  0  3  0  0  0  0  0  0
  185.6800  179.3660  145.2230 C   0  0  0  0  0  2  0  0  0  0  0  0
  181.0430  178.9330  143.6120 C   0  0  0  0  0  3  0  0  0  0  0  0
  183.3020  179.0370  142.5230 C   0  0  2  0  0  3  0  0  0  0  0  0
  181.8520  178.6510  142.5030 C   0  0  0  0  0  0  0  0  0  0  0  0
  182.1690  177.7590  140.1680 C   0  0  1  0  0  3  0  0  0  0  0  0
  182.2860  177.5180  135.7020 C   0  0  0  0  0  2  0  0  0  0  0  0
  186.9110  177.1370  144.4580 C   0  0  2  0  0  3  0  0  0  0  0  0
  185.0940  179.4250  143.8210 C   0  0  1  0  0  3  0  0  0  0  0  0
  183.5120  177.3820  136.5680 C   0  0  0  0  0  2  0  0  0  0  0  0
  186.5190  177.4990  143.0170 C   0  0  0  0  0  2  0  0  0  0  0  0
  186.4270  178.0610  145.5230 C   0  0  1  0  0  0  0  0  0  0  0  0
  179.9110  177.7830  141.3340 C   0  0  0  0  0  3  0  0  0  0  0  0
  181.2770  178.1120  141.3370 C   0  0  0  0  0  0  0  0  0  0  0  0
  181.3930  177.6400  138.8430 C   0  0  0  0  0  2  0  0  0  0  0  0
  185.4860  179.0960  141.3880 C   0  0  0  0  0  2  0  0  0  0  0  0
  185.3160  178.8930  138.7500 O   0  0  0  0  0  1  0  0  0  0  0  0
  180.6750  179.4030  135.8700 C   0  0  0  0  0  1  0  0  0  0  0  0
  183.3580  178.6370  140.0780 N   0  0  1  0  0  0  0  0  0  0  0  0
  181.8630  178.5940  137.8380 N   0  0  1  0  0  0  0  0  0  0  0  0
  186.3950  177.5030  146.9400 C   0  0  0  0  0  2  0  0  0  0  0  0
  187.6160  177.8780  147.7210 C   0  0  0  0  0  0  0  0  0  0  0  0
  188.8000  176.9740  147.7190 C   0  0  0  0  0  1  0  0  0  0  0  0
  187.6370  178.9040  148.3790 O   0  0  0  0  0  0  0  0  0  0  0  0
  1 20  1  0  0  0  0
  2 24  1  6  0  0  0
  2 12  1  0  0  0  0
  3 11  1  0  0  0  0
  4  3  2  0  0  0  0
  5 25  1  6  0  0  0
  5 27  1  0  0  0  0
  6 18  1  6  0  0  0
  6 28  1  0  0  0  0
  6  5  1  0  0  0  0
  7 24  1  6  0  0  0
  7 19  1  0  0  0  0
  7 17  1  0  0  0  0
  8 17  1  0  0  0  0
  9 26  1  6  0  0  0
  9 28  1  0  0  0  0
 10 20  1  0  0  0  0
 12 13  1  1  0  0  0
 12  8  1  0  0  0  0
 13 11  2  0  0  0  0
 14 23  1  6  0  0  0
 14 22  1  0  0  0  0
 15 18  1  0  0  0  0
 15  9  1  0  0  0  0
 16 19  1  6  0  0  0
 16  1  1  0  0  0  0
 16 20  1  0  0  0  0
 17 10  1  1  0  0  0
 20 29  1  1  0  0  0
 21 22  2  0  0  0  0
 21  4  1  0  0  0  0
 22 13  1  0  0  0  0
 27 14  1  0  0  0  0
 27  2  1  0  0  0  0
 28 23  1  0  0  0  0
 29 30  1  0  0  0  0
 30 32  2  0  0  0  0
 31 30  1  0  0  0  0
M  END
>  <MODEL>
7

>  <REMARK>
 VINA RESULT:      -7.8      2.520      3.901
  Name = 
  2 active torsions:
  status: ('A' for Active; 'I' for Inactive)
    1  A    between atoms: C_20  and  C_29
    2  A    between atoms: C_29  and  C_30
                            x       y       z     vdW  Elec       q    Type
                         _______ _______ _______ _____ _____    ______ ____

>  <TORSDO>
F 2

$$$$
=
 OpenBabel11122410533D

 32 38  0  0  1  0  0  0  0  0999 V2000
  181.2700  178.2480  139.7230 O   0  0  0  0  0  0  0  0  0  0  0  0
  186.2450  178.1980  141.1980 C   0  0  2  0  0  3  0  0  0  0  0  0
  189.0490  178.0920  137.1120 C   0  0  0  0  0  3  0  0  0  0  0  0
  190.0410  177.4450  137.8500 C   0  0  0  0  0  3  0  0  0  0  0  0
  187.3800  177.9030  143.3680 C   0  0  1  0  0  3  0  0  0  0  0  0
  188.7230  178.0690  144.0930 C   0  0  1  0  0  3  0  0  0  0  0  0
  183.8360  178.9060  140.8960 C   0  0  1  0  0  3  0  0  0  0  0  0
  185.2830  178.4700  139.0000 O   0  0  0  0  0  0  0  0  0  0  0  0
  191.0050  177.6320  144.0170 C   0  0  2  0  0  3  0  0  0  0  0  0
  183.0770  179.3310  138.5340 C   0  0  0  0  0  2  0  0  0  0  0  0
  187.8700  178.5030  137.7370 C   0  0  0  0  0  3  0  0  0  0  0  0
  186.4240  178.7610  139.7720 C   0  0  2  0  0  3  0  0  0  0  0  0
  187.6720  178.2630  139.1030 C   0  0  0  0  0  0  0  0  0  0  0  0
  188.4420  177.3500  141.3210 C   0  0  1  0  0  3  0  0  0  0  0  0
  190.4570  177.0260  145.3030 C   0  0  0  0  0  2  0  0  0  0  0  0
  182.1920  177.1890  139.8370 C   0  0  2  0  0  3  0  0  0  0  0  0
  184.2660  179.3150  139.4830 C   0  0  1  0  0  3  0  0  0  0  0  0
  188.9600  177.0050  145.1320 C   0  0  0  0  0  2  0  0  0  0  0  0
  183.2540  177.4890  140.9080 C   0  0  0  0  0  2  0  0  0  0  0  0
  182.1790  178.0950  138.6530 C   0  0  1  0  0  0  0  0  0  0  0  0
  189.8600  177.2220  139.2170 C   0  0  0  0  0  3  0  0  0  0  0  0
  188.6900  177.6560  139.8620 C   0  0  0  0  0  0  0  0  0  0  0  0
  189.7450  177.1440  142.1160 C   0  0  0  0  0  2  0  0  0  0  0  0
  185.0620  178.9660  141.8120 C   0  0  0  0  0  2  0  0  0  0  0  0
  186.4570  178.6970  144.0510 O   0  0  0  0  0  1  0  0  0  0  0  0
  191.9340  178.7830  144.3480 C   0  0  0  0  0  1  0  0  0  0  0  0
  187.5140  178.3160  141.9530 N   0  0  1  0  0  0  0  0  0  0  0  0
  189.8890  178.1100  143.2040 N   0  0  1  0  0  0  0  0  0  0  0  0
  181.4850  177.5650  137.4050 C   0  0  0  0  0  2  0  0  0  0  0  0
  182.4540  177.2650  136.3050 C   0  0  0  0  0  0  0  0  0  0  0  0
  182.2510  177.8700  134.9580 C   0  0  0  0  0  1  0  0  0  0  0  0
  183.3920  176.5090  136.4960 O   0  0  0  0  0  0  0  0  0  0  0  0
  1 16  1  0  0  0  0
  2 24  1  1  0  0  0
  2 27  1  0  0  0  0
  3 11  2  0  0  0  0
  3  4  1  0  0  0  0
  4 21  2  0  0  0  0
  5 25  1  1  0  0  0
  5  6  1  0  0  0  0
  6 18  1  1  0  0  0
  7 19  1  6  0  0  0
  7 24  1  0  0  0  0
  8 17  1  0  0  0  0
  9 26  1  1  0  0  0
  9 15  1  0  0  0  0
 10 20  1  0  0  0  0
 11 13  1  0  0  0  0
 12  8  1  6  0  0  0
 12  2  1  0  0  0  0
 13 12  1  0  0  0  0
 13 22  2  0  0  0  0
 14 27  1  0  0  0  0
 14 23  1  1  0  0  0
 16 19  1  1  0  0  0
 17 10  1  6  0  0  0
 17  7  1  0  0  0  0
 18 15  1  0  0  0  0
 20 29  1  6  0  0  0
 20  1  1  0  0  0  0
 20 16  1  0  0  0  0
 21 22  1  0  0  0  0
 22 14  1  0  0  0  0
 23 28  1  0  0  0  0
 27  5  1  0  0  0  0
 28  9  1  0  0  0  0
 28  6  1  0  0  0  0
 30 32  2  0  0  0  0
 30 29  1  0  0  0  0
 31 30  1  0  0  0  0
M  END
>  <MODEL>
8

>  <REMARK>
 VINA RESULT:      -7.7      2.464      8.607
  Name = 
  2 active torsions:
  status: ('A' for Active; 'I' for Inactive)
    1  A    between atoms: C_20  and  C_29
    2  A    between atoms: C_29  and  C_30
                            x       y       z     vdW  Elec       q    Type
                         _______ _______ _______ _____ _____    ______ ____

>  <TORSDO>
F 2

$$$$
=
 OpenBabel11122410533D

 32 38  0  0  1  0  0  0  0  0999 V2000
  190.3370  176.7620  137.3480 O   0  0  0  0  0  0  0  0  0  0  0  0
  185.3220  177.6940  138.2950 C   0  0  2  0  0  3  0  0  0  0  0  0
  184.9310  179.3780  142.9410 C   0  0  0  0  0  3  0  0  0  0  0  0
  183.6350  178.8600  142.9840 C   0  0  0  0  0  3  0  0  0  0  0  0
  183.2320  177.1850  137.0870 C   0  0  1  0  0  3  0  0  0  0  0  0
  181.7360  177.5220  137.0090 C   0  0  1  0  0  3  0  0  0  0  0  0
  187.6250  177.7760  137.2550 C   0  0  1  0  0  3  0  0  0  0  0  0
  187.2730  178.2360  139.6090 O   0  0  0  0  0  0  0  0  0  0  0  0
  179.7610  177.7520  138.2140 C   0  0  2  0  0  3  0  0  0  0  0  0
  189.5020  178.5560  138.7400 C   0  0  0  0  0  2  0  0  0  0  0  0
  185.6820  179.2840  141.7670 C   0  0  0  0  0  3  0  0  0  0  0  0
  185.9420  178.6230  139.3600 C   0  0  2  0  0  3  0  0  0  0  0  0
  185.1440  178.6650  140.6300 C   0  0  0  0  0  0  0  0  0  0  0  0
  183.2730  177.4700  139.4410 C   0  0  1  0  0  3  0  0  0  0  0  0
  179.5220  176.7190  137.1200 C   0  0  0  0  0  2  0  0  0  0  0  0
  189.3640  175.9990  138.0230 C   0  0  2  0  0  3  0  0  0  0  0  0
  188.0060  178.6260  138.4720 C   0  0  1  0  0  3  0  0  0  0  0  0
  180.8910  176.3370  136.6200 C   0  0  0  0  0  2  0  0  0  0  0  0
  187.9550  176.2980  137.4880 C   0  0  0  0  0  2  0  0  0  0  0  0
  190.0700  177.1330  138.6840 C   0  0  1  0  0  0  0  0  0  0  0  0
  183.0850  178.2620  141.8480 C   0  0  0  0  0  3  0  0  0  0  0  0
  183.8210  178.1870  140.6540 C   0  0  0  0  0  0  0  0  0  0  0  0
  181.7330  177.4330  139.4170 C   0  0  0  0  0  2  0  0  0  0  0  0
  186.1230  177.9350  137.0030 C   0  0  0  0  0  2  0  0  0  0  0  0
  183.7790  177.5020  135.8430 O   0  0  0  0  0  1  0  0  0  0  0  0
  178.9320  178.9920  137.9380 C   0  0  0  0  0  1  0  0  0  0  0  0
  183.8690  177.9590  138.1770 N   0  0  1  0  0  0  0  0  0  0  0  0
  181.1800  178.0980  138.2380 N   0  0  1  0  0  0  0  0  0  0  0  0
  191.2260  176.7650  139.6050 C   0  0  0  0  0  2  0  0  0  0  0  0
  190.9520  177.1330  141.0290 C   0  0  0  0  0  0  0  0  0  0  0  0
  189.7130  176.6400  141.6950 C   0  0  0  0  0  1  0  0  0  0  0  0
  191.7220  177.8560  141.6400 O   0  0  0  0  0  0  0  0  0  0  0  0
  1 16  1  0  0  0  0
  1 20  1  0  0  0  0
  2 24  1  6  0  0  0
  2 12  1  0  0  0  0
  3  4  1  0  0  0  0
  5 25  1  6  0  0  0
  5 27  1  0  0  0  0
  6 18  1  1  0  0  0
  6  5  1  0  0  0  0
  6 28  1  0  0  0  0
  7 24  1  1  0  0  0
  7 19  1  0  0  0  0
  7 17  1  0  0  0  0
  9 26  1  6  0  0  0
  9 28  1  0  0  0  0
 11  3  2  0  0  0  0
 12  8  1  1  0  0  0
 12 13  1  0  0  0  0
 13 22  2  0  0  0  0
 13 11  1  0  0  0  0
 14 23  1  6  0  0  0
 14 22  1  0  0  0  0
 15  9  1  0  0  0  0
 16 19  1  6  0  0  0
 16 20  1  0  0  0  0
 17 10  1  1  0  0  0
 17  8  1  0  0  0  0
 18 15  1  0  0  0  0
 20 10  1  0  0  0  0
 20 29  1  1  0  0  0
 21  4  2  0  0  0  0
 22 21  1  0  0  0  0
 27  2  1  0  0  0  0
 27 14  1  0  0  0  0
 28 23  1  0  0  0  0
 29 30  1  0  0  0  0
 30 32  2  0  0  0  0
 30 31  1  0  0  0  0
M  END
>  <MODEL>
9

>  <REMARK>
 VINA RESULT:      -7.0      2.838      4.513
  Name = 
  2 active torsions:
  status: ('A' for Active; 'I' for Inactive)
    1  A    between atoms: C_20  and  C_29
    2  A    between atoms: C_29  and  C_30
                            x       y       z     vdW  Elec       q    Type
                         _______ _______ _______ _____ _____    ______ ____

>  <TORSDO>
F 2

$$$$
