=
 OpenBabel11122412173D

 34 40  0  0  1  0  0  0  0  0999 V2000
  188.0310  177.4960  146.2150 C   0  0  0  0  0  0  0  0  0  0  0  0
  190.3900  176.7560  146.9290 C   0  0  0  0  0  2  0  0  0  0  0  0
  182.9670  177.9590  142.1190 C   0  0  2  0  0  3  0  0  0  0  0  0
  185.9300  178.4370  145.4010 C   0  0  0  0  0  0  0  0  0  0  0  0
  185.2220  177.9120  143.0220 C   0  0  1  0  0  3  0  0  0  0  0  0
  184.3810  177.7330  140.5440 C   0  0  0  0  0  2  0  0  0  0  0  0
  182.8800  177.4930  140.6830 C   0  0  0  0  0  2  0  0  0  0  0  0
  182.6580  179.7810  143.8400 C   0  0  0  0  0  2  0  0  0  0  0  0
  189.9340  177.4430  144.7120 C   0  0  2  0  0  3  0  0  0  0  0  0
  186.6910  177.9500  142.6290 C   0  0  0  0  0  2  0  0  0  0  0  0
  183.5170  178.8520  144.7230 C   0  0  0  0  0  2  0  0  0  0  0  0
  189.0870  177.3180  143.4350 C   0  0  1  0  0  3  0  0  0  0  0  0
  191.6790  176.5980  146.1200 C   0  0  0  0  0  2  0  0  0  0  0  0
  184.9960  178.8090  144.2660 C   0  0  1  0  0  3  0  0  0  0  0  0
  182.0980  179.1230  142.5580 C   0  0  0  0  0  2  0  0  0  0  0  0
  187.1670  177.8020  145.1430 C   0  0  0  0  0  0  0  0  0  0  0  0
  184.3700  178.4460  141.8850 C   0  0  1  0  0  3  0  0  0  0  0  0
  187.5520  177.3420  143.7380 C   0  0  1  0  0  3  0  0  0  0  0  0
  186.4940  178.5310  147.7710 C   0  0  0  0  0  3  0  0  0  0  0  0
  185.6250  178.8240  146.7180 C   0  0  0  0  0  3  0  0  0  0  0  0
  191.3170  176.8390  144.6560 C   0  0  0  0  0  2  0  0  0  0  0  0
  187.6900  177.8580  147.5230 C   0  0  0  0  0  3  0  0  0  0  0  0
  189.2940  176.7600  145.8870 C   0  0  2  0  0  3  0  0  0  0  0  0
  189.5060  178.4110  142.4470 C   0  0  0  0  0  2  0  0  0  0  0  0
  189.8540  177.8350  141.0830 C   0  0  0  0  0  2  0  0  0  0  0  0
  191.3000  177.3730  141.0560 C   0  0  0  0  0  2  0  0  0  0  0  0
  191.7000  177.1770  139.7340 O   0  0  0  0  0  0  0  0  0  0  0  0
  190.5840  176.6170  139.1100 C   0  0  0  0  0  2  0  0  0  0  0  0
  190.6670  176.8210  137.6050 C   0  0  0  0  0  2  0  0  0  0  0  0
  187.4890  177.9010  138.3280 C   0  0  0  0  0  2  0  0  0  0  0  0
  189.0550  178.5910  136.9030 C   0  0  0  0  0  2  0  0  0  0  0  0
  189.2940  177.0990  137.0090 C   0  0  2  0  0  3  0  0  0  0  0  0
  188.2980  179.0020  138.0110 O   0  0  0  0  0  0  0  0  0  0  0  0
  188.2380  176.6390  137.9720 C   0  0  0  0  0  2  0  0  0  0  0  0
  1 22  1  0  0  0  0
  3  7  1  6  0  0  0
  3 15  1  0  0  0  0
  4 20  2  0  0  0  0
  5 10  1  6  0  0  0
  5 14  1  0  0  0  0
  6  7  1  0  0  0  0
  8 11  1  0  0  0  0
  9 21  1  6  0  0  0
  9 23  1  0  0  0  0
 12 24  1  6  0  0  0
 12 18  1  0  0  0  0
 12  9  1  0  0  0  0
 13  2  1  0  0  0  0
 14 11  1  1  0  0  0
 14  4  1  0  0  0  0
 15  8  1  0  0  0  0
 16  4  1  0  0  0  0
 16  1  2  0  0  0  0
 17  6  1  6  0  0  0
 17  3  1  0  0  0  0
 17  5  1  0  0  0  0
 18 10  1  6  0  0  0
 18 16  1  0  0  0  0
 20 19  1  0  0  0  0
 21 13  1  0  0  0  0
 22 19  2  0  0  0  0
 23  1  1  0  0  0  0
 23  2  1  1  0  0  0
 25 24  1  0  0  0  0
 26 25  1  0  0  0  0
 27 26  1  0  0  0  0
 28 27  1  0  0  0  0
 29 28  1  0  0  0  0
 31 32  1  0  0  0  0
 31 33  1  0  0  0  0
 32 29  1  1  0  0  0
 32 34  1  0  0  0  0
 33 30  1  0  0  0  0
 34 30  1  0  0  0  0
M  END
>  <MODEL>
1

>  <REMARK>
 VINA RESULT:     -10.2      0.000      0.000
  Name = 
  7 active torsions:
  status: ('A' for Active; 'I' for Inactive)
    1  A    between atoms: C_10  and  O_17
    2  A    between atoms: C_10  and  C_22
    3  A    between atoms: C_13  and  C_24
    4  A    between atoms: O_17  and  C_28
    5  A    between atoms: C_22  and  C_24
    6  A    between atoms: C_28  and  C_29
    7  A    between atoms: C_29  and  C_32
                            x       y       z     vdW  Elec       q    Type
                         _______ _______ _______ _____ _____    ______ ____

>  <TORSDO>
F 7

$$$$
=
 OpenBabel11122412173D

 34 40  0  0  1  0  0  0  0  0999 V2000
  187.2530  177.6920  145.5010 C   0  0  0  0  0  0  0  0  0  0  0  0
  189.6770  177.1170  146.1440 C   0  0  0  0  0  2  0  0  0  0  0  0
  182.0900  177.9190  141.5100 C   0  0  2  0  0  3  0  0  0  0  0  0
  185.0670  178.4930  144.7650 C   0  0  0  0  0  0  0  0  0  0  0  0
  184.3580  178.0180  142.3750 C   0  0  1  0  0  3  0  0  0  0  0  0
  183.4870  177.8810  139.9050 C   0  0  0  0  0  2  0  0  0  0  0  0
  182.0140  177.5130  140.0560 C   0  0  0  0  0  2  0  0  0  0  0  0
  181.6670  179.6310  143.3180 C   0  0  0  0  0  2  0  0  0  0  0  0
  189.1250  177.8640  143.9690 C   0  0  2  0  0  3  0  0  0  0  0  0
  185.8120  178.1950  141.9610 C   0  0  0  0  0  2  0  0  0  0  0  0
  182.6150  178.7380  144.1440 C   0  0  0  0  0  2  0  0  0  0  0  0
  188.2670  177.7270  142.7010 C   0  0  1  0  0  3  0  0  0  0  0  0
  190.9590  177.1030  145.3090 C   0  0  0  0  0  2  0  0  0  0  0  0
  184.0840  178.8370  143.6630 C   0  0  1  0  0  3  0  0  0  0  0  0
  181.1380  178.9880  142.0160 C   0  0  0  0  0  2  0  0  0  0  0  0
  186.3460  177.9740  144.4590 C   0  0  0  0  0  0  0  0  0  0  0  0
  183.4440  178.5310  141.2780 C   0  0  1  0  0  3  0  0  0  0  0  0
  186.7400  177.6100  143.0280 C   0  0  1  0  0  3  0  0  0  0  0  0
  185.6660  178.5270  147.1280 C   0  0  0  0  0  3  0  0  0  0  0  0
  184.7570  178.7940  146.1030 C   0  0  0  0  0  3  0  0  0  0  0  0
  190.5510  177.3780  143.8640 C   0  0  0  0  0  2  0  0  0  0  0  0
  186.9090  177.9660  146.8300 C   0  0  0  0  0  3  0  0  0  0  0  0
  188.5650  177.0780  145.1210 C   0  0  2  0  0  3  0  0  0  0  0  0
  188.5760  178.8940  141.7580 C   0  0  0  0  0  2  0  0  0  0  0  0
  188.7720  178.4230  140.3250 C   0  0  0  0  0  2  0  0  0  0  0  0
  189.5350  177.1100  140.2980 C   0  0  0  0  0  2  0  0  0  0  0  0
  190.4580  177.1310  139.2520 O   0  0  0  0  0  0  0  0  0  0  0  0
  189.8400  176.4140  138.2260 C   0  0  0  0  0  2  0  0  0  0  0  0
  189.7330  177.2740  136.9760 C   0  0  0  0  0  2  0  0  0  0  0  0
  186.3820  177.5080  137.6910 C   0  0  0  0  0  2  0  0  0  0  0  0
  187.7270  178.5860  136.2820 C   0  0  0  0  0  2  0  0  0  0  0  0
  188.3360  177.2020  136.3750 C   0  0  2  0  0  3  0  0  0  0  0  0
  186.8880  178.7810  137.3890 O   0  0  0  0  0  0  0  0  0  0  0  0
  187.4280  176.4810  137.3270 C   0  0  0  0  0  2  0  0  0  0  0  0
  1 22  1  0  0  0  0
  3  7  1  6  0  0  0
  3 15  1  0  0  0  0
  4 20  2  0  0  0  0
  5 10  1  6  0  0  0
  5 14  1  0  0  0  0
  6  7  1  0  0  0  0
  8 11  1  0  0  0  0
  9 21  1  6  0  0  0
  9 23  1  0  0  0  0
 12 24  1  6  0  0  0
 12 18  1  0  0  0  0
 12  9  1  0  0  0  0
 13  2  1  0  0  0  0
 14 11  1  1  0  0  0
 14  4  1  0  0  0  0
 15  8  1  0  0  0  0
 16  4  1  0  0  0  0
 16  1  2  0  0  0  0
 17  6  1  6  0  0  0
 17  3  1  0  0  0  0
 17  5  1  0  0  0  0
 18 10  1  6  0  0  0
 18 16  1  0  0  0  0
 20 19  1  0  0  0  0
 21 13  1  0  0  0  0
 22 19  2  0  0  0  0
 23  1  1  0  0  0  0
 23  2  1  1  0  0  0
 25 24  1  0  0  0  0
 26 25  1  0  0  0  0
 27 26  1  0  0  0  0
 28 27  1  0  0  0  0
 29 28  1  0  0  0  0
 31 32  1  0  0  0  0
 31 33  1  0  0  0  0
 32 29  1  1  0  0  0
 32 34  1  0  0  0  0
 33 30  1  0  0  0  0
 34 30  1  0  0  0  0
M  END
>  <MODEL>
2

>  <REMARK>
 VINA RESULT:     -10.1      1.074      1.202
  Name = 
  7 active torsions:
  status: ('A' for Active; 'I' for Inactive)
    1  A    between atoms: C_10  and  O_17
    2  A    between atoms: C_10  and  C_22
    3  A    between atoms: C_13  and  C_24
    4  A    between atoms: O_17  and  C_28
    5  A    between atoms: C_22  and  C_24
    6  A    between atoms: C_28  and  C_29
    7  A    between atoms: C_29  and  C_32
                            x       y       z     vdW  Elec       q    Type
                         _______ _______ _______ _____ _____    ______ ____

>  <TORSDO>
F 7

$$$$
=
 OpenBabel11122412173D

 34 40  0  0  1  0  0  0  0  0999 V2000
  188.0500  177.5370  146.1850 C   0  0  0  0  0  0  0  0  0  0  0  0
  190.4310  176.7920  146.8140 C   0  0  0  0  0  2  0  0  0  0  0  0
  182.8450  178.0180  142.2710 C   0  0  2  0  0  3  0  0  0  0  0  0
  185.9220  178.4840  145.4490 C   0  0  0  0  0  0  0  0  0  0  0  0
  185.1310  177.9660  143.0940 C   0  0  1  0  0  3  0  0  0  0  0  0
  184.2020  177.7940  140.6470 C   0  0  0  0  0  2  0  0  0  0  0  0
  182.7070  177.5560  140.8380 C   0  0  0  0  0  2  0  0  0  0  0  0
  182.6000  179.8360  144.0070 C   0  0  0  0  0  2  0  0  0  0  0  0
  189.8990  177.4860  144.6160 C   0  0  2  0  0  3  0  0  0  0  0  0
  186.5850  178.0030  142.6490 C   0  0  0  0  0  2  0  0  0  0  0  0
  183.4870  178.9040  144.8570 C   0  0  0  0  0  2  0  0  0  0  0  0
  189.0070  177.3660  143.3690 C   0  0  1  0  0  3  0  0  0  0  0  0
  191.6910  176.6350  145.9600 C   0  0  0  0  0  2  0  0  0  0  0  0
  184.9500  178.8600  144.3480 C   0  0  1  0  0  3  0  0  0  0  0  0
  181.9940  179.1830  142.7430 C   0  0  0  0  0  2  0  0  0  0  0  0
  187.1490  177.8480  145.1460 C   0  0  0  0  0  0  0  0  0  0  0  0
  184.2390  178.5040  141.9900 C   0  0  1  0  0  3  0  0  0  0  0  0
  187.4830  177.3900  143.7260 C   0  0  1  0  0  3  0  0  0  0  0  0
  186.5690  178.5710  147.7970 C   0  0  0  0  0  3  0  0  0  0  0  0
  185.6650  178.8680  146.7760 C   0  0  0  0  0  3  0  0  0  0  0  0
  191.2780  176.8800  144.5100 C   0  0  0  0  0  2  0  0  0  0  0  0
  187.7560  177.8970  147.5050 C   0  0  0  0  0  3  0  0  0  0  0  0
  189.2990  176.8000  145.8110 C   0  0  2  0  0  3  0  0  0  0  0  0
  189.3930  178.4610  142.3710 C   0  0  0  0  0  2  0  0  0  0  0  0
  190.0100  177.8790  141.1080 C   0  0  0  0  0  2  0  0  0  0  0  0
  188.9570  177.7340  140.0220 C   0  0  0  0  0  2  0  0  0  0  0  0
  188.9380  178.8880  139.2380 O   0  0  0  0  0  0  0  0  0  0  0  0
  189.0680  178.4240  137.9280 C   0  0  0  0  0  2  0  0  0  0  0  0
  188.9490  176.9080  137.8950 C   0  0  0  0  0  2  0  0  0  0  0  0
  191.8440  175.0650  137.7440 C   0  0  0  0  0  2  0  0  0  0  0  0
  189.8050  174.7900  136.8910 C   0  0  0  0  0  2  0  0  0  0  0  0
  189.9720  176.2940  136.9490 C   0  0  2  0  0  3  0  0  0  0  0  0
  190.7380  174.2030  137.7600 O   0  0  0  0  0  0  0  0  0  0  0  0
  191.3460  176.4750  137.5260 C   0  0  0  0  0  2  0  0  0  0  0  0
  1 22  1  0  0  0  0
  3  7  1  6  0  0  0
  3 15  1  0  0  0  0
  4 20  2  0  0  0  0
  5 10  1  6  0  0  0
  5 14  1  0  0  0  0
  6  7  1  0  0  0  0
  8 11  1  0  0  0  0
  9 21  1  6  0  0  0
  9 23  1  0  0  0  0
 12 24  1  6  0  0  0
 12 18  1  0  0  0  0
 12  9  1  0  0  0  0
 13  2  1  0  0  0  0
 14 11  1  1  0  0  0
 14  4  1  0  0  0  0
 15  8  1  0  0  0  0
 16  4  1  0  0  0  0
 16  1  2  0  0  0  0
 17  6  1  6  0  0  0
 17  3  1  0  0  0  0
 17  5  1  0  0  0  0
 18 10  1  6  0  0  0
 18 16  1  0  0  0  0
 20 19  1  0  0  0  0
 21 13  1  0  0  0  0
 22 19  2  0  0  0  0
 23  1  1  0  0  0  0
 23  2  1  1  0  0  0
 25 24  1  0  0  0  0
 26 25  1  0  0  0  0
 27 26  1  0  0  0  0
 28 27  1  0  0  0  0
 29 28  1  0  0  0  0
 30 33  1  0  0  0  0
 31 32  1  0  0  0  0
 31 33  1  0  0  0  0
 32 34  1  0  0  0  0
 32 29  1  1  0  0  0
 34 30  1  0  0  0  0
M  END
>  <MODEL>
3

>  <REMARK>
 VINA RESULT:     -10.0      0.959      1.802
  Name = 
  7 active torsions:
  status: ('A' for Active; 'I' for Inactive)
    1  A    between atoms: C_10  and  O_17
    2  A    between atoms: C_10  and  C_22
    3  A    between atoms: C_13  and  C_24
    4  A    between atoms: O_17  and  C_28
    5  A    between atoms: C_22  and  C_24
    6  A    between atoms: C_28  and  C_29
    7  A    between atoms: C_29  and  C_32
                            x       y       z     vdW  Elec       q    Type
                         _______ _______ _______ _____ _____    ______ ____

>  <TORSDO>
F 7

$$$$
=
 OpenBabel11122412173D

 34 40  0  0  1  0  0  0  0  0999 V2000
  187.9820  177.5370  146.0350 C   0  0  0  0  0  0  0  0  0  0  0  0
  190.3690  176.7890  146.6390 C   0  0  0  0  0  2  0  0  0  0  0  0
  182.7280  178.0010  142.1860 C   0  0  2  0  0  3  0  0  0  0  0  0
  185.8480  178.4840  145.3180 C   0  0  0  0  0  0  0  0  0  0  0  0
  185.0240  177.9480  142.9790 C   0  0  1  0  0  3  0  0  0  0  0  0
  184.0630  177.7580  140.5460 C   0  0  0  0  0  2  0  0  0  0  0  0
  182.5690  177.5270  140.7590 C   0  0  0  0  0  2  0  0  0  0  0  0
  182.5120  179.8350  143.9080 C   0  0  0  0  0  2  0  0  0  0  0  0
  189.8100  177.4660  144.4430 C   0  0  2  0  0  3  0  0  0  0  0  0
  186.4720  177.9760  142.5150 C   0  0  0  0  0  2  0  0  0  0  0  0
  183.4070  178.9080  144.7550 C   0  0  0  0  0  2  0  0  0  0  0  0
  188.9020  177.3370  143.2080 C   0  0  1  0  0  3  0  0  0  0  0  0
  191.6170  176.6200  145.7700 C   0  0  0  0  0  2  0  0  0  0  0  0
  184.8630  178.8540  144.2270 C   0  0  1  0  0  3  0  0  0  0  0  0
  181.8870  179.1730  142.6590 C   0  0  0  0  0  2  0  0  0  0  0  0
  187.0680  177.8410  145.0050 C   0  0  0  0  0  0  0  0  0  0  0  0
  184.1200  178.4800  141.8810 C   0  0  1  0  0  3  0  0  0  0  0  0
  187.3830  177.3700  143.5850 C   0  0  1  0  0  3  0  0  0  0  0  0
  186.5260  178.5900  147.6570 C   0  0  0  0  0  3  0  0  0  0  0  0
  185.6100  178.8810  146.6450 C   0  0  0  0  0  3  0  0  0  0  0  0
  191.1850  176.8540  144.3230 C   0  0  0  0  0  2  0  0  0  0  0  0
  187.7070  177.9090  147.3560 C   0  0  0  0  0  3  0  0  0  0  0  0
  189.2240  176.7930  145.6510 C   0  0  2  0  0  3  0  0  0  0  0  0
  189.2780  178.4220  142.1950 C   0  0  0  0  0  2  0  0  0  0  0  0
  189.7840  177.8240  140.8920 C   0  0  0  0  0  2  0  0  0  0  0  0
  188.9720  178.3450  139.7190 C   0  0  0  0  0  2  0  0  0  0  0  0
  188.8410  177.3380  138.7620 O   0  0  0  0  0  0  0  0  0  0  0  0
  189.4900  177.8410  137.6330 C   0  0  0  0  0  2  0  0  0  0  0  0
  190.3350  176.7540  136.9860 C   0  0  0  0  0  2  0  0  0  0  0  0
  192.9240  174.5620  137.5220 C   0  0  0  0  0  2  0  0  0  0  0  0
  192.3480  176.5070  138.4400 C   0  0  0  0  0  2  0  0  0  0  0  0
  191.0230  175.8930  138.0350 C   0  0  2  0  0  3  0  0  0  0  0  0
  193.3730  175.8760  137.7190 O   0  0  0  0  0  0  0  0  0  0  0  0
  191.4170  174.5840  137.4150 C   0  0  0  0  0  2  0  0  0  0  0  0
  1 22  1  0  0  0  0
  3  7  1  6  0  0  0
  3 15  1  0  0  0  0
  4 20  2  0  0  0  0
  5 10  1  6  0  0  0
  5 14  1  0  0  0  0
  6  7  1  0  0  0  0
  8 11  1  0  0  0  0
  9 21  1  6  0  0  0
  9 23  1  0  0  0  0
 12 24  1  6  0  0  0
 12 18  1  0  0  0  0
 12  9  1  0  0  0  0
 13  2  1  0  0  0  0
 14 11  1  1  0  0  0
 14  4  1  0  0  0  0
 15  8  1  0  0  0  0
 16  4  1  0  0  0  0
 16  1  2  0  0  0  0
 17  6  1  6  0  0  0
 17  3  1  0  0  0  0
 17  5  1  0  0  0  0
 18 10  1  6  0  0  0
 18 16  1  0  0  0  0
 20 19  1  0  0  0  0
 21 13  1  0  0  0  0
 22 19  2  0  0  0  0
 23  1  1  0  0  0  0
 23  2  1  1  0  0  0
 25 24  1  0  0  0  0
 26 25  1  0  0  0  0
 27 26  1  0  0  0  0
 28 27  1  0  0  0  0
 29 28  1  0  0  0  0
 30 33  1  0  0  0  0
 32 29  1  6  0  0  0
 32 31  1  0  0  0  0
 33 31  1  0  0  0  0
 34 30  1  0  0  0  0
 34 32  1  0  0  0  0
M  END
>  <MODEL>
4

>  <REMARK>
 VINA RESULT:      -9.7      1.065      2.020
  Name = 
  7 active torsions:
  status: ('A' for Active; 'I' for Inactive)
    1  A    between atoms: C_10  and  O_17
    2  A    between atoms: C_10  and  C_22
    3  A    between atoms: C_13  and  C_24
    4  A    between atoms: O_17  and  C_28
    5  A    between atoms: C_22  and  C_24
    6  A    between atoms: C_28  and  C_29
    7  A    between atoms: C_29  and  C_32
                            x       y       z     vdW  Elec       q    Type
                         _______ _______ _______ _____ _____    ______ ____

>  <TORSDO>
F 7

$$$$
=
 OpenBabel11122412173D

 34 40  0  0  1  0  0  0  0  0999 V2000
  187.0070  177.9980  144.0640 C   0  0  0  0  0  0  0  0  0  0  0  0
  185.3020  178.5600  145.9080 C   0  0  0  0  0  2  0  0  0  0  0  0
  189.5870  178.3900  138.0780 C   0  0  2  0  0  3  0  0  0  0  0  0
  188.4230  177.2550  142.2190 C   0  0  0  0  0  0  0  0  0  0  0  0
  188.0040  178.2360  139.9160 C   0  0  1  0  0  3  0  0  0  0  0  0
  187.6320  178.8980  137.4060 C   0  0  0  0  0  2  0  0  0  0  0  0
  189.0450  179.1240  136.8730 C   0  0  0  0  0  2  0  0  0  0  0  0
  190.5020  176.2740  139.1100 C   0  0  0  0  0  2  0  0  0  0  0  0
  184.6380  178.3170  143.6510 C   0  0  2  0  0  3  0  0  0  0  0  0
  186.5200  178.2570  140.2490 C   0  0  0  0  0  2  0  0  0  0  0  0
  190.2180  177.0060  140.4380 C   0  0  0  0  0  2  0  0  0  0  0  0
  184.8150  178.6950  142.1710 C   0  0  1  0  0  3  0  0  0  0  0  0
  183.8030  178.8550  145.8300 C   0  0  0  0  0  2  0  0  0  0  0  0
  188.7020  177.1190  140.7340 C   0  0  1  0  0  3  0  0  0  0  0  0
  190.4650  177.1730  137.8520 C   0  0  0  0  0  2  0  0  0  0  0  0
  187.2590  177.9130  142.6800 C   0  0  0  0  0  0  0  0  0  0  0  0
  188.1980  177.9400  138.4400 C   0  0  1  0  0  3  0  0  0  0  0  0
  186.3120  178.6310  141.7180 C   0  0  1  0  0  3  0  0  0  0  0  0
  188.9980  176.7010  144.5220 C   0  0  0  0  0  3  0  0  0  0  0  0
  189.2630  176.6260  143.1530 C   0  0  0  0  0  3  0  0  0  0  0  0
  183.4360  178.9050  144.3490 C   0  0  0  0  0  2  0  0  0  0  0  0
  187.8780  177.3950  144.9790 C   0  0  0  0  0  3  0  0  0  0  0  0
  185.7970  178.7690  144.4940 C   0  0  2  0  0  3  0  0  0  0  0  0
  183.9060  177.8070  141.3150 C   0  0  0  0  0  2  0  0  0  0  0  0
  182.7830  178.6060  140.6720 C   0  0  0  0  0  2  0  0  0  0  0  0
  182.1960  177.8430  139.4970 C   0  0  0  0  0  2  0  0  0  0  0  0
  182.9930  176.7310  139.2220 O   0  0  0  0  0  0  0  0  0  0  0  0
  183.1820  176.7680  137.8400 C   0  0  0  0  0  2  0  0  0  0  0  0
  184.6670  176.7340  137.5120 C   0  0  0  0  0  2  0  0  0  0  0  0
  186.1710  173.6490  137.3900 C   0  0  0  0  0  2  0  0  0  0  0  0
  184.1190  174.3740  136.9150 C   0  0  0  0  0  2  0  0  0  0  0  0
  185.0040  175.5630  136.6010 C   0  0  2  0  0  3  0  0  0  0  0  0
  184.8250  173.5020  137.7580 O   0  0  0  0  0  0  0  0  0  0  0  0
  186.3840  175.0700  136.9240 C   0  0  0  0  0  2  0  0  0  0  0  0
  1 23  1  0  0  0  0
  1 22  1  0  0  0  0
  3  7  1  6  0  0  0
  3 17  1  0  0  0  0
  4 16  1  0  0  0  0
  4 20  2  0  0  0  0
  5 10  1  6  0  0  0
  5 14  1  0  0  0  0
  7  6  1  0  0  0  0
  8 11  1  0  0  0  0
  9 21  1  1  0  0  0
  9 23  1  0  0  0  0
 12 24  1  6  0  0  0
 12  9  1  0  0  0  0
 13  2  1  0  0  0  0
 14 11  1  1  0  0  0
 14  4  1  0  0  0  0
 15  3  1  0  0  0  0
 15  8  1  0  0  0  0
 16  1  2  0  0  0  0
 17  6  1  6  0  0  0
 17  5  1  0  0  0  0
 18 10  1  6  0  0  0
 18 12  1  0  0  0  0
 18 16  1  0  0  0  0
 19 22  2  0  0  0  0
 20 19  1  0  0  0  0
 21 13  1  0  0  0  0
 23  2  1  1  0  0  0
 25 24  1  0  0  0  0
 26 25  1  0  0  0  0
 27 26  1  0  0  0  0
 28 27  1  0  0  0  0
 29 28  1  0  0  0  0
 30 33  1  0  0  0  0
 31 33  1  0  0  0  0
 32 31  1  0  0  0  0
 32 34  1  0  0  0  0
 32 29  1  1  0  0  0
 34 30  1  0  0  0  0
M  END
>  <MODEL>
5

>  <REMARK>
 VINA RESULT:      -8.9      2.326      6.123
  Name = 
  7 active torsions:
  status: ('A' for Active; 'I' for Inactive)
    1  A    between atoms: C_10  and  O_17
    2  A    between atoms: C_10  and  C_22
    3  A    between atoms: C_13  and  C_24
    4  A    between atoms: O_17  and  C_28
    5  A    between atoms: C_22  and  C_24
    6  A    between atoms: C_28  and  C_29
    7  A    between atoms: C_29  and  C_32
                            x       y       z     vdW  Elec       q    Type
                         _______ _______ _______ _____ _____    ______ ____

>  <TORSDO>
F 7

$$$$
=
 OpenBabel11122412173D

 34 40  0  0  1  0  0  0  0  0999 V2000
  186.7370  178.0970  143.9110 C   0  0  0  0  0  0  0  0  0  0  0  0
  184.9390  178.6920  145.6520 C   0  0  0  0  0  2  0  0  0  0  0  0
  189.6270  178.3820  138.0620 C   0  0  2  0  0  3  0  0  0  0  0  0
  188.2470  177.3200  142.1550 C   0  0  0  0  0  0  0  0  0  0  0  0
  187.9510  178.2610  139.8170 C   0  0  1  0  0  3  0  0  0  0  0  0
  187.7110  178.8790  137.2790 C   0  0  0  0  0  2  0  0  0  0  0  0
  189.1500  179.0950  136.8180 C   0  0  0  0  0  2  0  0  0  0  0  0
  190.4840  176.2840  139.1780 C   0  0  0  0  0  2  0  0  0  0  0  0
  184.3940  178.4090  143.3680 C   0  0  2  0  0  3  0  0  0  0  0  0
  186.4510  178.2890  140.0710 C   0  0  0  0  0  2  0  0  0  0  0  0
  190.1320  177.0390  140.4760 C   0  0  0  0  0  2  0  0  0  0  0  0
  184.6480  178.7610  141.8930 C   0  0  1  0  0  3  0  0  0  0  0  0
  183.4460  178.9860  145.4910 C   0  0  0  0  0  2  0  0  0  0  0  0
  188.6020  177.1580  140.6900 C   0  0  1  0  0  3  0  0  0  0  0  0
  190.5140  177.1600  137.9040 C   0  0  0  0  0  2  0  0  0  0  0  0
  187.0610  177.9880  142.5430 C   0  0  0  0  0  0  0  0  0  0  0  0
  188.2210  177.9390  138.3580 C   0  0  1  0  0  3  0  0  0  0  0  0
  186.1670  178.6890  141.5210 C   0  0  1  0  0  3  0  0  0  0  0  0
  188.7000  176.8060  144.4940 C   0  0  0  0  0  3  0  0  0  0  0  0
  189.0360  176.7070  143.1430 C   0  0  0  0  0  3  0  0  0  0  0  0
  183.1570  179.0100  143.9920 C   0  0  0  0  0  2  0  0  0  0  0  0
  187.5580  177.5090  144.8800 C   0  0  0  0  0  3  0  0  0  0  0  0
  185.5070  178.8750  144.2630 C   0  0  2  0  0  3  0  0  0  0  0  0
  183.7840  177.8590  141.0070 C   0  0  0  0  0  2  0  0  0  0  0  0
  182.6040  178.6150  140.4160 C   0  0  0  0  0  2  0  0  0  0  0  0
  183.0690  179.5340  139.3000 C   0  0  0  0  0  2  0  0  0  0  0  0
  182.1330  179.5170  138.2650 O   0  0  0  0  0  0  0  0  0  0  0  0
  181.2140  180.5090  138.6060 C   0  0  0  0  0  2  0  0  0  0  0  0
  181.7690  181.8820  138.2580 C   0  0  0  0  0  2  0  0  0  0  0  0
  181.0620  184.2230  135.8470 C   0  0  0  0  0  2  0  0  0  0  0  0
  180.1610  182.2600  136.3890 C   0  0  0  0  0  2  0  0  0  0  0  0
  180.6830  182.7940  137.7070 C   0  0  2  0  0  3  0  0  0  0  0  0
  180.8070  182.9380  135.3440 O   0  0  0  0  0  0  0  0  0  0  0  0
  181.2910  184.1150  137.3360 C   0  0  0  0  0  2  0  0  0  0  0  0
  1 23  1  0  0  0  0
  1 22  1  0  0  0  0
  3  7  1  6  0  0  0
  3 17  1  0  0  0  0
  4 16  1  0  0  0  0
  4 20  2  0  0  0  0
  5 10  1  6  0  0  0
  5 14  1  0  0  0  0
  7  6  1  0  0  0  0
  8 11  1  0  0  0  0
  9 21  1  1  0  0  0
  9 23  1  0  0  0  0
 12 24  1  6  0  0  0
 12  9  1  0  0  0  0
 13  2  1  0  0  0  0
 14 11  1  1  0  0  0
 14  4  1  0  0  0  0
 15  3  1  0  0  0  0
 15  8  1  0  0  0  0
 16  1  2  0  0  0  0
 17  6  1  6  0  0  0
 17  5  1  0  0  0  0
 18 10  1  6  0  0  0
 18 12  1  0  0  0  0
 18 16  1  0  0  0  0
 19 22  2  0  0  0  0
 20 19  1  0  0  0  0
 21 13  1  0  0  0  0
 23  2  1  1  0  0  0
 25 24  1  0  0  0  0
 26 25  1  0  0  0  0
 27 28  1  0  0  0  0
 27 26  1  0  0  0  0
 29 28  1  0  0  0  0
 30 34  1  0  0  0  0
 31 32  1  0  0  0  0
 32 29  1  6  0  0  0
 33 30  1  0  0  0  0
 33 31  1  0  0  0  0
 34 32  1  0  0  0  0
M  END
>  <MODEL>
6

>  <REMARK>
 VINA RESULT:      -8.8      3.460      7.225
  Name = 
  7 active torsions:
  status: ('A' for Active; 'I' for Inactive)
    1  A    between atoms: C_10  and  O_17
    2  A    between atoms: C_10  and  C_22
    3  A    between atoms: C_13  and  C_24
    4  A    between atoms: O_17  and  C_28
    5  A    between atoms: C_22  and  C_24
    6  A    between atoms: C_28  and  C_29
    7  A    between atoms: C_29  and  C_32
                            x       y       z     vdW  Elec       q    Type
                         _______ _______ _______ _____ _____    ______ ____

>  <TORSDO>
F 7

$$$$
=
 OpenBabel11122412173D

 34 40  0  0  1  0  0  0  0  0999 V2000
  183.2080  178.6450  141.0770 C   0  0  0  0  0  0  0  0  0  0  0  0
  180.8220  178.8470  142.0190 C   0  0  0  0  0  2  0  0  0  0  0  0
  189.4530  176.7390  141.1540 C   0  0  2  0  0  3  0  0  0  0  0  0
  185.5410  178.6990  140.3560 C   0  0  0  0  0  0  0  0  0  0  0  0
  187.2780  177.5830  141.8320 C   0  0  1  0  0  3  0  0  0  0  0  0
  189.2940  176.7300  143.2770 C   0  0  0  0  0  2  0  0  0  0  0  0
  190.2030  176.0390  142.2640 C   0  0  0  0  0  2  0  0  0  0  0  0
  189.3040  178.6190  139.4740 C   0  0  0  0  0  2  0  0  0  0  0  0
  182.7160  178.9700  143.4300 C   0  0  2  0  0  3  0  0  0  0  0  0
  186.4700  178.0340  143.0390 C   0  0  0  0  0  2  0  0  0  0  0  0
  187.8280  178.1820  139.3770 C   0  0  0  0  0  2  0  0  0  0  0  0
  184.0410  178.3640  143.9240 C   0  0  1  0  0  3  0  0  0  0  0  0
  180.3210  178.9880  143.4580 C   0  0  0  0  0  2  0  0  0  0  0  0
  187.0220  178.5510  140.6480 C   0  0  1  0  0  3  0  0  0  0  0  0
  190.2340  177.6110  140.1880 C   0  0  0  0  0  2  0  0  0  0  0  0
  184.5770  178.4700  141.3660 C   0  0  0  0  0  0  0  0  0  0  0  0
  188.7590  177.6130  142.1620 C   0  0  1  0  0  3  0  0  0  0  0  0
  184.9730  177.9340  142.7420 C   0  0  1  0  0  3  0  0  0  0  0  0
  183.7580  179.3640  138.8320 C   0  0  0  0  0  3  0  0  0  0  0  0
  185.1150  179.1770  139.1050 C   0  0  0  0  0  3  0  0  0  0  0  0
  181.5390  178.8500  144.3680 C   0  0  0  0  0  2  0  0  0  0  0  0
  182.8040  179.0880  139.8130 C   0  0  0  0  0  3  0  0  0  0  0  0
  182.2320  178.3190  142.1650 C   0  0  2  0  0  3  0  0  0  0  0  0
  184.7200  179.3540  144.8740 C   0  0  0  0  0  2  0  0  0  0  0  0
  184.9800  178.7360  146.2400 C   0  0  0  0  0  2  0  0  0  0  0  0
  186.4240  178.9550  146.6550 C   0  0  0  0  0  2  0  0  0  0  0  0
  187.0140  177.7250  146.9480 O   0  0  0  0  0  0  0  0  0  0  0  0
  188.3600  177.8940  146.6190 C   0  0  0  0  0  2  0  0  0  0  0  0
  189.1830  176.7370  147.1640 C   0  0  0  0  0  2  0  0  0  0  0  0
  192.3550  175.5320  146.6390 C   0  0  0  0  0  2  0  0  0  0  0  0
  191.2220  177.2690  145.8290 C   0  0  0  0  0  2  0  0  0  0  0  0
  190.6620  177.0920  147.2250 C   0  0  2  0  0  3  0  0  0  0  0  0
  191.8570  176.0770  145.4470 O   0  0  0  0  0  0  0  0  0  0  0  0
  191.4270  175.9190  147.7660 C   0  0  0  0  0  2  0  0  0  0  0  0
  1 16  1  0  0  0  0
  1 23  1  0  0  0  0
  2 13  1  0  0  0  0
  3 15  1  6  0  0  0
  3 17  1  0  0  0  0
  3  7  1  0  0  0  0
  4 14  1  0  0  0  0
  4 16  2  0  0  0  0
  5 17  1  0  0  0  0
  5 10  1  1  0  0  0
  7  6  1  0  0  0  0
  8 15  1  0  0  0  0
  9 12  1  0  0  0  0
  9 21  1  1  0  0  0
 11  8  1  0  0  0  0
 12 24  1  6  0  0  0
 13 21  1  0  0  0  0
 14 11  1  6  0  0  0
 14  5  1  0  0  0  0
 16 18  1  0  0  0  0
 17  6  1  1  0  0  0
 18 10  1  1  0  0  0
 18 12  1  0  0  0  0
 19 20  2  0  0  0  0
 19 22  1  0  0  0  0
 20  4  1  0  0  0  0
 22  1  2  0  0  0  0
 23  2  1  6  0  0  0
 23  9  1  0  0  0  0
 24 25  1  0  0  0  0
 25 26  1  0  0  0  0
 26 27  1  0  0  0  0
 28 27  1  0  0  0  0
 28 29  1  0  0  0  0
 30 34  1  0  0  0  0
 31 32  1  0  0  0  0
 32 29  1  6  0  0  0
 32 34  1  0  0  0  0
 33 31  1  0  0  0  0
 33 30  1  0  0  0  0
M  END
>  <MODEL>
7

>  <REMARK>
 VINA RESULT:      -8.7      2.248      7.776
  Name = 
  7 active torsions:
  status: ('A' for Active; 'I' for Inactive)
    1  A    between atoms: C_10  and  O_17
    2  A    between atoms: C_10  and  C_22
    3  A    between atoms: C_13  and  C_24
    4  A    between atoms: O_17  and  C_28
    5  A    between atoms: C_22  and  C_24
    6  A    between atoms: C_28  and  C_29
    7  A    between atoms: C_29  and  C_32
                            x       y       z     vdW  Elec       q    Type
                         _______ _______ _______ _____ _____    ______ ____

>  <TORSDO>
F 7

$$$$
=
 OpenBabel11122412173D

 34 40  0  0  1  0  0  0  0  0999 V2000
  186.7460  178.6010  139.3620 C   0  0  0  0  0  0  0  0  0  0  0  0
  188.3890  178.4140  137.3900 C   0  0  0  0  0  2  0  0  0  0  0  0
  185.1020  179.3000  145.6420 C   0  0  2  0  0  3  0  0  0  0  0  0
  185.2310  178.4780  141.2730 C   0  0  0  0  0  0  0  0  0  0  0  0
  186.2280  178.6080  143.6030 C   0  0  1  0  0  3  0  0  0  0  0  0
  187.0070  178.4710  146.1030 C   0  0  0  0  0  2  0  0  0  0  0  0
  186.0140  179.3600  146.8460 C   0  0  0  0  0  2  0  0  0  0  0  0
  183.0860  178.3140  144.4850 C   0  0  0  0  0  2  0  0  0  0  0  0
  188.8670  177.4310  139.4880 C   0  0  2  0  0  3  0  0  0  0  0  0
  187.4310  177.8390  143.0780 C   0  0  0  0  0  2  0  0  0  0  0  0
  183.6950  178.9800  143.2340 C   0  0  0  0  0  2  0  0  0  0  0  0
  188.9980  177.5660  141.0140 C   0  0  1  0  0  3  0  0  0  0  0  0
  189.7800  177.7810  137.3010 C   0  0  0  0  0  2  0  0  0  0  0  0
  184.9800  178.2590  142.7520 C   0  0  1  0  0  3  0  0  0  0  0  0
  183.6870  178.7850  145.8290 C   0  0  0  0  0  2  0  0  0  0  0  0
  186.5430  178.4260  140.7460 C   0  0  0  0  0  0  0  0  0  0  0  0
  185.9510  178.2140  145.0420 C   0  0  1  0  0  3  0  0  0  0  0  0
  187.7640  178.2870  141.6530 C   0  0  1  0  0  3  0  0  0  0  0  0
  184.3570  178.7810  139.0170 C   0  0  0  0  0  3  0  0  0  0  0  0
  184.1480  178.6230  140.3890 C   0  0  0  0  0  3  0  0  0  0  0  0
  190.1600  177.3430  138.7130 C   0  0  0  0  0  2  0  0  0  0  0  0
  185.6550  178.7810  138.5040 C   0  0  0  0  0  3  0  0  0  0  0  0
  188.1620  178.6070  138.8730 C   0  0  2  0  0  3  0  0  0  0  0  0
  189.2460  176.1810  141.6200 C   0  0  0  0  0  2  0  0  0  0  0  0
  190.5820  176.1150  142.3440 C   0  0  0  0  0  2  0  0  0  0  0  0
  191.4430  177.3110  141.9780 C   0  0  0  0  0  2  0  0  0  0  0  0
  191.1760  178.3620  142.8560 O   0  0  0  0  0  0  0  0  0  0  0  0
  191.6690  177.9250  144.0860 C   0  0  0  0  0  2  0  0  0  0  0  0
  190.6180  178.1110  145.1690 C   0  0  0  0  0  2  0  0  0  0  0  0
  192.0730  175.9390  147.3960 C   0  0  0  0  0  2  0  0  0  0  0  0
  190.1940  177.1330  147.4250 C   0  0  0  0  0  2  0  0  0  0  0  0
  190.4040  176.8260  145.9570 C   0  0  2  0  0  3  0  0  0  0  0  0
  191.4130  176.9590  148.0970 O   0  0  0  0  0  0  0  0  0  0  0  0
  191.6720  176.0230  145.9420 C   0  0  0  0  0  2  0  0  0  0  0  0
  1 16  1  0  0  0  0
  3 15  1  1  0  0  0
  3  7  1  0  0  0  0
  4 14  1  0  0  0  0
  5 10  1  6  0  0  0
  5 17  1  0  0  0  0
  6  7  1  0  0  0  0
  8 15  1  0  0  0  0
  9 21  1  6  0  0  0
  9 12  1  0  0  0  0
 11  8  1  0  0  0  0
 12 24  1  1  0  0  0
 12 18  1  0  0  0  0
 13  2  1  0  0  0  0
 13 21  1  0  0  0  0
 14 11  1  1  0  0  0
 14  5  1  0  0  0  0
 16  4  2  0  0  0  0
 16 18  1  0  0  0  0
 17  3  1  0  0  0  0
 17  6  1  1  0  0  0
 18 10  1  1  0  0  0
 19 20  2  0  0  0  0
 20  4  1  0  0  0  0
 22 19  1  0  0  0  0
 22  1  2  0  0  0  0
 23  2  1  6  0  0  0
 23  1  1  0  0  0  0
 23  9  1  0  0  0  0
 24 25  1  0  0  0  0
 26 25  1  0  0  0  0
 26 27  1  0  0  0  0
 27 28  1  0  0  0  0
 28 29  1  0  0  0  0
 30 33  1  0  0  0  0
 31 33  1  0  0  0  0
 32 29  1  6  0  0  0
 32 31  1  0  0  0  0
 34 32  1  0  0  0  0
 34 30  1  0  0  0  0
M  END
>  <MODEL>
8

>  <REMARK>
 VINA RESULT:      -8.6      1.967      6.316
  Name = 
  7 active torsions:
  status: ('A' for Active; 'I' for Inactive)
    1  A    between atoms: C_10  and  O_17
    2  A    between atoms: C_10  and  C_22
    3  A    between atoms: C_13  and  C_24
    4  A    between atoms: O_17  and  C_28
    5  A    between atoms: C_22  and  C_24
    6  A    between atoms: C_28  and  C_29
    7  A    between atoms: C_29  and  C_32
                            x       y       z     vdW  Elec       q    Type
                         _______ _______ _______ _____ _____    ______ ____

>  <TORSDO>
F 7

$$$$
=
 OpenBabel11122412173D

 34 40  0  0  1  0  0  0  0  0999 V2000
  182.7430  178.6830  143.4990 C   0  0  0  0  0  0  0  0  0  0  0  0
  183.8510  178.6540  145.8210 C   0  0  0  0  0  2  0  0  0  0  0  0
  182.3060  177.2740  137.1380 C   0  0  2  0  0  3  0  0  0  0  0  0
  181.8710  178.9530  141.2340 C   0  0  0  0  0  0  0  0  0  0  0  0
  183.1690  177.9130  139.3170 C   0  0  1  0  0  3  0  0  0  0  0  0
  184.4310  177.1570  137.1460 C   0  0  0  0  0  2  0  0  0  0  0  0
  183.3270  176.5860  136.2600 C   0  0  0  0  0  2  0  0  0  0  0  0
  180.7360  179.2100  137.5470 C   0  0  0  0  0  2  0  0  0  0  0  0
  185.1360  178.8620  143.8470 C   0  0  2  0  0  3  0  0  0  0  0  0
  184.4490  178.2440  140.0700 C   0  0  0  0  0  2  0  0  0  0  0  0
  180.7160  178.6630  138.9890 C   0  0  0  0  0  2  0  0  0  0  0  0
  185.5100  178.3410  142.4490 C   0  0  1  0  0  3  0  0  0  0  0  0
  185.3250  178.6900  146.2280 C   0  0  0  0  0  2  0  0  0  0  0  0
  182.0550  178.9090  139.7290 C   0  0  1  0  0  3  0  0  0  0  0  0
  181.3350  178.2470  136.4950 C   0  0  0  0  0  2  0  0  0  0  0  0
  182.9300  178.6030  142.1030 C   0  0  0  0  0  0  0  0  0  0  0  0
  183.4000  178.0440  137.8230 C   0  0  1  0  0  3  0  0  0  0  0  0
  184.2480  178.0390  141.5730 C   0  0  1  0  0  3  0  0  0  0  0  0
  180.5050  179.5430  143.1650 C   0  0  0  0  0  3  0  0  0  0  0  0
  180.6770  179.4520  141.7820 C   0  0  0  0  0  3  0  0  0  0  0  0
  186.1440  178.6080  144.9420 C   0  0  0  0  0  2  0  0  0  0  0  0
  181.5320  179.1490  144.0240 C   0  0  0  0  0  3  0  0  0  0  0  0
  183.8760  178.2330  144.3690 C   0  0  2  0  0  3  0  0  0  0  0  0
  186.4610  179.3390  141.7800 C   0  0  0  0  0  2  0  0  0  0  0  0
  187.6200  178.6350  141.0910 C   0  0  0  0  0  2  0  0  0  0  0  0
  188.1890  177.5490  141.9870 C   0  0  0  0  0  2  0  0  0  0  0  0
  189.5550  177.7680  142.1710 O   0  0  0  0  0  0  0  0  0  0  0  0
  189.9430  176.7980  143.0970 C   0  0  0  0  0  2  0  0  0  0  0  0
  189.0980  176.9080  144.3570 C   0  0  0  0  0  2  0  0  0  0  0  0
  190.8870  176.6490  147.2780 C   0  0  0  0  0  2  0  0  0  0  0  0
  191.3190  177.5580  145.2910 C   0  0  0  0  0  2  0  0  0  0  0  0
  189.8180  177.7050  145.4370 C   0  0  2  0  0  3  0  0  0  0  0  0
  191.7600  176.5690  146.1830 O   0  0  0  0  0  0  0  0  0  0  0  0
  189.5320  177.0890  146.7750 C   0  0  0  0  0  2  0  0  0  0  0  0
  1 22  1  0  0  0  0
  1 23  1  0  0  0  0
  2 13  1  0  0  0  0
  3  7  1  6  0  0  0
  3 17  1  0  0  0  0
  4 20  2  0  0  0  0
  4 16  1  0  0  0  0
  5 14  1  0  0  0  0
  5 10  1  1  0  0  0
  7  6  1  0  0  0  0
  8 11  1  0  0  0  0
  9 23  1  0  0  0  0
  9 21  1  1  0  0  0
 12 24  1  6  0  0  0
 12  9  1  0  0  0  0
 14 11  1  6  0  0  0
 14  4  1  0  0  0  0
 15  3  1  0  0  0  0
 15  8  1  0  0  0  0
 16  1  2  0  0  0  0
 17  6  1  1  0  0  0
 17  5  1  0  0  0  0
 18 10  1  6  0  0  0
 18 16  1  0  0  0  0
 18 12  1  0  0  0  0
 19 22  2  0  0  0  0
 20 19  1  0  0  0  0
 21 13  1  0  0  0  0
 23  2  1  1  0  0  0
 25 24  1  0  0  0  0
 25 26  1  0  0  0  0
 26 27  1  0  0  0  0
 27 28  1  0  0  0  0
 28 29  1  0  0  0  0
 31 32  1  0  0  0  0
 31 33  1  0  0  0  0
 32 29  1  6  0  0  0
 32 34  1  0  0  0  0
 33 30  1  0  0  0  0
 34 30  1  0  0  0  0
M  END
>  <MODEL>
9

>  <REMARK>
 VINA RESULT:      -8.6      2.351      6.028
  Name = 
  7 active torsions:
  status: ('A' for Active; 'I' for Inactive)
    1  A    between atoms: C_10  and  O_17
    2  A    between atoms: C_10  and  C_22
    3  A    between atoms: C_13  and  C_24
    4  A    between atoms: O_17  and  C_28
    5  A    between atoms: C_22  and  C_24
    6  A    between atoms: C_28  and  C_29
    7  A    between atoms: C_29  and  C_32
                            x       y       z     vdW  Elec       q    Type
                         _______ _______ _______ _____ _____    ______ ____

>  <TORSDO>
F 7

$$$$
