=
 OpenBabel11122411553D

 28 32  0  0  1  0  0  0  0  0999 V2000
  189.1740  178.2870  138.2580 C   0  0  0  0  0  0  0  0  0  0  0  0
  193.1510  176.5480  135.7480 O   0  0  0  0  0  0  0  0  0  0  0  0
  186.4220  174.0930  135.6880 O   0  0  0  0  0  0  0  0  0  0  0  0
  189.0270  176.8990  140.6890 C   0  0  0  0  0  3  0  0  0  0  0  0
  188.5950  173.2670  136.4260 C   0  0  1  0  0  3  0  0  0  0  0  0
  189.1530  179.0160  136.9490 C   0  0  0  0  0  2  0  0  0  0  0  0
  193.7870  176.7710  138.1120 O   0  0  0  0  0  0  0  0  0  0  0  0
  193.1760  175.8610  137.0860 S   0  0  0  0  0  0  0  0  0  0  0  0
  193.1680  173.4970  135.6790 C   0  0  0  0  0  0  0  0  0  0  0  0
  191.5400  175.3790  137.6020 C   0  0  2  0  0  3  0  0  0  0  0  0
  186.0070  177.6310  136.8930 O   0  0  0  0  0  0  0  0  0  0  0  0
  189.5310  175.4430  136.3620 C   0  0  1  0  0  3  0  0  0  0  0  0
  191.6730  173.4300  135.8460 C   0  0  0  0  0  2  0  0  0  0  0  0
  194.2560  174.0840  136.9770 S   0  0  0  0  0  0  0  0  0  0  0  0
  187.0360  177.8330  136.2700 C   0  0  0  0  0  0  0  0  0  0  0  0
  189.7330  176.9960  138.3590 C   0  0  0  0  0  0  0  0  0  0  0  0
  187.5910  174.3360  136.0920 C   0  0  0  0  0  0  0  0  0  0  0  0
  193.6480  173.2140  134.5940 O   0  0  0  0  0  0  0  0  0  0  0  0
  187.5910  176.7620  135.3890 C   0  0  0  0  0  2  0  0  0  0  0  0
  189.6370  176.3070  139.5810 C   0  0  0  0  0  3  0  0  0  0  0  0
  188.5700  178.8770  139.3770 C   0  0  0  0  0  3  0  0  0  0  0  0
  188.5010  178.1870  140.5880 C   0  0  0  0  0  3  0  0  0  0  0  0
  187.7330  179.1540  136.4010 C   0  0  0  0  0  2  0  0  0  0  0  0
  189.6340  174.1470  137.0820 C   0  0  2  0  0  3  0  0  0  0  0  0
  188.1130  175.6670  136.1940 N   0  0  0  0  0  0  0  0  0  0  0  0
  191.1220  173.9290  137.1980 C   0  0  2  0  0  3  0  0  0  0  0  0
  188.0300  172.3050  137.4540 C   0  0  0  0  0  1  0  0  0  0  0  0
  190.4240  176.3650  137.1660 C   0  0  1  0  0  3  0  0  0  0  0  0
  1 16  2  0  0  0  0
  1 21  1  0  0  0  0
  2  8  2  0  0  0  0
  3 17  2  0  0  0  0
  5 24  1  0  0  0  0
  5 27  1  1  0  0  0
  6  1  1  0  0  0  0
  8  7  2  0  0  0  0
  9 13  1  0  0  0  0
  9 14  1  0  0  0  0
 10  8  1  6  0  0  0
 12 25  1  1  0  0  0
 12 24  1  0  0  0  0
 12 28  1  0  0  0  0
 13 26  1  0  0  0  0
 14  8  1  0  0  0  0
 15 23  1  0  0  0  0
 15 11  2  0  0  0  0
 16 20  1  0  0  0  0
 17 25  1  0  0  0  0
 17  5  1  0  0  0  0
 18  9  2  0  0  0  0
 19 25  1  0  0  0  0
 19 15  1  0  0  0  0
 20  4  2  0  0  0  0
 21 22  2  0  0  0  0
 22  4  1  0  0  0  0
 23  6  1  0  0  0  0
 24 26  1  0  0  0  0
 26 10  1  0  0  0  0
 28 10  1  0  0  0  0
 28 16  1  0  0  0  0
M  END
>  <MODEL>
1

>  <REMARK>
 VINA RESULT:      -5.6      0.000      0.000
  Name = 
  0 active torsions:
  status: ('A' for Active; 'I' for Inactive)
                            x       y       z     vdW  Elec       q    Type
                         _______ _______ _______ _____ _____    ______ ____

>  <TORSDO>
F 0

$$$$
=
 OpenBabel11122411553D

 28 32  0  0  1  0  0  0  0  0999 V2000
  181.6170  178.4050  137.8990 C   0  0  0  0  0  0  0  0  0  0  0  0
  182.5810  173.4950  137.5840 O   0  0  0  0  0  0  0  0  0  0  0  0
  187.2030  178.9650  137.3950 O   0  0  0  0  0  0  0  0  0  0  0  0
  181.2810  179.3760  135.2910 C   0  0  0  0  0  3  0  0  0  0  0  0
  186.4460  177.2400  135.8460 C   0  0  1  0  0  3  0  0  0  0  0  0
  181.8540  177.9670  139.3120 C   0  0  0  0  0  2  0  0  0  0  0  0
  180.8130  174.0240  135.9610 O   0  0  0  0  0  0  0  0  0  0  0  0
  182.2970  173.9490  136.1790 S   0  0  0  0  0  0  0  0  0  0  0  0
  184.7670  172.9260  135.5330 C   0  0  0  0  0  0  0  0  0  0  0  0
  183.0380  175.5350  135.8440 C   0  0  2  0  0  3  0  0  0  0  0  0
  184.1980  180.4710  139.0800 O   0  0  0  0  0  0  0  0  0  0  0  0
  184.5490  176.7610  137.1830 C   0  0  1  0  0  3  0  0  0  0  0  0
  185.3540  174.3030  135.6940 C   0  0  0  0  0  2  0  0  0  0  0  0
  183.1550  172.6460  134.8000 S   0  0  0  0  0  0  0  0  0  0  0  0
  183.9720  179.3240  139.4290 C   0  0  0  0  0  0  0  0  0  0  0  0
  182.2340  177.7370  136.8210 C   0  0  0  0  0  0  0  0  0  0  0  0
  186.3070  178.1580  137.0290 C   0  0  0  0  0  0  0  0  0  0  0  0
  185.3790  171.9740  135.9870 O   0  0  0  0  0  0  0  0  0  0  0  0
  184.9920  178.2620  139.1840 C   0  0  0  0  0  2  0  0  0  0  0  0
  182.0680  178.2460  135.5200 C   0  0  0  0  0  3  0  0  0  0  0  0
  180.8220  179.5340  137.6590 C   0  0  0  0  0  3  0  0  0  0  0  0
  180.6520  180.0160  136.3600 C   0  0  0  0  0  3  0  0  0  0  0  0
  182.6700  178.9970  140.0950 C   0  0  0  0  0  2  0  0  0  0  0  0
  185.0110  176.7680  135.7700 C   0  0  2  0  0  3  0  0  0  0  0  0
  185.0880  177.9720  137.7590 N   0  0  0  0  0  0  0  0  0  0  0  0
  184.4680  175.4740  135.2180 C   0  0  2  0  0  3  0  0  0  0  0  0
  186.7820  178.0280  134.5940 C   0  0  0  0  0  1  0  0  0  0  0  0
  183.0640  176.4910  137.0650 C   0  0  1  0  0  3  0  0  0  0  0  0
  1  6  1  0  0  0  0
  4 20  2  0  0  0  0
  4 22  1  0  0  0  0
  5 27  1  6  0  0  0
  5 17  1  0  0  0  0
  6 23  1  0  0  0  0
  7  8  2  0  0  0  0
  8  2  2  0  0  0  0
  9 13  1  0  0  0  0
  9 18  2  0  0  0  0
 10  8  1  1  0  0  0
 10 28  1  0  0  0  0
 11 15  2  0  0  0  0
 12 25  1  6  0  0  0
 14  9  1  0  0  0  0
 14  8  1  0  0  0  0
 15 23  1  0  0  0  0
 16 28  1  0  0  0  0
 16  1  2  0  0  0  0
 17  3  2  0  0  0  0
 17 25  1  0  0  0  0
 19 15  1  0  0  0  0
 20 16  1  0  0  0  0
 21  1  1  0  0  0  0
 22 21  2  0  0  0  0
 24  5  1  0  0  0  0
 24 12  1  0  0  0  0
 25 19  1  0  0  0  0
 26 13  1  0  0  0  0
 26 24  1  0  0  0  0
 26 10  1  0  0  0  0
 28 12  1  0  0  0  0
M  END
>  <MODEL>
2

>  <REMARK>
 VINA RESULT:      -5.5      5.322      7.790
  Name = 
  0 active torsions:
  status: ('A' for Active; 'I' for Inactive)
                            x       y       z     vdW  Elec       q    Type
                         _______ _______ _______ _____ _____    ______ ____

>  <TORSDO>
F 0

$$$$
=
 OpenBabel11122411553D

 28 32  0  0  1  0  0  0  0  0999 V2000
  185.9140  175.1860  136.1920 C   0  0  0  0  0  0  0  0  0  0  0  0
  182.2930  178.2650  134.5960 O   0  0  0  0  0  0  0  0  0  0  0  0
  186.4640  178.9150  140.3830 O   0  0  0  0  0  0  0  0  0  0  0  0
  184.7530  173.3550  137.9680 C   0  0  0  0  0  3  0  0  0  0  0  0
  184.0890  178.5690  139.9490 C   0  0  1  0  0  3  0  0  0  0  0  0
  186.6100  176.1760  135.3080 C   0  0  0  0  0  2  0  0  0  0  0  0
  181.3760  175.9850  134.6540 O   0  0  0  0  0  0  0  0  0  0  0  0
  181.6090  177.2360  135.4530 S   0  0  0  0  0  0  0  0  0  0  0  0
  180.6540  179.3500  136.9310 C   0  0  0  0  0  0  0  0  0  0  0  0
  182.5690  176.8550  136.9050 C   0  0  2  0  0  3  0  0  0  0  0  0
  188.4390  176.5850  138.1900 O   0  0  0  0  0  0  0  0  0  0  0  0
  184.5100  177.9340  137.7050 C   0  0  1  0  0  3  0  0  0  0  0  0
  181.7980  179.1640  137.8910 C   0  0  0  0  0  2  0  0  0  0  0  0
  179.7980  177.9680  136.1750 S   0  0  0  0  0  0  0  0  0  0  0  0
  187.8470  177.1390  137.2790 C   0  0  0  0  0  0  0  0  0  0  0  0
  184.7420  175.5410  136.8930 C   0  0  0  0  0  0  0  0  0  0  0  0
  185.5540  178.4930  139.6190 C   0  0  0  0  0  0  0  0  0  0  0  0
  180.3500  180.4830  136.5960 O   0  0  0  0  0  0  0  0  0  0  0  0
  187.0130  178.3450  137.5620 C   0  0  0  0  0  2  0  0  0  0  0  0
  184.1810  174.6170  137.7920 C   0  0  0  0  0  3  0  0  0  0  0  0
  186.4760  173.9150  136.3690 C   0  0  0  0  0  3  0  0  0  0  0  0
  185.8960  173.0020  137.2510 C   0  0  0  0  0  3  0  0  0  0  0  0
  187.9610  176.5980  135.8850 C   0  0  0  0  0  2  0  0  0  0  0  0
  183.5720  177.6920  138.8320 C   0  0  2  0  0  3  0  0  0  0  0  0
  185.8220  177.9700  138.3130 N   0  0  0  0  0  0  0  0  0  0  0  0
  182.2180  177.7050  138.1680 C   0  0  2  0  0  3  0  0  0  0  0  0
  183.8050  177.9030  141.2830 C   0  0  0  0  0  1  0  0  0  0  0  0
  184.1030  176.8990  136.6780 C   0  0  1  0  0  3  0  0  0  0  0  0
  1 21  2  0  0  0  0
  1 16  1  0  0  0  0
  2  8  2  0  0  0  0
  5 27  1  1  0  0  0
  6 23  1  0  0  0  0
  6  1  1  0  0  0  0
  7  8  2  0  0  0  0
  8 14  1  0  0  0  0
  9 13  1  0  0  0  0
 10  8  1  6  0  0  0
 10 26  1  0  0  0  0
 12 25  1  1  0  0  0
 12 24  1  0  0  0  0
 13 26  1  0  0  0  0
 14  9  1  0  0  0  0
 15 19  1  0  0  0  0
 15 11  2  0  0  0  0
 16 20  2  0  0  0  0
 17  5  1  0  0  0  0
 17  3  2  0  0  0  0
 18  9  2  0  0  0  0
 19 25  1  0  0  0  0
 20  4  1  0  0  0  0
 21 22  1  0  0  0  0
 22  4  2  0  0  0  0
 23 15  1  0  0  0  0
 24  5  1  0  0  0  0
 25 17  1  0  0  0  0
 26 24  1  0  0  0  0
 28 16  1  0  0  0  0
 28 10  1  0  0  0  0
 28 12  1  0  0  0  0
M  END
>  <MODEL>
3

>  <REMARK>
 VINA RESULT:      -5.4      5.050      8.427
  Name = 
  0 active torsions:
  status: ('A' for Active; 'I' for Inactive)
                            x       y       z     vdW  Elec       q    Type
                         _______ _______ _______ _____ _____    ______ ____

>  <TORSDO>
F 0

$$$$
=
 OpenBabel11122411553D

 28 32  0  0  1  0  0  0  0  0999 V2000
  181.0910  178.9120  137.6480 C   0  0  0  0  0  0  0  0  0  0  0  0
  180.8820  173.9260  138.1320 O   0  0  0  0  0  0  0  0  0  0  0  0
  186.6710  178.1320  137.8010 O   0  0  0  0  0  0  0  0  0  0  0  0
  181.2450  179.4970  134.9110 C   0  0  0  0  0  3  0  0  0  0  0  0
  185.6750  176.3890  136.4160 C   0  0  1  0  0  3  0  0  0  0  0  0
  181.0820  178.6680  139.1260 C   0  0  0  0  0  2  0  0  0  0  0  0
  179.4540  174.5630  136.2360 O   0  0  0  0  0  0  0  0  0  0  0  0
  180.8490  174.1970  136.6530 S   0  0  0  0  0  0  0  0  0  0  0  0
  183.0540  172.5620  136.4780 C   0  0  0  0  0  0  0  0  0  0  0  0
  181.9750  175.5040  136.2050 C   0  0  2  0  0  3  0  0  0  0  0  0
  183.9670  180.5200  138.8620 O   0  0  0  0  0  0  0  0  0  0  0  0
  183.6010  176.5660  137.5480 C   0  0  1  0  0  3  0  0  0  0  0  0
  183.9340  173.7830  136.5250 C   0  0  0  0  0  2  0  0  0  0  0  0
  181.4980  172.5300  135.5870 S   0  0  0  0  0  0  0  0  0  0  0  0
  183.4420  179.5230  139.3310 C   0  0  0  0  0  0  0  0  0  0  0  0
  181.6310  177.9580  136.7600 C   0  0  0  0  0  0  0  0  0  0  0  0
  185.6470  177.4950  137.4350 C   0  0  0  0  0  0  0  0  0  0  0  0
  183.3750  171.5840  137.1330 O   0  0  0  0  0  0  0  0  0  0  0  0
  184.1980  178.2360  139.3670 C   0  0  0  0  0  2  0  0  0  0  0  0
  181.7150  178.2730  135.3920 C   0  0  0  0  0  3  0  0  0  0  0  0
  180.6150  180.1350  137.1550 C   0  0  0  0  0  3  0  0  0  0  0  0
  180.6880  180.4240  135.7920 C   0  0  0  0  0  3  0  0  0  0  0  0
  182.0420  179.6040  139.8610 C   0  0  0  0  0  2  0  0  0  0  0  0
  184.1840  176.2410  136.2210 C   0  0  2  0  0  3  0  0  0  0  0  0
  184.3560  177.7050  138.0200 N   0  0  0  0  0  0  0  0  0  0  0  0
  183.4020  175.0270  135.7830 C   0  0  2  0  0  3  0  0  0  0  0  0
  186.3070  176.8700  135.1230 C   0  0  0  0  0  1  0  0  0  0  0  0
  182.1120  176.6160  137.2770 C   0  0  1  0  0  3  0  0  0  0  0  0
  1  6  1  0  0  0  0
  4 20  2  0  0  0  0
  4 22  1  0  0  0  0
  5 27  1  6  0  0  0
  5 17  1  0  0  0  0
  6 23  1  0  0  0  0
  7  8  2  0  0  0  0
  8  2  2  0  0  0  0
  9 13  1  0  0  0  0
  9 18  2  0  0  0  0
 10  8  1  1  0  0  0
 10 28  1  0  0  0  0
 11 15  2  0  0  0  0
 12 25  1  6  0  0  0
 14  9  1  0  0  0  0
 14  8  1  0  0  0  0
 15 19  1  0  0  0  0
 15 23  1  0  0  0  0
 16 28  1  0  0  0  0
 16  1  2  0  0  0  0
 17  3  2  0  0  0  0
 17 25  1  0  0  0  0
 20 16  1  0  0  0  0
 21  1  1  0  0  0  0
 22 21  2  0  0  0  0
 24  5  1  0  0  0  0
 24 12  1  0  0  0  0
 25 19  1  0  0  0  0
 26 10  1  0  0  0  0
 26 24  1  0  0  0  0
 26 13  1  0  0  0  0
 28 12  1  0  0  0  0
M  END
>  <MODEL>
4

>  <REMARK>
 VINA RESULT:      -5.3      5.837      8.548
  Name = 
  0 active torsions:
  status: ('A' for Active; 'I' for Inactive)
                            x       y       z     vdW  Elec       q    Type
                         _______ _______ _______ _____ _____    ______ ____

>  <TORSDO>
F 0

$$$$
=
 OpenBabel11122411553D

 28 32  0  0  1  0  0  0  0  0999 V2000
  180.2880  179.0100  142.2330 C   0  0  0  0  0  0  0  0  0  0  0  0
  180.8030  174.6120  139.8820 O   0  0  0  0  0  0  0  0  0  0  0  0
  185.8210  179.5270  141.2910 O   0  0  0  0  0  0  0  0  0  0  0  0
  179.7710  180.9610  140.2870 C   0  0  0  0  0  3  0  0  0  0  0  0
  184.7700  178.6000  139.2950 C   0  0  1  0  0  3  0  0  0  0  0  0
  180.6290  178.0320  143.3150 C   0  0  0  0  0  2  0  0  0  0  0  0
  178.9310  175.8120  138.8380 O   0  0  0  0  0  0  0  0  0  0  0  0
  180.4170  175.6030  138.8190 S   0  0  0  0  0  0  0  0  0  0  0  0
  182.7160  174.8400  137.5150 C   0  0  0  0  0  0  0  0  0  0  0  0
  181.2500  177.1620  139.0490 C   0  0  2  0  0  3  0  0  0  0  0  0
  183.1380  180.3330  143.7990 O   0  0  0  0  0  0  0  0  0  0  0  0
  182.9850  177.6910  140.5610 C   0  0  1  0  0  3  0  0  0  0  0  0
  183.4280  176.0140  138.1320 C   0  0  0  0  0  2  0  0  0  0  0  0
  181.0200  174.9360  136.9410 S   0  0  0  0  0  0  0  0  0  0  0  0
  182.8540  179.1510  143.6910 C   0  0  0  0  0  0  0  0  0  0  0  0
  180.7350  178.8110  140.9100 C   0  0  0  0  0  0  0  0  0  0  0  0
  184.8280  178.9680  140.7520 C   0  0  0  0  0  0  0  0  0  0  0  0
  183.2890  173.7640  137.4740 O   0  0  0  0  0  0  0  0  0  0  0  0
  183.7520  178.2420  142.9190 C   0  0  0  0  0  2  0  0  0  0  0  0
  180.4810  179.8070  139.9490 C   0  0  0  0  0  3  0  0  0  0  0  0
  179.5690  180.1680  142.5610 C   0  0  0  0  0  3  0  0  0  0  0  0
  179.3080  181.1370  141.5920 C   0  0  0  0  0  3  0  0  0  0  0  0
  181.6030  178.6290  144.3310 C   0  0  0  0  0  2  0  0  0  0  0  0
  183.3010  178.2500  139.2210 C   0  0  2  0  0  3  0  0  0  0  0  0
  183.6790  178.5470  141.4970 N   0  0  0  0  0  0  0  0  0  0  0  0
  182.5990  177.3080  138.2750 C   0  0  2  0  0  3  0  0  0  0  0  0
  185.0420  179.8130  138.4250 C   0  0  0  0  0  1  0  0  0  0  0  0
  181.4780  177.5440  140.5350 C   0  0  1  0  0  3  0  0  0  0  0  0
  1 21  1  0  0  0  0
  1  6  1  0  0  0  0
  4 22  1  0  0  0  0
  5 27  1  6  0  0  0
  5 17  1  0  0  0  0
  6 23  1  0  0  0  0
  8  7  2  0  0  0  0
  8  2  2  0  0  0  0
  9 13  1  0  0  0  0
 10  8  1  1  0  0  0
 10 28  1  0  0  0  0
 12 25  1  1  0  0  0
 13 26  1  0  0  0  0
 14  9  1  0  0  0  0
 14  8  1  0  0  0  0
 15 11  2  0  0  0  0
 15 23  1  0  0  0  0
 16  1  2  0  0  0  0
 17  3  2  0  0  0  0
 17 25  1  0  0  0  0
 18  9  2  0  0  0  0
 19 15  1  0  0  0  0
 20  4  2  0  0  0  0
 20 16  1  0  0  0  0
 22 21  2  0  0  0  0
 24  5  1  0  0  0  0
 24 12  1  0  0  0  0
 25 19  1  0  0  0  0
 26 10  1  0  0  0  0
 26 24  1  0  0  0  0
 28 12  1  0  0  0  0
 28 16  1  0  0  0  0
M  END
>  <MODEL>
5

>  <REMARK>
 VINA RESULT:      -5.0      7.272      9.905
  Name = 
  0 active torsions:
  status: ('A' for Active; 'I' for Inactive)
                            x       y       z     vdW  Elec       q    Type
                         _______ _______ _______ _____ _____    ______ ____

>  <TORSDO>
F 0

$$$$
=
 OpenBabel11122411553D

 28 32  0  0  1  0  0  0  0  0999 V2000
  180.9550  177.3500  136.9680 C   0  0  0  0  0  0  0  0  0  0  0  0
  183.2040  172.8690  136.9300 O   0  0  0  0  0  0  0  0  0  0  0  0
  185.7500  179.1120  139.3500 O   0  0  0  0  0  0  0  0  0  0  0  0
  181.6460  178.6700  134.5940 C   0  0  0  0  0  3  0  0  0  0  0  0
  186.2950  177.5650  137.5450 C   0  0  1  0  0  3  0  0  0  0  0  0
  180.6040  176.7310  138.2860 C   0  0  0  0  0  2  0  0  0  0  0  0
  182.3410  173.3020  134.6700 O   0  0  0  0  0  0  0  0  0  0  0  0
  183.5080  173.4930  135.5960 S   0  0  0  0  0  0  0  0  0  0  0  0
  186.1610  173.1210  136.2190 C   0  0  0  0  0  0  0  0  0  0  0  0
  183.8730  175.2300  135.7560 C   0  0  2  0  0  3  0  0  0  0  0  0
  182.0300  179.6610  139.3830 O   0  0  0  0  0  0  0  0  0  0  0  0
  184.1930  176.4860  137.7300 C   0  0  1  0  0  3  0  0  0  0  0  0
  186.2170  174.5390  136.7200 C   0  0  0  0  0  2  0  0  0  0  0  0
  185.2220  172.6510  134.7650 S   0  0  0  0  0  0  0  0  0  0  0  0
  181.9770  178.4490  139.5140 C   0  0  0  0  0  0  0  0  0  0  0  0
  182.1580  177.0190  136.3110 C   0  0  0  0  0  0  0  0  0  0  0  0
  185.3800  178.2150  138.5450 C   0  0  0  0  0  0  0  0  0  0  0  0
  186.7120  172.2490  136.8690 O   0  0  0  0  0  0  0  0  0  0  0  0
  183.2300  177.6750  139.7580 C   0  0  0  0  0  2  0  0  0  0  0  0
  182.4980  177.7010  135.1280 C   0  0  0  0  0  3  0  0  0  0  0  0
  180.1030  178.3180  136.4200 C   0  0  0  0  0  3  0  0  0  0  0  0
  180.4450  178.9730  135.2360 C   0  0  0  0  0  3  0  0  0  0  0  0
  180.6530  177.7530  139.4230 C   0  0  0  0  0  2  0  0  0  0  0  0
  185.2460  176.8320  136.7400 C   0  0  2  0  0  3  0  0  0  0  0  0
  184.0580  177.6630  138.5590 N   0  0  0  0  0  0  0  0  0  0  0  0
  185.3890  175.5700  135.9260 C   0  0  2  0  0  3  0  0  0  0  0  0
  186.9610  178.6100  136.6700 C   0  0  0  0  0  1  0  0  0  0  0  0
  183.0690  175.9440  136.8730 C   0  0  1  0  0  3  0  0  0  0  0  0
  1  6  1  0  0  0  0
  4 20  2  0  0  0  0
  4 22  1  0  0  0  0
  5 27  1  6  0  0  0
  5 17  1  0  0  0  0
  6 23  1  0  0  0  0
  7  8  2  0  0  0  0
  8  2  2  0  0  0  0
  9 13  1  0  0  0  0
  9 18  2  0  0  0  0
 10  8  1  1  0  0  0
 10 26  1  0  0  0  0
 10 28  1  0  0  0  0
 11 15  2  0  0  0  0
 12 25  1  6  0  0  0
 14  8  1  0  0  0  0
 14  9  1  0  0  0  0
 15 19  1  0  0  0  0
 16 28  1  0  0  0  0
 16  1  2  0  0  0  0
 17 25  1  0  0  0  0
 17  3  2  0  0  0  0
 20 16  1  0  0  0  0
 21  1  1  0  0  0  0
 22 21  2  0  0  0  0
 23 15  1  0  0  0  0
 24  5  1  0  0  0  0
 24 12  1  0  0  0  0
 25 19  1  0  0  0  0
 26 13  1  0  0  0  0
 26 24  1  0  0  0  0
 28 12  1  0  0  0  0
M  END
>  <MODEL>
6

>  <REMARK>
 VINA RESULT:      -4.7      5.081      7.747
  Name = 
  0 active torsions:
  status: ('A' for Active; 'I' for Inactive)
                            x       y       z     vdW  Elec       q    Type
                         _______ _______ _______ _____ _____    ______ ____

>  <TORSDO>
F 0

$$$$
=
 OpenBabel11122411553D

 28 32  0  0  1  0  0  0  0  0999 V2000
  181.8120  179.7050  139.2490 C   0  0  0  0  0  0  0  0  0  0  0  0
  186.3810  179.3320  137.2180 O   0  0  0  0  0  0  0  0  0  0  0  0
  180.1790  176.7400  134.7420 O   0  0  0  0  0  0  0  0  0  0  0  0
  181.4160  177.4560  140.8750 C   0  0  0  0  0  3  0  0  0  0  0  0
  182.2740  175.8090  135.5740 C   0  0  1  0  0  3  0  0  0  0  0  0
  181.9310  180.8930  138.3430 C   0  0  0  0  0  2  0  0  0  0  0  0
  186.5380  178.6280  139.5680 O   0  0  0  0  0  0  0  0  0  0  0  0
  186.2560  178.1700  138.1660 S   0  0  0  0  0  0  0  0  0  0  0  0
  186.8300  176.5680  136.0050 C   0  0  0  0  0  0  0  0  0  0  0  0
  184.6350  177.4340  138.0840 C   0  0  2  0  0  3  0  0  0  0  0  0
  179.0680  179.4760  137.0710 O   0  0  0  0  0  0  0  0  0  0  0  0
  182.8980  177.8770  136.5480 C   0  0  1  0  0  3  0  0  0  0  0  0
  185.3540  176.3580  135.7980 C   0  0  0  0  0  2  0  0  0  0  0  0
  187.5720  176.6460  137.6350 S   0  0  0  0  0  0  0  0  0  0  0  0
  180.1560  179.9650  136.8150 C   0  0  0  0  0  0  0  0  0  0  0  0
  182.5150  178.5130  138.9750 C   0  0  0  0  0  0  0  0  0  0  0  0
  181.2100  176.8650  135.4560 C   0  0  0  0  0  0  0  0  0  0  0  0
  187.5340  176.7680  135.0290 O   0  0  0  0  0  0  0  0  0  0  0  0
  181.0040  179.3670  135.7420 C   0  0  0  0  0  2  0  0  0  0  0  0
  182.2940  177.3890  139.7910 C   0  0  0  0  0  3  0  0  0  0  0  0
  180.9390  179.7650  140.3440 C   0  0  0  0  0  3  0  0  0  0  0  0
  180.7450  178.6470  141.1560 C   0  0  0  0  0  3  0  0  0  0  0  0
  180.6280  181.1600  137.5880 C   0  0  0  0  0  2  0  0  0  0  0  0
  183.0450  176.4100  136.7280 C   0  0  2  0  0  3  0  0  0  0  0  0
  181.5160  178.0710  136.1670 N   0  0  0  0  0  0  0  0  0  0  0  0
  184.5020  176.2450  137.0800 C   0  0  2  0  0  3  0  0  0  0  0  0
  181.6690  174.4870  136.0080 C   0  0  0  0  0  1  0  0  0  0  0  0
  183.4930  178.4490  137.8170 C   0  0  1  0  0  3  0  0  0  0  0  0
  1 21  1  0  0  0  0
  2  8  2  0  0  0  0
  3 17  2  0  0  0  0
  4 22  1  0  0  0  0
  5 27  1  1  0  0  0
  5 24  1  0  0  0  0
  6  1  1  0  0  0  0
  8  7  2  0  0  0  0
  9 14  1  0  0  0  0
 10  8  1  6  0  0  0
 12 25  1  1  0  0  0
 12 24  1  0  0  0  0
 12 28  1  0  0  0  0
 13  9  1  0  0  0  0
 13 26  1  0  0  0  0
 14  8  1  0  0  0  0
 15 11  2  0  0  0  0
 15 23  1  0  0  0  0
 16  1  2  0  0  0  0
 16 20  1  0  0  0  0
 17  5  1  0  0  0  0
 17 25  1  0  0  0  0
 18  9  2  0  0  0  0
 19 25  1  0  0  0  0
 19 15  1  0  0  0  0
 20  4  2  0  0  0  0
 21 22  2  0  0  0  0
 23  6  1  0  0  0  0
 24 26  1  0  0  0  0
 26 10  1  0  0  0  0
 28 10  1  0  0  0  0
 28 16  1  0  0  0  0
M  END
>  <MODEL>
7

>  <REMARK>
 VINA RESULT:      -4.5      5.592      7.253
  Name = 
  0 active torsions:
  status: ('A' for Active; 'I' for Inactive)
                            x       y       z     vdW  Elec       q    Type
                         _______ _______ _______ _____ _____    ______ ____

>  <TORSDO>
F 0

$$$$
=
 OpenBabel11122411553D

 28 32  0  0  1  0  0  0  0  0999 V2000
  182.6870  177.4210  137.0790 C   0  0  0  0  0  0  0  0  0  0  0  0
  186.4390  174.7090  135.1530 O   0  0  0  0  0  0  0  0  0  0  0  0
  179.4770  173.0610  135.5140 O   0  0  0  0  0  0  0  0  0  0  0  0
  182.3920  176.6790  139.7660 C   0  0  0  0  0  3  0  0  0  0  0  0
  181.5460  172.2030  136.4800 C   0  0  1  0  0  3  0  0  0  0  0  0
  182.7450  177.8130  135.6340 C   0  0  0  0  0  2  0  0  0  0  0  0
  187.1010  175.4200  137.4110 O   0  0  0  0  0  0  0  0  0  0  0  0
  186.3900  174.3630  136.6160 S   0  0  0  0  0  0  0  0  0  0  0  0
  186.1140  171.7470  135.8120 C   0  0  0  0  0  0  0  0  0  0  0  0
  184.7110  174.2010  137.1920 C   0  0  2  0  0  3  0  0  0  0  0  0
  179.4630  176.8070  135.8310 O   0  0  0  0  0  0  0  0  0  0  0  0
  182.7200  174.1850  135.9230 C   0  0  1  0  0  3  0  0  0  0  0  0
  184.6220  171.8850  135.9540 C   0  0  0  0  0  2  0  0  0  0  0  0
  187.2650  172.5040  136.9600 S   0  0  0  0  0  0  0  0  0  0  0  0
  180.5070  176.7410  135.2040 C   0  0  0  0  0  0  0  0  0  0  0  0
  183.0980  176.1380  137.4980 C   0  0  0  0  0  0  0  0  0  0  0  0
  180.6670  173.2640  135.8770 C   0  0  0  0  0  0  0  0  0  0  0  0
  186.5570  171.1620  134.8370 O   0  0  0  0  0  0  0  0  0  0  0  0
  180.9370  175.4370  134.6170 C   0  0  0  0  0  2  0  0  0  0  0  0
  182.9290  175.7760  138.8460 C   0  0  0  0  0  3  0  0  0  0  0  0
  182.1560  178.3240  138.0100 C   0  0  0  0  0  3  0  0  0  0  0  0
  182.0120  177.9560  139.3490 C   0  0  0  0  0  3  0  0  0  0  0  0
  181.3480  177.9710  135.0340 C   0  0  0  0  0  2  0  0  0  0  0  0
  182.6790  173.0950  136.9330 C   0  0  2  0  0  3  0  0  0  0  0  0
  181.3350  174.5150  135.6720 N   0  0  0  0  0  0  0  0  0  0  0  0
  184.1330  172.7510  137.1350 C   0  0  2  0  0  3  0  0  0  0  0  0
  180.8790  171.5820  137.6930 C   0  0  0  0  0  1  0  0  0  0  0  0
  183.7120  175.1690  136.5060 C   0  0  1  0  0  3  0  0  0  0  0  0
  1 16  2  0  0  0  0
  1 21  1  0  0  0  0
  2  8  2  0  0  0  0
  3 17  2  0  0  0  0
  5 24  1  0  0  0  0
  5 27  1  1  0  0  0
  6  1  1  0  0  0  0
  8 14  1  0  0  0  0
  8  7  2  0  0  0  0
  9 13  1  0  0  0  0
  9 14  1  0  0  0  0
 10  8  1  6  0  0  0
 12 25  1  1  0  0  0
 12 28  1  0  0  0  0
 12 24  1  0  0  0  0
 13 26  1  0  0  0  0
 15 11  2  0  0  0  0
 16 20  1  0  0  0  0
 17  5  1  0  0  0  0
 18  9  2  0  0  0  0
 19 15  1  0  0  0  0
 19 25  1  0  0  0  0
 20  4  2  0  0  0  0
 21 22  2  0  0  0  0
 22  4  1  0  0  0  0
 23 15  1  0  0  0  0
 23  6  1  0  0  0  0
 24 26  1  0  0  0  0
 25 17  1  0  0  0  0
 26 10  1  0  0  0  0
 28 10  1  0  0  0  0
 28 16  1  0  0  0  0
M  END
>  <MODEL>
8

>  <REMARK>
 VINA RESULT:      -4.3      5.662      6.914
  Name = 
  0 active torsions:
  status: ('A' for Active; 'I' for Inactive)
                            x       y       z     vdW  Elec       q    Type
                         _______ _______ _______ _____ _____    ______ ____

>  <TORSDO>
F 0

$$$$
=
 OpenBabel11122411553D

 28 32  0  0  1  0  0  0  0  0999 V2000
  179.7080  179.9240  139.5620 C   0  0  0  0  0  0  0  0  0  0  0  0
  180.7770  175.5020  137.4550 O   0  0  0  0  0  0  0  0  0  0  0  0
  184.1260  178.7830  142.8710 O   0  0  0  0  0  0  0  0  0  0  0  0
  181.2060  181.8850  138.2320 C   0  0  0  0  0  3  0  0  0  0  0  0
  184.6770  178.1460  140.5820 C   0  0  1  0  0  3  0  0  0  0  0  0
  178.9340  178.9190  140.3590 C   0  0  0  0  0  2  0  0  0  0  0  0
  180.5710  177.1650  135.6580 O   0  0  0  0  0  0  0  0  0  0  0  0
  181.5110  176.5320  136.6420 S   0  0  0  0  0  0  0  0  0  0  0  0
  183.7910  175.0980  137.1990 C   0  0  0  0  0  0  0  0  0  0  0  0
  182.2340  177.7870  137.6810 C   0  0  2  0  0  3  0  0  0  0  0  0
  180.7330  180.4040  142.8850 O   0  0  0  0  0  0  0  0  0  0  0  0
  182.3930  177.8310  140.0360 C   0  0  1  0  0  3  0  0  0  0  0  0
  184.0690  176.0300  138.3470 C   0  0  0  0  0  2  0  0  0  0  0  0
  183.1170  175.6670  135.6380 S   0  0  0  0  0  0  0  0  0  0  0  0
  180.3650  179.3530  142.3850 C   0  0  0  0  0  0  0  0  0  0  0  0
  180.9140  179.5670  138.9220 C   0  0  0  0  0  0  0  0  0  0  0  0
  183.7430  178.5210  141.6990 C   0  0  0  0  0  0  0  0  0  0  0  0
  183.9590  173.9010  137.3640 O   0  0  0  0  0  0  0  0  0  0  0  0
  181.3110  178.2010  142.3050 C   0  0  0  0  0  2  0  0  0  0  0  0
  181.6620  180.5650  138.2730 C   0  0  0  0  0  3  0  0  0  0  0  0
  179.2550  181.2490  139.5090 C   0  0  0  0  0  3  0  0  0  0  0  0
  179.9990  182.2250  138.8440 C   0  0  0  0  0  3  0  0  0  0  0  0
  178.9680  179.2360  141.8540 C   0  0  0  0  0  2  0  0  0  0  0  0
  183.6920  178.2360  139.4390 C   0  0  2  0  0  3  0  0  0  0  0  0
  182.3590  178.4740  141.3310 N   0  0  0  0  0  0  0  0  0  0  0  0
  183.7090  177.5130  138.1160 C   0  0  2  0  0  3  0  0  0  0  0  0
  185.7510  179.2030  140.4050 C   0  0  0  0  0  1  0  0  0  0  0  0
  181.3930  178.1280  138.9390 C   0  0  1  0  0  3  0  0  0  0  0  0
  1  6  1  0  0  0  0
  4 20  2  0  0  0  0
  4 22  1  0  0  0  0
  5 27  1  6  0  0  0
  5 17  1  0  0  0  0
  6 23  1  0  0  0  0
  7  8  2  0  0  0  0
  8  2  2  0  0  0  0
  9 18  2  0  0  0  0
  9 13  1  0  0  0  0
 10  8  1  1  0  0  0
 10 26  1  0  0  0  0
 10 28  1  0  0  0  0
 12 25  1  1  0  0  0
 14  8  1  0  0  0  0
 14  9  1  0  0  0  0
 15 11  2  0  0  0  0
 16 28  1  0  0  0  0
 16  1  2  0  0  0  0
 17  3  2  0  0  0  0
 19 15  1  0  0  0  0
 20 16  1  0  0  0  0
 21  1  1  0  0  0  0
 22 21  2  0  0  0  0
 23 15  1  0  0  0  0
 24 12  1  0  0  0  0
 24  5  1  0  0  0  0
 25 17  1  0  0  0  0
 25 19  1  0  0  0  0
 26 13  1  0  0  0  0
 26 24  1  0  0  0  0
 28 12  1  0  0  0  0
M  END
>  <MODEL>
9

>  <REMARK>
 VINA RESULT:      -4.3      7.015      9.597
  Name = 
  0 active torsions:
  status: ('A' for Active; 'I' for Inactive)
                            x       y       z     vdW  Elec       q    Type
                         _______ _______ _______ _____ _____    ______ ____

>  <TORSDO>
F 0

$$$$
