=
 OpenBabel11122411283D

 37 41  0  0  1  0  0  0  0  0999 V2000
  186.4740  177.4580  137.2720 C   0  0  1  0  0  0  0  0  0  0  0  0
  187.9290  178.7070  141.0630 C   0  0  1  0  0  3  0  0  0  0  0  0
  185.9280  178.8320  139.3990 C   0  0  2  0  0  3  0  0  0  0  0  0
  189.2080  177.8440  141.0520 C   0  0  2  0  0  3  0  0  0  0  0  0
  187.4180  178.5510  139.6340 C   0  0  2  0  0  3  0  0  0  0  0  0
  185.0740  178.6250  140.6500 C   0  0  0  0  0  2  0  0  0  0  0  0
  187.7490  177.1330  139.2470 C   0  0  1  0  0  3  0  0  0  0  0  0
  186.8220  178.6220  136.3600 C   0  0  0  0  0  1  0  0  0  0  0  0
  185.8530  179.0270  141.8950 C   0  0  0  0  0  2  0  0  0  0  0  0
  187.6880  176.9580  137.8430 O   0  0  0  0  0  0  0  0  0  0  0  0
  186.9900  178.2120  141.9920 O   0  0  0  0  0  0  0  0  0  0  0  0
  189.1270  176.8790  139.8550 C   0  0  1  0  0  3  0  0  0  0  0  0
  185.3860  177.9310  138.2770 C   0  0  0  0  0  2  0  0  0  0  0  0
  185.9160  176.4540  136.4840 O   0  0  0  0  0  1  0  0  0  0  0  0
  191.4410  176.4480  139.2130 O   0  0  0  0  0  0  0  0  0  0  0  0
  192.4600  176.9240  138.3740 C   0  0  2  0  0  3  0  0  0  0  0  0
  191.5380  174.9650  136.9680 C   0  0  2  0  0  3  0  0  0  0  0  0
  192.6660  175.9880  137.1730 C   0  0  0  0  0  2  0  0  0  0  0  0
  190.1430  175.5740  136.7270 C   0  0  1  0  0  3  0  0  0  0  0  0
  189.1280  174.6430  136.9510 O   0  0  0  0  0  1  0  0  0  0  0  0
  189.8150  176.9240  137.3870 C   0  0  0  0  0  2  0  0  0  0  0  0
  191.5220  174.0350  138.0130 O   0  0  0  0  0  1  0  0  0  0  0  0
  190.2620  177.1280  138.8520 C   0  0  1  0  0  3  0  0  0  0  0  0
  193.2610  177.4870  140.3550 C   0  0  0  0  0  1  0  0  0  0  0  0
  193.6490  177.0340  139.0940 O   0  0  0  0  0  0  0  0  0  0  0  0
  188.5270  176.1680  142.8430 C   0  0  0  0  0  1  0  0  0  0  0  0
  189.5980  177.1490  142.3730 C   0  0  2  0  0  3  0  0  0  0  0  0
  189.9790  178.1480  143.4790 C   0  0  1  0  0  3  0  0  0  0  0  0
  190.3020  177.0860  145.7250 C   0  0  0  0  0  3  0  0  0  0  0  0
  189.4460  177.7240  144.8190 C   0  0  0  0  0  0  0  0  0  0  0  0
  188.1080  177.9560  145.1740 C   0  0  0  0  0  3  0  0  0  0  0  0
  186.3430  177.7800  146.7660 F   0  0  0  0  0  0  0  0  0  0  0  0
  188.4940  176.9170  147.3280 C   0  0  0  0  0  3  0  0  0  0  0  0
  187.6350  177.5540  146.4260 C   0  0  0  0  0  0  0  0  0  0  0  0
  189.8260  176.6830  146.9770 C   0  0  0  0  0  3  0  0  0  0  0  0
  191.8120  179.6670  144.2470 C   0  0  0  0  0  1  0  0  0  0  0  0
  191.4900  178.3570  143.5520 C   0  0  0  0  0  2  0  0  0  0  0  0
  1  8  1  6  0  0  0
  1 10  1  0  0  0  0
  1 13  1  0  0  0  0
  2 11  1  1  0  0  0
  3 13  1  6  0  0  0
  3  5  1  0  0  0  0
  3  6  1  0  0  0  0
  4  2  1  0  0  0  0
  4 27  1  1  0  0  0
  5  2  1  0  0  0  0
  6  9  1  0  0  0  0
  7  5  1  0  0  0  0
  7 12  1  0  0  0  0
  9 11  1  0  0  0  0
 10  7  1  0  0  0  0
 12  4  1  0  0  0  0
 14  1  1  0  0  0  0
 16 25  1  0  0  0  0
 16 15  1  0  0  0  0
 17 18  1  0  0  0  0
 17 22  1  0  0  0  0
 18 16  1  0  0  0  0
 19 20  1  0  0  0  0
 19 17  1  0  0  0  0
 19 21  1  0  0  0  0
 21 23  1  0  0  0  0
 23 15  1  0  0  0  0
 23 12  1  0  0  0  0
 25 24  1  0  0  0  0
 27 26  1  0  0  0  0
 27 28  1  0  0  0  0
 28 37  1  0  0  0  0
 28 30  1  0  0  0  0
 29 35  1  0  0  0  0
 30 31  1  0  0  0  0
 30 29  2  0  0  0  0
 31 34  2  0  0  0  0
 34 32  1  0  0  0  0
 34 33  1  0  0  0  0
 35 33  2  0  0  0  0
 37 36  1  0  0  0  0
M  END
>  <MODEL>
1

>  <REMARK>
 VINA RESULT:      -8.5      0.000      0.000
  Name = 
  6 active torsions:
  status: ('A' for Active; 'I' for Inactive)
    1  A    between atoms: C_4  and  O_37
    2  A    between atoms: C_7  and  C_10
    3  A    between atoms: C_10  and  C_23
    4  A    between atoms: C_21  and  C_27
    5  A    between atoms: C_23  and  C_28
    6  A    between atoms: C_23  and  C_30
                            x       y       z     vdW  Elec       q    Type
                         _______ _______ _______ _____ _____    ______ ____

>  <TORSDO>
F 6

$$$$
=
 OpenBabel11122411283D

 37 41  0  0  1  0  0  0  0  0999 V2000
  191.1780  177.9170  143.4950 C   0  0  1  0  0  0  0  0  0  0  0  0
  187.1000  177.1290  142.5980 C   0  0  1  0  0  3  0  0  0  0  0  0
  188.9740  176.8970  144.3950 C   0  0  2  0  0  3  0  0  0  0  0  0
  187.0640  177.8980  141.2620 C   0  0  2  0  0  3  0  0  0  0  0  0
  188.5900  177.1130  142.9250 C   0  0  2  0  0  3  0  0  0  0  0  0
  187.8790  177.3330  145.3700 C   0  0  0  0  0  2  0  0  0  0  0  0
  189.1180  178.4370  142.4370 C   0  0  1  0  0  3  0  0  0  0  0  0
  191.8750  176.6150  143.1390 C   0  0  0  0  0  1  0  0  0  0  0  0
  186.5040  177.0630  144.7770 C   0  0  0  0  0  2  0  0  0  0  0  0
  190.5290  178.4150  142.3200 O   0  0  0  0  0  0  0  0  0  0  0  0
  186.3720  177.8090  143.5970 O   0  0  0  0  0  0  0  0  0  0  0  0
  188.3790  178.6860  141.1240 C   0  0  1  0  0  3  0  0  0  0  0  0
  190.2650  177.6620  144.7280 C   0  0  0  0  0  2  0  0  0  0  0  0
  192.1570  178.8330  143.8750 O   0  0  0  0  0  1  0  0  0  0  0  0
  189.0670  176.8400  139.6860 O   0  0  0  0  0  0  0  0  0  0  0  0
  190.0140  176.4950  138.7090 C   0  0  2  0  0  3  0  0  0  0  0  0
  187.9810  177.0950  137.2350 C   0  0  2  0  0  3  0  0  0  0  0  0
  189.3740  176.4500  137.3140 C   0  0  0  0  0  2  0  0  0  0  0  0
  187.9340  178.5880  137.6150 C   0  0  1  0  0  3  0  0  0  0  0  0
  186.6360  179.0030  137.9150 O   0  0  0  0  0  1  0  0  0  0  0  0
  188.9390  179.1050  138.6580 C   0  0  0  0  0  2  0  0  0  0  0  0
  187.0510  176.3480  137.9640 O   0  0  0  0  0  1  0  0  0  0  0  0
  189.1880  178.2250  139.9040 C   0  0  1  0  0  3  0  0  0  0  0  0
  191.4380  174.9850  137.9520 C   0  0  0  0  0  1  0  0  0  0  0  0
  190.5710  175.2530  139.0120 O   0  0  0  0  0  0  0  0  0  0  0  0
  185.6210  179.8590  142.0020 C   0  0  0  0  0  1  0  0  0  0  0  0
  185.8080  178.7470  140.9740 C   0  0  2  0  0  3  0  0  0  0  0  0
  184.5370  177.8940  140.8190 C   0  0  1  0  0  3  0  0  0  0  0  0
  182.1810  178.6290  141.2480 C   0  0  0  0  0  3  0  0  0  0  0  0
  183.4520  178.3390  141.7590 C   0  0  0  0  0  0  0  0  0  0  0  0
  183.6920  178.4680  143.1350 C   0  0  0  0  0  3  0  0  0  0  0  0
  182.9020  179.0050  145.3190 F   0  0  0  0  0  0  0  0  0  0  0  0
  181.3990  179.1700  143.4750 C   0  0  0  0  0  3  0  0  0  0  0  0
  182.6670  178.8820  143.9900 C   0  0  0  0  0  0  0  0  0  0  0  0
  181.1570  179.0440  142.1040 C   0  0  0  0  0  3  0  0  0  0  0  0
  183.4330  176.5500  139.0210 C   0  0  0  0  0  1  0  0  0  0  0  0
  184.0280  177.8990  139.3800 C   0  0  0  0  0  2  0  0  0  0  0  0
  1  8  1  6  0  0  0
  1 14  1  0  0  0  0
  1 13  1  0  0  0  0
  2  5  1  0  0  0  0
  2 11  1  1  0  0  0
  3 13  1  1  0  0  0
  3  6  1  0  0  0  0
  4 27  1  1  0  0  0
  4  2  1  0  0  0  0
  5  3  1  0  0  0  0
  7  5  1  0  0  0  0
  9  6  1  0  0  0  0
 10  7  1  0  0  0  0
 10  1  1  0  0  0  0
 11  9  1  0  0  0  0
 12  4  1  0  0  0  0
 12  7  1  0  0  0  0
 15 23  1  0  0  0  0
 16 25  1  0  0  0  0
 16 15  1  0  0  0  0
 17 18  1  0  0  0  0
 17 19  1  0  0  0  0
 17 22  1  0  0  0  0
 18 16  1  0  0  0  0
 19 20  1  0  0  0  0
 19 21  1  0  0  0  0
 21 23  1  0  0  0  0
 23 12  1  0  0  0  0
 24 25  1  0  0  0  0
 27 26  1  0  0  0  0
 28 27  1  0  0  0  0
 28 30  1  0  0  0  0
 29 30  2  0  0  0  0
 29 35  1  0  0  0  0
 30 31  1  0  0  0  0
 31 34  2  0  0  0  0
 33 34  1  0  0  0  0
 34 32  1  0  0  0  0
 35 33  2  0  0  0  0
 36 37  1  0  0  0  0
 37 28  1  0  0  0  0
M  END
>  <MODEL>
2

>  <REMARK>
 VINA RESULT:      -8.3      2.246      5.802
  Name = 
  6 active torsions:
  status: ('A' for Active; 'I' for Inactive)
    1  A    between atoms: C_4  and  O_37
    2  A    between atoms: C_7  and  C_10
    3  A    between atoms: C_10  and  C_23
    4  A    between atoms: C_21  and  C_27
    5  A    between atoms: C_23  and  C_28
    6  A    between atoms: C_23  and  C_30
                            x       y       z     vdW  Elec       q    Type
                         _______ _______ _______ _____ _____    ______ ____

>  <TORSDO>
F 6

$$$$
=
 OpenBabel11122411283D

 37 41  0  0  1  0  0  0  0  0999 V2000
  188.4220  178.2500  138.3420 C   0  0  1  0  0  0  0  0  0  0  0  0
  186.9420  177.6030  142.2720 C   0  0  1  0  0  3  0  0  0  0  0  0
  189.0550  177.5310  140.7490 C   0  0  2  0  0  3  0  0  0  0  0  0
  185.5240  178.1550  142.0170 C   0  0  2  0  0  3  0  0  0  0  0  0
  187.5240  177.5390  140.8630 C   0  0  2  0  0  3  0  0  0  0  0  0
  189.7500  178.1850  141.9430 C   0  0  0  0  0  2  0  0  0  0  0  0
  186.9540  178.7340  140.1430 C   0  0  1  0  0  3  0  0  0  0  0  0
  188.3830  176.8650  137.7190 C   0  0  0  0  0  1  0  0  0  0  0  0
  188.9680  177.9170  143.2220 C   0  0  0  0  0  2  0  0  0  0  0  0
  187.0920  178.6000  138.7410 O   0  0  0  0  0  0  0  0  0  0  0  0
  187.6890  178.4780  143.0880 O   0  0  0  0  0  0  0  0  0  0  0  0
  185.5090  178.8230  140.6310 C   0  0  1  0  0  3  0  0  0  0  0  0
  189.4980  178.2520  139.4640 C   0  0  0  0  0  2  0  0  0  0  0  0
  188.8330  179.1470  137.3590 O   0  0  0  0  0  1  0  0  0  0  0  0
  183.4030  177.6230  140.3580 O   0  0  0  0  0  0  0  0  0  0  0  0
  182.7030  176.8160  139.4480 C   0  0  2  0  0  3  0  0  0  0  0  0
  181.6320  179.1200  138.9910 C   0  0  2  0  0  3  0  0  0  0  0  0
  181.5580  177.5990  138.7870 C   0  0  0  0  0  2  0  0  0  0  0  0
  182.9060  179.7900  138.4390 C   0  0  1  0  0  3  0  0  0  0  0  0
  183.1050  181.0540  138.9940 O   0  0  0  0  0  1  0  0  0  0  0  0
  184.2090  178.9750  138.4270 C   0  0  0  0  0  2  0  0  0  0  0  0
  181.4180  179.4470  140.3340 O   0  0  0  0  0  1  0  0  0  0  0  0
  184.5290  178.1250  139.6780 C   0  0  1  0  0  3  0  0  0  0  0  0
  180.9290  175.5020  139.5420 C   0  0  0  0  0  1  0  0  0  0  0  0
  182.1890  175.7000  140.1070 O   0  0  0  0  0  0  0  0  0  0  0  0
  185.8240  180.1730  143.5390 C   0  0  0  0  0  1  0  0  0  0  0  0
  184.9010  179.0300  143.1250 C   0  0  2  0  0  3  0  0  0  0  0  0
  184.4340  178.2070  144.3380 C   0  0  1  0  0  3  0  0  0  0  0  0
  185.2480  179.2660  146.4580 C   0  0  0  0  0  3  0  0  0  0  0  0
  185.4160  178.2850  145.4740 C   0  0  0  0  0  0  0  0  0  0  0  0
  186.4950  177.3920  145.5610 C   0  0  0  0  0  3  0  0  0  0  0  0
  188.4360  176.6180  146.7090 F   0  0  0  0  0  0  0  0  0  0  0  0
  187.2230  178.4640  147.6080 C   0  0  0  0  0  3  0  0  0  0  0  0
  187.3950  177.4820  146.6270 C   0  0  0  0  0  0  0  0  0  0  0  0
  186.1500  179.3550  147.5230 C   0  0  0  0  0  3  0  0  0  0  0  0
  182.1780  179.0160  143.6230 C   0  0  0  0  0  1  0  0  0  0  0  0
  183.0460  178.6370  144.8080 C   0  0  0  0  0  2  0  0  0  0  0  0
  1  8  1  6  0  0  0
  1 10  1  0  0  0  0
  1 13  1  0  0  0  0
  2 11  1  1  0  0  0
  3 13  1  6  0  0  0
  3  5  1  0  0  0  0
  3  6  1  0  0  0  0
  4  2  1  0  0  0  0
  4 27  1  1  0  0  0
  5  2  1  0  0  0  0
  6  9  1  0  0  0  0
  7 12  1  0  0  0  0
  7  5  1  0  0  0  0
 10  7  1  0  0  0  0
 11  9  1  0  0  0  0
 12  4  1  0  0  0  0
 14  1  1  0  0  0  0
 16 25  1  0  0  0  0
 16 15  1  0  0  0  0
 17 22  1  0  0  0  0
 18 17  1  0  0  0  0
 18 16  1  0  0  0  0
 19 17  1  0  0  0  0
 19 20  1  0  0  0  0
 21 19  1  0  0  0  0
 21 23  1  0  0  0  0
 23 15  1  0  0  0  0
 23 12  1  0  0  0  0
 24 25  1  0  0  0  0
 27 26  1  0  0  0  0
 27 28  1  0  0  0  0
 28 37  1  0  0  0  0
 28 30  1  0  0  0  0
 29 35  1  0  0  0  0
 30 31  1  0  0  0  0
 30 29  2  0  0  0  0
 31 34  2  0  0  0  0
 34 32  1  0  0  0  0
 34 33  1  0  0  0  0
 35 33  2  0  0  0  0
 36 37  1  0  0  0  0
M  END
>  <MODEL>
3

>  <REMARK>
 VINA RESULT:      -8.3      2.846      6.453
  Name = 
  6 active torsions:
  status: ('A' for Active; 'I' for Inactive)
    1  A    between atoms: C_4  and  O_37
    2  A    between atoms: C_7  and  C_10
    3  A    between atoms: C_10  and  C_23
    4  A    between atoms: C_21  and  C_27
    5  A    between atoms: C_23  and  C_28
    6  A    between atoms: C_23  and  C_30
                            x       y       z     vdW  Elec       q    Type
                         _______ _______ _______ _____ _____    ______ ____

>  <TORSDO>
F 6

$$$$
=
 OpenBabel11122411283D

 37 41  0  0  1  0  0  0  0  0999 V2000
  182.0500  178.6180  140.9520 C   0  0  1  0  0  0  0  0  0  0  0  0
  185.6730  179.0780  143.1230 C   0  0  1  0  0  3  0  0  0  0  0  0
  183.0790  179.3110  143.2260 C   0  0  2  0  0  3  0  0  0  0  0  0
  186.5950  178.4520  142.0570 C   0  0  2  0  0  3  0  0  0  0  0  0
  184.3510  179.2110  142.3730 C   0  0  2  0  0  3  0  0  0  0  0  0
  183.2300  178.6670  144.6050 C   0  0  0  0  0  2  0  0  0  0  0  0
  184.2830  178.0040  141.4730 C   0  0  1  0  0  3  0  0  0  0  0  0
  181.7810  180.0130  140.4160 C   0  0  0  0  0  1  0  0  0  0  0  0
  184.6480  178.8570  145.1250 C   0  0  0  0  0  2  0  0  0  0  0  0
  183.3190  178.1810  140.4510 O   0  0  0  0  0  0  0  0  0  0  0  0
  185.5360  178.2280  144.2400 O   0  0  0  0  0  0  0  0  0  0  0  0
  185.7120  177.8200  140.9670 C   0  0  1  0  0  3  0  0  0  0  0  0
  181.8960  178.6490  142.4990 C   0  0  0  0  0  2  0  0  0  0  0  0
  181.0660  177.7710  140.4460 O   0  0  0  0  0  1  0  0  0  0  0  0
  187.1840  178.1370  139.0480 O   0  0  0  0  0  0  0  0  0  0  0  0
  187.3820  178.9680  137.9350 C   0  0  2  0  0  3  0  0  0  0  0  0
  186.1400  176.9810  136.8530 C   0  0  2  0  0  3  0  0  0  0  0  0
  186.9660  178.2580  136.6380 C   0  0  0  0  0  2  0  0  0  0  0  0
  184.8090  177.1860  137.6050 C   0  0  1  0  0  3  0  0  0  0  0  0
  184.3160  175.9860  138.1170 O   0  0  0  0  0  1  0  0  0  0  0  0
  184.7320  178.3110  138.6510 C   0  0  0  0  0  2  0  0  0  0  0  0
  186.9190  175.9840  137.4470 O   0  0  0  0  0  1  0  0  0  0  0  0
  185.9370  178.4840  139.6020 C   0  0  1  0  0  3  0  0  0  0  0  0
  189.3970  178.1710  137.5020 C   0  0  0  0  0  1  0  0  0  0  0  0
  188.7240  179.3400  137.8580 O   0  0  0  0  0  0  0  0  0  0  0  0
  187.1970  176.4990  143.5740 C   0  0  0  0  0  1  0  0  0  0  0  0
  187.7140  177.5150  142.5590 C   0  0  2  0  0  3  0  0  0  0  0  0
  188.9360  178.2820  143.0930 C   0  0  1  0  0  3  0  0  0  0  0  0
  188.4390  177.9960  145.5320 C   0  0  0  0  0  3  0  0  0  0  0  0
  189.3290  177.8140  144.4670 C   0  0  0  0  0  0  0  0  0  0  0  0
  190.5690  177.2000  144.6970 C   0  0  0  0  0  3  0  0  0  0  0  0
  192.1110  176.1780  146.2010 F   0  0  0  0  0  0  0  0  0  0  0  0
  190.0190  176.9550  147.0420 C   0  0  0  0  0  3  0  0  0  0  0  0
  190.9120  176.7710  145.9820 C   0  0  0  0  0  0  0  0  0  0  0  0
  188.7840  177.5680  146.8170 C   0  0  0  0  0  3  0  0  0  0  0  0
  189.8660  177.1280  141.0780 C   0  0  0  0  0  1  0  0  0  0  0  0
  190.1240  178.1820  142.1390 C   0  0  0  0  0  2  0  0  0  0  0  0
  1  8  1  6  0  0  0
  1 13  1  0  0  0  0
  2 11  1  1  0  0  0
  3 13  1  6  0  0  0
  3  6  1  0  0  0  0
  4 27  1  1  0  0  0
  4  2  1  0  0  0  0
  5  2  1  0  0  0  0
  5  3  1  0  0  0  0
  6  9  1  0  0  0  0
  7  5  1  0  0  0  0
 10  1  1  0  0  0  0
 10  7  1  0  0  0  0
 11  9  1  0  0  0  0
 12  7  1  0  0  0  0
 12  4  1  0  0  0  0
 14  1  1  0  0  0  0
 15 23  1  0  0  0  0
 16 15  1  0  0  0  0
 17 22  1  0  0  0  0
 17 19  1  0  0  0  0
 18 17  1  0  0  0  0
 18 16  1  0  0  0  0
 19 20  1  0  0  0  0
 19 21  1  0  0  0  0
 21 23  1  0  0  0  0
 23 12  1  0  0  0  0
 24 25  1  0  0  0  0
 25 16  1  0  0  0  0
 27 28  1  0  0  0  0
 27 26  1  0  0  0  0
 28 30  1  0  0  0  0
 29 35  1  0  0  0  0
 30 31  1  0  0  0  0
 30 29  2  0  0  0  0
 31 34  2  0  0  0  0
 34 32  1  0  0  0  0
 34 33  1  0  0  0  0
 35 33  2  0  0  0  0
 36 37  1  0  0  0  0
 37 28  1  0  0  0  0
M  END
>  <MODEL>
4

>  <REMARK>
 VINA RESULT:      -8.1      2.507      4.382
  Name = 
  6 active torsions:
  status: ('A' for Active; 'I' for Inactive)
    1  A    between atoms: C_4  and  O_37
    2  A    between atoms: C_7  and  C_10
    3  A    between atoms: C_10  and  C_23
    4  A    between atoms: C_21  and  C_27
    5  A    between atoms: C_23  and  C_28
    6  A    between atoms: C_23  and  C_30
                            x       y       z     vdW  Elec       q    Type
                         _______ _______ _______ _____ _____    ______ ____

>  <TORSDO>
F 6

$$$$
=
 OpenBabel11122411283D

 37 41  0  0  1  0  0  0  0  0999 V2000
  192.4730  175.5080  135.8250 C   0  0  1  0  0  0  0  0  0  0  0  0
  190.5560  176.5360  139.4740 C   0  0  1  0  0  3  0  0  0  0  0  0
  192.8330  175.9450  138.3530 C   0  0  2  0  0  3  0  0  0  0  0  0
  189.1700  176.8310  138.8660 C   0  0  2  0  0  3  0  0  0  0  0  0
  191.2990  175.9050  138.3010 C   0  0  2  0  0  3  0  0  0  0  0  0
  193.3750  177.0960  139.2020 C   0  0  0  0  0  2  0  0  0  0  0  0
  190.7990  176.6310  137.0780 C   0  0  1  0  0  3  0  0  0  0  0  0
  192.5270  173.9920  135.8700 C   0  0  0  0  0  1  0  0  0  0  0  0
  192.4530  177.3590  140.3850 C   0  0  0  0  0  2  0  0  0  0  0  0
  191.1010  175.9110  135.8970 O   0  0  0  0  0  0  0  0  0  0  0  0
  191.1910  177.7230  139.8950 O   0  0  0  0  0  0  0  0  0  0  0  0
  189.3070  176.8300  137.3330 C   0  0  1  0  0  3  0  0  0  0  0  0
  193.4110  176.0650  136.9330 C   0  0  0  0  0  2  0  0  0  0  0  0
  192.9830  175.9150  134.5940 O   0  0  0  0  0  1  0  0  0  0  0  0
  187.4230  175.2950  137.5460 O   0  0  0  0  0  0  0  0  0  0  0  0
  186.8640  174.1470  136.9650 C   0  0  2  0  0  3  0  0  0  0  0  0
  185.4350  175.9990  135.8730 C   0  0  2  0  0  3  0  0  0  0  0  0
  185.6090  174.4980  136.1510 C   0  0  0  0  0  2  0  0  0  0  0  0
  186.5850  176.6510  135.0790 C   0  0  1  0  0  3  0  0  0  0  0  0
  186.5760  178.0400  135.2080 O   0  0  0  0  0  1  0  0  0  0  0  0
  188.0030  176.0840  135.2570 C   0  0  0  0  0  2  0  0  0  0  0  0
  185.1690  176.6920  137.0580 O   0  0  0  0  0  1  0  0  0  0  0  0
  188.4540  175.7270  136.6910 C   0  0  1  0  0  3  0  0  0  0  0  0
  185.2370  172.8210  137.6560 C   0  0  0  0  0  1  0  0  0  0  0  0
  186.5360  173.2270  137.9600 O   0  0  0  0  0  0  0  0  0  0  0  0
  188.9950  179.3700  138.8970 C   0  0  0  0  0  1  0  0  0  0  0  0
  188.4100  178.0580  139.4120 C   0  0  2  0  0  3  0  0  0  0  0  0
  188.2940  178.0500  140.9460 C   0  0  1  0  0  3  0  0  0  0  0  0
  185.9080  178.6330  140.4520 C   0  0  0  0  0  3  0  0  0  0  0  0
  186.8790  178.2830  141.3980 C   0  0  0  0  0  0  0  0  0  0  0  0
  186.5180  178.1560  142.7480 C   0  0  0  0  0  3  0  0  0  0  0  0
  184.8500  178.2530  144.4480 F   0  0  0  0  0  0  0  0  0  0  0  0
  184.2300  178.7260  142.1950 C   0  0  0  0  0  3  0  0  0  0  0  0
  185.1960  178.3770  143.1440 C   0  0  0  0  0  0  0  0  0  0  0  0
  184.5860  178.8550  140.8500 C   0  0  0  0  0  3  0  0  0  0  0  0
  189.5570  177.0300  142.8490 C   0  0  0  0  0  1  0  0  0  0  0  0
  188.8340  176.7530  141.5450 C   0  0  0  0  0  2  0  0  0  0  0  0
  1  8  1  1  0  0  0
  1 10  1  0  0  0  0
  1 13  1  0  0  0  0
  2 11  1  6  0  0  0
  3 13  1  6  0  0  0
  3  6  1  0  0  0  0
  4 27  1  1  0  0  0
  4  2  1  0  0  0  0
  5  3  1  0  0  0  0
  5  2  1  0  0  0  0
  6  9  1  0  0  0  0
  7 12  1  0  0  0  0
  7  5  1  0  0  0  0
 10  7  1  0  0  0  0
 11  9  1  0  0  0  0
 12  4  1  0  0  0  0
 14  1  1  0  0  0  0
 16 15  1  0  0  0  0
 16 25  1  0  0  0  0
 17 18  1  0  0  0  0
 17 22  1  0  0  0  0
 18 16  1  0  0  0  0
 19 20  1  0  0  0  0
 19 21  1  0  0  0  0
 19 17  1  0  0  0  0
 21 23  1  0  0  0  0
 23 12  1  0  0  0  0
 23 15  1  0  0  0  0
 24 25  1  0  0  0  0
 26 27  1  0  0  0  0
 27 28  1  0  0  0  0
 28 30  1  0  0  0  0
 28 37  1  0  0  0  0
 29 35  2  0  0  0  0
 29 30  1  0  0  0  0
 30 31  2  0  0  0  0
 31 34  1  0  0  0  0
 33 34  2  0  0  0  0
 34 32  1  0  0  0  0
 35 33  1  0  0  0  0
 37 36  1  0  0  0  0
M  END
>  <MODEL>
5

>  <REMARK>
 VINA RESULT:      -7.8      2.245      5.726
  Name = 
  6 active torsions:
  status: ('A' for Active; 'I' for Inactive)
    1  A    between atoms: C_4  and  O_37
    2  A    between atoms: C_7  and  C_10
    3  A    between atoms: C_10  and  C_23
    4  A    between atoms: C_21  and  C_27
    5  A    between atoms: C_23  and  C_28
    6  A    between atoms: C_23  and  C_30
                            x       y       z     vdW  Elec       q    Type
                         _______ _______ _______ _____ _____    ______ ____

>  <TORSDO>
F 6

$$$$
=
 OpenBabel11122411283D

 37 41  0  0  1  0  0  0  0  0999 V2000
  190.5870  177.4660  143.0660 C   0  0  1  0  0  0  0  0  0  0  0  0
  186.3590  177.4850  142.6470 C   0  0  1  0  0  3  0  0  0  0  0  0
  188.3360  177.1590  144.3120 C   0  0  2  0  0  3  0  0  0  0  0  0
  186.3300  177.9870  141.1880 C   0  0  2  0  0  3  0  0  0  0  0  0
  187.8390  177.1870  142.8600 C   0  0  2  0  0  3  0  0  0  0  0  0
  187.4790  178.0030  145.2560 C   0  0  0  0  0  2  0  0  0  0  0  0
  188.5740  178.2450  142.0780 C   0  0  1  0  0  3  0  0  0  0  0  0
  190.9470  175.9970  142.9310 C   0  0  0  0  0  1  0  0  0  0  0  0
  186.0180  177.9530  144.8310 C   0  0  0  0  0  2  0  0  0  0  0  0
  189.9250  177.8780  141.8650 O   0  0  0  0  0  0  0  0  0  0  0  0
  185.9110  178.4840  143.5370 O   0  0  0  0  0  0  0  0  0  0  0  0
  187.7570  178.4150  140.7990 C   0  0  1  0  0  3  0  0  0  0  0  0
  189.7900  177.6550  144.3880 C   0  0  0  0  0  2  0  0  0  0  0  0
  191.7740  178.1860  143.1800 O   0  0  0  0  0  1  0  0  0  0  0  0
  187.2870  177.1820  138.7460 O   0  0  0  0  0  0  0  0  0  0  0  0
  187.8470  176.2360  137.8750 C   0  0  2  0  0  3  0  0  0  0  0  0
  188.3740  178.4310  136.6240 C   0  0  2  0  0  3  0  0  0  0  0  0
  188.3090  176.8970  136.5680 C   0  0  0  0  0  2  0  0  0  0  0  0
  189.3330  179.0030  137.6860 C   0  0  1  0  0  3  0  0  0  0  0  0
  189.0550  180.3420  137.9640 O   0  0  0  0  0  1  0  0  0  0  0  0
  189.5480  178.1990  138.9790 C   0  0  0  0  0  2  0  0  0  0  0  0
  187.0910  178.9740  136.7410 O   0  0  0  0  0  1  0  0  0  0  0  0
  188.3030  177.5680  139.6410 C   0  0  1  0  0  3  0  0  0  0  0  0
  187.0510  174.9960  136.2280 C   0  0  0  0  0  1  0  0  0  0  0  0
  186.9090  175.2420  137.5940 O   0  0  0  0  0  0  0  0  0  0  0  0
  184.0690  178.9920  141.7850 C   0  0  0  0  0  1  0  0  0  0  0  0
  185.2570  179.0350  140.8270 C   0  0  2  0  0  3  0  0  0  0  0  0
  184.8070  178.9430  139.3580 C   0  0  1  0  0  3  0  0  0  0  0  0
  183.0700  177.2810  140.0630 C   0  0  0  0  0  3  0  0  0  0  0  0
  183.9970  177.7030  139.1020 C   0  0  0  0  0  0  0  0  0  0  0  0
  184.1540  176.9650  137.9190 C   0  0  0  0  0  3  0  0  0  0  0  0
  183.5430  175.1050  136.5590 F   0  0  0  0  0  0  0  0  0  0  0  0
  182.4640  175.3990  138.6650 C   0  0  0  0  0  3  0  0  0  0  0  0
  183.3880  175.8160  137.7020 C   0  0  0  0  0  0  0  0  0  0  0  0
  182.3060  176.1310  139.8450 C   0  0  0  0  0  3  0  0  0  0  0  0
  182.5660  179.8430  138.7100 C   0  0  0  0  0  1  0  0  0  0  0  0
  184.0280  180.1840  138.9300 C   0  0  0  0  0  2  0  0  0  0  0  0
  1  8  1  6  0  0  0
  1 14  1  0  0  0  0
  1 13  1  0  0  0  0
  2  5  1  0  0  0  0
  2 11  1  1  0  0  0
  3 13  1  6  0  0  0
  3  6  1  0  0  0  0
  4 27  1  1  0  0  0
  4  2  1  0  0  0  0
  5  3  1  0  0  0  0
  7  5  1  0  0  0  0
  9  6  1  0  0  0  0
 10  7  1  0  0  0  0
 10  1  1  0  0  0  0
 11  9  1  0  0  0  0
 12  4  1  0  0  0  0
 12  7  1  0  0  0  0
 15 23  1  0  0  0  0
 16 15  1  0  0  0  0
 17 22  1  0  0  0  0
 17 19  1  0  0  0  0
 18 17  1  0  0  0  0
 18 16  1  0  0  0  0
 19 20  1  0  0  0  0
 19 21  1  0  0  0  0
 21 23  1  0  0  0  0
 23 12  1  0  0  0  0
 24 25  1  0  0  0  0
 25 16  1  0  0  0  0
 27 26  1  0  0  0  0
 28 27  1  0  0  0  0
 30 28  1  0  0  0  0
 30 29  2  0  0  0  0
 31 30  1  0  0  0  0
 32 34  1  0  0  0  0
 33 35  2  0  0  0  0
 34 31  2  0  0  0  0
 34 33  1  0  0  0  0
 35 29  1  0  0  0  0
 36 37  1  0  0  0  0
 37 28  1  0  0  0  0
M  END
>  <MODEL>
6

>  <REMARK>
 VINA RESULT:      -7.8      2.871      6.656
  Name = 
  6 active torsions:
  status: ('A' for Active; 'I' for Inactive)
    1  A    between atoms: C_4  and  O_37
    2  A    between atoms: C_7  and  C_10
    3  A    between atoms: C_10  and  C_23
    4  A    between atoms: C_21  and  C_27
    5  A    between atoms: C_23  and  C_28
    6  A    between atoms: C_23  and  C_30
                            x       y       z     vdW  Elec       q    Type
                         _______ _______ _______ _____ _____    ______ ____

>  <TORSDO>
F 6

$$$$
=
 OpenBabel11122411283D

 37 41  0  0  1  0  0  0  0  0999 V2000
  192.5990  176.7660  138.6560 C   0  0  1  0  0  0  0  0  0  0  0  0
  189.3050  177.0250  141.3270 C   0  0  1  0  0  3  0  0  0  0  0  0
  191.8650  176.5740  141.1330 C   0  0  2  0  0  3  0  0  0  0  0  0
  188.2830  177.5400  140.2930 C   0  0  2  0  0  3  0  0  0  0  0  0
  190.4920  176.6430  140.4490 C   0  0  2  0  0  3  0  0  0  0  0  0
  191.9590  177.4570  142.3780 C   0  0  0  0  0  2  0  0  0  0  0  0
  190.5120  177.6650  139.3410 C   0  0  1  0  0  3  0  0  0  0  0  0
  192.6930  175.2810  138.3550 C   0  0  0  0  0  1  0  0  0  0  0  0
  190.6210  177.4920  143.1040 C   0  0  0  0  0  2  0  0  0  0  0  0
  191.3040  177.2250  138.2530 O   0  0  0  0  0  0  0  0  0  0  0  0
  189.6590  178.0390  142.2410 O   0  0  0  0  0  0  0  0  0  0  0  0
  189.0400  177.8910  139.0000 C   0  0  1  0  0  3  0  0  0  0  0  0
  192.9720  176.9880  140.1490 C   0  0  0  0  0  2  0  0  0  0  0  0
  193.5550  177.4180  137.8790 O   0  0  0  0  0  1  0  0  0  0  0  0
  187.3680  176.3570  138.1030 O   0  0  0  0  0  0  0  0  0  0  0  0
  187.1630  175.4310  137.0700 C   0  0  2  0  0  3  0  0  0  0  0  0
  185.9990  177.5190  136.0970 C   0  0  2  0  0  3  0  0  0  0  0  0
  186.2270  176.0040  135.9950 C   0  0  0  0  0  2  0  0  0  0  0  0
  187.2740  178.3780  135.9740 C   0  0  1  0  0  3  0  0  0  0  0  0
  187.0760  179.6680  136.4670 O   0  0  0  0  0  1  0  0  0  0  0  0
  188.6000  177.7870  136.4780 C   0  0  0  0  0  2  0  0  0  0  0  0
  185.2770  177.8320  137.2530 O   0  0  0  0  0  1  0  0  0  0  0  0
  188.5760  177.0250  137.8210 C   0  0  1  0  0  3  0  0  0  0  0  0
  187.2020  173.2330  136.8470 C   0  0  0  0  0  1  0  0  0  0  0  0
  186.6180  174.2580  137.5910 O   0  0  0  0  0  0  0  0  0  0  0  0
  187.9810  179.6240  141.7230 C   0  0  0  0  0  1  0  0  0  0  0  0
  187.3150  178.6490  140.7550 C   0  0  2  0  0  3  0  0  0  0  0  0
  186.0000  178.0900  141.3250 C   0  0  1  0  0  3  0  0  0  0  0  0
  184.9890  179.1660  143.3500 C   0  0  0  0  0  3  0  0  0  0  0  0
  185.9210  178.2670  142.8160 C   0  0  0  0  0  0  0  0  0  0  0  0
  186.7630  177.5480  143.6780 C   0  0  0  0  0  3  0  0  0  0  0  0
  187.4850  177.0310  145.8900 F   0  0  0  0  0  0  0  0  0  0  0  0
  185.7380  178.6270  145.5880 C   0  0  0  0  0  3  0  0  0  0  0  0
  186.6700  177.7280  145.0610 C   0  0  0  0  0  0  0  0  0  0  0  0
  184.8990  179.3460  144.7330 C   0  0  0  0  0  3  0  0  0  0  0  0
  183.6970  177.6800  140.4380 C   0  0  0  0  0  1  0  0  0  0  0  0
  184.7820  178.7190  140.6510 C   0  0  0  0  0  2  0  0  0  0  0  0
  1  8  1  6  0  0  0
  1 13  1  0  0  0  0
  2 11  1  1  0  0  0
  3 13  1  6  0  0  0
  3  6  1  0  0  0  0
  4 27  1  1  0  0  0
  4  2  1  0  0  0  0
  5  3  1  0  0  0  0
  5  2  1  0  0  0  0
  6  9  1  0  0  0  0
  7  5  1  0  0  0  0
 10  1  1  0  0  0  0
 10  7  1  0  0  0  0
 11  9  1  0  0  0  0
 12  7  1  0  0  0  0
 12  4  1  0  0  0  0
 14  1  1  0  0  0  0
 16 25  1  0  0  0  0
 16 15  1  0  0  0  0
 17 22  1  0  0  0  0
 18 17  1  0  0  0  0
 18 16  1  0  0  0  0
 19 17  1  0  0  0  0
 19 20  1  0  0  0  0
 19 21  1  0  0  0  0
 21 23  1  0  0  0  0
 23 15  1  0  0  0  0
 23 12  1  0  0  0  0
 24 25  1  0  0  0  0
 27 28  1  0  0  0  0
 27 26  1  0  0  0  0
 28 30  1  0  0  0  0
 29 35  1  0  0  0  0
 30 29  2  0  0  0  0
 30 31  1  0  0  0  0
 31 34  2  0  0  0  0
 34 33  1  0  0  0  0
 34 32  1  0  0  0  0
 35 33  2  0  0  0  0
 36 37  1  0  0  0  0
 37 28  1  0  0  0  0
M  END
>  <MODEL>
7

>  <REMARK>
 VINA RESULT:      -7.6      1.798      5.316
  Name = 
  6 active torsions:
  status: ('A' for Active; 'I' for Inactive)
    1  A    between atoms: C_4  and  O_37
    2  A    between atoms: C_7  and  C_10
    3  A    between atoms: C_10  and  C_23
    4  A    between atoms: C_21  and  C_27
    5  A    between atoms: C_23  and  C_28
    6  A    between atoms: C_23  and  C_30
                            x       y       z     vdW  Elec       q    Type
                         _______ _______ _______ _____ _____    ______ ____

>  <TORSDO>
F 6

$$$$
=
 OpenBabel11122411283D

 37 41  0  0  1  0  0  0  0  0999 V2000
  185.1550  178.5050  143.2530 C   0  0  1  0  0  0  0  0  0  0  0  0
  185.2110  178.9110  139.0240 C   0  0  1  0  0  3  0  0  0  0  0  0
  186.6680  178.8850  141.1850 C   0  0  2  0  0  3  0  0  0  0  0  0
  183.7250  178.5660  138.7960 C   0  0  2  0  0  3  0  0  0  0  0  0
  185.2850  179.0510  140.5410 C   0  0  2  0  0  3  0  0  0  0  0  0
  187.6200  178.0290  140.3480 C   0  0  0  0  0  2  0  0  0  0  0  0
  184.3310  178.0170  141.0820 C   0  0  1  0  0  3  0  0  0  0  0  0
  185.1170  179.9410  143.7440 C   0  0  0  0  0  1  0  0  0  0  0  0
  187.3670  178.2540  138.8640 C   0  0  0  0  0  2  0  0  0  0  0  0
  184.0030  178.2790  142.4340 O   0  0  0  0  0  0  0  0  0  0  0  0
  186.0500  177.8710  138.5710 O   0  0  0  0  0  0  0  0  0  0  0  0
  183.1410  178.0540  140.1250 C   0  0  1  0  0  3  0  0  0  0  0  0
  186.5350  178.2540  142.5810 C   0  0  0  0  0  2  0  0  0  0  0  0
  185.0690  177.6720  144.3670 O   0  0  0  0  0  1  0  0  0  0  0  0
  181.2880  179.5420  139.5740 O   0  0  0  0  0  0  0  0  0  0  0  0
  180.4510  180.5160  140.1380 C   0  0  2  0  0  3  0  0  0  0  0  0
  178.9400  178.4280  140.2760 C   0  0  2  0  0  3  0  0  0  0  0  0
  179.0400  179.9580  140.3770 C   0  0  0  0  0  2  0  0  0  0  0  0
  179.8190  177.6510  141.2750 C   0  0  1  0  0  3  0  0  0  0  0  0
  179.9990  176.3250  140.8810 O   0  0  0  0  0  1  0  0  0  0  0  0
  181.1480  178.2850  141.7190 C   0  0  0  0  0  2  0  0  0  0  0  0
  179.1580  178.0060  138.9600 O   0  0  0  0  0  1  0  0  0  0  0  0
  182.0130  178.9620  140.6330 C   0  0  1  0  0  3  0  0  0  0  0  0
  181.3560  181.3920  138.3220 C   0  0  0  0  0  1  0  0  0  0  0  0
  180.3810  181.6240  139.2920 O   0  0  0  0  0  0  0  0  0  0  0  0
  182.0580  178.0380  136.9460 C   0  0  0  0  0  1  0  0  0  0  0  0
  183.3910  177.6630  137.5910 C   0  0  2  0  0  3  0  0  0  0  0  0
  183.4550  176.1650  137.9360 C   0  0  1  0  0  3  0  0  0  0  0  0
  181.9150  175.2360  136.1920 C   0  0  0  0  0  3  0  0  0  0  0  0
  182.1900  175.4510  137.5480 C   0  0  0  0  0  0  0  0  0  0  0  0
  181.2850  174.9980  138.5200 C   0  0  0  0  0  3  0  0  0  0  0  0
  179.2450  173.8990  139.0770 F   0  0  0  0  0  0  0  0  0  0  0  0
  179.8460  174.1230  136.7800 C   0  0  0  0  0  3  0  0  0  0  0  0
  180.1160  174.3350  138.1350 C   0  0  0  0  0  0  0  0  0  0  0  0
  180.7440  174.5730  135.8090 C   0  0  0  0  0  3  0  0  0  0  0  0
  184.6670  174.0040  137.5940 C   0  0  0  0  0  1  0  0  0  0  0  0
  184.6640  175.4900  137.2910 C   0  0  0  0  0  2  0  0  0  0  0  0
  1  8  1  1  0  0  0
  1 14  1  0  0  0  0
  2 11  1  1  0  0  0
  2  5  1  0  0  0  0
  3  6  1  6  0  0  0
  3 13  1  0  0  0  0
  4 27  1  6  0  0  0
  4  2  1  0  0  0  0
  4 12  1  0  0  0  0
  5  7  1  0  0  0  0
  5  3  1  0  0  0  0
  7 10  1  0  0  0  0
  9  6  1  0  0  0  0
 10  1  1  0  0  0  0
 11  9  1  0  0  0  0
 12 23  1  0  0  0  0
 12  7  1  0  0  0  0
 13  1  1  0  0  0  0
 15 16  1  0  0  0  0
 15 23  1  0  0  0  0
 16 18  1  0  0  0  0
 17 18  1  0  0  0  0
 17 19  1  0  0  0  0
 19 21  1  0  0  0  0
 20 19  1  0  0  0  0
 22 17  1  0  0  0  0
 23 21  1  0  0  0  0
 24 25  1  0  0  0  0
 25 16  1  0  0  0  0
 26 27  1  0  0  0  0
 27 28  1  0  0  0  0
 29 30  1  0  0  0  0
 30 28  1  0  0  0  0
 30 31  2  0  0  0  0
 33 34  2  0  0  0  0
 34 31  1  0  0  0  0
 34 32  1  0  0  0  0
 35 29  2  0  0  0  0
 35 33  1  0  0  0  0
 37 36  1  0  0  0  0
 37 28  1  0  0  0  0
M  END
>  <MODEL>
8

>  <REMARK>
 VINA RESULT:      -7.3      4.657      9.640
  Name = 
  6 active torsions:
  status: ('A' for Active; 'I' for Inactive)
    1  A    between atoms: C_4  and  O_37
    2  A    between atoms: C_7  and  C_10
    3  A    between atoms: C_10  and  C_23
    4  A    between atoms: C_21  and  C_27
    5  A    between atoms: C_23  and  C_28
    6  A    between atoms: C_23  and  C_30
                            x       y       z     vdW  Elec       q    Type
                         _______ _______ _______ _____ _____    ______ ____

>  <TORSDO>
F 6

$$$$
=
 OpenBabel11122411283D

 37 41  0  0  1  0  0  0  0  0999 V2000
  184.5860  178.6560  143.4590 C   0  0  1  0  0  0  0  0  0  0  0  0
  186.1900  178.7100  139.5250 C   0  0  1  0  0  3  0  0  0  0  0  0
  186.7670  178.7700  142.0660 C   0  0  2  0  0  3  0  0  0  0  0  0
  184.8600  178.4410  138.7910 C   0  0  2  0  0  3  0  0  0  0  0  0
  185.7260  178.9680  140.9550 C   0  0  2  0  0  3  0  0  0  0  0  0
  187.8760  177.7900  141.6800 C   0  0  0  0  0  2  0  0  0  0  0  0
  184.5550  178.0440  141.1660 C   0  0  1  0  0  3  0  0  0  0  0  0
  184.5000  180.1270  143.8250 C   0  0  0  0  0  1  0  0  0  0  0  0
  188.1930  177.9090  140.1950 C   0  0  0  0  0  2  0  0  0  0  0  0
  183.7890  178.4360  142.2900 O   0  0  0  0  0  0  0  0  0  0  0  0
  187.0400  177.5860  139.4650 O   0  0  0  0  0  0  0  0  0  0  0  0
  183.7950  178.0770  139.8410 C   0  0  1  0  0  3  0  0  0  0  0  0
  186.0870  178.2650  143.3490 C   0  0  0  0  0  2  0  0  0  0  0  0
  184.0330  177.9240  144.5080 O   0  0  0  0  0  1  0  0  0  0  0  0
  182.6430  179.9000  138.7010 O   0  0  0  0  0  0  0  0  0  0  0  0
  181.7130  180.9260  138.9220 C   0  0  2  0  0  3  0  0  0  0  0  0
  180.2040  179.1100  137.8810 C   0  0  2  0  0  3  0  0  0  0  0  0
  180.3530  180.5810  138.2960 C   0  0  0  0  0  2  0  0  0  0  0  0
  180.3520  178.0910  139.0280 C   0  0  1  0  0  3  0  0  0  0  0  0
  180.6100  176.8070  138.5480 O   0  0  0  0  0  1  0  0  0  0  0  0
  181.2850  178.4450  140.1980 C   0  0  0  0  0  2  0  0  0  0  0  0
  181.0550  178.8110  136.8130 O   0  0  0  0  0  1  0  0  0  0  0  0
  182.6450  179.0920  139.8550 C   0  0  1  0  0  3  0  0  0  0  0  0
  181.0850  182.6910  137.7500 C   0  0  0  0  0  1  0  0  0  0  0  0
  182.1910  182.1190  138.3800 O   0  0  0  0  0  0  0  0  0  0  0  0
  184.1460  176.1700  137.8890 C   0  0  0  0  0  1  0  0  0  0  0  0
  184.9020  177.4650  137.5970 C   0  0  2  0  0  3  0  0  0  0  0  0
  186.3330  177.1890  137.1040 C   0  0  1  0  0  3  0  0  0  0  0  0
  185.9620  175.6010  135.2030 C   0  0  0  0  0  3  0  0  0  0  0  0
  186.4570  175.8210  136.4940 C   0  0  0  0  0  0  0  0  0  0  0  0
  187.0590  174.7660  137.1960 C   0  0  0  0  0  3  0  0  0  0  0  0
  187.7470  172.4850  137.2870 F   0  0  0  0  0  0  0  0  0  0  0  0
  186.6690  173.2880  135.3170 C   0  0  0  0  0  3  0  0  0  0  0  0
  187.1640  173.5020  136.6070 C   0  0  0  0  0  0  0  0  0  0  0  0
  186.0670  174.3360  134.6160 C   0  0  0  0  0  3  0  0  0  0  0  0
  188.2170  178.6960  136.4440 C   0  0  0  0  0  1  0  0  0  0  0  0
  186.8030  178.2550  136.1170 C   0  0  0  0  0  2  0  0  0  0  0  0
  1  8  1  1  0  0  0
  1 14  1  0  0  0  0
  2 11  1  1  0  0  0
  2  5  1  0  0  0  0
  3  6  1  6  0  0  0
  3 13  1  0  0  0  0
  4 27  1  6  0  0  0
  4  2  1  0  0  0  0
  4 12  1  0  0  0  0
  5  7  1  0  0  0  0
  5  3  1  0  0  0  0
  7 10  1  0  0  0  0
  9  6  1  0  0  0  0
 10  1  1  0  0  0  0
 11  9  1  0  0  0  0
 12 23  1  0  0  0  0
 12  7  1  0  0  0  0
 13  1  1  0  0  0  0
 15 16  1  0  0  0  0
 15 23  1  0  0  0  0
 17 18  1  0  0  0  0
 17 19  1  0  0  0  0
 18 16  1  0  0  0  0
 19 21  1  0  0  0  0
 20 19  1  0  0  0  0
 22 17  1  0  0  0  0
 23 21  1  0  0  0  0
 24 25  1  0  0  0  0
 25 16  1  0  0  0  0
 27 26  1  0  0  0  0
 28 27  1  0  0  0  0
 29 30  1  0  0  0  0
 30 28  1  0  0  0  0
 30 31  2  0  0  0  0
 33 34  2  0  0  0  0
 34 31  1  0  0  0  0
 34 32  1  0  0  0  0
 35 29  2  0  0  0  0
 35 33  1  0  0  0  0
 37 36  1  0  0  0  0
 37 28  1  0  0  0  0
M  END
>  <MODEL>
9

>  <REMARK>
 VINA RESULT:      -7.3      3.883      8.780
  Name = 
  6 active torsions:
  status: ('A' for Active; 'I' for Inactive)
    1  A    between atoms: C_4  and  O_37
    2  A    between atoms: C_7  and  C_10
    3  A    between atoms: C_10  and  C_23
    4  A    between atoms: C_21  and  C_27
    5  A    between atoms: C_23  and  C_28
    6  A    between atoms: C_23  and  C_30
                            x       y       z     vdW  Elec       q    Type
                         _______ _______ _______ _____ _____    ______ ____

>  <TORSDO>
F 6

$$$$
