=
 OpenBabel11122411093D

 31 35  0  0  0  0  0  0  0  0999 V2000
  184.6950  178.6920  144.8490 C   0  0  0  0  0  0  0  0  0  0  0  0
  188.2610  177.5630  144.3890 C   0  0  0  0  0  0  0  0  0  0  0  0
  188.8470  177.5010  145.6890 C   0  0  0  0  0  0  0  0  0  0  0  0
  188.7590  177.7460  148.1180 C   0  0  0  0  0  0  0  0  0  0  0  0
  186.9090  177.9510  144.1240 C   0  0  0  0  0  0  0  0  0  0  0  0
  184.2520  178.7080  143.5270 C   0  0  0  0  0  3  0  0  0  0  0  0
  188.1460  177.8210  146.8660 C   0  0  0  0  0  3  0  0  0  0  0  0
  188.5980  177.2420  141.9700 C   0  0  0  0  0  0  0  0  0  0  0  0
  183.8310  179.0480  145.8740 O   0  0  0  0  0  1  0  0  0  0  0  0
  190.9130  176.7820  144.7110 N   0  0  0  0  0  0  0  0  0  0  0  0
  188.0580  178.0600  149.2340 F   0  0  0  0  0  0  0  0  0  0  0  0
  187.2770  177.6240  141.7370 C   0  0  0  0  0  3  0  0  0  0  0  0
  189.0880  177.2110  143.2850 C   0  0  0  0  0  0  0  0  0  0  0  0
  186.0080  178.3180  145.1400 C   0  0  0  0  0  3  0  0  0  0  0  0
  190.0910  177.3480  148.2190 C   0  0  0  0  0  3  0  0  0  0  0  0
  186.4390  177.9750  142.7860 C   0  0  0  0  0  0  0  0  0  0  0  0
  185.1230  178.3500  142.4980 C   0  0  0  0  0  3  0  0  0  0  0  0
  190.3780  176.8360  143.4950 N   0  0  0  0  0  0  0  0  0  0  0  0
  190.1980  177.0990  145.8130 C   0  0  0  0  0  0  0  0  0  0  0  0
  190.8090  177.0250  147.0690 C   0  0  0  0  0  3  0  0  0  0  0  0
  189.1240  178.7180  139.4770 O   0  0  0  0  0  0  0  0  0  0  0  0
  189.7070  177.6180  139.6770 C   0  0  0  0  0  0  0  0  0  0  0  0
  189.4680  176.8790  140.8850 N   0  0  0  0  0  2  0  0  0  0  0  0
  192.3690  176.0450  136.7000 C   0  0  0  0  0  0  0  0  0  0  0  0
  190.1560  176.7180  137.4040 C   0  0  0  0  0  3  0  0  0  0  0  0
  192.5510  177.2440  140.1410 F   0  0  0  0  0  0  0  0  0  0  0  0
  193.2790  175.4990  135.6600 C   0  0  0  0  0  1  0  0  0  0  0  0
  191.0100  176.2050  136.4250 C   0  0  0  0  0  3  0  0  0  0  0  0
  192.0230  176.9130  138.9370 C   0  0  0  0  0  0  0  0  0  0  0  0
  190.6460  177.0780  138.6680 C   0  0  0  0  0  0  0  0  0  0  0  0
  192.8730  176.3990  137.9530 C   0  0  0  0  0  3  0  0  0  0  0  0
  1 14  1  0  0  0  0
  1  9  1  0  0  0  0
  2  3  1  0  0  0  0
  3 19  2  0  0  0  0
  3  7  1  0  0  0  0
  4 15  1  0  0  0  0
  4 11  1  0  0  0  0
  5  2  1  0  0  0  0
  5 14  2  0  0  0  0
  6  1  2  0  0  0  0
  7  4  2  0  0  0  0
  8 13  1  0  0  0  0
 10 19  1  0  0  0  0
 12  8  2  0  0  0  0
 12 16  1  0  0  0  0
 13 18  1  0  0  0  0
 13  2  2  0  0  0  0
 16  5  1  0  0  0  0
 17 16  2  0  0  0  0
 17  6  1  0  0  0  0
 18 10  2  0  0  0  0
 19 20  1  0  0  0  0
 20 15  2  0  0  0  0
 21 22  2  0  0  0  0
 22 23  1  0  0  0  0
 23  8  1  0  0  0  0
 24 31  1  0  0  0  0
 25 30  2  0  0  0  0
 27 24  1  0  0  0  0
 28 24  2  0  0  0  0
 28 25  1  0  0  0  0
 29 26  1  0  0  0  0
 30 29  1  0  0  0  0
 30 22  1  0  0  0  0
 31 29  2  0  0  0  0
M  END
>  <MODEL>
1

>  <REMARK>
 VINA RESULT:     -11.4      0.000      0.000
  Name = 
  2 active torsions:
  status: ('A' for Active; 'I' for Inactive)
    1  A    between atoms: C_5  and  C_30
    2  A    between atoms: C_10  and  N_16
                            x       y       z     vdW  Elec       q    Type
                         _______ _______ _______ _____ _____    ______ ____

>  <TORSDO>
F 2

$$$$
=
 OpenBabel11122411093D

 31 35  0  0  0  0  0  0  0  0999 V2000
  190.0340  177.2210  147.3000 C   0  0  0  0  0  0  0  0  0  0  0  0
  188.3350  177.4530  143.9450 C   0  0  0  0  0  0  0  0  0  0  0  0
  187.0060  177.9160  144.1840 C   0  0  0  0  0  0  0  0  0  0  0  0
  185.2030  178.6550  145.6580 C   0  0  0  0  0  0  0  0  0  0  0  0
  189.3140  177.2300  144.9640 C   0  0  0  0  0  0  0  0  0  0  0  0
  191.2980  176.7670  146.9250 C   0  0  0  0  0  3  0  0  0  0  0  0
  186.5110  178.2050  145.4690 C   0  0  0  0  0  3  0  0  0  0  0  0
  189.9870  176.7430  142.2620 C   0  0  0  0  0  0  0  0  0  0  0  0
  189.7480  177.4460  148.6390 O   0  0  0  0  0  1  0  0  0  0  0  0
  186.5650  177.8310  141.8300 N   0  0  0  0  0  0  0  0  0  0  0  0
  184.7540  178.9260  146.9070 F   0  0  0  0  0  0  0  0  0  0  0  0
  190.9240  176.5330  143.2730 C   0  0  0  0  0  3  0  0  0  0  0  0
  188.7020  177.2000  142.5930 C   0  0  0  0  0  0  0  0  0  0  0  0
  189.0570  177.4480  146.3300 C   0  0  0  0  0  3  0  0  0  0  0  0
  184.3600  178.8270  144.5600 C   0  0  0  0  0  3  0  0  0  0  0  0
  190.6060  176.7680  144.6030 C   0  0  0  0  0  0  0  0  0  0  0  0
  191.5820  176.5410  145.5780 C   0  0  0  0  0  3  0  0  0  0  0  0
  187.8010  177.4010  141.5950 N   0  0  0  0  0  0  0  0  0  0  0  0
  186.1350  178.0960  143.0840 C   0  0  0  0  0  0  0  0  0  0  0  0
  184.8250  178.5480  143.2760 C   0  0  0  0  0  3  0  0  0  0  0  0
  192.2000  177.8750  140.6830 O   0  0  0  0  0  0  0  0  0  0  0  0
  191.4030  177.0670  140.1350 C   0  0  0  0  0  0  0  0  0  0  0  0
  190.3150  176.5000  140.8830 N   0  0  0  0  0  2  0  0  0  0  0  0
  191.9940  175.9660  136.0290 C   0  0  0  0  0  0  0  0  0  0  0  0
  192.8560  176.3300  138.2580 C   0  0  0  0  0  3  0  0  0  0  0  0
  189.2480  177.0260  138.1860 F   0  0  0  0  0  0  0  0  0  0  0  0
  192.2130  175.5830  134.6100 C   0  0  0  0  0  1  0  0  0  0  0  0
  193.0640  175.9700  136.9250 C   0  0  0  0  0  3  0  0  0  0  0  0
  190.5020  176.6850  137.8000 C   0  0  0  0  0  0  0  0  0  0  0  0
  191.5790  176.6920  138.7140 C   0  0  0  0  0  0  0  0  0  0  0  0
  190.7170  176.3230  136.4670 C   0  0  0  0  0  3  0  0  0  0  0  0
  1  9  1  0  0  0  0
  2  3  1  0  0  0  0
  2  5  1  0  0  0  0
  3  7  2  0  0  0  0
  4 11  1  0  0  0  0
  5 14  1  0  0  0  0
  6  1  1  0  0  0  0
  7  4  1  0  0  0  0
  8 13  1  0  0  0  0
  8 12  2  0  0  0  0
 10 19  1  0  0  0  0
 12 16  1  0  0  0  0
 13  2  2  0  0  0  0
 14  1  2  0  0  0  0
 15  4  2  0  0  0  0
 16  5  2  0  0  0  0
 16 17  1  0  0  0  0
 17  6  2  0  0  0  0
 18 10  2  0  0  0  0
 18 13  1  0  0  0  0
 19 20  2  0  0  0  0
 19  3  1  0  0  0  0
 20 15  1  0  0  0  0
 22 21  2  0  0  0  0
 22 23  1  0  0  0  0
 23  8  1  0  0  0  0
 24 31  2  0  0  0  0
 24 28  1  0  0  0  0
 25 30  1  0  0  0  0
 27 24  1  0  0  0  0
 28 25  2  0  0  0  0
 29 26  1  0  0  0  0
 29 30  2  0  0  0  0
 30 22  1  0  0  0  0
 31 29  1  0  0  0  0
M  END
>  <MODEL>
2

>  <REMARK>
 VINA RESULT:     -10.8      2.065      4.141
  Name = 
  2 active torsions:
  status: ('A' for Active; 'I' for Inactive)
    1  A    between atoms: C_5  and  C_30
    2  A    between atoms: C_10  and  N_16
                            x       y       z     vdW  Elec       q    Type
                         _______ _______ _______ _____ _____    ______ ____

>  <TORSDO>
F 2

$$$$
=
 OpenBabel11122411093D

 31 35  0  0  0  0  0  0  0  0999 V2000
  186.7110  177.8000  146.0530 C   0  0  0  0  0  0  0  0  0  0  0  0
  187.0150  178.1980  142.3180 C   0  0  0  0  0  0  0  0  0  0  0  0
  188.3390  177.7980  141.9650 C   0  0  0  0  0  0  0  0  0  0  0  0
  190.5710  176.9720  142.5160 C   0  0  0  0  0  0  0  0  0  0  0  0
  186.4930  178.1950  143.6510 C   0  0  0  0  0  0  0  0  0  0  0  0
  185.3960  178.2160  146.2560 C   0  0  0  0  0  3  0  0  0  0  0  0
  189.2850  177.3540  142.9050 C   0  0  0  0  0  3  0  0  0  0  0  0
  184.8430  179.0370  141.5150 C   0  0  0  0  0  0  0  0  0  0  0  0
  187.4850  177.3950  147.1320 O   0  0  0  0  0  1  0  0  0  0  0  0
  187.8550  178.2690  139.6650 N   0  0  0  0  0  0  0  0  0  0  0  0
  191.4620  176.5480  143.4440 F   0  0  0  0  0  0  0  0  0  0  0  0
  184.3560  179.0260  142.8220 C   0  0  0  0  0  3  0  0  0  0  0  0
  186.1610  178.6270  141.2630 C   0  0  0  0  0  0  0  0  0  0  0  0
  187.2490  177.7920  144.7650 C   0  0  0  0  0  3  0  0  0  0  0  0
  190.9370  177.0280  141.1710 C   0  0  0  0  0  3  0  0  0  0  0  0
  185.1570  178.6150  143.8780 C   0  0  0  0  0  0  0  0  0  0  0  0
  184.6210  178.6230  145.1700 C   0  0  0  0  0  3  0  0  0  0  0  0
  186.6190  178.6430  139.9830 N   0  0  0  0  0  0  0  0  0  0  0  0
  188.7300  177.8480  140.6060 C   0  0  0  0  0  0  0  0  0  0  0  0
  190.0180  177.4650  140.2180 C   0  0  0  0  0  3  0  0  0  0  0  0
  182.7160  177.5350  140.1410 O   0  0  0  0  0  0  0  0  0  0  0  0
  182.9820  178.7080  139.7650 C   0  0  0  0  0  0  0  0  0  0  0  0
  184.0150  179.4630  140.4180 N   0  0  0  0  0  2  0  0  0  0  0  0
  180.8020  180.5560  136.5620 C   0  0  0  0  0  0  0  0  0  0  0  0
  181.7750  180.6420  138.7740 C   0  0  0  0  0  3  0  0  0  0  0  0
  182.3810  177.3430  137.2710 F   0  0  0  0  0  0  0  0  0  0  0  0
  180.0470  181.2080  135.4610 C   0  0  0  0  0  1  0  0  0  0  0  0
  181.0640  181.2560  137.7410 C   0  0  0  0  0  3  0  0  0  0  0  0
  181.9630  178.6210  137.4490 C   0  0  0  0  0  0  0  0  0  0  0  0
  182.2330  179.3220  138.6460 C   0  0  0  0  0  0  0  0  0  0  0  0
  181.2520  179.2420  136.4180 C   0  0  0  0  0  3  0  0  0  0  0  0
  1  6  1  0  0  0  0
  1  9  1  0  0  0  0
  2  5  1  0  0  0  0
  3  2  1  0  0  0  0
  3  7  2  0  0  0  0
  4  7  1  0  0  0  0
  4 11  1  0  0  0  0
  5 16  2  0  0  0  0
  5 14  1  0  0  0  0
  8 12  2  0  0  0  0
 10 18  2  0  0  0  0
 10 19  1  0  0  0  0
 12 16  1  0  0  0  0
 13  8  1  0  0  0  0
 13  2  2  0  0  0  0
 14  1  2  0  0  0  0
 15  4  2  0  0  0  0
 16 17  1  0  0  0  0
 17  6  2  0  0  0  0
 18 13  1  0  0  0  0
 19  3  1  0  0  0  0
 20 19  2  0  0  0  0
 20 15  1  0  0  0  0
 22 21  2  0  0  0  0
 22 23  1  0  0  0  0
 23  8  1  0  0  0  0
 24 28  1  0  0  0  0
 26 29  1  0  0  0  0
 27 24  1  0  0  0  0
 28 25  2  0  0  0  0
 29 30  2  0  0  0  0
 30 25  1  0  0  0  0
 30 22  1  0  0  0  0
 31 24  2  0  0  0  0
 31 29  1  0  0  0  0
M  END
>  <MODEL>
3

>  <REMARK>
 VINA RESULT:     -10.6      4.392      7.062
  Name = 
  2 active torsions:
  status: ('A' for Active; 'I' for Inactive)
    1  A    between atoms: C_5  and  C_30
    2  A    between atoms: C_10  and  N_16
                            x       y       z     vdW  Elec       q    Type
                         _______ _______ _______ _____ _____    ______ ____

>  <TORSDO>
F 2

$$$$
=
 OpenBabel11122411093D

 31 35  0  0  0  0  0  0  0  0999 V2000
  190.9270  176.9470  146.4250 C   0  0  0  0  0  0  0  0  0  0  0  0
  188.9870  177.4450  143.2330 C   0  0  0  0  0  0  0  0  0  0  0  0
  189.9360  177.4480  142.1670 C   0  0  0  0  0  0  0  0  0  0  0  0
  192.2130  177.2980  141.2950 C   0  0  0  0  0  0  0  0  0  0  0  0
  189.3170  177.2810  144.6160 C   0  0  0  0  0  0  0  0  0  0  0  0
  189.8970  176.9630  147.3640 C   0  0  0  0  0  3  0  0  0  0  0  0
  191.3190  177.2890  142.3670 C   0  0  0  0  0  3  0  0  0  0  0  0
  186.6140  177.6270  143.8660 C   0  0  0  0  0  0  0  0  0  0  0  0
  192.2400  176.7750  146.8390 O   0  0  0  0  0  1  0  0  0  0  0  0
  188.1550  177.7770  140.5970 N   0  0  0  0  0  0  0  0  0  0  0  0
  193.5400  177.1420  141.5180 F   0  0  0  0  0  0  0  0  0  0  0  0
  186.9600  177.4650  145.2070 C   0  0  0  0  0  3  0  0  0  0  0  0
  187.6170  177.6170  142.8850 C   0  0  0  0  0  0  0  0  0  0  0  0
  190.6370  177.1050  145.0690 C   0  0  0  0  0  3  0  0  0  0  0  0
  191.7400  177.4680  139.9940 C   0  0  0  0  0  3  0  0  0  0  0  0
  188.2840  177.2950  145.5870 C   0  0  0  0  0  0  0  0  0  0  0  0
  188.5780  177.1370  146.9450 C   0  0  0  0  0  3  0  0  0  0  0  0
  187.2620  177.7750  141.5820 N   0  0  0  0  0  0  0  0  0  0  0  0
  189.4760  177.6200  140.8400 C   0  0  0  0  0  0  0  0  0  0  0  0
  190.3730  177.6290  139.7680 C   0  0  0  0  0  3  0  0  0  0  0  0
  184.9430  180.0410  144.0910 O   0  0  0  0  0  0  0  0  0  0  0  0
  184.4490  178.9950  143.5910 C   0  0  0  0  0  0  0  0  0  0  0  0
  185.2430  177.8040  143.4700 N   0  0  0  0  0  2  0  0  0  0  0  0
  180.3530  178.9650  142.3090 C   0  0  0  0  0  0  0  0  0  0  0  0
  182.0100  179.0380  144.0680 C   0  0  0  0  0  3  0  0  0  0  0  0
  183.6710  178.8640  140.7940 F   0  0  0  0  0  0  0  0  0  0  0  0
  178.9310  178.9560  141.8790 C   0  0  0  0  0  1  0  0  0  0  0  0
  180.6720  179.0290  143.6660 C   0  0  0  0  0  3  0  0  0  0  0  0
  182.7120  178.9190  141.7510 C   0  0  0  0  0  0  0  0  0  0  0  0
  183.0450  178.9830  143.1220 C   0  0  0  0  0  0  0  0  0  0  0  0
  181.3710  178.9110  141.3550 C   0  0  0  0  0  3  0  0  0  0  0  0
  1  9  1  0  0  0  0
  1  6  1  0  0  0  0
  2  5  1  0  0  0  0
  3  7  2  0  0  0  0
  3  2  1  0  0  0  0
  4 11  1  0  0  0  0
  4  7  1  0  0  0  0
  5 14  1  0  0  0  0
  5 16  2  0  0  0  0
  8 12  2  0  0  0  0
 10 19  1  0  0  0  0
 10 18  2  0  0  0  0
 12 16  1  0  0  0  0
 13  2  2  0  0  0  0
 13  8  1  0  0  0  0
 14  1  2  0  0  0  0
 15  4  2  0  0  0  0
 16 17  1  0  0  0  0
 17  6  2  0  0  0  0
 18 13  1  0  0  0  0
 19  3  1  0  0  0  0
 20 15  1  0  0  0  0
 20 19  2  0  0  0  0
 22 21  2  0  0  0  0
 23 22  1  0  0  0  0
 23  8  1  0  0  0  0
 24 28  1  0  0  0  0
 26 29  1  0  0  0  0
 27 24  1  0  0  0  0
 28 25  2  0  0  0  0
 29 30  2  0  0  0  0
 30 22  1  0  0  0  0
 30 25  1  0  0  0  0
 31 29  1  0  0  0  0
 31 24  2  0  0  0  0
M  END
>  <MODEL>
4

>  <REMARK>
 VINA RESULT:     -10.4      3.127      7.827
  Name = 
  2 active torsions:
  status: ('A' for Active; 'I' for Inactive)
    1  A    between atoms: C_5  and  C_30
    2  A    between atoms: C_10  and  N_16
                            x       y       z     vdW  Elec       q    Type
                         _______ _______ _______ _____ _____    ______ ____

>  <TORSDO>
F 2

$$$$
=
 OpenBabel11122411093D

 31 35  0  0  0  0  0  0  0  0999 V2000
  187.9420  177.5010  146.1340 C   0  0  0  0  0  0  0  0  0  0  0  0
  187.3780  178.1000  142.4570 C   0  0  0  0  0  0  0  0  0  0  0  0
  188.6110  177.8170  141.7960 C   0  0  0  0  0  0  0  0  0  0  0  0
  190.9550  177.1310  141.7890 C   0  0  0  0  0  0  0  0  0  0  0  0
  187.1680  177.9950  143.8690 C   0  0  0  0  0  0  0  0  0  0  0  0
  186.6830  177.8090  146.6480 C   0  0  0  0  0  3  0  0  0  0  0  0
  189.7690  177.3980  142.4750 C   0  0  0  0  0  3  0  0  0  0  0  0
  185.0340  178.8160  142.2070 C   0  0  0  0  0  0  0  0  0  0  0  0
  188.9600  177.1020  146.9880 O   0  0  0  0  0  1  0  0  0  0  0  0
  187.5960  178.3620  139.6950 N   0  0  0  0  0  0  0  0  0  0  0  0
  192.0550  176.7290  142.4700 F   0  0  0  0  0  0  0  0  0  0  0  0
  184.8540  178.7050  143.5850 C   0  0  0  0  0  3  0  0  0  0  0  0
  186.2840  178.5160  141.6450 C   0  0  0  0  0  0  0  0  0  0  0  0
  188.1780  177.5940  144.7620 C   0  0  0  0  0  3  0  0  0  0  0  0
  191.0070  177.2790  140.4030 C   0  0  0  0  0  3  0  0  0  0  0  0
  185.8940  178.3040  144.4110 C   0  0  0  0  0  0  0  0  0  0  0  0
  185.6610  178.2090  145.7870 C   0  0  0  0  0  3  0  0  0  0  0  0
  186.4420  178.6280  140.2990 N   0  0  0  0  0  0  0  0  0  0  0  0
  188.6840  177.9610  140.3910 C   0  0  0  0  0  0  0  0  0  0  0  0
  189.8730  177.6930  139.7060 C   0  0  0  0  0  3  0  0  0  0  0  0
  183.2280  177.1390  140.5950 O   0  0  0  0  0  0  0  0  0  0  0  0
  183.0900  178.3910  140.5720 C   0  0  0  0  0  0  0  0  0  0  0  0
  183.9570  179.2320  141.3480 N   0  0  0  0  0  2  0  0  0  0  0  0
  180.0750  180.2220  138.1260 C   0  0  0  0  0  0  0  0  0  0  0  0
  182.3960  179.8960  138.7190 C   0  0  0  0  0  3  0  0  0  0  0  0
  180.2500  177.8860  140.9240 F   0  0  0  0  0  0  0  0  0  0  0  0
  179.0420  180.8630  137.2710 C   0  0  0  0  0  1  0  0  0  0  0  0
  181.4270  180.5000  137.9150 C   0  0  0  0  0  3  0  0  0  0  0  0
  180.6600  178.7350  139.9490 C   0  0  0  0  0  0  0  0  0  0  0  0
  182.0310  179.0090  139.7430 C   0  0  0  0  0  0  0  0  0  0  0  0
  179.6940  179.3420  139.1410 C   0  0  0  0  0  3  0  0  0  0  0  0
  1  6  1  0  0  0  0
  1  9  1  0  0  0  0
  2  5  1  0  0  0  0
  3  2  1  0  0  0  0
  3  7  2  0  0  0  0
  4 11  1  0  0  0  0
  4  7  1  0  0  0  0
  5 16  2  0  0  0  0
  5 14  1  0  0  0  0
  8 12  2  0  0  0  0
 10 18  2  0  0  0  0
 10 19  1  0  0  0  0
 12 16  1  0  0  0  0
 13  8  1  0  0  0  0
 13  2  2  0  0  0  0
 14  1  2  0  0  0  0
 15  4  2  0  0  0  0
 16 17  1  0  0  0  0
 17  6  2  0  0  0  0
 18 13  1  0  0  0  0
 19  3  1  0  0  0  0
 20 19  2  0  0  0  0
 20 15  1  0  0  0  0
 22 21  2  0  0  0  0
 22 23  1  0  0  0  0
 23  8  1  0  0  0  0
 24 31  1  0  0  0  0
 25 30  2  0  0  0  0
 27 24  1  0  0  0  0
 28 24  2  0  0  0  0
 28 25  1  0  0  0  0
 29 26  1  0  0  0  0
 30 29  1  0  0  0  0
 30 22  1  0  0  0  0
 31 29  2  0  0  0  0
M  END
>  <MODEL>
5

>  <REMARK>
 VINA RESULT:     -10.4      4.201      7.503
  Name = 
  2 active torsions:
  status: ('A' for Active; 'I' for Inactive)
    1  A    between atoms: C_5  and  C_30
    2  A    between atoms: C_10  and  N_16
                            x       y       z     vdW  Elec       q    Type
                         _______ _______ _______ _____ _____    ______ ____

>  <TORSDO>
F 2

$$$$
=
 OpenBabel11122411093D

 31 35  0  0  0  0  0  0  0  0999 V2000
  190.5140  176.8970  142.3090 C   0  0  0  0  0  0  0  0  0  0  0  0
  187.1660  178.1680  143.4800 C   0  0  0  0  0  0  0  0  0  0  0  0
  187.1540  178.0580  144.9030 C   0  0  0  0  0  0  0  0  0  0  0  0
  188.1860  177.4660  147.0370 C   0  0  0  0  0  0  0  0  0  0  0  0
  188.2620  177.7880  142.6430 C   0  0  0  0  0  0  0  0  0  0  0  0
  190.3900  177.0590  140.9290 C   0  0  0  0  0  3  0  0  0  0  0  0
  188.2390  177.5560  145.6440 C   0  0  0  0  0  3  0  0  0  0  0  0
  185.9170  178.8400  141.4650 C   0  0  0  0  0  0  0  0  0  0  0  0
  191.6840  176.3770  142.8430 O   0  0  0  0  0  1  0  0  0  0  0  0
  184.9340  178.9600  144.9440 N   0  0  0  0  0  0  0  0  0  0  0  0
  189.2460  176.9780  147.7250 F   0  0  0  0  0  0  0  0  0  0  0  0
  186.9990  178.4630  140.6700 C   0  0  0  0  0  3  0  0  0  0  0  0
  185.9970  178.6940  142.8580 C   0  0  0  0  0  0  0  0  0  0  0  0
  189.4620  177.2580  143.1520 C   0  0  0  0  0  3  0  0  0  0  0  0
  187.0410  177.8780  147.7180 C   0  0  0  0  0  3  0  0  0  0  0  0
  188.1560  177.9450  141.2370 C   0  0  0  0  0  0  0  0  0  0  0  0
  189.2120  177.5820  140.3960 C   0  0  0  0  0  3  0  0  0  0  0  0
  184.9330  179.0680  143.6180 N   0  0  0  0  0  0  0  0  0  0  0  0
  186.0030  178.4710  145.6130 C   0  0  0  0  0  0  0  0  0  0  0  0
  185.9520  178.3800  147.0070 C   0  0  0  0  0  3  0  0  0  0  0  0
  183.4950  177.3970  140.6160 O   0  0  0  0  0  0  0  0  0  0  0  0
  183.5480  178.6480  140.4740 C   0  0  0  0  0  0  0  0  0  0  0  0
  184.7180  179.3760  140.8800 N   0  0  0  0  0  2  0  0  0  0  0  0
  180.2790  180.8020  138.7130 C   0  0  0  0  0  0  0  0  0  0  0  0
  182.6020  180.1330  138.7180 C   0  0  0  0  0  3  0  0  0  0  0  0
  180.8670  178.6420  141.5950 F   0  0  0  0  0  0  0  0  0  0  0  0
  179.1560  181.5510  138.0930 C   0  0  0  0  0  1  0  0  0  0  0  0
  181.5480  180.8390  138.1340 C   0  0  0  0  0  3  0  0  0  0  0  0
  181.1160  179.3500  140.4660 C   0  0  0  0  0  0  0  0  0  0  0  0
  182.4040  179.3820  139.8870 C   0  0  0  0  0  0  0  0  0  0  0  0
  180.0650  180.0590  139.8760 C   0  0  0  0  0  3  0  0  0  0  0  0
  1  9  1  0  0  0  0
  1 14  1  0  0  0  0
  2  3  1  0  0  0  0
  3 19  2  0  0  0  0
  3  7  1  0  0  0  0
  4 15  1  0  0  0  0
  4 11  1  0  0  0  0
  5 14  2  0  0  0  0
  5  2  1  0  0  0  0
  6  1  2  0  0  0  0
  7  4  2  0  0  0  0
  8 13  1  0  0  0  0
 10 19  1  0  0  0  0
 12 16  1  0  0  0  0
 12  8  2  0  0  0  0
 13  2  2  0  0  0  0
 13 18  1  0  0  0  0
 16  5  1  0  0  0  0
 17  6  1  0  0  0  0
 17 16  2  0  0  0  0
 18 10  2  0  0  0  0
 19 20  1  0  0  0  0
 20 15  2  0  0  0  0
 22 21  2  0  0  0  0
 22 23  1  0  0  0  0
 23  8  1  0  0  0  0
 24 31  1  0  0  0  0
 25 30  2  0  0  0  0
 27 24  1  0  0  0  0
 28 24  2  0  0  0  0
 28 25  1  0  0  0  0
 29 26  1  0  0  0  0
 30 29  1  0  0  0  0
 30 22  1  0  0  0  0
 31 29  2  0  0  0  0
M  END
>  <MODEL>
6

>  <REMARK>
 VINA RESULT:     -10.2      4.136      7.209
  Name = 
  2 active torsions:
  status: ('A' for Active; 'I' for Inactive)
    1  A    between atoms: C_5  and  C_30
    2  A    between atoms: C_10  and  N_16
                            x       y       z     vdW  Elec       q    Type
                         _______ _______ _______ _____ _____    ______ ____

>  <TORSDO>
F 2

$$$$
=
 OpenBabel11122411093D

 31 35  0  0  0  0  0  0  0  0999 V2000
  187.0070  178.0810  147.3190 C   0  0  0  0  0  0  0  0  0  0  0  0
  187.6220  177.8770  143.6070 C   0  0  0  0  0  0  0  0  0  0  0  0
  188.9890  177.5060  143.4330 C   0  0  0  0  0  0  0  0  0  0  0  0
  191.2000  176.9190  144.2910 C   0  0  0  0  0  0  0  0  0  0  0  0
  186.9850  178.0620  144.8750 C   0  0  0  0  0  0  0  0  0  0  0  0
  185.6610  178.4440  147.3430 C   0  0  0  0  0  3  0  0  0  0  0  0
  189.8680  177.2800  144.5070 C   0  0  0  0  0  3  0  0  0  0  0  0
  185.4930  178.4400  142.5030 C   0  0  0  0  0  0  0  0  0  0  0  0
  187.7000  177.9070  148.5090 O   0  0  0  0  0  1  0  0  0  0  0  0
  188.6900  177.5620  141.0560 N   0  0  0  0  0  0  0  0  0  0  0  0
  192.0230  176.7070  145.3460 F   0  0  0  0  0  0  0  0  0  0  0  0
  184.8940  178.6140  143.7500 C   0  0  0  0  0  3  0  0  0  0  0  0
  186.8460  178.0740  142.4300 C   0  0  0  0  0  0  0  0  0  0  0  0
  187.6570  177.8940  146.0980 C   0  0  0  0  0  3  0  0  0  0  0  0
  191.6800  176.7750  142.9900 C   0  0  0  0  0  3  0  0  0  0  0  0
  185.6150  178.4320  144.9210 C   0  0  0  0  0  0  0  0  0  0  0  0
  184.9680  178.6190  146.1460 C   0  0  0  0  0  3  0  0  0  0  0  0
  187.4140  177.9080  141.2060 N   0  0  0  0  0  0  0  0  0  0  0  0
  189.4960  177.3550  142.1210 C   0  0  0  0  0  0  0  0  0  0  0  0
  190.8300  176.9930  141.9070 C   0  0  0  0  0  3  0  0  0  0  0  0
  182.5720  178.4480  142.1350 O   0  0  0  0  0  0  0  0  0  0  0  0
  183.3190  178.6280  141.1360 C   0  0  0  0  0  0  0  0  0  0  0  0
  184.7470  178.6290  141.2880 N   0  0  0  0  0  2  0  0  0  0  0  0
  181.5800  179.3130  137.2720 C   0  0  0  0  0  0  0  0  0  0  0  0
  181.8900  179.9440  139.5850 C   0  0  0  0  0  3  0  0  0  0  0  0
  183.7980  176.8880  138.8580 F   0  0  0  0  0  0  0  0  0  0  0  0
  180.9720  179.5630  135.9390 C   0  0  0  0  0  1  0  0  0  0  0  0
  181.3170  180.1800  138.3330 C   0  0  0  0  0  3  0  0  0  0  0  0
  182.9930  177.9700  138.7130 C   0  0  0  0  0  0  0  0  0  0  0  0
  182.7320  178.8410  139.7940 C   0  0  0  0  0  0  0  0  0  0  0  0
  182.4160  178.2110  137.4630 C   0  0  0  0  0  3  0  0  0  0  0  0
  1  6  1  0  0  0  0
  1  9  1  0  0  0  0
  2  5  1  0  0  0  0
  3  2  1  0  0  0  0
  3  7  2  0  0  0  0
  4  7  1  0  0  0  0
  4 11  1  0  0  0  0
  5 16  2  0  0  0  0
  5 14  1  0  0  0  0
  8 12  2  0  0  0  0
 10 18  2  0  0  0  0
 10 19  1  0  0  0  0
 12 16  1  0  0  0  0
 13  8  1  0  0  0  0
 13  2  2  0  0  0  0
 14  1  2  0  0  0  0
 15  4  2  0  0  0  0
 16 17  1  0  0  0  0
 17  6  2  0  0  0  0
 18 13  1  0  0  0  0
 19  3  1  0  0  0  0
 20 19  2  0  0  0  0
 20 15  1  0  0  0  0
 22 23  1  0  0  0  0
 22 21  2  0  0  0  0
 23  8  1  0  0  0  0
 24 31  2  0  0  0  0
 24 28  1  0  0  0  0
 25 30  1  0  0  0  0
 27 24  1  0  0  0  0
 28 25  2  0  0  0  0
 29 26  1  0  0  0  0
 29 30  2  0  0  0  0
 30 22  1  0  0  0  0
 31 29  1  0  0  0  0
M  END
>  <MODEL>
7

>  <REMARK>
 VINA RESULT:     -10.1      3.752      6.300
  Name = 
  2 active torsions:
  status: ('A' for Active; 'I' for Inactive)
    1  A    between atoms: C_5  and  C_30
    2  A    between atoms: C_10  and  N_16
                            x       y       z     vdW  Elec       q    Type
                         _______ _______ _______ _____ _____    ______ ____

>  <TORSDO>
F 2

$$$$
=
 OpenBabel11122411093D

 31 35  0  0  0  0  0  0  0  0999 V2000
  183.2370  178.9690  139.0320 C   0  0  0  0  0  0  0  0  0  0  0  0
  186.8920  178.3100  139.6690 C   0  0  0  0  0  0  0  0  0  0  0  0
  187.5280  178.2290  138.3940 C   0  0  0  0  0  0  0  0  0  0  0  0
  187.4980  178.2930  135.9520 C   0  0  0  0  0  0  0  0  0  0  0  0
  185.4950  178.5510  139.8680 C   0  0  0  0  0  0  0  0  0  0  0  0
  182.7480  179.0230  140.3370 C   0  0  0  0  0  3  0  0  0  0  0  0
  186.8360  178.3800  137.1780 C   0  0  0  0  0  3  0  0  0  0  0  0
  187.1780  178.2000  142.1130 C   0  0  0  0  0  0  0  0  0  0  0  0
  182.3740  179.1460  137.9600 O   0  0  0  0  0  1  0  0  0  0  0  0
  189.6280  177.8330  139.4780 N   0  0  0  0  0  0  0  0  0  0  0  0
  186.8060  178.4430  134.7970 F   0  0  0  0  0  0  0  0  0  0  0  0
  185.8140  178.4370  142.2820 C   0  0  0  0  0  3  0  0  0  0  0  0
  187.7150  178.1370  140.8190 C   0  0  0  0  0  0  0  0  0  0  0  0
  184.5940  178.7350  138.8050 C   0  0  0  0  0  3  0  0  0  0  0  0
  188.8710  178.0530  135.9160 C   0  0  0  0  0  3  0  0  0  0  0  0
  184.9780  178.6100  141.1880 C   0  0  0  0  0  0  0  0  0  0  0  0
  183.6170  178.8440  141.4120 C   0  0  0  0  0  3  0  0  0  0  0  0
  189.0470  177.9070  140.6720 N   0  0  0  0  0  0  0  0  0  0  0  0
  188.9200  177.9860  138.3360 C   0  0  0  0  0  0  0  0  0  0  0  0
  189.5800  177.8990  137.1070 C   0  0  0  0  0  3  0  0  0  0  0  0
  188.2660  175.6900  143.2010 O   0  0  0  0  0  0  0  0  0  0  0  0
  188.5630  176.7820  143.7570 C   0  0  0  0  0  0  0  0  0  0  0  0
  188.0460  178.0200  143.2460 N   0  0  0  0  0  2  0  0  0  0  0  0
  191.1970  176.8150  147.1460 C   0  0  0  0  0  0  0  0  0  0  0  0
  190.8170  176.5310  144.7750 C   0  0  0  0  0  3  0  0  0  0  0  0
  187.6520  177.3430  146.4590 F   0  0  0  0  0  0  0  0  0  0  0  0
  192.1200  176.8230  148.3100 C   0  0  0  0  0  1  0  0  0  0  0  0
  191.6860  176.5380  145.8680 C   0  0  0  0  0  3  0  0  0  0  0  0
  188.9640  177.0780  146.2390 C   0  0  0  0  0  0  0  0  0  0  0  0
  189.4500  176.7990  144.9420 C   0  0  0  0  0  0  0  0  0  0  0  0
  189.8390  177.0840  147.3290 C   0  0  0  0  0  3  0  0  0  0  0  0
  1  6  1  0  0  0  0
  2  5  2  0  0  0  0
  2 13  1  0  0  0  0
  3  2  1  0  0  0  0
  4  7  1  0  0  0  0
  5 16  1  0  0  0  0
  6 17  2  0  0  0  0
  7  3  2  0  0  0  0
  8 12  1  0  0  0  0
  8 23  1  0  0  0  0
  9  1  1  0  0  0  0
 10 18  2  0  0  0  0
 11  4  1  0  0  0  0
 13  8  2  0  0  0  0
 14  1  2  0  0  0  0
 14  5  1  0  0  0  0
 15  4  2  0  0  0  0
 15 20  1  0  0  0  0
 16 17  1  0  0  0  0
 16 12  2  0  0  0  0
 18 13  1  0  0  0  0
 19  3  1  0  0  0  0
 19 10  1  0  0  0  0
 20 19  2  0  0  0  0
 21 22  2  0  0  0  0
 22 30  1  0  0  0  0
 23 22  1  0  0  0  0
 24 31  1  0  0  0  0
 24 27  1  0  0  0  0
 25 30  2  0  0  0  0
 25 28  1  0  0  0  0
 28 24  2  0  0  0  0
 29 26  1  0  0  0  0
 29 31  2  0  0  0  0
 30 29  1  0  0  0  0
M  END
>  <MODEL>
8

>  <REMARK>
 VINA RESULT:      -9.7      2.942      7.673
  Name = 
  2 active torsions:
  status: ('A' for Active; 'I' for Inactive)
    1  A    between atoms: C_5  and  C_30
    2  A    between atoms: C_10  and  N_16
                            x       y       z     vdW  Elec       q    Type
                         _______ _______ _______ _____ _____    ______ ____

>  <TORSDO>
F 2

$$$$
=
 OpenBabel11122411093D

 31 35  0  0  0  0  0  0  0  0999 V2000
  185.5350  178.2530  146.4290 C   0  0  0  0  0  0  0  0  0  0  0  0
  185.7300  178.3290  142.6660 C   0  0  0  0  0  0  0  0  0  0  0  0
  184.4130  178.6030  142.1880 C   0  0  0  0  0  0  0  0  0  0  0  0
  182.0380  179.0620  142.5290 C   0  0  0  0  0  0  0  0  0  0  0  0
  186.0870  178.2160  144.0470 C   0  0  0  0  0  0  0  0  0  0  0  0
  186.8630  177.9810  146.7550 C   0  0  0  0  0  3  0  0  0  0  0  0
  183.3100  178.7950  143.0390 C   0  0  0  0  0  3  0  0  0  0  0  0
  188.0770  177.8840  142.0680 C   0  0  0  0  0  0  0  0  0  0  0  0
  184.5920  178.4080  147.4340 O   0  0  0  0  0  1  0  0  0  0  0  0
  185.2250  178.5120  139.9350 N   0  0  0  0  0  0  0  0  0  0  0  0
  180.9940  179.2420  143.3720 F   0  0  0  0  0  0  0  0  0  0  0  0
  188.4010  177.7790  143.4200 C   0  0  0  0  0  3  0  0  0  0  0  0
  186.7530  178.1560  141.6910 C   0  0  0  0  0  0  0  0  0  0  0  0
  185.1560  178.3680  145.0900 C   0  0  0  0  0  3  0  0  0  0  0  0
  181.8430  179.1430  141.1500 C   0  0  0  0  0  3  0  0  0  0  0  0
  187.4330  177.9400  144.4010 C   0  0  0  0  0  0  0  0  0  0  0  0
  187.8090  177.8250  145.7430 C   0  0  0  0  0  3  0  0  0  0  0  0
  186.4550  178.2560  140.3690 N   0  0  0  0  0  0  0  0  0  0  0  0
  184.1950  178.6890  140.7930 C   0  0  0  0  0  0  0  0  0  0  0  0
  182.9200  178.9570  140.2840 C   0  0  0  0  0  3  0  0  0  0  0  0
  190.2760  175.9270  141.9700 O   0  0  0  0  0  0  0  0  0  0  0  0
  190.1430  176.7530  141.0260 C   0  0  0  0  0  0  0  0  0  0  0  0
  189.0790  177.7170  141.0500 N   0  0  0  0  0  2  0  0  0  0  0  0
  192.9280  176.7270  137.7600 C   0  0  0  0  0  0  0  0  0  0  0  0
  192.4230  177.0940  140.0960 C   0  0  0  0  0  3  0  0  0  0  0  0
  189.3930  176.0140  138.3180 F   0  0  0  0  0  0  0  0  0  0  0  0
  193.9030  176.7220  136.6390 C   0  0  0  0  0  1  0  0  0  0  0  0
  193.3410  177.0910  139.0430 C   0  0  0  0  0  3  0  0  0  0  0  0
  190.6750  176.3690  138.5810 C   0  0  0  0  0  0  0  0  0  0  0  0
  191.0830  176.7360  139.8830 C   0  0  0  0  0  0  0  0  0  0  0  0
  191.5990  176.3670  137.5310 C   0  0  0  0  0  3  0  0  0  0  0  0
  1  6  1  0  0  0  0
  1  9  1  0  0  0  0
  2  5  1  0  0  0  0
  3  2  1  0  0  0  0
  3  7  2  0  0  0  0
  4  7  1  0  0  0  0
  4 11  1  0  0  0  0
  5 16  2  0  0  0  0
  5 14  1  0  0  0  0
  8 12  2  0  0  0  0
 10 18  2  0  0  0  0
 10 19  1  0  0  0  0
 12 16  1  0  0  0  0
 13  8  1  0  0  0  0
 13  2  2  0  0  0  0
 14  1  2  0  0  0  0
 15  4  2  0  0  0  0
 16 17  1  0  0  0  0
 17  6  2  0  0  0  0
 18 13  1  0  0  0  0
 19  3  1  0  0  0  0
 20 19  2  0  0  0  0
 20 15  1  0  0  0  0
 22 23  1  0  0  0  0
 22 21  2  0  0  0  0
 23  8  1  0  0  0  0
 24 28  1  0  0  0  0
 26 29  1  0  0  0  0
 27 24  1  0  0  0  0
 28 25  2  0  0  0  0
 29 30  2  0  0  0  0
 30 25  1  0  0  0  0
 30 22  1  0  0  0  0
 31 24  2  0  0  0  0
 31 29  1  0  0  0  0
M  END
>  <MODEL>
9

>  <REMARK>
 VINA RESULT:      -9.6      2.589      4.950
  Name = 
  2 active torsions:
  status: ('A' for Active; 'I' for Inactive)
    1  A    between atoms: C_5  and  C_30
    2  A    between atoms: C_10  and  N_16
                            x       y       z     vdW  Elec       q    Type
                         _______ _______ _______ _____ _____    ______ ____

>  <TORSDO>
F 2

$$$$
