=
 OpenBabel11122412103D

 34 41  0  0  1  0  0  0  0  0999 V2000
  185.6830  178.8000  140.4440 C   0  0  0  0  0  0  0  0  0  0  0  0
  184.3150  178.4300  138.3800 C   0  0  0  0  0  2  0  0  0  0  0  0
  185.6870  178.4530  147.0410 C   0  0  2  0  0  3  0  0  0  0  0  0
  186.7260  178.2660  142.5490 C   0  0  0  0  0  0  0  0  0  0  0  0
  185.3610  177.8350  144.6290 N   0  0  1  0  0  0  0  0  0  0  0  0
  185.4510  180.0170  145.6290 O   0  0  0  0  0  0  0  0  0  0  0  0
  186.1540  179.8770  146.8430 C   0  0  0  0  0  2  0  0  0  0  0  0
  188.0190  177.7550  146.1030 C   0  0  0  0  0  2  0  0  0  0  0  0
  183.1570  179.3490  140.3280 C   0  0  2  0  0  3  0  0  0  0  0  0
  180.2800  177.8160  140.7440 C   0  0  0  0  0  2  0  0  0  0  0  0
  184.2400  177.7260  143.6830 C   0  0  0  0  0  2  0  0  0  0  0  0
  187.7630  177.3560  144.6570 C   0  0  0  0  0  2  0  0  0  0  0  0
  183.0620  178.5790  141.6660 C   0  0  1  0  0  3  0  0  0  0  0  0
  182.8830  178.6860  137.9730 C   0  0  0  0  0  2  0  0  0  0  0  0
  186.6720  178.2270  144.0570 C   0  0  1  0  0  3  0  0  0  0  0  0
  186.8320  177.4150  147.0070 C   0  0  0  0  0  2  0  0  0  0  0  0
  181.3040  177.6280  139.6120 C   0  0  1  0  0  3  0  0  0  0  0  0
  185.5730  178.5910  141.8250 C   0  0  0  0  0  0  0  0  0  0  0  0
  184.9450  178.7060  145.7430 C   0  0  2  0  0  3  0  0  0  0  0  0
  184.2840  178.7730  142.5670 C   0  0  2  0  0  3  0  0  0  0  0  0
  188.0010  178.3270  140.5560 C   0  0  0  0  0  3  0  0  0  0  0  0
  180.5190  179.0480  141.6150 C   0  0  0  0  0  2  0  0  0  0  0  0
  187.9160  178.1510  141.8990 N   0  0  0  0  0  0  0  0  0  0  0  0
  181.7940  178.9490  142.4540 C   0  0  0  0  0  2  0  0  0  0  0  0
  182.1200  178.8960  139.2690 C   0  0  1  0  0  3  0  0  0  0  0  0
  186.8950  178.6580  139.8430 N   0  0  0  0  0  0  0  0  0  0  0  0
  184.5170  179.2700  139.6230 C   0  0  1  0  0  3  0  0  0  0  0  0
  182.1370  176.5390  139.8900 O   0  0  0  0  0  0  0  0  0  0  0  0
  181.4540  175.4220  139.4010 C   0  0  0  0  0  2  0  0  0  0  0  0
  183.3020  173.5440  137.2050 C   0  0  0  0  0  2  0  0  0  0  0  0
  181.1250  173.9540  137.4370 C   0  0  0  0  0  2  0  0  0  0  0  0
  181.7890  175.2160  137.9350 C   0  0  2  0  0  3  0  0  0  0  0  0
  182.0470  173.2460  136.6540 O   0  0  0  0  0  0  0  0  0  0  0  0
  183.2550  174.9460  137.7620 C   0  0  0  0  0  2  0  0  0  0  0  0
  1 18  1  0  0  0  0
  2 27  1  0  0  0  0
  3  7  1  6  0  0  0
  4 15  1  0  0  0  0
  5 11  1  6  0  0  0
  5 19  1  0  0  0  0
  6 19  1  0  0  0  0
  6  7  1  0  0  0  0
  8 16  1  0  0  0  0
  9 13  1  0  0  0  0
 10 22  1  0  0  0  0
 12  8  1  0  0  0  0
 13 24  1  0  0  0  0
 13 20  1  0  0  0  0
 14  2  1  0  0  0  0
 14 25  1  0  0  0  0
 15  5  1  0  0  0  0
 15 12  1  0  0  0  0
 16  3  1  0  0  0  0
 17 28  1  0  0  0  0
 17 10  1  0  0  0  0
 18  4  2  0  0  0  0
 18 20  1  0  0  0  0
 19  3  1  0  0  0  0
 20 11  1  0  0  0  0
 21 23  2  0  0  0  0
 22 24  1  0  0  0  0
 23  4  1  0  0  0  0
 25 17  1  0  0  0  0
 25  9  1  0  0  0  0
 26  1  2  0  0  0  0
 26 21  1  0  0  0  0
 27  9  1  0  0  0  0
 27  1  1  0  0  0  0
 29 28  1  0  0  0  0
 30 34  1  0  0  0  0
 31 32  1  0  0  0  0
 32 29  1  0  0  0  0
 33 30  1  0  0  0  0
 33 31  1  0  0  0  0
 34 32  1  0  0  0  0
M  END
>  <MODEL>
1

>  <REMARK>
 VINA RESULT:      -7.1      0.000      0.000
  Name = 
  3 active torsions:
  status: ('A' for Active; 'I' for Inactive)
    1  A    between atoms: C_17  and  O_28
    2  A    between atoms: O_28  and  C_29
    3  A    between atoms: C_29  and  C_32
                            x       y       z     vdW  Elec       q    Type
                         _______ _______ _______ _____ _____    ______ ____

>  <TORSDO>
F 3

$$$$
=
 OpenBabel11122412103D

 34 41  0  0  1  0  0  0  0  0999 V2000
  187.4570  178.3150  140.5320 C   0  0  0  0  0  0  0  0  0  0  0  0
  189.5990  177.2060  139.8630 C   0  0  0  0  0  2  0  0  0  0  0  0
  181.2450  179.5970  138.6840 C   0  0  2  0  0  3  0  0  0  0  0  0
  185.0990  178.5150  140.9810 C   0  0  0  0  0  0  0  0  0  0  0  0
  183.3830  178.3600  139.1340 N   0  0  1  0  0  0  0  0  0  0  0  0
  183.0580  180.6970  138.6900 O   0  0  0  0  0  0  0  0  0  0  0  0
  181.7200  180.9900  139.0260 C   0  0  0  0  0  2  0  0  0  0  0  0
  181.3430  179.1360  141.2500 C   0  0  0  0  0  2  0  0  0  0  0  0
  188.3410  178.3410  138.1000 C   0  0  2  0  0  3  0  0  0  0  0  0
  188.2240  176.4500  135.4150 C   0  0  0  0  0  2  0  0  0  0  0  0
  184.5030  177.8170  138.3510 C   0  0  0  0  0  2  0  0  0  0  0  0
  182.6310  178.3560  141.4650 C   0  0  0  0  0  2  0  0  0  0  0  0
  186.9050  177.9180  137.7120 C   0  0  1  0  0  3  0  0  0  0  0  0
  190.4000  177.0850  138.5880 C   0  0  0  0  0  2  0  0  0  0  0  0
  183.7030  178.8360  140.5020 C   0  0  1  0  0  3  0  0  0  0  0  0
  180.6990  178.8130  139.8990 C   0  0  0  0  0  2  0  0  0  0  0  0
  188.9670  176.1850  136.7340 C   0  0  1  0  0  3  0  0  0  0  0  0
  186.1440  178.4330  140.0540 C   0  0  0  0  0  0  0  0  0  0  0  0
  182.7020  179.3830  138.3220 C   0  0  2  0  0  3  0  0  0  0  0  0
  185.8250  178.5490  138.5950 C   0  0  2  0  0  3  0  0  0  0  0  0
  186.6490  178.3230  142.7590 C   0  0  0  0  0  3  0  0  0  0  0  0
  187.7100  177.8800  135.2550 C   0  0  0  0  0  2  0  0  0  0  0  0
  185.3750  178.4670  142.3120 N   0  0  0  0  0  0  0  0  0  0  0  0
  186.5910  178.2270  136.2390 C   0  0  0  0  0  2  0  0  0  0  0  0
  189.4470  177.4590  137.4670 C   0  0  1  0  0  3  0  0  0  0  0  0
  187.6750  178.2590  141.8730 N   0  0  0  0  0  0  0  0  0  0  0  0
  188.6380  178.3460  139.6050 C   0  0  1  0  0  3  0  0  0  0  0  0
  188.1940  175.3700  137.5700 O   0  0  0  0  0  0  0  0  0  0  0  0
  187.4800  174.5350  136.7070 C   0  0  0  0  0  2  0  0  0  0  0  0
  184.3930  173.2340  135.9740 C   0  0  0  0  0  2  0  0  0  0  0  0
  185.8630  172.8960  137.6120 C   0  0  0  0  0  2  0  0  0  0  0  0
  186.0690  174.3430  137.2300 C   0  0  2  0  0  3  0  0  0  0  0  0
  184.6080  172.4860  137.1400 O   0  0  0  0  0  0  0  0  0  0  0  0
  185.0650  174.5750  136.1380 C   0  0  0  0  0  2  0  0  0  0  0  0
  1 26  1  0  0  0  0
  3  7  1  1  0  0  0
  3 16  1  0  0  0  0
  4 23  2  0  0  0  0
  5 11  1  6  0  0  0
  5 15  1  0  0  0  0
  6  7  1  0  0  0  0
  8 12  1  0  0  0  0
  9 27  1  0  0  0  0
 10 17  1  0  0  0  0
 11 20  1  0  0  0  0
 13  9  1  0  0  0  0
 13 20  1  0  0  0  0
 14  2  1  0  0  0  0
 15  4  1  0  0  0  0
 15 12  1  0  0  0  0
 16  8  1  0  0  0  0
 17 25  1  0  0  0  0
 17 28  1  0  0  0  0
 18  1  2  0  0  0  0
 18  4  1  0  0  0  0
 19  3  1  0  0  0  0
 19  6  1  0  0  0  0
 19  5  1  0  0  0  0
 20 18  1  0  0  0  0
 22 10  1  0  0  0  0
 22 24  1  0  0  0  0
 23 21  1  0  0  0  0
 24 13  1  0  0  0  0
 25  9  1  0  0  0  0
 25 14  1  0  0  0  0
 26 21  2  0  0  0  0
 27  2  1  0  0  0  0
 27  1  1  0  0  0  0
 29 32  1  0  0  0  0
 29 28  1  0  0  0  0
 30 34  1  0  0  0  0
 30 33  1  0  0  0  0
 32 31  1  0  0  0  0
 33 31  1  0  0  0  0
 34 32  1  0  0  0  0
M  END
>  <MODEL>
2

>  <REMARK>
 VINA RESULT:      -6.9      2.808      6.221
  Name = 
  3 active torsions:
  status: ('A' for Active; 'I' for Inactive)
    1  A    between atoms: C_17  and  O_28
    2  A    between atoms: O_28  and  C_29
    3  A    between atoms: C_29  and  C_32
                            x       y       z     vdW  Elec       q    Type
                         _______ _______ _______ _____ _____    ______ ____

>  <TORSDO>
F 3

$$$$
=
 OpenBabel11122412103D

 34 41  0  0  1  0  0  0  0  0999 V2000
  185.2780  178.4400  139.3700 C   0  0  0  0  0  0  0  0  0  0  0  0
  186.5980  177.2770  137.5900 C   0  0  0  0  0  2  0  0  0  0  0  0
  179.3300  178.9650  142.1980 C   0  0  2  0  0  3  0  0  0  0  0  0
  183.8460  178.6620  141.2940 C   0  0  0  0  0  0  0  0  0  0  0  0
  181.4190  177.9680  141.2230 N   0  0  1  0  0  0  0  0  0  0  0  0
  180.4050  180.0950  140.7610 O   0  0  0  0  0  0  0  0  0  0  0  0
  179.6100  180.4150  141.8800 C   0  0  0  0  0  2  0  0  0  0  0  0
  181.2050  179.1910  143.9980 C   0  0  0  0  0  2  0  0  0  0  0  0
  184.2870  177.8660  137.0490 C   0  0  2  0  0  3  0  0  0  0  0  0
  182.8070  175.3380  135.5590 C   0  0  0  0  0  2  0  0  0  0  0  0
  181.8130  177.2820  139.9830 C   0  0  0  0  0  2  0  0  0  0  0  0
  182.4330  178.5430  143.3770 C   0  0  0  0  0  2  0  0  0  0  0  0
  183.0870  177.3030  137.8470 C   0  0  1  0  0  3  0  0  0  0  0  0
  186.3480  176.8570  136.1600 C   0  0  0  0  0  2  0  0  0  0  0  0
  182.4600  178.7950  141.8790 C   0  0  1  0  0  3  0  0  0  0  0  0
  179.9110  178.5040  143.5540 C   0  0  0  0  0  2  0  0  0  0  0  0
  184.2730  175.4530  136.0070 C   0  0  1  0  0  3  0  0  0  0  0  0
  183.9950  178.3810  139.9310 C   0  0  0  0  0  0  0  0  0  0  0  0
  180.1780  178.7190  140.9640 C   0  0  2  0  0  3  0  0  0  0  0  0
  182.7710  178.1020  139.1150 C   0  0  2  0  0  3  0  0  0  0  0  0
  186.1810  178.9970  141.4880 C   0  0  0  0  0  3  0  0  0  0  0  0
  182.0360  176.6570  135.5750 C   0  0  0  0  0  2  0  0  0  0  0  0
  184.9400  178.9730  142.0400 N   0  0  0  0  0  0  0  0  0  0  0  0
  181.8170  177.2060  136.9850 C   0  0  0  0  0  2  0  0  0  0  0  0
  184.8410  176.8920  135.9790 C   0  0  1  0  0  3  0  0  0  0  0  0
  186.3390  178.7430  140.1650 N   0  0  0  0  0  0  0  0  0  0  0  0
  185.5010  178.2730  137.8940 C   0  0  1  0  0  3  0  0  0  0  0  0
  184.4450  174.8560  137.2610 O   0  0  0  0  0  0  0  0  0  0  0  0
  183.7040  173.6730  137.2060 C   0  0  0  0  0  2  0  0  0  0  0  0
  186.1650  171.8900  135.6150 C   0  0  0  0  0  2  0  0  0  0  0  0
  186.0460  172.9600  137.5650 C   0  0  0  0  0  2  0  0  0  0  0  0
  184.6340  172.4790  137.3260 C   0  0  2  0  0  3  0  0  0  0  0  0
  186.9130  172.2110  136.7570 O   0  0  0  0  0  0  0  0  0  0  0  0
  184.7190  171.7440  136.0200 C   0  0  0  0  0  2  0  0  0  0  0  0
  1 18  2  0  0  0  0
  1 26  1  0  0  0  0
  2 27  1  0  0  0  0
  3  7  1  1  0  0  0
  3 16  1  0  0  0  0
  4 15  1  0  0  0  0
  4 23  2  0  0  0  0
  5 11  1  6  0  0  0
  5 15  1  0  0  0  0
  6 19  1  0  0  0  0
  6  7  1  0  0  0  0
  9 13  1  0  0  0  0
  9 27  1  0  0  0  0
 10 22  1  0  0  0  0
 10 17  1  0  0  0  0
 12  8  1  0  0  0  0
 13 20  1  0  0  0  0
 14  2  1  0  0  0  0
 15 12  1  0  0  0  0
 16  8  1  0  0  0  0
 17 28  1  0  0  0  0
 18  4  1  0  0  0  0
 19  5  1  0  0  0  0
 19  3  1  0  0  0  0
 20 18  1  0  0  0  0
 20 11  1  0  0  0  0
 21 23  1  0  0  0  0
 22 24  1  0  0  0  0
 24 13  1  0  0  0  0
 25 17  1  0  0  0  0
 25 14  1  0  0  0  0
 25  9  1  0  0  0  0
 26 21  2  0  0  0  0
 27  1  1  0  0  0  0
 29 28  1  0  0  0  0
 29 32  1  0  0  0  0
 30 34  1  0  0  0  0
 30 33  1  0  0  0  0
 32 31  1  0  0  0  0
 33 31  1  0  0  0  0
 34 32  1  0  0  0  0
M  END
>  <MODEL>
3

>  <REMARK>
 VINA RESULT:      -6.5      2.850      4.965
  Name = 
  3 active torsions:
  status: ('A' for Active; 'I' for Inactive)
    1  A    between atoms: C_17  and  O_28
    2  A    between atoms: O_28  and  C_29
    3  A    between atoms: C_29  and  C_32
                            x       y       z     vdW  Elec       q    Type
                         _______ _______ _______ _____ _____    ______ ____

>  <TORSDO>
F 3

$$$$
=
 OpenBabel11122412103D

 34 41  0  0  1  0  0  0  0  0999 V2000
  186.4600  178.3710  139.3020 C   0  0  0  0  0  0  0  0  0  0  0  0
  188.2260  177.2110  137.9590 C   0  0  0  0  0  2  0  0  0  0  0  0
  179.9510  179.1000  140.1630 C   0  0  2  0  0  3  0  0  0  0  0  0
  184.5070  178.5910  140.6940 C   0  0  0  0  0  0  0  0  0  0  0  0
  182.1990  178.0320  139.8330 N   0  0  1  0  0  0  0  0  0  0  0  0
  181.4640  180.2280  139.1970 O   0  0  0  0  0  0  0  0  0  0  0  0
  180.3710  180.5450  140.0290 C   0  0  0  0  0  2  0  0  0  0  0  0
  181.1730  179.1510  142.4660 C   0  0  0  0  0  2  0  0  0  0  0  0
  186.2250  177.9460  136.7600 C   0  0  2  0  0  3  0  0  0  0  0  0
  185.1910  175.5640  134.7450 C   0  0  0  0  0  2  0  0  0  0  0  0
  182.9350  177.3770  138.7410 C   0  0  0  0  0  2  0  0  0  0  0  0
  182.5080  178.4630  142.2240 C   0  0  0  0  0  2  0  0  0  0  0  0
  184.8150  177.4160  137.1120 C   0  0  1  0  0  3  0  0  0  0  0  0
  188.4210  176.8650  136.5020 C   0  0  0  0  0  2  0  0  0  0  0  0
  183.0130  178.7750  140.8250 C   0  0  1  0  0  3  0  0  0  0  0  0
  180.0580  178.5530  141.6050 C   0  0  0  0  0  2  0  0  0  0  0  0
  186.4460  175.5820  135.6330 C   0  0  1  0  0  3  0  0  0  0  0  0
  185.0650  178.3580  139.4320 C   0  0  0  0  0  0  0  0  0  0  0  0
  181.1320  178.8590  139.2430 C   0  0  2  0  0  3  0  0  0  0  0  0
  184.1480  178.1790  138.2610 C   0  0  2  0  0  3  0  0  0  0  0  0
  186.6740  178.7910  141.6230 C   0  0  0  0  0  3  0  0  0  0  0  0
  184.5050  176.9210  134.5930 C   0  0  0  0  0  2  0  0  0  0  0  0
  185.3230  178.8110  141.7600 N   0  0  0  0  0  0  0  0  0  0  0  0
  183.8770  177.4230  135.8940 C   0  0  0  0  0  2  0  0  0  0  0  0
  187.0490  176.9880  135.8630 C   0  0  1  0  0  3  0  0  0  0  0  0
  187.2300  178.5840  140.4030 N   0  0  0  0  0  0  0  0  0  0  0  0
  187.1280  178.2520  137.9620 C   0  0  1  0  0  3  0  0  0  0  0  0
  186.1930  174.9260  136.8430 O   0  0  0  0  0  0  0  0  0  0  0  0
  185.9280  173.6000  136.4910 C   0  0  0  0  0  2  0  0  0  0  0  0
  182.5440  173.2080  136.8970 C   0  0  0  0  0  2  0  0  0  0  0  0
  184.2600  171.7940  136.7710 C   0  0  0  0  0  2  0  0  0  0  0  0
  184.8530  173.0320  137.4000 C   0  0  2  0  0  3  0  0  0  0  0  0
  182.8670  171.8440  136.9190 O   0  0  0  0  0  0  0  0  0  0  0  0
  183.6930  173.9780  137.5010 C   0  0  0  0  0  2  0  0  0  0  0  0
  1 18  2  0  0  0  0
  1 26  1  0  0  0  0
  2 27  1  0  0  0  0
  3  7  1  1  0  0  0
  3 16  1  0  0  0  0
  4 15  1  0  0  0  0
  4 23  2  0  0  0  0
  5 11  1  6  0  0  0
  5 15  1  0  0  0  0
  6 19  1  0  0  0  0
  6  7  1  0  0  0  0
  9 13  1  0  0  0  0
  9 27  1  0  0  0  0
 10 17  1  0  0  0  0
 12  8  1  0  0  0  0
 13 20  1  0  0  0  0
 14  2  1  0  0  0  0
 15 12  1  0  0  0  0
 16  8  1  0  0  0  0
 17 25  1  0  0  0  0
 17 28  1  0  0  0  0
 18  4  1  0  0  0  0
 19  5  1  0  0  0  0
 19  3  1  0  0  0  0
 20 11  1  0  0  0  0
 20 18  1  0  0  0  0
 21 23  1  0  0  0  0
 22 10  1  0  0  0  0
 22 24  1  0  0  0  0
 24 13  1  0  0  0  0
 25 14  1  0  0  0  0
 25  9  1  0  0  0  0
 26 21  2  0  0  0  0
 27  1  1  0  0  0  0
 29 28  1  0  0  0  0
 29 32  1  0  0  0  0
 30 33  1  0  0  0  0
 30 34  1  0  0  0  0
 31 33  1  0  0  0  0
 31 32  1  0  0  0  0
 32 34  1  0  0  0  0
M  END
>  <MODEL>
4

>  <REMARK>
 VINA RESULT:      -6.4      2.864      5.572
  Name = 
  3 active torsions:
  status: ('A' for Active; 'I' for Inactive)
    1  A    between atoms: C_17  and  O_28
    2  A    between atoms: O_28  and  C_29
    3  A    between atoms: C_29  and  C_32
                            x       y       z     vdW  Elec       q    Type
                         _______ _______ _______ _____ _____    ______ ____

>  <TORSDO>
F 3

$$$$
=
 OpenBabel11122412103D

 34 41  0  0  1  0  0  0  0  0999 V2000
  187.4860  178.2530  140.8550 C   0  0  0  0  0  0  0  0  0  0  0  0
  189.6960  177.1930  140.3470 C   0  0  0  0  0  2  0  0  0  0  0  0
  181.5040  179.6700  138.4360 C   0  0  2  0  0  3  0  0  0  0  0  0
  185.0910  178.4220  141.0570 C   0  0  0  0  0  0  0  0  0  0  0  0
  183.5890  178.4020  139.0270 N   0  0  1  0  0  0  0  0  0  0  0  0
  183.2980  180.7650  138.7190 O   0  0  0  0  0  0  0  0  0  0  0  0
  181.9300  181.0350  138.9260 C   0  0  0  0  0  2  0  0  0  0  0  0
  181.3240  179.0250  140.9570 C   0  0  0  0  0  2  0  0  0  0  0  0
  188.6310  178.4540  138.5430 C   0  0  2  0  0  3  0  0  0  0  0  0
  188.8210  176.7620  135.7320 C   0  0  0  0  0  2  0  0  0  0  0  0
  184.7920  177.9160  138.3340 C   0  0  0  0  0  2  0  0  0  0  0  0
  182.5860  178.2300  141.2550 C   0  0  0  0  0  2  0  0  0  0  0  0
  187.2480  178.0610  137.9710 C   0  0  1  0  0  3  0  0  0  0  0  0
  190.6330  177.1640  139.1620 C   0  0  0  0  0  2  0  0  0  0  0  0
  183.7540  178.7780  140.4520 C   0  0  1  0  0  3  0  0  0  0  0  0
  180.8340  178.8010  139.5240 C   0  0  0  0  0  2  0  0  0  0  0  0
  189.4170  176.4020  137.1030 C   0  0  1  0  0  3  0  0  0  0  0  0
  186.2330  178.4060  140.2470 C   0  0  0  0  0  0  0  0  0  0  0  0
  182.9940  179.4820  138.2210 C   0  0  2  0  0  3  0  0  0  0  0  0
  186.0740  178.6280  138.7740 C   0  0  2  0  0  3  0  0  0  0  0  0
  186.4400  178.1000  142.9750 C   0  0  0  0  0  3  0  0  0  0  0  0
  188.3170  178.2000  135.6210 C   0  0  0  0  0  2  0  0  0  0  0  0
  185.2210  178.2770  142.4030 N   0  0  0  0  0  0  0  0  0  0  0  0
  187.0960  178.4760  136.4980 C   0  0  0  0  0  2  0  0  0  0  0  0
  189.8050  177.6190  137.9740 C   0  0  1  0  0  3  0  0  0  0  0  0
  187.5570  178.1000  142.2050 N   0  0  0  0  0  0  0  0  0  0  0  0
  188.7610  178.3500  140.0680 C   0  0  1  0  0  3  0  0  0  0  0  0
  188.5640  175.5290  137.7880 O   0  0  0  0  0  0  0  0  0  0  0  0
  188.0230  174.6990  136.8030 C   0  0  0  0  0  2  0  0  0  0  0  0
  187.8140  171.4460  135.7350 C   0  0  0  0  0  2  0  0  0  0  0  0
  189.3370  173.0550  135.5030 C   0  0  0  0  0  2  0  0  0  0  0  0
  188.7030  173.3430  136.8440 C   0  0  2  0  0  3  0  0  0  0  0  0
  189.0610  171.7250  135.1580 O   0  0  0  0  0  0  0  0  0  0  0  0
  187.6900  172.2490  137.0070 C   0  0  0  0  0  2  0  0  0  0  0  0
  1 26  1  0  0  0  0
  3  7  1  1  0  0  0
  3 16  1  0  0  0  0
  4 23  2  0  0  0  0
  5 11  1  6  0  0  0
  5 15  1  0  0  0  0
  6  7  1  0  0  0  0
  8 12  1  0  0  0  0
  9 27  1  0  0  0  0
 10 17  1  0  0  0  0
 11 20  1  0  0  0  0
 13  9  1  0  0  0  0
 13 20  1  0  0  0  0
 14  2  1  0  0  0  0
 15  4  1  0  0  0  0
 15 12  1  0  0  0  0
 16  8  1  0  0  0  0
 17 28  1  0  0  0  0
 17 25  1  0  0  0  0
 18  1  2  0  0  0  0
 18  4  1  0  0  0  0
 19  3  1  0  0  0  0
 19  6  1  0  0  0  0
 19  5  1  0  0  0  0
 20 18  1  0  0  0  0
 22 10  1  0  0  0  0
 22 24  1  0  0  0  0
 23 21  1  0  0  0  0
 24 13  1  0  0  0  0
 25  9  1  0  0  0  0
 25 14  1  0  0  0  0
 26 21  2  0  0  0  0
 27  2  1  0  0  0  0
 27  1  1  0  0  0  0
 29 32  1  0  0  0  0
 29 28  1  0  0  0  0
 30 34  1  0  0  0  0
 31 32  1  0  0  0  0
 32 34  1  0  0  0  0
 33 31  1  0  0  0  0
 33 30  1  0  0  0  0
M  END
>  <MODEL>
5

>  <REMARK>
 VINA RESULT:      -6.4      3.479      6.732
  Name = 
  3 active torsions:
  status: ('A' for Active; 'I' for Inactive)
    1  A    between atoms: C_17  and  O_28
    2  A    between atoms: O_28  and  C_29
    3  A    between atoms: C_29  and  C_32
                            x       y       z     vdW  Elec       q    Type
                         _______ _______ _______ _____ _____    ______ ____

>  <TORSDO>
F 3

$$$$
=
 OpenBabel11122412103D

 34 41  0  0  1  0  0  0  0  0999 V2000
  187.9590  177.1050  138.1280 C   0  0  0  0  0  0  0  0  0  0  0  0
  187.1010  178.2460  140.1840 C   0  0  0  0  0  2  0  0  0  0  0  0
  192.7770  173.3000  135.6870 C   0  0  2  0  0  3  0  0  0  0  0  0
  188.7530  175.2920  136.7550 C   0  0  0  0  0  0  0  0  0  0  0  0
  190.9710  174.1700  137.2000 N   0  0  1  0  0  0  0  0  0  0  0  0
  192.3510  175.3770  135.6500 O   0  0  0  0  0  0  0  0  0  0  0  0
  192.8030  174.4420  134.6970 C   0  0  0  0  0  2  0  0  0  0  0  0
  190.4910  172.6610  134.6050 C   0  0  0  0  0  2  0  0  0  0  0  0
  189.5240  178.2350  139.8520 C   0  0  2  0  0  3  0  0  0  0  0  0
  191.0370  177.4840  142.6710 C   0  0  0  0  0  2  0  0  0  0  0  0
  190.8860  174.8630  138.4940 C   0  0  0  0  0  2  0  0  0  0  0  0
  189.4350  173.1740  135.5720 C   0  0  0  0  0  2  0  0  0  0  0  0
  190.3370  176.9220  139.7780 C   0  0  1  0  0  3  0  0  0  0  0  0
  187.7170  179.0240  141.3240 C   0  0  0  0  0  2  0  0  0  0  0  0
  189.9000  174.4680  136.2190 C   0  0  1  0  0  3  0  0  0  0  0  0
  191.7550  172.1960  135.3330 C   0  0  0  0  0  2  0  0  0  0  0  0
  189.5330  177.6830  142.4210 C   0  0  1  0  0  3  0  0  0  0  0  0
  188.9900  176.2250  137.7710 C   0  0  0  0  0  0  0  0  0  0  0  0
  192.3200  174.3820  136.6470 C   0  0  2  0  0  3  0  0  0  0  0  0
  190.3560  176.2950  138.3810 C   0  0  2  0  0  3  0  0  0  0  0  0
  186.5360  176.0900  136.5290 C   0  0  0  0  0  3  0  0  0  0  0  0
  191.9350  177.9560  141.5280 C   0  0  0  0  0  2  0  0  0  0  0  0
  187.5350  175.2510  136.1510 N   0  0  0  0  0  0  0  0  0  0  0  0
  191.7850  177.1130  140.2610 C   0  0  0  0  0  2  0  0  0  0  0  0
  189.1970  178.6910  141.2960 C   0  0  1  0  0  3  0  0  0  0  0  0
  186.7560  177.0120  137.5000 N   0  0  0  0  0  0  0  0  0  0  0  0
  188.1760  178.2120  139.1200 C   0  0  1  0  0  3  0  0  0  0  0  0
  188.9090  176.4480  142.2090 O   0  0  0  0  0  0  0  0  0  0  0  0
  188.3440  176.1090  143.4410 C   0  0  0  0  0  2  0  0  0  0  0  0
  186.5980  177.4740  146.0590 C   0  0  0  0  0  2  0  0  0  0  0  0
  188.7610  177.1270  145.6570 C   0  0  0  0  0  2  0  0  0  0  0  0
  188.1680  177.3560  144.2870 C   0  0  2  0  0  3  0  0  0  0  0  0
  187.8740  177.6360  146.6160 O   0  0  0  0  0  0  0  0  0  0  0  0
  186.7140  177.6080  144.5600 C   0  0  0  0  0  2  0  0  0  0  0  0
  1 27  1  0  0  0  0
  2 14  1  0  0  0  0
  3  7  1  6  0  0  0
  3 19  1  0  0  0  0
  4 18  2  0  0  0  0
  5 11  1  1  0  0  0
  6 19  1  0  0  0  0
  7  6  1  0  0  0  0
  8 16  1  0  0  0  0
  8 12  1  0  0  0  0
  9 25  1  0  0  0  0
 12 15  1  0  0  0  0
 13  9  1  0  0  0  0
 13 24  1  0  0  0  0
 15  4  1  0  0  0  0
 15  5  1  0  0  0  0
 16  3  1  0  0  0  0
 17 10  1  0  0  0  0
 18  1  1  0  0  0  0
 18 20  1  0  0  0  0
 19  5  1  0  0  0  0
 20 11  1  0  0  0  0
 20 13  1  0  0  0  0
 21 26  1  0  0  0  0
 22 10  1  0  0  0  0
 23 21  2  0  0  0  0
 23  4  1  0  0  0  0
 24 22  1  0  0  0  0
 25 14  1  0  0  0  0
 25 17  1  0  0  0  0
 26  1  2  0  0  0  0
 27  9  1  0  0  0  0
 27  2  1  0  0  0  0
 28 17  1  0  0  0  0
 28 29  1  0  0  0  0
 29 32  1  0  0  0  0
 30 33  1  0  0  0  0
 31 33  1  0  0  0  0
 32 34  1  0  0  0  0
 32 31  1  0  0  0  0
 34 30  1  0  0  0  0
M  END
>  <MODEL>
6

>  <REMARK>
 VINA RESULT:      -6.1      4.910      9.408
  Name = 
  3 active torsions:
  status: ('A' for Active; 'I' for Inactive)
    1  A    between atoms: C_17  and  O_28
    2  A    between atoms: O_28  and  C_29
    3  A    between atoms: C_29  and  C_32
                            x       y       z     vdW  Elec       q    Type
                         _______ _______ _______ _____ _____    ______ ____

>  <TORSDO>
F 3

$$$$
=
 OpenBabel11122412103D

 34 41  0  0  1  0  0  0  0  0999 V2000
  184.2010  178.4530  141.3920 C   0  0  0  0  0  0  0  0  0  0  0  0
  182.5260  179.4750  142.9460 C   0  0  0  0  0  2  0  0  0  0  0  0
  185.2810  176.4500  135.1900 C   0  0  2  0  0  3  0  0  0  0  0  0
  185.5830  178.2480  139.4300 C   0  0  0  0  0  0  0  0  0  0  0  0
  184.5820  177.8660  137.1420 N   0  0  1  0  0  0  0  0  0  0  0  0
  184.7850  175.4770  137.0070 O   0  0  0  0  0  0  0  0  0  0  0  0
  185.6780  175.2060  135.9510 C   0  0  0  0  0  2  0  0  0  0  0  0
  187.4450  177.5200  136.1790 C   0  0  0  0  0  2  0  0  0  0  0  0
  181.6780  177.8860  141.2920 C   0  0  2  0  0  3  0  0  0  0  0  0
  178.9400  179.0660  139.9080 C   0  0  0  0  0  2  0  0  0  0  0  0
  183.3260  178.2600  137.7970 C   0  0  0  0  0  2  0  0  0  0  0  0
  186.9670  178.3930  137.3290 C   0  0  0  0  0  2  0  0  0  0  0  0
  181.8170  178.1300  139.7700 C   0  0  1  0  0  3  0  0  0  0  0  0
  181.0410  179.3260  143.1830 C   0  0  0  0  0  2  0  0  0  0  0  0
  185.7740  177.7500  138.0160 C   0  0  1  0  0  3  0  0  0  0  0  0
  186.4270  177.4750  135.0350 C   0  0  0  0  0  2  0  0  0  0  0  0
  179.7720  179.6790  141.0470 C   0  0  1  0  0  3  0  0  0  0  0  0
  184.3200  178.1570  140.0270 C   0  0  0  0  0  0  0  0  0  0  0  0
  184.3330  176.6440  136.3580 C   0  0  2  0  0  3  0  0  0  0  0  0
  183.1650  177.6760  139.2030 C   0  0  2  0  0  3  0  0  0  0  0  0
  186.5170  178.9410  141.4910 C   0  0  0  0  0  3  0  0  0  0  0  0
  179.2910  177.6160  139.5790 C   0  0  0  0  0  2  0  0  0  0  0  0
  186.6540  178.6290  140.1760 N   0  0  0  0  0  0  0  0  0  0  0  0
  180.6860  177.4600  138.9730 C   0  0  0  0  0  2  0  0  0  0  0  0
  180.4930  178.6440  141.9420 C   0  0  1  0  0  3  0  0  0  0  0  0
  185.3030  178.8410  142.0890 N   0  0  0  0  0  0  0  0  0  0  0  0
  182.9070  178.2590  142.1300 C   0  0  1  0  0  3  0  0  0  0  0  0
  180.6630  180.6310  140.5380 O   0  0  0  0  0  0  0  0  0  0  0  0
  179.9970  181.2140  139.4580 C   0  0  0  0  0  2  0  0  0  0  0  0
  180.4440  181.7620  136.1010 C   0  0  0  0  0  2  0  0  0  0  0  0
  180.6750  183.0280  137.9190 C   0  0  0  0  0  2  0  0  0  0  0  0
  181.0020  181.6350  138.4010 C   0  0  2  0  0  3  0  0  0  0  0  0
  180.7910  183.0530  136.5220 O   0  0  0  0  0  0  0  0  0  0  0  0
  180.8640  180.7850  137.1720 C   0  0  0  0  0  2  0  0  0  0  0  0
  1 26  1  0  0  0  0
  1 27  1  0  0  0  0
  2 14  1  0  0  0  0
  3 16  1  1  0  0  0
  3  7  1  0  0  0  0
  3 19  1  0  0  0  0
  4 18  1  0  0  0  0
  4 23  2  0  0  0  0
  5 11  1  1  0  0  0
  5 15  1  0  0  0  0
  7  6  1  0  0  0  0
  8 12  1  0  0  0  0
  9 25  1  0  0  0  0
  9 27  1  0  0  0  0
 10 17  1  0  0  0  0
 11 20  1  0  0  0  0
 12 15  1  0  0  0  0
 13  9  1  0  0  0  0
 15  4  1  0  0  0  0
 16  8  1  0  0  0  0
 17 25  1  0  0  0  0
 18  1  2  0  0  0  0
 19  6  1  0  0  0  0
 19  5  1  0  0  0  0
 20 13  1  0  0  0  0
 20 18  1  0  0  0  0
 21 26  2  0  0  0  0
 22 10  1  0  0  0  0
 23 21  1  0  0  0  0
 24 22  1  0  0  0  0
 24 13  1  0  0  0  0
 25 14  1  0  0  0  0
 27  2  1  0  0  0  0
 28 17  1  0  0  0  0
 29 28  1  0  0  0  0
 30 33  1  0  0  0  0
 30 34  1  0  0  0  0
 31 32  1  0  0  0  0
 32 29  1  0  0  0  0
 33 31  1  0  0  0  0
 34 32  1  0  0  0  0
M  END
>  <MODEL>
7

>  <REMARK>
 VINA RESULT:      -6.1      3.011      6.569
  Name = 
  3 active torsions:
  status: ('A' for Active; 'I' for Inactive)
    1  A    between atoms: C_17  and  O_28
    2  A    between atoms: O_28  and  C_29
    3  A    between atoms: C_29  and  C_32
                            x       y       z     vdW  Elec       q    Type
                         _______ _______ _______ _____ _____    ______ ____

>  <TORSDO>
F 3

$$$$
=
 OpenBabel11122412103D

 34 41  0  0  1  0  0  0  0  0999 V2000
  187.2620  178.2550  139.5490 C   0  0  0  0  0  0  0  0  0  0  0  0
  185.1000  178.3760  138.2940 C   0  0  0  0  0  2  0  0  0  0  0  0
  190.0090  177.2270  145.4690 C   0  0  2  0  0  3  0  0  0  0  0  0
  188.9590  177.3120  140.9760 C   0  0  0  0  0  0  0  0  0  0  0  0
  188.5560  176.9400  143.4410 N   0  0  1  0  0  0  0  0  0  0  0  0
  189.5440  178.9450  144.3180 O   0  0  0  0  0  0  0  0  0  0  0  0
  190.6480  178.5450  145.0980 C   0  0  0  0  0  2  0  0  0  0  0  0
  191.4980  176.1900  143.5950 C   0  0  0  0  0  2  0  0  0  0  0  0
  185.1190  179.2940  140.5610 C   0  0  2  0  0  3  0  0  0  0  0  0
  182.4360  178.3150  142.1870 C   0  0  0  0  0  2  0  0  0  0  0  0
  187.1450  177.1500  143.0840 C   0  0  0  0  0  2  0  0  0  0  0  0
  190.5680  176.0020  142.4060 C   0  0  0  0  0  2  0  0  0  0  0  0
  185.4380  178.4220  141.7980 C   0  0  1  0  0  3  0  0  0  0  0  0
  183.7270  178.9470  138.5610 C   0  0  0  0  0  2  0  0  0  0  0  0
  189.5470  177.1260  142.3540 C   0  0  1  0  0  3  0  0  0  0  0  0
  190.7690  175.9950  144.9260 C   0  0  0  0  0  2  0  0  0  0  0  0
  182.8090  178.0510  140.7190 C   0  0  1  0  0  3  0  0  0  0  0  0
  187.7100  177.9280  140.8370 C   0  0  0  0  0  0  0  0  0  0  0  0
  188.8600  177.7530  144.6310 C   0  0  2  0  0  3  0  0  0  0  0  0
  186.9380  178.2790  142.0710 C   0  0  2  0  0  3  0  0  0  0  0  0
  189.2390  177.3310  138.6260 C   0  0  0  0  0  3  0  0  0  0  0  0
  183.2900  179.3790  142.8740 C   0  0  0  0  0  2  0  0  0  0  0  0
  189.6990  177.0350  139.8690 N   0  0  0  0  0  0  0  0  0  0  0  0
  184.7450  178.9470  143.0660 C   0  0  0  0  0  2  0  0  0  0  0  0
  183.6580  179.1650  140.0620 C   0  0  1  0  0  3  0  0  0  0  0  0
  188.0370  177.9440  138.4750 N   0  0  0  0  0  0  0  0  0  0  0  0
  185.9930  179.0260  139.3290 C   0  0  1  0  0  3  0  0  0  0  0  0
  183.4180  176.7970  140.5920 O   0  0  0  0  0  0  0  0  0  0  0  0
  182.3980  175.9350  140.1830 C   0  0  0  0  0  2  0  0  0  0  0  0
  182.5240  174.1000  137.2880 C   0  0  0  0  0  2  0  0  0  0  0  0
  180.9500  175.3340  138.2690 C   0  0  0  0  0  2  0  0  0  0  0  0
  182.2430  176.0020  138.6750 C   0  0  2  0  0  3  0  0  0  0  0  0
  181.1970  174.5320  137.1460 O   0  0  0  0  0  0  0  0  0  0  0  0
  183.3020  175.1800  137.9990 C   0  0  0  0  0  2  0  0  0  0  0  0
  1 18  1  0  0  0  0
  2 14  1  0  0  0  0
  2 27  1  0  0  0  0
  3 16  1  6  0  0  0
  4 15  1  0  0  0  0
  5 11  1  6  0  0  0
  5 19  1  0  0  0  0
  6 19  1  0  0  0  0
  6  7  1  0  0  0  0
  7  3  1  0  0  0  0
  8 16  1  0  0  0  0
  9 13  1  0  0  0  0
 10 22  1  0  0  0  0
 12  8  1  0  0  0  0
 13 20  1  0  0  0  0
 13 24  1  0  0  0  0
 14 25  1  0  0  0  0
 15 12  1  0  0  0  0
 15  5  1  0  0  0  0
 17 10  1  0  0  0  0
 18  4  2  0  0  0  0
 18 20  1  0  0  0  0
 19  3  1  0  0  0  0
 20 11  1  0  0  0  0
 21 23  2  0  0  0  0
 22 24  1  0  0  0  0
 23  4  1  0  0  0  0
 25  9  1  0  0  0  0
 25 17  1  0  0  0  0
 26 21  1  0  0  0  0
 26  1  2  0  0  0  0
 27  1  1  0  0  0  0
 27  9  1  0  0  0  0
 28 17  1  0  0  0  0
 29 28  1  0  0  0  0
 30 34  1  0  0  0  0
 31 32  1  0  0  0  0
 32 29  1  0  0  0  0
 33 30  1  0  0  0  0
 33 31  1  0  0  0  0
 34 32  1  0  0  0  0
M  END
>  <MODEL>
8

>  <REMARK>
 VINA RESULT:      -6.0      1.979      2.857
  Name = 
  3 active torsions:
  status: ('A' for Active; 'I' for Inactive)
    1  A    between atoms: C_17  and  O_28
    2  A    between atoms: O_28  and  C_29
    3  A    between atoms: C_29  and  C_32
                            x       y       z     vdW  Elec       q    Type
                         _______ _______ _______ _____ _____    ______ ____

>  <TORSDO>
F 3

$$$$
=
 OpenBabel11122412103D

 34 41  0  0  1  0  0  0  0  0999 V2000
  183.9220  178.4020  141.0270 C   0  0  0  0  0  0  0  0  0  0  0  0
  181.6200  179.3340  141.3390 C   0  0  0  0  0  2  0  0  0  0  0  0
  188.6300  177.0330  136.6000 C   0  0  2  0  0  3  0  0  0  0  0  0
  186.2220  178.3400  140.3130 C   0  0  0  0  0  0  0  0  0  0  0  0
  186.8450  178.2620  137.8670 N   0  0  1  0  0  0  0  0  0  0  0  0
  187.1500  175.8950  137.6040 O   0  0  0  0  0  0  0  0  0  0  0  0
  188.5100  175.6950  137.2910 C   0  0  0  0  0  2  0  0  0  0  0  0
  189.7040  177.8750  138.8230 C   0  0  0  0  0  2  0  0  0  0  0  0
  182.0070  177.9810  139.3390 C   0  0  2  0  0  3  0  0  0  0  0  0
  180.6630  179.4440  136.7210 C   0  0  0  0  0  2  0  0  0  0  0  0
  185.4410  178.6470  137.6570 C   0  0  0  0  0  2  0  0  0  0  0  0
  188.5990  178.6420  139.5330 C   0  0  0  0  0  2  0  0  0  0  0  0
  183.0430  178.3810  138.2630 C   0  0  1  0  0  3  0  0  0  0  0  0
  180.3060  179.2370  140.5990 C   0  0  0  0  0  2  0  0  0  0  0  0
  187.2530  177.9900  139.2660 C   0  0  1  0  0  3  0  0  0  0  0  0
  189.6030  178.0080  137.3010 C   0  0  0  0  0  2  0  0  0  0  0  0
  180.6050  179.8860  138.1930 C   0  0  1  0  0  3  0  0  0  0  0  0
  184.8610  178.2500  139.9980 C   0  0  0  0  0  0  0  0  0  0  0  0
  187.1610  177.1470  136.9570 C   0  0  2  0  0  3  0  0  0  0  0  0
  184.4670  177.9230  138.5900 C   0  0  2  0  0  3  0  0  0  0  0  0
  185.6770  178.7560  142.5780 C   0  0  0  0  0  3  0  0  0  0  0  0
  181.1790  178.0220  136.5080 C   0  0  0  0  0  2  0  0  0  0  0  0
  186.6000  178.5820  141.5970 N   0  0  0  0  0  0  0  0  0  0  0  0
  182.6570  177.8610  136.8690 C   0  0  0  0  0  2  0  0  0  0  0  0
  180.6530  178.7240  139.2130 C   0  0  1  0  0  3  0  0  0  0  0  0
  184.3550  178.6550  142.2920 N   0  0  0  0  0  0  0  0  0  0  0  0
  182.4530  178.1960  140.7910 C   0  0  1  0  0  3  0  0  0  0  0  0
  181.5960  180.8400  138.4520 O   0  0  0  0  0  0  0  0  0  0  0  0
  180.9460  182.0730  138.3680 C   0  0  0  0  0  2  0  0  0  0  0  0
  180.2540  184.6450  136.2050 C   0  0  0  0  0  2  0  0  0  0  0  0
  181.9320  184.2090  137.6030 C   0  0  0  0  0  2  0  0  0  0  0  0
  181.4590  182.8430  137.1650 C   0  0  2  0  0  3  0  0  0  0  0  0
  181.4700  185.1570  136.6800 O   0  0  0  0  0  0  0  0  0  0  0  0
  180.3400  183.1380  136.2090 C   0  0  0  0  0  2  0  0  0  0  0  0
  1 26  1  0  0  0  0
  3 19  1  0  0  0  0
  3  7  1  1  0  0  0
  3 16  1  0  0  0  0
  4 23  2  0  0  0  0
  5 11  1  1  0  0  0
  5 15  1  0  0  0  0
  7  6  1  0  0  0  0
  8 12  1  0  0  0  0
  9 27  1  0  0  0  0
 10 17  1  0  0  0  0
 11 20  1  0  0  0  0
 13 20  1  0  0  0  0
 13  9  1  0  0  0  0
 14  2  1  0  0  0  0
 15 12  1  0  0  0  0
 15  4  1  0  0  0  0
 16  8  1  0  0  0  0
 17 28  1  0  0  0  0
 17 25  1  0  0  0  0
 18  4  1  0  0  0  0
 18  1  2  0  0  0  0
 19  6  1  0  0  0  0
 19  5  1  0  0  0  0
 20 18  1  0  0  0  0
 22 10  1  0  0  0  0
 22 24  1  0  0  0  0
 23 21  1  0  0  0  0
 24 13  1  0  0  0  0
 25  9  1  0  0  0  0
 25 14  1  0  0  0  0
 26 21  2  0  0  0  0
 27  1  1  0  0  0  0
 27  2  1  0  0  0  0
 29 28  1  0  0  0  0
 30 34  1  0  0  0  0
 30 33  1  0  0  0  0
 32 31  1  0  0  0  0
 32 29  1  0  0  0  0
 33 31  1  0  0  0  0
 34 32  1  0  0  0  0
M  END
>  <MODEL>
9

>  <REMARK>
 VINA RESULT:      -6.0      3.385      6.599
  Name = 
  3 active torsions:
  status: ('A' for Active; 'I' for Inactive)
    1  A    between atoms: C_17  and  O_28
    2  A    between atoms: O_28  and  C_29
    3  A    between atoms: C_29  and  C_32
                            x       y       z     vdW  Elec       q    Type
                         _______ _______ _______ _____ _____    ______ ____

>  <TORSDO>
F 3

$$$$
