=
 OpenBabel11122410313D

 30 35  0  0  1  0  0  0  0  0999 V2000
  188.0570  177.9220  142.6770 C   0  0  2  0  0  3  0  0  0  0  0  0
  186.7480  177.8620  144.8640 C   0  0  0  0  0  0  0  0  0  0  0  0
  184.4620  179.3030  140.7520 N   0  0  0  0  0  2  0  0  0  0  0  0
  187.9960  178.2310  141.1360 C   0  0  1  0  0  3  0  0  0  0  0  0
  188.5280  176.6150  142.9060 O   0  0  0  0  0  0  0  0  0  0  0  0
  191.2140  177.8660  140.8870 C   0  0  0  0  0  1  0  0  0  0  0  0
  187.7700  176.9970  138.1120 C   0  0  0  0  0  0  0  0  0  0  0  0
  190.1410  176.8070  141.0940 C   0  0  1  0  0  3  0  0  0  0  0  0
  186.5310  177.5600  138.2840 C   0  0  0  0  0  0  0  0  0  0  0  0
  184.8200  179.0710  139.3960 C   0  0  0  0  0  0  0  0  0  0  0  0
  189.9030  176.6370  142.6020 C   0  0  2  0  0  3  0  0  0  0  0  0
  188.8320  177.1670  140.3710 C   0  0  2  0  0  3  0  0  0  0  0  0
  185.5790  178.0620  145.6040 C   0  0  0  0  0  3  0  0  0  0  0  0
  185.6720  176.9290  137.4050 C   0  0  0  0  0  3  0  0  0  0  0  0
  187.7020  176.0680  137.1940 O   0  0  0  0  0  0  0  0  0  0  0  0
  187.8740  177.3640  145.5090 O   0  0  0  0  0  1  0  0  0  0  0  0
  185.7150  179.1880  141.4790 C   0  0  2  0  0  3  0  0  0  0  0  0
  184.4390  178.5860  144.9950 C   0  0  0  0  0  3  0  0  0  0  0  0
  186.7790  178.1650  143.4870 C   0  0  0  0  0  0  0  0  0  0  0  0
  186.5450  178.2330  140.6590 C   0  0  1  0  0  3  0  0  0  0  0  0
  184.0190  179.2520  138.4420 O   0  0  0  0  0  0  0  0  0  0  0  0
  186.2530  178.6790  139.2370 C   0  0  1  0  0  3  0  0  0  0  0  0
  186.4650  175.9970  136.7470 C   0  0  0  0  0  3  0  0  0  0  0  0
  189.3750  178.6890  138.5680 O   0  0  0  0  0  1  0  0  0  0  0  0
  184.4620  178.9200  143.6400 C   0  0  0  0  0  3  0  0  0  0  0  0
  185.6170  178.7000  142.8820 C   0  0  0  0  0  0  0  0  0  0  0  0
  189.0120  177.3710  138.8580 C   0  0  2  0  0  3  0  0  0  0  0  0
  190.5620  175.3570  143.0800 C   0  0  0  0  0  2  0  0  0  0  0  0
  191.6200  177.0070  144.4250 O   0  0  0  0  0  1  0  0  0  0  0  0
  191.7090  175.6770  144.0190 C   0  0  0  0  0  2  0  0  0  0  0  0
  1  5  1  6  0  0  0
  1 19  1  0  0  0  0
  2 16  1  0  0  0  0
  2 13  1  0  0  0  0
  3 17  1  0  0  0  0
  4  1  1  0  0  0  0
  6  8  1  0  0  0  0
  7  9  2  0  0  0  0
  7 27  1  0  0  0  0
  8 11  1  0  0  0  0
  9 22  1  0  0  0  0
 10  3  1  0  0  0  0
 11  5  1  0  0  0  0
 11 28  1  0  0  0  0
 12  8  1  0  0  0  0
 12  4  1  0  0  0  0
 14  9  1  0  0  0  0
 15  7  1  0  0  0  0
 17 26  1  0  0  0  0
 18 13  2  0  0  0  0
 19  2  2  0  0  0  0
 20  4  1  0  0  0  0
 20 17  1  0  0  0  0
 21 10  2  0  0  0  0
 22 10  1  0  0  0  0
 22 20  1  0  0  0  0
 23 15  1  0  0  0  0
 23 14  2  0  0  0  0
 24 27  1  0  0  0  0
 25 18  1  0  0  0  0
 26 19  1  0  0  0  0
 26 25  2  0  0  0  0
 27 12  1  0  0  0  0
 28 30  1  0  0  0  0
 30 29  1  0  0  0  0
M  END
>  <MODEL>
1

>  <REMARK>
 VINA RESULT:      -8.6      0.000      0.000
  Name = 
  2 active torsions:
  status: ('A' for Active; 'I' for Inactive)
    1  A    between atoms: C_11  and  C_28
    2  A    between atoms: C_28  and  C_30
                            x       y       z     vdW  Elec       q    Type
                         _______ _______ _______ _____ _____    ______ ____

>  <TORSDO>
F 2

$$$$
=
 OpenBabel11122410313D

 30 35  0  0  1  0  0  0  0  0999 V2000
  188.5960  177.8410  142.5390 C   0  0  2  0  0  3  0  0  0  0  0  0
  186.9860  177.9570  144.5110 C   0  0  0  0  0  0  0  0  0  0  0  0
  185.2560  178.7290  139.9700 N   0  0  0  0  0  2  0  0  0  0  0  0
  188.7450  177.9550  140.9780 C   0  0  1  0  0  3  0  0  0  0  0  0
  189.0940  176.6060  142.9990 O   0  0  0  0  0  0  0  0  0  0  0  0
  191.9800  177.7840  141.2270 C   0  0  0  0  0  1  0  0  0  0  0  0
  189.0260  176.3500  138.1380 C   0  0  0  0  0  0  0  0  0  0  0  0
  190.9430  176.6870  141.4190 C   0  0  1  0  0  3  0  0  0  0  0  0
  187.7500  176.8440  138.0610 C   0  0  0  0  0  0  0  0  0  0  0  0
  185.8200  178.3580  138.7180 C   0  0  0  0  0  0  0  0  0  0  0  0
  190.4950  176.6850  142.8880 C   0  0  2  0  0  3  0  0  0  0  0  0
  189.7360  176.8660  140.4800 C   0  0  2  0  0  3  0  0  0  0  0  0
  185.7120  178.1650  145.0500 C   0  0  0  0  0  3  0  0  0  0  0  0
  187.0610  176.0540  137.1600 C   0  0  0  0  0  3  0  0  0  0  0  0
  189.1410  175.3140  137.3470 O   0  0  0  0  0  0  0  0  0  0  0  0
  188.0280  177.6190  145.3670 O   0  0  0  0  0  1  0  0  0  0  0  0
  186.3940  178.7890  140.8730 C   0  0  2  0  0  3  0  0  0  0  0  0
  184.6480  178.5330  144.2250 C   0  0  0  0  0  3  0  0  0  0  0  0
  187.2020  178.0920  143.1250 C   0  0  0  0  0  0  0  0  0  0  0  0
  187.3820  177.8000  140.3080 C   0  0  1  0  0  3  0  0  0  0  0  0
  185.1590  178.3670  137.6470 O   0  0  0  0  0  0  0  0  0  0  0  0
  187.2780  178.0490  138.8130 C   0  0  1  0  0  3  0  0  0  0  0  0
  187.9880  175.1050  136.7470 C   0  0  0  0  0  3  0  0  0  0  0  0
  190.4610  178.1910  138.5880 O   0  0  0  0  0  1  0  0  0  0  0  0
  184.8530  178.7000  142.8550 C   0  0  0  0  0  3  0  0  0  0  0  0
  186.1160  178.4690  142.3000 C   0  0  0  0  0  0  0  0  0  0  0  0
  190.1260  176.8970  138.9930 C   0  0  2  0  0  3  0  0  0  0  0  0
  191.1400  175.5210  143.6160 C   0  0  0  0  0  2  0  0  0  0  0  0
  191.6620  177.3660  145.0210 O   0  0  0  0  0  1  0  0  0  0  0  0
  191.6710  175.9740  144.9630 C   0  0  0  0  0  2  0  0  0  0  0  0
  1  5  1  6  0  0  0
  1 19  1  0  0  0  0
  2 13  1  0  0  0  0
  2 16  1  0  0  0  0
  3 17  1  0  0  0  0
  4  1  1  0  0  0  0
  6  8  1  0  0  0  0
  7 27  1  0  0  0  0
  8 11  1  0  0  0  0
  9  7  2  0  0  0  0
  9 22  1  0  0  0  0
 10 22  1  0  0  0  0
 10  3  1  0  0  0  0
 11  5  1  0  0  0  0
 11 28  1  0  0  0  0
 12  4  1  0  0  0  0
 12  8  1  0  0  0  0
 14  9  1  0  0  0  0
 15  7  1  0  0  0  0
 17 26  1  0  0  0  0
 18 13  2  0  0  0  0
 19  2  2  0  0  0  0
 20 17  1  0  0  0  0
 20  4  1  0  0  0  0
 21 10  2  0  0  0  0
 22 20  1  0  0  0  0
 23 14  2  0  0  0  0
 23 15  1  0  0  0  0
 24 27  1  0  0  0  0
 25 18  1  0  0  0  0
 26 25  2  0  0  0  0
 26 19  1  0  0  0  0
 27 12  1  0  0  0  0
 28 30  1  0  0  0  0
 30 29  1  0  0  0  0
M  END
>  <MODEL>
2

>  <REMARK>
 VINA RESULT:      -8.1      0.941      1.075
  Name = 
  2 active torsions:
  status: ('A' for Active; 'I' for Inactive)
    1  A    between atoms: C_11  and  C_28
    2  A    between atoms: C_28  and  C_30
                            x       y       z     vdW  Elec       q    Type
                         _______ _______ _______ _____ _____    ______ ____

>  <TORSDO>
F 2

$$$$
=
 OpenBabel11122410313D

 30 35  0  0  1  0  0  0  0  0999 V2000
  188.0750  178.1780  141.1940 C   0  0  2  0  0  3  0  0  0  0  0  0
  188.5900  177.6450  143.6330 C   0  0  0  0  0  0  0  0  0  0  0  0
  183.9300  178.5120  142.3100 N   0  0  0  0  0  2  0  0  0  0  0  0
  186.9500  178.5170  140.1490 C   0  0  1  0  0  3  0  0  0  0  0  0
  188.8240  177.0600  140.7760 O   0  0  0  0  0  0  0  0  0  0  0  0
  189.1830  179.1300  137.8710 C   0  0  0  0  0  1  0  0  0  0  0  0
  185.0230  177.3950  137.7510 C   0  0  0  0  0  0  0  0  0  0  0  0
  188.7510  177.7940  138.4570 C   0  0  1  0  0  3  0  0  0  0  0  0
  184.1320  177.5600  138.7800 C   0  0  0  0  0  0  0  0  0  0  0  0
  183.3360  178.4510  141.0200 C   0  0  0  0  0  0  0  0  0  0  0  0
  189.6110  177.5000  139.6950 C   0  0  2  0  0  3  0  0  0  0  0  0
  187.2550  177.7800  138.8150 C   0  0  2  0  0  3  0  0  0  0  0  0
  188.1950  177.4610  144.9620 C   0  0  0  0  0  3  0  0  0  0  0  0
  183.0510  176.7390  138.5170 C   0  0  0  0  0  3  0  0  0  0  0  0
  184.5480  176.5260  136.8970 O   0  0  0  0  0  0  0  0  0  0  0  0
  189.9290  177.4760  143.3000 O   0  0  0  0  0  1  0  0  0  0  0  0
  185.3400  178.7430  142.0450 C   0  0  2  0  0  3  0  0  0  0  0  0
  186.8650  177.6490  145.3360 C   0  0  0  0  0  3  0  0  0  0  0  0
  187.6410  177.9990  142.6520 C   0  0  0  0  0  0  0  0  0  0  0  0
  185.5840  178.1100  140.6990 C   0  0  1  0  0  3  0  0  0  0  0  0
  182.0890  178.4260  140.8480 O   0  0  0  0  0  0  0  0  0  0  0  0
  184.3430  178.5070  139.9180 C   0  0  1  0  0  3  0  0  0  0  0  0
  183.3720  176.1100  137.3200 C   0  0  0  0  0  3  0  0  0  0  0  0
  186.1550  179.4660  137.4700 O   0  0  0  0  0  1  0  0  0  0  0  0
  185.9190  178.0290  144.3840 C   0  0  0  0  0  3  0  0  0  0  0  0
  186.2950  178.1910  143.0460 C   0  0  0  0  0  0  0  0  0  0  0  0
  186.3430  178.0890  137.6170 C   0  0  2  0  0  3  0  0  0  0  0  0
  190.6550  176.4530  139.3530 C   0  0  0  0  0  2  0  0  0  0  0  0
  190.8850  174.4810  138.0460 O   0  0  0  0  0  1  0  0  0  0  0  0
  190.2760  175.7330  138.0730 C   0  0  0  0  0  2  0  0  0  0  0  0
  1  5  1  6  0  0  0
  1 19  1  0  0  0  0
  2 13  1  0  0  0  0
  4 20  1  0  0  0  0
  4  1  1  0  0  0  0
  6  8  1  0  0  0  0
  7  9  2  0  0  0  0
  8 12  1  0  0  0  0
  8 11  1  0  0  0  0
  9 22  1  0  0  0  0
 10  3  1  0  0  0  0
 11  5  1  0  0  0  0
 12  4  1  0  0  0  0
 13 18  2  0  0  0  0
 14  9  1  0  0  0  0
 15 23  1  0  0  0  0
 15  7  1  0  0  0  0
 16  2  1  0  0  0  0
 17  3  1  0  0  0  0
 17 26  1  0  0  0  0
 19 26  1  0  0  0  0
 19  2  2  0  0  0  0
 20 17  1  0  0  0  0
 21 10  2  0  0  0  0
 22 20  1  0  0  0  0
 22 10  1  0  0  0  0
 23 14  2  0  0  0  0
 24 27  1  0  0  0  0
 25 18  1  0  0  0  0
 26 25  2  0  0  0  0
 27  7  1  0  0  0  0
 27 12  1  0  0  0  0
 28 11  1  0  0  0  0
 29 30  1  0  0  0  0
 30 28  1  0  0  0  0
M  END
>  <MODEL>
3

>  <REMARK>
 VINA RESULT:      -7.8      1.821      3.005
  Name = 
  2 active torsions:
  status: ('A' for Active; 'I' for Inactive)
    1  A    between atoms: C_11  and  C_28
    2  A    between atoms: C_28  and  C_30
                            x       y       z     vdW  Elec       q    Type
                         _______ _______ _______ _____ _____    ______ ____

>  <TORSDO>
F 2

$$$$
=
 OpenBabel11122410313D

 30 35  0  0  1  0  0  0  0  0999 V2000
  187.9480  178.2060  141.6170 C   0  0  2  0  0  3  0  0  0  0  0  0
  188.6010  177.6540  144.0180 C   0  0  0  0  0  0  0  0  0  0  0  0
  183.8800  178.5690  142.9780 N   0  0  0  0  0  2  0  0  0  0  0  0
  186.7660  178.5610  140.6420 C   0  0  1  0  0  3  0  0  0  0  0  0
  188.6600  177.0840  141.1500 O   0  0  0  0  0  0  0  0  0  0  0  0
  188.8650  179.1670  138.2390 C   0  0  0  0  0  1  0  0  0  0  0  0
  184.6910  177.4680  138.3570 C   0  0  0  0  0  0  0  0  0  0  0  0
  188.4570  177.8310  138.8430 C   0  0  1  0  0  3  0  0  0  0  0  0
  183.8640  177.6350  139.4370 C   0  0  0  0  0  0  0  0  0  0  0  0
  183.2090  178.5210  141.7250 C   0  0  0  0  0  0  0  0  0  0  0  0
  189.3860  177.5230  140.0260 C   0  0  2  0  0  3  0  0  0  0  0  0
  186.9850  177.8280  139.2890 C   0  0  2  0  0  3  0  0  0  0  0  0
  188.2850  177.4660  145.3670 C   0  0  0  0  0  3  0  0  0  0  0  0
  182.7620  176.8250  139.2350 C   0  0  0  0  0  3  0  0  0  0  0  0
  184.1580  176.6080  137.5280 O   0  0  0  0  0  0  0  0  0  0  0  0
  189.9170  177.4760  143.6060 O   0  0  0  0  0  1  0  0  0  0  0  0
  185.2740  178.7900  142.6320 C   0  0  2  0  0  3  0  0  0  0  0  0
  186.9800  177.6640  145.8210 C   0  0  0  0  0  3  0  0  0  0  0  0
  187.5990  178.0220  143.0970 C   0  0  0  0  0  0  0  0  0  0  0  0
  185.4320  178.1610  141.2700 C   0  0  1  0  0  3  0  0  0  0  0  0
  181.9550  178.5070  141.6270 O   0  0  0  0  0  0  0  0  0  0  0  0
  184.1500  178.5740  140.5660 C   0  0  1  0  0  3  0  0  0  0  0  0
  183.0050  176.2000  138.0180 C   0  0  0  0  0  3  0  0  0  0  0  0
  185.8220  179.5310  138.0200 O   0  0  0  0  0  1  0  0  0  0  0  0
  185.9830  178.0570  144.9280 C   0  0  0  0  0  3  0  0  0  0  0  0
  186.2810  178.2230  143.5710 C   0  0  0  0  0  0  0  0  0  0  0  0
  186.0060  178.1520  138.1480 C   0  0  2  0  0  3  0  0  0  0  0  0
  190.3990  176.4690  139.6180 C   0  0  0  0  0  2  0  0  0  0  0  0
  192.0770  177.5410  140.9160 O   0  0  0  0  0  1  0  0  0  0  0  0
  191.8000  177.0510  139.6420 C   0  0  0  0  0  2  0  0  0  0  0  0
  1  5  1  6  0  0  0
  1 19  1  0  0  0  0
  2 13  1  0  0  0  0
  4 20  1  0  0  0  0
  4  1  1  0  0  0  0
  6  8  1  0  0  0  0
  7  9  2  0  0  0  0
  8 12  1  0  0  0  0
  8 11  1  0  0  0  0
  9 22  1  0  0  0  0
 10  3  1  0  0  0  0
 11  5  1  0  0  0  0
 12  4  1  0  0  0  0
 13 18  2  0  0  0  0
 14  9  1  0  0  0  0
 15 23  1  0  0  0  0
 15  7  1  0  0  0  0
 16  2  1  0  0  0  0
 17  3  1  0  0  0  0
 17 26  1  0  0  0  0
 19 26  1  0  0  0  0
 19  2  2  0  0  0  0
 20 17  1  0  0  0  0
 21 10  2  0  0  0  0
 22 20  1  0  0  0  0
 22 10  1  0  0  0  0
 23 14  2  0  0  0  0
 24 27  1  0  0  0  0
 25 18  1  0  0  0  0
 26 25  2  0  0  0  0
 27  7  1  0  0  0  0
 27 12  1  0  0  0  0
 28 30  1  0  0  0  0
 28 11  1  0  0  0  0
 30 29  1  0  0  0  0
M  END
>  <MODEL>
4

>  <REMARK>
 VINA RESULT:      -7.8      1.859      2.845
  Name = 
  2 active torsions:
  status: ('A' for Active; 'I' for Inactive)
    1  A    between atoms: C_11  and  C_28
    2  A    between atoms: C_28  and  C_30
                            x       y       z     vdW  Elec       q    Type
                         _______ _______ _______ _____ _____    ______ ____

>  <TORSDO>
F 2

$$$$
=
 OpenBabel11122410313D

 30 35  0  0  1  0  0  0  0  0999 V2000
  187.1860  177.8370  140.2390 C   0  0  2  0  0  3  0  0  0  0  0  0
  184.8670  178.8480  139.9270 C   0  0  0  0  0  0  0  0  0  0  0  0
  186.4230  177.8030  144.4770 N   0  0  0  0  0  2  0  0  0  0  0  0
  188.2430  177.3110  141.2780 C   0  0  1  0  0  3  0  0  0  0  0  0
  187.7480  178.8350  139.4180 O   0  0  0  0  0  0  0  0  0  0  0  0
  190.1300  176.2120  138.8730 C   0  0  0  0  0  1  0  0  0  0  0  0
  190.9890  177.9520  142.9420 C   0  0  0  0  0  0  0  0  0  0  0  0
  189.8680  177.6460  139.3090 C   0  0  1  0  0  3  0  0  0  0  0  0
  190.0380  178.0140  143.9270 C   0  0  0  0  0  0  0  0  0  0  0  0
  187.7490  177.6100  144.9510 C   0  0  0  0  0  0  0  0  0  0  0  0
  188.6390  178.1720  138.5530 C   0  0  2  0  0  3  0  0  0  0  0  0
  189.6630  177.7560  140.8300 C   0  0  2  0  0  3  0  0  0  0  0  0
  183.6460  179.3050  140.4320 C   0  0  0  0  0  3  0  0  0  0  0  0
  190.5610  178.7810  144.9510 C   0  0  0  0  0  3  0  0  0  0  0  0
  192.0410  178.6360  143.3090 O   0  0  0  0  0  0  0  0  0  0  0  0
  185.0980  178.9240  138.5580 O   0  0  0  0  0  1  0  0  0  0  0  0
  186.5010  177.5010  143.0570 C   0  0  2  0  0  3  0  0  0  0  0  0
  183.3680  179.2180  141.7960 C   0  0  0  0  0  3  0  0  0  0  0  0
  185.8410  178.3160  140.7960 C   0  0  0  0  0  0  0  0  0  0  0  0
  187.9180  177.8430  142.6720 C   0  0  1  0  0  3  0  0  0  0  0  0
  188.0400  177.6200  146.1750 O   0  0  0  0  0  0  0  0  0  0  0  0
  188.7170  177.3150  143.8520 C   0  0  1  0  0  3  0  0  0  0  0  0
  191.8240  179.1480  144.5030 C   0  0  0  0  0  3  0  0  0  0  0  0
  190.7400  175.8500  141.8630 O   0  0  0  0  0  1  0  0  0  0  0  0
  184.3100  178.6670  142.6660 C   0  0  0  0  0  3  0  0  0  0  0  0
  185.5460  178.2300  142.1770 C   0  0  0  0  0  0  0  0  0  0  0  0
  190.8550  177.2240  141.6410 C   0  0  2  0  0  3  0  0  0  0  0  0
  189.0840  179.1110  137.4470 C   0  0  0  0  0  2  0  0  0  0  0  0
  187.8310  177.5760  136.1320 O   0  0  0  0  0  1  0  0  0  0  0  0
  188.9230  178.4410  136.0950 C   0  0  0  0  0  2  0  0  0  0  0  0
  1  5  1  1  0  0  0
  1 19  1  0  0  0  0
  1  4  1  0  0  0  0
  2 13  2  0  0  0  0
  2 19  1  0  0  0  0
  3 10  1  0  0  0  0
  4 20  1  0  0  0  0
  6  8  1  0  0  0  0
  7 15  1  0  0  0  0
  7  9  2  0  0  0  0
  8 12  1  0  0  0  0
  9 14  1  0  0  0  0
 10 21  2  0  0  0  0
 11  8  1  0  0  0  0
 11  5  1  0  0  0  0
 12  4  1  0  0  0  0
 12 27  1  0  0  0  0
 13 18  1  0  0  0  0
 15 23  1  0  0  0  0
 16  2  1  0  0  0  0
 17  3  1  0  0  0  0
 18 25  2  0  0  0  0
 19 26  2  0  0  0  0
 20 17  1  0  0  0  0
 20 22  1  0  0  0  0
 22  9  1  0  0  0  0
 22 10  1  0  0  0  0
 23 14  2  0  0  0  0
 26 25  1  0  0  0  0
 26 17  1  0  0  0  0
 27 24  1  0  0  0  0
 27  7  1  0  0  0  0
 28 11  1  0  0  0  0
 30 29  1  0  0  0  0
 30 28  1  0  0  0  0
M  END
>  <MODEL>
5

>  <REMARK>
 VINA RESULT:      -7.7      1.894      5.621
  Name = 
  2 active torsions:
  status: ('A' for Active; 'I' for Inactive)
    1  A    between atoms: C_11  and  C_28
    2  A    between atoms: C_28  and  C_30
                            x       y       z     vdW  Elec       q    Type
                         _______ _______ _______ _____ _____    ______ ____

>  <TORSDO>
F 2

$$$$
=
 OpenBabel11122410313D

 30 35  0  0  1  0  0  0  0  0999 V2000
  187.1620  178.4550  141.4000 C   0  0  2  0  0  3  0  0  0  0  0  0
  186.7340  178.2530  143.9050 C   0  0  0  0  0  0  0  0  0  0  0  0
  182.9040  178.8130  140.8670 N   0  0  0  0  0  2  0  0  0  0  0  0
  186.5050  178.6260  139.9810 C   0  0  1  0  0  3  0  0  0  0  0  0
  187.9870  177.3130  141.4340 O   0  0  0  0  0  0  0  0  0  0  0  0
  189.4300  179.0030  138.6200 C   0  0  0  0  0  1  0  0  0  0  0  0
  185.5690  177.1510  137.2110 C   0  0  0  0  0  0  0  0  0  0  0  0
  188.7860  177.7420  139.1750 C   0  0  1  0  0  3  0  0  0  0  0  0
  184.3660  177.4220  137.8110 C   0  0  0  0  0  0  0  0  0  0  0  0
  182.8230  178.5710  139.4690 C   0  0  0  0  0  0  0  0  0  0  0  0
  189.1250  177.6330  140.6700 C   0  0  2  0  0  3  0  0  0  0  0  0
  187.2620  177.7320  138.9590 C   0  0  2  0  0  3  0  0  0  0  0  0
  185.8760  178.2300  145.0090 C   0  0  0  0  0  3  0  0  0  0  0  0
  183.4400  176.5450  137.2790 C   0  0  0  0  0  3  0  0  0  0  0  0
  185.4220  176.1670  136.3630 O   0  0  0  0  0  0  0  0  0  0  0  0
  188.0980  178.0800  144.1110 O   0  0  0  0  0  1  0  0  0  0  0  0
  184.3180  179.0480  141.1100 C   0  0  2  0  0  3  0  0  0  0  0  0
  184.5050  178.4270  144.8420 C   0  0  0  0  0  3  0  0  0  0  0  0
  186.2190  178.4520  142.6080 C   0  0  0  0  0  0  0  0  0  0  0  0
  185.0250  178.2540  140.0410 C   0  0  1  0  0  3  0  0  0  0  0  0
  181.7260  178.4890  138.8570 O   0  0  0  0  0  0  0  0  0  0  0  0
  184.1650  178.5130  138.8150 C   0  0  1  0  0  3  0  0  0  0  0  0
  184.1630  175.7770  136.3750 C   0  0  0  0  0  3  0  0  0  0  0  0
  186.7680  179.2000  137.0980 O   0  0  0  0  0  1  0  0  0  0  0  0
  183.9830  178.6560  143.5690 C   0  0  0  0  0  3  0  0  0  0  0  0
  184.8270  178.6550  142.4530 C   0  0  0  0  0  0  0  0  0  0  0  0
  186.8600  177.8600  137.4810 C   0  0  2  0  0  3  0  0  0  0  0  0
  190.1990  176.5800  140.8730 C   0  0  0  0  0  2  0  0  0  0  0  0
  190.1820  175.2510  142.8440 O   0  0  0  0  0  1  0  0  0  0  0  0
  190.5740  176.4900  142.3390 C   0  0  0  0  0  2  0  0  0  0  0  0
  1  5  1  6  0  0  0
  1 19  1  0  0  0  0
  2 16  1  0  0  0  0
  2 13  1  0  0  0  0
  3 17  1  0  0  0  0
  4 20  1  0  0  0  0
  4  1  1  0  0  0  0
  6  8  1  0  0  0  0
  7 27  1  0  0  0  0
  7  9  2  0  0  0  0
  8 11  1  0  0  0  0
  9 22  1  0  0  0  0
 10  3  1  0  0  0  0
 11 28  1  0  0  0  0
 11  5  1  0  0  0  0
 12  8  1  0  0  0  0
 12  4  1  0  0  0  0
 14  9  1  0  0  0  0
 15 23  1  0  0  0  0
 15  7  1  0  0  0  0
 17 26  1  0  0  0  0
 18 13  2  0  0  0  0
 19  2  2  0  0  0  0
 20 17  1  0  0  0  0
 21 10  2  0  0  0  0
 22 10  1  0  0  0  0
 22 20  1  0  0  0  0
 23 14  2  0  0  0  0
 24 27  1  0  0  0  0
 25 18  1  0  0  0  0
 26 19  1  0  0  0  0
 26 25  2  0  0  0  0
 27 12  1  0  0  0  0
 28 30  1  0  0  0  0
 30 29  1  0  0  0  0
M  END
>  <MODEL>
6

>  <REMARK>
 VINA RESULT:      -7.4      1.464      2.051
  Name = 
  2 active torsions:
  status: ('A' for Active; 'I' for Inactive)
    1  A    between atoms: C_11  and  C_28
    2  A    between atoms: C_28  and  C_30
                            x       y       z     vdW  Elec       q    Type
                         _______ _______ _______ _____ _____    ______ ____

>  <TORSDO>
F 2

$$$$
=
 OpenBabel11122410313D

 30 35  0  0  1  0  0  0  0  0999 V2000
  188.2510  178.0400  140.5490 C   0  0  2  0  0  3  0  0  0  0  0  0
  185.9220  178.7170  141.3350 C   0  0  0  0  0  0  0  0  0  0  0  0
  186.6360  177.7110  136.5710 N   0  0  0  0  0  2  0  0  0  0  0  0
  189.1320  177.6110  139.3190 C   0  0  1  0  0  3  0  0  0  0  0  0
  188.3390  177.0870  141.5830 O   0  0  0  0  0  0  0  0  0  0  0  0
  191.8260  177.7870  141.1260 C   0  0  0  0  0  1  0  0  0  0  0  0
  190.5500  175.1380  137.7080 C   0  0  0  0  0  0  0  0  0  0  0  0
  190.7120  176.7510  141.1610 C   0  0  1  0  0  3  0  0  0  0  0  0
  189.5210  175.4740  136.8670 C   0  0  0  0  0  0  0  0  0  0  0  0
  187.6820  176.9700  135.9560 C   0  0  0  0  0  0  0  0  0  0  0  0
  189.6250  177.2300  142.1360 C   0  0  2  0  0  3  0  0  0  0  0  0
  190.1190  176.4960  139.7650 C   0  0  2  0  0  3  0  0  0  0  0  0
  184.5750  179.0020  141.0890 C   0  0  0  0  0  3  0  0  0  0  0  0
  189.2600  174.3670  136.0800 C   0  0  0  0  0  3  0  0  0  0  0  0
  190.9140  173.9030  137.4800 O   0  0  0  0  0  0  0  0  0  0  0  0
  186.3950  178.7820  142.6400 O   0  0  0  0  0  1  0  0  0  0  0  0
  187.2120  178.1710  137.8240 C   0  0  2  0  0  3  0  0  0  0  0  0
  184.0730  178.9740  139.7880 C   0  0  0  0  0  3  0  0  0  0  0  0
  186.7810  178.3730  140.2710 C   0  0  0  0  0  0  0  0  0  0  0  0
  188.2380  177.1260  138.1790 C   0  0  1  0  0  3  0  0  0  0  0  0
  187.6110  176.5510  134.7710 O   0  0  0  0  0  0  0  0  0  0  0  0
  188.8810  176.8260  136.8350 C   0  0  1  0  0  3  0  0  0  0  0  0
  190.1670  173.4080  136.5150 C   0  0  0  0  0  3  0  0  0  0  0  0
  191.7870  177.1240  138.1260 O   0  0  0  0  0  1  0  0  0  0  0  0
  184.9170  178.6650  138.7210 C   0  0  0  0  0  3  0  0  0  0  0  0
  186.2600  178.3520  138.9560 C   0  0  0  0  0  0  0  0  0  0  0  0
  191.1650  176.0330  138.7380 C   0  0  2  0  0  3  0  0  0  0  0  0
  189.7230  176.4480  143.4330 C   0  0  0  0  0  2  0  0  0  0  0  0
  190.1990  178.6310  144.2460 O   0  0  0  0  0  1  0  0  0  0  0  0
  189.6800  177.3930  144.6190 C   0  0  0  0  0  2  0  0  0  0  0  0
  1 19  1  6  0  0  0
  1  5  1  0  0  0  0
  2 16  1  0  0  0  0
  3 17  1  0  0  0  0
  4 12  1  0  0  0  0
  4  1  1  0  0  0  0
  5 11  1  0  0  0  0
  6  8  1  0  0  0  0
  7 27  1  0  0  0  0
  8 11  1  0  0  0  0
  9  7  2  0  0  0  0
 10  3  1  0  0  0  0
 10 22  1  0  0  0  0
 11 28  1  0  0  0  0
 12  8  1  0  0  0  0
 13  2  1  0  0  0  0
 14 23  2  0  0  0  0
 14  9  1  0  0  0  0
 15  7  1  0  0  0  0
 17 20  1  0  0  0  0
 17 26  1  0  0  0  0
 18 13  2  0  0  0  0
 19  2  2  0  0  0  0
 20  4  1  0  0  0  0
 21 10  2  0  0  0  0
 22  9  1  0  0  0  0
 22 20  1  0  0  0  0
 23 15  1  0  0  0  0
 24 27  1  0  0  0  0
 25 26  2  0  0  0  0
 25 18  1  0  0  0  0
 26 19  1  0  0  0  0
 27 12  1  0  0  0  0
 28 30  1  0  0  0  0
 29 30  1  0  0  0  0
M  END
>  <MODEL>
7

>  <REMARK>
 VINA RESULT:      -7.4      2.299      3.561
  Name = 
  2 active torsions:
  status: ('A' for Active; 'I' for Inactive)
    1  A    between atoms: C_11  and  C_28
    2  A    between atoms: C_28  and  C_30
                            x       y       z     vdW  Elec       q    Type
                         _______ _______ _______ _____ _____    ______ ____

>  <TORSDO>
F 2

$$$$
=
 OpenBabel11122410313D

 30 35  0  0  1  0  0  0  0  0999 V2000
  188.1360  178.1430  140.9610 C   0  0  2  0  0  3  0  0  0  0  0  0
  189.5880  177.3560  142.9020 C   0  0  0  0  0  0  0  0  0  0  0  0
  184.8900  178.5370  143.7610 N   0  0  0  0  0  2  0  0  0  0  0  0
  186.7050  178.6280  140.5240 C   0  0  1  0  0  3  0  0  0  0  0  0
  188.5480  177.0410  140.1860 O   0  0  0  0  0  0  0  0  0  0  0  0
  187.8080  179.3660  137.5590 C   0  0  0  0  0  1  0  0  0  0  0  0
  183.8660  177.8220  139.1060 C   0  0  0  0  0  0  0  0  0  0  0  0
  187.5610  177.9980  138.1780 C   0  0  1  0  0  3  0  0  0  0  0  0
  183.5070  177.9230  140.4260 C   0  0  0  0  0  0  0  0  0  0  0  0
  183.8040  178.6250  142.8480 C   0  0  0  0  0  0  0  0  0  0  0  0
  188.8380  177.5510  138.9060 C   0  0  2  0  0  3  0  0  0  0  0  0
  186.3600  178.0110  139.1390 C   0  0  2  0  0  3  0  0  0  0  0  0
  189.7790  177.0600  144.2550 C   0  0  0  0  0  3  0  0  0  0  0  0
  182.3560  177.1770  140.5930 C   0  0  0  0  0  3  0  0  0  0  0  0
  183.0080  177.0600  138.4790 O   0  0  0  0  0  0  0  0  0  0  0  0
  190.6450  177.1650  142.0180 O   0  0  0  0  0  1  0  0  0  0  0  0
  186.0700  178.7350  142.9360 C   0  0  2  0  0  3  0  0  0  0  0  0
  188.7500  177.2660  145.1750 C   0  0  0  0  0  3  0  0  0  0  0  0
  188.3450  177.8420  142.4480 C   0  0  0  0  0  0  0  0  0  0  0  0
  185.6720  178.2250  141.5740 C   0  0  1  0  0  3  0  0  0  0  0  0
  182.6030  178.6680  143.2240 O   0  0  0  0  0  0  0  0  0  0  0  0
  184.2530  178.7460  141.4290 C   0  0  1  0  0  3  0  0  0  0  0  0
  182.0910  176.6540  139.3340 C   0  0  0  0  0  3  0  0  0  0  0  0
  184.9310  179.8630  138.5150 O   0  0  0  0  0  1  0  0  0  0  0  0
  187.5240  177.7740  144.7470 C   0  0  0  0  0  3  0  0  0  0  0  0
  187.3110  178.0490  143.3920 C   0  0  0  0  0  0  0  0  0  0  0  0
  185.0550  178.4720  138.4700 C   0  0  2  0  0  3  0  0  0  0  0  0
  189.5550  176.5000  138.0780 C   0  0  0  0  0  2  0  0  0  0  0  0
  191.2730  174.8790  138.3430 O   0  0  0  0  0  1  0  0  0  0  0  0
  190.9000  176.1730  138.6980 C   0  0  0  0  0  2  0  0  0  0  0  0
  1  5  1  6  0  0  0
  1 19  1  0  0  0  0
  2 13  1  0  0  0  0
  4  1  1  0  0  0  0
  4 20  1  0  0  0  0
  6  8  1  0  0  0  0
  7  9  2  0  0  0  0
  8 11  1  0  0  0  0
  8 12  1  0  0  0  0
  9 14  1  0  0  0  0
  9 22  1  0  0  0  0
 10 21  2  0  0  0  0
 10  3  1  0  0  0  0
 11  5  1  0  0  0  0
 12  4  1  0  0  0  0
 13 18  2  0  0  0  0
 15  7  1  0  0  0  0
 15 23  1  0  0  0  0
 16  2  1  0  0  0  0
 17 26  1  0  0  0  0
 17  3  1  0  0  0  0
 19  2  2  0  0  0  0
 19 26  1  0  0  0  0
 20 17  1  0  0  0  0
 22 20  1  0  0  0  0
 22 10  1  0  0  0  0
 23 14  2  0  0  0  0
 25 18  1  0  0  0  0
 26 25  2  0  0  0  0
 27 24  1  0  0  0  0
 27  7  1  0  0  0  0
 27 12  1  0  0  0  0
 28 30  1  0  0  0  0
 28 11  1  0  0  0  0
 29 30  1  0  0  0  0
M  END
>  <MODEL>
8

>  <REMARK>
 VINA RESULT:      -7.3      2.075      3.961
  Name = 
  2 active torsions:
  status: ('A' for Active; 'I' for Inactive)
    1  A    between atoms: C_11  and  C_28
    2  A    between atoms: C_28  and  C_30
                            x       y       z     vdW  Elec       q    Type
                         _______ _______ _______ _____ _____    ______ ____

>  <TORSDO>
F 2

$$$$
=
 OpenBabel11122410313D

 30 35  0  0  1  0  0  0  0  0999 V2000
  188.1970  178.1060  143.2930 C   0  0  2  0  0  3  0  0  0  0  0  0
  185.8920  178.1770  144.3790 C   0  0  0  0  0  0  0  0  0  0  0  0
  186.2450  178.6390  139.4930 N   0  0  0  0  0  2  0  0  0  0  0  0
  188.9970  178.1710  141.9410 C   0  0  1  0  0  3  0  0  0  0  0  0
  188.5110  176.9310  144.0040 O   0  0  0  0  0  0  0  0  0  0  0  0
  191.8140  178.2530  143.5560 C   0  0  0  0  0  1  0  0  0  0  0  0
  190.5530  176.4810  139.6070 C   0  0  0  0  0  0  0  0  0  0  0  0
  190.8530  177.0900  143.3610 C   0  0  1  0  0  3  0  0  0  0  0  0
  189.4090  176.8740  138.9600 C   0  0  0  0  0  0  0  0  0  0  0  0
  187.3100  178.2640  138.6290 C   0  0  0  0  0  0  0  0  0  0  0  0
  189.8180  177.1110  144.4960 C   0  0  2  0  0  3  0  0  0  0  0  0
  190.1600  177.1400  141.9880 C   0  0  2  0  0  3  0  0  0  0  0  0
  184.5010  178.3100  144.3070 C   0  0  0  0  0  3  0  0  0  0  0  0
  189.2160  176.0000  137.9080 C   0  0  0  0  0  3  0  0  0  0  0  0
  191.0490  175.4270  139.0130 O   0  0  0  0  0  0  0  0  0  0  0  0
  186.4820  177.9530  145.6170 O   0  0  0  0  0  1  0  0  0  0  0  0
  186.8790  178.8200  140.7880 C   0  0  2  0  0  3  0  0  0  0  0  0
  183.8780  178.5640  143.0850 C   0  0  0  0  0  3  0  0  0  0  0  0
  186.6760  178.2740  143.2110 C   0  0  0  0  0  0  0  0  0  0  0  0
  188.0630  177.8870  140.7660 C   0  0  1  0  0  3  0  0  0  0  0  0
  187.1730  178.1800  137.3800 O   0  0  0  0  0  0  0  0  0  0  0  0
  188.6000  178.0690  139.3560 C   0  0  1  0  0  3  0  0  0  0  0  0
  190.2780  175.1080  137.9930 C   0  0  0  0  0  3  0  0  0  0  0  0
  191.5580  178.4410  140.5000 O   0  0  0  0  0  1  0  0  0  0  0  0
  184.6420  178.6920  141.9260 C   0  0  0  0  0  3  0  0  0  0  0  0
  186.0320  178.5360  141.9790 C   0  0  0  0  0  0  0  0  0  0  0  0
  191.1480  177.1420  140.8110 C   0  0  2  0  0  3  0  0  0  0  0  0
  190.1470  176.0280  145.5060 C   0  0  0  0  0  2  0  0  0  0  0  0
  189.8140  177.9550  146.8580 O   0  0  0  0  0  1  0  0  0  0  0  0
  190.1110  176.5950  146.9120 C   0  0  0  0  0  2  0  0  0  0  0  0
  1 19  1  6  0  0  0
  1  5  1  0  0  0  0
  2 16  1  0  0  0  0
  3 17  1  0  0  0  0
  4 12  1  0  0  0  0
  4  1  1  0  0  0  0
  5 11  1  0  0  0  0
  7 27  1  0  0  0  0
  8  6  1  0  0  0  0
  8 11  1  0  0  0  0
  9 22  1  0  0  0  0
  9  7  2  0  0  0  0
 10 22  1  0  0  0  0
 10  3  1  0  0  0  0
 11 28  1  0  0  0  0
 12  8  1  0  0  0  0
 13  2  1  0  0  0  0
 14 23  2  0  0  0  0
 14  9  1  0  0  0  0
 15  7  1  0  0  0  0
 17 26  1  0  0  0  0
 18 13  2  0  0  0  0
 19  2  2  0  0  0  0
 20 17  1  0  0  0  0
 20  4  1  0  0  0  0
 21 10  2  0  0  0  0
 22 20  1  0  0  0  0
 23 15  1  0  0  0  0
 24 27  1  0  0  0  0
 25 26  2  0  0  0  0
 25 18  1  0  0  0  0
 26 19  1  0  0  0  0
 27 12  1  0  0  0  0
 28 30  1  0  0  0  0
 29 30  1  0  0  0  0
M  END
>  <MODEL>
9

>  <REMARK>
 VINA RESULT:      -7.3      1.777      2.482
  Name = 
  2 active torsions:
  status: ('A' for Active; 'I' for Inactive)
    1  A    between atoms: C_11  and  C_28
    2  A    between atoms: C_28  and  C_30
                            x       y       z     vdW  Elec       q    Type
                         _______ _______ _______ _____ _____    ______ ____

>  <TORSDO>
F 2

$$$$
