=
 OpenBabel11122411243D

 37 43  0  0  1  0  0  0  0  0999 V2000
  183.8780  175.1510  136.9850 O   0  0  0  0  0  0  0  0  0  0  0  0
  188.4640  177.3040  137.1750 C   0  0  0  0  0  0  0  0  0  0  0  0
  184.7250  177.9780  139.1220 C   0  0  1  0  0  3  0  0  0  0  0  0
  184.1780  173.9400  136.3360 C   0  0  2  0  0  3  0  0  0  0  0  0
  181.4980  177.4540  137.1960 O   0  0  0  0  0  0  0  0  0  0  0  0
  187.2780  178.2900  139.2220 C   0  0  1  0  0  3  0  0  0  0  0  0
  183.7220  178.0220  137.9620 C   0  0  2  0  0  3  0  0  0  0  0  0
  181.7660  174.1880  135.5260 C   0  0  0  0  0  0  0  0  0  0  0  0
  185.9930  178.2900  138.3920 C   0  0  1  0  0  3  0  0  0  0  0  0
  182.3840  177.3230  138.2720 C   0  0  1  0  0  3  0  0  0  0  0  0
  186.9720  178.2000  140.7180 C   0  0  0  0  0  2  0  0  0  0  0  0
  183.1040  173.5300  135.3050 C   0  0  0  0  0  2  0  0  0  0  0  0
  185.9470  177.2860  137.2970 C   0  0  2  0  0  3  0  0  0  0  0  0
  189.1120  176.0090  136.7280 C   0  0  0  0  0  1  0  0  0  0  0  0
  183.4360  178.5870  141.2780 C   0  0  0  0  0  2  0  0  0  0  0  0
  185.8450  179.1890  141.0780 C   0  0  0  0  0  2  0  0  0  0  0  0
  187.1430  177.4880  136.3820 C   0  0  0  0  0  2  0  0  0  0  0  0
  181.6120  175.6920  135.5410 C   0  0  1  0  0  3  0  0  0  0  0  0
  181.0980  176.1450  136.9100 C   0  0  0  0  0  2  0  0  0  0  0  0
  184.5340  178.9710  140.2790 C   0  0  1  0  0  3  0  0  0  0  0  0
  184.5480  177.4850  136.7350 C   0  0  1  0  0  3  0  0  0  0  0  0
  188.2870  177.2490  138.7180 C   0  0  0  0  0  2  0  0  0  0  0  0
  181.6940  177.8190  139.5530 C   0  0  1  0  0  3  0  0  0  0  0  0
  189.3970  178.4470  136.8230 C   0  0  0  0  0  1  0  0  0  0  0  0
  182.9000  176.4230  135.1200 C   0  0  0  0  0  2  0  0  0  0  0  0
  180.7800  173.4830  135.6650 O   0  0  0  0  0  0  0  0  0  0  0  0
  184.0980  176.1850  136.0550 C   0  0  2  0  0  3  0  0  0  0  0  0
  182.4580  177.4970  140.8360 C   0  0  0  0  0  2  0  0  0  0  0  0
  179.9900  179.4750  140.3360 C   0  0  0  0  0  3  0  0  0  0  0  0
  181.0700  179.1880  139.4940 C   0  0  0  0  0  0  0  0  0  0  0  0
  181.5580  180.1820  138.6340 C   0  0  0  0  0  3  0  0  0  0  0  0
  181.4410  182.4020  137.7770 F   0  0  0  0  0  0  0  0  0  0  0  0
  179.8850  181.7270  139.4510 C   0  0  0  0  0  3  0  0  0  0  0  0
  180.9660  181.4480  138.6110 C   0  0  0  0  0  0  0  0  0  0  0  0
  179.3980  180.7420  140.3150 C   0  0  0  0  0  3  0  0  0  0  0  0
  183.8320  171.5250  136.8480 C   0  0  0  0  0  1  0  0  0  0  0  0
  184.3450  172.8490  137.3790 C   0  0  0  0  0  2  0  0  0  0  0  0
  2 22  1  0  0  0  0
  3 20  1  0  0  0  0
  4  1  1  0  0  0  0
  4 37  1  0  0  0  0
  5 10  1  0  0  0  0
  6 11  1  0  0  0  0
  7 10  1  0  0  0  0
  7  3  1  0  0  0  0
  8 18  1  0  0  0  0
  8 26  2  0  0  0  0
  9  3  1  0  0  0  0
  9  6  1  0  0  0  0
 10 23  1  0  0  0  0
 11 16  1  0  0  0  0
 12  8  1  0  0  0  0
 12  4  1  0  0  0  0
 13  9  1  0  0  0  0
 14  2  1  0  0  0  0
 17  2  1  0  0  0  0
 17 13  1  0  0  0  0
 18 19  1  0  0  0  0
 19  5  1  0  0  0  0
 20 16  1  0  0  0  0
 20 15  1  0  0  0  0
 21 13  1  0  0  0  0
 21  7  1  0  0  0  0
 22  6  1  0  0  0  0
 23 28  1  0  0  0  0
 24  2  1  0  0  0  0
 25 18  1  0  0  0  0
 25 27  1  0  0  0  0
 27 21  1  0  0  0  0
 27  1  1  0  0  0  0
 28 15  1  0  0  0  0
 30 23  1  0  0  0  0
 30 29  2  0  0  0  0
 31 30  1  0  0  0  0
 32 34  1  0  0  0  0
 33 35  2  0  0  0  0
 34 31  2  0  0  0  0
 34 33  1  0  0  0  0
 35 29  1  0  0  0  0
 36 37  1  0  0  0  0
M  END
>  <MODEL>
1

>  <REMARK>
 VINA RESULT:      -6.6      0.000      0.000
  Name = 
  2 active torsions:
  status: ('A' for Active; 'I' for Inactive)
    1  A    between atoms: C_4  and  C_37
    2  A    between atoms: C_23  and  C_30
                            x       y       z     vdW  Elec       q    Type
                         _______ _______ _______ _____ _____    ______ ____

>  <TORSDO>
F 2

$$$$
=
 OpenBabel11122411243D

 37 43  0  0  1  0  0  0  0  0999 V2000
  180.6710  179.9680  138.3010 O   0  0  0  0  0  0  0  0  0  0  0  0
  180.0050  178.9960  143.2320 C   0  0  0  0  0  0  0  0  0  0  0  0
  183.1540  178.3500  140.4220 C   0  0  1  0  0  3  0  0  0  0  0  0
  179.6360  180.8910  138.0680 C   0  0  2  0  0  3  0  0  0  0  0  0
  182.2990  177.4770  136.8300 O   0  0  0  0  0  0  0  0  0  0  0  0
  182.5170  178.6130  142.9020 C   0  0  1  0  0  3  0  0  0  0  0  0
  182.4420  177.6850  139.2370 C   0  0  2  0  0  3  0  0  0  0  0  0
  179.7510  179.8870  135.7190 C   0  0  0  0  0  0  0  0  0  0  0  0
  182.1810  178.0520  141.5190 C   0  0  1  0  0  3  0  0  0  0  0  0
  182.9460  178.1670  137.8620 C   0  0  1  0  0  3  0  0  0  0  0  0
  183.9370  179.1820  142.9400 C   0  0  0  0  0  2  0  0  0  0  0  0
  178.9310  180.6720  136.7120 C   0  0  0  0  0  2  0  0  0  0  0  0
  180.9160  178.5550  140.9230 C   0  0  2  0  0  3  0  0  0  0  0  0
  179.0150  180.1390  143.3430 C   0  0  0  0  0  1  0  0  0  0  0  0
  185.6870  178.3300  139.9110 C   0  0  0  0  0  2  0  0  0  0  0  0
  184.9120  178.1900  142.2740 C   0  0  0  0  0  2  0  0  0  0  0  0
  179.7680  178.2750  141.8780 C   0  0  0  0  0  2  0  0  0  0  0  0
  180.2550  178.4950  136.0270 C   0  0  1  0  0  3  0  0  0  0  0  0
  181.7850  178.4820  136.0040 C   0  0  0  0  0  2  0  0  0  0  0  0
  184.5480  177.8340  140.8090 C   0  0  1  0  0  3  0  0  0  0  0  0
  180.9160  177.8890  139.5560 C   0  0  1  0  0  3  0  0  0  0  0  0
  181.4350  179.5770  143.4100 C   0  0  0  0  0  2  0  0  0  0  0  0
  184.4660  178.0480  137.6680 C   0  0  1  0  0  3  0  0  0  0  0  0
  179.7240  178.0150  144.3530 C   0  0  0  0  0  1  0  0  0  0  0  0
  179.6770  177.9330  137.3390 C   0  0  0  0  0  2  0  0  0  0  0  0
  179.9870  180.3820  134.6290 O   0  0  0  0  0  0  0  0  0  0  0  0
  180.0660  178.7310  138.5960 C   0  0  2  0  0  3  0  0  0  0  0  0
  185.2830  178.9630  138.5790 C   0  0  0  0  0  2  0  0  0  0  0  0
  186.3540  176.5030  137.1120 C   0  0  0  0  0  3  0  0  0  0  0  0
  185.0140  176.6580  137.4840 C   0  0  0  0  0  0  0  0  0  0  0  0
  184.2200  175.5210  137.6940 C   0  0  0  0  0  3  0  0  0  0  0  0
  183.9880  173.1490  137.7310 F   0  0  0  0  0  0  0  0  0  0  0  0
  186.0990  174.0950  137.1520 C   0  0  0  0  0  3  0  0  0  0  0  0
  184.7610  174.2430  137.5270 C   0  0  0  0  0  0  0  0  0  0  0  0
  186.8950  175.2240  136.9460 C   0  0  0  0  0  3  0  0  0  0  0  0
  181.7100  182.2520  138.3120 C   0  0  0  0  0  1  0  0  0  0  0  0
  180.2030  182.2970  138.1410 C   0  0  0  0  0  2  0  0  0  0  0  0
  1 27  1  0  0  0  0
  2 14  1  0  0  0  0
  2 22  1  0  0  0  0
  2 24  1  0  0  0  0
  3 20  1  0  0  0  0
  3  9  1  0  0  0  0
  4 37  1  0  0  0  0
  4  1  1  0  0  0  0
  5 10  1  0  0  0  0
  6 11  1  0  0  0  0
  6 22  1  0  0  0  0
  7 21  1  0  0  0  0
  7  3  1  0  0  0  0
  8 18  1  0  0  0  0
  8 12  1  0  0  0  0
  9  6  1  0  0  0  0
 10  7  1  0  0  0  0
 12  4  1  0  0  0  0
 13  9  1  0  0  0  0
 13 17  1  0  0  0  0
 15 20  1  0  0  0  0
 16 11  1  0  0  0  0
 17  2  1  0  0  0  0
 18 25  1  0  0  0  0
 19 18  1  0  0  0  0
 19  5  1  0  0  0  0
 20 16  1  0  0  0  0
 21 13  1  0  0  0  0
 23 10  1  0  0  0  0
 23 28  1  0  0  0  0
 25 27  1  0  0  0  0
 26  8  2  0  0  0  0
 27 21  1  0  0  0  0
 28 15  1  0  0  0  0
 29 30  1  0  0  0  0
 30 23  1  0  0  0  0
 30 31  2  0  0  0  0
 33 34  2  0  0  0  0
 34 31  1  0  0  0  0
 34 32  1  0  0  0  0
 35 29  2  0  0  0  0
 35 33  1  0  0  0  0
 37 36  1  0  0  0  0
M  END
>  <MODEL>
2

>  <REMARK>
 VINA RESULT:      -6.0      2.610      6.975
  Name = 
  2 active torsions:
  status: ('A' for Active; 'I' for Inactive)
    1  A    between atoms: C_4  and  C_37
    2  A    between atoms: C_23  and  C_30
                            x       y       z     vdW  Elec       q    Type
                         _______ _______ _______ _____ _____    ______ ____

>  <TORSDO>
F 2

$$$$
=
 OpenBabel11122411243D

 37 43  0  0  1  0  0  0  0  0999 V2000
  185.1340  175.9190  137.7040 O   0  0  0  0  0  0  0  0  0  0  0  0
  188.5640  177.9480  140.8380 C   0  0  0  0  0  0  0  0  0  0  0  0
  184.3310  178.2580  140.3810 C   0  0  1  0  0  3  0  0  0  0  0  0
  185.8730  174.8580  137.1500 C   0  0  2  0  0  3  0  0  0  0  0  0
  182.8180  178.1570  136.9030 O   0  0  0  0  0  0  0  0  0  0  0  0
  186.3380  178.5190  141.9710 C   0  0  1  0  0  3  0  0  0  0  0  0
  184.1540  178.5410  138.8830 C   0  0  2  0  0  3  0  0  0  0  0  0
  184.3210  175.2850  135.1630 C   0  0  0  0  0  0  0  0  0  0  0  0
  185.7490  178.6970  140.5700 C   0  0  1  0  0  3  0  0  0  0  0  0
  182.9550  177.8070  138.2510 C   0  0  1  0  0  3  0  0  0  0  0  0
  185.2570  178.1370  142.9830 C   0  0  0  0  0  2  0  0  0  0  0  0
  185.6130  174.6710  135.6390 C   0  0  0  0  0  2  0  0  0  0  0  0
  186.4310  177.9300  139.4950 C   0  0  2  0  0  3  0  0  0  0  0  0
  189.4840  176.7620  140.6310 C   0  0  0  0  0  1  0  0  0  0  0  0
  181.9980  178.4390  141.4800 C   0  0  0  0  0  2  0  0  0  0  0  0
  184.0250  179.0460  142.7950 C   0  0  0  0  0  2  0  0  0  0  0  0
  187.9050  178.2980  139.4770 C   0  0  0  0  0  2  0  0  0  0  0  0
  184.0270  176.7580  135.3410 C   0  0  1  0  0  3  0  0  0  0  0  0
  182.7890  176.9350  136.2230 C   0  0  0  0  0  2  0  0  0  0  0  0
  183.4200  179.0030  141.3680 C   0  0  1  0  0  3  0  0  0  0  0  0
  185.5770  178.2500  138.2780 C   0  0  1  0  0  3  0  0  0  0  0  0
  187.5590  177.5890  141.9670 C   0  0  0  0  0  2  0  0  0  0  0  0
  181.6180  178.0450  138.9690 C   0  0  1  0  0  3  0  0  0  0  0  0
  189.4060  179.1290  141.2790 C   0  0  0  0  0  1  0  0  0  0  0  0
  185.2430  177.5460  135.8610 C   0  0  0  0  0  2  0  0  0  0  0  0
  183.5070  174.5760  134.5940 O   0  0  0  0  0  0  0  0  0  0  0  0
  185.7270  177.1150  137.2570 C   0  0  2  0  0  3  0  0  0  0  0  0
  181.5590  177.4680  140.3830 C   0  0  0  0  0  2  0  0  0  0  0  0
  179.5990  179.5100  138.7680 C   0  0  0  0  0  3  0  0  0  0  0  0
  180.9940  179.4040  138.7960 C   0  0  0  0  0  0  0  0  0  0  0  0
  181.7760  180.5630  138.6830 C   0  0  0  0  0  3  0  0  0  0  0  0
  181.9280  182.9270  138.4270 F   0  0  0  0  0  0  0  0  0  0  0  0
  179.7740  181.9110  138.5050 C   0  0  0  0  0  3  0  0  0  0  0  0
  181.1670  181.8130  138.5370 C   0  0  0  0  0  0  0  0  0  0  0  0
  178.9890  180.7600  138.6220 C   0  0  0  0  0  3  0  0  0  0  0  0
  185.5770  172.3900  136.9620 C   0  0  0  0  0  1  0  0  0  0  0  0
  185.5390  173.5810  137.9000 C   0  0  0  0  0  2  0  0  0  0  0  0
  2 24  1  0  0  0  0
  2 22  1  0  0  0  0
  3  9  1  0  0  0  0
  3 20  1  0  0  0  0
  4  1  1  0  0  0  0
  4 37  1  0  0  0  0
  5 10  1  0  0  0  0
  6 11  1  0  0  0  0
  7  3  1  0  0  0  0
  8 18  1  0  0  0  0
  8 12  1  0  0  0  0
  9  6  1  0  0  0  0
 10  7  1  0  0  0  0
 10 23  1  0  0  0  0
 12  4  1  0  0  0  0
 13  9  1  0  0  0  0
 14  2  1  0  0  0  0
 16 11  1  0  0  0  0
 17 13  1  0  0  0  0
 17  2  1  0  0  0  0
 18 25  1  0  0  0  0
 18 19  1  0  0  0  0
 19  5  1  0  0  0  0
 20 15  1  0  0  0  0
 20 16  1  0  0  0  0
 21  7  1  0  0  0  0
 21 13  1  0  0  0  0
 22  6  1  0  0  0  0
 23 28  1  0  0  0  0
 25 27  1  0  0  0  0
 26  8  2  0  0  0  0
 27  1  1  0  0  0  0
 27 21  1  0  0  0  0
 28 15  1  0  0  0  0
 29 30  1  0  0  0  0
 30 23  1  0  0  0  0
 31 30  2  0  0  0  0
 32 34  1  0  0  0  0
 33 34  2  0  0  0  0
 33 35  1  0  0  0  0
 34 31  1  0  0  0  0
 35 29  2  0  0  0  0
 36 37  1  0  0  0  0
M  END
>  <MODEL>
3

>  <REMARK>
 VINA RESULT:      -5.4      1.603      2.275
  Name = 
  2 active torsions:
  status: ('A' for Active; 'I' for Inactive)
    1  A    between atoms: C_4  and  C_37
    2  A    between atoms: C_23  and  C_30
                            x       y       z     vdW  Elec       q    Type
                         _______ _______ _______ _____ _____    ______ ____

>  <TORSDO>
F 2

$$$$
=
 OpenBabel11122411243D

 37 43  0  0  1  0  0  0  0  0999 V2000
  183.7190  177.2030  136.6630 O   0  0  0  0  0  0  0  0  0  0  0  0
  179.9900  173.8410  137.3650 C   0  0  0  0  0  0  0  0  0  0  0  0
  181.6850  177.0020  139.6810 C   0  0  1  0  0  3  0  0  0  0  0  0
  183.9060  177.1090  135.2730 C   0  0  2  0  0  3  0  0  0  0  0  0
  185.4140  177.6700  139.4780 O   0  0  0  0  0  0  0  0  0  0  0  0
  179.6250  175.5140  139.2720 C   0  0  1  0  0  3  0  0  0  0  0  0
  183.1920  176.7230  139.6160 C   0  0  2  0  0  3  0  0  0  0  0  0
  186.2920  177.7720  135.9070 C   0  0  0  0  0  0  0  0  0  0  0  0
  181.1470  175.6440  139.3580 C   0  0  1  0  0  3  0  0  0  0  0  0
  184.0530  177.9930  139.4690 C   0  0  1  0  0  3  0  0  0  0  0  0
  178.9310  176.7800  139.7780 C   0  0  0  0  0  2  0  0  0  0  0  0
  185.3940  177.1590  134.8630 C   0  0  0  0  0  2  0  0  0  0  0  0
  181.8800  175.3370  138.1020 C   0  0  2  0  0  3  0  0  0  0  0  0
  179.7800  173.7310  135.8690 C   0  0  0  0  0  1  0  0  0  0  0  0
  181.3370  178.9750  141.3140 C   0  0  0  0  0  2  0  0  0  0  0  0
  179.5730  177.2290  141.1070 C   0  0  0  0  0  2  0  0  0  0  0  0
  181.5140  173.9370  137.6390 C   0  0  0  0  0  2  0  0  0  0  0  0
  186.3830  177.2100  137.3080 C   0  0  1  0  0  3  0  0  0  0  0  0
  185.9240  178.2630  138.3190 C   0  0  0  0  0  2  0  0  0  0  0  0
  181.0980  177.4910  141.0140 C   0  0  1  0  0  3  0  0  0  0  0  0
  183.3210  175.6330  138.4890 C   0  0  1  0  0  3  0  0  0  0  0  0
  179.1660  175.0530  137.8820 C   0  0  0  0  0  2  0  0  0  0  0  0
  183.7850  179.0640  140.5390 C   0  0  1  0  0  3  0  0  0  0  0  0
  179.4660  172.5730  138.0110 C   0  0  0  0  0  1  0  0  0  0  0  0
  185.6300  175.8750  137.4600 C   0  0  0  0  0  2  0  0  0  0  0  0
  186.9850  178.7280  135.5990 O   0  0  0  0  0  0  0  0  0  0  0  0
  184.1130  175.9720  137.2200 C   0  0  2  0  0  3  0  0  0  0  0  0
  182.3910  179.6850  140.4630 C   0  0  0  0  0  2  0  0  0  0  0  0
  185.5790  178.2480  142.0800 C   0  0  0  0  0  3  0  0  0  0  0  0
  184.2900  178.7710  141.9260 C   0  0  0  0  0  0  0  0  0  0  0  0
  183.5090  179.0270  143.0630 C   0  0  0  0  0  3  0  0  0  0  0  0
  183.2510  179.0050  145.4310 F   0  0  0  0  0  0  0  0  0  0  0  0
  185.2970  178.2300  144.4860 C   0  0  0  0  0  3  0  0  0  0  0  0
  184.0110  178.7560  144.3390 C   0  0  0  0  0  0  0  0  0  0  0  0
  186.0820  177.9770  143.3570 C   0  0  0  0  0  3  0  0  0  0  0  0
  181.6900  178.2260  135.0430 C   0  0  0  0  0  1  0  0  0  0  0  0
  183.1380  178.2300  134.5940 C   0  0  0  0  0  2  0  0  0  0  0  0
  1 27  1  0  0  0  0
  2 17  1  0  0  0  0
  2 22  1  0  0  0  0
  2 24  1  0  0  0  0
  3 20  1  0  0  0  0
  4  1  1  0  0  0  0
  6  9  1  0  0  0  0
  6 11  1  0  0  0  0
  7  3  1  0  0  0  0
  8 18  1  0  0  0  0
  9  3  1  0  0  0  0
 10  5  1  0  0  0  0
 10  7  1  0  0  0  0
 10 23  1  0  0  0  0
 11 16  1  0  0  0  0
 12  4  1  0  0  0  0
 12  8  1  0  0  0  0
 13 21  1  0  0  0  0
 13  9  1  0  0  0  0
 14  2  1  0  0  0  0
 17 13  1  0  0  0  0
 18 25  1  0  0  0  0
 18 19  1  0  0  0  0
 19  5  1  0  0  0  0
 20 16  1  0  0  0  0
 20 15  1  0  0  0  0
 21  7  1  0  0  0  0
 22  6  1  0  0  0  0
 23 30  1  0  0  0  0
 26  8  2  0  0  0  0
 27 25  1  0  0  0  0
 27 21  1  0  0  0  0
 28 23  1  0  0  0  0
 28 15  1  0  0  0  0
 29 35  1  0  0  0  0
 30 29  2  0  0  0  0
 30 31  1  0  0  0  0
 31 34  2  0  0  0  0
 34 33  1  0  0  0  0
 34 32  1  0  0  0  0
 35 33  2  0  0  0  0
 37 36  1  0  0  0  0
 37  4  1  0  0  0  0
M  END
>  <MODEL>
4

>  <REMARK>
 VINA RESULT:      -5.4      2.617      6.107
  Name = 
  2 active torsions:
  status: ('A' for Active; 'I' for Inactive)
    1  A    between atoms: C_4  and  C_37
    2  A    between atoms: C_23  and  C_30
                            x       y       z     vdW  Elec       q    Type
                         _______ _______ _______ _____ _____    ______ ____

>  <TORSDO>
F 2

$$$$
=
 OpenBabel11122411243D

 37 43  0  0  1  0  0  0  0  0999 V2000
  182.7450  179.5380  138.5500 O   0  0  0  0  0  0  0  0  0  0  0  0
  184.3560  179.0080  143.3270 C   0  0  0  0  0  0  0  0  0  0  0  0
  186.0030  178.1930  139.4730 C   0  0  1  0  0  3  0  0  0  0  0  0
  181.6530  180.4070  138.7300 C   0  0  2  0  0  3  0  0  0  0  0  0
  183.7290  176.9680  136.6940 O   0  0  0  0  0  0  0  0  0  0  0  0
  186.4940  178.6660  141.9560 C   0  0  1  0  0  3  0  0  0  0  0  0
  184.8920  177.4020  138.7710 C   0  0  2  0  0  3  0  0  0  0  0  0
  180.8000  179.1940  136.6480 C   0  0  0  0  0  0  0  0  0  0  0  0
  185.6270  177.9710  140.9040 C   0  0  1  0  0  3  0  0  0  0  0  0
  184.7140  177.7680  137.2850 C   0  0  1  0  0  3  0  0  0  0  0  0
  187.7480  179.2750  141.3260 C   0  0  0  0  0  2  0  0  0  0  0  0
  180.4440  180.0440  137.8410 C   0  0  0  0  0  2  0  0  0  0  0  0
  184.1980  178.3810  140.8910 C   0  0  2  0  0  3  0  0  0  0  0  0
  183.4420  180.1280  143.7810 C   0  0  0  0  0  1  0  0  0  0  0  0
  188.0570  178.1960  137.9040 C   0  0  0  0  0  2  0  0  0  0  0  0
  188.3980  178.2530  140.3710 C   0  0  0  0  0  2  0  0  0  0  0  0
  183.6010  178.1580  142.2700 C   0  0  0  0  0  2  0  0  0  0  0  0
  181.4780  177.8510  136.8010 C   0  0  1  0  0  3  0  0  0  0  0  0
  182.8420  177.8780  136.1090 C   0  0  0  0  0  2  0  0  0  0  0  0
  187.4580  177.7530  139.2440 C   0  0  1  0  0  3  0  0  0  0  0  0
  183.6470  177.5920  139.7140 C   0  0  1  0  0  3  0  0  0  0  0  0
  185.6810  179.6420  142.8170 C   0  0  0  0  0  2  0  0  0  0  0  0
  186.0020  177.6740  136.4520 C   0  0  1  0  0  3  0  0  0  0  0  0
  184.6560  178.1270  144.5240 C   0  0  0  0  0  1  0  0  0  0  0  0
  181.5670  177.3970  138.2700 C   0  0  0  0  0  2  0  0  0  0  0  0
  180.5040  179.5920  135.5330 O   0  0  0  0  0  0  0  0  0  0  0  0
  182.4110  178.3180  139.1670 C   0  0  2  0  0  3  0  0  0  0  0  0
  187.0730  178.6920  136.8440 C   0  0  0  0  0  2  0  0  0  0  0  0
  187.2230  176.0770  134.9630 C   0  0  0  0  0  3  0  0  0  0  0  0
  186.5050  176.2890  136.1450 C   0  0  0  0  0  0  0  0  0  0  0  0
  186.2870  175.2160  137.0220 C   0  0  0  0  0  3  0  0  0  0  0  0
  186.5620  172.9120  137.5660 F   0  0  0  0  0  0  0  0  0  0  0  0
  187.4900  173.7370  135.5310 C   0  0  0  0  0  3  0  0  0  0  0  0
  186.7770  173.9440  136.7150 C   0  0  0  0  0  0  0  0  0  0  0  0
  187.7140  174.8030  134.6560 C   0  0  0  0  0  3  0  0  0  0  0  0
  180.9570  182.6430  137.8790 C   0  0  0  0  0  1  0  0  0  0  0  0
  182.1030  181.8290  138.4470 C   0  0  0  0  0  2  0  0  0  0  0  0
  1  4  1  0  0  0  0
  1 27  1  0  0  0  0
  2 14  1  0  0  0  0
  2 24  1  0  0  0  0
  3  9  1  0  0  0  0
  5 10  1  0  0  0  0
  6 22  1  0  0  0  0
  7  3  1  0  0  0  0
  7 21  1  0  0  0  0
  8 18  1  0  0  0  0
  8 12  1  0  0  0  0
  9  6  1  0  0  0  0
 10  7  1  0  0  0  0
 11  6  1  0  0  0  0
 12  4  1  0  0  0  0
 13  9  1  0  0  0  0
 13 17  1  0  0  0  0
 15 20  1  0  0  0  0
 16 11  1  0  0  0  0
 17  2  1  0  0  0  0
 18 25  1  0  0  0  0
 19  5  1  0  0  0  0
 19 18  1  0  0  0  0
 20  3  1  0  0  0  0
 20 16  1  0  0  0  0
 21 13  1  0  0  0  0
 22  2  1  0  0  0  0
 23 28  1  0  0  0  0
 23 10  1  0  0  0  0
 25 27  1  0  0  0  0
 26  8  2  0  0  0  0
 27 21  1  0  0  0  0
 28 15  1  0  0  0  0
 29 30  1  0  0  0  0
 30 23  1  0  0  0  0
 30 31  2  0  0  0  0
 33 34  2  0  0  0  0
 34 31  1  0  0  0  0
 34 32  1  0  0  0  0
 35 29  2  0  0  0  0
 35 33  1  0  0  0  0
 36 37  1  0  0  0  0
 37  4  1  0  0  0  0
M  END
>  <MODEL>
5

>  <REMARK>
 VINA RESULT:      -4.8      2.718      6.635
  Name = 
  2 active torsions:
  status: ('A' for Active; 'I' for Inactive)
    1  A    between atoms: C_4  and  C_37
    2  A    between atoms: C_23  and  C_30
                            x       y       z     vdW  Elec       q    Type
                         _______ _______ _______ _____ _____    ______ ____

>  <TORSDO>
F 2

$$$$
=
 OpenBabel11122411243D

 37 43  0  0  1  0  0  0  0  0999 V2000
  180.9910  178.9780  140.3160 O   0  0  0  0  0  0  0  0  0  0  0  0
  179.9220  181.6780  136.1600 C   0  0  0  0  0  0  0  0  0  0  0  0
  181.3640  177.7300  136.9130 C   0  0  1  0  0  3  0  0  0  0  0  0
  180.3440  179.7420  141.3050 C   0  0  2  0  0  3  0  0  0  0  0  0
  183.7030  177.1250  139.8380 O   0  0  0  0  0  0  0  0  0  0  0  0
  180.1720  179.2940  135.2520 C   0  0  1  0  0  3  0  0  0  0  0  0
  182.5180  177.9540  137.8990 C   0  0  2  0  0  3  0  0  0  0  0  0
  182.2040  178.7720  142.7670 C   0  0  0  0  0  0  0  0  0  0  0  0
  181.2770  179.0880  136.2900 C   0  0  1  0  0  3  0  0  0  0  0  0
  182.5950  176.8940  139.0150 C   0  0  1  0  0  3  0  0  0  0  0  0
  179.5080  177.9680  134.8770 C   0  0  0  0  0  2  0  0  0  0  0  0
  181.1630  179.8510  142.6100 C   0  0  0  0  0  2  0  0  0  0  0  0
  181.1810  179.9500  137.4960 C   0  0  2  0  0  3  0  0  0  0  0  0
  178.9310  182.5200  136.9380 C   0  0  0  0  0  1  0  0  0  0  0  0
  181.3560  175.2210  136.2930 C   0  0  0  0  0  2  0  0  0  0  0  0
  180.5900  176.9000  134.6200 C   0  0  0  0  0  2  0  0  0  0  0  0
  181.1520  181.4080  137.0680 C   0  0  0  0  0  2  0  0  0  0  0  0
  183.2960  178.5650  141.7410 C   0  0  1  0  0  3  0  0  0  0  0  0
  183.1750  177.1650  141.1330 C   0  0  0  0  0  2  0  0  0  0  0  0
  181.5450  176.6660  135.8190 C   0  0  1  0  0  3  0  0  0  0  0  0
  182.3440  179.4540  138.3410 C   0  0  1  0  0  3  0  0  0  0  0  0
  179.1900  180.3970  135.6710 C   0  0  0  0  0  2  0  0  0  0  0  0
  182.6410  175.4450  138.5070 C   0  0  1  0  0  3  0  0  0  0  0  0
  180.3820  182.4770  134.9570 C   0  0  0  0  0  1  0  0  0  0  0  0
  183.3240  179.6740  140.6740 C   0  0  0  0  0  2  0  0  0  0  0  0
  182.1790  178.0700  143.7650 O   0  0  0  0  0  0  0  0  0  0  0  0
  182.0500  179.7600  139.8150 C   0  0  2  0  0  3  0  0  0  0  0  0
  181.3620  174.9890  137.8050 C   0  0  0  0  0  2  0  0  0  0  0  0
  184.2210  173.6290  137.8230 C   0  0  0  0  0  3  0  0  0  0  0  0
  183.9280  174.9960  137.8670 C   0  0  0  0  0  0  0  0  0  0  0  0
  184.8250  175.9130  137.3000 C   0  0  0  0  0  3  0  0  0  0  0  0
  186.8680  176.3560  136.1560 F   0  0  0  0  0  0  0  0  0  0  0  0
  186.2950  174.0990  136.6630 C   0  0  0  0  0  3  0  0  0  0  0  0
  186.0060  175.4660  136.7010 C   0  0  0  0  0  0  0  0  0  0  0  0
  185.4020  173.1810  137.2230 C   0  0  0  0  0  3  0  0  0  0  0  0
  178.9310  177.7010  141.0820 C   0  0  0  0  0  1  0  0  0  0  0  0
  178.9850  179.1290  141.5890 C   0  0  0  0  0  2  0  0  0  0  0  0
  1  4  1  0  0  0  0
  2 14  1  0  0  0  0
  2 17  1  0  0  0  0
  3  7  1  0  0  0  0
  4 37  1  0  0  0  0
  4 12  1  0  0  0  0
  5 19  1  0  0  0  0
  6 22  1  0  0  0  0
  6  9  1  0  0  0  0
  7 21  1  0  0  0  0
  7 10  1  0  0  0  0
  8 26  2  0  0  0  0
  9  3  1  0  0  0  0
  9 13  1  0  0  0  0
 10  5  1  0  0  0  0
 11  6  1  0  0  0  0
 12  8  1  0  0  0  0
 13 21  1  0  0  0  0
 15 28  1  0  0  0  0
 16 11  1  0  0  0  0
 16 20  1  0  0  0  0
 17 13  1  0  0  0  0
 18  8  1  0  0  0  0
 19 18  1  0  0  0  0
 20 15  1  0  0  0  0
 20  3  1  0  0  0  0
 21 27  1  0  0  0  0
 22  2  1  0  0  0  0
 23 10  1  0  0  0  0
 24  2  1  0  0  0  0
 25 18  1  0  0  0  0
 27  1  1  0  0  0  0
 27 25  1  0  0  0  0
 28 23  1  0  0  0  0
 29 30  1  0  0  0  0
 30 23  1  0  0  0  0
 31 30  2  0  0  0  0
 32 34  1  0  0  0  0
 33 34  2  0  0  0  0
 33 35  1  0  0  0  0
 34 31  1  0  0  0  0
 35 29  2  0  0  0  0
 36 37  1  0  0  0  0
M  END
>  <MODEL>
6

>  <REMARK>
 VINA RESULT:      -4.2      2.818      7.465
  Name = 
  2 active torsions:
  status: ('A' for Active; 'I' for Inactive)
    1  A    between atoms: C_4  and  C_37
    2  A    between atoms: C_23  and  C_30
                            x       y       z     vdW  Elec       q    Type
                         _______ _______ _______ _____ _____    ______ ____

>  <TORSDO>
F 2

$$$$
=
 OpenBabel11122411243D

 37 43  0  0  1  0  0  0  0  0999 V2000
  186.7660  176.1110  138.0620 O   0  0  0  0  0  0  0  0  0  0  0  0
  189.5870  177.8270  141.9090 C   0  0  0  0  0  0  0  0  0  0  0  0
  185.4430  177.9820  140.8960 C   0  0  1  0  0  3  0  0  0  0  0  0
  187.6470  175.1830  137.4780 C   0  0  2  0  0  3  0  0  0  0  0  0
  184.4240  178.3200  137.2570 O   0  0  0  0  0  0  0  0  0  0  0  0
  187.1930  178.1080  142.7790 C   0  0  1  0  0  3  0  0  0  0  0  0
  185.4500  178.4740  139.4430 C   0  0  2  0  0  3  0  0  0  0  0  0
  186.3510  175.8190  135.3680 C   0  0  0  0  0  0  0  0  0  0  0  0
  186.7870  178.4600  141.3470 C   0  0  1  0  0  3  0  0  0  0  0  0
  184.4030  177.7810  138.5480 C   0  0  1  0  0  3  0  0  0  0  0  0
  186.0150  177.5240  143.5620 C   0  0  0  0  0  2  0  0  0  0  0  0
  187.6080  175.2090  135.9340 C   0  0  0  0  0  2  0  0  0  0  0  0
  187.6620  177.8980  140.2850 C   0  0  2  0  0  3  0  0  0  0  0  0
  190.6100  176.7330  141.6730 C   0  0  0  0  0  1  0  0  0  0  0  0
  182.9770  177.8770  141.6620 C   0  0  0  0  0  2  0  0  0  0  0  0
  184.7580  178.3860  143.3270 C   0  0  0  0  0  2  0  0  0  0  0  0
  189.0940  178.3400  140.5300 C   0  0  0  0  0  2  0  0  0  0  0  0
  185.9300  177.2320  135.7050 C   0  0  1  0  0  3  0  0  0  0  0  0
  184.5750  177.2120  136.4160 C   0  0  0  0  0  2  0  0  0  0  0  0
  184.3550  178.5240  141.8360 C   0  0  1  0  0  3  0  0  0  0  0  0
  186.9580  178.3500  139.0140 C   0  0  1  0  0  3  0  0  0  0  0  0
  188.4670  177.2530  142.8210 C   0  0  0  0  0  2  0  0  0  0  0  0
  182.9680  177.8410  139.0930 C   0  0  1  0  0  3  0  0  0  0  0  0
  190.2750  178.9710  142.6280 C   0  0  0  0  0  1  0  0  0  0  0  0
  187.0050  177.9960  136.5000 C   0  0  0  0  0  2  0  0  0  0  0  0
  185.6740  175.1620  134.5940 O   0  0  0  0  0  0  0  0  0  0  0  0
  187.3260  177.3890  137.8770 C   0  0  2  0  0  3  0  0  0  0  0  0
  182.7600  177.0580  140.3890 C   0  0  0  0  0  2  0  0  0  0  0  0
  180.8950  179.2350  139.2370 C   0  0  0  0  0  3  0  0  0  0  0  0
  182.2760  179.1760  139.0240 C   0  0  0  0  0  0  0  0  0  0  0  0
  182.9860  180.3590  138.7710 C   0  0  0  0  0  3  0  0  0  0  0  0
  183.0100  182.7240  138.4790 F   0  0  0  0  0  0  0  0  0  0  0  0
  180.9380  181.6380  138.9350 C   0  0  0  0  0  3  0  0  0  0  0  0
  182.3180  181.5860  138.7250 C   0  0  0  0  0  0  0  0  0  0  0  0
  180.2260  180.4630  139.1920 C   0  0  0  0  0  3  0  0  0  0  0  0
  186.8040  172.9220  136.8520 C   0  0  0  0  0  1  0  0  0  0  0  0
  187.3080  173.7930  137.9860 C   0  0  0  0  0  2  0  0  0  0  0  0
  2 24  1  0  0  0  0
  2 22  1  0  0  0  0
  3  9  1  0  0  0  0
  3 20  1  0  0  0  0
  4 37  1  0  0  0  0
  4  1  1  0  0  0  0
  5 10  1  0  0  0  0
  6 22  1  0  0  0  0
  6 11  1  0  0  0  0
  7  3  1  0  0  0  0
  8 18  1  0  0  0  0
  8 12  1  0  0  0  0
  9  6  1  0  0  0  0
 10 23  1  0  0  0  0
 10  7  1  0  0  0  0
 12  4  1  0  0  0  0
 13 17  1  0  0  0  0
 13  9  1  0  0  0  0
 14  2  1  0  0  0  0
 15 20  1  0  0  0  0
 16 11  1  0  0  0  0
 17  2  1  0  0  0  0
 18 19  1  0  0  0  0
 18 25  1  0  0  0  0
 19  5  1  0  0  0  0
 20 16  1  0  0  0  0
 21  7  1  0  0  0  0
 21 13  1  0  0  0  0
 23 28  1  0  0  0  0
 25 27  1  0  0  0  0
 26  8  2  0  0  0  0
 27  1  1  0  0  0  0
 27 21  1  0  0  0  0
 28 15  1  0  0  0  0
 30 23  1  0  0  0  0
 30 29  2  0  0  0  0
 31 30  1  0  0  0  0
 32 34  1  0  0  0  0
 33 35  2  0  0  0  0
 34 31  2  0  0  0  0
 34 33  1  0  0  0  0
 35 29  1  0  0  0  0
 36 37  1  0  0  0  0
M  END
>  <MODEL>
7

>  <REMARK>
 VINA RESULT:      -4.2      2.154      3.377
  Name = 
  2 active torsions:
  status: ('A' for Active; 'I' for Inactive)
    1  A    between atoms: C_4  and  C_37
    2  A    between atoms: C_23  and  C_30
                            x       y       z     vdW  Elec       q    Type
                         _______ _______ _______ _____ _____    ______ ____

>  <TORSDO>
F 2

$$$$
