=
 OpenBabel11122410343D

 30 35  0  0  1  0  0  0  0  0999 V2000
  186.0860  178.5460  142.0510 C   0  0  0  0  0  0  0  0  0  0  0  0
  183.6080  178.9450  141.9600 C   0  0  0  0  0  0  0  0  0  0  0  0
  185.9410  177.9570  146.1160 N   0  0  0  0  0  0  0  0  0  0  0  0
  187.2420  178.1840  142.8030 C   0  0  0  0  0  0  0  0  0  0  0  0
  186.2820  178.9300  140.6100 C   0  0  0  0  0  2  0  0  0  0  0  0
  189.5720  177.6520  140.0420 O   0  0  0  0  0  0  0  0  0  0  0  0
  190.1600  178.2100  143.8410 C   0  0  1  0  0  3  0  0  0  0  0  0
  188.4880  177.8430  140.6600 C   0  0  0  0  0  0  0  0  0  0  0  0
  189.4680  178.1110  145.1900 C   0  0  2  0  0  3  0  0  0  0  0  0
  187.2670  177.8160  146.3230 C   0  0  0  0  0  0  0  0  0  0  0  0
  187.2060  177.9620  139.8950 C   0  0  2  0  0  3  0  0  0  0  0  0
  188.4650  177.8490  142.0990 N   0  0  0  0  0  0  0  0  0  0  0  0
  182.3830  179.0080  142.6310 C   0  0  0  0  0  3  0  0  0  0  0  0
  190.2400  177.0580  145.9620 C   0  0  0  0  0  2  0  0  0  0  0  0
  191.6150  177.8700  144.1180 C   0  0  0  0  0  2  0  0  0  0  0  0
  183.6050  179.1850  140.5920 O   0  0  0  0  0  1  0  0  0  0  0  0
  185.8530  178.1100  144.7860 C   0  0  0  0  0  0  0  0  0  0  0  0
  182.3060  178.7670  144.0010 C   0  0  0  0  0  3  0  0  0  0  0  0
  184.7990  178.6330  142.6710 C   0  0  0  0  0  0  0  0  0  0  0  0
  187.0910  178.0460  144.2040 C   0  0  0  0  0  0  0  0  0  0  0  0
  187.8340  177.7410  147.7020 C   0  0  0  0  0  1  0  0  0  0  0  0
  188.0150  177.8650  145.1850 N   0  0  0  0  0  0  0  0  0  0  0  0
  191.6700  177.1880  145.4780 C   0  0  0  0  0  2  0  0  0  0  0  0
  189.3560  175.8320  143.2090 C   0  0  0  0  0  1  0  0  0  0  0  0
  183.4580  178.4580  144.7170 C   0  0  0  0  0  3  0  0  0  0  0  0
  184.6950  178.3850  144.0680 C   0  0  0  0  0  0  0  0  0  0  0  0
  189.6190  177.2720  142.7720 C   0  0  2  0  0  3  0  0  0  0  0  0
  187.4520  178.4400  138.5420 N   0  0  0  0  0  2  0  0  0  0  0  0
  186.2480  176.8150  137.2100 C   0  0  0  0  0  1  0  0  0  0  0  0
  186.2350  178.2170  137.7800 C   0  0  0  0  0  2  0  0  0  0  0  0
  1 19  2  0  0  0  0
  1  4  1  0  0  0  0
  2 13  2  0  0  0  0
  2 19  1  0  0  0  0
  3 10  2  0  0  0  0
  4 20  2  0  0  0  0
  5  1  1  0  0  0  0
  6  8  2  0  0  0  0
  7 15  1  1  0  0  0
  7  9  1  0  0  0  0
  8 12  1  0  0  0  0
  9 14  1  1  0  0  0
 10 21  1  0  0  0  0
 11 28  1  6  0  0  0
 11  5  1  0  0  0  0
 11  8  1  0  0  0  0
 12 27  1  0  0  0  0
 12  4  1  0  0  0  0
 13 18  1  0  0  0  0
 15 23  1  0  0  0  0
 16  2  1  0  0  0  0
 17  3  1  0  0  0  0
 18 25  2  0  0  0  0
 19 26  1  0  0  0  0
 20 17  1  0  0  0  0
 20 22  1  0  0  0  0
 22  9  1  0  0  0  0
 22 10  1  0  0  0  0
 23 14  1  0  0  0  0
 26 25  1  0  0  0  0
 26 17  2  0  0  0  0
 27 24  1  1  0  0  0
 27  7  1  0  0  0  0
 29 30  1  0  0  0  0
 30 28  1  0  0  0  0
M  END
>  <MODEL>
1

>  <REMARK>
 VINA RESULT:     -10.6      0.000      0.000
  Name = 
  2 active torsions:
  status: ('A' for Active; 'I' for Inactive)
    1  A    between atoms: C_11  and  N_28
    2  A    between atoms: N_28  and  C_30
                            x       y       z     vdW  Elec       q    Type
                         _______ _______ _______ _____ _____    ______ ____

>  <TORSDO>
F 2

$$$$
=
 OpenBabel11122410343D

 30 35  0  0  1  0  0  0  0  0999 V2000
  187.2970  178.3360  140.8200 C   0  0  0  0  0  0  0  0  0  0  0  0
  185.0240  178.7950  139.8550 C   0  0  0  0  0  0  0  0  0  0  0  0
  185.7330  178.0060  144.6060 N   0  0  0  0  0  0  0  0  0  0  0  0
  188.1050  177.9900  141.9430 C   0  0  0  0  0  0  0  0  0  0  0  0
  187.9960  178.6230  139.5190 C   0  0  0  0  0  2  0  0  0  0  0  0
  191.2170  177.2250  140.1920 O   0  0  0  0  0  0  0  0  0  0  0  0
  190.4840  178.0030  143.9270 C   0  0  1  0  0  3  0  0  0  0  0  0
  189.9970  177.4830  140.3850 C   0  0  0  0  0  0  0  0  0  0  0  0
  189.3660  178.0070  144.9550 C   0  0  2  0  0  3  0  0  0  0  0  0
  186.8980  177.8420  145.2670 C   0  0  0  0  0  0  0  0  0  0  0  0
  189.0640  177.5880  139.2180 C   0  0  2  0  0  3  0  0  0  0  0  0
  189.4780  177.5800  141.7250 N   0  0  0  0  0  0  0  0  0  0  0  0
  183.6480  178.9320  140.0560 C   0  0  0  0  0  3  0  0  0  0  0  0
  189.7740  176.9840  145.9970 C   0  0  0  0  0  2  0  0  0  0  0  0
  191.7360  177.6420  144.7070 C   0  0  0  0  0  2  0  0  0  0  0  0
  185.5050  178.9490  138.5610 O   0  0  0  0  0  1  0  0  0  0  0  0
  186.1150  178.0780  143.3220 C   0  0  0  0  0  0  0  0  0  0  0  0
  183.0920  178.7790  141.3230 C   0  0  0  0  0  3  0  0  0  0  0  0
  185.8820  178.4960  140.9500 C   0  0  0  0  0  0  0  0  0  0  0  0
  187.4740  177.9450  143.2090 C   0  0  0  0  0  0  0  0  0  0  0  0
  186.9500  177.8380  146.7580 C   0  0  0  0  0  1  0  0  0  0  0  0
  187.9930  177.8010  144.4570 N   0  0  0  0  0  0  0  0  0  0  0  0
  191.2870  177.0450  146.0340 C   0  0  0  0  0  2  0  0  0  0  0  0
  189.8370  175.6120  143.1730 C   0  0  0  0  0  1  0  0  0  0  0  0
  183.9100  178.4850  142.4090 C   0  0  0  0  0  3  0  0  0  0  0  0
  185.2910  178.3390  142.2340 C   0  0  0  0  0  0  0  0  0  0  0  0
  190.3010  177.0150  142.7840 C   0  0  2  0  0  3  0  0  0  0  0  0
  189.7840  177.9750  138.0120 N   0  0  0  0  0  2  0  0  0  0  0  0
  188.5180  177.9020  135.9480 C   0  0  0  0  0  1  0  0  0  0  0  0
  188.8540  178.7180  137.1790 C   0  0  0  0  0  2  0  0  0  0  0  0
  1 19  2  0  0  0  0
  1  4  1  0  0  0  0
  2 13  2  0  0  0  0
  2 19  1  0  0  0  0
  3 10  2  0  0  0  0
  4 20  2  0  0  0  0
  5  1  1  0  0  0  0
  6  8  2  0  0  0  0
  7 15  1  1  0  0  0
  7  9  1  0  0  0  0
  8 12  1  0  0  0  0
  9 14  1  1  0  0  0
 10 21  1  0  0  0  0
 11 28  1  6  0  0  0
 11  5  1  0  0  0  0
 11  8  1  0  0  0  0
 12  4  1  0  0  0  0
 12 27  1  0  0  0  0
 13 18  1  0  0  0  0
 14 23  1  0  0  0  0
 15 23  1  0  0  0  0
 16  2  1  0  0  0  0
 17  3  1  0  0  0  0
 18 25  2  0  0  0  0
 19 26  1  0  0  0  0
 20 17  1  0  0  0  0
 20 22  1  0  0  0  0
 22  9  1  0  0  0  0
 22 10  1  0  0  0  0
 26 25  1  0  0  0  0
 26 17  2  0  0  0  0
 27 24  1  1  0  0  0
 27  7  1  0  0  0  0
 29 30  1  0  0  0  0
 30 28  1  0  0  0  0
M  END
>  <MODEL>
2

>  <REMARK>
 VINA RESULT:     -10.3      1.440      1.787
  Name = 
  2 active torsions:
  status: ('A' for Active; 'I' for Inactive)
    1  A    between atoms: C_11  and  N_28
    2  A    between atoms: N_28  and  C_30
                            x       y       z     vdW  Elec       q    Type
                         _______ _______ _______ _____ _____    ______ ____

>  <TORSDO>
F 2

$$$$
=
 OpenBabel11122410343D

 30 35  0  0  1  0  0  0  0  0999 V2000
  189.1150  177.1550  143.3520 C   0  0  0  0  0  0  0  0  0  0  0  0
  191.1920  176.4840  144.5950 C   0  0  0  0  0  0  0  0  0  0  0  0
  187.1020  177.8160  146.8740 N   0  0  0  0  0  0  0  0  0  0  0  0
  187.7810  177.6590  143.3770 C   0  0  0  0  0  0  0  0  0  0  0  0
  189.6890  176.7640  142.0190 C   0  0  0  0  0  2  0  0  0  0  0  0
  187.3820  178.3830  139.8190 O   0  0  0  0  0  0  0  0  0  0  0  0
  184.7810  177.9770  142.6760 C   0  0  1  0  0  3  0  0  0  0  0  0
  187.9330  178.0870  140.9150 C   0  0  0  0  0  0  0  0  0  0  0  0
  184.6410  178.0300  144.1870 C   0  0  2  0  0  3  0  0  0  0  0  0
  185.8980  178.1070  146.3390 C   0  0  0  0  0  0  0  0  0  0  0  0
  189.4050  177.8110  140.9580 C   0  0  2  0  0  3  0  0  0  0  0  0
  187.1750  178.1100  142.1390 N   0  0  0  0  0  0  0  0  0  0  0  0
  191.8450  176.3020  145.8170 C   0  0  0  0  0  3  0  0  0  0  0  0
  183.6890  179.1790  144.4630 C   0  0  0  0  0  2  0  0  0  0  0  0
  183.4520  178.4820  142.1390 C   0  0  0  0  0  2  0  0  0  0  0  0
  191.9080  176.2150  143.4350 O   0  0  0  0  0  1  0  0  0  0  0  0
  187.8780  177.6250  145.7960 C   0  0  0  0  0  0  0  0  0  0  0  0
  191.1960  176.5640  147.0210 C   0  0  0  0  0  3  0  0  0  0  0  0
  189.8450  176.9410  144.5630 C   0  0  0  0  0  0  0  0  0  0  0  0
  187.1650  177.8110  144.6410 C   0  0  0  0  0  0  0  0  0  0  0  0
  184.6880  178.2750  147.1960 C   0  0  0  0  0  1  0  0  0  0  0  0
  185.8830  178.1140  144.9760 N   0  0  0  0  0  0  0  0  0  0  0  0
  182.7430  179.1960  143.2810 C   0  0  0  0  0  2  0  0  0  0  0  0
  186.0420  180.2380  142.6740 C   0  0  0  0  0  1  0  0  0  0  0  0
  189.8790  177.0130  147.0150 C   0  0  0  0  0  3  0  0  0  0  0  0
  189.2040  177.2070  145.8050 C   0  0  0  0  0  0  0  0  0  0  0  0
  185.9080  178.8260  142.1060 C   0  0  2  0  0  3  0  0  0  0  0  0
  189.8800  177.3320  139.6670 N   0  0  0  0  0  2  0  0  0  0  0  0
  191.8410  176.4520  138.5500 C   0  0  0  0  0  1  0  0  0  0  0  0
  191.3210  177.1810  139.7710 C   0  0  0  0  0  2  0  0  0  0  0  0
  1  4  2  0  0  0  0
  1 19  1  0  0  0  0
  2 13  1  0  0  0  0
  4 20  1  0  0  0  0
  5  1  1  0  0  0  0
  6  8  2  0  0  0  0
  7 15  1  6  0  0  0
  7  9  1  0  0  0  0
  8 11  1  0  0  0  0
  8 12  1  0  0  0  0
  9 14  1  6  0  0  0
  9 22  1  0  0  0  0
 10  3  2  0  0  0  0
 10 21  1  0  0  0  0
 11 28  1  6  0  0  0
 11  5  1  0  0  0  0
 12  4  1  0  0  0  0
 13 18  2  0  0  0  0
 15 23  1  0  0  0  0
 16  2  1  0  0  0  0
 17 26  1  0  0  0  0
 17  3  1  0  0  0  0
 19  2  2  0  0  0  0
 19 26  1  0  0  0  0
 20 22  1  0  0  0  0
 20 17  2  0  0  0  0
 22 10  1  0  0  0  0
 23 14  1  0  0  0  0
 25 18  1  0  0  0  0
 26 25  2  0  0  0  0
 27 12  1  0  0  0  0
 27 24  1  1  0  0  0
 27  7  1  0  0  0  0
 28 30  1  0  0  0  0
 29 30  1  0  0  0  0
M  END
>  <MODEL>
3

>  <REMARK>
 VINA RESULT:     -10.0      1.758      5.524
  Name = 
  2 active torsions:
  status: ('A' for Active; 'I' for Inactive)
    1  A    between atoms: C_11  and  N_28
    2  A    between atoms: N_28  and  C_30
                            x       y       z     vdW  Elec       q    Type
                         _______ _______ _______ _____ _____    ______ ____

>  <TORSDO>
F 2

$$$$
=
 OpenBabel11122410343D

 30 35  0  0  1  0  0  0  0  0999 V2000
  186.2050  178.0770  142.7310 C   0  0  0  0  0  0  0  0  0  0  0  0
  186.9430  178.1520  145.1310 C   0  0  0  0  0  0  0  0  0  0  0  0
  182.3030  178.7990  143.8050 N   0  0  0  0  0  0  0  0  0  0  0  0
  185.1710  178.2360  141.7610 C   0  0  0  0  0  0  0  0  0  0  0  0
  187.5540  177.6230  142.2460 C   0  0  0  0  0  2  0  0  0  0  0  0
  187.2230  178.2380  138.7400 O   0  0  0  0  0  0  0  0  0  0  0  0
  183.4140  177.6870  139.2700 C   0  0  1  0  0  3  0  0  0  0  0  0
  186.9110  178.2730  139.9620 C   0  0  0  0  0  0  0  0  0  0  0  0
  182.2890  177.9540  140.2550 C   0  0  2  0  0  3  0  0  0  0  0  0
  181.7580  178.6920  142.5760 C   0  0  0  0  0  0  0  0  0  0  0  0
  187.9840  178.3780  141.0020 C   0  0  2  0  0  3  0  0  0  0  0  0
  185.5270  178.3130  140.3580 N   0  0  0  0  0  0  0  0  0  0  0  0
  186.6130  178.3410  146.4760 C   0  0  0  0  0  3  0  0  0  0  0  0
  181.3210  178.8640  139.5230 C   0  0  0  0  0  2  0  0  0  0  0  0
  182.7630  177.7540  137.8990 C   0  0  0  0  0  2  0  0  0  0  0  0
  188.2700  177.8780  144.8250 O   0  0  0  0  0  1  0  0  0  0  0  0
  183.6150  178.6280  143.5750 C   0  0  0  0  0  0  0  0  0  0  0  0
  185.3050  178.6310  146.8570 C   0  0  0  0  0  3  0  0  0  0  0  0
  185.9410  178.2530  144.1260 C   0  0  0  0  0  0  0  0  0  0  0  0
  183.8550  178.4390  142.2390 C   0  0  0  0  0  0  0  0  0  0  0  0
  180.2780  178.6980  142.3810 C   0  0  0  0  0  1  0  0  0  0  0  0
  182.6640  178.4700  141.5840 N   0  0  0  0  0  0  0  0  0  0  0  0
  181.4200  178.4520  138.0680 C   0  0  0  0  0  2  0  0  0  0  0  0
  184.1810  180.1560  139.4160 C   0  0  0  0  0  1  0  0  0  0  0  0
  184.3090  178.7370  145.8920 C   0  0  0  0  0  3  0  0  0  0  0  0
  184.6140  178.5560  144.5380 C   0  0  0  0  0  0  0  0  0  0  0  0
  184.5660  178.6800  139.3280 C   0  0  2  0  0  3  0  0  0  0  0  0
  189.2370  177.8230  140.5100 N   0  0  0  0  0  2  0  0  0  0  0  0
  191.2500  177.5030  141.8200 C   0  0  0  0  0  1  0  0  0  0  0  0
  189.8210  177.0550  141.5970 C   0  0  0  0  0  2  0  0  0  0  0  0
  1 19  1  0  0  0  0
  2 13  1  0  0  0  0
  4 20  1  0  0  0  0
  4  1  2  0  0  0  0
  5  1  1  0  0  0  0
  6  8  2  0  0  0  0
  7 15  1  6  0  0  0
  7 27  1  0  0  0  0
  7  9  1  0  0  0  0
  8 12  1  0  0  0  0
  8 11  1  0  0  0  0
  9 14  1  6  0  0  0
  9 22  1  0  0  0  0
 10  3  2  0  0  0  0
 11 28  1  6  0  0  0
 11  5  1  0  0  0  0
 12  4  1  0  0  0  0
 13 18  2  0  0  0  0
 15 23  1  0  0  0  0
 16  2  1  0  0  0  0
 17  3  1  0  0  0  0
 17 26  1  0  0  0  0
 19 26  1  0  0  0  0
 19  2  2  0  0  0  0
 20 17  2  0  0  0  0
 21 10  1  0  0  0  0
 22 20  1  0  0  0  0
 22 10  1  0  0  0  0
 23 14  1  0  0  0  0
 25 18  1  0  0  0  0
 26 25  2  0  0  0  0
 27 24  1  1  0  0  0
 27 12  1  0  0  0  0
 28 30  1  0  0  0  0
 30 29  1  0  0  0  0
M  END
>  <MODEL>
4

>  <REMARK>
 VINA RESULT:      -8.9      2.500      6.049
  Name = 
  2 active torsions:
  status: ('A' for Active; 'I' for Inactive)
    1  A    between atoms: C_11  and  N_28
    2  A    between atoms: N_28  and  C_30
                            x       y       z     vdW  Elec       q    Type
                         _______ _______ _______ _____ _____    ______ ____

>  <TORSDO>
F 2

$$$$
=
 OpenBabel11122410343D

 30 35  0  0  1  0  0  0  0  0999 V2000
  186.5980  177.8510  144.7000 C   0  0  0  0  0  0  0  0  0  0  0  0
  184.1940  178.4770  145.0660 C   0  0  0  0  0  0  0  0  0  0  0  0
  186.3140  178.7150  140.6910 N   0  0  0  0  0  0  0  0  0  0  0  0
  187.7230  177.7670  143.8270 C   0  0  0  0  0  0  0  0  0  0  0  0
  186.7590  177.3280  146.1000 C   0  0  0  0  0  2  0  0  0  0  0  0
  190.3230  177.1340  146.3130 O   0  0  0  0  0  0  0  0  0  0  0  0
  190.2630  176.6380  142.4600 C   0  0  1  0  0  3  0  0  0  0  0  0
  189.2010  177.4360  145.8200 C   0  0  0  0  0  0  0  0  0  0  0  0
  189.5450  177.0960  141.2030 C   0  0  2  0  0  3  0  0  0  0  0  0
  187.5560  178.3250  140.3370 C   0  0  0  0  0  0  0  0  0  0  0  0
  188.0620  177.7930  146.7250 C   0  0  2  0  0  3  0  0  0  0  0  0
  189.0380  177.5350  144.3930 N   0  0  0  0  0  0  0  0  0  0  0  0
  182.9910  178.9560  144.5390 C   0  0  0  0  0  3  0  0  0  0  0  0
  190.6000  177.7980  140.3690 C   0  0  0  0  0  2  0  0  0  0  0  0
  191.6960  176.3820  142.0250 C   0  0  0  0  0  2  0  0  0  0  0  0
  184.2260  178.1690  146.4210 O   0  0  0  0  0  1  0  0  0  0  0  0
  186.3000  178.5240  142.0190 C   0  0  0  0  0  0  0  0  0  0  0  0
  182.8860  179.2970  143.1930 C   0  0  0  0  0  3  0  0  0  0  0  0
  185.3340  178.3300  144.2300 C   0  0  0  0  0  0  0  0  0  0  0  0
  187.5070  178.0450  142.4570 C   0  0  0  0  0  0  0  0  0  0  0  0
  187.9680  178.2560  138.9040 C   0  0  0  0  0  1  0  0  0  0  0  0
  188.3250  177.9040  141.3800 N   0  0  0  0  0  0  0  0  0  0  0  0
  191.8920  177.0730  140.6830 C   0  0  0  0  0  2  0  0  0  0  0  0
  190.5610  179.0920  143.2310 C   0  0  0  0  0  1  0  0  0  0  0  0
  183.9890  179.1630  142.3560 C   0  0  0  0  0  3  0  0  0  0  0  0
  185.2060  178.6900  142.8600 C   0  0  0  0  0  0  0  0  0  0  0  0
  190.2560  177.6420  143.6040 C   0  0  2  0  0  3  0  0  0  0  0  0
  188.2210  177.1680  148.0300 N   0  0  0  0  0  2  0  0  0  0  0  0
  189.7580  178.6250  149.2060 C   0  0  0  0  0  1  0  0  0  0  0  0
  188.3080  178.2370  149.0090 C   0  0  0  0  0  2  0  0  0  0  0  0
  1  5  1  0  0  0  0
  2 16  1  0  0  0  0
  3 17  1  0  0  0  0
  4 12  1  0  0  0  0
  4  1  2  0  0  0  0
  5 11  1  0  0  0  0
  7 15  1  6  0  0  0
  7 27  1  0  0  0  0
  8  6  2  0  0  0  0
  8 11  1  0  0  0  0
  9 14  1  6  0  0  0
  9 22  1  0  0  0  0
  9  7  1  0  0  0  0
 10  3  2  0  0  0  0
 10 22  1  0  0  0  0
 11 28  1  1  0  0  0
 12  8  1  0  0  0  0
 13  2  1  0  0  0  0
 14 23  1  0  0  0  0
 17 20  2  0  0  0  0
 17 26  1  0  0  0  0
 18 13  2  0  0  0  0
 19  1  1  0  0  0  0
 19  2  2  0  0  0  0
 20  4  1  0  0  0  0
 21 10  1  0  0  0  0
 22 20  1  0  0  0  0
 23 15  1  0  0  0  0
 25 26  2  0  0  0  0
 25 18  1  0  0  0  0
 26 19  1  0  0  0  0
 27 24  1  6  0  0  0
 27 12  1  0  0  0  0
 28 30  1  0  0  0  0
 30 29  1  0  0  0  0
M  END
>  <MODEL>
5

>  <REMARK>
 VINA RESULT:      -8.8      2.116      5.394
  Name = 
  2 active torsions:
  status: ('A' for Active; 'I' for Inactive)
    1  A    between atoms: C_11  and  N_28
    2  A    between atoms: N_28  and  C_30
                            x       y       z     vdW  Elec       q    Type
                         _______ _______ _______ _____ _____    ______ ____

>  <TORSDO>
F 2

$$$$
=
 OpenBabel11122410343D

 30 35  0  0  1  0  0  0  0  0999 V2000
  189.8400  177.7100  143.1520 C   0  0  0  0  0  0  0  0  0  0  0  0
  191.3500  177.3890  141.1710 C   0  0  0  0  0  0  0  0  0  0  0  0
  186.5780  178.2290  140.7060 N   0  0  0  0  0  0  0  0  0  0  0  0
  188.5250  177.8900  143.6740 C   0  0  0  0  0  0  0  0  0  0  0  0
  190.9870  177.7260  144.1250 C   0  0  0  0  0  2  0  0  0  0  0  0
  189.2280  177.2750  147.2060 O   0  0  0  0  0  0  0  0  0  0  0  0
  186.2200  178.9790  145.4330 C   0  0  1  0  0  3  0  0  0  0  0  0
  189.3910  177.3280  145.9550 C   0  0  0  0  0  0  0  0  0  0  0  0
  185.5090  179.0670  144.0940 C   0  0  2  0  0  3  0  0  0  0  0  0
  185.6760  178.5110  141.6690 C   0  0  0  0  0  0  0  0  0  0  0  0
  190.6900  176.8860  145.3530 C   0  0  2  0  0  3  0  0  0  0  0  0
  188.3020  177.7180  145.0970 N   0  0  0  0  0  0  0  0  0  0  0  0
  191.4970  177.3000  139.7840 C   0  0  0  0  0  3  0  0  0  0  0  0
  184.1200  178.5100  144.3380 C   0  0  0  0  0  2  0  0  0  0  0  0
  185.1230  179.1300  146.4730 C   0  0  0  0  0  2  0  0  0  0  0  0
  192.4900  177.2390  141.9510 O   0  0  0  0  0  1  0  0  0  0  0  0
  187.7010  177.9860  141.3990 C   0  0  0  0  0  0  0  0  0  0  0  0
  190.3970  177.4280  138.9390 C   0  0  0  0  0  3  0  0  0  0  0  0
  190.0680  177.6130  141.7430 C   0  0  0  0  0  0  0  0  0  0  0  0
  187.4790  178.1020  142.7460 C   0  0  0  0  0  0  0  0  0  0  0  0
  184.2960  178.9670  141.3310 C   0  0  0  0  0  1  0  0  0  0  0  0
  186.1780  178.4480  142.9350 N   0  0  0  0  0  0  0  0  0  0  0  0
  183.7950  178.8830  145.7700 C   0  0  0  0  0  2  0  0  0  0  0  0
  186.2290  176.3930  145.3040 C   0  0  0  0  0  1  0  0  0  0  0  0
  189.1320  177.6460  139.4760 C   0  0  0  0  0  3  0  0  0  0  0  0
  188.9580  177.7350  140.8610 C   0  0  0  0  0  0  0  0  0  0  0  0
  186.9690  177.6760  145.6780 C   0  0  2  0  0  3  0  0  0  0  0  0
  191.7780  177.0280  146.3100 N   0  0  0  0  0  2  0  0  0  0  0  0
  192.6770  175.7050  148.1300 C   0  0  0  0  0  1  0  0  0  0  0  0
  192.1840  175.6880  146.6990 C   0  0  0  0  0  2  0  0  0  0  0  0
  1  4  1  0  0  0  0
  1  5  1  0  0  0  0
  2 19  1  0  0  0  0
  2 16  1  0  0  0  0
  3 17  1  0  0  0  0
  3 10  2  0  0  0  0
  4 12  1  0  0  0  0
  5 11  1  0  0  0  0
  7 27  1  0  0  0  0
  7 15  1  1  0  0  0
  8  6  2  0  0  0  0
  9 14  1  1  0  0  0
  9  7  1  0  0  0  0
 10 22  1  0  0  0  0
 11  8  1  0  0  0  0
 11 28  1  1  0  0  0
 12 27  1  0  0  0  0
 12  8  1  0  0  0  0
 13  2  2  0  0  0  0
 14 23  1  0  0  0  0
 17 20  1  0  0  0  0
 18 25  2  0  0  0  0
 18 13  1  0  0  0  0
 19  1  2  0  0  0  0
 20 22  1  0  0  0  0
 20  4  2  0  0  0  0
 21 10  1  0  0  0  0
 22  9  1  0  0  0  0
 23 15  1  0  0  0  0
 25 26  1  0  0  0  0
 26 17  2  0  0  0  0
 26 19  1  0  0  0  0
 27 24  1  6  0  0  0
 28 30  1  0  0  0  0
 30 29  1  0  0  0  0
M  END
>  <MODEL>
6

>  <REMARK>
 VINA RESULT:      -8.7      2.377      6.740
  Name = 
  2 active torsions:
  status: ('A' for Active; 'I' for Inactive)
    1  A    between atoms: C_11  and  N_28
    2  A    between atoms: N_28  and  C_30
                            x       y       z     vdW  Elec       q    Type
                         _______ _______ _______ _____ _____    ______ ____

>  <TORSDO>
F 2

$$$$
=
 OpenBabel11122410343D

 30 35  0  0  1  0  0  0  0  0999 V2000
  187.6320  177.6360  142.9100 C   0  0  0  0  0  0  0  0  0  0  0  0
  186.4580  178.0180  145.0980 C   0  0  0  0  0  0  0  0  0  0  0  0
  184.4000  179.0710  140.8140 N   0  0  0  0  0  0  0  0  0  0  0  0
  187.6510  177.7690  141.4900 C   0  0  0  0  0  0  0  0  0  0  0  0
  188.7840  176.9210  143.5600 C   0  0  0  0  0  2  0  0  0  0  0  0
  191.1630  176.9660  140.8920 O   0  0  0  0  0  0  0  0  0  0  0  0
  188.0960  177.0530  138.5100 C   0  0  1  0  0  3  0  0  0  0  0  0
  190.1000  177.2530  141.5090 C   0  0  0  0  0  0  0  0  0  0  0  0
  186.7020  177.6390  138.3690 C   0  0  2  0  0  3  0  0  0  0  0  0
  184.8730  178.8320  139.5730 C   0  0  0  0  0  0  0  0  0  0  0  0
  190.1160  177.3840  143.0010 C   0  0  2  0  0  3  0  0  0  0  0  0
  188.8960  177.5530  140.7790 N   0  0  0  0  0  0  0  0  0  0  0  0
  185.3310  178.4790  145.7830 C   0  0  0  0  0  3  0  0  0  0  0  0
  186.7630  178.5360  137.1480 C   0  0  0  0  0  2  0  0  0  0  0  0
  188.6350  176.9740  137.0920 C   0  0  0  0  0  2  0  0  0  0  0  0
  187.5090  177.5120  145.8530 O   0  0  0  0  0  1  0  0  0  0  0  0
  185.4100  178.6810  141.6070 C   0  0  0  0  0  0  0  0  0  0  0  0
  184.2440  179.0100  145.0940 C   0  0  0  0  0  3  0  0  0  0  0  0
  186.5110  178.0840  143.6780 C   0  0  0  0  0  0  0  0  0  0  0  0
  186.4700  178.2340  140.8630 C   0  0  0  0  0  0  0  0  0  0  0  0
  184.0120  179.0110  138.3670 C   0  0  0  0  0  1  0  0  0  0  0  0
  186.1340  178.3180  139.5490 N   0  0  0  0  0  0  0  0  0  0  0  0
  187.7630  177.8710  136.2240 C   0  0  0  0  0  2  0  0  0  0  0  0
  189.0560  179.3780  139.1230 C   0  0  0  0  0  1  0  0  0  0  0  0
  184.2730  179.0870  143.7050 C   0  0  0  0  0  3  0  0  0  0  0  0
  185.3910  178.6360  142.9960 C   0  0  0  0  0  0  0  0  0  0  0  0
  189.0520  177.8700  139.3670 C   0  0  2  0  0  3  0  0  0  0  0  0
  191.1860  176.5830  143.5790 N   0  0  0  0  0  2  0  0  0  0  0  0
  191.6810  176.3780  145.9420 C   0  0  0  0  0  1  0  0  0  0  0  0
  191.6790  177.3010  144.7420 C   0  0  0  0  0  2  0  0  0  0  0  0
  1  5  1  0  0  0  0
  1 19  1  0  0  0  0
  2 13  1  0  0  0  0
  2 16  1  0  0  0  0
  3 17  1  0  0  0  0
  4  1  2  0  0  0  0
  6  8  2  0  0  0  0
  7 15  1  6  0  0  0
  7 27  1  0  0  0  0
  8 11  1  0  0  0  0
  9 14  1  6  0  0  0
  9  7  1  0  0  0  0
  9 22  1  0  0  0  0
 10  3  2  0  0  0  0
 11  5  1  0  0  0  0
 11 28  1  1  0  0  0
 12  4  1  0  0  0  0
 12  8  1  0  0  0  0
 17 26  1  0  0  0  0
 18 13  2  0  0  0  0
 19  2  2  0  0  0  0
 20  4  1  0  0  0  0
 20 17  2  0  0  0  0
 21 10  1  0  0  0  0
 22 10  1  0  0  0  0
 22 20  1  0  0  0  0
 23 15  1  0  0  0  0
 23 14  1  0  0  0  0
 25 18  1  0  0  0  0
 26 19  1  0  0  0  0
 26 25  2  0  0  0  0
 27 24  1  1  0  0  0
 27 12  1  0  0  0  0
 28 30  1  0  0  0  0
 30 29  1  0  0  0  0
M  END
>  <MODEL>
7

>  <REMARK>
 VINA RESULT:      -8.5      2.208      5.787
  Name = 
  2 active torsions:
  status: ('A' for Active; 'I' for Inactive)
    1  A    between atoms: C_11  and  N_28
    2  A    between atoms: N_28  and  C_30
                            x       y       z     vdW  Elec       q    Type
                         _______ _______ _______ _____ _____    ______ ____

>  <TORSDO>
F 2

$$$$
=
 OpenBabel11122410343D

 30 35  0  0  1  0  0  0  0  0999 V2000
  186.1950  178.4040  141.7430 C   0  0  0  0  0  0  0  0  0  0  0  0
  186.0180  178.2520  144.2430 C   0  0  0  0  0  0  0  0  0  0  0  0
  190.1130  177.1650  141.8470 N   0  0  0  0  0  0  0  0  0  0  0  0
  186.9530  178.1930  140.5530 C   0  0  0  0  0  0  0  0  0  0  0  0
  184.8410  179.0430  141.6040 C   0  0  0  0  0  2  0  0  0  0  0  0
  184.2860  178.6320  138.0960 O   0  0  0  0  0  0  0  0  0  0  0  0
  188.1550  178.7020  137.7440 C   0  0  1  0  0  3  0  0  0  0  0  0
  184.8610  178.4780  139.2100 C   0  0  0  0  0  0  0  0  0  0  0  0
  189.4300  178.2410  138.4270 C   0  0  2  0  0  3  0  0  0  0  0  0
  190.3750  177.2910  140.5300 C   0  0  0  0  0  0  0  0  0  0  0  0
  184.0470  178.4280  140.4670 C   0  0  2  0  0  3  0  0  0  0  0  0
  186.2810  178.2530  139.2690 N   0  0  0  0  0  0  0  0  0  0  0  0
  186.6170  177.9360  145.4660 C   0  0  0  0  0  3  0  0  0  0  0  0
  190.0830  177.2770  137.4540 C   0  0  0  0  0  2  0  0  0  0  0  0
  188.4640  178.6540  136.2570 C   0  0  0  0  0  2  0  0  0  0  0  0
  184.7020  178.6980  144.2670 O   0  0  0  0  0  1  0  0  0  0  0  0
  188.8170  177.5020  141.9360 C   0  0  0  0  0  0  0  0  0  0  0  0
  187.9290  177.4720  145.5200 C   0  0  0  0  0  3  0  0  0  0  0  0
  186.7440  178.1050  143.0300 C   0  0  0  0  0  0  0  0  0  0  0  0
  188.3060  177.8070  140.7020 C   0  0  0  0  0  0  0  0  0  0  0  0
  191.7590  177.1280  139.9940 C   0  0  0  0  0  1  0  0  0  0  0  0
  189.3030  177.6830  139.7860 N   0  0  0  0  0  0  0  0  0  0  0  0
  189.7090  177.7950  136.0810 C   0  0  0  0  0  2  0  0  0  0  0  0
  187.1320  176.3340  137.9680 C   0  0  0  0  0  1  0  0  0  0  0  0
  188.6590  177.3180  144.3450 C   0  0  0  0  0  3  0  0  0  0  0  0
  188.0810  177.6230  143.1080 C   0  0  0  0  0  0  0  0  0  0  0  0
  186.9280  177.8470  138.0310 C   0  0  2  0  0  3  0  0  0  0  0  0
  182.7960  179.1560  140.3030 N   0  0  0  0  0  2  0  0  0  0  0  0
  181.1810  179.0030  142.1020 C   0  0  0  0  0  1  0  0  0  0  0  0
  181.7430  178.3300  140.8670 C   0  0  0  0  0  2  0  0  0  0  0  0
  1 19  1  0  0  0  0
  2 16  1  0  0  0  0
  2 13  1  0  0  0  0
  3 17  1  0  0  0  0
  4 20  1  0  0  0  0
  4  1  2  0  0  0  0
  5  1  1  0  0  0  0
  6  8  2  0  0  0  0
  7 15  1  6  0  0  0
  7 27  1  0  0  0  0
  7  9  1  0  0  0  0
  8 12  1  0  0  0  0
  8 11  1  0  0  0  0
  9 14  1  6  0  0  0
  9 22  1  0  0  0  0
 10  3  2  0  0  0  0
 11 28  1  6  0  0  0
 11  5  1  0  0  0  0
 12  4  1  0  0  0  0
 13 18  2  0  0  0  0
 17 26  1  0  0  0  0
 19 26  1  0  0  0  0
 19  2  2  0  0  0  0
 20 17  2  0  0  0  0
 21 10  1  0  0  0  0
 22 10  1  0  0  0  0
 22 20  1  0  0  0  0
 23 15  1  0  0  0  0
 23 14  1  0  0  0  0
 25 18  1  0  0  0  0
 26 25  2  0  0  0  0
 27 24  1  1  0  0  0
 27 12  1  0  0  0  0
 28 30  1  0  0  0  0
 30 29  1  0  0  0  0
M  END
>  <MODEL>
8

>  <REMARK>
 VINA RESULT:      -8.3      2.328      5.563
  Name = 
  2 active torsions:
  status: ('A' for Active; 'I' for Inactive)
    1  A    between atoms: C_11  and  N_28
    2  A    between atoms: N_28  and  C_30
                            x       y       z     vdW  Elec       q    Type
                         _______ _______ _______ _____ _____    ______ ____

>  <TORSDO>
F 2

$$$$
=
 OpenBabel11122410343D

 30 35  0  0  1  0  0  0  0  0999 V2000
  188.1520  177.3440  144.2480 C   0  0  0  0  0  0  0  0  0  0  0  0
  189.3570  177.2290  146.4480 C   0  0  0  0  0  0  0  0  0  0  0  0
  184.7360  178.7130  146.0790 N   0  0  0  0  0  0  0  0  0  0  0  0
  186.9890  177.7060  143.5050 C   0  0  0  0  0  0  0  0  0  0  0  0
  189.2740  176.6730  143.5060 C   0  0  0  0  0  2  0  0  0  0  0  0
  188.3610  177.4230  140.1310 O   0  0  0  0  0  0  0  0  0  0  0  0
  184.7000  177.5360  141.4250 C   0  0  1  0  0  3  0  0  0  0  0  0
  188.3110  177.4820  141.3910 C   0  0  0  0  0  0  0  0  0  0  0  0
  183.8600  177.9720  142.6140 C   0  0  2  0  0  3  0  0  0  0  0  0
  183.9450  178.7340  144.9860 C   0  0  0  0  0  0  0  0  0  0  0  0
  189.5730  177.3710  142.1920 C   0  0  2  0  0  3  0  0  0  0  0  0
  187.0650  177.7540  142.0570 N   0  0  0  0  0  0  0  0  0  0  0  0
  189.3430  177.4400  147.8300 C   0  0  0  0  0  3  0  0  0  0  0  0
  182.9410  179.0550  142.0820 C   0  0  0  0  0  2  0  0  0  0  0  0
  183.8090  177.7500  140.2140 C   0  0  0  0  0  2  0  0  0  0  0  0
  190.5270  176.7340  145.8840 O   0  0  0  0  0  1  0  0  0  0  0  0
  185.9230  178.3200  145.5910 C   0  0  0  0  0  0  0  0  0  0  0  0
  188.2110  177.9450  148.4630 C   0  0  0  0  0  3  0  0  0  0  0  0
  188.2080  177.5290  145.6650 C   0  0  0  0  0  0  0  0  0  0  0  0
  185.8530  178.1250  144.2360 C   0  0  0  0  0  0  0  0  0  0  0  0
  182.4810  179.0040  145.0930 C   0  0  0  0  0  1  0  0  0  0  0  0
  184.5800  178.3810  143.8340 N   0  0  0  0  0  0  0  0  0  0  0  0
  182.6730  178.6690  140.6420 C   0  0  0  0  0  2  0  0  0  0  0  0
  185.9040  179.8280  141.3860 C   0  0  0  0  0  1  0  0  0  0  0  0
  187.0750  178.2480  147.7180 C   0  0  0  0  0  3  0  0  0  0  0  0
  187.0660  178.0500  146.3330 C   0  0  0  0  0  0  0  0  0  0  0  0
  185.9970  178.3100  141.2390 C   0  0  2  0  0  3  0  0  0  0  0  0
  190.5840  176.6170  141.4640 N   0  0  0  0  0  2  0  0  0  0  0  0
  192.3030  177.2720  139.8880 C   0  0  0  0  0  1  0  0  0  0  0  0
  191.7180  177.5030  141.2650 C   0  0  0  0  0  2  0  0  0  0  0  0
  1 19  1  0  0  0  0
  2 13  1  0  0  0  0
  4 20  1  0  0  0  0
  4  1  2  0  0  0  0
  5  1  1  0  0  0  0
  6  8  2  0  0  0  0
  7 15  1  6  0  0  0
  7  9  1  0  0  0  0
  8 12  1  0  0  0  0
  8 11  1  0  0  0  0
  9 14  1  6  0  0  0
  9 22  1  0  0  0  0
 10 21  1  0  0  0  0
 10  3  2  0  0  0  0
 11 28  1  6  0  0  0
 11  5  1  0  0  0  0
 12  4  1  0  0  0  0
 13 18  2  0  0  0  0
 15 23  1  0  0  0  0
 16  2  1  0  0  0  0
 17  3  1  0  0  0  0
 17 26  1  0  0  0  0
 19 26  1  0  0  0  0
 19  2  2  0  0  0  0
 20 17  2  0  0  0  0
 22 20  1  0  0  0  0
 22 10  1  0  0  0  0
 23 14  1  0  0  0  0
 25 18  1  0  0  0  0
 26 25  2  0  0  0  0
 27 24  1  1  0  0  0
 27  7  1  0  0  0  0
 27 12  1  0  0  0  0
 29 30  1  0  0  0  0
 30 28  1  0  0  0  0
M  END
>  <MODEL>
9

>  <REMARK>
 VINA RESULT:      -8.1      1.983      5.567
  Name = 
  2 active torsions:
  status: ('A' for Active; 'I' for Inactive)
    1  A    between atoms: C_11  and  N_28
    2  A    between atoms: N_28  and  C_30
                            x       y       z     vdW  Elec       q    Type
                         _______ _______ _______ _____ _____    ______ ____

>  <TORSDO>
F 2

$$$$
