=
 OpenBabel11122411453D

 37 42  0  0  1  0  0  0  0  0999 V2000
  186.0920  177.5100  144.3930 C   0  0  1  0  0  3  0  0  0  0  0  0
  184.0020  177.7320  141.5350 C   0  0  0  0  0  2  0  0  0  0  0  0
  188.5840  177.2600  145.2260 C   0  0  2  0  0  3  0  0  0  0  0  0
  185.8630  178.3450  143.1450 C   0  0  2  0  0  3  0  0  0  0  0  0
  187.4900  176.9160  144.1720 C   0  0  2  0  0  3  0  0  0  0  0  0
  184.3890  178.5850  142.7460 C   0  0  2  0  0  3  0  0  0  0  0  0
  188.0840  178.2210  146.3050 C   0  0  0  0  0  2  0  0  0  0  0  0
  187.8660  177.2840  142.7420 C   0  0  0  0  0  2  0  0  0  0  0  0
  184.5470  178.5380  146.0900 C   0  0  0  0  0  2  0  0  0  0  0  0
  186.7750  177.8940  146.6700 O   0  0  0  0  0  0  0  0  0  0  0  0
  184.8150  179.6700  140.2510 O   0  0  0  0  0  0  0  0  0  0  0  0
  184.4020  178.3240  140.1670 C   0  0  1  0  0  3  0  0  0  0  0  0
  185.9930  178.4120  145.6300 C   0  0  1  0  0  3  0  0  0  0  0  0
  186.6450  177.7330  142.0720 N   0  0  2  0  0  0  0  0  0  0  0  0
  183.3540  178.4700  143.8860 C   0  0  1  0  0  3  0  0  0  0  0  0
  185.8320  178.7370  139.9370 C   0  0  2  0  0  3  0  0  0  0  0  0
  186.8810  178.7810  141.0630 C   0  0  2  0  0  3  0  0  0  0  0  0
  183.7200  179.3340  145.0900 C   0  0  0  0  0  2  0  0  0  0  0  0
  180.8740  178.5390  144.2260 C   0  0  0  0  0  3  0  0  0  0  0  0
  181.9760  178.8380  143.4170 C   0  0  0  0  0  0  0  0  0  0  0  0
  181.7760  179.4680  142.1780 C   0  0  0  0  0  3  0  0  0  0  0  0
  180.2920  180.4120  140.5290 O   0  0  0  0  0  1  0  0  0  0  0  0
  179.3850  179.4800  142.5660 C   0  0  0  0  0  3  0  0  0  0  0  0
  180.4840  179.7870  141.7550 C   0  0  0  0  0  0  0  0  0  0  0  0
  179.5810  178.8590  143.8020 C   0  0  0  0  0  3  0  0  0  0  0  0
  188.2750  178.7030  140.4000 C   0  0  0  0  0  2  0  0  0  0  0  0
  188.2400  178.2200  139.0120 N   0  0  0  0  0  0  0  0  0  0  0  0
  189.0230  178.5680  136.7320 C   0  0  0  0  0  1  0  0  0  0  0  0
  189.0860  179.0570  138.1680 C   0  0  0  0  0  2  0  0  0  0  0  0
  188.7510  176.8560  138.9520 C   0  0  0  0  0  2  0  0  0  0  0  0
  189.9510  176.7490  139.7740 N   0  0  0  0  0  2  0  0  0  0  0  0
  190.7870  175.9000  139.1320 O   0  0  0  0  0  1  0  0  0  0  0  0
  189.7400  177.8050  144.6310 O   0  0  0  0  0  0  0  0  0  0  0  0
  190.8530  177.0310  145.0200 C   0  0  0  0  0  0  0  0  0  0  0  0
  190.6450  176.4500  146.2650 F   0  0  0  0  0  0  0  0  0  0  0  0
  191.1250  176.0440  144.0850 F   0  0  0  0  0  0  0  0  0  0  0  0
  191.9540  177.8650  145.1060 F   0  0  0  0  0  0  0  0  0  0  0  0
  1 13  1  0  0  0  0
  2  6  1  0  0  0  0
  3  7  1  0  0  0  0
  4  1  1  0  0  0  0
  5  1  1  0  0  0  0
  5  3  1  0  0  0  0
  6  4  1  0  0  0  0
  6 15  1  0  0  0  0
  7 10  1  0  0  0  0
  8  5  1  0  0  0  0
 12 11  1  0  0  0  0
 12  2  1  0  0  0  0
 13  9  1  0  0  0  0
 13 10  1  0  0  0  0
 14  8  1  0  0  0  0
 14  4  1  0  0  0  0
 15 18  1  0  0  0  0
 16 12  1  0  0  0  0
 16 11  1  0  0  0  0
 16 17  1  0  0  0  0
 17 14  1  0  0  0  0
 18  9  1  0  0  0  0
 20 15  1  0  0  0  0
 20 19  2  0  0  0  0
 21 20  1  0  0  0  0
 22 24  1  0  0  0  0
 23 25  2  0  0  0  0
 24 21  2  0  0  0  0
 24 23  1  0  0  0  0
 25 19  1  0  0  0  0
 26 17  1  0  0  0  0
 27 26  1  0  0  0  0
 28 29  1  0  0  0  0
 29 27  1  0  0  0  0
 30 27  1  0  0  0  0
 30 31  1  0  0  0  0
 32 31  1  0  0  0  0
 33 34  1  0  0  0  0
 33  3  1  0  0  0  0
 34 37  1  0  0  0  0
 34 35  1  0  0  0  0
 36 34  1  0  0  0  0
M  END
>  <MODEL>
1

>  <REMARK>
 VINA RESULT:      -9.2      0.000      0.000
  Name = 
  8 active torsions:
  status: ('A' for Active; 'I' for Inactive)
    1  A    between atoms: C_1  and  N_4
    2  A    between atoms: C_1  and  C_27
    3  A    between atoms: C_2  and  O_22
    4  A    between atoms: N_4  and  C_12
    5  A    between atoms: N_4  and  C_37
    6  A    between atoms: C_6  and  O_22
    7  A    between atoms: N_8  and  C_12
    8  A    between atoms: C_23  and  C_30
                            x       y       z     vdW  Elec       q    Type
                         _______ _______ _______ _____ _____    ______ ____

>  <TORSDO>
F 8

$$$$
=
 OpenBabel11122411453D

 37 42  0  0  1  0  0  0  0  0999 V2000
  186.3570  178.7380  142.7660 C   0  0  1  0  0  3  0  0  0  0  0  0
  189.8520  178.3750  143.2560 C   0  0  0  0  0  2  0  0  0  0  0  0
  184.4390  178.8980  140.9600 C   0  0  2  0  0  3  0  0  0  0  0  0
  187.5120  177.8000  142.4640 C   0  0  2  0  0  3  0  0  0  0  0  0
  185.9070  179.2090  141.3760 C   0  0  2  0  0  3  0  0  0  0  0  0
  188.5600  177.6230  143.5860 C   0  0  2  0  0  3  0  0  0  0  0  0
  183.6850  178.0870  142.0140 C   0  0  0  0  0  2  0  0  0  0  0  0
  186.9560  178.6740  140.4080 C   0  0  0  0  0  2  0  0  0  0  0  0
  185.5640  177.9940  145.0340 C   0  0  0  0  0  2  0  0  0  0  0  0
  184.0160  178.5380  143.2940 O   0  0  0  0  0  0  0  0  0  0  0  0
  190.4760  176.2670  142.1460 O   0  0  0  0  0  0  0  0  0  0  0  0
  190.8220  177.6230  142.3200 C   0  0  1  0  0  3  0  0  0  0  0  0
  185.2750  177.9740  143.5390 C   0  0  1  0  0  3  0  0  0  0  0  0
  188.1060  178.2460  141.2040 N   0  0  2  0  0  0  0  0  0  0  0  0
  188.0700  177.9240  145.0200 C   0  0  1  0  0  3  0  0  0  0  0  0
  190.3100  177.0910  141.0080 C   0  0  2  0  0  3  0  0  0  0  0  0
  188.8170  177.0880  140.6320 C   0  0  2  0  0  3  0  0  0  0  0  0
  186.7940  177.1620  145.3660 C   0  0  0  0  0  2  0  0  0  0  0  0
  189.0090  178.1310  147.3310 C   0  0  0  0  0  3  0  0  0  0  0  0
  189.1250  177.6060  146.0390 C   0  0  0  0  0  0  0  0  0  0  0  0
  190.2280  176.8010  145.7140 C   0  0  0  0  0  3  0  0  0  0  0  0
  192.2950  175.7320  146.3490 O   0  0  0  0  0  1  0  0  0  0  0  0
  191.0880  177.0650  147.9640 C   0  0  0  0  0  3  0  0  0  0  0  0
  191.2060  176.5320  146.6750 C   0  0  0  0  0  0  0  0  0  0  0  0
  189.9880  177.8610  148.2930 C   0  0  0  0  0  3  0  0  0  0  0  0
  188.7270  177.0030  139.0910 C   0  0  0  0  0  2  0  0  0  0  0  0
  189.8260  177.6920  138.3990 N   0  0  0  0  0  0  0  0  0  0  0  0
  191.8400  176.5030  137.7210 C   0  0  0  0  0  1  0  0  0  0  0  0
  190.3970  176.8240  137.3750 C   0  0  0  0  0  2  0  0  0  0  0  0
  189.3200  178.8910  137.7440 C   0  0  0  0  0  2  0  0  0  0  0  0
  188.3080  178.5200  136.7620 N   0  0  0  0  0  2  0  0  0  0  0  0
  187.3150  179.4340  136.8620 O   0  0  0  0  0  1  0  0  0  0  0  0
  184.3710  178.2170  139.7270 O   0  0  0  0  0  0  0  0  0  0  0  0
  183.5980  178.9860  138.8310 C   0  0  0  0  0  0  0  0  0  0  0  0
  184.0790  180.2860  138.7490 F   0  0  0  0  0  0  0  0  0  0  0  0
  183.5840  178.4140  137.5680 F   0  0  0  0  0  0  0  0  0  0  0  0
  182.3000  179.0290  139.3050 F   0  0  0  0  0  0  0  0  0  0  0  0
  1 13  1  0  0  0  0
  2  6  1  0  0  0  0
  3  5  1  0  0  0  0
  3  7  1  0  0  0  0
  4  1  1  0  0  0  0
  4  6  1  0  0  0  0
  5  1  1  0  0  0  0
  6 15  1  0  0  0  0
  7 10  1  0  0  0  0
  8 14  1  0  0  0  0
  8  5  1  0  0  0  0
  9 18  1  0  0  0  0
 10 13  1  0  0  0  0
 11 12  1  0  0  0  0
 12  2  1  0  0  0  0
 13  9  1  0  0  0  0
 14  4  1  0  0  0  0
 15 18  1  0  0  0  0
 15 20  1  0  0  0  0
 16 11  1  0  0  0  0
 16 12  1  0  0  0  0
 17 16  1  0  0  0  0
 17 14  1  0  0  0  0
 19 25  1  0  0  0  0
 20 19  2  0  0  0  0
 21 20  1  0  0  0  0
 21 24  2  0  0  0  0
 22 24  1  0  0  0  0
 23 25  2  0  0  0  0
 24 23  1  0  0  0  0
 26 17  1  0  0  0  0
 27 26  1  0  0  0  0
 29 28  1  0  0  0  0
 29 27  1  0  0  0  0
 30 27  1  0  0  0  0
 31 32  1  0  0  0  0
 31 30  1  0  0  0  0
 33  3  1  0  0  0  0
 34 37  1  0  0  0  0
 34 33  1  0  0  0  0
 35 34  1  0  0  0  0
 36 34  1  0  0  0  0
M  END
>  <MODEL>
2

>  <REMARK>
 VINA RESULT:      -9.1      3.662      6.991
  Name = 
  8 active torsions:
  status: ('A' for Active; 'I' for Inactive)
    1  A    between atoms: C_1  and  N_4
    2  A    between atoms: C_1  and  C_27
    3  A    between atoms: C_2  and  O_22
    4  A    between atoms: N_4  and  C_12
    5  A    between atoms: N_4  and  C_37
    6  A    between atoms: C_6  and  O_22
    7  A    between atoms: N_8  and  C_12
    8  A    between atoms: C_23  and  C_30
                            x       y       z     vdW  Elec       q    Type
                         _______ _______ _______ _____ _____    ______ ____

>  <TORSDO>
F 8

$$$$
=
 OpenBabel11122411453D

 37 42  0  0  1  0  0  0  0  0999 V2000
  186.3570  178.7150  142.6380 C   0  0  1  0  0  3  0  0  0  0  0  0
  189.8650  178.4000  143.0620 C   0  0  0  0  0  2  0  0  0  0  0  0
  184.4120  178.9350  140.8690 C   0  0  2  0  0  3  0  0  0  0  0  0
  187.5270  177.8200  142.2690 C   0  0  2  0  0  3  0  0  0  0  0  0
  185.8780  179.2540  141.2830 C   0  0  2  0  0  3  0  0  0  0  0  0
  188.5940  177.6030  143.3660 C   0  0  2  0  0  3  0  0  0  0  0  0
  183.6890  178.0500  141.8850 C   0  0  0  0  0  2  0  0  0  0  0  0
  186.9240  178.7970  140.2730 C   0  0  0  0  0  2  0  0  0  0  0  0
  185.6110  177.8280  144.8700 C   0  0  0  0  0  2  0  0  0  0  0  0
  184.0290  178.4350  143.1840 O   0  0  0  0  0  0  0  0  0  0  0  0
  190.5170  176.3720  141.8260 O   0  0  0  0  0  0  0  0  0  0  0  0
  190.8370  177.7230  142.0730 C   0  0  1  0  0  3  0  0  0  0  0  0
  185.3020  177.8860  143.3810 C   0  0  1  0  0  3  0  0  0  0  0  0
  188.0940  178.3490  141.0290 N   0  0  2  0  0  0  0  0  0  0  0  0
  188.1180  177.8120  144.8200 C   0  0  1  0  0  3  0  0  0  0  0  0
  190.3190  177.2550  140.7390 C   0  0  2  0  0  3  0  0  0  0  0  0
  188.8200  177.2410  140.3830 C   0  0  2  0  0  3  0  0  0  0  0  0
  186.8620  177.0040  145.1400 C   0  0  0  0  0  2  0  0  0  0  0  0
  189.1210  177.9670  147.1090 C   0  0  0  0  0  3  0  0  0  0  0  0
  189.1940  177.4600  145.8070 C   0  0  0  0  0  0  0  0  0  0  0  0
  190.2730  176.6400  145.4410 C   0  0  0  0  0  3  0  0  0  0  0  0
  192.3360  175.5260  146.0040 O   0  0  0  0  0  1  0  0  0  0  0  0
  191.1960  176.8550  147.6700 C   0  0  0  0  0  3  0  0  0  0  0  0
  191.2700  176.3390  146.3710 C   0  0  0  0  0  0  0  0  0  0  0  0
  190.1190  177.6650  148.0400 C   0  0  0  0  0  3  0  0  0  0  0  0
  188.7110  177.2410  138.8410 C   0  0  0  0  0  2  0  0  0  0  0  0
  188.7800  175.8980  138.2470 N   0  0  0  0  0  0  0  0  0  0  0  0
  186.9880  176.9940  137.0140 C   0  0  0  0  0  1  0  0  0  0  0  0
  187.6160  175.6650  137.3980 C   0  0  0  0  0  2  0  0  0  0  0  0
  189.9730  175.7870  137.4180 C   0  0  0  0  0  2  0  0  0  0  0  0
  190.8400  174.7420  137.9480 N   0  0  0  0  0  2  0  0  0  0  0  0
  190.3850  173.5690  137.4490 O   0  0  0  0  0  1  0  0  0  0  0  0
  184.3400  178.3230  139.6000 O   0  0  0  0  0  0  0  0  0  0  0  0
  183.3970  179.0210  138.8170 C   0  0  0  0  0  0  0  0  0  0  0  0
  182.1080  178.8200  139.2940 F   0  0  0  0  0  0  0  0  0  0  0  0
  183.6780  180.3800  138.7920 F   0  0  0  0  0  0  0  0  0  0  0  0
  183.4640  178.5390  137.5230 F   0  0  0  0  0  0  0  0  0  0  0  0
  1 13  1  0  0  0  0
  2  6  1  0  0  0  0
  3  5  1  0  0  0  0
  3  7  1  0  0  0  0
  4  1  1  0  0  0  0
  4  6  1  0  0  0  0
  5  1  1  0  0  0  0
  6 15  1  0  0  0  0
  7 10  1  0  0  0  0
  8 14  1  0  0  0  0
  8  5  1  0  0  0  0
  9 18  1  0  0  0  0
 10 13  1  0  0  0  0
 11 12  1  0  0  0  0
 12  2  1  0  0  0  0
 13  9  1  0  0  0  0
 14  4  1  0  0  0  0
 15 18  1  0  0  0  0
 15 20  1  0  0  0  0
 16 11  1  0  0  0  0
 16 12  1  0  0  0  0
 17 16  1  0  0  0  0
 17 14  1  0  0  0  0
 19 25  1  0  0  0  0
 20 19  2  0  0  0  0
 21 20  1  0  0  0  0
 21 24  2  0  0  0  0
 22 24  1  0  0  0  0
 23 25  2  0  0  0  0
 24 23  1  0  0  0  0
 26 17  1  0  0  0  0
 27 26  1  0  0  0  0
 28 29  1  0  0  0  0
 29 27  1  0  0  0  0
 30 31  1  0  0  0  0
 30 27  1  0  0  0  0
 32 31  1  0  0  0  0
 33  3  1  0  0  0  0
 34 35  1  0  0  0  0
 34 33  1  0  0  0  0
 36 34  1  0  0  0  0
 37 34  1  0  0  0  0
M  END
>  <MODEL>
3

>  <REMARK>
 VINA RESULT:      -8.6      3.782      6.985
  Name = 
  8 active torsions:
  status: ('A' for Active; 'I' for Inactive)
    1  A    between atoms: C_1  and  N_4
    2  A    between atoms: C_1  and  C_27
    3  A    between atoms: C_2  and  O_22
    4  A    between atoms: N_4  and  C_12
    5  A    between atoms: N_4  and  C_37
    6  A    between atoms: C_6  and  O_22
    7  A    between atoms: N_8  and  C_12
    8  A    between atoms: C_23  and  C_30
                            x       y       z     vdW  Elec       q    Type
                         _______ _______ _______ _____ _____    ______ ____

>  <TORSDO>
F 8

$$$$
=
 OpenBabel11122411453D

 37 42  0  0  1  0  0  0  0  0999 V2000
  187.3110  177.5160  142.2670 C   0  0  1  0  0  3  0  0  0  0  0  0
  190.5070  175.9800  142.1710 C   0  0  0  0  0  2  0  0  0  0  0  0
  185.4520  178.5250  143.8450 C   0  0  2  0  0  3  0  0  0  0  0  0
  188.7570  177.7450  142.6710 C   0  0  2  0  0  3  0  0  0  0  0  0
  186.5700  177.4660  143.6110 C   0  0  2  0  0  3  0  0  0  0  0  0
  189.8300  177.2580  141.6710 C   0  0  2  0  0  3  0  0  0  0  0  0
  185.3220  179.5140  142.6870 C   0  0  0  0  0  2  0  0  0  0  0  0
  187.6600  177.4650  144.6750 C   0  0  0  0  0  2  0  0  0  0  0  0
  187.2120  178.3620  139.9010 C   0  0  0  0  0  2  0  0  0  0  0  0
  185.4720  178.8480  141.4680 O   0  0  0  0  0  0  0  0  0  0  0  0
  192.0470  177.5510  143.2790 O   0  0  0  0  0  0  0  0  0  0  0  0
  191.6470  176.2010  143.1880 C   0  0  1  0  0  3  0  0  0  0  0  0
  186.8540  178.6580  141.3510 C   0  0  1  0  0  3  0  0  0  0  0  0
  188.9250  177.1680  144.0030 N   0  0  2  0  0  0  0  0  0  0  0  0
  189.3750  177.1310  140.2010 C   0  0  1  0  0  3  0  0  0  0  0  0
  191.3830  177.0320  144.4160 C   0  0  2  0  0  3  0  0  0  0  0  0
  190.0860  177.8380  144.6170 C   0  0  2  0  0  3  0  0  0  0  0  0
  188.7170  178.4090  139.6860 C   0  0  0  0  0  2  0  0  0  0  0  0
  191.8060  177.2240  139.6100 C   0  0  0  0  0  3  0  0  0  0  0  0
  190.5200  176.7690  139.3000 C   0  0  0  0  0  0  0  0  0  0  0  0
  190.3180  175.9910  138.1480 C   0  0  0  0  0  3  0  0  0  0  0  0
  191.1910  174.9090  136.1780 O   0  0  0  0  0  1  0  0  0  0  0  0
  192.6790  176.1440  137.6270 C   0  0  0  0  0  3  0  0  0  0  0  0
  191.3960  175.6800  137.3160 C   0  0  0  0  0  0  0  0  0  0  0  0
  192.8850  176.9130  138.7760 C   0  0  0  0  0  3  0  0  0  0  0  0
  189.9290  178.0900  146.1340 C   0  0  0  0  0  2  0  0  0  0  0  0
  190.0890  176.8790  146.9510 N   0  0  0  0  0  0  0  0  0  0  0  0
  192.1140  175.7120  147.6390 C   0  0  0  0  0  1  0  0  0  0  0  0
  191.2920  176.9830  147.7710 C   0  0  0  0  0  2  0  0  0  0  0  0
  188.9460  176.7320  147.8430 C   0  0  0  0  0  2  0  0  0  0  0  0
  188.7590  177.9620  148.6030 N   0  0  0  0  0  2  0  0  0  0  0  0
  187.4600  178.3140  148.4600 O   0  0  0  0  0  1  0  0  0  0  0  0
  185.6490  179.2480  145.0400 O   0  0  0  0  0  0  0  0  0  0  0  0
  184.7540  178.7570  146.0140 C   0  0  0  0  0  0  0  0  0  0  0  0
  183.4370  178.9870  145.6410 F   0  0  0  0  0  0  0  0  0  0  0  0
  184.9470  177.4000  146.2300 F   0  0  0  0  0  0  0  0  0  0  0  0
  184.9950  179.4240  147.2010 F   0  0  0  0  0  0  0  0  0  0  0  0
  1  4  1  0  0  0  0
  1  5  1  0  0  0  0
  2 12  1  0  0  0  0
  3 33  1  0  0  0  0
  4 14  1  0  0  0  0
  5  3  1  0  0  0  0
  5  8  1  0  0  0  0
  6  2  1  0  0  0  0
  6  4  1  0  0  0  0
  7  3  1  0  0  0  0
  9 13  1  0  0  0  0
 10  7  1  0  0  0  0
 11 16  1  0  0  0  0
 12 11  1  0  0  0  0
 12 16  1  0  0  0  0
 13 10  1  0  0  0  0
 13  1  1  0  0  0  0
 14 17  1  0  0  0  0
 14  8  1  0  0  0  0
 15  6  1  0  0  0  0
 16 17  1  0  0  0  0
 17 26  1  0  0  0  0
 18  9  1  0  0  0  0
 18 15  1  0  0  0  0
 20 19  1  0  0  0  0
 20 15  1  0  0  0  0
 21 20  2  0  0  0  0
 22 24  1  0  0  0  0
 23 25  1  0  0  0  0
 24 23  2  0  0  0  0
 24 21  1  0  0  0  0
 25 19  2  0  0  0  0
 26 27  1  0  0  0  0
 27 29  1  0  0  0  0
 27 30  1  0  0  0  0
 28 29  1  0  0  0  0
 30 31  1  0  0  0  0
 32 31  1  0  0  0  0
 33 34  1  0  0  0  0
 34 36  1  0  0  0  0
 34 37  1  0  0  0  0
 35 34  1  0  0  0  0
M  END
>  <MODEL>
4

>  <REMARK>
 VINA RESULT:      -8.6      3.371      8.152
  Name = 
  8 active torsions:
  status: ('A' for Active; 'I' for Inactive)
    1  A    between atoms: C_1  and  N_4
    2  A    between atoms: C_1  and  C_27
    3  A    between atoms: C_2  and  O_22
    4  A    between atoms: N_4  and  C_12
    5  A    between atoms: N_4  and  C_37
    6  A    between atoms: C_6  and  O_22
    7  A    between atoms: N_8  and  C_12
    8  A    between atoms: C_23  and  C_30
                            x       y       z     vdW  Elec       q    Type
                         _______ _______ _______ _____ _____    ______ ____

>  <TORSDO>
F 8

$$$$
=
 OpenBabel11122411453D

 37 42  0  0  1  0  0  0  0  0999 V2000
  187.3880  178.5620  141.8410 C   0  0  1  0  0  3  0  0  0  0  0  0
  188.7850  178.5620  138.5800 C   0  0  0  0  0  2  0  0  0  0  0  0
  185.1690  178.8780  143.2340 C   0  0  2  0  0  3  0  0  0  0  0  0
  187.2630  177.8800  140.4900 C   0  0  2  0  0  3  0  0  0  0  0  0
  186.0390  179.2770  142.0060 C   0  0  2  0  0  3  0  0  0  0  0  0
  188.5860  177.5900  139.7460 C   0  0  2  0  0  3  0  0  0  0  0  0
  185.7940  177.7540  144.0610 C   0  0  0  0  0  2  0  0  0  0  0  0
  185.3320  179.1210  140.6650 C   0  0  0  0  0  2  0  0  0  0  0  0
  189.1540  177.2190  143.0240 C   0  0  0  0  0  2  0  0  0  0  0  0
  187.1750  177.9390  144.1560 O   0  0  0  0  0  0  0  0  0  0  0  0
  187.5320  176.8660  137.3060 O   0  0  0  0  0  0  0  0  0  0  0  0
  188.0450  178.1800  137.2800 C   0  0  1  0  0  3  0  0  0  0  0  0
  187.6630  177.5050  142.9170 C   0  0  1  0  0  3  0  0  0  0  0  0
  186.3320  178.6780  139.6930 N   0  0  2  0  0  0  0  0  0  0  0  0
  189.8480  177.4860  140.6290 C   0  0  1  0  0  3  0  0  0  0  0  0
  186.5670  177.9000  137.3330 C   0  0  2  0  0  3  0  0  0  0  0  0
  185.7840  177.7870  138.6540 C   0  0  2  0  0  3  0  0  0  0  0  0
  189.6670  176.5030  141.7830 C   0  0  0  0  0  2  0  0  0  0  0  0
  192.3190  177.5150  140.2310 C   0  0  0  0  0  3  0  0  0  0  0  0
  191.0510  177.0850  139.8260 C   0  0  0  0  0  0  0  0  0  0  0  0
  190.9210  176.2950  138.6720 C   0  0  0  0  0  3  0  0  0  0  0  0
  191.9200  175.1640  136.7910 O   0  0  0  0  0  1  0  0  0  0  0  0
  193.3190  176.3860  138.3370 C   0  0  0  0  0  3  0  0  0  0  0  0
  192.0530  175.9470  137.9310 C   0  0  0  0  0  0  0  0  0  0  0  0
  193.4520  177.1660  139.4890 C   0  0  0  0  0  3  0  0  0  0  0  0
  184.2950  178.0470  138.3340 C   0  0  0  0  0  2  0  0  0  0  0  0
  183.4290  176.8840  138.5780 N   0  0  0  0  0  0  0  0  0  0  0  0
  181.7380  177.5470  140.2010 C   0  0  0  0  0  1  0  0  0  0  0  0
  182.0430  177.3140  138.7320 C   0  0  0  0  0  2  0  0  0  0  0  0
  183.4960  175.9730  137.4430 C   0  0  0  0  0  2  0  0  0  0  0  0
  183.7760  174.6230  137.9160 N   0  0  0  0  0  2  0  0  0  0  0  0
  185.0520  174.3440  137.5620 O   0  0  0  0  0  1  0  0  0  0  0  0
  183.8650  178.4960  142.8580 O   0  0  0  0  0  0  0  0  0  0  0  0
  182.9440  179.1410  143.7100 C   0  0  0  0  0  0  0  0  0  0  0  0
  183.5130  180.2640  144.2970 F   0  0  0  0  0  0  0  0  0  0  0  0
  181.7980  179.5060  143.0190 F   0  0  0  0  0  0  0  0  0  0  0  0
  182.5860  178.2580  144.7120 F   0  0  0  0  0  0  0  0  0  0  0  0
  1  5  1  0  0  0  0
  1 13  1  0  0  0  0
  2  6  1  0  0  0  0
  3  7  1  0  0  0  0
  4  1  1  0  0  0  0
  5  3  1  0  0  0  0
  6  4  1  0  0  0  0
  6 15  1  0  0  0  0
  7 10  1  0  0  0  0
  8  5  1  0  0  0  0
 11 16  1  0  0  0  0
 12 11  1  0  0  0  0
 12 16  1  0  0  0  0
 12  2  1  0  0  0  0
 13  9  1  0  0  0  0
 13 10  1  0  0  0  0
 14  4  1  0  0  0  0
 14  8  1  0  0  0  0
 15 18  1  0  0  0  0
 16 17  1  0  0  0  0
 17 14  1  0  0  0  0
 18  9  1  0  0  0  0
 20 19  1  0  0  0  0
 20 15  1  0  0  0  0
 21 20  2  0  0  0  0
 22 24  1  0  0  0  0
 23 25  1  0  0  0  0
 24 23  2  0  0  0  0
 24 21  1  0  0  0  0
 25 19  2  0  0  0  0
 26 27  1  0  0  0  0
 26 17  1  0  0  0  0
 27 29  1  0  0  0  0
 29 28  1  0  0  0  0
 30 31  1  0  0  0  0
 30 27  1  0  0  0  0
 32 31  1  0  0  0  0
 33  3  1  0  0  0  0
 33 34  1  0  0  0  0
 34 35  1  0  0  0  0
 34 37  1  0  0  0  0
 36 34  1  0  0  0  0
M  END
>  <MODEL>
5

>  <REMARK>
 VINA RESULT:      -7.7      3.743      7.589
  Name = 
  8 active torsions:
  status: ('A' for Active; 'I' for Inactive)
    1  A    between atoms: C_1  and  N_4
    2  A    between atoms: C_1  and  C_27
    3  A    between atoms: C_2  and  O_22
    4  A    between atoms: N_4  and  C_12
    5  A    between atoms: N_4  and  C_37
    6  A    between atoms: C_6  and  O_22
    7  A    between atoms: N_8  and  C_12
    8  A    between atoms: C_23  and  C_30
                            x       y       z     vdW  Elec       q    Type
                         _______ _______ _______ _____ _____    ______ ____

>  <TORSDO>
F 8

$$$$
=
 OpenBabel11122411453D

 37 42  0  0  1  0  0  0  0  0999 V2000
  190.0920  177.7770  142.8670 C   0  0  1  0  0  3  0  0  0  0  0  0
  187.2290  179.2060  141.3340 C   0  0  0  0  0  2  0  0  0  0  0  0
  191.1400  176.9830  145.1550 C   0  0  2  0  0  3  0  0  0  0  0  0
  188.6030  177.5490  142.6750 C   0  0  2  0  0  3  0  0  0  0  0  0
  190.2280  177.9810  144.3830 C   0  0  2  0  0  3  0  0  0  0  0  0
  188.0310  177.9040  141.2840 C   0  0  2  0  0  3  0  0  0  0  0  0
  191.7130  175.8870  144.2550 C   0  0  0  0  0  2  0  0  0  0  0  0
  188.8010  178.0580  144.9110 C   0  0  0  0  0  2  0  0  0  0  0  0
  191.1250  176.7020  140.8430 C   0  0  0  0  0  2  0  0  0  0  0  0
  192.0770  176.4240  143.0180 O   0  0  0  0  0  0  0  0  0  0  0  0
  185.3500  177.7110  141.8820 O   0  0  0  0  0  0  0  0  0  0  0  0
  185.7730  179.0560  141.8230 C   0  0  1  0  0  3  0  0  0  0  0  0
  190.8620  176.5620  142.3360 C   0  0  1  0  0  3  0  0  0  0  0  0
  187.9190  178.2510  143.7600 N   0  0  2  0  0  0  0  0  0  0  0  0
  189.0430  177.8960  140.1170 C   0  0  1  0  0  3  0  0  0  0  0  0
  185.5060  178.3590  143.1310 C   0  0  2  0  0  3  0  0  0  0  0  0
  186.5990  177.6140  143.9190 C   0  0  2  0  0  3  0  0  0  0  0  0
  189.8340  176.5920  140.0450 C   0  0  0  0  0  2  0  0  0  0  0  0
  189.0570  178.8060  137.7840 C   0  0  0  0  0  3  0  0  0  0  0  0
  188.3650  178.1340  138.7990 C   0  0  0  0  0  0  0  0  0  0  0  0
  187.0480  177.7030  138.5730 C   0  0  0  0  0  3  0  0  0  0  0  0
  185.1290  177.5200  137.1250 O   0  0  0  0  0  1  0  0  0  0  0  0
  187.1260  178.6280  136.3350 C   0  0  0  0  0  3  0  0  0  0  0  0
  186.4320  177.9500  137.3440 C   0  0  0  0  0  0  0  0  0  0  0  0
  188.4400  179.0520  136.5540 C   0  0  0  0  0  3  0  0  0  0  0  0
  186.1280  177.5190  145.3880 C   0  0  0  0  0  2  0  0  0  0  0  0
  185.5430  178.7670  145.9000 N   0  0  0  0  0  0  0  0  0  0  0  0
  183.2730  179.0030  145.0480 C   0  0  0  0  0  1  0  0  0  0  0  0
  184.1340  178.5650  146.2210 C   0  0  0  0  0  2  0  0  0  0  0  0
  186.2310  179.1690  147.1190 C   0  0  0  0  0  2  0  0  0  0  0  0
  186.8930  178.0110  147.7090 N   0  0  0  0  0  2  0  0  0  0  0  0
  187.9460  178.4840  148.4170 O   0  0  0  0  0  1  0  0  0  0  0  0
  190.4670  176.3780  146.2370 O   0  0  0  0  0  0  0  0  0  0  0  0
  191.3400  176.3410  147.3440 C   0  0  0  0  0  0  0  0  0  0  0  0
  192.6660  176.3740  146.9340 F   0  0  0  0  0  0  0  0  0  0  0  0
  191.0930  177.3970  148.2090 F   0  0  0  0  0  0  0  0  0  0  0  0
  191.1230  175.1580  148.0280 F   0  0  0  0  0  0  0  0  0  0  0  0
  1  5  1  0  0  0  0
  2 12  1  0  0  0  0
  3 33  1  0  0  0  0
  4  1  1  0  0  0  0
  4 14  1  0  0  0  0
  5  8  1  0  0  0  0
  5  3  1  0  0  0  0
  6  2  1  0  0  0  0
  6  4  1  0  0  0  0
  7  3  1  0  0  0  0
  9 13  1  0  0  0  0
 10  7  1  0  0  0  0
 11 16  1  0  0  0  0
 12 11  1  0  0  0  0
 12 16  1  0  0  0  0
 13  1  1  0  0  0  0
 13 10  1  0  0  0  0
 14 17  1  0  0  0  0
 14  8  1  0  0  0  0
 15  6  1  0  0  0  0
 16 17  1  0  0  0  0
 17 26  1  0  0  0  0
 18 15  1  0  0  0  0
 18  9  1  0  0  0  0
 19 20  1  0  0  0  0
 20 15  1  0  0  0  0
 21 20  2  0  0  0  0
 22 24  1  0  0  0  0
 23 25  1  0  0  0  0
 23 24  2  0  0  0  0
 24 21  1  0  0  0  0
 25 19  2  0  0  0  0
 26 27  1  0  0  0  0
 27 29  1  0  0  0  0
 27 30  1  0  0  0  0
 28 29  1  0  0  0  0
 30 31  1  0  0  0  0
 31 32  1  0  0  0  0
 33 34  1  0  0  0  0
 34 37  1  0  0  0  0
 34 36  1  0  0  0  0
 35 34  1  0  0  0  0
M  END
>  <MODEL>
6

>  <REMARK>
 VINA RESULT:      -7.6      2.576      6.449
  Name = 
  8 active torsions:
  status: ('A' for Active; 'I' for Inactive)
    1  A    between atoms: C_1  and  N_4
    2  A    between atoms: C_1  and  C_27
    3  A    between atoms: C_2  and  O_22
    4  A    between atoms: N_4  and  C_12
    5  A    between atoms: N_4  and  C_37
    6  A    between atoms: C_6  and  O_22
    7  A    between atoms: N_8  and  C_12
    8  A    between atoms: C_23  and  C_30
                            x       y       z     vdW  Elec       q    Type
                         _______ _______ _______ _____ _____    ______ ____

>  <TORSDO>
F 8

$$$$
=
 OpenBabel11122411453D

 37 42  0  0  1  0  0  0  0  0999 V2000
  187.5870  178.4380  142.1310 C   0  0  1  0  0  3  0  0  0  0  0  0
  188.8690  178.6340  138.8290 C   0  0  0  0  0  2  0  0  0  0  0  0
  185.4210  178.6750  143.6190 C   0  0  2  0  0  3  0  0  0  0  0  0
  187.4100  177.8410  140.7460 C   0  0  2  0  0  3  0  0  0  0  0  0
  186.2490  179.1460  142.3880 C   0  0  2  0  0  3  0  0  0  0  0  0
  188.7050  177.5930  139.9390 C   0  0  2  0  0  3  0  0  0  0  0  0
  186.0670  177.5000  144.3530 C   0  0  0  0  0  2  0  0  0  0  0  0
  185.4950  179.0760  141.0660 C   0  0  0  0  0  2  0  0  0  0  0  0
  189.3860  177.0180  143.1660 C   0  0  0  0  0  2  0  0  0  0  0  0
  187.4530  177.6730  144.4100 O   0  0  0  0  0  0  0  0  0  0  0  0
  187.5610  177.0250  137.4980 O   0  0  0  0  0  0  0  0  0  0  0  0
  188.0810  178.3360  137.5350 C   0  0  1  0  0  3  0  0  0  0  0  0
  187.8940  177.3150  143.1300 C   0  0  1  0  0  3  0  0  0  0  0  0
  186.4570  178.6900  140.0330 N   0  0  2  0  0  0  0  0  0  0  0  0
  189.9970  177.4300  140.7690 C   0  0  1  0  0  3  0  0  0  0  0  0
  186.6040  178.0600  137.6230 C   0  0  2  0  0  3  0  0  0  0  0  0
  185.8680  177.8670  138.9620 C   0  0  2  0  0  3  0  0  0  0  0  0
  189.8510  176.3780  141.8660 C   0  0  0  0  0  2  0  0  0  0  0  0
  192.4490  177.5030  140.2680 C   0  0  0  0  0  3  0  0  0  0  0  0
  191.1680  177.0750  139.9000 C   0  0  0  0  0  0  0  0  0  0  0  0
  190.9980  176.3310  138.7210 C   0  0  0  0  0  3  0  0  0  0  0  0
  191.9260  175.2880  136.7560 O   0  0  0  0  0  1  0  0  0  0  0  0
  193.3780  176.4620  138.2900 C   0  0  0  0  0  3  0  0  0  0  0  0
  192.1000  176.0260  137.9200 C   0  0  0  0  0  0  0  0  0  0  0  0
  193.5520  177.1970  139.4660 C   0  0  0  0  0  3  0  0  0  0  0  0
  184.3690  178.1520  138.7110 C   0  0  0  0  0  2  0  0  0  0  0  0
  183.8030  177.3830  137.5930 N   0  0  0  0  0  0  0  0  0  0  0  0
  182.6790  175.9220  139.1850 C   0  0  0  0  0  1  0  0  0  0  0  0
  183.6110  175.9910  137.9880 C   0  0  0  0  0  2  0  0  0  0  0  0
  182.5050  177.9320  137.2260 C   0  0  0  0  0  2  0  0  0  0  0  0
  182.2690  179.1650  137.9690 N   0  0  0  0  0  2  0  0  0  0  0  0
  181.0300  179.0650  138.5040 O   0  0  0  0  0  1  0  0  0  0  0  0
  184.1020  178.3210  143.2660 O   0  0  0  0  0  0  0  0  0  0  0  0
  183.2100  179.0090  144.1160 C   0  0  0  0  0  0  0  0  0  0  0  0
  181.8910  178.7380  143.7770 F   0  0  0  0  0  0  0  0  0  0  0  0
  183.4280  178.6730  145.4440 F   0  0  0  0  0  0  0  0  0  0  0  0
  183.4300  180.3660  143.9690 F   0  0  0  0  0  0  0  0  0  0  0  0
  1  5  1  0  0  0  0
  1 13  1  0  0  0  0
  2  6  1  0  0  0  0
  3  7  1  0  0  0  0
  4  1  1  0  0  0  0
  5  3  1  0  0  0  0
  6  4  1  0  0  0  0
  6 15  1  0  0  0  0
  7 10  1  0  0  0  0
  8  5  1  0  0  0  0
 11 12  1  0  0  0  0
 11 16  1  0  0  0  0
 12 16  1  0  0  0  0
 12  2  1  0  0  0  0
 13  9  1  0  0  0  0
 13 10  1  0  0  0  0
 14  4  1  0  0  0  0
 14  8  1  0  0  0  0
 15 18  1  0  0  0  0
 16 17  1  0  0  0  0
 17 14  1  0  0  0  0
 18  9  1  0  0  0  0
 20 19  1  0  0  0  0
 20 15  1  0  0  0  0
 21 20  2  0  0  0  0
 22 24  1  0  0  0  0
 23 25  1  0  0  0  0
 24 23  2  0  0  0  0
 24 21  1  0  0  0  0
 25 19  2  0  0  0  0
 26 17  1  0  0  0  0
 27 29  1  0  0  0  0
 27 26  1  0  0  0  0
 29 28  1  0  0  0  0
 30 27  1  0  0  0  0
 30 31  1  0  0  0  0
 31 32  1  0  0  0  0
 33  3  1  0  0  0  0
 33 34  1  0  0  0  0
 34 36  1  0  0  0  0
 35 34  1  0  0  0  0
 37 34  1  0  0  0  0
M  END
>  <MODEL>
7

>  <REMARK>
 VINA RESULT:      -7.5      3.605      7.648
  Name = 
  8 active torsions:
  status: ('A' for Active; 'I' for Inactive)
    1  A    between atoms: C_1  and  N_4
    2  A    between atoms: C_1  and  C_27
    3  A    between atoms: C_2  and  O_22
    4  A    between atoms: N_4  and  C_12
    5  A    between atoms: N_4  and  C_37
    6  A    between atoms: C_6  and  O_22
    7  A    between atoms: N_8  and  C_12
    8  A    between atoms: C_23  and  C_30
                            x       y       z     vdW  Elec       q    Type
                         _______ _______ _______ _____ _____    ______ ____

>  <TORSDO>
F 8

$$$$
=
 OpenBabel11122411453D

 37 42  0  0  1  0  0  0  0  0999 V2000
  190.0520  176.8380  141.8770 C   0  0  1  0  0  3  0  0  0  0  0  0
  186.9290  177.1220  143.5370 C   0  0  0  0  0  2  0  0  0  0  0  0
  191.2430  176.7750  139.5230 C   0  0  2  0  0  3  0  0  0  0  0  0
  188.8580  177.7660  142.0210 C   0  0  2  0  0  3  0  0  0  0  0  0
  190.0050  176.4240  140.3990 C   0  0  2  0  0  3  0  0  0  0  0  0
  188.2520  177.8840  143.4380 C   0  0  2  0  0  3  0  0  0  0  0  0
  192.3060  177.5620  140.2890 C   0  0  0  0  0  2  0  0  0  0  0  0
  188.6870  176.9740  139.8660 C   0  0  0  0  0  2  0  0  0  0  0  0
  191.5640  177.5160  143.7680 C   0  0  0  0  0  2  0  0  0  0  0  0
  192.4310  177.0610  141.5880 O   0  0  0  0  0  0  0  0  0  0  0  0
  185.9550  179.2570  142.7870 O   0  0  0  0  0  0  0  0  0  0  0  0
  185.6950  177.8890  143.0150 C   0  0  1  0  0  3  0  0  0  0  0  0
  191.3280  177.5930  142.2660 C   0  0  1  0  0  3  0  0  0  0  0  0
  187.8740  177.3540  141.0210 N   0  0  2  0  0  0  0  0  0  0  0  0
  189.2010  177.5430  144.6080 C   0  0  1  0  0  3  0  0  0  0  0  0
  185.7280  178.4760  141.6290 C   0  0  2  0  0  3  0  0  0  0  0  0
  187.0060  178.5180  140.7690 C   0  0  2  0  0  3  0  0  0  0  0  0
  190.5160  178.3140  144.5310 C   0  0  0  0  0  2  0  0  0  0  0  0
  189.2860  177.5910  147.1100 C   0  0  0  0  0  3  0  0  0  0  0  0
  188.5540  177.8060  145.9360 C   0  0  0  0  0  0  0  0  0  0  0  0
  187.2260  178.2530  146.0200 C   0  0  0  0  0  3  0  0  0  0  0  0
  185.3240  178.9200  147.3440 O   0  0  0  0  0  1  0  0  0  0  0  0
  187.3730  178.2530  148.4380 C   0  0  0  0  0  3  0  0  0  0  0  0
  186.6390  178.4760  147.2670 C   0  0  0  0  0  0  0  0  0  0  0  0
  188.6980  177.8140  148.3580 C   0  0  0  0  0  3  0  0  0  0  0  0
  186.5660  178.6590  139.2940 C   0  0  0  0  0  2  0  0  0  0  0  0
  185.1470  178.3480  139.0710 N   0  0  0  0  0  0  0  0  0  0  0  0
  182.9500  179.3960  139.1390 C   0  0  0  0  0  1  0  0  0  0  0  0
  184.4090  179.5670  138.7570 C   0  0  0  0  0  2  0  0  0  0  0  0
  185.0150  177.4360  137.9410 C   0  0  0  0  0  2  0  0  0  0  0  0
  186.2390  177.4610  137.1500 N   0  0  0  0  0  2  0  0  0  0  0  0
  186.5330  176.1750  136.8480 O   0  0  0  0  0  1  0  0  0  0  0  0
  190.8850  177.5010  138.3670 O   0  0  0  0  0  0  0  0  0  0  0  0
  191.0890  176.6780  137.2400 C   0  0  0  0  0  0  0  0  0  0  0  0
  190.7860  175.3540  137.5280 F   0  0  0  0  0  0  0  0  0  0  0  0
  190.3250  177.1070  136.1640 F   0  0  0  0  0  0  0  0  0  0  0  0
  192.4240  176.7530  136.8830 F   0  0  0  0  0  0  0  0  0  0  0  0
  1  4  1  0  0  0  0
  1 13  1  0  0  0  0
  3  7  1  0  0  0  0
  3  5  1  0  0  0  0
  4  6  1  0  0  0  0
  5  1  1  0  0  0  0
  6  2  1  0  0  0  0
  6 15  1  0  0  0  0
  7 10  1  0  0  0  0
  8  5  1  0  0  0  0
  8 14  1  0  0  0  0
  9 18  1  0  0  0  0
 10 13  1  0  0  0  0
 11 12  1  0  0  0  0
 12  2  1  0  0  0  0
 13  9  1  0  0  0  0
 14  4  1  0  0  0  0
 15 20  1  0  0  0  0
 16 11  1  0  0  0  0
 16 12  1  0  0  0  0
 17 14  1  0  0  0  0
 17 16  1  0  0  0  0
 18 15  1  0  0  0  0
 19 25  1  0  0  0  0
 20 21  1  0  0  0  0
 20 19  2  0  0  0  0
 21 24  2  0  0  0  0
 24 22  1  0  0  0  0
 24 23  1  0  0  0  0
 25 23  2  0  0  0  0
 26 17  1  0  0  0  0
 27 26  1  0  0  0  0
 29 27  1  0  0  0  0
 29 28  1  0  0  0  0
 30 27  1  0  0  0  0
 31 30  1  0  0  0  0
 32 31  1  0  0  0  0
 33  3  1  0  0  0  0
 34 35  1  0  0  0  0
 34 33  1  0  0  0  0
 36 34  1  0  0  0  0
 37 34  1  0  0  0  0
M  END
>  <MODEL>
8

>  <REMARK>
 VINA RESULT:      -7.5      3.494      6.205
  Name = 
  8 active torsions:
  status: ('A' for Active; 'I' for Inactive)
    1  A    between atoms: C_1  and  N_4
    2  A    between atoms: C_1  and  C_27
    3  A    between atoms: C_2  and  O_22
    4  A    between atoms: N_4  and  C_12
    5  A    between atoms: N_4  and  C_37
    6  A    between atoms: C_6  and  O_22
    7  A    between atoms: N_8  and  C_12
    8  A    between atoms: C_23  and  C_30
                            x       y       z     vdW  Elec       q    Type
                         _______ _______ _______ _____ _____    ______ ____

>  <TORSDO>
F 8

$$$$
=
 OpenBabel11122411453D

 37 42  0  0  1  0  0  0  0  0999 V2000
  185.3680  179.0280  140.9550 C   0  0  1  0  0  3  0  0  0  0  0  0
  188.7770  178.6330  140.0540 C   0  0  0  0  0  2  0  0  0  0  0  0
  182.9080  179.2620  140.0290 C   0  0  2  0  0  3  0  0  0  0  0  0
  186.3020  178.0970  140.2020 C   0  0  2  0  0  3  0  0  0  0  0  0
  184.4280  179.5520  139.8590 C   0  0  2  0  0  3  0  0  0  0  0  0
  187.6970  177.8750  140.8300 C   0  0  2  0  0  3  0  0  0  0  0  0
  182.6010  178.4160  141.2650 C   0  0  0  0  0  2  0  0  0  0  0  0
  185.0160  179.0480  138.5470 C   0  0  0  0  0  2  0  0  0  0  0  0
  185.4920  178.2060  143.3280 C   0  0  0  0  0  2  0  0  0  0  0  0
  183.4060  178.8190  142.3340 O   0  0  0  0  0  0  0  0  0  0  0  0
  188.8900  176.5640  138.7230 O   0  0  0  0  0  0  0  0  0  0  0  0
  189.3000  177.9120  138.7940 C   0  0  1  0  0  3  0  0  0  0  0  0
  184.6510  178.2410  142.0590 C   0  0  1  0  0  3  0  0  0  0  0  0
  186.3760  178.5860  138.8260 N   0  0  2  0  0  0  0  0  0  0  0  0
  187.8000  178.1250  142.3510 C   0  0  1  0  0  3  0  0  0  0  0  0
  188.3150  177.4300  137.7620 C   0  0  2  0  0  3  0  0  0  0  0  0
  186.7920  177.4470  137.9880 C   0  0  2  0  0  3  0  0  0  0  0  0
  186.7400  177.3560  143.1370 C   0  0  0  0  0  2  0  0  0  0  0  0
  189.5570  176.4240  142.8860 C   0  0  0  0  0  3  0  0  0  0  0  0
  189.1590  177.7660  142.8770 C   0  0  0  0  0  0  0  0  0  0  0  0
  190.0300  178.7520  143.3680 C   0  0  0  0  0  3  0  0  0  0  0  0
  192.1420  179.3720  144.3510 O   0  0  0  0  0  1  0  0  0  0  0  0
  191.6740  177.0480  143.8800 C   0  0  0  0  0  3  0  0  0  0  0  0
  191.2840  178.3920  143.8680 C   0  0  0  0  0  0  0  0  0  0  0  0
  190.8130  176.0650  143.3860 C   0  0  0  0  0  3  0  0  0  0  0  0
  186.1170  177.4180  136.5980 C   0  0  0  0  0  2  0  0  0  0  0  0
  185.1080  176.3590  136.4550 N   0  0  0  0  0  0  0  0  0  0  0  0
  182.6860  176.3390  136.2000 C   0  0  0  0  0  1  0  0  0  0  0  0
  184.0040  176.8270  135.6240 C   0  0  0  0  0  2  0  0  0  0  0  0
  185.7020  175.1980  135.8060 C   0  0  0  0  0  2  0  0  0  0  0  0
  186.1360  174.2420  136.8180 N   0  0  0  0  0  2  0  0  0  0  0  0
  185.0460  173.9420  137.5620 O   0  0  0  0  0  1  0  0  0  0  0  0
  182.3600  178.6270  138.8950 O   0  0  0  0  0  0  0  0  0  0  0  0
  181.3990  179.4850  138.3200 C   0  0  0  0  0  0  0  0  0  0  0  0
  181.5170  179.5080  136.9370 F   0  0  0  0  0  0  0  0  0  0  0  0
  180.1140  179.0990  138.6720 F   0  0  0  0  0  0  0  0  0  0  0  0
  181.6160  180.7640  138.7990 F   0  0  0  0  0  0  0  0  0  0  0  0
  1 13  1  0  0  0  0
  2  6  1  0  0  0  0
  3  7  1  0  0  0  0
  4  6  1  0  0  0  0
  4  1  1  0  0  0  0
  5  3  1  0  0  0  0
  5  1  1  0  0  0  0
  6 15  1  0  0  0  0
  7 10  1  0  0  0  0
  8 14  1  0  0  0  0
  8  5  1  0  0  0  0
 11 12  1  0  0  0  0
 12  2  1  0  0  0  0
 13 10  1  0  0  0  0
 13  9  1  0  0  0  0
 14  4  1  0  0  0  0
 15 20  1  0  0  0  0
 15 18  1  0  0  0  0
 16 17  1  0  0  0  0
 16 11  1  0  0  0  0
 16 12  1  0  0  0  0
 17 14  1  0  0  0  0
 18  9  1  0  0  0  0
 19 25  1  0  0  0  0
 20 19  2  0  0  0  0
 20 21  1  0  0  0  0
 21 24  2  0  0  0  0
 24 23  1  0  0  0  0
 24 22  1  0  0  0  0
 25 23  2  0  0  0  0
 26 17  1  0  0  0  0
 27 26  1  0  0  0  0
 29 28  1  0  0  0  0
 29 27  1  0  0  0  0
 30 27  1  0  0  0  0
 30 31  1  0  0  0  0
 31 32  1  0  0  0  0
 33  3  1  0  0  0  0
 34 36  1  0  0  0  0
 34 37  1  0  0  0  0
 34 33  1  0  0  0  0
 35 34  1  0  0  0  0
M  END
>  <MODEL>
9

>  <REMARK>
 VINA RESULT:      -7.2      4.376      7.612
  Name = 
  8 active torsions:
  status: ('A' for Active; 'I' for Inactive)
    1  A    between atoms: C_1  and  N_4
    2  A    between atoms: C_1  and  C_27
    3  A    between atoms: C_2  and  O_22
    4  A    between atoms: N_4  and  C_12
    5  A    between atoms: N_4  and  C_37
    6  A    between atoms: C_6  and  O_22
    7  A    between atoms: N_8  and  C_12
    8  A    between atoms: C_23  and  C_30
                            x       y       z     vdW  Elec       q    Type
                         _______ _______ _______ _____ _____    ______ ____

>  <TORSDO>
F 8

$$$$
