=
 OpenBabel11122411213D

 37 43  0  0  1  0  0  0  0  0999 V2000
  181.2830  179.8470  140.0840 C   0  0  0  0  0  2  0  0  0  0  0  0
  184.9640  178.9790  143.9530 C   0  0  0  0  0  0  0  0  0  0  0  0
  184.8160  178.2430  139.8310 C   0  0  0  0  0  0  0  0  0  0  0  0
  179.8150  180.2130  139.8630 C   0  0  2  0  0  3  0  0  0  0  0  0
  182.1460  175.7670  139.4740 N   0  0  0  0  0  2  0  0  0  0  0  0
  186.2140  178.8300  141.7040 C   0  0  0  0  0  0  0  0  0  0  0  0
  183.3650  177.9670  139.6100 C   0  0  1  0  0  3  0  0  0  0  0  0
  179.8200  178.0820  138.3320 C   0  0  2  0  0  3  0  0  0  0  0  0
  184.9680  178.6930  141.1050 C   0  0  0  0  0  0  0  0  0  0  0  0
  183.1070  176.6590  138.9030 C   0  0  0  0  0  0  0  0  0  0  0  0
  187.3520  178.6280  140.9110 C   0  0  0  0  0  3  0  0  0  0  0  0
  179.1320  179.3900  138.7550 C   0  0  0  0  0  2  0  0  0  0  0  0
  183.6780  178.7770  141.7950 C   0  0  2  0  0  3  0  0  0  0  0  0
  184.5230  180.4100  144.2080 C   0  0  0  0  0  1  0  0  0  0  0  0
  185.8540  177.5110  137.5930 C   0  0  0  0  0  2  0  0  0  0  0  0
  187.2110  178.2530  139.5590 C   0  0  0  0  0  3  0  0  0  0  0  0
  183.8500  178.2130  143.2030 C   0  0  0  0  0  2  0  0  0  0  0  0
  180.0150  177.0500  139.4590 C   0  0  1  0  0  3  0  0  0  0  0  0
  180.7510  175.7680  139.0490 C   0  0  0  0  0  2  0  0  0  0  0  0
  185.9360  178.0410  139.0000 C   0  0  0  0  0  0  0  0  0  0  0  0
  182.7630  177.9820  140.9670 N   0  0  1  0  0  0  0  0  0  0  0  0
  186.3180  178.9940  143.1990 C   0  0  0  0  0  2  0  0  0  0  0  0
  183.6080  176.4380  137.6660 C   0  0  0  0  0  0  0  0  0  0  0  0
  185.1770  178.3110  145.2940 C   0  0  0  0  0  1  0  0  0  0  0  0
  180.3120  177.5610  140.8770 C   0  0  0  0  0  2  0  0  0  0  0  0
  181.0020  178.3460  137.6390 O   0  0  0  0  0  1  0  0  0  0  0  0
  181.4320  178.6060  140.9860 C   0  0  2  0  0  3  0  0  0  0  0  0
  184.4460  177.5020  137.0100 C   0  0  0  0  0  2  0  0  0  0  0  0
  182.5080  175.1600  135.8190 C   0  0  0  0  0  3  0  0  0  0  0  0
  183.3860  175.1750  136.9140 C   0  0  0  0  0  0  0  0  0  0  0  0
  184.0770  173.9960  137.2440 C   0  0  0  0  0  3  0  0  0  0  0  0
  184.5430  171.6940  136.8440 F   0  0  0  0  0  0  0  0  0  0  0  0
  182.9910  172.8210  135.4300 C   0  0  0  0  0  3  0  0  0  0  0  0
  183.8770  172.8240  136.5100 C   0  0  0  0  0  0  0  0  0  0  0  0
  182.3080  173.9890  135.0830 C   0  0  0  0  0  3  0  0  0  0  0  0
  180.5470  182.0510  138.3460 C   0  0  0  0  0  1  0  0  0  0  0  0
  179.6800  181.6890  139.5370 C   0  0  0  0  0  2  0  0  0  0  0  0
  1 27  1  0  0  0  0
  2 14  1  0  0  0  0
  2 24  1  0  0  0  0
  3  9  1  0  0  0  0
  4 37  1  6  0  0  0
  4  1  1  0  0  0  0
  6 22  1  0  0  0  0
  7 10  1  1  0  0  0
  7  3  1  0  0  0  0
  7 21  1  0  0  0  0
  8 26  1  1  0  0  0
  8 12  1  0  0  0  0
  8 18  1  0  0  0  0
  9  6  2  0  0  0  0
  9 13  1  0  0  0  0
 10  5  1  0  0  0  0
 11  6  1  0  0  0  0
 12  4  1  0  0  0  0
 13 17  1  1  0  0  0
 15 20  1  0  0  0  0
 16 11  2  0  0  0  0
 17  2  1  0  0  0  0
 18 19  1  6  0  0  0
 18 25  1  0  0  0  0
 19  5  1  0  0  0  0
 20 16  1  0  0  0  0
 20  3  2  0  0  0  0
 21 27  1  0  0  0  0
 21 13  1  0  0  0  0
 22  2  1  0  0  0  0
 23 10  2  0  0  0  0
 25 27  1  0  0  0  0
 28 15  1  0  0  0  0
 28 23  1  0  0  0  0
 29 30  1  0  0  0  0
 30 31  2  0  0  0  0
 30 23  1  0  0  0  0
 33 34  2  0  0  0  0
 34 32  1  0  0  0  0
 34 31  1  0  0  0  0
 35 33  1  0  0  0  0
 35 29  2  0  0  0  0
 36 37  1  0  0  0  0
M  END
>  <MODEL>
1

>  <REMARK>
 VINA RESULT:      -6.6      0.000      0.000
  Name = 
  2 active torsions:
  status: ('A' for Active; 'I' for Inactive)
    1  A    between atoms: C_4  and  C_37
    2  A    between atoms: C_23  and  C_30
                            x       y       z     vdW  Elec       q    Type
                         _______ _______ _______ _____ _____    ______ ____

>  <TORSDO>
F 2

$$$$
=
 OpenBabel11122411213D

 37 43  0  0  1  0  0  0  0  0999 V2000
  180.2370  179.9540  137.9110 C   0  0  0  0  0  2  0  0  0  0  0  0
  180.4740  178.8360  143.1990 C   0  0  0  0  0  0  0  0  0  0  0  0
  183.1760  178.5180  140.0130 C   0  0  0  0  0  0  0  0  0  0  0  0
  179.2610  180.2840  136.7810 C   0  0  2  0  0  3  0  0  0  0  0  0
  181.6730  175.9920  137.8340 N   0  0  0  0  0  2  0  0  0  0  0  0
  182.9090  178.9640  142.3660 C   0  0  0  0  0  0  0  0  0  0  0  0
  182.2750  178.2110  138.8630 C   0  0  1  0  0  3  0  0  0  0  0  0
  180.4870  178.3210  135.5450 C   0  0  2  0  0  3  0  0  0  0  0  0
  182.3980  178.8420  141.0810 C   0  0  0  0  0  0  0  0  0  0  0  0
  182.6790  176.9730  138.1010 C   0  0  0  0  0  0  0  0  0  0  0  0
  184.2990  178.8870  142.5330 C   0  0  0  0  0  3  0  0  0  0  0  0
  179.5710  179.5520  135.4610 C   0  0  0  0  0  2  0  0  0  0  0  0
  180.9760  178.8060  140.7300 C   0  0  2  0  0  3  0  0  0  0  0  0
  179.8400  180.2170  143.1640 C   0  0  0  0  0  1  0  0  0  0  0  0
  185.5030  178.0570  139.0170 C   0  0  0  0  0  2  0  0  0  0  0  0
  185.1290  178.6460  141.4190 C   0  0  0  0  0  3  0  0  0  0  0  0
  180.2210  178.1100  141.8590 C   0  0  0  0  0  2  0  0  0  0  0  0
  179.9810  177.1880  136.4580 C   0  0  1  0  0  3  0  0  0  0  0  0
  180.9230  175.9840  136.5830 C   0  0  0  0  0  2  0  0  0  0  0  0
  184.5780  178.4440  140.1390 C   0  0  0  0  0  0  0  0  0  0  0  0
  180.9250  178.0650  139.4630 N   0  0  1  0  0  0  0  0  0  0  0  0
  181.9770  178.9800  143.5500 C   0  0  0  0  0  2  0  0  0  0  0  0
  183.8950  176.8980  137.5100 C   0  0  0  0  0  0  0  0  0  0  0  0
  179.8050  178.0440  144.3010 C   0  0  0  0  0  1  0  0  0  0  0  0
  179.2100  177.5640  137.7320 C   0  0  0  0  0  2  0  0  0  0  0  0
  181.7990  178.6990  135.8380 O   0  0  0  0  0  1  0  0  0  0  0  0
  179.8670  178.6340  138.6160 C   0  0  2  0  0  3  0  0  0  0  0  0
  184.8490  178.0550  137.6400 C   0  0  0  0  0  2  0  0  0  0  0  0
  184.4720  175.7870  135.3450 C   0  0  0  0  0  3  0  0  0  0  0  0
  184.3510  175.7100  136.7420 C   0  0  0  0  0  0  0  0  0  0  0  0
  184.7160  174.5170  137.3880 C   0  0  0  0  0  3  0  0  0  0  0  0
  185.5100  172.2730  137.2880 F   0  0  0  0  0  0  0  0  0  0  0  0
  185.2730  173.5050  135.2630 C   0  0  0  0  0  3  0  0  0  0  0  0
  185.1700  173.4190  136.6530 C   0  0  0  0  0  0  0  0  0  0  0  0
  184.9260  174.6900  134.6090 C   0  0  0  0  0  3  0  0  0  0  0  0
  180.3900  182.1830  135.6250 C   0  0  0  0  0  1  0  0  0  0  0  0
  179.2360  181.7790  136.5230 C   0  0  0  0  0  2  0  0  0  0  0  0
  1 27  1  0  0  0  0
  2 22  1  0  0  0  0
  2 24  1  0  0  0  0
  3 20  2  0  0  0  0
  3  9  1  0  0  0  0
  4 37  1  6  0  0  0
  4  1  1  0  0  0  0
  5 10  1  0  0  0  0
  6 11  1  0  0  0  0
  6 22  1  0  0  0  0
  7 10  1  1  0  0  0
  7 21  1  0  0  0  0
  7  3  1  0  0  0  0
  8 26  1  1  0  0  0
  8 18  1  0  0  0  0
  9  6  2  0  0  0  0
 12  8  1  0  0  0  0
 12  4  1  0  0  0  0
 13  9  1  0  0  0  0
 13 17  1  1  0  0  0
 14  2  1  0  0  0  0
 15 20  1  0  0  0  0
 16 11  2  0  0  0  0
 17  2  1  0  0  0  0
 18 19  1  1  0  0  0
 18 25  1  0  0  0  0
 19  5  1  0  0  0  0
 20 16  1  0  0  0  0
 21 13  1  0  0  0  0
 23 28  1  0  0  0  0
 23 10  2  0  0  0  0
 25 27  1  0  0  0  0
 27 21  1  0  0  0  0
 28 15  1  0  0  0  0
 29 30  1  0  0  0  0
 30 31  2  0  0  0  0
 30 23  1  0  0  0  0
 33 34  2  0  0  0  0
 34 32  1  0  0  0  0
 34 31  1  0  0  0  0
 35 33  1  0  0  0  0
 35 29  2  0  0  0  0
 36 37  1  0  0  0  0
M  END
>  <MODEL>
2

>  <REMARK>
 VINA RESULT:      -6.4      1.822      2.792
  Name = 
  2 active torsions:
  status: ('A' for Active; 'I' for Inactive)
    1  A    between atoms: C_4  and  C_37
    2  A    between atoms: C_23  and  C_30
                            x       y       z     vdW  Elec       q    Type
                         _______ _______ _______ _____ _____    ______ ____

>  <TORSDO>
F 2

$$$$
=
 OpenBabel11122411213D

 37 43  0  0  1  0  0  0  0  0999 V2000
  181.4270  179.7580  139.8330 C   0  0  0  0  0  2  0  0  0  0  0  0
  185.6030  178.7170  143.1100 C   0  0  0  0  0  0  0  0  0  0  0  0
  184.8240  178.0350  139.0510 C   0  0  0  0  0  0  0  0  0  0  0  0
  179.9560  180.1760  139.8340 C   0  0  2  0  0  3  0  0  0  0  0  0
  182.0430  175.6570  139.0760 N   0  0  0  0  0  2  0  0  0  0  0  0
  186.5030  178.5520  140.7010 C   0  0  0  0  0  0  0  0  0  0  0  0
  183.3470  177.8120  139.0450 C   0  0  1  0  0  3  0  0  0  0  0  0
  179.6590  178.0650  138.3050 C   0  0  2  0  0  3  0  0  0  0  0  0
  185.1780  178.4650  140.2920 C   0  0  0  0  0  0  0  0  0  0  0  0
  182.9420  176.5220  138.3750 C   0  0  0  0  0  0  0  0  0  0  0  0
  187.5040  178.3190  139.7470 C   0  0  0  0  0  3  0  0  0  0  0  0
  179.0880  179.3900  138.8330 C   0  0  0  0  0  2  0  0  0  0  0  0
  184.0070  178.5850  141.1650 C   0  0  2  0  0  3  0  0  0  0  0  0
  185.2570  180.1600  143.4370 C   0  0  0  0  0  1  0  0  0  0  0  0
  185.4940  177.2940  136.6800 C   0  0  0  0  0  2  0  0  0  0  0  0
  187.1510  177.9650  138.4290 C   0  0  0  0  0  3  0  0  0  0  0  0
  184.3650  177.9990  142.5280 C   0  0  0  0  0  2  0  0  0  0  0  0
  179.9810  177.0130  139.3840 C   0  0  1  0  0  3  0  0  0  0  0  0
  180.6010  175.7120  138.8610 C   0  0  0  0  0  2  0  0  0  0  0  0
  185.8010  177.8040  138.0620 C   0  0  0  0  0  0  0  0  0  0  0  0
  182.9530  177.8320  140.4750 N   0  0  1  0  0  0  0  0  0  0  0  0
  186.8320  178.6940  142.1650 C   0  0  0  0  0  2  0  0  0  0  0  0
  183.2460  176.2990  137.0760 C   0  0  0  0  0  0  0  0  0  0  0  0
  185.9880  178.0260  144.4010 C   0  0  0  0  0  1  0  0  0  0  0  0
  180.5020  177.4970  140.7460 C   0  0  0  0  0  2  0  0  0  0  0  0
  180.7350  178.2950  137.4460 O   0  0  0  0  0  1  0  0  0  0  0  0
  181.6620  178.5020  140.6950 C   0  0  2  0  0  3  0  0  0  0  0  0
  184.0160  177.3410  136.3110 C   0  0  0  0  0  2  0  0  0  0  0  0
  183.7900  173.9940  136.2690 C   0  0  0  0  0  3  0  0  0  0  0  0
  182.8710  175.0530  136.3570 C   0  0  0  0  0  0  0  0  0  0  0  0
  181.5910  174.8860  135.8020 C   0  0  0  0  0  3  0  0  0  0  0  0
  180.0110  173.5530  134.6160 F   0  0  0  0  0  0  0  0  0  0  0  0
  182.1730  172.6570  135.0630 C   0  0  0  0  0  3  0  0  0  0  0  0
  181.2460  173.6970  135.1540 C   0  0  0  0  0  0  0  0  0  0  0  0
  183.4450  172.8050  135.6220 C   0  0  0  0  0  3  0  0  0  0  0  0
  179.8560  181.9100  138.0440 C   0  0  0  0  0  1  0  0  0  0  0  0
  179.8280  181.6600  139.5400 C   0  0  0  0  0  2  0  0  0  0  0  0
  1  4  1  0  0  0  0
  1 27  1  0  0  0  0
  2 14  1  0  0  0  0
  2 24  1  0  0  0  0
  3  9  1  0  0  0  0
  4 37  1  6  0  0  0
  6 22  1  0  0  0  0
  7 10  1  1  0  0  0
  7  3  1  0  0  0  0
  7 21  1  0  0  0  0
  8 26  1  1  0  0  0
  8 12  1  0  0  0  0
  8 18  1  0  0  0  0
  9  6  2  0  0  0  0
  9 13  1  0  0  0  0
 10  5  1  0  0  0  0
 11  6  1  0  0  0  0
 12  4  1  0  0  0  0
 13 17  1  1  0  0  0
 15 20  1  0  0  0  0
 16 11  2  0  0  0  0
 17  2  1  0  0  0  0
 18 19  1  6  0  0  0
 18 25  1  0  0  0  0
 19  5  1  0  0  0  0
 20 16  1  0  0  0  0
 20  3  2  0  0  0  0
 21 27  1  0  0  0  0
 21 13  1  0  0  0  0
 22  2  1  0  0  0  0
 23 10  2  0  0  0  0
 27 25  1  0  0  0  0
 28 15  1  0  0  0  0
 28 23  1  0  0  0  0
 29 30  1  0  0  0  0
 30 23  1  0  0  0  0
 31 30  2  0  0  0  0
 32 34  1  0  0  0  0
 33 34  2  0  0  0  0
 33 35  1  0  0  0  0
 34 31  1  0  0  0  0
 35 29  2  0  0  0  0
 36 37  1  0  0  0  0
M  END
>  <MODEL>
3

>  <REMARK>
 VINA RESULT:      -6.1      1.127      1.401
  Name = 
  2 active torsions:
  status: ('A' for Active; 'I' for Inactive)
    1  A    between atoms: C_4  and  C_37
    2  A    between atoms: C_23  and  C_30
                            x       y       z     vdW  Elec       q    Type
                         _______ _______ _______ _____ _____    ______ ____

>  <TORSDO>
F 2

$$$$
=
 OpenBabel11122411213D

 37 43  0  0  1  0  0  0  0  0999 V2000
  184.3690  174.3270  137.0640 C   0  0  0  0  0  2  0  0  0  0  0  0
  188.9760  176.8350  135.7400 C   0  0  0  0  0  0  0  0  0  0  0  0
  186.0320  177.4610  138.6540 C   0  0  0  0  0  0  0  0  0  0  0  0
  183.3610  173.2910  136.5640 C   0  0  2  0  0  3  0  0  0  0  0  0
  183.0460  178.3130  136.7180 N   0  0  0  0  0  2  0  0  0  0  0  0
  188.3780  177.6090  138.1240 C   0  0  0  0  0  0  0  0  0  0  0  0
  184.7950  176.9930  137.9600 C   0  0  1  0  0  3  0  0  0  0  0  0
  181.6100  175.1710  137.0930 C   0  0  2  0  0  3  0  0  0  0  0  0
  187.0990  177.1260  137.8800 C   0  0  0  0  0  0  0  0  0  0  0  0
  183.6860  178.0160  137.9630 C   0  0  0  0  0  0  0  0  0  0  0  0
  188.5890  178.3550  139.2920 C   0  0  0  0  0  3  0  0  0  0  0  0
  181.8930  173.6880  136.8050 C   0  0  0  0  0  2  0  0  0  0  0  0
  186.6740  176.4100  136.6740 C   0  0  2  0  0  3  0  0  0  0  0  0
  189.3710  175.3670  135.7540 C   0  0  0  0  0  1  0  0  0  0  0  0
  185.0760  178.6400  140.7310 C   0  0  0  0  0  2  0  0  0  0  0  0
  187.5090  178.6320  140.1550 C   0  0  0  0  0  3  0  0  0  0  0  0
  187.4570  176.9660  135.4870 C   0  0  0  0  0  2  0  0  0  0  0  0
  182.0570  176.1500  135.9900 C   0  0  1  0  0  3  0  0  0  0  0  0
  181.8240  177.6330  136.3030 C   0  0  0  0  0  2  0  0  0  0  0  0
  186.2070  178.1990  139.8420 C   0  0  0  0  0  0  0  0  0  0  0  0
  185.2320  176.6660  136.5800 N   0  0  1  0  0  0  0  0  0  0  0  0
  189.4420  177.4960  137.0620 C   0  0  0  0  0  2  0  0  0  0  0  0
  183.1760  178.4720  139.1310 C   0  0  0  0  0  0  0  0  0  0  0  0
  189.7060  177.5020  134.5940 C   0  0  0  0  0  1  0  0  0  0  0  0
  183.3360  175.8310  135.2020 C   0  0  0  0  0  2  0  0  0  0  0  0
  182.0890  175.5320  138.3540 O   0  0  0  0  0  1  0  0  0  0  0  0
  184.5650  175.4680  136.0480 C   0  0  2  0  0  3  0  0  0  0  0  0
  183.7430  177.9650  140.4290 C   0  0  0  0  0  2  0  0  0  0  0  0
  180.9310  179.1990  139.9590 C   0  0  0  0  0  3  0  0  0  0  0  0
  182.0810  179.4740  139.2010 C   0  0  0  0  0  0  0  0  0  0  0  0
  182.1880  180.7220  138.5640 C   0  0  0  0  0  3  0  0  0  0  0  0
  181.2740  182.8580  138.0380 F   0  0  0  0  0  0  0  0  0  0  0  0
  180.0170  181.3710  139.4110 C   0  0  0  0  0  3  0  0  0  0  0  0
  181.1600  181.6630  138.6640 C   0  0  0  0  0  0  0  0  0  0  0  0
  179.9030  180.1400  140.0610 C   0  0  0  0  0  3  0  0  0  0  0  0
  183.4500  170.8250  136.2010 C   0  0  0  0  0  1  0  0  0  0  0  0
  183.6220  171.9430  137.2120 C   0  0  0  0  0  2  0  0  0  0  0  0
  2 14  1  0  0  0  0
  2 22  1  0  0  0  0
  3 20  1  0  0  0  0
  4 12  1  0  0  0  0
  4  1  1  0  0  0  0
  4 37  1  1  0  0  0
  5 10  1  0  0  0  0
  6 11  2  0  0  0  0
  7 10  1  6  0  0  0
  7  3  1  0  0  0  0
  8 26  1  1  0  0  0
  9  6  1  0  0  0  0
  9  3  2  0  0  0  0
 10 23  2  0  0  0  0
 11 16  1  0  0  0  0
 12  8  1  0  0  0  0
 13 17  1  6  0  0  0
 13  9  1  0  0  0  0
 17  2  1  0  0  0  0
 18 25  1  1  0  0  0
 18 19  1  0  0  0  0
 18  8  1  0  0  0  0
 19  5  1  0  0  0  0
 20 16  2  0  0  0  0
 20 15  1  0  0  0  0
 21 13  1  0  0  0  0
 21  7  1  0  0  0  0
 22  6  1  0  0  0  0
 23 30  1  0  0  0  0
 23 28  1  0  0  0  0
 24  2  1  0  0  0  0
 25 27  1  0  0  0  0
 27 21  1  0  0  0  0
 27  1  1  0  0  0  0
 28 15  1  0  0  0  0
 29 35  1  0  0  0  0
 30 29  2  0  0  0  0
 31 34  2  0  0  0  0
 31 30  1  0  0  0  0
 32 34  1  0  0  0  0
 33 35  2  0  0  0  0
 34 33  1  0  0  0  0
 36 37  1  0  0  0  0
M  END
>  <MODEL>
4

>  <REMARK>
 VINA RESULT:      -5.4      2.866      6.779
  Name = 
  2 active torsions:
  status: ('A' for Active; 'I' for Inactive)
    1  A    between atoms: C_4  and  C_37
    2  A    between atoms: C_23  and  C_30
                            x       y       z     vdW  Elec       q    Type
                         _______ _______ _______ _____ _____    ______ ____

>  <TORSDO>
F 2

$$$$
=
 OpenBabel11122411213D

 37 43  0  0  1  0  0  0  0  0999 V2000
  180.9470  176.2760  136.2300 C   0  0  0  0  0  2  0  0  0  0  0  0
  183.6020  178.5440  140.3620 C   0  0  0  0  0  0  0  0  0  0  0  0
  184.7710  176.5000  136.8970 C   0  0  0  0  0  0  0  0  0  0  0  0
  179.5570  175.8260  135.7780 C   0  0  2  0  0  3  0  0  0  0  0  0
  183.4780  173.1140  137.3950 N   0  0  0  0  0  2  0  0  0  0  0  0
  185.3170  178.2510  138.4610 C   0  0  0  0  0  0  0  0  0  0  0  0
  183.6510  175.5310  136.7080 C   0  0  1  0  0  3  0  0  0  0  0  0
  180.7820  173.5670  135.2510 C   0  0  2  0  0  3  0  0  0  0  0  0
  184.4150  177.3640  137.8850 C   0  0  0  0  0  0  0  0  0  0  0  0
  184.1150  174.1010  136.5790 C   0  0  0  0  0  0  0  0  0  0  0  0
  186.5980  178.3450  137.9000 C   0  0  0  0  0  3  0  0  0  0  0  0
  179.5510  174.4660  135.0560 C   0  0  0  0  0  2  0  0  0  0  0  0
  183.0720  177.0680  138.3900 C   0  0  2  0  0  3  0  0  0  0  0  0
  182.5810  179.6040  139.9810 C   0  0  0  0  0  1  0  0  0  0  0  0
  186.5270  175.6330  135.2290 C   0  0  0  0  0  2  0  0  0  0  0  0
  186.9520  177.5220  136.8120 C   0  0  0  0  0  3  0  0  0  0  0  0
  183.1030  177.1520  139.9140 C   0  0  0  0  0  2  0  0  0  0  0  0
  181.0880  173.1820  136.7110 C   0  0  1  0  0  3  0  0  0  0  0  0
  182.3470  172.3300  136.9100 C   0  0  0  0  0  2  0  0  0  0  0  0
  186.0450  176.5730  136.3000 C   0  0  0  0  0  0  0  0  0  0  0  0
  182.7810  175.7170  137.8960 N   0  0  1  0  0  0  0  0  0  0  0  0
  184.9780  178.9310  139.7630 C   0  0  0  0  0  2  0  0  0  0  0  0
  184.9480  173.7390  135.5760 C   0  0  0  0  0  0  0  0  0  0  0  0
  183.7280  178.5390  141.8700 C   0  0  0  0  0  1  0  0  0  0  0  0
  180.8010  174.2110  137.8150 C   0  0  0  0  0  2  0  0  0  0  0  0
  181.8920  174.0980  134.5940 O   0  0  0  0  0  1  0  0  0  0  0  0
  181.3510  175.6240  137.5660 C   0  0  2  0  0  3  0  0  0  0  0  0
  185.4270  174.7820  134.6040 C   0  0  0  0  0  2  0  0  0  0  0  0
  184.5950  171.3840  134.8120 C   0  0  0  0  0  3  0  0  0  0  0  0
  185.4370  172.3470  135.3900 C   0  0  0  0  0  0  0  0  0  0  0  0
  186.7480  171.9800  135.7360 C   0  0  0  0  0  3  0  0  0  0  0  0
  188.4640  170.3320  135.8740 F   0  0  0  0  0  0  0  0  0  0  0  0
  186.3480  169.7220  134.9640 C   0  0  0  0  0  3  0  0  0  0  0  0
  187.2000  170.6740  135.5290 C   0  0  0  0  0  0  0  0  0  0  0  0
  185.0460  170.0770  134.6040 C   0  0  0  0  0  3  0  0  0  0  0  0
  179.6240  178.2100  135.0470 C   0  0  0  0  0  1  0  0  0  0  0  0
  178.9320  176.8710  134.8710 C   0  0  0  0  0  2  0  0  0  0  0  0
  1 27  1  0  0  0  0
  2 24  1  0  0  0  0
  3  9  1  0  0  0  0
  4 37  1  6  0  0  0
  4  1  1  0  0  0  0
  6 22  1  0  0  0  0
  7 10  1  1  0  0  0
  7  3  1  0  0  0  0
  7 21  1  0  0  0  0
  8 26  1  1  0  0  0
  8 18  1  0  0  0  0
  9 13  1  0  0  0  0
  9  6  2  0  0  0  0
 10  5  1  0  0  0  0
 11  6  1  0  0  0  0
 12  8  1  0  0  0  0
 12  4  1  0  0  0  0
 13 17  1  1  0  0  0
 14  2  1  0  0  0  0
 15 20  1  0  0  0  0
 16 11  2  0  0  0  0
 17  2  1  0  0  0  0
 18 19  1  6  0  0  0
 18 25  1  0  0  0  0
 19  5  1  0  0  0  0
 20 16  1  0  0  0  0
 20  3  2  0  0  0  0
 21 13  1  0  0  0  0
 22  2  1  0  0  0  0
 23 10  2  0  0  0  0
 27 25  1  0  0  0  0
 27 21  1  0  0  0  0
 28 15  1  0  0  0  0
 28 23  1  0  0  0  0
 29 30  1  0  0  0  0
 30 23  1  0  0  0  0
 30 31  2  0  0  0  0
 33 34  2  0  0  0  0
 34 31  1  0  0  0  0
 34 32  1  0  0  0  0
 35 29  2  0  0  0  0
 35 33  1  0  0  0  0
 37 36  1  0  0  0  0
M  END
>  <MODEL>
5

>  <REMARK>
 VINA RESULT:      -4.8      2.471      4.321
  Name = 
  2 active torsions:
  status: ('A' for Active; 'I' for Inactive)
    1  A    between atoms: C_4  and  C_37
    2  A    between atoms: C_23  and  C_30
                            x       y       z     vdW  Elec       q    Type
                         _______ _______ _______ _____ _____    ______ ____

>  <TORSDO>
F 2

$$$$
=
 OpenBabel11122411213D

 37 43  0  0  1  0  0  0  0  0999 V2000
  181.6110  179.1090  140.2200 C   0  0  0  0  0  2  0  0  0  0  0  0
  179.8550  181.9740  135.9800 C   0  0  0  0  0  0  0  0  0  0  0  0
  180.8190  177.9430  136.5960 C   0  0  0  0  0  0  0  0  0  0  0  0
  182.2050  179.2520  141.6220 C   0  0  2  0  0  3  0  0  0  0  0  0
  184.4140  177.9930  137.2760 N   0  0  0  0  0  2  0  0  0  0  0  0
  179.3890  179.4980  135.4370 C   0  0  0  0  0  0  0  0  0  0  0  0
  181.9170  178.0310  137.6050 C   0  0  1  0  0  3  0  0  0  0  0  0
  184.0170  177.5910  140.7040 C   0  0  2  0  0  3  0  0  0  0  0  0
  180.2800  179.1840  136.4550 C   0  0  0  0  0  0  0  0  0  0  0  0
  183.1680  177.2960  137.1900 C   0  0  0  0  0  0  0  0  0  0  0  0
  178.9310  178.4570  134.6170 C   0  0  0  0  0  3  0  0  0  0  0  0
  183.3470  178.2610  141.9150 C   0  0  0  0  0  2  0  0  0  0  0  0
  180.9300  180.1490  137.3460 C   0  0  2  0  0  3  0  0  0  0  0  0
  178.9510  182.4360  137.1110 C   0  0  0  0  0  1  0  0  0  0  0  0
  180.9460  175.4790  135.8690 C   0  0  0  0  0  2  0  0  0  0  0  0
  179.4090  177.1450  134.8120 C   0  0  0  0  0  3  0  0  0  0  0  0
  181.1810  181.4330  136.5590 C   0  0  0  0  0  2  0  0  0  0  0  0
  184.6510  178.5580  139.6870 C   0  0  1  0  0  3  0  0  0  0  0  0
  185.2700  177.8910  138.4530 C   0  0  0  0  0  2  0  0  0  0  0  0
  180.3750  176.8690  135.7990 C   0  0  0  0  0  0  0  0  0  0  0  0
  182.1680  179.4840  137.7710 N   0  0  1  0  0  0  0  0  0  0  0  0
  179.0910  180.9400  135.1140 C   0  0  0  0  0  2  0  0  0  0  0  0
  183.1340  175.9640  136.9540 C   0  0  0  0  0  0  0  0  0  0  0  0
  180.1710  183.1740  135.1150 C   0  0  0  0  0  1  0  0  0  0  0  0
  183.9660  179.9110  139.4370 C   0  0  0  0  0  2  0  0  0  0  0  0
  183.1520  176.6740  140.1040 O   0  0  0  0  0  1  0  0  0  0  0  0
  182.4550  179.8510  139.1650 C   0  0  2  0  0  3  0  0  0  0  0  0
  181.8290  175.2260  137.0850 C   0  0  0  0  0  2  0  0  0  0  0  0
  184.9690  175.4640  135.3300 C   0  0  0  0  0  3  0  0  0  0  0  0
  184.3310  175.1810  136.5480 C   0  0  0  0  0  0  0  0  0  0  0  0
  184.8740  174.1900  137.3830 C   0  0  0  0  0  3  0  0  0  0  0  0
  186.5250  172.5260  137.8100 F   0  0  0  0  0  0  0  0  0  0  0  0
  186.6350  173.7660  135.7790 C   0  0  0  0  0  3  0  0  0  0  0  0
  186.0170  173.4830  136.9990 C   0  0  0  0  0  0  0  0  0  0  0  0
  186.1120  174.7580  134.9450 C   0  0  0  0  0  3  0  0  0  0  0  0
  181.7350  178.7010  144.0080 C   0  0  0  0  0  1  0  0  0  0  0  0
  181.1240  179.0850  142.6740 C   0  0  0  0  0  2  0  0  0  0  0  0
  1  4  1  0  0  0  0
  2 17  1  0  0  0  0
  2 14  1  0  0  0  0
  4 12  1  0  0  0  0
  4 37  1  1  0  0  0
  5 19  1  0  0  0  0
  6  9  2  0  0  0  0
  7  3  1  6  0  0  0
  7 21  1  0  0  0  0
  8 26  1  6  0  0  0
  8 12  1  0  0  0  0
  9  3  1  0  0  0  0
  9 13  1  0  0  0  0
 10  5  1  0  0  0  0
 10  7  1  0  0  0  0
 11 16  2  0  0  0  0
 11  6  1  0  0  0  0
 13 17  1  6  0  0  0
 13 21  1  0  0  0  0
 15 28  1  0  0  0  0
 16 20  1  0  0  0  0
 18 19  1  6  0  0  0
 18  8  1  0  0  0  0
 20 15  1  0  0  0  0
 20  3  2  0  0  0  0
 21 27  1  0  0  0  0
 22  6  1  0  0  0  0
 22  2  1  0  0  0  0
 23 28  1  0  0  0  0
 23 10  2  0  0  0  0
 24  2  1  0  0  0  0
 25 18  1  0  0  0  0
 27 25  1  0  0  0  0
 27  1  1  0  0  0  0
 29 30  1  0  0  0  0
 30 23  1  0  0  0  0
 30 31  2  0  0  0  0
 33 34  2  0  0  0  0
 34 31  1  0  0  0  0
 34 32  1  0  0  0  0
 35 29  2  0  0  0  0
 35 33  1  0  0  0  0
 37 36  1  0  0  0  0
M  END
>  <MODEL>
6

>  <REMARK>
 VINA RESULT:      -4.8      2.367      5.901
  Name = 
  2 active torsions:
  status: ('A' for Active; 'I' for Inactive)
    1  A    between atoms: C_4  and  C_37
    2  A    between atoms: C_23  and  C_30
                            x       y       z     vdW  Elec       q    Type
                         _______ _______ _______ _____ _____    ______ ____

>  <TORSDO>
F 2

$$$$
=
 OpenBabel11122411213D

 37 43  0  0  1  0  0  0  0  0999 V2000
  184.5900  177.8060  137.8560 C   0  0  0  0  0  2  0  0  0  0  0  0
  180.5020  181.3490  137.7550 C   0  0  0  0  0  0  0  0  0  0  0  0
  180.8970  177.3650  138.9900 C   0  0  0  0  0  0  0  0  0  0  0  0
  186.0040  177.5660  137.3260 C   0  0  2  0  0  3  0  0  0  0  0  0
  181.6170  175.5510  135.8950 N   0  0  0  0  0  2  0  0  0  0  0  0
  179.8130  179.4800  139.3910 C   0  0  0  0  0  0  0  0  0  0  0  0
  181.9210  176.8380  138.0400 C   0  0  1  0  0  3  0  0  0  0  0  0
  185.0130  175.2570  136.5720 C   0  0  2  0  0  3  0  0  0  0  0  0
  180.8220  178.7120  138.8210 C   0  0  0  0  0  0  0  0  0  0  0  0
  181.4790  175.5890  137.3190 C   0  0  0  0  0  0  0  0  0  0  0  0
  178.9310  178.8530  140.2810 C   0  0  0  0  0  3  0  0  0  0  0  0
  186.2520  176.1210  136.8550 C   0  0  0  0  0  2  0  0  0  0  0  0
  181.7730  179.1730  137.8060 C   0  0  2  0  0  3  0  0  0  0  0  0
  181.6470  182.1560  138.3420 C   0  0  0  0  0  1  0  0  0  0  0  0
  180.0320  175.2130  140.1030 C   0  0  0  0  0  2  0  0  0  0  0  0
  179.0550  177.4730  140.5410 C   0  0  0  0  0  3  0  0  0  0  0  0
  181.0630  180.1840  136.9090 C   0  0  0  0  0  2  0  0  0  0  0  0
  184.0590  175.8120  135.4970 C   0  0  1  0  0  3  0  0  0  0  0  0
  182.7950  174.9770  135.2540 C   0  0  0  0  0  2  0  0  0  0  0  0
  180.0360  176.7020  139.8870 C   0  0  0  0  0  0  0  0  0  0  0  0
  182.1720  177.9540  137.0930 N   0  0  1  0  0  0  0  0  0  0  0  0
  179.5700  180.8850  138.9040 C   0  0  0  0  0  2  0  0  0  0  0  0
  181.1660  174.4700  138.0140 C   0  0  0  0  0  0  0  0  0  0  0  0
  179.7100  182.2590  136.8420 C   0  0  0  0  0  1  0  0  0  0  0  0
  183.8790  177.3340  135.3920 C   0  0  0  0  0  2  0  0  0  0  0  0
  184.3520  174.9350  137.7580 O   0  0  0  0  0  1  0  0  0  0  0  0
  183.5880  178.0620  136.7130 C   0  0  2  0  0  3  0  0  0  0  0  0
  181.2410  174.4930  139.5170 C   0  0  0  0  0  2  0  0  0  0  0  0
  179.3620  172.9660  137.1550 C   0  0  0  0  0  3  0  0  0  0  0  0
  180.7290  173.2070  137.3640 C   0  0  0  0  0  0  0  0  0  0  0  0
  181.6610  172.2600  136.9050 C   0  0  0  0  0  3  0  0  0  0  0  0
  182.1430  170.1830  135.8410 F   0  0  0  0  0  0  0  0  0  0  0  0
  179.8700  170.8580  136.0800 C   0  0  0  0  0  3  0  0  0  0  0  0
  181.2340  171.0900  136.2710 C   0  0  0  0  0  0  0  0  0  0  0  0
  178.9340  171.7970  136.5200 C   0  0  0  0  0  3  0  0  0  0  0  0
  188.3650  178.2570  137.7350 C   0  0  0  0  0  1  0  0  0  0  0  0
  187.0330  177.9260  138.3820 C   0  0  0  0  0  2  0  0  0  0  0  0
  2 14  1  0  0  0  0
  2 22  1  0  0  0  0
  3 20  1  0  0  0  0
  4  1  1  0  0  0  0
  4 37  1  1  0  0  0
  5 10  1  0  0  0  0
  6 11  2  0  0  0  0
  7 10  1  6  0  0  0
  7  3  1  0  0  0  0
  8 12  1  0  0  0  0
  8 26  1  1  0  0  0
  9  3  2  0  0  0  0
  9  6  1  0  0  0  0
 10 23  2  0  0  0  0
 11 16  1  0  0  0  0
 12  4  1  0  0  0  0
 13 17  1  6  0  0  0
 13  9  1  0  0  0  0
 17  2  1  0  0  0  0
 18 19  1  1  0  0  0
 18  8  1  0  0  0  0
 19  5  1  0  0  0  0
 20 15  1  0  0  0  0
 20 16  2  0  0  0  0
 21 13  1  0  0  0  0
 21  7  1  0  0  0  0
 22  6  1  0  0  0  0
 23 28  1  0  0  0  0
 24  2  1  0  0  0  0
 25 18  1  0  0  0  0
 25 27  1  0  0  0  0
 27 21  1  0  0  0  0
 27  1  1  0  0  0  0
 28 15  1  0  0  0  0
 29 30  1  0  0  0  0
 30 23  1  0  0  0  0
 31 30  2  0  0  0  0
 32 34  1  0  0  0  0
 33 34  2  0  0  0  0
 33 35  1  0  0  0  0
 34 31  1  0  0  0  0
 35 29  2  0  0  0  0
 36 37  1  0  0  0  0
M  END
>  <MODEL>
7

>  <REMARK>
 VINA RESULT:      -4.7      3.045      5.927
  Name = 
  2 active torsions:
  status: ('A' for Active; 'I' for Inactive)
    1  A    between atoms: C_4  and  C_37
    2  A    between atoms: C_23  and  C_30
                            x       y       z     vdW  Elec       q    Type
                         _______ _______ _______ _____ _____    ______ ____

>  <TORSDO>
F 2

$$$$
=
 OpenBabel11122411213D

 37 43  0  0  1  0  0  0  0  0999 V2000
  187.4650  177.5290  139.3560 C   0  0  0  0  0  2  0  0  0  0  0  0
  183.3750  177.1510  135.8350 C   0  0  0  0  0  0  0  0  0  0  0  0
  186.3600  174.5230  137.1520 C   0  0  0  0  0  0  0  0  0  0  0  0
  188.2810  178.5350  140.1680 C   0  0  2  0  0  3  0  0  0  0  0  0
  189.4640  176.0460  135.9550 N   0  0  0  0  0  2  0  0  0  0  0  0
  184.0790  174.7380  136.4030 C   0  0  0  0  0  0  0  0  0  0  0  0
  187.5020  175.4470  137.4170 C   0  0  1  0  0  3  0  0  0  0  0  0
  190.3280  177.3140  139.0720 C   0  0  2  0  0  3  0  0  0  0  0  0
  185.2570  175.2790  136.9030 C   0  0  0  0  0  0  0  0  0  0  0  0
  188.7720  175.0450  136.7080 C   0  0  0  0  0  0  0  0  0  0  0  0
  183.9920  173.3440  136.2860 C   0  0  0  0  0  3  0  0  0  0  0  0
  189.7940  178.2470  140.1700 C   0  0  0  0  0  2  0  0  0  0  0  0
  185.5600  176.7080  137.0090 C   0  0  2  0  0  3  0  0  0  0  0  0
  182.7310  177.8030  137.0470 C   0  0  0  0  0  1  0  0  0  0  0  0
  187.4890  172.2140  137.2790 C   0  0  0  0  0  2  0  0  0  0  0  0
  185.0960  172.5380  136.6300 C   0  0  0  0  0  3  0  0  0  0  0  0
  184.8950  177.4270  135.8380 C   0  0  0  0  0  2  0  0  0  0  0  0
  190.0670  177.7840  137.6280 C   0  0  1  0  0  3  0  0  0  0  0  0
  190.5520  176.8250  136.5340 C   0  0  0  0  0  2  0  0  0  0  0  0
  186.3060  173.1170  137.0570 C   0  0  0  0  0  0  0  0  0  0  0  0
  187.0260  176.7800  136.9690 N   0  0  1  0  0  0  0  0  0  0  0  0
  183.0210  175.6420  135.8240 C   0  0  0  0  0  2  0  0  0  0  0  0
  189.3440  173.8440  136.9540 C   0  0  0  0  0  0  0  0  0  0  0  0
  182.7820  177.7840  134.5950 C   0  0  0  0  0  1  0  0  0  0  0  0
  188.7580  178.5290  137.3260 C   0  0  0  0  0  2  0  0  0  0  0  0
  189.9090  176.0010  139.2900 O   0  0  0  0  0  1  0  0  0  0  0  0
  187.4780  177.8650  137.8520 C   0  0  2  0  0  3  0  0  0  0  0  0
  188.6870  172.9010  137.9260 C   0  0  0  0  0  2  0  0  0  0  0  0
  190.5340  172.4600  135.2450 C   0  0  0  0  0  3  0  0  0  0  0  0
  190.5960  173.3910  136.2940 C   0  0  0  0  0  0  0  0  0  0  0  0
  191.8480  173.9130  136.6620 C   0  0  0  0  0  3  0  0  0  0  0  0
  194.2120  174.0030  136.3830 F   0  0  0  0  0  0  0  0  0  0  0  0
  192.9380  172.5610  134.9790 C   0  0  0  0  0  3  0  0  0  0  0  0
  193.0120  173.4970  136.0120 C   0  0  0  0  0  0  0  0  0  0  0  0
  191.6990  172.0430  134.5940 C   0  0  0  0  0  3  0  0  0  0  0  0
  186.2820  178.7920  141.6370 C   0  0  0  0  0  1  0  0  0  0  0  0
  187.7850  178.5850  141.6020 C   0  0  0  0  0  2  0  0  0  0  0  0
  1  4  1  0  0  0  0
  2 17  1  0  0  0  0
  2 14  1  0  0  0  0
  3  7  1  0  0  0  0
  4 12  1  0  0  0  0
  4 37  1  1  0  0  0
  5 19  1  0  0  0  0
  5 10  1  0  0  0  0
  6  9  1  0  0  0  0
  7 10  1  6  0  0  0
  8 26  1  6  0  0  0
  8 12  1  0  0  0  0
  9 13  1  0  0  0  0
  9  3  2  0  0  0  0
 10 23  2  0  0  0  0
 11  6  2  0  0  0  0
 11 16  1  0  0  0  0
 13 17  1  6  0  0  0
 15 28  1  0  0  0  0
 16 20  2  0  0  0  0
 18 19  1  6  0  0  0
 18  8  1  0  0  0  0
 20  3  1  0  0  0  0
 20 15  1  0  0  0  0
 21 13  1  0  0  0  0
 21  7  1  0  0  0  0
 21 27  1  0  0  0  0
 22  2  1  0  0  0  0
 22  6  1  0  0  0  0
 23 28  1  0  0  0  0
 24  2  1  0  0  0  0
 25 18  1  0  0  0  0
 25 27  1  0  0  0  0
 27  1  1  0  0  0  0
 29 30  1  0  0  0  0
 30 31  2  0  0  0  0
 30 23  1  0  0  0  0
 33 34  2  0  0  0  0
 34 32  1  0  0  0  0
 34 31  1  0  0  0  0
 35 33  1  0  0  0  0
 35 29  2  0  0  0  0
 37 36  1  0  0  0  0
M  END
>  <MODEL>
8

>  <REMARK>
 VINA RESULT:      -4.4      4.709      8.063
  Name = 
  2 active torsions:
  status: ('A' for Active; 'I' for Inactive)
    1  A    between atoms: C_4  and  C_37
    2  A    between atoms: C_23  and  C_30
                            x       y       z     vdW  Elec       q    Type
                         _______ _______ _______ _____ _____    ______ ____

>  <TORSDO>
F 2

$$$$
=
 OpenBabel11122411213D

 37 43  0  0  1  0  0  0  0  0999 V2000
  182.3850  180.3730  138.7610 C   0  0  0  0  0  2  0  0  0  0  0  0
  186.3910  178.5440  141.9030 C   0  0  0  0  0  0  0  0  0  0  0  0
  185.1810  177.7910  137.9640 C   0  0  0  0  0  0  0  0  0  0  0  0
  181.0690  181.1510  138.7980 C   0  0  2  0  0  3  0  0  0  0  0  0
  181.9040  176.2070  138.3370 N   0  0  0  0  0  2  0  0  0  0  0  0
  187.0480  177.9810  139.4760 C   0  0  0  0  0  0  0  0  0  0  0  0
  183.6990  177.9510  138.0510 C   0  0  1  0  0  3  0  0  0  0  0  0
  180.1480  179.0790  137.4770 C   0  0  2  0  0  3  0  0  0  0  0  0
  185.7180  178.2050  139.1430 C   0  0  0  0  0  0  0  0  0  0  0  0
  182.9380  176.7620  137.5190 C   0  0  0  0  0  0  0  0  0  0  0  0
  187.8890  177.4340  138.4970 C   0  0  0  0  0  3  0  0  0  0  0  0
  179.9640  180.5410  137.9140 C   0  0  0  0  0  2  0  0  0  0  0  0
  184.6790  178.6820  140.0590 C   0  0  2  0  0  3  0  0  0  0  0  0
  186.4390  180.0470  142.1190 C   0  0  0  0  0  1  0  0  0  0  0  0
  185.4760  176.7340  135.6360 C   0  0  0  0  0  2  0  0  0  0  0  0
  187.3680  177.0860  137.2340 C   0  0  0  0  0  3  0  0  0  0  0  0
  184.9740  178.1250  141.4500 C   0  0  0  0  0  2  0  0  0  0  0  0
  180.2720  178.0620  138.6270 C   0  0  1  0  0  3  0  0  0  0  0  0
  180.5100  176.6110  138.1900 C   0  0  0  0  0  2  0  0  0  0  0  0
  185.9980  177.2480  136.9510 C   0  0  0  0  0  0  0  0  0  0  0  0
  183.4240  178.1740  139.4920 N   0  0  1  0  0  0  0  0  0  0  0  0
  187.5050  178.1410  140.9030 C   0  0  0  0  0  2  0  0  0  0  0  0
  183.0850  176.3750  136.2300 C   0  0  0  0  0  0  0  0  0  0  0  0
  186.6810  177.8730  143.2290 C   0  0  0  0  0  1  0  0  0  0  0  0
  180.9920  178.4940  139.9130 C   0  0  0  0  0  2  0  0  0  0  0  0
  181.1840  178.9660  136.5490 O   0  0  0  0  0  1  0  0  0  0  0  0
  182.3600  179.1640  139.7160 C   0  0  2  0  0  3  0  0  0  0  0  0
  184.0340  177.1290  135.3390 C   0  0  0  0  0  2  0  0  0  0  0  0
  183.0570  174.0310  135.3580 C   0  0  0  0  0  3  0  0  0  0  0  0
  182.3610  175.2170  135.6440 C   0  0  0  0  0  0  0  0  0  0  0  0
  180.9760  175.2610  135.4120 C   0  0  0  0  0  3  0  0  0  0  0  0
  178.9720  174.2130  134.6590 F   0  0  0  0  0  0  0  0  0  0  0  0
  181.0130  172.9840  134.5940 C   0  0  0  0  0  3  0  0  0  0  0  0
  180.3060  174.1530  134.8850 C   0  0  0  0  0  0  0  0  0  0  0  0
  182.3880  172.9220  134.8330 C   0  0  0  0  0  3  0  0  0  0  0  0
  180.1570  183.0770  137.5030 C   0  0  0  0  0  1  0  0  0  0  0  0
  181.2950  182.5930  138.3820 C   0  0  0  0  0  2  0  0  0  0  0  0
  1  4  1  0  0  0  0
  1 27  1  0  0  0  0
  2 14  1  0  0  0  0
  2 24  1  0  0  0  0
  3  7  1  0  0  0  0
  3  9  1  0  0  0  0
  4 37  1  6  0  0  0
  6 22  1  0  0  0  0
  7 10  1  1  0  0  0
  7 21  1  0  0  0  0
  8 26  1  1  0  0  0
  8 12  1  0  0  0  0
  8 18  1  0  0  0  0
  9  6  2  0  0  0  0
  9 13  1  0  0  0  0
 10  5  1  0  0  0  0
 11  6  1  0  0  0  0
 12  4  1  0  0  0  0
 13 17  1  1  0  0  0
 15 20  1  0  0  0  0
 16 11  2  0  0  0  0
 17  2  1  0  0  0  0
 18 19  1  6  0  0  0
 18 25  1  0  0  0  0
 19  5  1  0  0  0  0
 20 16  1  0  0  0  0
 20  3  2  0  0  0  0
 21 27  1  0  0  0  0
 21 13  1  0  0  0  0
 22  2  1  0  0  0  0
 23 10  2  0  0  0  0
 27 25  1  0  0  0  0
 28 15  1  0  0  0  0
 28 23  1  0  0  0  0
 29 30  1  0  0  0  0
 30 23  1  0  0  0  0
 31 30  2  0  0  0  0
 32 34  1  0  0  0  0
 33 35  1  0  0  0  0
 33 34  2  0  0  0  0
 34 31  1  0  0  0  0
 35 29  2  0  0  0  0
 36 37  1  0  0  0  0
M  END
>  <MODEL>
9

>  <REMARK>
 VINA RESULT:      -4.0      1.757      2.336
  Name = 
  2 active torsions:
  status: ('A' for Active; 'I' for Inactive)
    1  A    between atoms: C_4  and  C_37
    2  A    between atoms: C_23  and  C_30
                            x       y       z     vdW  Elec       q    Type
                         _______ _______ _______ _____ _____    ______ ____

>  <TORSDO>
F 2

$$$$
