=
 OpenBabel11122411513D

 28 32  0  0  1  0  0  0  0  0999 V2000
  184.9260  177.1710  137.9630 C   0  0  0  0  0  0  0  0  0  0  0  0
  182.5370  180.7860  139.2650 N   0  0  0  0  0  1  0  0  0  0  0  0
  185.8460  177.2870  143.8830 O   0  0  0  0  0  1  0  0  0  0  0  0
  183.3390  174.8600  138.0180 C   0  0  0  0  0  3  0  0  0  0  0  0
  183.9040  178.6030  143.3800 C   0  0  2  0  0  3  0  0  0  0  0  0
  185.8050  178.3830  137.9200 C   0  0  0  0  0  2  0  0  0  0  0  0
  181.3140  179.3220  137.9460 O   0  0  0  0  0  1  0  0  0  0  0  0
  181.5520  179.7120  139.2620 C   0  0  1  0  0  0  0  0  0  0  0  0
  180.1480  180.3010  141.1250 C   0  0  0  0  0  0  0  0  0  0  0  0
  182.0650  178.4960  140.0630 C   0  0  2  0  0  3  0  0  0  0  0  0
  188.4280  178.0910  140.4760 O   0  0  0  0  0  0  0  0  0  0  0  0
  184.0690  177.9100  141.1800 C   0  0  2  0  0  3  0  0  0  0  0  0
  181.1170  179.7850  141.9860 O   0  0  0  0  0  0  0  0  0  0  0  0
  180.3090  180.2150  139.8400 N   0  0  0  0  0  0  0  0  0  0  0  0
  187.3160  178.4040  139.9750 C   0  0  0  0  0  0  0  0  0  0  0  0
  183.8320  177.0890  138.8480 C   0  0  0  0  0  0  0  0  0  0  0  0
  185.3970  178.3480  143.0980 C   0  0  2  0  0  3  0  0  0  0  0  0
  178.9310  180.9470  141.6800 C   0  0  0  0  0  1  0  0  0  0  0  0
  186.2860  179.0500  140.8440 C   0  0  0  0  0  2  0  0  0  0  0  0
  183.0520  175.9240  138.8770 C   0  0  0  0  0  3  0  0  0  0  0  0
  185.2060  176.1000  137.1060 C   0  0  0  0  0  3  0  0  0  0  0  0
  184.4130  174.9490  137.1310 C   0  0  0  0  0  3  0  0  0  0  0  0
  187.0700  178.1210  138.5930 N   0  0  0  0  0  2  0  0  0  0  0  0
  183.3780  178.9120  142.0090 C   0  0  1  0  0  3  0  0  0  0  0  0
  185.5160  177.9800  141.6070 C   0  0  2  0  0  3  0  0  0  0  0  0
  181.9460  178.6840  141.6050 C   0  0  2  0  0  3  0  0  0  0  0  0
  183.7460  179.8100  144.2820 C   0  0  0  0  0  1  0  0  0  0  0  0
  183.5620  178.2160  139.8000 C   0  0  1  0  0  3  0  0  0  0  0  0
  1 16  1  0  0  0  0
  4 20  1  0  0  0  0
  5 27  1  1  0  0  0
  6  1  1  0  0  0  0
  6 23  1  0  0  0  0
  8  7  1  6  0  0  0
  8  2  1  0  0  0  0
  8 14  1  0  0  0  0
  8 10  1  0  0  0  0
  9 18  1  0  0  0  0
  9 13  1  0  0  0  0
 10 26  1  0  0  0  0
 12 25  1  0  0  0  0
 12 24  1  0  0  0  0
 14  9  2  0  0  0  0
 15 11  2  0  0  0  0
 15 19  1  0  0  0  0
 16 20  2  0  0  0  0
 16 28  1  0  0  0  0
 17  5  1  0  0  0  0
 17  3  1  0  0  0  0
 19 25  1  0  0  0  0
 21 22  1  0  0  0  0
 21  1  2  0  0  0  0
 22  4  2  0  0  0  0
 23 15  1  0  0  0  0
 24  5  1  0  0  0  0
 25 17  1  0  0  0  0
 26 13  1  0  0  0  0
 26 24  1  0  0  0  0
 28 10  1  0  0  0  0
 28 12  1  0  0  0  0
M  END
>  <MODEL>
1

>  <REMARK>
 VINA RESULT:      -6.2      0.000      0.000
  Name = 
  0 active torsions:
  status: ('A' for Active; 'I' for Inactive)
                            x       y       z     vdW  Elec       q    Type
                         _______ _______ _______ _____ _____    ______ ____

>  <TORSDO>
F 0

$$$$
=
 OpenBabel11122411513D

 28 32  0  0  1  0  0  0  0  0999 V2000
  189.4470  177.9580  138.1580 C   0  0  0  0  0  0  0  0  0  0  0  0
  192.7340  176.2870  135.5380 N   0  0  0  0  0  1  0  0  0  0  0  0
  187.0750  172.8150  136.2010 O   0  0  0  0  0  1  0  0  0  0  0  0
  189.7480  177.0850  140.8060 C   0  0  0  0  0  3  0  0  0  0  0  0
  189.4550  172.7270  135.9070 C   0  0  2  0  0  3  0  0  0  0  0  0
  189.2530  178.4470  136.7550 C   0  0  0  0  0  2  0  0  0  0  0  0
  193.4850  176.9100  137.6420 O   0  0  0  0  0  1  0  0  0  0  0  0
  193.0930  175.8180  136.8700 C   0  0  1  0  0  0  0  0  0  0  0  0
  194.0340  173.6520  136.4150 C   0  0  0  0  0  0  0  0  0  0  0  0
  191.8910  175.1280  137.5500 C   0  0  2  0  0  3  0  0  0  0  0  0
  186.1840  176.9880  135.3590 O   0  0  0  0  0  0  0  0  0  0  0  0
  189.6140  174.7490  137.0160 C   0  0  2  0  0  3  0  0  0  0  0  0
  192.7400  173.1450  136.2820 O   0  0  0  0  0  0  0  0  0  0  0  0
  194.2150  174.8910  136.7540 N   0  0  0  0  0  0  0  0  0  0  0  0
  187.4080  177.0870  135.6360 C   0  0  0  0  0  0  0  0  0  0  0  0
  190.0950  176.7360  138.4270 C   0  0  0  0  0  0  0  0  0  0  0  0
  188.1500  173.4970  135.6310 C   0  0  2  0  0  3  0  0  0  0  0  0
  195.2030  172.7710  136.1680 C   0  0  0  0  0  1  0  0  0  0  0  0
  188.3330  175.9820  135.2380 C   0  0  0  0  0  2  0  0  0  0  0  0
  190.2300  176.3010  139.7540 C   0  0  0  0  0  3  0  0  0  0  0  0
  188.9680  178.7360  139.2190 C   0  0  0  0  0  3  0  0  0  0  0  0
  189.1200  178.3030  140.5390 C   0  0  0  0  0  3  0  0  0  0  0  0
  187.8740  178.2480  136.3320 N   0  0  0  0  0  2  0  0  0  0  0  0
  190.4200  173.8420  136.1820 C   0  0  1  0  0  3  0  0  0  0  0  0
  188.2970  174.8810  136.2900 C   0  0  2  0  0  3  0  0  0  0  0  0
  191.6480  173.6770  137.0370 C   0  0  2  0  0  3  0  0  0  0  0  0
  189.8790  171.9660  134.6670 C   0  0  0  0  0  1  0  0  0  0  0  0
  190.5650  175.8800  137.2890 C   0  0  1  0  0  3  0  0  0  0  0  0
  1 16  2  0  0  0  0
  1 21  1  0  0  0  0
  5 27  1  6  0  0  0
  5 24  1  0  0  0  0
  6  1  1  0  0  0  0
  8  2  1  6  0  0  0
  8 10  1  0  0  0  0
  8  7  1  0  0  0  0
  9 14  2  0  0  0  0
 11 15  2  0  0  0  0
 12 28  1  0  0  0  0
 13  9  1  0  0  0  0
 13 26  1  0  0  0  0
 14  8  1  0  0  0  0
 15 23  1  0  0  0  0
 16 20  1  0  0  0  0
 17  5  1  0  0  0  0
 17  3  1  0  0  0  0
 17 25  1  0  0  0  0
 18  9  1  0  0  0  0
 19 15  1  0  0  0  0
 19 25  1  0  0  0  0
 20  4  2  0  0  0  0
 21 22  2  0  0  0  0
 22  4  1  0  0  0  0
 23  6  1  0  0  0  0
 24 12  1  0  0  0  0
 24 26  1  0  0  0  0
 25 12  1  0  0  0  0
 26 10  1  0  0  0  0
 28 10  1  0  0  0  0
 28 16  1  0  0  0  0
M  END
>  <MODEL>
2

>  <REMARK>
 VINA RESULT:      -5.8      6.086     10.130
  Name = 
  0 active torsions:
  status: ('A' for Active; 'I' for Inactive)
                            x       y       z     vdW  Elec       q    Type
                         _______ _______ _______ _____ _____    ______ ____

>  <TORSDO>
F 0

$$$$
=
 OpenBabel11122411513D

 28 32  0  0  1  0  0  0  0  0999 V2000
  179.9580  179.3040  138.9550 C   0  0  0  0  0  0  0  0  0  0  0  0
  183.4280  176.4890  138.2440 N   0  0  0  0  0  1  0  0  0  0  0  0
  183.1750  179.8930  143.9760 O   0  0  0  0  0  1  0  0  0  0  0  0
  180.5500  181.8710  137.9950 C   0  0  0  0  0  3  0  0  0  0  0  0
  184.5720  178.9400  142.2740 C   0  0  2  0  0  3  0  0  0  0  0  0
  179.6050  177.9450  139.4790 C   0  0  0  0  0  2  0  0  0  0  0  0
  183.0780  177.9560  136.4810 O   0  0  0  0  0  1  0  0  0  0  0  0
  183.8620  177.7280  137.6110 C   0  0  1  0  0  0  0  0  0  0  0  0
  186.2270  177.7240  138.0480 C   0  0  0  0  0  0  0  0  0  0  0  0
  183.7080  178.9200  138.5800 C   0  0  2  0  0  3  0  0  0  0  0  0
  179.3130  178.0780  143.1390 O   0  0  0  0  0  0  0  0  0  0  0  0
  182.8500  179.2470  140.7630 C   0  0  2  0  0  3  0  0  0  0  0  0
  185.9630  178.1560  139.3490 O   0  0  0  0  0  0  0  0  0  0  0  0
  185.2560  177.5810  137.2010 N   0  0  0  0  0  0  0  0  0  0  0  0
  179.8630  177.9270  142.0170 C   0  0  0  0  0  0  0  0  0  0  0  0
  181.2970  179.7380  138.8880 C   0  0  0  0  0  0  0  0  0  0  0  0
  183.2550  178.8410  143.0650 C   0  0  2  0  0  3  0  0  0  0  0  0
  187.6230  177.4300  137.6340 C   0  0  0  0  0  1  0  0  0  0  0  0
  181.3290  177.6420  141.9610 C   0  0  0  0  0  2  0  0  0  0  0  0
  181.5820  181.0290  138.4180 C   0  0  0  0  0  3  0  0  0  0  0  0
  178.9310  180.1540  138.5300 C   0  0  0  0  0  3  0  0  0  0  0  0
  179.2250  181.4320  138.0480 C   0  0  0  0  0  3  0  0  0  0  0  0
  179.0700  178.0430  140.8310 N   0  0  0  0  0  2  0  0  0  0  0  0
  184.1360  178.5430  140.8950 C   0  0  1  0  0  3  0  0  0  0  0  0
  182.1070  178.9480  142.0440 C   0  0  2  0  0  3  0  0  0  0  0  0
  184.8430  178.9940  139.6450 C   0  0  2  0  0  3  0  0  0  0  0  0
  185.5760  177.9400  142.8110 C   0  0  0  0  0  1  0  0  0  0  0  0
  182.3930  178.8470  139.3890 C   0  0  1  0  0  3  0  0  0  0  0  0
  1  6  1  0  0  0  0
  4 22  2  0  0  0  0
  4 20  1  0  0  0  0
  5 27  1  1  0  0  0
  5 17  1  0  0  0  0
  6 23  1  0  0  0  0
  8  7  1  6  0  0  0
  8  2  1  0  0  0  0
  8 10  1  0  0  0  0
  9 13  1  0  0  0  0
 10 28  1  0  0  0  0
 10 26  1  0  0  0  0
 12 24  1  0  0  0  0
 12 25  1  0  0  0  0
 13 26  1  0  0  0  0
 14  8  1  0  0  0  0
 14  9  2  0  0  0  0
 15 11  2  0  0  0  0
 16  1  1  0  0  0  0
 16 28  1  0  0  0  0
 17  3  1  0  0  0  0
 18  9  1  0  0  0  0
 19 15  1  0  0  0  0
 19 25  1  0  0  0  0
 20 16  2  0  0  0  0
 21  1  2  0  0  0  0
 22 21  1  0  0  0  0
 23 15  1  0  0  0  0
 24  5  1  0  0  0  0
 25 17  1  0  0  0  0
 26 24  1  0  0  0  0
 28 12  1  0  0  0  0
M  END
>  <MODEL>
3

>  <REMARK>
 VINA RESULT:      -5.8      2.189      5.606
  Name = 
  0 active torsions:
  status: ('A' for Active; 'I' for Inactive)
                            x       y       z     vdW  Elec       q    Type
                         _______ _______ _______ _____ _____    ______ ____

>  <TORSDO>
F 0

$$$$
=
 OpenBabel11122411513D

 28 32  0  0  1  0  0  0  0  0999 V2000
  191.7090  175.6400  136.8370 C   0  0  0  0  0  0  0  0  0  0  0  0
  188.9650  179.2130  137.2480 N   0  0  0  0  0  1  0  0  0  0  0  0
  190.8660  175.9730  142.7610 O   0  0  0  0  0  1  0  0  0  0  0  0
  190.2260  173.2810  136.5220 C   0  0  0  0  0  3  0  0  0  0  0  0
  189.1250  177.2080  141.6650 C   0  0  2  0  0  3  0  0  0  0  0  0
  192.5360  176.8780  137.0030 C   0  0  0  0  0  2  0  0  0  0  0  0
  188.2110  177.6690  135.6890 O   0  0  0  0  0  1  0  0  0  0  0  0
  188.0470  178.1090  137.0020 C   0  0  1  0  0  0  0  0  0  0  0  0
  186.1500  178.7090  138.3530 C   0  0  0  0  0  0  0  0  0  0  0  0
  188.3320  176.9360  137.9650 C   0  0  2  0  0  3  0  0  0  0  0  0
  194.3080  176.7530  140.2180 O   0  0  0  0  0  0  0  0  0  0  0  0
  189.9380  176.4510  139.6370 C   0  0  2  0  0  3  0  0  0  0  0  0
  186.8380  178.2530  139.4780 O   0  0  0  0  0  0  0  0  0  0  0  0
  186.6790  178.5890  137.1750 N   0  0  0  0  0  0  0  0  0  0  0  0
  193.3830  177.0130  139.4050 C   0  0  0  0  0  0  0  0  0  0  0  0
  190.4070  175.5500  137.3700 C   0  0  0  0  0  0  0  0  0  0  0  0
  190.6410  176.9930  141.8370 C   0  0  2  0  0  3  0  0  0  0  0  0
  184.8100  179.3320  138.5060 C   0  0  0  0  0  1  0  0  0  0  0  0
  192.1310  177.6520  139.9120 C   0  0  0  0  0  2  0  0  0  0  0  0
  189.6780  174.3620  137.2180 C   0  0  0  0  0  3  0  0  0  0  0  0
  192.2490  174.5520  136.1410 C   0  0  0  0  0  3  0  0  0  0  0  0
  191.5090  173.3780  135.9810 C   0  0  0  0  0  3  0  0  0  0  0  0
  193.5550  176.6790  138.0230 N   0  0  0  0  0  2  0  0  0  0  0  0
  189.0140  177.4560  140.1890 C   0  0  1  0  0  3  0  0  0  0  0  0
  191.1970  176.5820  140.4610 C   0  0  2  0  0  3  0  0  0  0  0  0
  187.7660  177.1690  139.3980 C   0  0  2  0  0  3  0  0  0  0  0  0
  188.6850  178.4370  142.4340 C   0  0  0  0  0  1  0  0  0  0  0  0
  189.8470  176.6970  138.1570 C   0  0  1  0  0  3  0  0  0  0  0  0
  1  6  1  0  0  0  0
  1 16  1  0  0  0  0
  4 20  1  0  0  0  0
  5 17  1  0  0  0  0
  5 27  1  1  0  0  0
  6 23  1  0  0  0  0
  8  7  1  6  0  0  0
  8 14  1  0  0  0  0
  8  2  1  0  0  0  0
  8 10  1  0  0  0  0
  9 18  1  0  0  0  0
  9 13  1  0  0  0  0
 10 28  1  0  0  0  0
 10 26  1  0  0  0  0
 12 24  1  0  0  0  0
 12 25  1  0  0  0  0
 14  9  2  0  0  0  0
 15 19  1  0  0  0  0
 15 11  2  0  0  0  0
 16 28  1  0  0  0  0
 17  3  1  0  0  0  0
 19 25  1  0  0  0  0
 20 16  2  0  0  0  0
 21  1  2  0  0  0  0
 22 21  1  0  0  0  0
 22  4  2  0  0  0  0
 23 15  1  0  0  0  0
 24  5  1  0  0  0  0
 25 17  1  0  0  0  0
 26 13  1  0  0  0  0
 26 24  1  0  0  0  0
 28 12  1  0  0  0  0
M  END
>  <MODEL>
4

>  <REMARK>
 VINA RESULT:      -5.8      4.425      6.584
  Name = 
  0 active torsions:
  status: ('A' for Active; 'I' for Inactive)
                            x       y       z     vdW  Elec       q    Type
                         _______ _______ _______ _____ _____    ______ ____

>  <TORSDO>
F 0

$$$$
=
 OpenBabel11122411513D

 28 32  0  0  1  0  0  0  0  0999 V2000
  182.2180  179.7390  138.5170 C   0  0  0  0  0  0  0  0  0  0  0  0
  181.1950  175.4790  139.6460 N   0  0  0  0  0  1  0  0  0  0  0  0
  185.4220  176.5370  134.5940 O   0  0  0  0  0  1  0  0  0  0  0  0
  180.4160  180.7180  136.6040 C   0  0  0  0  0  3  0  0  0  0  0  0
  183.6940  175.1400  135.4990 C   0  0  2  0  0  3  0  0  0  0  0  0
  183.1990  179.2520  139.5390 C   0  0  0  0  0  2  0  0  0  0  0  0
  179.3190  176.8100  139.3490 O   0  0  0  0  0  1  0  0  0  0  0  0
  180.1230  175.8530  138.7330 C   0  0  1  0  0  0  0  0  0  0  0  0
  179.6980  173.7910  137.5700 C   0  0  0  0  0  0  0  0  0  0  0  0
  180.6980  176.4440  137.4270 C   0  0  2  0  0  3  0  0  0  0  0  0
  186.5310  178.9840  138.0140 O   0  0  0  0  0  0  0  0  0  0  0  0
  182.8500  176.9880  136.6020 C   0  0  2  0  0  3  0  0  0  0  0  0
  180.8270  174.0290  136.7850 O   0  0  0  0  0  0  0  0  0  0  0  0
  179.3180  174.6690  138.4450 N   0  0  0  0  0  0  0  0  0  0  0  0
  185.3820  178.6220  138.3800 C   0  0  0  0  0  0  0  0  0  0  0  0
  181.5700  178.8470  137.6390 C   0  0  0  0  0  0  0  0  0  0  0  0
  184.8840  176.0720  135.7930 C   0  0  2  0  0  3  0  0  0  0  0  0
  178.9310  172.5300  137.4020 C   0  0  0  0  0  1  0  0  0  0  0  0
  184.9080  177.2490  138.0240 C   0  0  0  0  0  2  0  0  0  0  0  0
  180.6800  179.3470  136.6770 C   0  0  0  0  0  3  0  0  0  0  0  0
  181.9470  181.1100  138.4360 C   0  0  0  0  0  3  0  0  0  0  0  0
  181.0470  181.5980  137.4850 C   0  0  0  0  0  3  0  0  0  0  0  0
  184.5630  179.5380  139.1140 N   0  0  0  0  0  2  0  0  0  0  0  0
  182.7270  175.5210  136.5810 C   0  0  1  0  0  3  0  0  0  0  0  0
  184.3370  177.2550  136.6130 C   0  0  2  0  0  3  0  0  0  0  0  0
  181.2360  175.3570  136.4490 C   0  0  2  0  0  3  0  0  0  0  0  0
  184.1150  173.6930  135.6630 C   0  0  0  0  0  1  0  0  0  0  0  0
  181.8960  177.3840  137.6930 C   0  0  1  0  0  3  0  0  0  0  0  0
  1  6  1  0  0  0  0
  3 17  1  0  0  0  0
  4 20  2  0  0  0  0
  4 22  1  0  0  0  0
  5 27  1  1  0  0  0
  5 17  1  0  0  0  0
  5 24  1  0  0  0  0
  8  7  1  1  0  0  0
  8  2  1  0  0  0  0
  9 14  2  0  0  0  0
 10 28  1  0  0  0  0
 10  8  1  0  0  0  0
 11 15  2  0  0  0  0
 12 25  1  0  0  0  0
 12 28  1  0  0  0  0
 13  9  1  0  0  0  0
 14  8  1  0  0  0  0
 15 23  1  0  0  0  0
 16 28  1  0  0  0  0
 16  1  2  0  0  0  0
 17 25  1  0  0  0  0
 18  9  1  0  0  0  0
 19 15  1  0  0  0  0
 20 16  1  0  0  0  0
 21  1  1  0  0  0  0
 22 21  2  0  0  0  0
 23  6  1  0  0  0  0
 24 12  1  0  0  0  0
 25 19  1  0  0  0  0
 26 24  1  0  0  0  0
 26 13  1  0  0  0  0
 26 10  1  0  0  0  0
M  END
>  <MODEL>
5

>  <REMARK>
 VINA RESULT:      -5.4      3.116      6.015
  Name = 
  0 active torsions:
  status: ('A' for Active; 'I' for Inactive)
                            x       y       z     vdW  Elec       q    Type
                         _______ _______ _______ _____ _____    ______ ____

>  <TORSDO>
F 0

$$$$
=
 OpenBabel11122411513D

 28 32  0  0  1  0  0  0  0  0999 V2000
  181.4910  178.6610  141.9120 C   0  0  0  0  0  0  0  0  0  0  0  0
  179.2890  180.7670  138.5680 N   0  0  0  0  0  1  0  0  0  0  0  0
  180.8910  174.3340  137.8100 O   0  0  0  0  0  1  0  0  0  0  0  0
  184.2650  178.9110  141.5850 C   0  0  0  0  0  3  0  0  0  0  0  0
  180.5790  176.4590  136.7390 C   0  0  2  0  0  3  0  0  0  0  0  0
  180.0160  178.5070  142.1210 C   0  0  0  0  0  2  0  0  0  0  0  0
  181.1630  181.9290  139.2880 O   0  0  0  0  0  1  0  0  0  0  0  0
  180.6880  181.0720  138.2960 C   0  0  1  0  0  0  0  0  0  0  0  0
  180.7540  181.0770  135.8920 C   0  0  0  0  0  0  0  0  0  0  0  0
  181.5390  179.7840  138.2940 C   0  0  2  0  0  3  0  0  0  0  0  0
  179.0780  174.9790  141.7110 O   0  0  0  0  0  0  0  0  0  0  0  0
  181.1600  177.4870  138.7270 C   0  0  2  0  0  3  0  0  0  0  0  0
  180.7740  179.6820  135.9140 O   0  0  0  0  0  0  0  0  0  0  0  0
  180.7780  181.7450  137.0040 N   0  0  0  0  0  0  0  0  0  0  0  0
  179.2980  176.1730  141.3820 C   0  0  0  0  0  0  0  0  0  0  0  0
  182.0350  178.8310  140.6230 C   0  0  0  0  0  0  0  0  0  0  0  0
  180.1510  175.5140  137.8780 C   0  0  2  0  0  3  0  0  0  0  0  0
  180.7050  181.7970  134.5940 C   0  0  0  0  0  1  0  0  0  0  0  0
  179.1610  176.5670  139.9460 C   0  0  0  0  0  2  0  0  0  0  0  0
  183.4250  178.9420  140.4680 C   0  0  0  0  0  3  0  0  0  0  0  0
  182.3410  178.6300  143.0250 C   0  0  0  0  0  3  0  0  0  0  0  0
  183.7230  178.7580  142.8620 C   0  0  0  0  0  3  0  0  0  0  0  0
  179.6810  177.1150  142.3900 N   0  0  0  0  0  2  0  0  0  0  0  0
  180.5550  177.7960  137.4210 C   0  0  1  0  0  3  0  0  0  0  0  0
  180.4500  176.2410  139.2020 C   0  0  2  0  0  3  0  0  0  0  0  0
  181.3990  178.9610  136.9790 C   0  0  2  0  0  3  0  0  0  0  0  0
  179.5530  176.4250  135.6250 C   0  0  0  0  0  1  0  0  0  0  0  0
  181.1310  178.8150  139.4280 C   0  0  1  0  0  3  0  0  0  0  0  0
  1  6  1  0  0  0  0
  1 21  1  0  0  0  0
  3 17  1  0  0  0  0
  4 22  1  0  0  0  0
  5 27  1  6  0  0  0
  5 24  1  0  0  0  0
  5 17  1  0  0  0  0
  6 23  1  0  0  0  0
  8  2  1  1  0  0  0
  8  7  1  0  0  0  0
  9 13  1  0  0  0  0
  9 14  2  0  0  0  0
 10  8  1  0  0  0  0
 10 28  1  0  0  0  0
 12 25  1  0  0  0  0
 12 28  1  0  0  0  0
 13 26  1  0  0  0  0
 14  8  1  0  0  0  0
 15 11  2  0  0  0  0
 15 23  1  0  0  0  0
 16  1  2  0  0  0  0
 17 25  1  0  0  0  0
 18  9  1  0  0  0  0
 19 15  1  0  0  0  0
 20 16  1  0  0  0  0
 20  4  2  0  0  0  0
 22 21  2  0  0  0  0
 24 12  1  0  0  0  0
 25 19  1  0  0  0  0
 26 24  1  0  0  0  0
 26 10  1  0  0  0  0
 28 16  1  0  0  0  0
M  END
>  <MODEL>
6

>  <REMARK>
 VINA RESULT:      -5.4      3.462      6.238
  Name = 
  0 active torsions:
  status: ('A' for Active; 'I' for Inactive)
                            x       y       z     vdW  Elec       q    Type
                         _______ _______ _______ _____ _____    ______ ____

>  <TORSDO>
F 0

$$$$
=
 OpenBabel11122411513D

 28 32  0  0  1  0  0  0  0  0999 V2000
  180.2840  177.2260  136.8690 C   0  0  0  0  0  0  0  0  0  0  0  0
  184.5540  175.8620  137.4760 N   0  0  0  0  0  1  0  0  0  0  0  0
  181.5340  179.2440  142.3710 O   0  0  0  0  0  1  0  0  0  0  0  0
  180.2130  179.7720  135.6960 C   0  0  0  0  0  3  0  0  0  0  0  0
  183.5960  178.7830  141.2330 C   0  0  2  0  0  3  0  0  0  0  0  0
  180.2810  175.8650  137.4950 C   0  0  0  0  0  2  0  0  0  0  0  0
  184.2440  176.9950  135.4760 O   0  0  0  0  0  1  0  0  0  0  0  0
  184.7020  177.1360  136.7850 C   0  0  1  0  0  0  0  0  0  0  0  0
  186.6970  178.0330  137.7840 C   0  0  0  0  0  0  0  0  0  0  0  0
  183.8820  178.2390  137.4890 C   0  0  2  0  0  3  0  0  0  0  0  0
  178.9310  176.0840  140.9050 O   0  0  0  0  0  0  0  0  0  0  0  0
  182.3790  178.3450  139.3170 C   0  0  2  0  0  3  0  0  0  0  0  0
  185.9430  178.4080  138.8970 O   0  0  0  0  0  0  0  0  0  0  0  0
  186.1170  177.4930  136.7570 N   0  0  0  0  0  0  0  0  0  0  0  0
  179.7950  176.0840  139.9900 C   0  0  0  0  0  0  0  0  0  0  0  0
  181.3540  178.1210  137.0650 C   0  0  0  0  0  0  0  0  0  0  0  0
  182.2240  178.2470  141.6820 C   0  0  2  0  0  3  0  0  0  0  0  0
  188.1660  178.2550  137.7760 C   0  0  0  0  0  1  0  0  0  0  0  0
  181.2220  176.3600  140.3400 C   0  0  0  0  0  2  0  0  0  0  0  0
  181.3040  179.3970  136.4850 C   0  0  0  0  0  3  0  0  0  0  0  0
  179.1950  177.6100  136.0770 C   0  0  0  0  0  3  0  0  0  0  0  0
  179.1600  178.8770  135.4900 C   0  0  0  0  0  3  0  0  0  0  0  0
  179.3830  175.8320  138.6420 N   0  0  0  0  0  2  0  0  0  0  0  0
  183.7340  178.1760  139.8670 C   0  0  1  0  0  3  0  0  0  0  0  0
  181.4500  177.8640  140.4060 C   0  0  2  0  0  3  0  0  0  0  0  0
  184.5690  178.7870  138.7750 C   0  0  2  0  0  3  0  0  0  0  0  0
  184.6830  178.2580  142.1480 C   0  0  0  0  0  1  0  0  0  0  0  0
  182.4980  177.7280  137.9520 C   0  0  1  0  0  3  0  0  0  0  0  0
  1 16  1  0  0  0  0
  1  6  1  0  0  0  0
  4 20  1  0  0  0  0
  5 17  1  0  0  0  0
  5 27  1  1  0  0  0
  6 23  1  0  0  0  0
  8  7  1  6  0  0  0
  8  2  1  0  0  0  0
  8 10  1  0  0  0  0
  9 13  1  0  0  0  0
 10 28  1  0  0  0  0
 10 26  1  0  0  0  0
 12 24  1  0  0  0  0
 12 25  1  0  0  0  0
 14  8  1  0  0  0  0
 14  9  2  0  0  0  0
 15 19  1  0  0  0  0
 15 11  2  0  0  0  0
 16 28  1  0  0  0  0
 17  3  1  0  0  0  0
 18  9  1  0  0  0  0
 19 25  1  0  0  0  0
 20 16  2  0  0  0  0
 21  1  2  0  0  0  0
 22  4  2  0  0  0  0
 22 21  1  0  0  0  0
 23 15  1  0  0  0  0
 24  5  1  0  0  0  0
 25 17  1  0  0  0  0
 26 13  1  0  0  0  0
 26 24  1  0  0  0  0
 28 12  1  0  0  0  0
M  END
>  <MODEL>
7

>  <REMARK>
 VINA RESULT:      -5.3      2.785      5.684
  Name = 
  0 active torsions:
  status: ('A' for Active; 'I' for Inactive)
                            x       y       z     vdW  Elec       q    Type
                         _______ _______ _______ _____ _____    ______ ____

>  <TORSDO>
F 0

$$$$
=
 OpenBabel11122411513D

 28 32  0  0  1  0  0  0  0  0999 V2000
  182.6710  177.3430  137.2920 C   0  0  0  0  0  0  0  0  0  0  0  0
  185.2480  173.6500  137.7200 N   0  0  0  0  0  1  0  0  0  0  0  0
  188.2230  179.5850  137.0580 O   0  0  0  0  0  1  0  0  0  0  0  0
  182.1010  177.8480  134.5940 C   0  0  0  0  0  3  0  0  0  0  0  0
  188.3220  177.2330  136.5920 C   0  0  2  0  0  3  0  0  0  0  0  0
  182.9530  177.1060  138.7440 C   0  0  0  0  0  2  0  0  0  0  0  0
  183.6260  173.4340  136.0760 O   0  0  0  0  0  1  0  0  0  0  0  0
  184.9760  173.7080  136.2890 C   0  0  1  0  0  0  0  0  0  0  0  0
  187.0310  172.8920  135.3430 C   0  0  0  0  0  0  0  0  0  0  0  0
  185.3000  175.1090  135.7270 C   0  0  2  0  0  3  0  0  0  0  0  0
  185.0690  179.8130  140.0440 O   0  0  0  0  0  0  0  0  0  0  0  0
  186.0110  177.1840  136.6200 C   0  0  2  0  0  3  0  0  0  0  0  0
  187.6030  174.1450  135.5670 O   0  0  0  0  0  0  0  0  0  0  0  0
  185.7790  172.6910  135.6170 N   0  0  0  0  0  0  0  0  0  0  0  0
  184.7820  178.7050  139.5210 C   0  0  0  0  0  0  0  0  0  0  0  0
  183.5640  176.9110  136.2910 C   0  0  0  0  0  0  0  0  0  0  0  0
  187.8590  178.3370  137.5610 C   0  0  2  0  0  3  0  0  0  0  0  0
  187.8570  171.7890  134.7880 C   0  0  0  0  0  1  0  0  0  0  0  0
  185.8900  177.8180  139.0510 C   0  0  0  0  0  2  0  0  0  0  0  0
  183.2760  177.1790  134.9450 C   0  0  0  0  0  3  0  0  0  0  0  0
  181.4950  178.0120  136.9300 C   0  0  0  0  0  3  0  0  0  0  0  0
  181.2090  178.2610  135.5860 C   0  0  0  0  0  3  0  0  0  0  0  0
  183.4060  178.3340  139.3830 N   0  0  0  0  0  2  0  0  0  0  0  0
  187.1680  176.2750  136.6400 C   0  0  1  0  0  3  0  0  0  0  0  0
  186.3250  178.2400  137.6530 C   0  0  2  0  0  3  0  0  0  0  0  0
  186.8250  175.3430  135.5090 C   0  0  2  0  0  3  0  0  0  0  0  0
  189.5750  176.5680  137.1250 C   0  0  0  0  0  1  0  0  0  0  0  0
  184.8460  176.2380  136.6810 C   0  0  1  0  0  3  0  0  0  0  0  0
  1  6  1  0  0  0  0
  3 17  1  0  0  0  0
  4 20  2  0  0  0  0
  4 22  1  0  0  0  0
  5 24  1  0  0  0  0
  5 27  1  1  0  0  0
  5 17  1  0  0  0  0
  6 23  1  0  0  0  0
  8  7  1  6  0  0  0
  8  2  1  0  0  0  0
  9 13  1  0  0  0  0
  9 14  2  0  0  0  0
 10  8  1  0  0  0  0
 10 28  1  0  0  0  0
 12 24  1  0  0  0  0
 12 28  1  0  0  0  0
 12 25  1  0  0  0  0
 14  8  1  0  0  0  0
 15 11  2  0  0  0  0
 16 28  1  0  0  0  0
 16  1  2  0  0  0  0
 17 25  1  0  0  0  0
 18  9  1  0  0  0  0
 19 15  1  0  0  0  0
 20 16  1  0  0  0  0
 21  1  1  0  0  0  0
 22 21  2  0  0  0  0
 23 15  1  0  0  0  0
 25 19  1  0  0  0  0
 26 13  1  0  0  0  0
 26 10  1  0  0  0  0
 26 24  1  0  0  0  0
M  END
>  <MODEL>
8

>  <REMARK>
 VINA RESULT:      -5.3      3.473      6.937
  Name = 
  0 active torsions:
  status: ('A' for Active; 'I' for Inactive)
                            x       y       z     vdW  Elec       q    Type
                         _______ _______ _______ _____ _____    ______ ____

>  <TORSDO>
F 0

$$$$
=
 OpenBabel11122411513D

 28 32  0  0  1  0  0  0  0  0999 V2000
  180.7090  179.3300  140.4590 C   0  0  0  0  0  0  0  0  0  0  0  0
  180.8380  175.0790  138.9160 N   0  0  0  0  0  1  0  0  0  0  0  0
  186.1500  179.0030  137.9710 O   0  0  0  0  0  1  0  0  0  0  0  0
  179.6660  181.0600  138.5150 C   0  0  0  0  0  3  0  0  0  0  0  0
  184.7980  177.2210  137.1020 C   0  0  2  0  0  3  0  0  0  0  0  0
  181.2700  178.4370  141.5230 C   0  0  0  0  0  2  0  0  0  0  0  0
  178.9310  176.2220  138.2550 O   0  0  0  0  0  1  0  0  0  0  0  0
  180.1940  175.8120  137.8330 C   0  0  1  0  0  0  0  0  0  0  0  0
  181.0350  174.6860  135.8810 C   0  0  0  0  0  0  0  0  0  0  0  0
  181.0230  177.0550  137.4450 C   0  0  2  0  0  3  0  0  0  0  0  0
  184.8000  179.2750  142.0960 O   0  0  0  0  0  0  0  0  0  0  0  0
  182.9910  178.1100  138.2370 C   0  0  2  0  0  3  0  0  0  0  0  0
  182.2310  175.3910  136.0200 O   0  0  0  0  0  0  0  0  0  0  0  0
  180.0450  174.9200  136.6870 N   0  0  0  0  0  0  0  0  0  0  0  0
  183.8070  178.6920  141.5890 C   0  0  0  0  0  0  0  0  0  0  0  0
  180.8410  179.0140  139.0920 C   0  0  0  0  0  0  0  0  0  0  0  0
  185.3530  177.9250  138.3550 C   0  0  2  0  0  3  0  0  0  0  0  0
  180.8950  173.6680  134.8090 C   0  0  0  0  0  1  0  0  0  0  0  0
  184.0300  177.7020  140.4910 C   0  0  0  0  0  2  0  0  0  0  0  0
  180.3270  179.8920  138.1260 C   0  0  0  0  0  3  0  0  0  0  0  0
  180.0450  180.5030  140.8380 C   0  0  0  0  0  3  0  0  0  0  0  0
  179.5220  181.3630  139.8700 C   0  0  0  0  0  3  0  0  0  0  0  0
  182.4950  179.0030  142.0710 N   0  0  0  0  0  2  0  0  0  0  0  0
  183.4000  176.8850  137.5310 C   0  0  1  0  0  3  0  0  0  0  0  0
  184.1420  178.4330  139.1590 C   0  0  2  0  0  3  0  0  0  0  0  0
  182.2600  176.7140  136.5620 C   0  0  2  0  0  3  0  0  0  0  0  0
  185.5800  175.9500  136.8330 C   0  0  0  0  0  1  0  0  0  0  0  0
  181.5940  177.7830  138.6840 C   0  0  1  0  0  3  0  0  0  0  0  0
  1 21  1  0  0  0  0
  1  6  1  0  0  0  0
  3 17  1  0  0  0  0
  4 22  1  0  0  0  0
  5 27  1  1  0  0  0
  5 24  1  0  0  0  0
  5 17  1  0  0  0  0
  6 23  1  0  0  0  0
  8  7  1  1  0  0  0
  8  2  1  0  0  0  0
  9 13  1  0  0  0  0
  9 14  2  0  0  0  0
 10  8  1  0  0  0  0
 10 28  1  0  0  0  0
 12 28  1  0  0  0  0
 12 25  1  0  0  0  0
 13 26  1  0  0  0  0
 14  8  1  0  0  0  0
 15 23  1  0  0  0  0
 15 11  2  0  0  0  0
 16  1  2  0  0  0  0
 17 25  1  0  0  0  0
 18  9  1  0  0  0  0
 19 15  1  0  0  0  0
 20  4  2  0  0  0  0
 20 16  1  0  0  0  0
 22 21  2  0  0  0  0
 24 12  1  0  0  0  0
 25 19  1  0  0  0  0
 26 10  1  0  0  0  0
 26 24  1  0  0  0  0
 28 16  1  0  0  0  0
M  END
>  <MODEL>
9

>  <REMARK>
 VINA RESULT:      -5.1      2.730      5.818
  Name = 
  0 active torsions:
  status: ('A' for Active; 'I' for Inactive)
                            x       y       z     vdW  Elec       q    Type
                         _______ _______ _______ _____ _____    ______ ____

>  <TORSDO>
F 0

$$$$
