=
 OpenBabel11122411073D

 31 35  0  0  1  0  0  0  0  0999 V2000
  185.3370  178.3890  144.4240 C   0  0  0  0  0  0  0  0  0  0  0  0
  189.0310  177.5570  143.6790 C   0  0  0  0  0  0  0  0  0  0  0  0
  189.6880  177.2880  145.0010 C   0  0  0  0  0  0  0  0  0  0  0  0
  189.7970  177.5000  147.4270 C   0  0  0  0  0  0  0  0  0  0  0  0
  187.6540  177.8750  143.5330 C   0  0  0  0  0  0  0  0  0  0  0  0
  184.8910  178.6120  143.0460 C   0  0  0  0  0  3  0  0  0  0  0  0
  189.1440  177.7400  146.2150 C   0  0  0  0  0  3  0  0  0  0  0  0
  189.2700  177.7090  141.2570 C   0  0  0  0  0  0  0  0  0  0  0  0
  184.5410  178.6030  145.3740 O   0  0  0  0  0  0  0  0  0  0  0  0
  191.5500  176.1290  143.7580 C   0  0  0  0  0  2  0  0  0  0  0  0
  189.2380  177.9470  148.6150 O   0  0  0  0  0  1  0  0  0  0  0  0
  187.9570  178.0290  141.1550 N   0  0  0  0  0  0  0  0  0  0  0  0
  189.8330  177.4520  142.5170 C   0  0  0  0  0  0  0  0  0  0  0  0
  186.7120  177.8640  144.7190 C   0  0  0  0  0  2  0  0  0  0  0  0
  191.0110  176.8120  147.4410 C   0  0  0  0  0  3  0  0  0  0  0  0
  187.1450  178.1150  142.2370 C   0  0  0  0  0  0  0  0  0  0  0  0
  185.7340  178.4740  142.0280 C   0  0  0  0  0  3  0  0  0  0  0  0
  191.3020  177.1350  142.6380 C   0  0  0  0  0  2  0  0  0  0  0  0
  190.9310  176.6190  145.0290 C   0  0  0  0  0  0  0  0  0  0  0  0
  191.5770  176.3710  146.2440 C   0  0  0  0  0  3  0  0  0  0  0  0
  190.0870  177.6140  140.0060 C   0  0  0  0  0  2  0  0  0  0  0  0
  190.7450  175.6900  138.7470 O   0  0  0  0  0  1  0  0  0  0  0  0
  189.6340  176.4350  139.1560 C   0  0  2  0  0  3  0  0  0  0  0  0
  187.1710  178.0590  136.0180 C   0  0  0  0  0  0  0  0  0  0  0  0
  189.2600  178.1490  137.3050 C   0  0  0  0  0  2  0  0  0  0  0  0
  188.1120  174.8270  137.2750 O   0  0  0  0  0  0  0  0  0  0  0  0
  187.1270  178.1540  134.8020 O   0  0  0  0  0  0  0  0  0  0  0  0
  188.0520  178.9520  136.8260 C   0  0  0  0  0  2  0  0  0  0  0  0
  187.8830  176.0570  137.4150 C   0  0  0  0  0  0  0  0  0  0  0  0
  188.8690  176.9180  138.0070 N   0  0  0  0  0  0  0  0  0  0  0  0
  186.3190  176.7420  136.8680 S   0  0  0  0  0  0  0  0  0  0  0  0
  1 14  1  0  0  0  0
  1  9  2  0  0  0  0
  2  3  1  0  0  0  0
  3 19  2  0  0  0  0
  3  7  1  0  0  0  0
  4 15  1  0  0  0  0
  4 11  1  0  0  0  0
  5  2  1  0  0  0  0
  5 14  1  0  0  0  0
  6  1  1  0  0  0  0
  7  4  2  0  0  0  0
  8 13  1  0  0  0  0
 10 19  1  0  0  0  0
 12  8  2  0  0  0  0
 12 16  1  0  0  0  0
 13 18  1  0  0  0  0
 13  2  2  0  0  0  0
 16  5  2  0  0  0  0
 17 16  1  0  0  0  0
 17  6  2  0  0  0  0
 18 10  1  0  0  0  0
 19 20  1  0  0  0  0
 20 15  2  0  0  0  0
 21  8  1  0  0  0  0
 23 22  1  6  0  0  0
 23 21  1  0  0  0  0
 24 28  1  0  0  0  0
 24 31  1  0  0  0  0
 25 30  1  0  0  0  0
 26 29  2  0  0  0  0
 27 24  2  0  0  0  0
 28 25  1  0  0  0  0
 29 30  1  0  0  0  0
 30 23  1  0  0  0  0
 31 29  1  0  0  0  0
M  END
>  <MODEL>
1

>  <REMARK>
 VINA RESULT:     -10.8      0.000      0.000
  Name = 
  3 active torsions:
  status: ('A' for Active; 'I' for Inactive)
    1  A    between atoms: C_5  and  C_16
    2  A    between atoms: C_5  and  N_30
    3  A    between atoms: C_10  and  C_16
                            x       y       z     vdW  Elec       q    Type
                         _______ _______ _______ _____ _____    ______ ____

>  <TORSDO>
F 3

$$$$
=
 OpenBabel11122411073D

 31 35  0  0  1  0  0  0  0  0999 V2000
  190.8890  177.3920  141.9740 C   0  0  0  0  0  0  0  0  0  0  0  0
  187.5990  177.9140  143.9220 C   0  0  0  0  0  0  0  0  0  0  0  0
  187.9310  177.7620  145.3780 C   0  0  0  0  0  0  0  0  0  0  0  0
  189.3490  176.9440  147.1830 C   0  0  0  0  0  0  0  0  0  0  0  0
  188.5600  177.8170  142.8800 C   0  0  0  0  0  0  0  0  0  0  0  0
  190.3610  177.5750  140.6190 C   0  0  0  0  0  3  0  0  0  0  0  0
  189.0860  177.0960  145.8190 C   0  0  0  0  0  3  0  0  0  0  0  0
  185.8890  178.3380  142.2360 C   0  0  0  0  0  0  0  0  0  0  0  0
  192.0890  177.0510  142.1290 O   0  0  0  0  0  0  0  0  0  0  0  0
  185.7730  178.9510  145.9180 C   0  0  0  0  0  2  0  0  0  0  0  0
  190.5010  176.2900  147.5970 O   0  0  0  0  0  1  0  0  0  0  0  0
  186.8280  178.2200  141.2660 N   0  0  0  0  0  0  0  0  0  0  0  0
  186.2550  178.2020  143.5840 C   0  0  0  0  0  0  0  0  0  0  0  0
  190.0350  177.6510  143.1810 C   0  0  0  0  0  2  0  0  0  0  0  0
  188.4550  177.4500  148.1270 C   0  0  0  0  0  3  0  0  0  0  0  0
  188.1310  177.9710  141.5430 C   0  0  0  0  0  0  0  0  0  0  0  0
  189.0760  177.8540  140.4220 C   0  0  0  0  0  3  0  0  0  0  0  0
  185.2060  178.2930  144.6640 C   0  0  0  0  0  2  0  0  0  0  0  0
  187.0200  178.2430  146.3440 C   0  0  0  0  0  0  0  0  0  0  0  0
  187.2920  178.0990  147.7080 C   0  0  0  0  0  3  0  0  0  0  0  0
  184.4770  178.6370  141.8390 C   0  0  0  0  0  2  0  0  0  0  0  0
  184.5290  179.8790  139.7950 O   0  0  0  0  0  1  0  0  0  0  0  0
  184.3250  178.6000  140.3250 C   0  0  2  0  0  3  0  0  0  0  0  0
  180.4430  176.8790  139.6040 C   0  0  0  0  0  0  0  0  0  0  0  0
  181.7830  178.7540  140.4510 C   0  0  0  0  0  2  0  0  0  0  0  0
  183.6060  177.1360  137.9200 O   0  0  0  0  0  0  0  0  0  0  0  0
  179.4610  177.0220  138.8940 O   0  0  0  0  0  0  0  0  0  0  0  0
  180.6710  177.7600  140.7860 C   0  0  0  0  0  2  0  0  0  0  0  0
  182.8940  177.0770  138.9560 C   0  0  0  0  0  0  0  0  0  0  0  0
  183.0010  178.0870  139.9720 N   0  0  0  0  0  0  0  0  0  0  0  0
  181.7330  175.7270  139.1650 S   0  0  0  0  0  0  0  0  0  0  0  0
  1  9  2  0  0  0  0
  1 14  1  0  0  0  0
  2  3  1  0  0  0  0
  3  7  2  0  0  0  0
  3 19  1  0  0  0  0
  4 11  1  0  0  0  0
  4 15  2  0  0  0  0
  5 14  1  0  0  0  0
  5  2  2  0  0  0  0
  6  1  1  0  0  0  0
  7  4  1  0  0  0  0
  8 13  2  0  0  0  0
 10 19  1  0  0  0  0
 12 16  2  0  0  0  0
 12  8  1  0  0  0  0
 13  2  1  0  0  0  0
 13 18  1  0  0  0  0
 16  5  1  0  0  0  0
 17  6  2  0  0  0  0
 17 16  1  0  0  0  0
 18 10  1  0  0  0  0
 19 20  2  0  0  0  0
 20 15  1  0  0  0  0
 21  8  1  0  0  0  0
 23 22  1  1  0  0  0
 23 21  1  0  0  0  0
 24 28  1  0  0  0  0
 25 28  1  0  0  0  0
 26 29  2  0  0  0  0
 27 24  2  0  0  0  0
 29 31  1  0  0  0  0
 29 30  1  0  0  0  0
 30 23  1  0  0  0  0
 30 25  1  0  0  0  0
 31 24  1  0  0  0  0
M  END
>  <MODEL>
2

>  <REMARK>
 VINA RESULT:     -10.5      3.240      5.321
  Name = 
  3 active torsions:
  status: ('A' for Active; 'I' for Inactive)
    1  A    between atoms: C_5  and  C_16
    2  A    between atoms: C_5  and  N_30
    3  A    between atoms: C_10  and  C_16
                            x       y       z     vdW  Elec       q    Type
                         _______ _______ _______ _____ _____    ______ ____

>  <TORSDO>
F 3

$$$$
=
 OpenBabel11122411073D

 31 35  0  0  1  0  0  0  0  0999 V2000
  184.1310  178.5270  143.5370 C   0  0  0  0  0  0  0  0  0  0  0  0
  187.9380  177.9450  143.2800 C   0  0  0  0  0  0  0  0  0  0  0  0
  188.4230  177.6470  144.6680 C   0  0  0  0  0  0  0  0  0  0  0  0
  188.1870  177.7430  147.0920 C   0  0  0  0  0  0  0  0  0  0  0  0
  186.5760  178.1910  142.9570 C   0  0  0  0  0  0  0  0  0  0  0  0
  183.8640  178.7940  142.1210 C   0  0  0  0  0  3  0  0  0  0  0  0
  187.6910  178.0060  145.8130 C   0  0  0  0  0  3  0  0  0  0  0  0
  188.4960  178.2310  140.9240 C   0  0  0  0  0  0  0  0  0  0  0  0
  183.2010  178.6470  144.3760 O   0  0  0  0  0  0  0  0  0  0  0  0
  190.5070  176.6600  143.6490 C   0  0  0  0  0  2  0  0  0  0  0  0
  187.4440  178.0970  148.2090 O   0  0  0  0  0  1  0  0  0  0  0  0
  187.1910  178.4810  140.6530 N   0  0  0  0  0  0  0  0  0  0  0  0
  188.8950  177.9440  142.2380 C   0  0  0  0  0  0  0  0  0  0  0  0
  185.4840  178.0670  143.9990 C   0  0  0  0  0  2  0  0  0  0  0  0
  189.4290  177.1240  147.2470 C   0  0  0  0  0  3  0  0  0  0  0  0
  186.2350  178.4660  141.6140 C   0  0  0  0  0  0  0  0  0  0  0  0
  184.8460  178.7550  141.2250 C   0  0  0  0  0  3  0  0  0  0  0  0
  190.3510  177.7050  142.5490 C   0  0  0  0  0  2  0  0  0  0  0  0
  189.6910  177.0490  144.8400 C   0  0  0  0  0  0  0  0  0  0  0  0
  190.1790  176.7780  146.1220 C   0  0  0  0  0  3  0  0  0  0  0  0
  189.4790  178.2460  139.7960 C   0  0  0  0  0  2  0  0  0  0  0  0
  190.6810  176.5560  138.6040 O   0  0  0  0  0  1  0  0  0  0  0  0
  189.3990  176.9550  138.9940 C   0  0  2  0  0  3  0  0  0  0  0  0
  186.5890  177.6860  135.8120 C   0  0  0  0  0  0  0  0  0  0  0  0
  188.6160  178.3660  137.0200 C   0  0  0  0  0  2  0  0  0  0  0  0
  188.2670  174.8800  137.3030 O   0  0  0  0  0  0  0  0  0  0  0  0
  186.5090  177.6600  134.5950 O   0  0  0  0  0  0  0  0  0  0  0  0
  187.2480  178.8250  136.5140 C   0  0  0  0  0  2  0  0  0  0  0  0
  187.7620  176.0330  137.3470 C   0  0  0  0  0  0  0  0  0  0  0  0
  188.5280  177.1460  137.8330 N   0  0  0  0  0  0  0  0  0  0  0  0
  186.0750  176.2880  136.7960 S   0  0  0  0  0  0  0  0  0  0  0  0
  1 14  1  0  0  0  0
  1  9  2  0  0  0  0
  2  3  1  0  0  0  0
  3 19  2  0  0  0  0
  3  7  1  0  0  0  0
  4 15  1  0  0  0  0
  4 11  1  0  0  0  0
  5  2  1  0  0  0  0
  5 14  1  0  0  0  0
  6  1  1  0  0  0  0
  7  4  2  0  0  0  0
  8 13  1  0  0  0  0
 10 19  1  0  0  0  0
 12  8  2  0  0  0  0
 12 16  1  0  0  0  0
 13 18  1  0  0  0  0
 13  2  2  0  0  0  0
 16  5  2  0  0  0  0
 17 16  1  0  0  0  0
 17  6  2  0  0  0  0
 18 10  1  0  0  0  0
 19 20  1  0  0  0  0
 20 15  2  0  0  0  0
 21  8  1  0  0  0  0
 23 22  1  6  0  0  0
 23 21  1  0  0  0  0
 24 28  1  0  0  0  0
 24 31  1  0  0  0  0
 25 30  1  0  0  0  0
 26 29  2  0  0  0  0
 27 24  2  0  0  0  0
 28 25  1  0  0  0  0
 29 30  1  0  0  0  0
 30 23  1  0  0  0  0
 31 29  1  0  0  0  0
M  END
>  <MODEL>
3

>  <REMARK>
 VINA RESULT:     -10.2      0.988      1.173
  Name = 
  3 active torsions:
  status: ('A' for Active; 'I' for Inactive)
    1  A    between atoms: C_5  and  C_16
    2  A    between atoms: C_5  and  N_30
    3  A    between atoms: C_10  and  C_16
                            x       y       z     vdW  Elec       q    Type
                         _______ _______ _______ _____ _____    ______ ____

>  <TORSDO>
F 3

$$$$
=
 OpenBabel11122411073D

 31 35  0  0  1  0  0  0  0  0999 V2000
  190.5200  177.6390  141.4060 C   0  0  0  0  0  0  0  0  0  0  0  0
  188.1140  177.6860  144.4240 C   0  0  0  0  0  0  0  0  0  0  0  0
  188.9590  177.5150  145.6520 C   0  0  0  0  0  0  0  0  0  0  0  0
  191.0020  176.7950  146.7690 C   0  0  0  0  0  0  0  0  0  0  0  0
  188.6420  177.7470  143.1060 C   0  0  0  0  0  0  0  0  0  0  0  0
  189.5260  177.8150  140.3440 C   0  0  0  0  0  3  0  0  0  0  0  0
  190.2530  176.9710  145.6020 C   0  0  0  0  0  3  0  0  0  0  0  0
  185.8810  177.9760  143.4880 C   0  0  0  0  0  0  0  0  0  0  0  0
  191.7230  177.4360  141.1010 O   0  0  0  0  0  0  0  0  0  0  0  0
  187.0360  178.4170  147.0110 C   0  0  0  0  0  2  0  0  0  0  0  0
  192.2820  176.2650  146.6970 O   0  0  0  0  0  1  0  0  0  0  0  0
  186.4160  178.0100  142.2430 N   0  0  0  0  0  0  0  0  0  0  0  0
  186.7170  177.8280  144.6050 C   0  0  0  0  0  0  0  0  0  0  0  0
  190.1350  177.7450  142.8530 C   0  0  0  0  0  2  0  0  0  0  0  0
  190.4620  177.1520  148.0060 C   0  0  0  0  0  3  0  0  0  0  0  0
  187.7490  177.9050  142.0220 C   0  0  0  0  0  0  0  0  0  0  0  0
  188.2350  177.9480  140.6350 C   0  0  0  0  0  3  0  0  0  0  0  0
  186.1230  177.7490  145.9880 C   0  0  0  0  0  2  0  0  0  0  0  0
  188.4150  177.8440  146.9130 C   0  0  0  0  0  0  0  0  0  0  0  0
  189.1710  177.6760  148.0770 C   0  0  0  0  0  3  0  0  0  0  0  0
  184.3990  178.1220  143.6380 C   0  0  0  0  0  2  0  0  0  0  0  0
  183.2830  180.2320  143.7870 O   0  0  0  0  0  1  0  0  0  0  0  0
  183.9010  179.3520  142.8930 C   0  0  2  0  0  3  0  0  0  0  0  0
  181.2250  177.8060  139.8930 C   0  0  0  0  0  0  0  0  0  0  0  0
  181.5300  178.9260  142.0560 C   0  0  0  0  0  2  0  0  0  0  0  0
  184.3130  179.6370  140.0300 O   0  0  0  0  0  0  0  0  0  0  0  0
  180.4310  178.1840  139.0470 O   0  0  0  0  0  0  0  0  0  0  0  0
  180.8470  177.7640  141.3350 C   0  0  0  0  0  2  0  0  0  0  0  0
  183.4830  178.8090  140.4900 C   0  0  0  0  0  0  0  0  0  0  0  0
  182.9810  178.9470  141.8290 N   0  0  0  0  0  0  0  0  0  0  0  0
  182.9210  177.4490  139.4660 S   0  0  0  0  0  0  0  0  0  0  0  0
  1 14  1  0  0  0  0
  2 13  1  0  0  0  0
  2  3  1  0  0  0  0
  3 19  1  0  0  0  0
  4 15  2  0  0  0  0
  5  2  2  0  0  0  0
  6 17  2  0  0  0  0
  6  1  1  0  0  0  0
  7  3  2  0  0  0  0
  7  4  1  0  0  0  0
  8 21  1  0  0  0  0
  8 13  2  0  0  0  0
  9  1  2  0  0  0  0
 11  4  1  0  0  0  0
 12  8  1  0  0  0  0
 13 18  1  0  0  0  0
 14  5  1  0  0  0  0
 15 20  1  0  0  0  0
 16 12  2  0  0  0  0
 16  5  1  0  0  0  0
 17 16  1  0  0  0  0
 18 10  1  0  0  0  0
 19 10  1  0  0  0  0
 19 20  2  0  0  0  0
 23 21  1  0  0  0  0
 23 22  1  1  0  0  0
 24 28  1  0  0  0  0
 26 29  2  0  0  0  0
 27 24  2  0  0  0  0
 28 25  1  0  0  0  0
 29 30  1  0  0  0  0
 30 25  1  0  0  0  0
 30 23  1  0  0  0  0
 31 24  1  0  0  0  0
 31 29  1  0  0  0  0
M  END
>  <MODEL>
4

>  <REMARK>
 VINA RESULT:     -10.1      2.855      5.517
  Name = 
  3 active torsions:
  status: ('A' for Active; 'I' for Inactive)
    1  A    between atoms: C_5  and  C_16
    2  A    between atoms: C_5  and  N_30
    3  A    between atoms: C_10  and  C_16
                            x       y       z     vdW  Elec       q    Type
                         _______ _______ _______ _____ _____    ______ ____

>  <TORSDO>
F 3

$$$$
=
 OpenBabel11122411073D

 31 35  0  0  1  0  0  0  0  0999 V2000
  190.7890  177.4350  141.9340 C   0  0  0  0  0  0  0  0  0  0  0  0
  187.5590  177.8840  143.9980 C   0  0  0  0  0  0  0  0  0  0  0  0
  187.9490  177.7620  145.4420 C   0  0  0  0  0  0  0  0  0  0  0  0
  189.4580  177.0100  147.2020 C   0  0  0  0  0  0  0  0  0  0  0  0
  188.4830  177.8020  142.9230 C   0  0  0  0  0  0  0  0  0  0  0  0
  190.2050  177.5840  140.5980 C   0  0  0  0  0  3  0  0  0  0  0  0
  189.1390  177.1350  145.8480 C   0  0  0  0  0  3  0  0  0  0  0  0
  185.7760  178.2360  142.3730 C   0  0  0  0  0  0  0  0  0  0  0  0
  192.0040  177.1310  142.0490 O   0  0  0  0  0  0  0  0  0  0  0  0
  185.7790  178.8930  146.0490 C   0  0  0  0  0  2  0  0  0  0  0  0
  190.6430  176.3950  147.5810 O   0  0  0  0  0  1  0  0  0  0  0  0
  186.6810  178.1330  141.3690 N   0  0  0  0  0  0  0  0  0  0  0  0
  186.1950  178.1290  143.7080 C   0  0  0  0  0  0  0  0  0  0  0  0
  189.9730  177.6840  143.1690 C   0  0  0  0  0  2  0  0  0  0  0  0
  188.5850  177.5010  148.1740 C   0  0  0  0  0  3  0  0  0  0  0  0
  188.0010  177.9260  141.6010 C   0  0  0  0  0  0  0  0  0  0  0  0
  188.9060  177.8230  140.4470 C   0  0  0  0  0  3  0  0  0  0  0  0
  185.1860  178.2030  144.8250 C   0  0  0  0  0  2  0  0  0  0  0  0
  187.0620  178.2280  146.4370 C   0  0  0  0  0  0  0  0  0  0  0  0
  187.3880  178.1100  147.7910 C   0  0  0  0  0  3  0  0  0  0  0  0
  184.3420  178.4880  142.0250 C   0  0  0  0  0  2  0  0  0  0  0  0
  184.2090  179.7680  140.0090 O   0  0  0  0  0  1  0  0  0  0  0  0
  184.1420  178.4670  140.5170 C   0  0  2  0  0  3  0  0  0  0  0  0
  180.4180  176.7400  139.2120 C   0  0  0  0  0  0  0  0  0  0  0  0
  182.7990  176.4460  139.7320 C   0  0  0  0  0  2  0  0  0  0  0  0
  181.5530  179.0940  141.6790 O   0  0  0  0  0  0  0  0  0  0  0  0
  179.5480  175.9710  139.5870 O   0  0  0  0  0  0  0  0  0  0  0  0
  181.7140  176.2330  138.6770 C   0  0  0  0  0  2  0  0  0  0  0  0
  181.6450  178.5070  140.5680 C   0  0  0  0  0  0  0  0  0  0  0  0
  182.8600  177.8390  140.1950 N   0  0  0  0  0  0  0  0  0  0  0  0
  180.2470  178.5020  139.4450 S   0  0  0  0  0  0  0  0  0  0  0  0
  1  9  2  0  0  0  0
  1 14  1  0  0  0  0
  2  3  1  0  0  0  0
  3  7  2  0  0  0  0
  3 19  1  0  0  0  0
  4 11  1  0  0  0  0
  4 15  2  0  0  0  0
  5 14  1  0  0  0  0
  5  2  2  0  0  0  0
  6  1  1  0  0  0  0
  7  4  1  0  0  0  0
  8 13  2  0  0  0  0
 10 19  1  0  0  0  0
 12 16  2  0  0  0  0
 12  8  1  0  0  0  0
 13  2  1  0  0  0  0
 13 18  1  0  0  0  0
 16  5  1  0  0  0  0
 17  6  2  0  0  0  0
 17 16  1  0  0  0  0
 18 10  1  0  0  0  0
 19 20  2  0  0  0  0
 20 15  1  0  0  0  0
 21  8  1  0  0  0  0
 23 22  1  1  0  0  0
 23 21  1  0  0  0  0
 24 31  1  0  0  0  0
 24 27  2  0  0  0  0
 25 30  1  0  0  0  0
 28 24  1  0  0  0  0
 28 25  1  0  0  0  0
 29 26  2  0  0  0  0
 30 23  1  0  0  0  0
 30 29  1  0  0  0  0
 31 29  1  0  0  0  0
M  END
>  <MODEL>
5

>  <REMARK>
 VINA RESULT:      -9.9      3.354      5.547
  Name = 
  3 active torsions:
  status: ('A' for Active; 'I' for Inactive)
    1  A    between atoms: C_5  and  C_16
    2  A    between atoms: C_5  and  N_30
    3  A    between atoms: C_10  and  C_16
                            x       y       z     vdW  Elec       q    Type
                         _______ _______ _______ _____ _____    ______ ____

>  <TORSDO>
F 3

$$$$
=
 OpenBabel11122411073D

 31 35  0  0  1  0  0  0  0  0999 V2000
  190.2740  177.1090  145.7410 C   0  0  0  0  0  0  0  0  0  0  0  0
  187.4530  177.8910  143.2250 C   0  0  0  0  0  0  0  0  0  0  0  0
  186.2530  178.2880  144.0320 C   0  0  0  0  0  0  0  0  0  0  0  0
  184.9690  178.3080  146.1040 C   0  0  0  0  0  0  0  0  0  0  0  0
  188.7100  177.5510  143.7950 C   0  0  0  0  0  0  0  0  0  0  0  0
  191.3200  176.7530  144.7780 C   0  0  0  0  0  3  0  0  0  0  0  0
  186.1150  177.9500  145.3890 C   0  0  0  0  0  3  0  0  0  0  0  0
  188.4110  177.5120  141.0150 C   0  0  0  0  0  0  0  0  0  0  0  0
  190.4960  176.9810  146.9720 O   0  0  0  0  0  0  0  0  0  0  0  0
  185.2910  179.3360  141.9510 C   0  0  0  0  0  2  0  0  0  0  0  0
  184.8580  177.9720  147.4460 O   0  0  0  0  0  1  0  0  0  0  0  0
  189.5910  177.1750  141.5920 N   0  0  0  0  0  0  0  0  0  0  0  0
  187.3230  177.8910  141.8150 C   0  0  0  0  0  0  0  0  0  0  0  0
  188.9570  177.6680  145.2840 C   0  0  0  0  0  2  0  0  0  0  0  0
  183.9380  179.0030  145.4700 C   0  0  0  0  0  3  0  0  0  0  0  0
  189.7700  177.1860  142.9360 C   0  0  0  0  0  0  0  0  0  0  0  0
  191.0840  176.8000  143.4700 C   0  0  0  0  0  3  0  0  0  0  0  0
  185.9980  178.2280  141.1790 C   0  0  0  0  0  2  0  0  0  0  0  0
  185.1890  178.9650  143.3960 C   0  0  0  0  0  0  0  0  0  0  0  0
  184.0490  179.3310  144.1180 C   0  0  0  0  0  3  0  0  0  0  0  0
  188.3100  177.4930  139.5220 C   0  0  0  0  0  2  0  0  0  0  0  0
  189.0550  179.4360  138.3430 O   0  0  0  0  0  1  0  0  0  0  0  0
  189.4870  178.2250  138.8930 C   0  0  2  0  0  3  0  0  0  0  0  0
  191.0360  175.4940  135.9450 C   0  0  0  0  0  0  0  0  0  0  0  0
  189.8050  177.5570  136.4530 C   0  0  0  0  0  2  0  0  0  0  0  0
  192.0980  176.9580  139.0490 O   0  0  0  0  0  0  0  0  0  0  0  0
  191.8950  175.4190  135.0820 O   0  0  0  0  0  0  0  0  0  0  0  0
  189.7610  176.2280  135.6980 C   0  0  0  0  0  2  0  0  0  0  0  0
  191.2150  176.5360  138.2570 C   0  0  0  0  0  0  0  0  0  0  0  0
  190.1140  177.3780  137.8780 N   0  0  0  0  0  0  0  0  0  0  0  0
  191.3340  174.8760  137.5920 S   0  0  0  0  0  0  0  0  0  0  0  0
  1  9  2  0  0  0  0
  2  5  1  0  0  0  0
  2  3  1  0  0  0  0
  3  7  1  0  0  0  0
  4 11  1  0  0  0  0
  5 14  1  0  0  0  0
  6  1  1  0  0  0  0
  7  4  2  0  0  0  0
  8 12  2  0  0  0  0
  8 13  1  0  0  0  0
 10 19  1  0  0  0  0
 12 16  1  0  0  0  0
 13  2  2  0  0  0  0
 14  1  1  0  0  0  0
 15  4  1  0  0  0  0
 16 17  1  0  0  0  0
 16  5  2  0  0  0  0
 17  6  2  0  0  0  0
 18 13  1  0  0  0  0
 18 10  1  0  0  0  0
 19  3  2  0  0  0  0
 19 20  1  0  0  0  0
 20 15  2  0  0  0  0
 21  8  1  0  0  0  0
 23 22  1  6  0  0  0
 23 21  1  0  0  0  0
 24 31  1  0  0  0  0
 25 30  1  0  0  0  0
 27 24  2  0  0  0  0
 28 24  1  0  0  0  0
 28 25  1  0  0  0  0
 29 26  2  0  0  0  0
 30 29  1  0  0  0  0
 30 23  1  0  0  0  0
 31 29  1  0  0  0  0
M  END
>  <MODEL>
6

>  <REMARK>
 VINA RESULT:      -9.8      2.032      4.606
  Name = 
  3 active torsions:
  status: ('A' for Active; 'I' for Inactive)
    1  A    between atoms: C_5  and  C_16
    2  A    between atoms: C_5  and  N_30
    3  A    between atoms: C_10  and  C_16
                            x       y       z     vdW  Elec       q    Type
                         _______ _______ _______ _____ _____    ______ ____

>  <TORSDO>
F 3

$$$$
=
 OpenBabel11122411073D

 31 35  0  0  1  0  0  0  0  0999 V2000
  185.2720  178.4150  145.4480 C   0  0  0  0  0  0  0  0  0  0  0  0
  188.7930  177.3940  144.2410 C   0  0  0  0  0  0  0  0  0  0  0  0
  189.6400  177.2330  145.4700 C   0  0  0  0  0  0  0  0  0  0  0  0
  190.1240  177.6750  147.8170 C   0  0  0  0  0  0  0  0  0  0  0  0
  187.4160  177.7410  144.2740 C   0  0  0  0  0  0  0  0  0  0  0  0
  184.6240  178.5180  144.1370 C   0  0  0  0  0  3  0  0  0  0  0  0
  189.2970  177.8180  146.7000 C   0  0  0  0  0  3  0  0  0  0  0  0
  188.6610  177.3030  141.8080 C   0  0  0  0  0  0  0  0  0  0  0  0
  184.6350  178.7450  146.4810 O   0  0  0  0  0  0  0  0  0  0  0  0
  191.2690  175.8990  144.0820 C   0  0  0  0  0  2  0  0  0  0  0  0
  189.7620  178.2530  149.0250 O   0  0  0  0  0  1  0  0  0  0  0  0
  187.3530  177.6540  141.8740 N   0  0  0  0  0  0  0  0  0  0  0  0
  189.4050  177.1510  142.9890 C   0  0  0  0  0  0  0  0  0  0  0  0
  186.6670  177.8760  145.5830 C   0  0  0  0  0  2  0  0  0  0  0  0
  191.3140  176.9520  147.7170 C   0  0  0  0  0  3  0  0  0  0  0  0
  186.7180  177.8710  143.0520 C   0  0  0  0  0  0  0  0  0  0  0  0
  185.2990  178.2550  143.0220 C   0  0  0  0  0  3  0  0  0  0  0  0
  190.8700  176.7990  142.9180 C   0  0  0  0  0  2  0  0  0  0  0  0
  190.8610  176.5300  145.3760 C   0  0  0  0  0  0  0  0  0  0  0  0
  191.6810  176.3800  146.4980 C   0  0  0  0  0  3  0  0  0  0  0  0
  189.2740  177.0610  140.4650 C   0  0  0  0  0  2  0  0  0  0  0  0
  188.3070  179.2340  140.2130 O   0  0  0  0  0  1  0  0  0  0  0  0
  189.0060  178.2340  139.5320 C   0  0  2  0  0  3  0  0  0  0  0  0
  186.6770  176.5980  136.2980 C   0  0  0  0  0  0  0  0  0  0  0  0
  186.8970  178.2530  138.0980 C   0  0  0  0  0  2  0  0  0  0  0  0
  190.1150  177.3860  136.9820 O   0  0  0  0  0  0  0  0  0  0  0  0
  186.2920  176.8750  135.1740 O   0  0  0  0  0  0  0  0  0  0  0  0
  186.0040  177.1660  137.5020 C   0  0  0  0  0  2  0  0  0  0  0  0
  188.9550  177.0450  137.3350 C   0  0  0  0  0  0  0  0  0  0  0  0
  188.2610  177.7740  138.3590 N   0  0  0  0  0  0  0  0  0  0  0  0
  188.1620  175.6410  136.5500 S   0  0  0  0  0  0  0  0  0  0  0  0
  1 14  1  0  0  0  0
  1  9  2  0  0  0  0
  2  5  1  0  0  0  0
  2  3  1  0  0  0  0
  3  7  1  0  0  0  0
  4 11  1  0  0  0  0
  5 14  1  0  0  0  0
  6  1  1  0  0  0  0
  7  4  2  0  0  0  0
  8 12  2  0  0  0  0
  8 13  1  0  0  0  0
 10 19  1  0  0  0  0
 12 16  1  0  0  0  0
 13  2  2  0  0  0  0
 15  4  1  0  0  0  0
 16  5  2  0  0  0  0
 17 16  1  0  0  0  0
 17  6  2  0  0  0  0
 18 13  1  0  0  0  0
 18 10  1  0  0  0  0
 19  3  2  0  0  0  0
 19 20  1  0  0  0  0
 20 15  2  0  0  0  0
 21  8  1  0  0  0  0
 23 22  1  1  0  0  0
 23 21  1  0  0  0  0
 24 31  1  0  0  0  0
 24 28  1  0  0  0  0
 25 30  1  0  0  0  0
 26 29  2  0  0  0  0
 27 24  2  0  0  0  0
 28 25  1  0  0  0  0
 29 30  1  0  0  0  0
 30 23  1  0  0  0  0
 31 29  1  0  0  0  0
M  END
>  <MODEL>
7

>  <REMARK>
 VINA RESULT:      -9.6      1.396      1.560
  Name = 
  3 active torsions:
  status: ('A' for Active; 'I' for Inactive)
    1  A    between atoms: C_5  and  C_16
    2  A    between atoms: C_5  and  N_30
    3  A    between atoms: C_10  and  C_16
                            x       y       z     vdW  Elec       q    Type
                         _______ _______ _______ _____ _____    ______ ____

>  <TORSDO>
F 3

$$$$
=
 OpenBabel11122411073D

 31 35  0  0  1  0  0  0  0  0999 V2000
  186.4300  178.1080  146.7090 C   0  0  0  0  0  0  0  0  0  0  0  0
  187.4580  178.1880  142.9900 C   0  0  0  0  0  0  0  0  0  0  0  0
  188.9240  177.8710  142.9410 C   0  0  0  0  0  0  0  0  0  0  0  0
  191.1290  177.7430  143.9720 C   0  0  0  0  0  0  0  0  0  0  0  0
  186.7000  178.2280  144.1910 C   0  0  0  0  0  0  0  0  0  0  0  0
  185.0110  178.4330  146.5400 C   0  0  0  0  0  3  0  0  0  0  0  0
  189.7610  178.0160  144.0600 C   0  0  0  0  0  3  0  0  0  0  0  0
  185.4310  178.7400  141.7520 C   0  0  0  0  0  0  0  0  0  0  0  0
  186.9090  178.0090  147.8680 O   0  0  0  0  0  0  0  0  0  0  0  0
  188.6490  177.3240  140.4950 C   0  0  0  0  0  2  0  0  0  0  0  0
  191.9360  177.8840  145.0920 O   0  0  0  0  0  1  0  0  0  0  0  0
  184.7420  178.7890  142.9190 N   0  0  0  0  0  0  0  0  0  0  0  0
  186.7990  178.4250  141.7600 C   0  0  0  0  0  0  0  0  0  0  0  0
  187.3120  177.8460  145.5230 C   0  0  0  0  0  2  0  0  0  0  0  0
  191.6820  177.3300  142.7590 C   0  0  0  0  0  3  0  0  0  0  0  0
  185.3250  178.5430  144.1170 C   0  0  0  0  0  0  0  0  0  0  0  0
  184.4970  178.6260  145.3300 C   0  0  0  0  0  3  0  0  0  0  0  0
  187.5770  178.4080  140.4690 C   0  0  0  0  0  2  0  0  0  0  0  0
  189.5030  177.4810  141.7140 C   0  0  0  0  0  0  0  0  0  0  0  0
  190.8700  177.1980  141.6320 C   0  0  0  0  0  3  0  0  0  0  0  0
  184.7000  179.0030  140.4730 C   0  0  0  0  0  2  0  0  0  0  0  0
  183.5080  177.0810  139.6940 O   0  0  0  0  0  1  0  0  0  0  0  0
  183.3760  178.2530  140.4460 C   0  0  2  0  0  3  0  0  0  0  0  0
  180.4390  181.0770  139.0470 C   0  0  0  0  0  0  0  0  0  0  0  0
  182.5560  179.8900  138.6710 C   0  0  0  0  0  2  0  0  0  0  0  0
  180.5040  177.8910  140.7080 O   0  0  0  0  0  0  0  0  0  0  0  0
  179.5790  181.2020  138.1920 O   0  0  0  0  0  0  0  0  0  0  0  0
  181.8820  181.2610  138.7170 C   0  0  0  0  0  2  0  0  0  0  0  0
  180.9970  179.0160  140.4280 C   0  0  0  0  0  0  0  0  0  0  0  0
  182.3290  179.1170  139.8990 N   0  0  0  0  0  0  0  0  0  0  0  0
  180.0290  180.5020  140.6860 S   0  0  0  0  0  0  0  0  0  0  0  0
  1  9  2  0  0  0  0
  2  5  1  0  0  0  0
  3  2  1  0  0  0  0
  3  7  1  0  0  0  0
  4  7  2  0  0  0  0
  4 11  1  0  0  0  0
  5 14  1  0  0  0  0
  6  1  1  0  0  0  0
  8 13  1  0  0  0  0
  8 12  2  0  0  0  0
 10 19  1  0  0  0  0
 12 16  1  0  0  0  0
 13  2  2  0  0  0  0
 14  1  1  0  0  0  0
 15  4  1  0  0  0  0
 16  5  2  0  0  0  0
 16 17  1  0  0  0  0
 17  6  2  0  0  0  0
 18 10  1  0  0  0  0
 18 13  1  0  0  0  0
 19  3  2  0  0  0  0
 20 19  1  0  0  0  0
 20 15  2  0  0  0  0
 21  8  1  0  0  0  0
 23 22  1  6  0  0  0
 23 21  1  0  0  0  0
 24 31  1  0  0  0  0
 25 28  1  0  0  0  0
 25 30  1  0  0  0  0
 27 24  2  0  0  0  0
 28 24  1  0  0  0  0
 29 31  1  0  0  0  0
 29 26  2  0  0  0  0
 30 29  1  0  0  0  0
 30 23  1  0  0  0  0
M  END
>  <MODEL>
8

>  <REMARK>
 VINA RESULT:      -9.4      3.796      5.306
  Name = 
  3 active torsions:
  status: ('A' for Active; 'I' for Inactive)
    1  A    between atoms: C_5  and  C_16
    2  A    between atoms: C_5  and  N_30
    3  A    between atoms: C_10  and  C_16
                            x       y       z     vdW  Elec       q    Type
                         _______ _______ _______ _____ _____    ______ ____

>  <TORSDO>
F 3

$$$$
=
 OpenBabel11122411073D

 31 35  0  0  1  0  0  0  0  0999 V2000
  189.8810  177.6370  141.5980 C   0  0  0  0  0  0  0  0  0  0  0  0
  187.0390  178.1010  144.1670 C   0  0  0  0  0  0  0  0  0  0  0  0
  187.6350  177.8490  145.5210 C   0  0  0  0  0  0  0  0  0  0  0  0
  189.3420  176.8850  146.9690 C   0  0  0  0  0  0  0  0  0  0  0  0
  187.7810  178.0510  142.9570 C   0  0  0  0  0  0  0  0  0  0  0  0
  189.1120  177.9190  140.3830 C   0  0  0  0  0  3  0  0  0  0  0  0
  188.8300  177.1300  145.6920 C   0  0  0  0  0  3  0  0  0  0  0  0
  185.0550  178.6700  142.8670 C   0  0  0  0  0  0  0  0  0  0  0  0
  191.0770  177.2610  141.5010 O   0  0  0  0  0  0  0  0  0  0  0  0
  185.6600  179.0450  146.5330 C   0  0  0  0  0  2  0  0  0  0  0  0
  190.5290  176.1810  147.1160 O   0  0  0  0  0  1  0  0  0  0  0  0
  185.7890  178.5950  141.7300 N   0  0  0  0  0  0  0  0  0  0  0  0
  185.6650  178.4390  144.1100 C   0  0  0  0  0  0  0  0  0  0  0  0
  189.2800  177.8360  142.9600 C   0  0  0  0  0  2  0  0  0  0  0  0
  188.6600  177.3470  148.0960 C   0  0  0  0  0  3  0  0  0  0  0  0
  187.1120  178.3010  141.7380 C   0  0  0  0  0  0  0  0  0  0  0  0
  187.8230  178.2370  140.4520 C   0  0  0  0  0  3  0  0  0  0  0  0
  184.8440  178.4820  145.3740 C   0  0  0  0  0  2  0  0  0  0  0  0
  186.9410  178.2850  146.6710 C   0  0  0  0  0  0  0  0  0  0  0  0
  187.4620  178.0470  147.9460 C   0  0  0  0  0  3  0  0  0  0  0  0
  183.6050  179.0240  142.7660 C   0  0  0  0  0  2  0  0  0  0  0  0
  183.7870  177.5030  140.9280 O   0  0  0  0  0  1  0  0  0  0  0  0
  182.8800  178.0620  141.8350 C   0  0  2  0  0  3  0  0  0  0  0  0
  179.8860  180.4550  139.8690 C   0  0  0  0  0  0  0  0  0  0  0  0
  181.9020  179.0620  139.7030 C   0  0  0  0  0  2  0  0  0  0  0  0
  180.0520  178.0170  142.5030 O   0  0  0  0  0  0  0  0  0  0  0  0
  178.9310  180.3470  139.1170 O   0  0  0  0  0  0  0  0  0  0  0  0
  181.2830  180.4130  139.3470 C   0  0  0  0  0  2  0  0  0  0  0  0
  180.5430  178.9430  141.8050 C   0  0  0  0  0  0  0  0  0  0  0  0
  181.8020  178.7640  141.1380 N   0  0  0  0  0  0  0  0  0  0  0  0
  179.6610  180.4960  141.6390 S   0  0  0  0  0  0  0  0  0  0  0  0
  1 14  1  0  0  0  0
  2  3  1  0  0  0  0
  3  7  2  0  0  0  0
  3 19  1  0  0  0  0
  4 11  1  0  0  0  0
  4 15  2  0  0  0  0
  5 14  1  0  0  0  0
  5  2  2  0  0  0  0
  6 17  2  0  0  0  0
  6  1  1  0  0  0  0
  7  4  1  0  0  0  0
  8 13  2  0  0  0  0
  9  1  2  0  0  0  0
 10 19  1  0  0  0  0
 12 16  2  0  0  0  0
 12  8  1  0  0  0  0
 13  2  1  0  0  0  0
 13 18  1  0  0  0  0
 16  5  1  0  0  0  0
 17 16  1  0  0  0  0
 18 10  1  0  0  0  0
 19 20  2  0  0  0  0
 20 15  1  0  0  0  0
 21  8  1  0  0  0  0
 23 22  1  6  0  0  0
 23 21  1  0  0  0  0
 24 31  1  0  0  0  0
 25 30  1  0  0  0  0
 27 24  2  0  0  0  0
 28 25  1  0  0  0  0
 28 24  1  0  0  0  0
 29 26  2  0  0  0  0
 30 29  1  0  0  0  0
 30 23  1  0  0  0  0
 31 29  1  0  0  0  0
M  END
>  <MODEL>
9

>  <REMARK>
 VINA RESULT:      -9.3      3.639      6.011
  Name = 
  3 active torsions:
  status: ('A' for Active; 'I' for Inactive)
    1  A    between atoms: C_5  and  C_16
    2  A    between atoms: C_5  and  N_30
    3  A    between atoms: C_10  and  C_16
                            x       y       z     vdW  Elec       q    Type
                         _______ _______ _______ _____ _____    ______ ____

>  <TORSDO>
F 3

$$$$
