=
 OpenBabel11122411593D

 28 32  0  0  1  0  0  0  0  0999 V2000
  180.3670  178.4210  139.6830 C   0  0  0  0  0  0  0  0  0  0  0  0
  183.3890  176.9700  138.9080 F   0  0  0  0  0  0  0  0  0  0  0  0
  183.5160  179.8100  144.6010 O   0  0  0  0  0  0  0  0  0  0  0  0
  179.9060  180.6320  138.0160 C   0  0  0  0  0  3  0  0  0  0  0  0
  184.9180  178.9150  142.8390 C   0  0  2  0  0  3  0  0  0  0  0  0
  180.4990  177.2460  140.6020 C   0  0  0  0  0  2  0  0  0  0  0  0
  183.0630  178.4550  137.1040 C   0  0  0  0  0  1  0  0  0  0  0  0
  183.9150  178.1020  138.3070 C   0  0  1  0  0  0  0  0  0  0  0  0
  186.3940  177.9050  138.6870 C   0  0  0  0  0  0  0  0  0  0  0  0
  183.9600  179.2930  139.3020 C   0  0  2  0  0  3  0  0  0  0  0  0
  179.7240  177.6370  144.2280 O   0  0  0  0  0  1  0  0  0  0  0  0
  182.9720  178.4530  141.3740 C   0  0  1  0  0  3  0  0  0  0  0  0
  186.3100  178.5260  139.8220 N   0  0  0  0  0  0  0  0  0  0  0  0
  185.2560  177.7940  137.8350 N   0  0  0  0  0  2  0  0  0  0  0  0
  180.5170  177.7360  143.0850 C   0  0  2  0  0  3  0  0  0  0  0  0
  181.3710  179.4170  139.5370 C   0  0  0  0  0  0  0  0  0  0  0  0
  183.6270  179.2990  143.4550 C   0  0  0  0  0  0  0  0  0  0  0  0
  187.7040  177.3690  138.2380 C   0  0  0  0  0  1  0  0  0  0  0  0
  181.1250  179.1310  143.0230 C   0  0  0  0  0  2  0  0  0  0  0  0
  181.1120  180.5190  138.7090 C   0  0  0  0  0  3  0  0  0  0  0  0
  179.1630  178.5460  138.9760 C   0  0  0  0  0  3  0  0  0  0  0  0
  178.9340  179.6420  138.1450 C   0  0  0  0  0  3  0  0  0  0  0  0
  179.6580  177.4570  141.8570 C   0  0  0  0  0  2  0  0  0  0  0  0
  184.5000  178.3160  141.4900 C   0  0  1  0  0  3  0  0  0  0  0  0
  182.5210  179.0510  142.6140 N   0  0  0  0  0  0  0  0  0  0  0  0
  185.0790  179.1290  140.3400 C   0  0  2  0  0  3  0  0  0  0  0  0
  185.5950  177.8430  143.6730 C   0  0  0  0  0  1  0  0  0  0  0  0
  182.7310  179.3970  140.2060 C   0  0  2  0  0  3  0  0  0  0  0  0
  1  6  1  0  0  0  0
  4 22  2  0  0  0  0
  4 20  1  0  0  0  0
  5 17  1  0  0  0  0
  5 27  1  1  0  0  0
  6 23  1  0  0  0  0
  8  7  1  6  0  0  0
  8  2  1  0  0  0  0
  8 10  1  0  0  0  0
  9 13  2  0  0  0  0
 10 28  1  0  0  0  0
 10 26  1  0  0  0  0
 12 24  1  0  0  0  0
 12 25  1  0  0  0  0
 13 26  1  0  0  0  0
 14  8  1  0  0  0  0
 14  9  1  0  0  0  0
 15 11  1  0  0  0  0
 16  1  1  0  0  0  0
 16 28  1  0  0  0  0
 17  3  2  0  0  0  0
 18  9  1  0  0  0  0
 19 15  1  0  0  0  0
 20 16  2  0  0  0  0
 21  1  2  0  0  0  0
 22 21  1  0  0  0  0
 23 15  1  0  0  0  0
 24  5  1  0  0  0  0
 25 19  1  0  0  0  0
 25 17  1  0  0  0  0
 26 24  1  0  0  0  0
 28 12  1  0  0  0  0
M  END
>  <MODEL>
1

>  <REMARK>
 VINA RESULT:      -6.4      0.000      0.000
  Name = 
  0 active torsions:
  status: ('A' for Active; 'I' for Inactive)
                            x       y       z     vdW  Elec       q    Type
                         _______ _______ _______ _____ _____    ______ ____

>  <TORSDO>
F 0

$$$$
=
 OpenBabel11122411593D

 28 32  0  0  1  0  0  0  0  0999 V2000
  181.1000  176.0240  137.2360 C   0  0  0  0  0  0  0  0  0  0  0  0
  184.4720  175.9310  137.9120 F   0  0  0  0  0  0  0  0  0  0  0  0
  181.2650  179.2260  142.3100 O   0  0  0  0  0  0  0  0  0  0  0  0
  180.6180  177.5980  134.9610 C   0  0  0  0  0  3  0  0  0  0  0  0
  183.4790  178.8120  141.4160 C   0  0  2  0  0  3  0  0  0  0  0  0
  181.2470  175.1430  138.4370 C   0  0  0  0  0  2  0  0  0  0  0  0
  184.4140  176.8970  135.7590 C   0  0  0  0  0  1  0  0  0  0  0  0
  184.7650  177.0950  137.2210 C   0  0  1  0  0  0  0  0  0  0  0  0
  186.7700  178.0320  138.4170 C   0  0  0  0  0  0  0  0  0  0  0  0
  183.9810  178.3020  137.8030 C   0  0  2  0  0  3  0  0  0  0  0  0
  178.9780  175.6060  141.3590 O   0  0  0  0  0  1  0  0  0  0  0  0
  182.5960  177.3820  139.5940 C   0  0  1  0  0  3  0  0  0  0  0  0
  186.0200  178.6910  139.2430 N   0  0  0  0  0  0  0  0  0  0  0  0
  186.1960  177.3390  137.3100 N   0  0  0  0  0  2  0  0  0  0  0  0
  180.0780  175.8960  140.5530 C   0  0  2  0  0  3  0  0  0  0  0  0
  181.6580  177.3290  137.1480 C   0  0  0  0  0  0  0  0  0  0  0  0
  182.0050  178.6760  141.4510 C   0  0  0  0  0  0  0  0  0  0  0  0
  188.2460  178.0610  138.5820 C   0  0  0  0  0  1  0  0  0  0  0  0
  180.1290  177.3970  140.3030 C   0  0  0  0  0  2  0  0  0  0  0  0
  181.3920  178.1000  136.0070 C   0  0  0  0  0  3  0  0  0  0  0  0
  180.3290  175.5310  136.1740 C   0  0  0  0  0  3  0  0  0  0  0  0
  180.0910  176.3110  135.0420 C   0  0  0  0  0  3  0  0  0  0  0  0
  179.9520  175.1250  139.2440 C   0  0  0  0  0  2  0  0  0  0  0  0
  183.8860  177.9300  140.2280 C   0  0  1  0  0  3  0  0  0  0  0  0
  181.5010  177.8750  140.4030 N   0  0  0  0  0  0  0  0  0  0  0  0
  184.5590  178.7650  139.1480 C   0  0  2  0  0  3  0  0  0  0  0  0
  184.0840  178.2480  142.6880 C   0  0  0  0  0  1  0  0  0  0  0  0
  182.5390  177.9780  138.1960 C   0  0  2  0  0  3  0  0  0  0  0  0
  1  6  1  0  0  0  0
  4 22  2  0  0  0  0
  4 20  1  0  0  0  0
  5 17  1  0  0  0  0
  5 27  1  1  0  0  0
  6 23  1  0  0  0  0
  8  7  1  6  0  0  0
  8 14  1  0  0  0  0
  8 10  1  0  0  0  0
  8  2  1  0  0  0  0
  9 18  1  0  0  0  0
  9 13  2  0  0  0  0
 10 28  1  0  0  0  0
 10 26  1  0  0  0  0
 12 24  1  0  0  0  0
 12 25  1  0  0  0  0
 14  9  1  0  0  0  0
 15 11  1  0  0  0  0
 16  1  1  0  0  0  0
 16 28  1  0  0  0  0
 17  3  2  0  0  0  0
 19 25  1  0  0  0  0
 19 15  1  0  0  0  0
 20 16  2  0  0  0  0
 21  1  2  0  0  0  0
 22 21  1  0  0  0  0
 23 15  1  0  0  0  0
 24  5  1  0  0  0  0
 25 17  1  0  0  0  0
 26 13  1  0  0  0  0
 26 24  1  0  0  0  0
 28 12  1  0  0  0  0
M  END
>  <MODEL>
2

>  <REMARK>
 VINA RESULT:      -6.0      2.210      2.782
  Name = 
  0 active torsions:
  status: ('A' for Active; 'I' for Inactive)
                            x       y       z     vdW  Elec       q    Type
                         _______ _______ _______ _____ _____    ______ ____

>  <TORSDO>
F 0

$$$$
=
 OpenBabel11122411593D

 28 32  0  0  1  0  0  0  0  0999 V2000
  186.4880  175.4640  135.8430 C   0  0  0  0  0  0  0  0  0  0  0  0
  183.2320  176.2760  135.0840 F   0  0  0  0  0  0  0  0  0  0  0  0
  185.3050  179.3780  140.2370 O   0  0  0  0  0  0  0  0  0  0  0  0
  186.6310  172.8100  136.7480 C   0  0  0  0  0  3  0  0  0  0  0  0
  183.3100  178.7380  139.0210 C   0  0  2  0  0  3  0  0  0  0  0  0
  186.5290  176.8750  135.3470 C   0  0  0  0  0  2  0  0  0  0  0  0
  183.1190  173.9340  135.3550 C   0  0  0  0  0  1  0  0  0  0  0  0
  182.6740  175.2860  135.8760 C   0  0  1  0  0  0  0  0  0  0  0  0
  180.4500  176.2370  136.5710 C   0  0  0  0  0  0  0  0  0  0  0  0
  183.0950  175.4560  137.3610 C   0  0  2  0  0  3  0  0  0  0  0  0
  188.4880  179.4370  137.2180 O   0  0  0  0  0  1  0  0  0  0  0  0
  184.6030  177.3800  137.3980 C   0  0  1  0  0  3  0  0  0  0  0  0
  180.9720  176.8020  137.6140 N   0  0  0  0  0  0  0  0  0  0  0  0
  181.2260  175.3600  135.7560 N   0  0  0  0  0  2  0  0  0  0  0  0
  187.3810  178.6280  136.9640 C   0  0  2  0  0  3  0  0  0  0  0  0
  185.6140  175.0200  136.8740 C   0  0  0  0  0  0  0  0  0  0  0  0
  184.7670  178.7490  139.2870 C   0  0  0  0  0  0  0  0  0  0  0  0
  179.0120  176.4470  136.2640 C   0  0  0  0  0  1  0  0  0  0  0  0
  186.9520  177.9510  138.2580 C   0  0  0  0  0  2  0  0  0  0  0  0
  185.7140  173.6930  137.3180 C   0  0  0  0  0  3  0  0  0  0  0  0
  187.4000  174.5620  135.2770 C   0  0  0  0  0  3  0  0  0  0  0  0
  187.4700  173.2430  135.7240 C   0  0  0  0  0  3  0  0  0  0  0  0
  187.7530  177.5980  135.9030 C   0  0  0  0  0  2  0  0  0  0  0  0
  183.1910  177.8780  137.7560 C   0  0  1  0  0  3  0  0  0  0  0  0
  185.5000  177.9630  138.3730 N   0  0  0  0  0  0  0  0  0  0  0  0
  182.3660  176.6290  138.0320 C   0  0  2  0  0  3  0  0  0  0  0  0
  182.8240  180.1420  138.7190 C   0  0  0  0  0  1  0  0  0  0  0  0
  184.5560  175.8680  137.5510 C   0  0  2  0  0  3  0  0  0  0  0  0
  1 16  1  0  0  0  0
  2  8  1  0  0  0  0
  4 20  1  0  0  0  0
  5 27  1  6  0  0  0
  5 17  1  0  0  0  0
  6  1  1  0  0  0  0
  6 23  1  0  0  0  0
  8  7  1  6  0  0  0
  8 10  1  0  0  0  0
  9 13  2  0  0  0  0
 10 28  1  0  0  0  0
 10 26  1  0  0  0  0
 12 28  1  0  0  0  0
 12 24  1  0  0  0  0
 12 25  1  0  0  0  0
 13 26  1  0  0  0  0
 14  8  1  0  0  0  0
 14  9  1  0  0  0  0
 15 11  1  0  0  0  0
 15 19  1  0  0  0  0
 16 20  2  0  0  0  0
 16 28  1  0  0  0  0
 17  3  2  0  0  0  0
 18  9  1  0  0  0  0
 19 25  1  0  0  0  0
 21 22  1  0  0  0  0
 21  1  2  0  0  0  0
 22  4  2  0  0  0  0
 23 15  1  0  0  0  0
 24 26  1  0  0  0  0
 24  5  1  0  0  0  0
 25 17  1  0  0  0  0
M  END
>  <MODEL>
3

>  <REMARK>
 VINA RESULT:      -5.8      3.648      7.067
  Name = 
  0 active torsions:
  status: ('A' for Active; 'I' for Inactive)
                            x       y       z     vdW  Elec       q    Type
                         _______ _______ _______ _____ _____    ______ ____

>  <TORSDO>
F 0

$$$$
=
 OpenBabel11122411593D

 28 32  0  0  1  0  0  0  0  0999 V2000
  182.4670  178.8400  138.4690 C   0  0  0  0  0  0  0  0  0  0  0  0
  181.3190  175.6530  139.0700 F   0  0  0  0  0  0  0  0  0  0  0  0
  186.9940  175.6210  136.1940 O   0  0  0  0  0  0  0  0  0  0  0  0
  180.8970  180.0710  136.4940 C   0  0  0  0  0  3  0  0  0  0  0  0
  185.0660  174.2490  136.7130 C   0  0  2  0  0  3  0  0  0  0  0  0
  183.3470  178.2900  139.5480 C   0  0  0  0  0  2  0  0  0  0  0  0
  179.5860  176.5760  137.7610 C   0  0  0  0  0  1  0  0  0  0  0  0
  180.6750  175.5250  137.8500 C   0  0  1  0  0  0  0  0  0  0  0  0
  180.7550  173.0570  137.3670 C   0  0  0  0  0  0  0  0  0  0  0  0
  181.6740  175.6830  136.6720 C   0  0  2  0  0  3  0  0  0  0  0  0
  187.0440  178.7070  139.3110 O   0  0  0  0  0  1  0  0  0  0  0  0
  183.8370  176.1590  137.7070 C   0  0  1  0  0  3  0  0  0  0  0  0
  181.9000  173.1700  136.7710 N   0  0  0  0  0  0  0  0  0  0  0  0
  180.0420  174.2160  137.7950 N   0  0  0  0  0  2  0  0  0  0  0  0
  185.8170  178.1100  139.0240 C   0  0  2  0  0  3  0  0  0  0  0  0
  182.2160  178.1640  137.2420 C   0  0  0  0  0  0  0  0  0  0  0  0
  185.8360  175.5140  136.6780 C   0  0  0  0  0  0  0  0  0  0  0  0
  180.1460  171.7130  137.5410 C   0  0  0  0  0  1  0  0  0  0  0  0
  185.7030  177.9110  137.5190 C   0  0  0  0  0  2  0  0  0  0  0  0
  181.4400  178.8060  136.2670 C   0  0  0  0  0  3  0  0  0  0  0  0
  181.9100  180.1070  138.6840 C   0  0  0  0  0  3  0  0  0  0  0  0
  181.1270  180.7190  137.7050 C   0  0  0  0  0  3  0  0  0  0  0  0
  184.6960  179.0020  139.5460 C   0  0  0  0  0  2  0  0  0  0  0  0
  183.7680  174.6470  137.4270 C   0  0  1  0  0  3  0  0  0  0  0  0
  185.1290  176.6040  137.2290 N   0  0  0  0  0  0  0  0  0  0  0  0
  182.5690  174.4470  136.5100 C   0  0  2  0  0  3  0  0  0  0  0  0
  185.7990  173.2150  137.5480 C   0  0  0  0  0  1  0  0  0  0  0  0
  182.7190  176.7800  136.8840 C   0  0  2  0  0  3  0  0  0  0  0  0
  1 21  1  0  0  0  0
  1  6  1  0  0  0  0
  3 17  2  0  0  0  0
  4 22  1  0  0  0  0
  5 24  1  0  0  0  0
  5 27  1  1  0  0  0
  8  7  1  6  0  0  0
  8  2  1  0  0  0  0
  9 18  1  0  0  0  0
  9 14  1  0  0  0  0
 10 28  1  0  0  0  0
 10  8  1  0  0  0  0
 13  9  2  0  0  0  0
 14  8  1  0  0  0  0
 15 11  1  0  0  0  0
 15 23  1  0  0  0  0
 16  1  2  0  0  0  0
 17  5  1  0  0  0  0
 17 25  1  0  0  0  0
 19 15  1  0  0  0  0
 20  4  2  0  0  0  0
 20 16  1  0  0  0  0
 22 21  2  0  0  0  0
 23  6  1  0  0  0  0
 24 12  1  0  0  0  0
 25 19  1  0  0  0  0
 25 12  1  0  0  0  0
 26 10  1  0  0  0  0
 26 13  1  0  0  0  0
 26 24  1  0  0  0  0
 28 16  1  0  0  0  0
 28 12  1  0  0  0  0
M  END
>  <MODEL>
4

>  <REMARK>
 VINA RESULT:      -5.7      3.874      5.998
  Name = 
  0 active torsions:
  status: ('A' for Active; 'I' for Inactive)
                            x       y       z     vdW  Elec       q    Type
                         _______ _______ _______ _____ _____    ______ ____

>  <TORSDO>
F 0

$$$$
=
 OpenBabel11122411593D

 28 32  0  0  1  0  0  0  0  0999 V2000
  181.5270  178.5340  140.9280 C   0  0  0  0  0  0  0  0  0  0  0  0
  181.2060  175.1820  140.2180 F   0  0  0  0  0  0  0  0  0  0  0  0
  185.8850  177.8780  136.8520 O   0  0  0  0  0  0  0  0  0  0  0  0
  179.3070  179.9420  139.9430 C   0  0  0  0  0  3  0  0  0  0  0  0
  184.4510  175.9290  136.9800 C   0  0  2  0  0  3  0  0  0  0  0  0
  182.7370  177.8780  141.5180 C   0  0  0  0  0  2  0  0  0  0  0  0
  179.0570  176.0150  139.7100 C   0  0  0  0  0  1  0  0  0  0  0  0
  180.3170  175.3660  139.1720 C   0  0  1  0  0  0  0  0  0  0  0  0
  180.7530  173.4140  137.6450 C   0  0  0  0  0  0  0  0  0  0  0  0
  180.9420  176.2470  138.0560 C   0  0  2  0  0  3  0  0  0  0  0  0
  186.1060  179.3780  140.9690 O   0  0  0  0  0  1  0  0  0  0  0  0
  183.1590  176.8680  138.8770 C   0  0  1  0  0  3  0  0  0  0  0  0
  181.6700  174.0690  137.0040 N   0  0  0  0  0  0  0  0  0  0  0  0
  179.9580  174.0620  138.6360 N   0  0  0  0  0  2  0  0  0  0  0  0
  184.9860  178.6210  140.6240 C   0  0  2  0  0  3  0  0  0  0  0  0
  181.1160  178.3500  139.5790 C   0  0  0  0  0  0  0  0  0  0  0  0
  184.9270  177.2680  137.3980 C   0  0  0  0  0  0  0  0  0  0  0  0
  180.4800  171.9980  137.2920 C   0  0  0  0  0  1  0  0  0  0  0  0
  184.5420  179.0020  139.2190 C   0  0  0  0  0  2  0  0  0  0  0  0
  180.0120  179.0760  139.1070 C   0  0  0  0  0  3  0  0  0  0  0  0
  180.8050  179.4030  141.7570 C   0  0  0  0  0  3  0  0  0  0  0  0
  179.7000  180.1010  141.2690 C   0  0  0  0  0  3  0  0  0  0  0  0
  183.8790  178.8830  141.6390 C   0  0  0  0  0  2  0  0  0  0  0  0
  183.3180  175.6330  137.9730 C   0  0  1  0  0  3  0  0  0  0  0  0
  184.1800  177.8090  138.4670 N   0  0  0  0  0  0  0  0  0  0  0  0
  181.9920  175.4790  137.2410 C   0  0  2  0  0  3  0  0  0  0  0  0
  185.5540  174.9040  137.1610 C   0  0  0  0  0  1  0  0  0  0  0  0
  181.7730  177.4190  138.5800 C   0  0  2  0  0  3  0  0  0  0  0  0
  1  6  1  0  0  0  0
  1 21  1  0  0  0  0
  3 17  2  0  0  0  0
  4 22  1  0  0  0  0
  5 27  1  1  0  0  0
  5 17  1  0  0  0  0
  5 24  1  0  0  0  0
  6 23  1  0  0  0  0
  8  7  1  1  0  0  0
  8  2  1  0  0  0  0
  9 14  1  0  0  0  0
 10 28  1  0  0  0  0
 10  8  1  0  0  0  0
 13 26  1  0  0  0  0
 13  9  2  0  0  0  0
 14  8  1  0  0  0  0
 15 11  1  0  0  0  0
 15 23  1  0  0  0  0
 16  1  2  0  0  0  0
 17 25  1  0  0  0  0
 18  9  1  0  0  0  0
 19 15  1  0  0  0  0
 20 16  1  0  0  0  0
 20  4  2  0  0  0  0
 22 21  2  0  0  0  0
 24 12  1  0  0  0  0
 25 12  1  0  0  0  0
 25 19  1  0  0  0  0
 26 24  1  0  0  0  0
 26 10  1  0  0  0  0
 28 12  1  0  0  0  0
 28 16  1  0  0  0  0
M  END
>  <MODEL>
5

>  <REMARK>
 VINA RESULT:      -5.7      3.332      5.249
  Name = 
  0 active torsions:
  status: ('A' for Active; 'I' for Inactive)
                            x       y       z     vdW  Elec       q    Type
                         _______ _______ _______ _____ _____    ______ ____

>  <TORSDO>
F 0

$$$$
=
 OpenBabel11122411593D

 28 32  0  0  1  0  0  0  0  0999 V2000
  181.5750  178.1780  139.9320 C   0  0  0  0  0  0  0  0  0  0  0  0
  182.1160  175.0660  138.5680 F   0  0  0  0  0  0  0  0  0  0  0  0
  187.0120  178.9930  137.5230 O   0  0  0  0  0  0  0  0  0  0  0  0
  179.5410  179.5050  138.5230 C   0  0  0  0  0  3  0  0  0  0  0  0
  185.9970  176.9130  136.8070 C   0  0  2  0  0  3  0  0  0  0  0  0
  182.6460  177.5510  140.7680 C   0  0  0  0  0  2  0  0  0  0  0  0
  180.1100  175.7350  137.5210 C   0  0  0  0  0  1  0  0  0  0  0  0
  181.5720  175.3800  137.3330 C   0  0  1  0  0  0  0  0  0  0  0  0
  182.8090  173.8970  135.7210 C   0  0  0  0  0  0  0  0  0  0  0  0
  182.3320  176.5600  136.6720 C   0  0  2  0  0  3  0  0  0  0  0  0
  185.6800  179.5210  141.6690 O   0  0  0  0  0  1  0  0  0  0  0  0
  184.0360  177.2320  138.2910 C   0  0  1  0  0  3  0  0  0  0  0  0
  183.7400  174.7840  135.5550 N   0  0  0  0  0  0  0  0  0  0  0  0
  181.6430  174.2010  136.4830 N   0  0  0  0  0  2  0  0  0  0  0  0
  184.8810  178.7380  140.8370 C   0  0  2  0  0  3  0  0  0  0  0  0
  181.6370  178.2630  138.5130 C   0  0  0  0  0  0  0  0  0  0  0  0
  186.0640  178.1660  137.5930 C   0  0  0  0  0  0  0  0  0  0  0  0
  182.9250  172.5770  135.0490 C   0  0  0  0  0  1  0  0  0  0  0  0
  184.8260  179.3780  139.4560 C   0  0  0  0  0  2  0  0  0  0  0  0
  180.6160  178.9430  137.8340 C   0  0  0  0  0  3  0  0  0  0  0  0
  180.4860  178.7430  140.6090 C   0  0  0  0  0  3  0  0  0  0  0  0
  179.4730  179.3990  139.9100 C   0  0  0  0  0  3  0  0  0  0  0  0
  183.4880  178.6270  141.4460 C   0  0  0  0  0  2  0  0  0  0  0  0
  184.6910  176.2660  137.2880 C   0  0  1  0  0  3  0  0  0  0  0  0
  184.9400  178.3550  138.4260 N   0  0  0  0  0  0  0  0  0  0  0  0
  183.7050  176.1290  136.1360 C   0  0  2  0  0  3  0  0  0  0  0  0
  187.1630  176.0100  137.1640 C   0  0  0  0  0  1  0  0  0  0  0  0
  182.7300  177.6700  137.6460 C   0  0  2  0  0  3  0  0  0  0  0  0
  1 21  1  0  0  0  0
  1  6  1  0  0  0  0
  3 17  2  0  0  0  0
  4 22  1  0  0  0  0
  5 27  1  1  0  0  0
  5 24  1  0  0  0  0
  5 17  1  0  0  0  0
  6 23  1  0  0  0  0
  8  7  1  1  0  0  0
  8  2  1  0  0  0  0
  9 14  1  0  0  0  0
 10  8  1  0  0  0  0
 10 28  1  0  0  0  0
 12 25  1  0  0  0  0
 13  9  2  0  0  0  0
 13 26  1  0  0  0  0
 14  8  1  0  0  0  0
 15 23  1  0  0  0  0
 15 11  1  0  0  0  0
 16  1  2  0  0  0  0
 17 25  1  0  0  0  0
 18  9  1  0  0  0  0
 19 15  1  0  0  0  0
 20 16  1  0  0  0  0
 20  4  2  0  0  0  0
 22 21  2  0  0  0  0
 24 12  1  0  0  0  0
 25 19  1  0  0  0  0
 26 10  1  0  0  0  0
 26 24  1  0  0  0  0
 28 12  1  0  0  0  0
 28 16  1  0  0  0  0
M  END
>  <MODEL>
6

>  <REMARK>
 VINA RESULT:      -5.7      2.998      4.775
  Name = 
  0 active torsions:
  status: ('A' for Active; 'I' for Inactive)
                            x       y       z     vdW  Elec       q    Type
                         _______ _______ _______ _____ _____    ______ ____

>  <TORSDO>
F 0

$$$$
=
 OpenBabel11122411593D

 28 32  0  0  1  0  0  0  0  0999 V2000
  187.7880  176.3370  136.6230 C   0  0  0  0  0  0  0  0  0  0  0  0
  189.0500  175.9230  139.7970 F   0  0  0  0  0  0  0  0  0  0  0  0
  183.9560  179.7350  139.7520 O   0  0  0  0  0  0  0  0  0  0  0  0
  189.5730  177.8450  135.0670 C   0  0  0  0  0  3  0  0  0  0  0  0
  185.8650  179.0510  141.0780 C   0  0  2  0  0  3  0  0  0  0  0  0
  186.7830  175.5020  137.3520 C   0  0  0  0  0  2  0  0  0  0  0  0
  190.9060  176.7890  138.6240 C   0  0  0  0  0  1  0  0  0  0  0  0
  189.8970  177.0170  139.7320 C   0  0  1  0  0  0  0  0  0  0  0  0
  190.0810  177.7940  142.1180 C   0  0  0  0  0  0  0  0  0  0  0  0
  189.1020  178.3250  139.4760 C   0  0  2  0  0  3  0  0  0  0  0  0
  183.1570  176.3340  137.1000 O   0  0  0  0  0  1  0  0  0  0  0  0
  186.7670  177.6380  139.2510 C   0  0  1  0  0  3  0  0  0  0  0  0
  189.0470  178.5650  141.9890 N   0  0  0  0  0  0  0  0  0  0  0  0
  190.6250  177.1140  140.9890 N   0  0  0  0  0  2  0  0  0  0  0  0
  184.4550  176.4690  137.5910 C   0  0  2  0  0  3  0  0  0  0  0  0
  188.2910  177.5710  137.1200 C   0  0  0  0  0  0  0  0  0  0  0  0
  185.0220  179.0710  139.8610 C   0  0  0  0  0  0  0  0  0  0  0  0
  190.7490  177.6760  143.4400 C   0  0  0  0  0  1  0  0  0  0  0  0
  184.8360  177.9440  137.5880 C   0  0  0  0  0  2  0  0  0  0  0  0
  189.1710  178.3120  136.3190 C   0  0  0  0  0  3  0  0  0  0  0  0
  188.2070  175.8790  135.3660 C   0  0  0  0  0  3  0  0  0  0  0  0
  189.0960  176.6260  134.5940 C   0  0  0  0  0  3  0  0  0  0  0  0
  185.4040  175.6570  136.7170 C   0  0  0  0  0  2  0  0  0  0  0  0
  186.9920  178.0780  140.7080 C   0  0  1  0  0  3  0  0  0  0  0  0
  185.5440  178.2800  138.8160 N   0  0  0  0  0  0  0  0  0  0  0  0
  188.3400  178.7870  140.7250 C   0  0  2  0  0  3  0  0  0  0  0  0
  185.0800  178.4860  142.2470 C   0  0  0  0  0  1  0  0  0  0  0  0
  187.9580  178.1720  138.4710 C   0  0  2  0  0  3  0  0  0  0  0  0
  1 16  1  0  0  0  0
  1  6  1  0  0  0  0
  3 17  2  0  0  0  0
  4 20  1  0  0  0  0
  5 27  1  1  0  0  0
  8  7  1  6  0  0  0
  8  2  1  0  0  0  0
  8 14  1  0  0  0  0
  9 18  1  0  0  0  0
 10  8  1  0  0  0  0
 10 26  1  0  0  0  0
 11 15  1  0  0  0  0
 12 24  1  0  0  0  0
 13  9  2  0  0  0  0
 14  9  1  0  0  0  0
 16 28  1  0  0  0  0
 17  5  1  0  0  0  0
 19 15  1  0  0  0  0
 19 25  1  0  0  0  0
 20 16  2  0  0  0  0
 21  1  2  0  0  0  0
 22  4  2  0  0  0  0
 22 21  1  0  0  0  0
 23  6  1  0  0  0  0
 23 15  1  0  0  0  0
 24 26  1  0  0  0  0
 24  5  1  0  0  0  0
 25 12  1  0  0  0  0
 25 17  1  0  0  0  0
 26 13  1  0  0  0  0
 28 12  1  0  0  0  0
 28 10  1  0  0  0  0
M  END
>  <MODEL>
7

>  <REMARK>
 VINA RESULT:      -5.7      3.809      6.626
  Name = 
  0 active torsions:
  status: ('A' for Active; 'I' for Inactive)
                            x       y       z     vdW  Elec       q    Type
                         _______ _______ _______ _____ _____    ______ ____

>  <TORSDO>
F 0

$$$$
=
 OpenBabel11122411593D

 28 32  0  0  1  0  0  0  0  0999 V2000
  181.8320  177.3090  138.9550 C   0  0  0  0  0  0  0  0  0  0  0  0
  183.1760  174.3010  137.9620 F   0  0  0  0  0  0  0  0  0  0  0  0
  187.2530  179.1110  137.1130 O   0  0  0  0  0  0  0  0  0  0  0  0
  179.7720  178.0660  137.2050 C   0  0  0  0  0  3  0  0  0  0  0  0
  186.7900  176.8170  136.4860 C   0  0  2  0  0  3  0  0  0  0  0  0
  182.8900  176.9860  139.9630 C   0  0  0  0  0  2  0  0  0  0  0  0
  181.2300  174.4480  136.6350 C   0  0  0  0  0  1  0  0  0  0  0  0
  182.7450  174.4050  136.6490 C   0  0  1  0  0  0  0  0  0  0  0  0
  184.4610  173.1170  135.3350 C   0  0  0  0  0  0  0  0  0  0  0  0
  183.3260  175.6740  135.9690 C   0  0  2  0  0  3  0  0  0  0  0  0
  185.3100  179.6220  141.0120 O   0  0  0  0  0  1  0  0  0  0  0  0
  184.6290  176.8060  137.7010 C   0  0  1  0  0  3  0  0  0  0  0  0
  185.2030  174.1710  135.1930 N   0  0  0  0  0  0  0  0  0  0  0  0
  183.1680  173.2140  135.9280 N   0  0  0  0  0  2  0  0  0  0  0  0
  184.8050  178.6300  140.1720 C   0  0  2  0  0  3  0  0  0  0  0  0
  182.0610  177.3080  137.5510 C   0  0  0  0  0  0  0  0  0  0  0  0
  186.4940  178.1060  137.1530 C   0  0  0  0  0  0  0  0  0  0  0  0
  184.9330  171.8110  134.8080 C   0  0  0  0  0  1  0  0  0  0  0  0
  184.8000  179.1460  138.7400 C   0  0  0  0  0  2  0  0  0  0  0  0
  181.0200  177.7030  136.6980 C   0  0  0  0  0  3  0  0  0  0  0  0
  180.5710  177.6700  139.4470 C   0  0  0  0  0  3  0  0  0  0  0  0
  179.5450  178.0440  138.5790 C   0  0  0  0  0  3  0  0  0  0  0  0
  183.3970  178.2630  140.6270 C   0  0  0  0  0  2  0  0  0  0  0  0
  185.5940  175.9380  136.8750 C   0  0  1  0  0  3  0  0  0  0  0  0
  185.2560  178.1040  137.8310 N   0  0  0  0  0  0  0  0  0  0  0  0
  184.8160  175.5130  135.6370 C   0  0  2  0  0  3  0  0  0  0  0  0
  188.0600  176.2140  137.0570 C   0  0  0  0  0  1  0  0  0  0  0  0
  183.3570  176.9070  136.8740 C   0  0  2  0  0  3  0  0  0  0  0  0
  1 21  1  0  0  0  0
  1  6  1  0  0  0  0
  3 17  2  0  0  0  0
  4 22  1  0  0  0  0
  5 24  1  0  0  0  0
  5 27  1  1  0  0  0
  5 17  1  0  0  0  0
  6 23  1  0  0  0  0
  8  7  1  6  0  0  0
  8  2  1  0  0  0  0
  9 14  1  0  0  0  0
 10  8  1  0  0  0  0
 10 28  1  0  0  0  0
 12 25  1  0  0  0  0
 13  9  2  0  0  0  0
 13 26  1  0  0  0  0
 14  8  1  0  0  0  0
 15 23  1  0  0  0  0
 15 11  1  0  0  0  0
 16  1  2  0  0  0  0
 17 25  1  0  0  0  0
 18  9  1  0  0  0  0
 19 15  1  0  0  0  0
 20  4  2  0  0  0  0
 20 16  1  0  0  0  0
 22 21  2  0  0  0  0
 24 12  1  0  0  0  0
 25 19  1  0  0  0  0
 26 10  1  0  0  0  0
 26 24  1  0  0  0  0
 28 16  1  0  0  0  0
 28 12  1  0  0  0  0
M  END
>  <MODEL>
8

>  <REMARK>
 VINA RESULT:      -5.5      3.444      5.163
  Name = 
  0 active torsions:
  status: ('A' for Active; 'I' for Inactive)
                            x       y       z     vdW  Elec       q    Type
                         _______ _______ _______ _____ _____    ______ ____

>  <TORSDO>
F 0

$$$$
=
 OpenBabel11122411593D

 28 32  0  0  1  0  0  0  0  0999 V2000
  186.0450  177.9200  143.8560 C   0  0  0  0  0  0  0  0  0  0  0  0
  183.8430  176.9630  141.3910 F   0  0  0  0  0  0  0  0  0  0  0  0
  189.4070  178.8880  138.9780 O   0  0  0  0  0  0  0  0  0  0  0  0
  185.1610  180.2940  145.0660 C   0  0  0  0  0  3  0  0  0  0  0  0
  187.0920  178.4420  138.4200 C   0  0  2  0  0  3  0  0  0  0  0  0
  186.5900  176.6410  143.3010 C   0  0  0  0  0  2  0  0  0  0  0  0
  182.6440  178.6600  142.5090 C   0  0  0  0  0  1  0  0  0  0  0  0
  183.3040  178.2260  141.2150 C   0  0  1  0  0  0  0  0  0  0  0  0
  182.5910  178.2590  138.8020 C   0  0  0  0  0  0  0  0  0  0  0  0
  184.3970  179.2470  140.7990 C   0  0  2  0  0  3  0  0  0  0  0  0
  190.2180  176.3770  142.4830 O   0  0  0  0  0  1  0  0  0  0  0  0
  186.4950  177.9910  140.7840 C   0  0  1  0  0  3  0  0  0  0  0  0
  183.7550  178.6840  138.4220 N   0  0  0  0  0  0  0  0  0  0  0  0
  182.2750  178.1510  140.1890 N   0  0  0  0  0  2  0  0  0  0  0  0
  188.8920  176.7420  142.2520 C   0  0  2  0  0  3  0  0  0  0  0  0
  185.6900  179.0360  143.0480 C   0  0  0  0  0  0  0  0  0  0  0  0
  188.2420  178.5760  139.3430 C   0  0  0  0  0  0  0  0  0  0  0  0
  181.5530  177.9530  137.7850 C   0  0  0  0  0  1  0  0  0  0  0  0
  188.8500  178.1900  141.7830 C   0  0  0  0  0  2  0  0  0  0  0  0
  185.2640  180.2150  143.6770 C   0  0  0  0  0  3  0  0  0  0  0  0
  185.9300  178.0140  145.2490 C   0  0  0  0  0  3  0  0  0  0  0  0
  185.4880  179.1910  145.8520 C   0  0  0  0  0  3  0  0  0  0  0  0
  188.0950  176.5590  143.5390 C   0  0  0  0  0  2  0  0  0  0  0  0
  185.9460  178.0140  139.3460 C   0  0  1  0  0  3  0  0  0  0  0  0
  187.8980  178.3350  140.6910 N   0  0  0  0  0  0  0  0  0  0  0  0
  184.8350  179.0550  139.3410 C   0  0  2  0  0  3  0  0  0  0  0  0
  187.3580  177.3400  137.4120 C   0  0  0  0  0  1  0  0  0  0  0  0
  185.7270  179.0690  141.5330 C   0  0  2  0  0  3  0  0  0  0  0  0
  1 21  1  0  0  0  0
  3 17  2  0  0  0  0
  4 22  1  0  0  0  0
  5 27  1  6  0  0  0
  5 17  1  0  0  0  0
  5 24  1  0  0  0  0
  6 23  1  0  0  0  0
  6  1  1  0  0  0  0
  8  2  1  0  0  0  0
  8  7  1  1  0  0  0
  9 14  1  0  0  0  0
 10  8  1  0  0  0  0
 10 28  1  0  0  0  0
 12 28  1  0  0  0  0
 13  9  2  0  0  0  0
 13 26  1  0  0  0  0
 14  8  1  0  0  0  0
 15 11  1  0  0  0  0
 15 23  1  0  0  0  0
 16 20  1  0  0  0  0
 16  1  2  0  0  0  0
 17 25  1  0  0  0  0
 18  9  1  0  0  0  0
 19 15  1  0  0  0  0
 20  4  2  0  0  0  0
 21 22  2  0  0  0  0
 24 12  1  0  0  0  0
 25 12  1  0  0  0  0
 25 19  1  0  0  0  0
 26 24  1  0  0  0  0
 26 10  1  0  0  0  0
 28 16  1  0  0  0  0
M  END
>  <MODEL>
9

>  <REMARK>
 VINA RESULT:      -5.5      3.175      6.318
  Name = 
  0 active torsions:
  status: ('A' for Active; 'I' for Inactive)
                            x       y       z     vdW  Elec       q    Type
                         _______ _______ _______ _____ _____    ______ ____

>  <TORSDO>
F 0

$$$$
