=
 OpenBabel11122411533D

 28 32  0  0  1  0  0  0  0  0999 V2000
  189.9820  177.1340  140.0210 C   0  0  0  0  0  0  0  0  0  0  0  0
  187.1860  178.6260  136.5000 F   0  0  0  0  0  0  0  0  0  0  0  0
  191.7540  173.1790  135.3640 O   0  0  0  0  0  0  0  0  0  0  0  0
  187.6040  178.5700  140.3840 C   0  0  0  0  0  3  0  0  0  0  0  0
  189.5710  173.2840  136.2300 N   0  0  0  0  0  0  0  0  0  0  0  0
  191.2610  176.3730  139.9430 C   0  0  0  0  0  2  0  0  0  0  0  0
  188.4960  177.7560  134.7360 C   0  0  0  0  0  1  0  0  0  0  0  0
  187.4750  177.4580  135.8230 C   0  0  1  0  0  0  0  0  0  0  0  0
  185.9230  175.6080  135.1870 C   0  0  0  0  0  0  0  0  0  0  0  0
  187.9960  176.3820  136.7890 C   0  0  1  0  0  3  0  0  0  0  0  0
  193.6630  176.9500  137.3400 O   0  0  0  0  0  0  0  0  0  0  0  0
  189.8460  175.1610  137.6540 C   0  0  1  0  0  3  0  0  0  0  0  0
  186.8260  174.7070  135.7800 O   0  0  0  0  0  0  0  0  0  0  0  0
  186.2020  176.9250  135.1910 C   0  0  0  0  0  3  0  0  0  0  0  0
  192.7900  176.3600  138.0270 C   0  0  0  0  0  0  0  0  0  0  0  0
  189.0390  177.1940  138.9560 C   0  0  0  0  0  0  0  0  0  0  0  0
  190.8950  173.7520  136.0840 C   0  0  0  0  0  0  0  0  0  0  0  0
  184.6540  175.1140  134.5950 C   0  0  0  0  0  1  0  0  0  0  0  0
  192.3760  174.9720  137.6510 C   0  0  0  0  0  2  0  0  0  0  0  0
  187.8610  177.9340  139.1700 C   0  0  0  0  0  3  0  0  0  0  0  0
  189.7140  177.7770  141.2350 C   0  0  0  0  0  3  0  0  0  0  0  0
  188.5320  178.4910  141.4180 C   0  0  0  0  0  3  0  0  0  0  0  0
  192.1820  177.0310  139.0880 O   0  0  0  0  0  0  0  0  0  0  0  0
  188.7950  174.2530  136.9810 C   0  0  1  0  0  3  0  0  0  0  0  0
  191.1200  175.0280  136.7960 C   0  0  2  0  0  3  0  0  0  0  0  0
  188.1100  175.1360  136.0580 N   0  0  2  0  0  0  0  0  0  0  0  0
  188.9910  172.1960  135.4600 C   0  0  0  0  0  1  0  0  0  0  0  0
  189.2930  176.5900  137.5720 C   0  0  2  0  0  3  0  0  0  0  0  0
  1 21  1  0  0  0  0
  3 17  2  0  0  0  0
  4 22  1  0  0  0  0
  5 24  1  0  0  0  0
  6  1  1  0  0  0  0
  8  7  1  6  0  0  0
  8  2  1  0  0  0  0
  8 10  1  0  0  0  0
  9 14  2  0  0  0  0
  9 13  1  0  0  0  0
 10 28  1  0  0  0  0
 11 15  2  0  0  0  0
 13 26  1  0  0  0  0
 14  8  1  0  0  0  0
 15 23  1  0  0  0  0
 16 20  1  0  0  0  0
 16  1  2  0  0  0  0
 17  5  1  0  0  0  0
 17 25  1  0  0  0  0
 18  9  1  0  0  0  0
 19 15  1  0  0  0  0
 20  4  2  0  0  0  0
 21 22  2  0  0  0  0
 23  6  1  0  0  0  0
 24 12  1  0  0  0  0
 25 19  1  0  0  0  0
 25 12  1  0  0  0  0
 26 10  1  0  0  0  0
 26 24  1  0  0  0  0
 27  5  1  0  0  0  0
 28 12  1  0  0  0  0
 28 16  1  0  0  0  0
M  END
>  <MODEL>
1

>  <REMARK>
 VINA RESULT:      -6.1      0.000      0.000
  Name = 
  0 active torsions:
  status: ('A' for Active; 'I' for Inactive)
                            x       y       z     vdW  Elec       q    Type
                         _______ _______ _______ _____ _____    ______ ____

>  <TORSDO>
F 0

$$$$
=
 OpenBabel11122411533D

 28 32  0  0  1  0  0  0  0  0999 V2000
  186.5710  173.8640  136.2530 C   0  0  0  0  0  0  0  0  0  0  0  0
  190.9840  173.4050  134.5940 F   0  0  0  0  0  0  0  0  0  0  0  0
  189.1600  179.3060  138.2930 O   0  0  0  0  0  0  0  0  0  0  0  0
  187.7640  171.4220  135.5740 C   0  0  0  0  0  3  0  0  0  0  0  0
  189.9110  177.1750  138.9450 N   0  0  0  0  0  0  0  0  0  0  0  0
  185.8400  175.1040  136.6390 C   0  0  0  0  0  2  0  0  0  0  0  0
  191.5190  175.7070  134.6280 C   0  0  0  0  0  1  0  0  0  0  0  0
  191.3700  174.4280  135.4380 C   0  0  1  0  0  0  0  0  0  0  0  0
  192.9510  174.3350  137.3670 C   0  0  0  0  0  0  0  0  0  0  0  0
  190.3520  174.6110  136.5740 C   0  0  1  0  0  3  0  0  0  0  0  0
  186.2330  178.1840  134.8370 O   0  0  0  0  0  0  0  0  0  0  0  0
  188.5560  175.8670  137.5020 C   0  0  1  0  0  3  0  0  0  0  0  0
  191.9600  174.9540  138.1520 O   0  0  0  0  0  0  0  0  0  0  0  0
  192.7010  174.0700  136.0710 C   0  0  0  0  0  3  0  0  0  0  0  0
  186.3060  177.3520  135.7790 C   0  0  0  0  0  0  0  0  0  0  0  0
  187.9880  173.7930  136.1410 C   0  0  0  0  0  0  0  0  0  0  0  0
  189.1400  178.0540  138.1530 C   0  0  0  0  0  0  0  0  0  0  0  0
  194.2480  173.9420  137.9760 C   0  0  0  0  0  1  0  0  0  0  0  0
  186.9290  177.7660  137.0750 C   0  0  0  0  0  2  0  0  0  0  0  0
  188.5520  172.5530  135.7860 C   0  0  0  0  0  3  0  0  0  0  0  0
  185.7900  172.7240  136.0370 C   0  0  0  0  0  3  0  0  0  0  0  0
  186.3810  171.5080  135.7000 C   0  0  0  0  0  3  0  0  0  0  0  0
  185.8600  176.0460  135.5770 O   0  0  0  0  0  0  0  0  0  0  0  0
  189.7940  175.8260  138.4240 C   0  0  1  0  0  3  0  0  0  0  0  0
  188.3900  177.3440  137.0960 C   0  0  2  0  0  3  0  0  0  0  0  0
  190.8960  175.5670  137.5180 N   0  0  2  0  0  0  0  0  0  0  0  0
  190.9260  177.5960  139.8960 C   0  0  0  0  0  1  0  0  0  0  0  0
  188.9060  175.0120  136.2780 C   0  0  2  0  0  3  0  0  0  0  0  0
  1  6  1  0  0  0  0
  2  8  1  0  0  0  0
  4 22  2  0  0  0  0
  4 20  1  0  0  0  0
  5 27  1  0  0  0  0
  8  7  1  6  0  0  0
  8 14  1  0  0  0  0
  8 10  1  0  0  0  0
  9 18  1  0  0  0  0
  9 13  1  0  0  0  0
 10 26  1  0  0  0  0
 11 15  2  0  0  0  0
 12 24  1  0  0  0  0
 14  9  2  0  0  0  0
 15 19  1  0  0  0  0
 16  1  1  0  0  0  0
 16 28  1  0  0  0  0
 17  3  2  0  0  0  0
 17  5  1  0  0  0  0
 19 25  1  0  0  0  0
 20 16  2  0  0  0  0
 21  1  2  0  0  0  0
 22 21  1  0  0  0  0
 23 15  1  0  0  0  0
 23  6  1  0  0  0  0
 24  5  1  0  0  0  0
 25 12  1  0  0  0  0
 25 17  1  0  0  0  0
 26 13  1  0  0  0  0
 26 24  1  0  0  0  0
 28 10  1  0  0  0  0
 28 12  1  0  0  0  0
M  END
>  <MODEL>
2

>  <REMARK>
 VINA RESULT:      -5.7      2.382      6.254
  Name = 
  0 active torsions:
  status: ('A' for Active; 'I' for Inactive)
                            x       y       z     vdW  Elec       q    Type
                         _______ _______ _______ _____ _____    ______ ____

>  <TORSDO>
F 0

$$$$
=
 OpenBabel11122411533D

 28 32  0  0  1  0  0  0  0  0999 V2000
  190.2340  176.7910  139.5500 C   0  0  0  0  0  0  0  0  0  0  0  0
  186.4780  178.7070  137.3910 F   0  0  0  0  0  0  0  0  0  0  0  0
  189.5870  172.8430  134.6040 O   0  0  0  0  0  0  0  0  0  0  0  0
  188.3660  178.4630  140.8020 C   0  0  0  0  0  3  0  0  0  0  0  0
  187.9410  173.1520  136.2540 N   0  0  0  0  0  0  0  0  0  0  0  0
  191.2850  175.8990  138.9840 C   0  0  0  0  0  2  0  0  0  0  0  0
  186.8880  177.7650  135.2630 C   0  0  0  0  0  1  0  0  0  0  0  0
  186.3440  177.5400  136.6650 C   0  0  1  0  0  0  0  0  0  0  0  0
  184.4670  175.8950  136.7030 C   0  0  0  0  0  0  0  0  0  0  0  0
  187.0730  176.3790  137.3590 C   0  0  1  0  0  3  0  0  0  0  0  0
  192.5320  176.3080  135.6430 O   0  0  0  0  0  0  0  0  0  0  0  0
  188.9620  174.9340  137.4410 C   0  0  1  0  0  3  0  0  0  0  0  0
  185.4200  174.8790  136.9030 O   0  0  0  0  0  0  0  0  0  0  0  0
  184.8740  177.1720  136.5860 C   0  0  0  0  0  3  0  0  0  0  0  0
  191.9340  175.7910  136.6220 C   0  0  0  0  0  0  0  0  0  0  0  0
  188.9640  176.9920  138.9380 C   0  0  0  0  0  0  0  0  0  0  0  0
  189.1480  173.4780  135.5980 C   0  0  0  0  0  0  0  0  0  0  0  0
  183.0200  175.5630  136.6590 C   0  0  0  0  0  1  0  0  0  0  0  0
  191.2510  174.4720  136.4500 C   0  0  0  0  0  2  0  0  0  0  0  0
  188.0550  177.8470  139.5890 C   0  0  0  0  0  3  0  0  0  0  0  0
  190.5360  177.4140  140.7660 C   0  0  0  0  0  3  0  0  0  0  0  0
  189.6090  178.2450  141.3910 C   0  0  0  0  0  3  0  0  0  0  0  0
  191.8690  176.4850  137.8300 O   0  0  0  0  0  0  0  0  0  0  0  0
  187.6360  174.1700  137.2410 C   0  0  1  0  0  3  0  0  0  0  0  0
  189.7770  174.6950  136.1550 C   0  0  2  0  0  3  0  0  0  0  0  0
  186.7510  175.1560  136.6520 N   0  0  2  0  0  0  0  0  0  0  0  0
  186.9870  172.1620  135.7820 C   0  0  0  0  0  1  0  0  0  0  0  0
  188.5880  176.4160  137.5700 C   0  0  2  0  0  3  0  0  0  0  0  0
  1 21  1  0  0  0  0
  3 17  2  0  0  0  0
  4 22  1  0  0  0  0
  5 24  1  0  0  0  0
  6  1  1  0  0  0  0
  8  7  1  6  0  0  0
  8 10  1  0  0  0  0
  8  2  1  0  0  0  0
  9 13  1  0  0  0  0
 10 28  1  0  0  0  0
 11 15  2  0  0  0  0
 12 28  1  0  0  0  0
 14  8  1  0  0  0  0
 14  9  2  0  0  0  0
 15 23  1  0  0  0  0
 16  1  2  0  0  0  0
 16 20  1  0  0  0  0
 17 25  1  0  0  0  0
 17  5  1  0  0  0  0
 18  9  1  0  0  0  0
 19 15  1  0  0  0  0
 20  4  2  0  0  0  0
 21 22  2  0  0  0  0
 23  6  1  0  0  0  0
 24 12  1  0  0  0  0
 25 19  1  0  0  0  0
 25 12  1  0  0  0  0
 26 13  1  0  0  0  0
 26 24  1  0  0  0  0
 26 10  1  0  0  0  0
 27  5  1  0  0  0  0
 28 16  1  0  0  0  0
M  END
>  <MODEL>
3

>  <REMARK>
 VINA RESULT:      -5.3      1.416      1.539
  Name = 
  0 active torsions:
  status: ('A' for Active; 'I' for Inactive)
                            x       y       z     vdW  Elec       q    Type
                         _______ _______ _______ _____ _____    ______ ____

>  <TORSDO>
F 0

$$$$
=
 OpenBabel11122411533D

 28 32  0  0  1  0  0  0  0  0999 V2000
  186.4680  177.9610  138.5360 C   0  0  0  0  0  0  0  0  0  0  0  0
  187.4800  177.1820  143.0980 F   0  0  0  0  0  0  0  0  0  0  0  0
  192.1620  175.1710  138.0120 O   0  0  0  0  0  0  0  0  0  0  0  0
  185.3100  179.3490  140.6770 C   0  0  0  0  0  3  0  0  0  0  0  0
  191.7990  177.2010  139.1420 N   0  0  0  0  0  0  0  0  0  0  0  0
  187.0160  177.2840  137.3260 C   0  0  0  0  0  2  0  0  0  0  0  0
  189.0600  175.4640  142.7280 C   0  0  0  0  0  1  0  0  0  0  0  0
  188.7940  176.9610  142.7320 C   0  0  1  0  0  0  0  0  0  0  0  0
  190.8200  178.2840  143.3450 C   0  0  0  0  0  0  0  0  0  0  0  0
  189.0880  177.5770  141.3550 C   0  0  1  0  0  3  0  0  0  0  0  0
  187.7700  173.7750  137.2860 O   0  0  0  0  0  0  0  0  0  0  0  0
  189.4300  177.2530  139.0230 C   0  0  1  0  0  3  0  0  0  0  0  0
  191.1430  178.3400  141.9770 O   0  0  0  0  0  0  0  0  0  0  0  0
  189.7070  177.6360  143.7380 C   0  0  0  0  0  3  0  0  0  0  0  0
  187.9540  175.0190  137.2700 C   0  0  0  0  0  0  0  0  0  0  0  0
  187.1060  177.9290  139.8080 C   0  0  0  0  0  0  0  0  0  0  0  0
  191.3690  176.0240  138.4910 C   0  0  0  0  0  0  0  0  0  0  0  0
  191.6790  178.9690  144.3440 C   0  0  0  0  0  1  0  0  0  0  0  0
  189.3460  175.5520  137.1410 C   0  0  0  0  0  2  0  0  0  0  0  0
  186.4900  178.6280  140.8630 C   0  0  0  0  0  3  0  0  0  0  0  0
  185.2850  178.6860  138.3600 C   0  0  0  0  0  3  0  0  0  0  0  0
  184.7080  179.3780  139.4220 C   0  0  0  0  0  3  0  0  0  0  0  0
  186.8650  175.8760  137.4300 O   0  0  0  0  0  0  0  0  0  0  0  0
  190.6550  177.8780  139.7240 C   0  0  1  0  0  3  0  0  0  0  0  0
  189.8980  175.8720  138.5210 C   0  0  2  0  0  3  0  0  0  0  0  0
  190.5120  177.4700  141.1070 N   0  0  2  0  0  0  0  0  0  0  0  0
  193.1810  177.4990  139.4800 C   0  0  0  0  0  1  0  0  0  0  0  0
  188.3540  177.0920  140.1040 C   0  0  2  0  0  3  0  0  0  0  0  0
  1 16  1  0  0  0  0
  3 17  2  0  0  0  0
  4 20  1  0  0  0  0
  5 27  1  0  0  0  0
  5 24  1  0  0  0  0
  6 23  1  0  0  0  0
  6  1  1  0  0  0  0
  8  7  1  6  0  0  0
  8  2  1  0  0  0  0
  8 14  1  0  0  0  0
  9 14  2  0  0  0  0
  9 18  1  0  0  0  0
 10  8  1  0  0  0  0
 12 24  1  0  0  0  0
 12 28  1  0  0  0  0
 13  9  1  0  0  0  0
 15 11  2  0  0  0  0
 15 23  1  0  0  0  0
 16 28  1  0  0  0  0
 16 20  2  0  0  0  0
 17 25  1  0  0  0  0
 17  5  1  0  0  0  0
 19 15  1  0  0  0  0
 19 25  1  0  0  0  0
 21  1  2  0  0  0  0
 21 22  1  0  0  0  0
 22  4  2  0  0  0  0
 24 26  1  0  0  0  0
 25 12  1  0  0  0  0
 26 10  1  0  0  0  0
 26 13  1  0  0  0  0
 28 10  1  0  0  0  0
M  END
>  <MODEL>
4

>  <REMARK>
 VINA RESULT:      -5.3      2.776      6.013
  Name = 
  0 active torsions:
  status: ('A' for Active; 'I' for Inactive)
                            x       y       z     vdW  Elec       q    Type
                         _______ _______ _______ _____ _____    ______ ____

>  <TORSDO>
F 0

$$$$
=
 OpenBabel11122411533D

 28 32  0  0  1  0  0  0  0  0999 V2000
  187.0450  177.9080  139.0810 C   0  0  0  0  0  0  0  0  0  0  0  0
  182.8510  179.8980  140.0190 F   0  0  0  0  0  0  0  0  0  0  0  0
  183.4360  175.2030  134.5940 O   0  0  0  0  0  0  0  0  0  0  0  0
  186.3430  179.0390  141.5450 C   0  0  0  0  0  3  0  0  0  0  0  0
  183.0650  174.9460  136.9010 N   0  0  0  0  0  0  0  0  0  0  0  0
  187.5240  177.2840  137.8140 C   0  0  0  0  0  2  0  0  0  0  0  0
  181.9030  179.5350  137.8860 C   0  0  0  0  0  1  0  0  0  0  0  0
  182.2550  178.9300  139.2350 C   0  0  1  0  0  0  0  0  0  0  0  0
  180.6520  177.1440  139.9240 C   0  0  0  0  0  0  0  0  0  0  0  0
  183.1820  177.7160  139.0700 C   0  0  1  0  0  3  0  0  0  0  0  0
  186.6370  178.5970  134.5940 O   0  0  0  0  0  0  0  0  0  0  0  0
  184.6850  176.4870  137.6930 C   0  0  1  0  0  3  0  0  0  0  0  0
  181.4850  176.2100  139.2820 O   0  0  0  0  0  0  0  0  0  0  0  0
  180.9900  178.4470  139.9210 C   0  0  0  0  0  3  0  0  0  0  0  0
  186.6840  177.8060  135.5700 C   0  0  0  0  0  0  0  0  0  0  0  0
  185.6690  178.1210  139.3790 C   0  0  0  0  0  0  0  0  0  0  0  0
  183.6890  175.5370  135.7810 C   0  0  0  0  0  0  0  0  0  0  0  0
  179.4290  176.6910  140.6340 C   0  0  0  0  0  1  0  0  0  0  0  0
  185.9520  176.5040  135.4950 C   0  0  0  0  0  2  0  0  0  0  0  0
  185.3540  178.7020  140.6210 C   0  0  0  0  0  3  0  0  0  0  0  0
  188.0290  178.2500  140.0150 C   0  0  0  0  0  3  0  0  0  0  0  0
  187.6820  178.8130  141.2410 C   0  0  0  0  0  3  0  0  0  0  0  0
  187.3690  178.1820  136.7260 O   0  0  0  0  0  0  0  0  0  0  0  0
  183.4440  175.6650  138.1030 C   0  0  1  0  0  3  0  0  0  0  0  0
  184.5930  176.6430  136.1620 C   0  0  2  0  0  3  0  0  0  0  0  0
  182.4410  176.6690  138.3950 N   0  0  2  0  0  0  0  0  0  0  0  0
  181.9580  174.0070  136.8290 C   0  0  0  0  0  1  0  0  0  0  0  0
  184.5400  177.8510  138.3790 C   0  0  2  0  0  3  0  0  0  0  0  0
  1 16  2  0  0  0  0
  1 21  1  0  0  0  0
  3 17  2  0  0  0  0
  5 24  1  0  0  0  0
  6  1  1  0  0  0  0
  8  7  1  6  0  0  0
  8 14  1  0  0  0  0
  8  2  1  0  0  0  0
  9 18  1  0  0  0  0
 10  8  1  0  0  0  0
 11 15  2  0  0  0  0
 12 24  1  0  0  0  0
 12 28  1  0  0  0  0
 13  9  1  0  0  0  0
 14  9  2  0  0  0  0
 15 23  1  0  0  0  0
 16 20  1  0  0  0  0
 17 25  1  0  0  0  0
 17  5  1  0  0  0  0
 19 15  1  0  0  0  0
 19 25  1  0  0  0  0
 20  4  2  0  0  0  0
 21 22  2  0  0  0  0
 22  4  1  0  0  0  0
 23  6  1  0  0  0  0
 24 26  1  0  0  0  0
 25 12  1  0  0  0  0
 26 10  1  0  0  0  0
 26 13  1  0  0  0  0
 27  5  1  0  0  0  0
 28 10  1  0  0  0  0
 28 16  1  0  0  0  0
M  END
>  <MODEL>
5

>  <REMARK>
 VINA RESULT:      -5.3      4.228      6.027
  Name = 
  0 active torsions:
  status: ('A' for Active; 'I' for Inactive)
                            x       y       z     vdW  Elec       q    Type
                         _______ _______ _______ _____ _____    ______ ____

>  <TORSDO>
F 0

$$$$
=
 OpenBabel11122411533D

 28 32  0  0  1  0  0  0  0  0999 V2000
  184.7440  175.9080  137.2710 C   0  0  0  0  0  0  0  0  0  0  0  0
  182.3630  179.9270  138.0610 F   0  0  0  0  0  0  0  0  0  0  0  0
  178.9330  173.6100  138.4640 O   0  0  0  0  0  0  0  0  0  0  0  0
  185.9300  178.3350  138.0140 C   0  0  0  0  0  3  0  0  0  0  0  0
  180.1920  174.8510  140.0150 N   0  0  0  0  0  0  0  0  0  0  0  0
  184.2190  174.5720  136.8700 C   0  0  0  0  0  2  0  0  0  0  0  0
  180.2130  179.0510  137.6200 C   0  0  0  0  0  1  0  0  0  0  0  0
  181.3490  179.1750  138.6220 C   0  0  1  0  0  0  0  0  0  0  0  0
  180.5380  179.1790  140.9830 C   0  0  0  0  0  0  0  0  0  0  0  0
  181.8670  177.7900  139.0430 C   0  0  1  0  0  3  0  0  0  0  0  0
  181.4670  174.2130  134.5940 O   0  0  0  0  0  0  0  0  0  0  0  0
  181.9970  175.4560  138.5990 C   0  0  1  0  0  3  0  0  0  0  0  0
  180.6790  177.7790  140.9880 O   0  0  0  0  0  0  0  0  0  0  0  0
  180.8490  179.8740  139.8730 C   0  0  0  0  0  3  0  0  0  0  0  0
  182.1180  174.1750  135.6690 C   0  0  0  0  0  0  0  0  0  0  0  0
  183.9350  176.9270  137.8510 C   0  0  0  0  0  0  0  0  0  0  0  0
  179.9320  174.3290  138.7290 C   0  0  0  0  0  0  0  0  0  0  0  0
  180.0850  179.8880  142.2070 C   0  0  0  0  0  1  0  0  0  0  0  0
  181.4630  173.6440  136.9050 C   0  0  0  0  0  2  0  0  0  0  0  0
  184.5620  178.1370  138.2010 C   0  0  0  0  0  3  0  0  0  0  0  0
  186.1150  176.1180  137.0870 C   0  0  0  0  0  3  0  0  0  0  0  0
  186.7070  177.3240  137.4570 C   0  0  0  0  0  3  0  0  0  0  0  0
  183.4180  174.6800  135.7030 O   0  0  0  0  0  0  0  0  0  0  0  0
  181.3130  175.7690  139.9470 C   0  0  1  0  0  3  0  0  0  0  0  0
  180.9100  174.8000  137.7250 C   0  0  2  0  0  3  0  0  0  0  0  0
  180.8140  177.1200  139.7810 N   0  0  2  0  0  0  0  0  0  0  0  0
  179.2790  174.7610  141.1420 C   0  0  0  0  0  1  0  0  0  0  0  0
  182.4150  176.8070  138.0070 C   0  0  2  0  0  3  0  0  0  0  0  0
  1 16  1  0  0  0  0
  2  8  1  0  0  0  0
  3 17  2  0  0  0  0
  4 20  1  0  0  0  0
  5 27  1  0  0  0  0
  6  1  1  0  0  0  0
  8  7  1  6  0  0  0
  8 10  1  0  0  0  0
  8 14  1  0  0  0  0
  9 13  1  0  0  0  0
  9 18  1  0  0  0  0
 10 26  1  0  0  0  0
 11 15  2  0  0  0  0
 12 24  1  0  0  0  0
 14  9  2  0  0  0  0
 15 23  1  0  0  0  0
 15 19  1  0  0  0  0
 16 28  1  0  0  0  0
 16 20  2  0  0  0  0
 17  5  1  0  0  0  0
 19 25  1  0  0  0  0
 21  1  2  0  0  0  0
 21 22  1  0  0  0  0
 22  4  2  0  0  0  0
 23  6  1  0  0  0  0
 24  5  1  0  0  0  0
 25 12  1  0  0  0  0
 25 17  1  0  0  0  0
 26 24  1  0  0  0  0
 26 13  1  0  0  0  0
 28 12  1  0  0  0  0
 28 10  1  0  0  0  0
M  END
>  <MODEL>
6

>  <REMARK>
 VINA RESULT:      -5.2      5.779      8.672
  Name = 
  0 active torsions:
  status: ('A' for Active; 'I' for Inactive)
                            x       y       z     vdW  Elec       q    Type
                         _______ _______ _______ _____ _____    ______ ____

>  <TORSDO>
F 0

$$$$
=
 OpenBabel11122411533D

 28 32  0  0  1  0  0  0  0  0999 V2000
  180.8040  180.7450  135.9530 C   0  0  0  0  0  0  0  0  0  0  0  0
  180.6590  179.7940  140.5910 F   0  0  0  0  0  0  0  0  0  0  0  0
  182.9970  174.7730  135.9920 O   0  0  0  0  0  0  0  0  0  0  0  0
  180.7780  182.6890  137.9710 C   0  0  0  0  0  3  0  0  0  0  0  0
  184.0600  176.5640  137.0850 N   0  0  0  0  0  0  0  0  0  0  0  0
  180.8160  179.7970  134.8030 C   0  0  0  0  0  2  0  0  0  0  0  0
  180.6300  177.4410  140.3770 C   0  0  0  0  0  1  0  0  0  0  0  0
  181.4750  178.7050  140.3580 C   0  0  1  0  0  0  0  0  0  0  0  0
  183.8010  178.3040  141.1710 C   0  0  0  0  0  0  0  0  0  0  0  0
  182.2130  178.8530  139.0180 C   0  0  1  0  0  3  0  0  0  0  0  0
  178.9310  176.7440  134.8310 O   0  0  0  0  0  0  0  0  0  0  0  0
  182.4050  178.2260  136.7300 C   0  0  1  0  0  3  0  0  0  0  0  0
  184.1710  178.0300  139.8420 O   0  0  0  0  0  0  0  0  0  0  0  0
  182.5250  178.6300  141.4500 C   0  0  0  0  0  3  0  0  0  0  0  0
  179.9260  177.5140  134.8360 C   0  0  0  0  0  0  0  0  0  0  0  0
  181.1470  180.3690  137.2830 C   0  0  0  0  0  0  0  0  0  0  0  0
  182.9840  175.9680  136.3920 C   0  0  0  0  0  0  0  0  0  0  0  0
  184.8200  178.2740  142.2520 C   0  0  0  0  0  1  0  0  0  0  0  0
  181.3030  176.9300  134.8470 C   0  0  0  0  0  2  0  0  0  0  0  0
  181.1120  181.3690  138.2720 C   0  0  0  0  0  3  0  0  0  0  0  0
  180.4700  182.0720  135.6610 C   0  0  0  0  0  3  0  0  0  0  0  0
  180.4570  183.0410  136.6630 C   0  0  0  0  0  3  0  0  0  0  0  0
  179.7260  178.8930  134.8890 O   0  0  0  0  0  0  0  0  0  0  0  0
  183.6650  177.8800  137.5510 C   0  0  1  0  0  3  0  0  0  0  0  0
  181.8210  176.8730  136.2750 C   0  0  2  0  0  3  0  0  0  0  0  0
  183.1790  177.7780  138.9130 N   0  0  2  0  0  0  0  0  0  0  0  0
  185.2340  175.8490  137.5580 C   0  0  0  0  0  1  0  0  0  0  0  0
  181.4420  178.9240  137.6990 C   0  0  2  0  0  3  0  0  0  0  0  0
  1 16  1  0  0  0  0
  3 17  2  0  0  0  0
  4 20  1  0  0  0  0
  5 24  1  0  0  0  0
  5 27  1  0  0  0  0
  6 23  1  0  0  0  0
  6  1  1  0  0  0  0
  8  7  1  6  0  0  0
  8  2  1  0  0  0  0
  8 14  1  0  0  0  0
  9 14  2  0  0  0  0
  9 18  1  0  0  0  0
 10  8  1  0  0  0  0
 11 15  2  0  0  0  0
 12 24  1  0  0  0  0
 12 28  1  0  0  0  0
 13  9  1  0  0  0  0
 15 19  1  0  0  0  0
 15 23  1  0  0  0  0
 16 28  1  0  0  0  0
 16 20  2  0  0  0  0
 17  5  1  0  0  0  0
 19 25  1  0  0  0  0
 21  1  2  0  0  0  0
 21 22  1  0  0  0  0
 22  4  2  0  0  0  0
 24 26  1  0  0  0  0
 25 17  1  0  0  0  0
 25 12  1  0  0  0  0
 26 10  1  0  0  0  0
 26 13  1  0  0  0  0
 28 10  1  0  0  0  0
M  END
>  <MODEL>
7

>  <REMARK>
 VINA RESULT:      -5.2      5.945      9.268
  Name = 
  0 active torsions:
  status: ('A' for Active; 'I' for Inactive)
                            x       y       z     vdW  Elec       q    Type
                         _______ _______ _______ _____ _____    ______ ____

>  <TORSDO>
F 0

$$$$
=
 OpenBabel11122411533D

 28 32  0  0  1  0  0  0  0  0999 V2000
  179.9600  180.6670  139.2600 C   0  0  0  0  0  0  0  0  0  0  0  0
  184.6660  180.1280  139.1580 F   0  0  0  0  0  0  0  0  0  0  0  0
  180.4450  174.4040  140.2720 O   0  0  0  0  0  0  0  0  0  0  0  0
  181.7350  182.4560  138.0370 C   0  0  0  0  0  3  0  0  0  0  0  0
  181.2070  175.4770  138.3230 N   0  0  0  0  0  0  0  0  0  0  0  0
  178.9310  179.7860  139.8820 C   0  0  0  0  0  2  0  0  0  0  0  0
  184.7250  178.0950  140.3600 C   0  0  0  0  0  1  0  0  0  0  0  0
  184.4720  178.7680  139.0200 C   0  0  1  0  0  0  0  0  0  0  0  0
  185.0730  177.3010  137.0910 C   0  0  0  0  0  0  0  0  0  0  0  0
  183.0530  178.4680  138.5120 C   0  0  1  0  0  3  0  0  0  0  0  0
  179.5070  178.0810  142.9870 O   0  0  0  0  0  0  0  0  0  0  0  0
  180.8440  177.7240  138.9920 C   0  0  1  0  0  3  0  0  0  0  0  0
  183.7520  176.8180  137.1040 O   0  0  0  0  0  0  0  0  0  0  0  0
  185.4480  178.2310  137.9900 C   0  0  0  0  0  3  0  0  0  0  0  0
  179.3180  178.2530  141.7550 C   0  0  0  0  0  0  0  0  0  0  0  0
  181.2800  180.2310  138.9500 C   0  0  0  0  0  0  0  0  0  0  0  0
  180.7050  175.4640  139.6430 C   0  0  0  0  0  0  0  0  0  0  0  0
  186.0350  176.8180  136.0690 C   0  0  0  0  0  1  0  0  0  0  0  0
  179.2480  177.0630  140.8510 C   0  0  0  0  0  2  0  0  0  0  0  0
  182.1480  181.1600  138.3470 C   0  0  0  0  0  3  0  0  0  0  0  0
  179.5570  181.9690  138.9460 C   0  0  0  0  0  3  0  0  0  0  0  0
  180.4370  182.8600  138.3360 C   0  0  0  0  0  3  0  0  0  0  0  0
  179.2340  179.5490  141.2480 O   0  0  0  0  0  0  0  0  0  0  0  0
  181.5600  176.8340  137.9530 C   0  0  1  0  0  3  0  0  0  0  0  0
  180.6110  176.8210  140.2200 C   0  0  2  0  0  3  0  0  0  0  0  0
  182.9680  177.0510  138.2190 N   0  0  2  0  0  0  0  0  0  0  0  0
  181.6310  174.2960  137.5900 C   0  0  0  0  0  1  0  0  0  0  0  0
  181.8240  178.8520  139.3370 C   0  0  2  0  0  3  0  0  0  0  0  0
  1  6  1  0  0  0  0
  4 22  2  0  0  0  0
  4 20  1  0  0  0  0
  5 17  1  0  0  0  0
  6 23  1  0  0  0  0
  8  2  1  0  0  0  0
  8  7  1  1  0  0  0
  9 13  1  0  0  0  0
  9 14  2  0  0  0  0
 10  8  1  0  0  0  0
 10 28  1  0  0  0  0
 12 28  1  0  0  0  0
 12 25  1  0  0  0  0
 13 26  1  0  0  0  0
 14  8  1  0  0  0  0
 15 11  2  0  0  0  0
 16  1  1  0  0  0  0
 16 28  1  0  0  0  0
 17 25  1  0  0  0  0
 17  3  2  0  0  0  0
 18  9  1  0  0  0  0
 19 15  1  0  0  0  0
 20 16  2  0  0  0  0
 21  1  2  0  0  0  0
 22 21  1  0  0  0  0
 23 15  1  0  0  0  0
 24 26  1  0  0  0  0
 24  5  1  0  0  0  0
 24 12  1  0  0  0  0
 25 19  1  0  0  0  0
 26 10  1  0  0  0  0
 27  5  1  0  0  0  0
M  END
>  <MODEL>
8

>  <REMARK>
 VINA RESULT:      -5.2      6.684      9.271
  Name = 
  0 active torsions:
  status: ('A' for Active; 'I' for Inactive)
                            x       y       z     vdW  Elec       q    Type
                         _______ _______ _______ _____ _____    ______ ____

>  <TORSDO>
F 0

$$$$
=
 OpenBabel11122411533D

 28 32  0  0  1  0  0  0  0  0999 V2000
  190.2740  177.1530  141.7970 C   0  0  0  0  0  0  0  0  0  0  0  0
  187.2440  179.0030  138.6600 F   0  0  0  0  0  0  0  0  0  0  0  0
  192.9380  175.2580  136.3400 O   0  0  0  0  0  0  0  0  0  0  0  0
  187.6290  177.8710  142.3790 C   0  0  0  0  0  3  0  0  0  0  0  0
  190.7800  174.6290  137.0290 N   0  0  0  0  0  0  0  0  0  0  0  0
  191.6930  176.7420  141.5990 C   0  0  0  0  0  2  0  0  0  0  0  0
  188.7330  179.0040  136.8250 C   0  0  0  0  0  1  0  0  0  0  0  0
  187.7960  178.1820  137.6960 C   0  0  1  0  0  0  0  0  0  0  0  0
  186.7100  176.3230  136.4320 C   0  0  0  0  0  0  0  0  0  0  0  0
  188.5390  177.0030  138.3440 C   0  0  1  0  0  3  0  0  0  0  0  0
  193.9250  178.5750  139.4690 O   0  0  0  0  0  0  0  0  0  0  0  0
  190.6100  176.0030  138.9550 C   0  0  1  0  0  3  0  0  0  0  0  0
  187.7880  175.5000  136.8050 O   0  0  0  0  0  0  0  0  0  0  0  0
  186.6830  177.6060  136.8410 C   0  0  0  0  0  3  0  0  0  0  0  0
  193.2020  177.6340  139.8850 C   0  0  0  0  0  0  0  0  0  0  0  0
  189.3510  177.3270  140.7270 C   0  0  0  0  0  0  0  0  0  0  0  0
  191.9650  175.3900  137.1280 C   0  0  0  0  0  0  0  0  0  0  0  0
  185.5910  175.7710  135.6270 C   0  0  0  0  0  1  0  0  0  0  0  0
  193.1170  176.3690  139.0910 C   0  0  0  0  0  2  0  0  0  0  0  0
  188.0340  177.7000  141.0560 C   0  0  0  0  0  3  0  0  0  0  0  0
  189.8570  177.3280  143.1210 C   0  0  0  0  0  3  0  0  0  0  0  0
  188.5420  177.6840  143.4130 C   0  0  0  0  0  3  0  0  0  0  0  0
  192.4490  177.8080  141.0460 O   0  0  0  0  0  0  0  0  0  0  0  0
  189.7980  175.1370  137.9680 C   0  0  1  0  0  3  0  0  0  0  0  0
  191.8880  176.4100  138.1960 C   0  0  2  0  0  3  0  0  0  0  0  0
  188.9390  176.0890  137.2930 N   0  0  2  0  0  0  0  0  0  0  0  0
  190.4690  173.7250  135.9340 C   0  0  0  0  0  1  0  0  0  0  0  0
  189.7480  177.2370  139.2500 C   0  0  2  0  0  3  0  0  0  0  0  0
  1 21  1  0  0  0  0
  3 17  2  0  0  0  0
  4 22  1  0  0  0  0
  5 17  1  0  0  0  0
  5 24  1  0  0  0  0
  6  1  1  0  0  0  0
  8  7  1  6  0  0  0
  8 10  1  0  0  0  0
  8  2  1  0  0  0  0
  9 13  1  0  0  0  0
  9 14  2  0  0  0  0
 10 28  1  0  0  0  0
 11 15  2  0  0  0  0
 12 28  1  0  0  0  0
 13 26  1  0  0  0  0
 14  8  1  0  0  0  0
 15 23  1  0  0  0  0
 16 20  1  0  0  0  0
 16  1  2  0  0  0  0
 17 25  1  0  0  0  0
 18  9  1  0  0  0  0
 19 15  1  0  0  0  0
 20  4  2  0  0  0  0
 21 22  2  0  0  0  0
 23  6  1  0  0  0  0
 24 12  1  0  0  0  0
 25 12  1  0  0  0  0
 25 19  1  0  0  0  0
 26 24  1  0  0  0  0
 26 10  1  0  0  0  0
 27  5  1  0  0  0  0
 28 16  1  0  0  0  0
M  END
>  <MODEL>
9

>  <REMARK>
 VINA RESULT:      -5.2      1.549      2.016
  Name = 
  0 active torsions:
  status: ('A' for Active; 'I' for Inactive)
                            x       y       z     vdW  Elec       q    Type
                         _______ _______ _______ _____ _____    ______ ____

>  <TORSDO>
F 0

$$$$
