=
 OpenBabel11122411093D

 31 35  0  0  1  0  0  0  0  0999 V2000
  189.6960  177.2880  147.0130 C   0  0  0  0  0  0  0  0  0  0  0  0
  187.7300  177.9760  143.7950 C   0  0  0  0  0  0  0  0  0  0  0  0
  186.3710  178.2180  144.1340 C   0  0  0  0  0  0  0  0  0  0  0  0
  192.0660  177.1080  140.8010 O   0  0  0  0  0  0  0  0  0  0  0  0
  191.0410  177.1340  140.0670 C   0  0  0  0  0  0  0  0  0  0  0  0
  184.5850  178.5510  145.7620 C   0  0  0  0  0  0  0  0  0  0  0  0
  188.8280  177.7530  144.7840 C   0  0  0  0  0  0  0  0  0  0  0  0
  191.0050  177.2730  146.5320 O   0  0  0  0  0  0  0  0  0  0  0  0
  185.9290  178.3060  145.4650 C   0  0  0  0  0  3  0  0  0  0  0  0
  189.4750  177.6830  142.0170 C   0  0  0  0  0  0  0  0  0  0  0  0
  189.4710  177.1710  148.2450 O   0  0  0  0  0  0  0  0  0  0  0  0
  185.8270  178.3400  141.7730 C   0  0  0  0  0  3  0  0  0  0  0  0
  184.1800  178.6270  147.0520 F   0  0  0  0  0  0  0  0  0  0  0  0
  190.4300  177.6500  142.9000 N   0  0  0  0  0  0  0  0  0  0  0  0
  188.0810  177.9460  142.4280 C   0  0  0  0  0  0  0  0  0  0  0  0
  189.7520  177.4170  140.6350 N   0  0  0  0  0  2  0  0  0  0  0  0
  188.5860  177.4690  146.0710 C   0  0  0  0  0  3  0  0  0  0  0  0
  183.6600  178.7170  144.7300 C   0  0  0  0  0  3  0  0  0  0  0  0
  190.2600  177.9610  144.3180 C   0  0  2  0  0  3  0  0  0  0  0  0
  191.2570  177.1360  145.1360 C   0  0  0  0  0  2  0  0  0  0  0  0
  187.1290  178.1170  141.4690 N   0  0  0  0  0  0  0  0  0  0  0  0
  185.4210  178.3980  143.1000 C   0  0  0  0  0  0  0  0  0  0  0  0
  184.0780  178.6420  143.4000 C   0  0  0  0  0  3  0  0  0  0  0  0
  191.3120  176.0360  135.9430 N   0  0  0  0  0  0  0  0  0  0  0  0
  190.0780  176.9920  137.8390 C   0  0  0  0  0  3  0  0  0  0  0  0
  193.5880  176.4020  138.7540 F   0  0  0  0  0  0  0  0  0  0  0  0
  191.3800  175.5090  134.5940 C   0  0  0  0  0  1  0  0  0  0  0  0
  190.1270  176.7900  136.3490 C   0  0  0  0  0  2  0  0  0  0  0  0
  192.4490  176.4330  138.0180 C   0  0  0  0  0  0  0  0  0  0  0  0
  191.1630  176.8700  138.6170 C   0  0  0  0  0  0  0  0  0  0  0  0
  192.4940  176.0200  136.7520 C   0  0  0  0  0  3  0  0  0  0  0  0
  1 11  2  0  0  0  0
  2  3  1  0  0  0  0
  2  7  1  0  0  0  0
  3  9  1  0  0  0  0
  5 16  1  0  0  0  0
  5  4  2  0  0  0  0
  6 13  1  0  0  0  0
  7 17  2  0  0  0  0
  8  1  1  0  0  0  0
  9  6  2  0  0  0  0
 10 15  1  0  0  0  0
 10 14  2  0  0  0  0
 12 22  1  0  0  0  0
 14 19  1  0  0  0  0
 15  2  2  0  0  0  0
 16 10  1  0  0  0  0
 17  1  1  0  0  0  0
 18  6  1  0  0  0  0
 19  7  1  0  0  0  0
 19 20  1  1  0  0  0
 20  8  1  0  0  0  0
 21 12  2  0  0  0  0
 21 15  1  0  0  0  0
 22 23  1  0  0  0  0
 22  3  2  0  0  0  0
 23 18  2  0  0  0  0
 24 28  1  0  0  0  0
 24 31  1  0  0  0  0
 25 30  2  0  0  0  0
 27 24  1  0  0  0  0
 28 25  1  0  0  0  0
 29 30  1  0  0  0  0
 29 26  1  0  0  0  0
 30  5  1  0  0  0  0
 31 29  2  0  0  0  0
M  END
>  <MODEL>
1

>  <REMARK>
 VINA RESULT:     -11.1      0.000      0.000
  Name = 
  1 active torsions:
  status: ('A' for Active; 'I' for Inactive)
    1  A    between atoms: C_5  and  C_30
                            x       y       z     vdW  Elec       q    Type
                         _______ _______ _______ _____ _____    ______ ____

>  <TORSDO>
F 1

$$$$
=
 OpenBabel11122411093D

 31 35  0  0  1  0  0  0  0  0999 V2000
  190.1380  176.6240  142.2560 C   0  0  0  0  0  0  0  0  0  0  0  0
  186.8840  178.2410  143.4740 C   0  0  0  0  0  0  0  0  0  0  0  0
  186.8390  178.1610  144.8930 C   0  0  0  0  0  0  0  0  0  0  0  0
  185.2960  179.1440  138.4570 O   0  0  0  0  0  0  0  0  0  0  0  0
  184.3300  179.3200  139.2470 C   0  0  0  0  0  0  0  0  0  0  0  0
  187.8360  177.6160  147.0520 C   0  0  0  0  0  0  0  0  0  0  0  0
  188.0360  177.7960  142.6330 C   0  0  0  0  0  0  0  0  0  0  0  0
  190.1170  176.9600  140.9030 O   0  0  0  0  0  0  0  0  0  0  0  0
  187.9130  177.6750  145.6570 C   0  0  0  0  0  3  0  0  0  0  0  0
  185.7530  178.8770  141.3280 C   0  0  0  0  0  0  0  0  0  0  0  0
  191.1250  176.0150  142.7440 O   0  0  0  0  0  0  0  0  0  0  0  0
  184.6070  179.1120  144.8530 C   0  0  0  0  0  3  0  0  0  0  0  0
  188.8820  177.1390  147.7670 F   0  0  0  0  0  0  0  0  0  0  0  0
  186.8290  178.6270  140.6380 N   0  0  0  0  0  0  0  0  0  0  0  0
  185.7680  178.7830  142.8010 C   0  0  0  0  0  0  0  0  0  0  0  0
  184.5230  179.1990  140.6650 N   0  0  0  0  0  2  0  0  0  0  0  0
  189.0110  177.0110  143.1110 C   0  0  0  0  0  3  0  0  0  0  0  0
  186.6820  178.0470  147.7070 C   0  0  0  0  0  3  0  0  0  0  0  0
  188.1400  178.3460  141.2200 C   0  0  2  0  0  3  0  0  0  0  0  0
  188.9090  177.4030  140.2900 C   0  0  0  0  0  2  0  0  0  0  0  0
  184.6720  179.1880  143.5010 N   0  0  0  0  0  0  0  0  0  0  0  0
  185.6800  178.6040  145.5750 C   0  0  0  0  0  0  0  0  0  0  0  0
  185.6050  178.5420  146.9690 C   0  0  0  0  0  3  0  0  0  0  0  0
  180.3320  180.2320  138.0320 N   0  0  0  0  0  0  0  0  0  0  0  0
  182.5840  180.9290  138.7190 C   0  0  0  0  0  3  0  0  0  0  0  0
  182.4910  177.3080  138.0970 F   0  0  0  0  0  0  0  0  0  0  0  0
  178.9310  180.5020  137.7730 C   0  0  0  0  0  1  0  0  0  0  0  0
  181.2580  181.3570  138.1520 C   0  0  0  0  0  2  0  0  0  0  0  0
  182.0750  178.5940  138.2150 C   0  0  0  0  0  0  0  0  0  0  0  0
  182.9910  179.6520  138.7140 C   0  0  0  0  0  0  0  0  0  0  0  0
  180.8100  178.8870  137.9180 C   0  0  0  0  0  3  0  0  0  0  0  0
  1 11  2  0  0  0  0
  1 17  1  0  0  0  0
  2  3  1  0  0  0  0
  3 22  2  0  0  0  0
  3  9  1  0  0  0  0
  4  5  2  0  0  0  0
  5 16  1  0  0  0  0
  6 18  1  0  0  0  0
  6 13  1  0  0  0  0
  7 17  2  0  0  0  0
  7  2  1  0  0  0  0
  8  1  1  0  0  0  0
  9  6  2  0  0  0  0
 10 15  1  0  0  0  0
 12 22  1  0  0  0  0
 14 19  1  0  0  0  0
 14 10  2  0  0  0  0
 15  2  2  0  0  0  0
 15 21  1  0  0  0  0
 16 10  1  0  0  0  0
 19 20  1  6  0  0  0
 19  7  1  0  0  0  0
 20  8  1  0  0  0  0
 21 12  2  0  0  0  0
 22 23  1  0  0  0  0
 23 18  2  0  0  0  0
 24 28  1  0  0  0  0
 26 29  1  0  0  0  0
 27 24  1  0  0  0  0
 28 25  1  0  0  0  0
 29 30  1  0  0  0  0
 30 25  2  0  0  0  0
 30  5  1  0  0  0  0
 31 24  1  0  0  0  0
 31 29  2  0  0  0  0
M  END
>  <MODEL>
2

>  <REMARK>
 VINA RESULT:     -11.1      4.046      6.713
  Name = 
  1 active torsions:
  status: ('A' for Active; 'I' for Inactive)
    1  A    between atoms: C_5  and  C_30
                            x       y       z     vdW  Elec       q    Type
                         _______ _______ _______ _____ _____    ______ ____

>  <TORSDO>
F 1

$$$$
=
 OpenBabel11122411093D

 31 35  0  0  1  0  0  0  0  0999 V2000
  191.0140  177.1090  142.1820 C   0  0  0  0  0  0  0  0  0  0  0  0
  187.7430  177.9660  143.9850 C   0  0  0  0  0  0  0  0  0  0  0  0
  187.9360  177.8010  145.3850 C   0  0  0  0  0  0  0  0  0  0  0  0
  185.2450  178.8050  139.3410 O   0  0  0  0  0  0  0  0  0  0  0  0
  184.3980  178.7390  140.2730 C   0  0  0  0  0  0  0  0  0  0  0  0
  189.3440  177.3490  147.3240 C   0  0  0  0  0  0  0  0  0  0  0  0
  188.8120  177.8100  142.9540 C   0  0  0  0  0  0  0  0  0  0  0  0
  190.7180  177.5090  140.8800 O   0  0  0  0  0  0  0  0  0  0  0  0
  189.1890  177.5000  145.9430 C   0  0  0  0  0  3  0  0  0  0  0  0
  186.1890  178.4780  142.0840 C   0  0  0  0  0  0  0  0  0  0  0  0
  192.1630  176.6860  142.4700 O   0  0  0  0  0  0  0  0  0  0  0  0
  185.5850  178.2810  145.7440 C   0  0  0  0  0  3  0  0  0  0  0  0
  190.5620  177.0550  147.8400 F   0  0  0  0  0  0  0  0  0  0  0  0
  187.1710  178.4890  141.2300 N   0  0  0  0  0  0  0  0  0  0  0  0
  186.4520  178.3080  143.5270 C   0  0  0  0  0  0  0  0  0  0  0  0
  184.8310  178.5810  141.6330 N   0  0  0  0  0  2  0  0  0  0  0  0
  189.9810  177.2130  143.2190 C   0  0  0  0  0  3  0  0  0  0  0  0
  188.2470  177.5020  148.1710 C   0  0  0  0  0  3  0  0  0  0  0  0
  188.5860  178.4470  141.5920 C   0  0  2  0  0  3  0  0  0  0  0  0
  189.3660  177.7310  140.4850 C   0  0  0  0  0  2  0  0  0  0  0  0
  185.4220  178.4440  144.4080 N   0  0  0  0  0  0  0  0  0  0  0  0
  186.8350  177.9620  146.2590 C   0  0  0  0  0  0  0  0  0  0  0  0
  186.9930  177.8090  147.6400 C   0  0  0  0  0  3  0  0  0  0  0  0
  180.2860  178.7870  139.1010 N   0  0  0  0  0  0  0  0  0  0  0  0
  182.1320  177.8740  140.4390 C   0  0  0  0  0  3  0  0  0  0  0  0
  183.1890  180.9390  138.7080 F   0  0  0  0  0  0  0  0  0  0  0  0
  178.9390  178.7250  138.5670 C   0  0  0  0  0  1  0  0  0  0  0  0
  180.6440  177.9110  140.2150 C   0  0  0  0  0  2  0  0  0  0  0  0
  182.4070  179.9070  139.1150 C   0  0  0  0  0  0  0  0  0  0  0  0
  182.9540  178.8220  139.9670 C   0  0  0  0  0  0  0  0  0  0  0  0
  181.1430  179.8600  138.6960 C   0  0  0  0  0  3  0  0  0  0  0  0
  1 11  2  0  0  0  0
  1 17  1  0  0  0  0
  2  3  1  0  0  0  0
  3  9  2  0  0  0  0
  3 22  1  0  0  0  0
  4  5  2  0  0  0  0
  5 16  1  0  0  0  0
  6 13  1  0  0  0  0
  6 18  2  0  0  0  0
  7 17  2  0  0  0  0
  7  2  1  0  0  0  0
  8  1  1  0  0  0  0
  9  6  1  0  0  0  0
 10 15  1  0  0  0  0
 12 22  1  0  0  0  0
 14 19  1  0  0  0  0
 14 10  2  0  0  0  0
 15  2  2  0  0  0  0
 15 21  1  0  0  0  0
 16 10  1  0  0  0  0
 19 20  1  6  0  0  0
 19  7  1  0  0  0  0
 20  8  1  0  0  0  0
 21 12  2  0  0  0  0
 22 23  2  0  0  0  0
 23 18  1  0  0  0  0
 24 28  1  0  0  0  0
 26 29  1  0  0  0  0
 27 24  1  0  0  0  0
 28 25  1  0  0  0  0
 29 30  1  0  0  0  0
 30  5  1  0  0  0  0
 30 25  2  0  0  0  0
 31 24  1  0  0  0  0
 31 29  2  0  0  0  0
M  END
>  <MODEL>
3

>  <REMARK>
 VINA RESULT:     -11.0      3.695      6.838
  Name = 
  1 active torsions:
  status: ('A' for Active; 'I' for Inactive)
    1  A    between atoms: C_5  and  C_30
                            x       y       z     vdW  Elec       q    Type
                         _______ _______ _______ _____ _____    ______ ____

>  <TORSDO>
F 1

$$$$
=
 OpenBabel11122411093D

 31 35  0  0  1  0  0  0  0  0999 V2000
  184.9480  178.9270  144.6680 C   0  0  0  0  0  0  0  0  0  0  0  0
  188.5210  177.5410  144.6550 C   0  0  0  0  0  0  0  0  0  0  0  0
  189.0140  177.5390  145.9890 C   0  0  0  0  0  0  0  0  0  0  0  0
  188.4730  177.0930  139.3350 O   0  0  0  0  0  0  0  0  0  0  0  0
  189.6510  176.9570  139.7610 C   0  0  0  0  0  0  0  0  0  0  0  0
  188.7280  177.8600  148.3900 C   0  0  0  0  0  0  0  0  0  0  0  0
  187.1330  177.9300  144.2610 C   0  0  0  0  0  0  0  0  0  0  0  0
  184.5560  178.6770  143.3530 O   0  0  0  0  0  0  0  0  0  0  0  0
  188.2110  177.8780  147.0910 C   0  0  0  0  0  3  0  0  0  0  0  0
  188.9440  177.1430  142.2150 C   0  0  0  0  0  0  0  0  0  0  0  0
  184.1310  179.4130  145.4910 O   0  0  0  0  0  0  0  0  0  0  0  0
  191.1730  176.7990  145.1660 C   0  0  0  0  0  3  0  0  0  0  0  0
  187.9360  178.1950  149.4370 F   0  0  0  0  0  0  0  0  0  0  0  0
  187.6890  177.3340  141.9230 N   0  0  0  0  0  0  0  0  0  0  0  0
  189.3960  177.1450  143.6210 C   0  0  0  0  0  0  0  0  0  0  0  0
  189.9150  176.9740  141.1740 N   0  0  0  0  0  2  0  0  0  0  0  0
  186.3130  178.5920  145.0870 C   0  0  0  0  0  3  0  0  0  0  0  0
  190.0570  177.4960  148.6090 C   0  0  0  0  0  3  0  0  0  0  0  0
  186.6180  177.4600  142.9100 C   0  0  2  0  0  3  0  0  0  0  0  0
  185.5310  178.3840  142.3550 C   0  0  0  0  0  2  0  0  0  0  0  0
  190.6830  176.7990  143.9020 N   0  0  0  0  0  0  0  0  0  0  0  0
  190.3570  177.1630  146.2300 C   0  0  0  0  0  0  0  0  0  0  0  0
  190.8710  177.1470  147.5300 C   0  0  0  0  0  3  0  0  0  0  0  0
  192.9200  176.1260  137.1320 N   0  0  0  0  0  0  0  0  0  0  0  0
  190.5120  176.2910  137.5870 C   0  0  0  0  0  3  0  0  0  0  0  0
  192.4490  177.6950  140.3770 F   0  0  0  0  0  0  0  0  0  0  0  0
  194.0440  175.7010  136.3200 C   0  0  0  0  0  1  0  0  0  0  0  0
  191.5820  176.1280  136.5420 C   0  0  0  0  0  2  0  0  0  0  0  0
  192.1660  177.0990  139.1920 C   0  0  0  0  0  0  0  0  0  0  0  0
  190.7680  176.7820  138.8080 C   0  0  0  0  0  0  0  0  0  0  0  0
  193.1760  176.7590  138.3910 C   0  0  0  0  0  3  0  0  0  0  0  0
  1 17  1  0  0  0  0
  1 11  2  0  0  0  0
  2  3  1  0  0  0  0
  3 22  2  0  0  0  0
  3  9  1  0  0  0  0
  4  5  2  0  0  0  0
  5 16  1  0  0  0  0
  6 18  1  0  0  0  0
  6 13  1  0  0  0  0
  7  2  1  0  0  0  0
  7 17  2  0  0  0  0
  8  1  1  0  0  0  0
  9  6  2  0  0  0  0
 10 15  1  0  0  0  0
 12 22  1  0  0  0  0
 14 10  2  0  0  0  0
 14 19  1  0  0  0  0
 15 21  1  0  0  0  0
 15  2  2  0  0  0  0
 16 10  1  0  0  0  0
 19 20  1  6  0  0  0
 19  7  1  0  0  0  0
 20  8  1  0  0  0  0
 21 12  2  0  0  0  0
 22 23  1  0  0  0  0
 23 18  2  0  0  0  0
 24 31  1  0  0  0  0
 25 30  2  0  0  0  0
 27 24  1  0  0  0  0
 28 24  1  0  0  0  0
 28 25  1  0  0  0  0
 29 26  1  0  0  0  0
 30 29  1  0  0  0  0
 30  5  1  0  0  0  0
 31 29  2  0  0  0  0
M  END
>  <MODEL>
4

>  <REMARK>
 VINA RESULT:     -10.5      2.317      4.171
  Name = 
  1 active torsions:
  status: ('A' for Active; 'I' for Inactive)
    1  A    between atoms: C_5  and  C_30
                            x       y       z     vdW  Elec       q    Type
                         _______ _______ _______ _____ _____    ______ ____

>  <TORSDO>
F 1

$$$$
=
 OpenBabel11122411093D

 31 35  0  0  1  0  0  0  0  0999 V2000
  188.7920  177.4770  147.0850 C   0  0  0  0  0  0  0  0  0  0  0  0
  187.3740  178.0930  143.5780 C   0  0  0  0  0  0  0  0  0  0  0  0
  185.9880  178.3930  143.6930 C   0  0  0  0  0  0  0  0  0  0  0  0
  192.0820  176.9630  141.3280 O   0  0  0  0  0  0  0  0  0  0  0  0
  191.1850  176.9920  140.4430 C   0  0  0  0  0  0  0  0  0  0  0  0
  183.9870  178.8510  145.0100 C   0  0  0  0  0  0  0  0  0  0  0  0
  188.2960  177.8770  144.7330 C   0  0  0  0  0  0  0  0  0  0  0  0
  190.1580  177.4010  146.8140 O   0  0  0  0  0  0  0  0  0  0  0  0
  185.3500  178.5500  144.9340 C   0  0  0  0  0  3  0  0  0  0  0  0
  189.3590  177.6710  142.1040 C   0  0  0  0  0  0  0  0  0  0  0  0
  188.3760  177.4180  148.2700 O   0  0  0  0  0  0  0  0  0  0  0  0
  185.8200  178.4350  141.2720 C   0  0  0  0  0  3  0  0  0  0  0  0
  183.3920  178.9930  146.2180 F   0  0  0  0  0  0  0  0  0  0  0  0
  190.1650  177.6440  143.1260 N   0  0  0  0  0  0  0  0  0  0  0  0
  187.9290  177.9960  142.2840 C   0  0  0  0  0  0  0  0  0  0  0  0
  189.8350  177.3400  140.7930 N   0  0  0  0  0  2  0  0  0  0  0  0
  187.8480  177.6540  145.9760 C   0  0  0  0  0  3  0  0  0  0  0  0
  183.2390  179.0030  143.8420 C   0  0  0  0  0  3  0  0  0  0  0  0
  189.7900  178.0200  144.4880 C   0  0  2  0  0  3  0  0  0  0  0  0
  190.6170  177.1970  145.4800 C   0  0  0  0  0  2  0  0  0  0  0  0
  187.1440  178.1570  141.1830 N   0  0  0  0  0  0  0  0  0  0  0  0
  185.2170  178.5610  142.5180 C   0  0  0  0  0  0  0  0  0  0  0  0
  183.8540  178.8600  142.5970 C   0  0  0  0  0  3  0  0  0  0  0  0
  192.1000  176.3840  136.3100 N   0  0  0  0  0  0  0  0  0  0  0  0
  192.7950  176.7390  138.6380 C   0  0  0  0  0  3  0  0  0  0  0  0
  189.1790  176.1080  138.4560 F   0  0  0  0  0  0  0  0  0  0  0  0
  192.3700  176.3360  134.8860 C   0  0  0  0  0  1  0  0  0  0  0  0
  193.2250  176.3760  137.2430 C   0  0  0  0  0  2  0  0  0  0  0  0
  190.4630  176.2970  138.0620 C   0  0  0  0  0  0  0  0  0  0  0  0
  191.5180  176.6640  139.0400 C   0  0  0  0  0  0  0  0  0  0  0  0
  190.7560  176.1910  136.7660 C   0  0  0  0  0  3  0  0  0  0  0  0
  1 11  2  0  0  0  0
  2  3  1  0  0  0  0
  2  7  1  0  0  0  0
  3  9  1  0  0  0  0
  5 16  1  0  0  0  0
  5  4  2  0  0  0  0
  6 13  1  0  0  0  0
  7 17  2  0  0  0  0
  8  1  1  0  0  0  0
  9  6  2  0  0  0  0
 10 15  1  0  0  0  0
 10 14  2  0  0  0  0
 12 22  1  0  0  0  0
 14 19  1  0  0  0  0
 15  2  2  0  0  0  0
 16 10  1  0  0  0  0
 17  1  1  0  0  0  0
 18  6  1  0  0  0  0
 19  7  1  0  0  0  0
 19 20  1  1  0  0  0
 20  8  1  0  0  0  0
 21 12  2  0  0  0  0
 21 15  1  0  0  0  0
 22 23  1  0  0  0  0
 22  3  2  0  0  0  0
 23 18  2  0  0  0  0
 24 31  1  0  0  0  0
 24 28  1  0  0  0  0
 25 30  2  0  0  0  0
 27 24  1  0  0  0  0
 28 25  1  0  0  0  0
 29 26  1  0  0  0  0
 29 30  1  0  0  0  0
 30  5  1  0  0  0  0
 31 29  2  0  0  0  0
M  END
>  <MODEL>
5

>  <REMARK>
 VINA RESULT:     -10.4      1.084      1.389
  Name = 
  1 active torsions:
  status: ('A' for Active; 'I' for Inactive)
    1  A    between atoms: C_5  and  C_30
                            x       y       z     vdW  Elec       q    Type
                         _______ _______ _______ _____ _____    ______ ____

>  <TORSDO>
F 1

$$$$
=
 OpenBabel11122411093D

 31 35  0  0  1  0  0  0  0  0999 V2000
  191.4100  177.2500  140.6270 C   0  0  0  0  0  0  0  0  0  0  0  0
  188.3250  177.9080  142.8030 C   0  0  0  0  0  0  0  0  0  0  0  0
  188.6590  177.6410  144.1600 C   0  0  0  0  0  0  0  0  0  0  0  0
  185.3680  179.0470  138.5050 O   0  0  0  0  0  0  0  0  0  0  0  0
  184.6200  178.8960  139.5080 C   0  0  0  0  0  0  0  0  0  0  0  0
  190.2580  177.0720  145.9110 C   0  0  0  0  0  0  0  0  0  0  0  0
  189.2880  177.8500  141.6630 C   0  0  0  0  0  0  0  0  0  0  0  0
  190.9810  177.7410  139.3940 O   0  0  0  0  0  0  0  0  0  0  0  0
  189.9650  177.3220  144.5670 C   0  0  0  0  0  3  0  0  0  0  0  0
  186.5840  178.5320  141.1090 C   0  0  0  0  0  0  0  0  0  0  0  0
  192.5870  176.8280  140.7670 O   0  0  0  0  0  0  0  0  0  0  0  0
  186.3500  178.0500  144.7840 C   0  0  0  0  0  3  0  0  0  0  0  0
  191.5240  176.7620  146.2800 F   0  0  0  0  0  0  0  0  0  0  0  0
  187.4760  178.6260  140.1650 N   0  0  0  0  0  0  0  0  0  0  0  0
  186.9910  178.2590  142.5020 C   0  0  0  0  0  0  0  0  0  0  0  0
  185.1880  178.6440  140.8030 N   0  0  0  0  0  2  0  0  0  0  0  0
  190.4850  177.2570  141.7650 C   0  0  0  0  0  3  0  0  0  0  0  0
  189.2490  177.1400  146.8710 C   0  0  0  0  0  3  0  0  0  0  0  0
  188.9210  178.5830  140.3820 C   0  0  2  0  0  3  0  0  0  0  0  0
  189.5940  177.9670  139.1520 C   0  0  0  0  0  2  0  0  0  0  0  0
  186.0530  178.3100  143.4870 N   0  0  0  0  0  0  0  0  0  0  0  0
  187.6490  177.7160  145.1480 C   0  0  0  0  0  0  0  0  0  0  0  0
  187.9450  177.4630  146.4910 C   0  0  0  0  0  3  0  0  0  0  0  0
  180.3630  179.2900  139.3690 N   0  0  0  0  0  0  0  0  0  0  0  0
  182.6160  180.0380  138.7380 C   0  0  0  0  0  3  0  0  0  0  0  0
  182.7690  176.7820  140.4350 F   0  0  0  0  0  0  0  0  0  0  0  0
  178.9310  179.4880  139.4720 C   0  0  0  0  0  1  0  0  0  0  0  0
  181.1370  180.1720  138.4960 C   0  0  0  0  0  2  0  0  0  0  0  0
  182.2600  177.9210  139.9020 C   0  0  0  0  0  0  0  0  0  0  0  0
  183.1510  178.9740  139.3530 C   0  0  0  0  0  0  0  0  0  0  0  0
  180.9400  178.1010  139.9200 C   0  0  0  0  0  3  0  0  0  0  0  0
  1 11  2  0  0  0  0
  1 17  1  0  0  0  0
  2  3  1  0  0  0  0
  3  9  2  0  0  0  0
  3 22  1  0  0  0  0
  4  5  2  0  0  0  0
  5 16  1  0  0  0  0
  6 13  1  0  0  0  0
  6 18  2  0  0  0  0
  7 17  2  0  0  0  0
  7  2  1  0  0  0  0
  8  1  1  0  0  0  0
  9  6  1  0  0  0  0
 10 15  1  0  0  0  0
 12 22  1  0  0  0  0
 14 19  1  0  0  0  0
 14 10  2  0  0  0  0
 15  2  2  0  0  0  0
 15 21  1  0  0  0  0
 16 10  1  0  0  0  0
 19 20  1  6  0  0  0
 19  7  1  0  0  0  0
 20  8  1  0  0  0  0
 21 12  2  0  0  0  0
 22 23  2  0  0  0  0
 23 18  1  0  0  0  0
 24 27  1  0  0  0  0
 24 31  1  0  0  0  0
 25 30  2  0  0  0  0
 28 25  1  0  0  0  0
 28 24  1  0  0  0  0
 29 31  2  0  0  0  0
 29 26  1  0  0  0  0
 30  5  1  0  0  0  0
 30 29  1  0  0  0  0
M  END
>  <MODEL>
6

>  <REMARK>
 VINA RESULT:     -10.4      3.608      7.073
  Name = 
  1 active torsions:
  status: ('A' for Active; 'I' for Inactive)
    1  A    between atoms: C_5  and  C_30
                            x       y       z     vdW  Elec       q    Type
                         _______ _______ _______ _____ _____    ______ ____

>  <TORSDO>
F 1

$$$$
=
 OpenBabel11122411093D

 31 35  0  0  1  0  0  0  0  0999 V2000
  185.1970  178.6080  145.9730 C   0  0  0  0  0  0  0  0  0  0  0  0
  186.2460  178.3760  142.2940 C   0  0  0  0  0  0  0  0  0  0  0  0
  187.6370  178.0860  142.2340 C   0  0  0  0  0  0  0  0  0  0  0  0
  181.3260  179.6650  140.6690 O   0  0  0  0  0  0  0  0  0  0  0  0
  182.1270  179.7400  139.6990 C   0  0  0  0  0  0  0  0  0  0  0  0
  189.7660  177.5240  143.2840 C   0  0  0  0  0  0  0  0  0  0  0  0
  185.4480  178.4590  143.5540 C   0  0  0  0  0  0  0  0  0  0  0  0
  183.8100  178.6930  145.8540 O   0  0  0  0  0  0  0  0  0  0  0  0
  188.4010  177.8110  143.3810 C   0  0  0  0  0  3  0  0  0  0  0  0
  184.1180  178.9200  141.0840 C   0  0  0  0  0  0  0  0  0  0  0  0
  185.7340  178.5510  147.1090 O   0  0  0  0  0  0  0  0  0  0  0  0
  187.5540  178.2960  139.8190 C   0  0  0  0  0  3  0  0  0  0  0  0
  190.4840  177.2660  144.4040 F   0  0  0  0  0  0  0  0  0  0  0  0
  183.4220  178.8300  142.1800 N   0  0  0  0  0  0  0  0  0  0  0  0
  185.5590  178.5990  141.0810 C   0  0  0  0  0  0  0  0  0  0  0  0
  183.5070  179.3770  139.8700 N   0  0  0  0  0  2  0  0  0  0  0  0
  186.0210  178.5590  144.7600 C   0  0  0  0  0  3  0  0  0  0  0  0
  190.3890  177.5030  142.0360 C   0  0  0  0  0  3  0  0  0  0  0  0
  183.9370  178.3220  143.4500 C   0  0  2  0  0  3  0  0  0  0  0  0
  183.2140  179.0260  144.6020 C   0  0  0  0  0  2  0  0  0  0  0  0
  186.2270  178.5620  139.8950 N   0  0  0  0  0  0  0  0  0  0  0  0
  188.2830  178.0510  140.9760 C   0  0  0  0  0  0  0  0  0  0  0  0
  189.6480  177.7650  140.8820 C   0  0  0  0  0  3  0  0  0  0  0  0
  180.4210  180.9920  135.9830 N   0  0  0  0  0  0  0  0  0  0  0  0
  181.2580  181.4800  138.2390 C   0  0  0  0  0  3  0  0  0  0  0  0
  182.0380  178.0140  137.2980 F   0  0  0  0  0  0  0  0  0  0  0  0
  179.7000  181.3550  134.7780 C   0  0  0  0  0  1  0  0  0  0  0  0
  180.8060  182.0460  136.9200 C   0  0  0  0  0  2  0  0  0  0  0  0
  181.5540  179.2790  137.2230 C   0  0  0  0  0  0  0  0  0  0  0  0
  181.6490  180.2060  138.3790 C   0  0  0  0  0  0  0  0  0  0  0  0
  180.9470  179.6660  136.1010 C   0  0  0  0  0  3  0  0  0  0  0  0
  1 11  2  0  0  0  0
  2  7  1  0  0  0  0
  3  2  1  0  0  0  0
  3  9  1  0  0  0  0
  5 16  1  0  0  0  0
  5  4  2  0  0  0  0
  6  9  2  0  0  0  0
  6 13  1  0  0  0  0
  7 17  2  0  0  0  0
  8  1  1  0  0  0  0
 10 14  2  0  0  0  0
 12 21  2  0  0  0  0
 12 22  1  0  0  0  0
 14 19  1  0  0  0  0
 15 10  1  0  0  0  0
 15  2  2  0  0  0  0
 16 10  1  0  0  0  0
 17  1  1  0  0  0  0
 18  6  1  0  0  0  0
 19  7  1  0  0  0  0
 19 20  1  1  0  0  0
 20  8  1  0  0  0  0
 21 15  1  0  0  0  0
 22  3  2  0  0  0  0
 23 22  1  0  0  0  0
 23 18  2  0  0  0  0
 24 31  1  0  0  0  0
 24 28  1  0  0  0  0
 25 30  2  0  0  0  0
 27 24  1  0  0  0  0
 28 25  1  0  0  0  0
 29 26  1  0  0  0  0
 29 30  1  0  0  0  0
 30  5  1  0  0  0  0
 31 29  2  0  0  0  0
M  END
>  <MODEL>
7

>  <REMARK>
 VINA RESULT:      -9.8      5.111      7.681
  Name = 
  1 active torsions:
  status: ('A' for Active; 'I' for Inactive)
    1  A    between atoms: C_5  and  C_30
                            x       y       z     vdW  Elec       q    Type
                         _______ _______ _______ _____ _____    ______ ____

>  <TORSDO>
F 1

$$$$
=
 OpenBabel11122411093D

 31 35  0  0  1  0  0  0  0  0999 V2000
  187.5200  178.2480  148.1260 C   0  0  0  0  0  0  0  0  0  0  0  0
  188.0200  177.3780  144.4270 C   0  0  0  0  0  0  0  0  0  0  0  0
  189.3660  176.9610  144.2350 C   0  0  0  0  0  0  0  0  0  0  0  0
  183.0160  178.8350  143.2690 O   0  0  0  0  0  0  0  0  0  0  0  0
  183.6740  178.6940  142.2030 C   0  0  0  0  0  0  0  0  0  0  0  0
  191.5800  176.3780  145.0760 C   0  0  0  0  0  0  0  0  0  0  0  0
  187.4150  177.7180  145.7500 C   0  0  0  0  0  0  0  0  0  0  0  0
  186.1390  178.4340  148.1760 O   0  0  0  0  0  0  0  0  0  0  0  0
  190.2650  176.7950  145.3010 C   0  0  0  0  0  3  0  0  0  0  0  0
  185.7820  177.9190  143.4320 C   0  0  0  0  0  0  0  0  0  0  0  0
  188.2070  178.3130  149.1780 O   0  0  0  0  0  0  0  0  0  0  0  0
  188.9550  176.8150  141.8480 C   0  0  0  0  0  3  0  0  0  0  0  0
  192.4310  176.2280  146.1200 F   0  0  0  0  0  0  0  0  0  0  0  0
  185.2440  178.0550  144.6090 N   0  0  0  0  0  0  0  0  0  0  0  0
  187.1840  177.4760  143.2940 C   0  0  0  0  0  0  0  0  0  0  0  0
  185.0370  178.2420  142.2500 N   0  0  0  0  0  2  0  0  0  0  0  0
  188.1590  177.9460  146.8410 C   0  0  0  0  0  3  0  0  0  0  0  0
  192.0170  176.1170  143.7770 C   0  0  0  0  0  3  0  0  0  0  0  0
  185.8990  177.6990  145.8670 C   0  0  2  0  0  3  0  0  0  0  0  0
  185.3950  178.6270  146.9750 C   0  0  0  0  0  2  0  0  0  0  0  0
  187.6730  177.2050  142.0520 N   0  0  0  0  0  0  0  0  0  0  0  0
  189.8230  176.6820  142.9250 C   0  0  0  0  0  0  0  0  0  0  0  0
  191.1390  176.2670  142.7020 C   0  0  0  0  0  3  0  0  0  0  0  0
  181.8270  179.9040  138.5410 N   0  0  0  0  0  0  0  0  0  0  0  0
  183.8210  179.3780  139.8740 C   0  0  0  0  0  3  0  0  0  0  0  0
  180.7700  178.4480  141.6990 F   0  0  0  0  0  0  0  0  0  0  0  0
  181.1810  180.4620  137.3680 C   0  0  0  0  0  1  0  0  0  0  0  0
  183.2680  179.6570  138.5030 C   0  0  0  0  0  2  0  0  0  0  0  0
  181.5740  178.9290  140.7180 C   0  0  0  0  0  0  0  0  0  0  0  0
  183.0460  178.9980  140.8990 C   0  0  0  0  0  0  0  0  0  0  0  0
  181.0130  179.3860  139.5990 C   0  0  0  0  0  3  0  0  0  0  0  0
  1  8  1  0  0  0  0
  1 11  2  0  0  0  0
  2  7  1  0  0  0  0
  3  2  1  0  0  0  0
  3  9  1  0  0  0  0
  5 16  1  0  0  0  0
  5  4  2  0  0  0  0
  6  9  2  0  0  0  0
  6 13  1  0  0  0  0
  7 19  1  0  0  0  0
  7 17  2  0  0  0  0
 10 14  2  0  0  0  0
 12 21  2  0  0  0  0
 12 22  1  0  0  0  0
 14 19  1  0  0  0  0
 15 10  1  0  0  0  0
 15  2  2  0  0  0  0
 16 10  1  0  0  0  0
 17  1  1  0  0  0  0
 18  6  1  0  0  0  0
 19 20  1  1  0  0  0
 20  8  1  0  0  0  0
 21 15  1  0  0  0  0
 22  3  2  0  0  0  0
 23 22  1  0  0  0  0
 23 18  2  0  0  0  0
 24 31  1  0  0  0  0
 25 30  2  0  0  0  0
 27 24  1  0  0  0  0
 28 24  1  0  0  0  0
 28 25  1  0  0  0  0
 29 30  1  0  0  0  0
 29 26  1  0  0  0  0
 30  5  1  0  0  0  0
 31 29  2  0  0  0  0
M  END
>  <MODEL>
8

>  <REMARK>
 VINA RESULT:      -9.6      3.973      7.077
  Name = 
  1 active torsions:
  status: ('A' for Active; 'I' for Inactive)
    1  A    between atoms: C_5  and  C_30
                            x       y       z     vdW  Elec       q    Type
                         _______ _______ _______ _____ _____    ______ ____

>  <TORSDO>
F 1

$$$$
=
 OpenBabel11122411093D

 31 35  0  0  1  0  0  0  0  0999 V2000
  185.7940  179.1750  146.6270 C   0  0  0  0  0  0  0  0  0  0  0  0
  188.6180  177.5350  144.6220 C   0  0  0  0  0  0  0  0  0  0  0  0
  189.6730  177.1960  145.5130 C   0  0  0  0  0  0  0  0  0  0  0  0
  185.9820  178.2840  140.0390 O   0  0  0  0  0  0  0  0  0  0  0  0
  187.1750  177.9590  139.7940 C   0  0  0  0  0  0  0  0  0  0  0  0
  190.6180  176.9990  147.7530 C   0  0  0  0  0  0  0  0  0  0  0  0
  187.3060  178.1150  145.0370 C   0  0  0  0  0  0  0  0  0  0  0  0
  184.7890  179.2560  145.6630 O   0  0  0  0  0  0  0  0  0  0  0  0
  189.5630  177.3480  146.9060 C   0  0  0  0  0  3  0  0  0  0  0  0
  187.7580  177.6540  142.2690 C   0  0  0  0  0  0  0  0  0  0  0  0
  185.5660  179.5320  147.8110 O   0  0  0  0  0  0  0  0  0  0  0  0
  191.0120  176.4810  143.6210 C   0  0  0  0  0  3  0  0  0  0  0  0
  190.4910  177.1580  149.0920 F   0  0  0  0  0  0  0  0  0  0  0  0
  186.5730  178.0090  142.6750 N   0  0  0  0  0  0  0  0  0  0  0  0
  188.8130  177.3070  143.2420 C   0  0  0  0  0  0  0  0  0  0  0  0
  188.0730  177.6410  140.8700 N   0  0  0  0  0  2  0  0  0  0  0  0
  187.1090  178.6440  146.2530 C   0  0  0  0  0  3  0  0  0  0  0  0
  191.8020  176.4870  147.2210 C   0  0  0  0  0  3  0  0  0  0  0  0
  186.1380  178.0010  144.0710 C   0  0  2  0  0  3  0  0  0  0  0  0
  185.1050  179.1120  144.2800 C   0  0  0  0  0  2  0  0  0  0  0  0
  189.9920  176.8020  142.7870 N   0  0  0  0  0  0  0  0  0  0  0  0
  190.8770  176.6660  144.9910 C   0  0  0  0  0  0  0  0  0  0  0  0
  191.9310  176.3190  145.8410 C   0  0  0  0  0  3  0  0  0  0  0  0
  188.8110  177.5830  135.8610 N   0  0  0  0  0  0  0  0  0  0  0  0
  187.1420  176.9930  137.5630 C   0  0  0  0  0  3  0  0  0  0  0  0
  189.1920  179.8250  138.6970 F   0  0  0  0  0  0  0  0  0  0  0  0
  189.4820  177.3620  134.5950 C   0  0  0  0  0  1  0  0  0  0  0  0
  187.5400  176.9060  136.1150 C   0  0  0  0  0  2  0  0  0  0  0  0
  188.7250  178.8200  137.9150 C   0  0  0  0  0  0  0  0  0  0  0  0
  187.6560  177.9080  138.3970 C   0  0  0  0  0  0  0  0  0  0  0  0
  189.2750  178.6340  136.7160 C   0  0  0  0  0  3  0  0  0  0  0  0
  1 11  2  0  0  0  0
  2  7  1  0  0  0  0
  2  3  1  0  0  0  0
  3  9  1  0  0  0  0
  5  4  2  0  0  0  0
  5 16  1  0  0  0  0
  6 13  1  0  0  0  0
  7 17  2  0  0  0  0
  8  1  1  0  0  0  0
  9  6  2  0  0  0  0
 10 14  2  0  0  0  0
 10 15  1  0  0  0  0
 12 22  1  0  0  0  0
 14 19  1  0  0  0  0
 15  2  2  0  0  0  0
 16 10  1  0  0  0  0
 17  1  1  0  0  0  0
 18  6  1  0  0  0  0
 19 20  1  6  0  0  0
 19  7  1  0  0  0  0
 20  8  1  0  0  0  0
 21 15  1  0  0  0  0
 21 12  2  0  0  0  0
 22  3  2  0  0  0  0
 22 23  1  0  0  0  0
 23 18  2  0  0  0  0
 24 28  1  0  0  0  0
 24 31  1  0  0  0  0
 25 30  2  0  0  0  0
 27 24  1  0  0  0  0
 28 25  1  0  0  0  0
 29 30  1  0  0  0  0
 29 26  1  0  0  0  0
 30  5  1  0  0  0  0
 31 29  2  0  0  0  0
M  END
>  <MODEL>
9

>  <REMARK>
 VINA RESULT:      -9.2      3.016      4.723
  Name = 
  1 active torsions:
  status: ('A' for Active; 'I' for Inactive)
    1  A    between atoms: C_5  and  C_30
                            x       y       z     vdW  Elec       q    Type
                         _______ _______ _______ _____ _____    ______ ____

>  <TORSDO>
F 1

$$$$
