=
 OpenBabel11122411313D

 37 43  0  0  1  0  0  0  0  0999 V2000
  187.9390  176.7870  138.3540 C   0  0  0  0  0  2  0  0  0  0  0  0
  188.2390  178.1200  142.8170 C   0  0  0  0  0  0  0  0  0  0  0  0
  184.5420  178.3200  140.9190 C   0  0  0  0  0  0  0  0  0  0  0  0
  189.0710  176.7020  137.3200 C   0  0  2  0  0  3  0  0  0  0  0  0
  184.4390  178.1100  136.9910 C   0  0  0  0  0  2  0  0  0  0  0  0
  185.7380  178.4850  143.0030 C   0  0  0  0  0  0  0  0  0  0  0  0
  184.9200  178.2490  139.5670 C   0  0  0  0  0  0  0  0  0  0  0  0
  187.3990  176.3130  135.3120 C   0  0  2  0  0  3  0  0  0  0  0  0
  185.7000  178.4710  141.6250 C   0  0  0  0  0  0  0  0  0  0  0  0
  184.0020  177.8240  138.4320 C   0  0  1  0  0  3  0  0  0  0  0  0
  184.5630  178.3920  143.6840 N   0  0  0  0  0  0  0  0  0  0  0  0
  188.6670  177.0010  135.8600 C   0  0  0  0  0  2  0  0  0  0  0  0
  186.7770  178.4770  140.8450 N   0  0  0  0  0  0  0  0  0  0  0  0
  188.2630  176.6020  142.8420 C   0  0  0  0  0  1  0  0  0  0  0  0
  181.9450  178.1610  140.9880 C   0  0  0  0  0  2  0  0  0  0  0  0
  183.3690  178.2560  143.0240 C   0  0  0  0  0  3  0  0  0  0  0  0
  188.1450  178.6060  141.3520 C   0  0  0  0  0  2  0  0  0  0  0  0
  186.1550  177.2070  135.3580 C   0  0  0  0  0  2  0  0  0  0  0  0
  185.8430  177.6210  136.7830 C   0  0  1  0  0  3  0  0  0  0  0  0
  183.3140  178.1960  141.6130 C   0  0  0  0  0  0  0  0  0  0  0  0
  186.3380  178.3360  139.5770 C   0  0  0  0  0  0  0  0  0  0  0  0
  187.0670  178.6350  143.6890 C   0  0  0  0  0  2  0  0  0  0  0  0
  182.6390  178.2830  138.6690 N   0  0  0  0  0  0  0  0  0  0  0  0
  189.5380  178.6250  143.4080 C   0  0  0  0  0  1  0  0  0  0  0  0
  186.7370  178.6130  137.2020 O   0  0  0  0  0  0  0  0  0  0  0  0
  187.1580  175.0770  135.9160 O   0  0  0  0  0  1  0  0  0  0  0  0
  187.2940  178.1860  138.4190 C   0  0  2  0  0  3  0  0  0  0  0  0
  181.8830  177.4910  139.6260 C   0  0  0  0  0  2  0  0  0  0  0  0
  182.7080  180.7420  138.9020 C   0  0  0  0  0  3  0  0  0  0  0  0
  182.1820  179.5970  138.2850 C   0  0  0  0  0  0  0  0  0  0  0  0
  181.2440  179.7410  137.3060 N   0  0  0  0  0  0  0  0  0  0  0  0
  179.5890  181.0800  135.6480 Cl  0  0  0  0  0  0  0  0  0  0  0  0
  181.2980  182.1190  137.5070 C   0  0  0  0  0  3  0  0  0  0  0  0
  180.7960  180.9620  136.9090 C   0  0  0  0  0  0  0  0  0  0  0  0
  182.2610  182.0040  138.5090 C   0  0  0  0  0  3  0  0  0  0  0  0
  191.1670  175.5240  137.9930 C   0  0  0  0  0  1  0  0  0  0  0  0
  189.7770  175.3580  137.4090 C   0  0  0  0  0  2  0  0  0  0  0  0
  2 14  1  0  0  0  0
  2 24  1  0  0  0  0
  2 22  1  0  0  0  0
  3 20  2  0  0  0  0
  3  9  1  0  0  0  0
  4 37  1  6  0  0  0
  4  1  1  0  0  0  0
  6 11  1  0  0  0  0
  6 22  1  0  0  0  0
  7 21  2  0  0  0  0
  7  3  1  0  0  0  0
  8 18  1  0  0  0  0
  8 12  1  0  0  0  0
  8 26  1  1  0  0  0
  9  6  2  0  0  0  0
 10  5  1  6  0  0  0
 10 23  1  0  0  0  0
 10  7  1  0  0  0  0
 12  4  1  0  0  0  0
 13 17  1  0  0  0  0
 13  9  1  0  0  0  0
 15 20  1  0  0  0  0
 16 11  2  0  0  0  0
 17  2  1  0  0  0  0
 19 18  1  6  0  0  0
 19  5  1  0  0  0  0
 19 25  1  0  0  0  0
 20 16  1  0  0  0  0
 21 13  1  0  0  0  0
 23 28  1  0  0  0  0
 25 27  1  0  0  0  0
 27  1  1  6  0  0  0
 27 21  1  0  0  0  0
 28 15  1  0  0  0  0
 30 23  1  0  0  0  0
 30 29  2  0  0  0  0
 31 30  1  0  0  0  0
 32 34  1  0  0  0  0
 33 35  2  0  0  0  0
 34 31  2  0  0  0  0
 34 33  1  0  0  0  0
 35 29  1  0  0  0  0
 37 36  1  0  0  0  0
M  END
>  <MODEL>
1

>  <REMARK>
 VINA RESULT:      -6.6      0.000      0.000
  Name = 
  2 active torsions:
  status: ('A' for Active; 'I' for Inactive)
    1  A    between atoms: C_4  and  C_37
    2  A    between atoms: N_23  and  C_30
                            x       y       z     vdW  Elec       q    Type
                         _______ _______ _______ _____ _____    ______ ____

>  <TORSDO>
F 2

$$$$
=
 OpenBabel11122411313D

 37 43  0  0  1  0  0  0  0  0999 V2000
  182.2570  174.3470  136.9330 C   0  0  0  0  0  2  0  0  0  0  0  0
  186.3990  176.3880  136.2540 C   0  0  0  0  0  0  0  0  0  0  0  0
  183.8810  177.9150  139.1920 C   0  0  0  0  0  0  0  0  0  0  0  0
  181.4680  173.4710  135.9490 C   0  0  2  0  0  3  0  0  0  0  0  0
  180.0930  176.8450  139.1540 C   0  0  0  0  0  2  0  0  0  0  0  0
  186.0800  177.9650  138.2110 C   0  0  0  0  0  0  0  0  0  0  0  0
  182.6500  177.3440  138.8260 C   0  0  0  0  0  0  0  0  0  0  0  0
  179.2990  173.4840  137.4570 C   0  0  2  0  0  3  0  0  0  0  0  0
  184.7400  177.6420  138.1680 C   0  0  0  0  0  0  0  0  0  0  0  0
  181.4640  177.1670  139.7610 C   0  0  1  0  0  3  0  0  0  0  0  0
  186.5500  178.6280  139.3030 N   0  0  0  0  0  0  0  0  0  0  0  0
  179.9310  173.5700  136.0520 C   0  0  0  0  0  2  0  0  0  0  0  0
  184.1720  176.9300  137.1990 N   0  0  0  0  0  0  0  0  0  0  0  0
  186.6940  175.1110  137.0210 C   0  0  0  0  0  1  0  0  0  0  0  0
  183.5220  179.0730  141.4960 C   0  0  0  0  0  2  0  0  0  0  0  0
  185.7270  178.9420  140.3520 C   0  0  0  0  0  3  0  0  0  0  0  0
  184.8780  176.4890  135.9950 C   0  0  0  0  0  2  0  0  0  0  0  0
  178.9700  174.8540  138.0590 C   0  0  0  0  0  2  0  0  0  0  0  0
  180.2230  175.6970  138.1960 C   0  0  1  0  0  3  0  0  0  0  0  0
  184.3610  178.5800  140.3470 C   0  0  0  0  0  0  0  0  0  0  0  0
  182.8910  176.7230  137.5710 C   0  0  0  0  0  0  0  0  0  0  0  0
  186.9500  177.6040  137.0400 C   0  0  0  0  0  2  0  0  0  0  0  0
  181.3750  178.2780  140.7010 N   0  0  0  0  0  0  0  0  0  0  0  0
  187.1100  176.3150  134.9200 C   0  0  0  0  0  1  0  0  0  0  0  0
  180.6100  176.1890  136.9440 O   0  0  0  0  0  0  0  0  0  0  0  0
  180.0590  172.7120  138.3390 O   0  0  0  0  0  1  0  0  0  0  0  0
  181.9620  175.8500  136.7630 C   0  0  2  0  0  3  0  0  0  0  0  0
  182.3090  178.2150  141.8130 C   0  0  0  0  0  2  0  0  0  0  0  0
  179.6620  179.9810  141.2150 C   0  0  0  0  0  3  0  0  0  0  0  0
  180.6920  179.5100  140.3880 C   0  0  0  0  0  0  0  0  0  0  0  0
  181.0530  180.2390  139.2930 N   0  0  0  0  0  0  0  0  0  0  0  0
  180.9470  182.2980  137.5530 Cl  0  0  0  0  0  0  0  0  0  0  0  0
  179.4090  181.9030  139.7740 C   0  0  0  0  0  3  0  0  0  0  0  0
  180.4400  181.4100  138.9720 C   0  0  0  0  0  0  0  0  0  0  0  0
  179.0200  181.1810  140.9020 C   0  0  0  0  0  3  0  0  0  0  0  0
  183.1730  171.9060  136.8850 C   0  0  0  0  0  1  0  0  0  0  0  0
  181.9130  172.0200  136.0480 C   0  0  0  0  0  2  0  0  0  0  0  0
  2 14  1  0  0  0  0
  2 22  1  0  0  0  0
  3 20  1  0  0  0  0
  4 37  1  1  0  0  0
  4 12  1  0  0  0  0
  4  1  1  0  0  0  0
  6 11  2  0  0  0  0
  7  3  1  0  0  0  0
  7 10  1  0  0  0  0
  8 18  1  0  0  0  0
  8 26  1  1  0  0  0
  9  6  1  0  0  0  0
  9  3  2  0  0  0  0
 10  5  1  6  0  0  0
 10 23  1  0  0  0  0
 11 16  1  0  0  0  0
 12  8  1  0  0  0  0
 13 21  1  0  0  0  0
 13  9  1  0  0  0  0
 15 28  1  0  0  0  0
 17  2  1  0  0  0  0
 17 13  1  0  0  0  0
 19 18  1  6  0  0  0
 19  5  1  0  0  0  0
 20 16  2  0  0  0  0
 20 15  1  0  0  0  0
 21  7  2  0  0  0  0
 22  6  1  0  0  0  0
 23 28  1  0  0  0  0
 24  2  1  0  0  0  0
 25 19  1  0  0  0  0
 27  1  1  1  0  0  0
 27 25  1  0  0  0  0
 27 21  1  0  0  0  0
 30 23  1  0  0  0  0
 30 29  2  0  0  0  0
 31 30  1  0  0  0  0
 32 34  1  0  0  0  0
 33 35  2  0  0  0  0
 34 31  2  0  0  0  0
 34 33  1  0  0  0  0
 35 29  1  0  0  0  0
 37 36  1  0  0  0  0
M  END
>  <MODEL>
2

>  <REMARK>
 VINA RESULT:      -6.5      3.376      5.631
  Name = 
  2 active torsions:
  status: ('A' for Active; 'I' for Inactive)
    1  A    between atoms: C_4  and  C_37
    2  A    between atoms: N_23  and  C_30
                            x       y       z     vdW  Elec       q    Type
                         _______ _______ _______ _____ _____    ______ ____

>  <TORSDO>
F 2

$$$$
=
 OpenBabel11122411313D

 37 43  0  0  1  0  0  0  0  0999 V2000
  186.8790  178.4470  144.4660 C   0  0  0  0  0  2  0  0  0  0  0  0
  191.1260  176.5310  144.7420 C   0  0  0  0  0  0  0  0  0  0  0  0
  189.6040  177.4770  140.9870 C   0  0  0  0  0  0  0  0  0  0  0  0
  185.7500  178.3840  145.5040 C   0  0  2  0  0  3  0  0  0  0  0  0
  185.7490  178.1970  140.6560 C   0  0  0  0  0  2  0  0  0  0  0  0
  191.5270  176.7660  142.2510 C   0  0  0  0  0  0  0  0  0  0  0  0
  188.2360  177.6230  141.2710 C   0  0  0  0  0  0  0  0  0  0  0  0
  183.9730  179.4160  143.8440 C   0  0  2  0  0  3  0  0  0  0  0  0
  190.1690  176.9610  142.1170 C   0  0  0  0  0  0  0  0  0  0  0  0
  187.2500  178.3980  140.4110 C   0  0  1  0  0  3  0  0  0  0  0  0
  192.3300  177.0560  141.1900 N   0  0  0  0  0  0  0  0  0  0  0  0
  184.3160  178.3770  144.9320 C   0  0  0  0  0  2  0  0  0  0  0  0
  189.2870  176.7910  143.0980 N   0  0  0  0  0  0  0  0  0  0  0  0
  191.3050  177.9820  145.1510 C   0  0  0  0  0  1  0  0  0  0  0  0
  189.9530  178.2530  138.5270 C   0  0  0  0  0  2  0  0  0  0  0  0
  191.8130  177.5590  140.0250 C   0  0  0  0  0  3  0  0  0  0  0  0
  189.6360  176.2710  144.4210 C   0  0  0  0  0  2  0  0  0  0  0  0
  184.0530  178.8540  142.4200 C   0  0  0  0  0  2  0  0  0  0  0  0
  185.4510  178.3520  142.1190 C   0  0  1  0  0  3  0  0  0  0  0  0
  190.4290  177.8080  139.8840 C   0  0  0  0  0  0  0  0  0  0  0  0
  188.0910  177.1930  142.6180 C   0  0  0  0  0  0  0  0  0  0  0  0
  192.0550  176.2110  143.5440 C   0  0  0  0  0  2  0  0  0  0  0  0
  187.5750  178.2570  138.9970 N   0  0  0  0  0  0  0  0  0  0  0  0
  191.5270  175.6560  145.9100 C   0  0  0  0  0  1  0  0  0  0  0  0
  185.6720  177.1280  142.7600 O   0  0  0  0  0  0  0  0  0  0  0  0
  184.7230  180.5880  143.9690 O   0  0  0  0  0  1  0  0  0  0  0  0
  186.8640  177.2510  143.4940 C   0  0  2  0  0  3  0  0  0  0  0  0
  188.6800  179.0830  138.5380 C   0  0  0  0  0  2  0  0  0  0  0  0
  185.8240  177.1830  137.6250 C   0  0  0  0  0  3  0  0  0  0  0  0
  187.1060  177.1530  138.1950 C   0  0  0  0  0  0  0  0  0  0  0  0
  187.9100  176.0750  137.9690 N   0  0  0  0  0  0  0  0  0  0  0  0
  188.5830  173.6660  136.9590 Cl  0  0  0  0  0  0  0  0  0  0  0  0
  186.2360  175.0200  136.6330 C   0  0  0  0  0  3  0  0  0  0  0  0
  187.5060  175.0210  137.2100 C   0  0  0  0  0  0  0  0  0  0  0  0
  185.3920  176.1110  136.8430 C   0  0  0  0  0  3  0  0  0  0  0  0
  186.7170  179.0100  147.7190 C   0  0  0  0  0  1  0  0  0  0  0  0
  185.9050  179.4940  146.5320 C   0  0  0  0  0  2  0  0  0  0  0  0
  1  4  1  0  0  0  0
  2 14  1  0  0  0  0
  2 24  1  0  0  0  0
  3  7  1  0  0  0  0
  3  9  1  0  0  0  0
  4 37  1  1  0  0  0
  6 22  1  0  0  0  0
  7 21  2  0  0  0  0
  8 26  1  6  0  0  0
  8 12  1  0  0  0  0
  9  6  2  0  0  0  0
  9 13  1  0  0  0  0
 10  5  1  6  0  0  0
 10  7  1  0  0  0  0
 11  6  1  0  0  0  0
 12  4  1  0  0  0  0
 13 17  1  0  0  0  0
 15 28  1  0  0  0  0
 15 20  1  0  0  0  0
 16 11  2  0  0  0  0
 17  2  1  0  0  0  0
 18  8  1  0  0  0  0
 19  5  1  6  0  0  0
 19 18  1  0  0  0  0
 19 25  1  0  0  0  0
 20 16  1  0  0  0  0
 20  3  2  0  0  0  0
 21 13  1  0  0  0  0
 21 27  1  0  0  0  0
 22  2  1  0  0  0  0
 23 10  1  0  0  0  0
 25 27  1  0  0  0  0
 27  1  1  6  0  0  0
 28 23  1  0  0  0  0
 29 30  1  0  0  0  0
 30 23  1  0  0  0  0
 31 30  2  0  0  0  0
 32 34  1  0  0  0  0
 33 35  1  0  0  0  0
 33 34  2  0  0  0  0
 34 31  1  0  0  0  0
 35 29  2  0  0  0  0
 37 36  1  0  0  0  0
M  END
>  <MODEL>
3

>  <REMARK>
 VINA RESULT:      -6.3      3.874      7.102
  Name = 
  2 active torsions:
  status: ('A' for Active; 'I' for Inactive)
    1  A    between atoms: C_4  and  C_37
    2  A    between atoms: N_23  and  C_30
                            x       y       z     vdW  Elec       q    Type
                         _______ _______ _______ _____ _____    ______ ____

>  <TORSDO>
F 2

$$$$
=
 OpenBabel11122411313D

 37 43  0  0  1  0  0  0  0  0999 V2000
  187.0260  177.8310  140.1480 C   0  0  0  0  0  2  0  0  0  0  0  0
  184.6800  179.2330  143.9310 C   0  0  0  0  0  0  0  0  0  0  0  0
  182.5300  178.1510  140.5370 C   0  0  0  0  0  0  0  0  0  0  0  0
  188.4900  178.1230  139.7880 C   0  0  2  0  0  3  0  0  0  0  0  0
  184.4500  177.8780  137.1130 C   0  0  0  0  0  2  0  0  0  0  0  0
  182.4320  178.7310  142.8730 C   0  0  0  0  0  0  0  0  0  0  0  0
  183.5290  178.1970  139.5500 C   0  0  0  0  0  0  0  0  0  0  0  0
  188.2250  177.1720  137.3380 C   0  0  2  0  0  3  0  0  0  0  0  0
  183.0860  178.6910  141.6600 C   0  0  0  0  0  0  0  0  0  0  0  0
  183.4610  177.4760  138.2140 C   0  0  1  0  0  3  0  0  0  0  0  0
  181.1590  178.2530  142.9370 N   0  0  0  0  0  0  0  0  0  0  0  0
  188.7940  178.2530  138.2800 C   0  0  0  0  0  2  0  0  0  0  0  0
  184.3530  179.0540  141.4790 N   0  0  0  0  0  0  0  0  0  0  0  0
  185.1260  177.8120  144.2310 C   0  0  0  0  0  1  0  0  0  0  0  0
  180.4130  177.1230  139.4240 C   0  0  0  0  0  2  0  0  0  0  0  0
  180.5460  177.7150  141.8360 C   0  0  0  0  0  3  0  0  0  0  0  0
  185.1860  179.6430  142.5290 C   0  0  0  0  0  2  0  0  0  0  0  0
  186.9240  177.5920  136.6460 C   0  0  0  0  0  2  0  0  0  0  0  0
  185.8440  177.8910  137.6670 C   0  0  1  0  0  3  0  0  0  0  0  0
  181.2160  177.6250  140.5950 C   0  0  0  0  0  0  0  0  0  0  0  0
  184.6620  178.7590  140.1990 C   0  0  0  0  0  0  0  0  0  0  0  0
  183.1390  179.3300  144.0580 C   0  0  0  0  0  2  0  0  0  0  0  0
  182.0940  177.4490  137.7090 N   0  0  0  0  0  0  0  0  0  0  0  0
  185.3060  180.1530  144.9570 C   0  0  0  0  0  1  0  0  0  0  0  0
  186.0830  179.1310  138.2700 O   0  0  0  0  0  0  0  0  0  0  0  0
  188.0860  175.9330  137.9690 O   0  0  0  0  0  1  0  0  0  0  0  0
  186.0610  178.9300  139.6610 C   0  0  2  0  0  3  0  0  0  0  0  0
  181.2310  176.4580  138.3290 C   0  0  0  0  0  2  0  0  0  0  0  0
  181.1380  178.3150  135.6020 C   0  0  0  0  0  3  0  0  0  0  0  0
  181.5290  178.5270  136.9320 C   0  0  0  0  0  0  0  0  0  0  0  0
  181.3530  179.7590  137.4900 N   0  0  0  0  0  0  0  0  0  0  0  0
  180.6180  182.3540  137.5640 Cl  0  0  0  0  0  0  0  0  0  0  0  0
  180.4200  180.6170  135.4670 C   0  0  0  0  0  3  0  0  0  0  0  0
  180.8150  180.7960  136.7940 C   0  0  0  0  0  0  0  0  0  0  0  0
  180.5840  179.3670  134.8700 C   0  0  0  0  0  3  0  0  0  0  0  0
  190.8470  177.3240  139.9850 C   0  0  0  0  0  1  0  0  0  0  0  0
  189.4130  177.0980  140.4280 C   0  0  0  0  0  2  0  0  0  0  0  0
  2 22  1  0  0  0  0
  2 14  1  0  0  0  0
  2 24  1  0  0  0  0
  3 20  2  0  0  0  0
  3  9  1  0  0  0  0
  4  1  1  0  0  0  0
  4 37  1  6  0  0  0
  5 19  1  0  0  0  0
  6 11  1  0  0  0  0
  6 22  1  0  0  0  0
  7 21  2  0  0  0  0
  7  3  1  0  0  0  0
  8 26  1  1  0  0  0
  8 12  1  0  0  0  0
  9  6  2  0  0  0  0
 10  5  1  6  0  0  0
 10  7  1  0  0  0  0
 12  4  1  0  0  0  0
 13  9  1  0  0  0  0
 13 17  1  0  0  0  0
 15 20  1  0  0  0  0
 16 11  2  0  0  0  0
 17  2  1  0  0  0  0
 18  8  1  0  0  0  0
 19 18  1  6  0  0  0
 19 25  1  0  0  0  0
 20 16  1  0  0  0  0
 21 13  1  0  0  0  0
 23 10  1  0  0  0  0
 23 28  1  0  0  0  0
 25 27  1  0  0  0  0
 27  1  1  6  0  0  0
 27 21  1  0  0  0  0
 28 15  1  0  0  0  0
 29 30  1  0  0  0  0
 30 31  2  0  0  0  0
 30 23  1  0  0  0  0
 33 34  2  0  0  0  0
 34 31  1  0  0  0  0
 34 32  1  0  0  0  0
 35 33  1  0  0  0  0
 35 29  2  0  0  0  0
 36 37  1  0  0  0  0
M  END
>  <MODEL>
4

>  <REMARK>
 VINA RESULT:      -6.2      1.794      2.708
  Name = 
  2 active torsions:
  status: ('A' for Active; 'I' for Inactive)
    1  A    between atoms: C_4  and  C_37
    2  A    between atoms: N_23  and  C_30
                            x       y       z     vdW  Elec       q    Type
                         _______ _______ _______ _____ _____    ______ ____

>  <TORSDO>
F 2

$$$$
=
 OpenBabel11122411313D

 37 43  0  0  1  0  0  0  0  0999 V2000
  181.8480  179.4900  140.2890 C   0  0  0  0  0  2  0  0  0  0  0  0
  184.6820  178.7120  143.9150 C   0  0  0  0  0  0  0  0  0  0  0  0
  186.1560  178.1240  140.0690 C   0  0  0  0  0  0  0  0  0  0  0  0
  180.3130  179.5030  140.2820 C   0  0  2  0  0  3  0  0  0  0  0  0
  183.5870  177.8610  137.0990 C   0  0  0  0  0  2  0  0  0  0  0  0
  186.6750  178.2620  142.4170 C   0  0  0  0  0  0  0  0  0  0  0  0
  184.9660  178.0510  139.3250 C   0  0  0  0  0  0  0  0  0  0  0  0
  180.1850  179.5750  137.6450 C   0  0  2  0  0  3  0  0  0  0  0  0
  185.7790  178.1100  141.3800 C   0  0  0  0  0  0  0  0  0  0  0  0
  184.8640  178.2970  137.8280 C   0  0  1  0  0  3  0  0  0  0  0  0
  187.9980  178.3830  142.1160 N   0  0  0  0  0  0  0  0  0  0  0  0
  179.6470  179.0140  138.9770 C   0  0  0  0  0  2  0  0  0  0  0  0
  184.4590  178.0590  141.5330 N   0  0  0  0  0  0  0  0  0  0  0  0
  184.6090  180.2220  143.7710 C   0  0  0  0  0  1  0  0  0  0  0  0
  188.1170  178.1750  138.3580 C   0  0  0  0  0  2  0  0  0  0  0  0
  188.4320  178.3860  140.8160 C   0  0  0  0  0  3  0  0  0  0  0  0
  183.7920  178.0510  142.8360 C   0  0  0  0  0  2  0  0  0  0  0  0
  181.1790  178.6390  136.9480 C   0  0  0  0  0  2  0  0  0  0  0  0
  182.3850  178.3830  137.8310 C   0  0  1  0  0  3  0  0  0  0  0  0
  187.5250  178.2750  139.7390 C   0  0  0  0  0  0  0  0  0  0  0  0
  183.9260  178.0280  140.2930 C   0  0  0  0  0  0  0  0  0  0  0  0
  186.1590  178.2530  143.8290 C   0  0  0  0  0  2  0  0  0  0  0  0
  186.0530  177.8090  137.1410 N   0  0  0  0  0  0  0  0  0  0  0  0
  184.1410  178.3390  145.2790 C   0  0  0  0  0  1  0  0  0  0  0  0
  182.0510  177.4890  138.8550 O   0  0  0  0  0  0  0  0  0  0  0  0
  180.7100  180.8620  137.7790 O   0  0  0  0  0  1  0  0  0  0  0  0
  182.4350  178.0820  140.0690 C   0  0  2  0  0  3  0  0  0  0  0  0
  187.2170  178.6750  137.2410 C   0  0  0  0  0  2  0  0  0  0  0  0
  186.9630  176.1290  135.5740 C   0  0  0  0  0  3  0  0  0  0  0  0
  186.1960  176.4390  136.7070 C   0  0  0  0  0  0  0  0  0  0  0  0
  185.6010  175.4300  137.4050 N   0  0  0  0  0  0  0  0  0  0  0  0
  184.9310  172.8780  137.9680 Cl  0  0  0  0  0  0  0  0  0  0  0  0
  186.4740  173.7880  135.9090 C   0  0  0  0  0  3  0  0  0  0  0  0
  185.7210  174.1280  137.0340 C   0  0  0  0  0  0  0  0  0  0  0  0
  187.0980  174.7980  135.1760 C   0  0  0  0  0  3  0  0  0  0  0  0
  179.2830  180.8780  142.0930 C   0  0  0  0  0  1  0  0  0  0  0  0
  179.7860  180.8780  140.6620 C   0  0  0  0  0  2  0  0  0  0  0  0
  2 24  1  0  0  0  0
  3  9  1  0  0  0  0
  4  1  1  0  0  0  0
  4 37  1  6  0  0  0
  5 19  1  0  0  0  0
  6 22  1  0  0  0  0
  7  3  1  0  0  0  0
  7 21  2  0  0  0  0
  8 26  1  1  0  0  0
  8 12  1  0  0  0  0
  9 13  1  0  0  0  0
  9  6  2  0  0  0  0
 10  5  1  6  0  0  0
 10  7  1  0  0  0  0
 11  6  1  0  0  0  0
 12  4  1  0  0  0  0
 13 17  1  0  0  0  0
 14  2  1  0  0  0  0
 15 20  1  0  0  0  0
 16 11  2  0  0  0  0
 17  2  1  0  0  0  0
 18  8  1  0  0  0  0
 19 18  1  6  0  0  0
 19 25  1  0  0  0  0
 20  3  2  0  0  0  0
 20 16  1  0  0  0  0
 21 13  1  0  0  0  0
 22  2  1  0  0  0  0
 23 28  1  0  0  0  0
 23 10  1  0  0  0  0
 25 27  1  0  0  0  0
 27  1  1  6  0  0  0
 27 21  1  0  0  0  0
 28 15  1  0  0  0  0
 29 30  1  0  0  0  0
 30 23  1  0  0  0  0
 30 31  2  0  0  0  0
 33 34  2  0  0  0  0
 34 31  1  0  0  0  0
 34 32  1  0  0  0  0
 35 29  2  0  0  0  0
 35 33  1  0  0  0  0
 37 36  1  0  0  0  0
M  END
>  <MODEL>
5

>  <REMARK>
 VINA RESULT:      -6.0      2.887      6.487
  Name = 
  2 active torsions:
  status: ('A' for Active; 'I' for Inactive)
    1  A    between atoms: C_4  and  C_37
    2  A    between atoms: N_23  and  C_30
                            x       y       z     vdW  Elec       q    Type
                         _______ _______ _______ _____ _____    ______ ____

>  <TORSDO>
F 2

$$$$
=
 OpenBabel11122411313D

 37 43  0  0  1  0  0  0  0  0999 V2000
  186.8420  178.4520  144.4730 C   0  0  0  0  0  2  0  0  0  0  0  0
  191.1550  176.6710  144.3710 C   0  0  0  0  0  0  0  0  0  0  0  0
  189.3110  177.6380  140.7690 C   0  0  0  0  0  0  0  0  0  0  0  0
  185.8020  178.3330  145.5960 C   0  0  2  0  0  3  0  0  0  0  0  0
  185.4210  178.2390  140.7590 C   0  0  0  0  0  2  0  0  0  0  0  0
  191.3490  176.9660  141.8620 C   0  0  0  0  0  0  0  0  0  0  0  0
  187.9650  177.7340  141.1640 C   0  0  0  0  0  0  0  0  0  0  0  0
  183.8680  179.3380  144.1040 C   0  0  2  0  0  3  0  0  0  0  0  0
  189.9790  177.1200  141.8400 C   0  0  0  0  0  0  0  0  0  0  0  0
  186.8910  178.4930  140.4010 C   0  0  1  0  0  3  0  0  0  0  0  0
  192.0550  177.3020  140.7470 N   0  0  0  0  0  0  0  0  0  0  0  0
  184.3280  178.2910  145.1390 C   0  0  0  0  0  2  0  0  0  0  0  0
  189.1840  176.9020  142.8840 N   0  0  0  0  0  0  0  0  0  0  0  0
  191.3220  178.1190  144.7960 C   0  0  0  0  0  1  0  0  0  0  0  0
  189.4380  178.4720  138.3070 C   0  0  0  0  0  2  0  0  0  0  0  0
  191.4320  177.8100  139.6380 C   0  0  0  0  0  3  0  0  0  0  0  0
  189.6530  176.3680  144.1630 C   0  0  0  0  0  2  0  0  0  0  0  0
  183.8510  178.8060  142.6660 C   0  0  0  0  0  2  0  0  0  0  0  0
  185.2360  178.3560  142.2440 C   0  0  1  0  0  3  0  0  0  0  0  0
  190.0340  178.0170  139.6120 C   0  0  0  0  0  0  0  0  0  0  0  0
  187.9420  177.2740  142.5090 C   0  0  0  0  0  0  0  0  0  0  0  0
  191.9960  176.4040  143.0970 C   0  0  0  0  0  2  0  0  0  0  0  0
  187.1070  178.3900  138.9640 N   0  0  0  0  0  0  0  0  0  0  0  0
  191.6740  175.7870  145.4840 C   0  0  0  0  0  1  0  0  0  0  0  0
  185.5450  177.1280  142.8400 O   0  0  0  0  0  0  0  0  0  0  0  0
  184.5890  180.5320  144.1940 O   0  0  0  0  0  1  0  0  0  0  0  0
  186.7870  177.2750  143.4800 C   0  0  2  0  0  3  0  0  0  0  0  0
  188.1460  179.2600  138.4370 C   0  0  0  0  0  2  0  0  0  0  0  0
  187.4320  176.1870  137.8950 C   0  0  0  0  0  3  0  0  0  0  0  0
  186.6090  177.2870  138.1770 C   0  0  0  0  0  0  0  0  0  0  0  0
  185.3270  177.2940  137.7140 N   0  0  0  0  0  0  0  0  0  0  0  0
  183.1660  176.3390  136.4110 Cl  0  0  0  0  0  0  0  0  0  0  0  0
  185.6140  175.1630  136.6790 C   0  0  0  0  0  3  0  0  0  0  0  0
  184.8190  176.2690  136.9790 C   0  0  0  0  0  0  0  0  0  0  0  0
  186.9300  175.1240  137.1420 C   0  0  0  0  0  3  0  0  0  0  0  0
  186.9390  178.9550  147.7300 C   0  0  0  0  0  1  0  0  0  0  0  0
  186.0040  179.4270  146.6320 C   0  0  0  0  0  2  0  0  0  0  0  0
  1  4  1  0  0  0  0
  2 14  1  0  0  0  0
  2 24  1  0  0  0  0
  3  7  1  0  0  0  0
  3  9  1  0  0  0  0
  4 37  1  1  0  0  0
  6 22  1  0  0  0  0
  7 21  2  0  0  0  0
  8 26  1  6  0  0  0
  8 12  1  0  0  0  0
  9  6  2  0  0  0  0
  9 13  1  0  0  0  0
 10  5  1  6  0  0  0
 10  7  1  0  0  0  0
 11  6  1  0  0  0  0
 12  4  1  0  0  0  0
 13 17  1  0  0  0  0
 15 28  1  0  0  0  0
 15 20  1  0  0  0  0
 16 11  2  0  0  0  0
 17  2  1  0  0  0  0
 18  8  1  0  0  0  0
 19  5  1  6  0  0  0
 19 18  1  0  0  0  0
 19 25  1  0  0  0  0
 20 16  1  0  0  0  0
 20  3  2  0  0  0  0
 21 13  1  0  0  0  0
 21 27  1  0  0  0  0
 22  2  1  0  0  0  0
 23 10  1  0  0  0  0
 25 27  1  0  0  0  0
 27  1  1  6  0  0  0
 28 23  1  0  0  0  0
 29 30  1  0  0  0  0
 30 23  1  0  0  0  0
 31 30  2  0  0  0  0
 32 34  1  0  0  0  0
 33 34  2  0  0  0  0
 33 35  1  0  0  0  0
 34 31  1  0  0  0  0
 35 29  2  0  0  0  0
 37 36  1  0  0  0  0
M  END
>  <MODEL>
6

>  <REMARK>
 VINA RESULT:      -6.0      3.353      6.749
  Name = 
  2 active torsions:
  status: ('A' for Active; 'I' for Inactive)
    1  A    between atoms: C_4  and  C_37
    2  A    between atoms: N_23  and  C_30
                            x       y       z     vdW  Elec       q    Type
                         _______ _______ _______ _____ _____    ______ ____

>  <TORSDO>
F 2

$$$$
=
 OpenBabel11122411313D

 37 43  0  0  1  0  0  0  0  0999 V2000
  188.4400  177.0650  140.2100 C   0  0  0  0  0  2  0  0  0  0  0  0
  185.6190  176.4340  136.5460 C   0  0  0  0  0  0  0  0  0  0  0  0
  189.4710  174.8680  136.3910 C   0  0  0  0  0  0  0  0  0  0  0  0
  188.3400  178.1430  141.2980 C   0  0  2  0  0  3  0  0  0  0  0  0
  192.1220  176.1590  138.9970 C   0  0  0  0  0  2  0  0  0  0  0  0
  187.3010  174.9650  135.3480 C   0  0  0  0  0  0  0  0  0  0  0  0
  190.1020  175.5830  137.4230 C   0  0  0  0  0  0  0  0  0  0  0  0
  190.7160  177.5600  142.2930 C   0  0  2  0  0  3  0  0  0  0  0  0
  188.2510  175.4550  136.2190 C   0  0  0  0  0  0  0  0  0  0  0  0
  191.3680  175.1370  138.1380 C   0  0  1  0  0  3  0  0  0  0  0  0
  187.6170  173.8760  134.5940 N   0  0  0  0  0  0  0  0  0  0  0  0
  189.6840  178.6300  141.8820 C   0  0  0  0  0  2  0  0  0  0  0  0
  188.0440  176.4610  137.0650 N   0  0  0  0  0  0  0  0  0  0  0  0
  185.1460  175.4480  137.5990 C   0  0  0  0  0  1  0  0  0  0  0  0
  191.1460  173.0390  135.6030 C   0  0  0  0  0  2  0  0  0  0  0  0
  188.8340  173.2580  134.7140 C   0  0  0  0  0  3  0  0  0  0  0  0
  186.8100  177.2470  137.1040 C   0  0  0  0  0  2  0  0  0  0  0  0
  191.7920  177.3120  141.2290 C   0  0  0  0  0  2  0  0  0  0  0  0
  191.1650  176.8370  139.9330 C   0  0  1  0  0  3  0  0  0  0  0  0
  189.8040  173.7190  135.6330 C   0  0  0  0  0  0  0  0  0  0  0  0
  189.1550  176.5650  137.8240 C   0  0  0  0  0  0  0  0  0  0  0  0
  185.9780  175.6720  135.2460 C   0  0  0  0  0  2  0  0  0  0  0  0
  192.2690  174.4560  137.2170 N   0  0  0  0  0  0  0  0  0  0  0  0
  184.4830  177.3880  136.2450 C   0  0  0  0  0  1  0  0  0  0  0  0
  190.5620  177.9110  139.2680 O   0  0  0  0  0  0  0  0  0  0  0  0
  190.1160  176.3640  142.6950 O   0  0  0  0  0  1  0  0  0  0  0  0
  189.2400  177.5320  138.9780 C   0  0  2  0  0  3  0  0  0  0  0  0
  191.9110  173.0800  136.9150 C   0  0  0  0  0  2  0  0  0  0  0  0
  192.7770  176.0210  135.3750 C   0  0  0  0  0  3  0  0  0  0  0  0
  193.2190  175.1620  136.3910 C   0  0  0  0  0  0  0  0  0  0  0  0
  194.5580  175.0130  136.6020 N   0  0  0  0  0  0  0  0  0  0  0  0
  197.1880  175.4340  136.1680 Cl  0  0  0  0  0  0  0  0  0  0  0  0
  195.0750  176.5280  134.8300 C   0  0  0  0  0  3  0  0  0  0  0  0
  195.4840  175.6690  135.8520 C   0  0  0  0  0  0  0  0  0  0  0  0
  193.7110  176.7030  134.5940 C   0  0  0  0  0  3  0  0  0  0  0  0
  186.0400  178.3210  142.2520 C   0  0  0  0  0  1  0  0  0  0  0  0
  187.4110  177.6920  142.4150 C   0  0  0  0  0  2  0  0  0  0  0  0
  1  4  1  0  0  0  0
  2 17  1  0  0  0  0
  2 14  1  0  0  0  0
  3  7  1  0  0  0  0
  4 12  1  0  0  0  0
  4 37  1  1  0  0  0
  6  9  2  0  0  0  0
  7 21  2  0  0  0  0
  7 10  1  0  0  0  0
  8 26  1  6  0  0  0
  9  3  1  0  0  0  0
  9 13  1  0  0  0  0
 10  5  1  6  0  0  0
 11 16  2  0  0  0  0
 11  6  1  0  0  0  0
 12  8  1  0  0  0  0
 13 17  1  0  0  0  0
 13 21  1  0  0  0  0
 15 20  1  0  0  0  0
 15 28  1  0  0  0  0
 16 20  1  0  0  0  0
 18  8  1  0  0  0  0
 19  5  1  6  0  0  0
 19 18  1  0  0  0  0
 20  3  2  0  0  0  0
 21 27  1  0  0  0  0
 22  6  1  0  0  0  0
 22  2  1  0  0  0  0
 23 10  1  0  0  0  0
 24  2  1  0  0  0  0
 25 19  1  0  0  0  0
 27 25  1  0  0  0  0
 27  1  1  1  0  0  0
 28 23  1  0  0  0  0
 29 30  1  0  0  0  0
 30 31  2  0  0  0  0
 30 23  1  0  0  0  0
 33 34  2  0  0  0  0
 34 32  1  0  0  0  0
 34 31  1  0  0  0  0
 35 33  1  0  0  0  0
 35 29  2  0  0  0  0
 36 37  1  0  0  0  0
M  END
>  <MODEL>
7

>  <REMARK>
 VINA RESULT:      -5.4      4.684      9.334
  Name = 
  2 active torsions:
  status: ('A' for Active; 'I' for Inactive)
    1  A    between atoms: C_4  and  C_37
    2  A    between atoms: N_23  and  C_30
                            x       y       z     vdW  Elec       q    Type
                         _______ _______ _______ _____ _____    ______ ____

>  <TORSDO>
F 2

$$$$
=
 OpenBabel11122411313D

 37 43  0  0  1  0  0  0  0  0999 V2000
  187.8230  177.5420  141.2720 C   0  0  0  0  0  2  0  0  0  0  0  0
  184.3340  178.1500  138.2330 C   0  0  0  0  0  0  0  0  0  0  0  0
  187.5850  175.8160  137.0960 C   0  0  0  0  0  0  0  0  0  0  0  0
  188.1880  178.4260  142.4730 C   0  0  2  0  0  3  0  0  0  0  0  0
  190.8920  176.0510  139.2180 C   0  0  0  0  0  2  0  0  0  0  0  0
  185.3600  176.5570  136.5500 C   0  0  0  0  0  0  0  0  0  0  0  0
  188.5460  176.1980  138.0480 C   0  0  0  0  0  0  0  0  0  0  0  0
  190.4820  177.1790  142.8740 C   0  0  2  0  0  3  0  0  0  0  0  0
  186.5400  176.6790  137.2530 C   0  0  0  0  0  0  0  0  0  0  0  0
  189.7670  175.3740  138.4260 C   0  0  1  0  0  3  0  0  0  0  0  0
  185.2560  175.5620  135.6270 N   0  0  0  0  0  0  0  0  0  0  0  0
  189.6920  178.5030  142.8140 C   0  0  0  0  0  2  0  0  0  0  0  0
  186.7410  177.5560  138.2320 N   0  0  0  0  0  0  0  0  0  0  0  0
  183.8240  177.1360  139.2420 C   0  0  0  0  0  1  0  0  0  0  0  0
  188.5870  173.8130  135.7700 C   0  0  0  0  0  2  0  0  0  0  0  0
  186.2830  174.6790  135.4170 C   0  0  0  0  0  3  0  0  0  0  0  0
  185.7680  178.5780  138.6180 C   0  0  0  0  0  2  0  0  0  0  0  0
  191.2570  176.8740  141.5870 C   0  0  0  0  0  2  0  0  0  0  0  0
  190.3140  176.7650  140.4050 C   0  0  1  0  0  3  0  0  0  0  0  0
  187.4830  174.7590  136.1590 C   0  0  0  0  0  0  0  0  0  0  0  0
  187.9600  177.2870  138.7480 C   0  0  0  0  0  0  0  0  0  0  0  0
  184.2570  177.5460  136.8080 C   0  0  0  0  0  2  0  0  0  0  0  0
  190.2940  174.6670  137.2650 N   0  0  0  0  0  0  0  0  0  0  0  0
  183.4360  179.3670  138.2890 C   0  0  0  0  0  1  0  0  0  0  0  0
  189.8890  178.0380  140.0090 O   0  0  0  0  0  0  0  0  0  0  0  0
  189.6840  176.0960  143.2530 O   0  0  0  0  0  1  0  0  0  0  0  0
  188.4840  178.0130  139.9620 C   0  0  2  0  0  3  0  0  0  0  0  0
  189.5570  173.4710  136.8890 C   0  0  0  0  0  2  0  0  0  0  0  0
  190.8130  176.2860  135.4720 C   0  0  0  0  0  3  0  0  0  0  0  0
  191.2290  175.2690  136.3440 C   0  0  0  0  0  0  0  0  0  0  0  0
  192.5310  174.8660  136.3240 N   0  0  0  0  0  0  0  0  0  0  0  0
  195.1000  174.8530  135.4990 Cl  0  0  0  0  0  0  0  0  0  0  0  0
  193.0600  176.4270  134.5970 C   0  0  0  0  0  3  0  0  0  0  0  0
  193.4440  175.4150  135.4790 C   0  0  0  0  0  0  0  0  0  0  0  0
  191.7350  176.8630  134.5970 C   0  0  0  0  0  3  0  0  0  0  0  0
  185.9220  177.8530  143.3490 C   0  0  0  0  0  1  0  0  0  0  0  0
  187.3880  178.0180  143.7010 C   0  0  0  0  0  2  0  0  0  0  0  0
  1  4  1  0  0  0  0
  2 24  1  0  0  0  0
  2 17  1  0  0  0  0
  2 14  1  0  0  0  0
  3  9  1  0  0  0  0
  3  7  1  0  0  0  0
  4 12  1  0  0  0  0
  4 37  1  1  0  0  0
  6 22  1  0  0  0  0
  6  9  2  0  0  0  0
  7 10  1  0  0  0  0
  7 21  2  0  0  0  0
  8 26  1  6  0  0  0
  9 13  1  0  0  0  0
 10  5  1  6  0  0  0
 11  6  1  0  0  0  0
 12  8  1  0  0  0  0
 13 17  1  0  0  0  0
 13 21  1  0  0  0  0
 15 20  1  0  0  0  0
 15 28  1  0  0  0  0
 16 11  2  0  0  0  0
 16 20  1  0  0  0  0
 18  8  1  0  0  0  0
 19  5  1  6  0  0  0
 19 18  1  0  0  0  0
 20  3  2  0  0  0  0
 21 27  1  0  0  0  0
 22  2  1  0  0  0  0
 23 10  1  0  0  0  0
 25 19  1  0  0  0  0
 27 25  1  0  0  0  0
 27  1  1  1  0  0  0
 28 23  1  0  0  0  0
 29 30  1  0  0  0  0
 30 23  1  0  0  0  0
 31 30  2  0  0  0  0
 33 34  2  0  0  0  0
 34 32  1  0  0  0  0
 34 31  1  0  0  0  0
 35 33  1  0  0  0  0
 35 29  2  0  0  0  0
 36 37  1  0  0  0  0
M  END
>  <MODEL>
8

>  <REMARK>
 VINA RESULT:      -5.3      3.997      8.174
  Name = 
  2 active torsions:
  status: ('A' for Active; 'I' for Inactive)
    1  A    between atoms: C_4  and  C_37
    2  A    between atoms: N_23  and  C_30
                            x       y       z     vdW  Elec       q    Type
                         _______ _______ _______ _____ _____    ______ ____

>  <TORSDO>
F 2

$$$$
=
 OpenBabel11122411313D

 37 43  0  0  1  0  0  0  0  0999 V2000
  187.5090  175.3820  136.0500 C   0  0  0  0  0  2  0  0  0  0  0  0
  184.4890  171.8230  136.0590 C   0  0  0  0  0  0  0  0  0  0  0  0
  183.2070  175.5310  137.4430 C   0  0  0  0  0  0  0  0  0  0  0  0
  189.0430  175.3130  136.0350 C   0  0  2  0  0  3  0  0  0  0  0  0
  185.9200  178.2460  138.3140 C   0  0  0  0  0  2  0  0  0  0  0  0
  182.5700  173.2940  136.8180 C   0  0  0  0  0  0  0  0  0  0  0  0
  184.4320  176.1820  137.6670 C   0  0  0  0  0  0  0  0  0  0  0  0
  189.3040  177.8970  136.5160 C   0  0  2  0  0  3  0  0  0  0  0  0
  183.5170  174.2290  137.1810 C   0  0  0  0  0  0  0  0  0  0  0  0
  184.6120  177.6900  137.7390 C   0  0  1  0  0  3  0  0  0  0  0  0
  181.2660  173.6810  136.7660 N   0  0  0  0  0  0  0  0  0  0  0  0
  189.7690  176.4510  136.7840 C   0  0  0  0  0  2  0  0  0  0  0  0
  184.8270  174.0010  137.1960 N   0  0  0  0  0  0  0  0  0  0  0  0
  184.5810  172.2760  134.6130 C   0  0  0  0  0  1  0  0  0  0  0  0
  181.3350  177.3130  137.7560 C   0  0  0  0  0  2  0  0  0  0  0  0
  180.8980  174.9730  137.0360 C   0  0  0  0  0  3  0  0  0  0  0  0
  185.4270  172.6930  136.9290 C   0  0  0  0  0  2  0  0  0  0  0  0
  188.3390  178.4320  137.5790 C   0  0  0  0  0  2  0  0  0  0  0  0
  187.0880  177.5780  137.6480 C   0  0  1  0  0  3  0  0  0  0  0  0
  181.8580  175.9560  137.3670 C   0  0  0  0  0  0  0  0  0  0  0  0
  185.4210  175.1790  137.4830 C   0  0  0  0  0  0  0  0  0  0  0  0
  183.0150  171.8870  136.5300 C   0  0  0  0  0  2  0  0  0  0  0  0
  183.4540  178.3200  138.3630 N   0  0  0  0  0  0  0  0  0  0  0  0
  184.9570  170.3860  136.1370 C   0  0  0  0  0  1  0  0  0  0  0  0
  187.3620  176.3750  138.3070 O   0  0  0  0  0  0  0  0  0  0  0  0
  188.7830  178.0620  135.2300 O   0  0  0  0  0  1  0  0  0  0  0  0
  186.9220  175.3320  137.4740 C   0  0  2  0  0  3  0  0  0  0  0  0
  182.2950  178.4630  137.4980 C   0  0  0  0  0  2  0  0  0  0  0  0
  182.0750  178.7550  140.3660 C   0  0  0  0  0  3  0  0  0  0  0  0
  183.3220  178.4640  139.7930 C   0  0  0  0  0  0  0  0  0  0  0  0
  184.4060  178.3030  140.6050 N   0  0  0  0  0  0  0  0  0  0  0  0
  185.7470  178.2060  142.9440 Cl  0  0  0  0  0  0  0  0  0  0  0  0
  183.0930  178.7140  142.5560 C   0  0  0  0  0  3  0  0  0  0  0  0
  184.3190  178.4220  141.9570 C   0  0  0  0  0  0  0  0  0  0  0  0
  181.9650  178.8800  141.7520 C   0  0  0  0  0  3  0  0  0  0  0  0
  191.0750  175.1120  134.6000 C   0  0  0  0  0  1  0  0  0  0  0  0
  189.5610  175.2030  134.6100 C   0  0  0  0  0  2  0  0  0  0  0  0
  2 24  1  0  0  0  0
  2 22  1  0  0  0  0
  2 17  1  0  0  0  0
  3  7  1  0  0  0  0
  4 37  1  6  0  0  0
  4  1  1  0  0  0  0
  4 12  1  0  0  0  0
  6  9  1  0  0  0  0
  7 10  1  0  0  0  0
  8 26  1  6  0  0  0
  8 12  1  0  0  0  0
  8 18  1  0  0  0  0
  9 13  1  0  0  0  0
  9  3  2  0  0  0  0
 10  5  1  1  0  0  0
 10 23  1  0  0  0  0
 11  6  2  0  0  0  0
 11 16  1  0  0  0  0
 13 21  1  0  0  0  0
 14  2  1  0  0  0  0
 16 20  2  0  0  0  0
 17 13  1  0  0  0  0
 19 18  1  1  0  0  0
 19 25  1  0  0  0  0
 19  5  1  0  0  0  0
 20  3  1  0  0  0  0
 20 15  1  0  0  0  0
 21  7  2  0  0  0  0
 22  6  1  0  0  0  0
 23 30  1  0  0  0  0
 27  1  1  6  0  0  0
 27 21  1  0  0  0  0
 27 25  1  0  0  0  0
 28 15  1  0  0  0  0
 28 23  1  0  0  0  0
 29 35  1  0  0  0  0
 30 29  2  0  0  0  0
 30 31  1  0  0  0  0
 31 34  2  0  0  0  0
 34 33  1  0  0  0  0
 34 32  1  0  0  0  0
 35 33  2  0  0  0  0
 36 37  1  0  0  0  0
M  END
>  <MODEL>
9

>  <REMARK>
 VINA RESULT:      -5.0      3.483      5.738
  Name = 
  2 active torsions:
  status: ('A' for Active; 'I' for Inactive)
    1  A    between atoms: C_4  and  C_37
    2  A    between atoms: N_23  and  C_30
                            x       y       z     vdW  Elec       q    Type
                         _______ _______ _______ _____ _____    ______ ____

>  <TORSDO>
F 2

$$$$
