=
 OpenBabel11122411363D

 37 43  0  0  1  0  0  0  0  0999 V2000
  190.9270  178.5650  143.9200 C   0  0  0  0  0  0  0  0  0  0  0  0
  187.0350  178.0660  142.9440 C   0  0  2  0  0  3  0  0  0  0  0  0
  185.9440  178.6910  139.2430 O   0  0  0  0  0  0  0  0  0  0  0  0
  188.6560  177.6940  144.6940 C   0  0  0  0  0  0  0  0  0  0  0  0
  187.0380  177.9330  141.4470 C   0  0  1  0  0  3  0  0  0  0  0  0
  188.3170  177.3730  143.2700 C   0  0  2  0  0  3  0  0  0  0  0  0
  185.9630  178.7980  140.6800 C   0  0  2  0  0  3  0  0  0  0  0  0
  187.6660  177.5420  145.5920 C   0  0  0  0  0  3  0  0  0  0  0  0
  189.2700  177.7940  142.1620 C   0  0  2  0  0  3  0  0  0  0  0  0
  191.7750  177.3160  143.7380 C   0  0  0  0  0  1  0  0  0  0  0  0
  184.6100  178.2170  143.7640 C   0  0  0  0  0  2  0  0  0  0  0  0
  186.3080  176.9960  145.1600 C   0  0  0  0  0  2  0  0  0  0  0  0
  190.1990  178.9210  142.6170 C   0  0  0  0  0  2  0  0  0  0  0  0
  187.3670  177.5840  137.4920 C   0  0  1  0  0  3  0  0  0  0  0  0
  186.7150  177.5940  138.8480 C   0  0  1  0  0  3  0  0  0  0  0  0
  185.8920  177.3780  143.7080 C   0  0  2  0  0  3  0  0  0  0  0  0
  188.4290  178.2460  141.0490 N   0  0  1  0  0  0  0  0  0  0  0  0
  189.9470  178.3620  145.0850 C   0  0  0  0  0  2  0  0  0  0  0  0
  184.5480  178.5830  141.2530 C   0  0  1  0  0  3  0  0  0  0  0  0
  191.8500  179.7100  144.2770 C   0  0  0  0  0  1  0  0  0  0  0  0
  188.1040  178.1900  138.6850 C   0  0  1  0  0  3  0  0  0  0  0  0
  188.7850  177.4890  139.8430 C   0  0  0  0  0  2  0  0  0  0  0  0
  184.4330  179.2270  142.6300 C   0  0  0  0  0  2  0  0  0  0  0  0
  183.8390  179.9810  139.3800 C   0  0  0  0  0  3  0  0  0  0  0  0
  183.4740  179.1370  140.3600 C   0  0  0  0  0  0  0  0  0  0  0  0
  182.0140  178.8950  140.6950 C   0  0  0  0  0  2  0  0  0  0  0  0
  179.6480  179.4010  140.1310 C   0  0  0  0  0  1  0  0  0  0  0  0
  181.4670  180.7140  139.0690 C   0  0  0  0  0  2  0  0  0  0  0  0
  181.0590  179.3430  139.5880 C   0  0  1  0  0  3  0  0  0  0  0  0
  182.8490  180.6060  138.4340 C   0  0  0  0  0  2  0  0  0  0  0  0
  188.5870  173.4540  136.6240 O   0  0  0  0  0  0  0  0  0  0  0  0
  187.4410  173.7200  137.0770 C   0  0  0  0  0  0  0  0  0  0  0  0
  187.8980  176.2250  137.1650 C   0  0  0  0  0  0  0  0  0  0  0  0
  187.0630  175.0750  137.3570 N   0  0  0  0  0  2  0  0  0  0  0  0
  189.0850  176.1000  136.7600 O   0  0  0  0  0  0  0  0  0  0  0  0
  185.2160  172.9140  137.7440 C   0  0  0  0  0  1  0  0  0  0  0  0
  186.5440  172.6780  137.3010 O   0  0  0  0  0  0  0  0  0  0  0  0
  1 20  1  0  0  0  0
  1 18  1  0  0  0  0
  2  6  1  0  0  0  0
  2 16  1  0  0  0  0
  3  7  1  0  0  0  0
  4 18  1  0  0  0  0
  4  8  2  0  0  0  0
  5  2  1  0  0  0  0
  6  4  1  0  0  0  0
  7 19  1  0  0  0  0
  7  5  1  0  0  0  0
  9 13  1  0  0  0  0
  9  6  1  0  0  0  0
 10  1  1  0  0  0  0
 12  8  1  0  0  0  0
 13  1  1  0  0  0  0
 14 21  1  0  0  0  0
 14 15  1  0  0  0  0
 15  3  1  0  0  0  0
 16 11  1  0  0  0  0
 16 12  1  0  0  0  0
 17  5  1  0  0  0  0
 17  9  1  0  0  0  0
 19 23  1  0  0  0  0
 21 15  1  0  0  0  0
 21 22  1  0  0  0  0
 22 17  1  0  0  0  0
 23 11  1  0  0  0  0
 24 25  2  0  0  0  0
 25 26  1  0  0  0  0
 25 19  1  0  0  0  0
 28 29  1  0  0  0  0
 29 27  1  0  0  0  0
 29 26  1  0  0  0  0
 30 28  1  0  0  0  0
 30 24  1  0  0  0  0
 31 32  2  0  0  0  0
 32 37  1  0  0  0  0
 32 34  1  0  0  0  0
 33 34  1  0  0  0  0
 33 14  1  0  0  0  0
 35 33  2  0  0  0  0
 37 36  1  0  0  0  0
M  END
>  <MODEL>
1

>  <REMARK>
 VINA RESULT:      -8.7      0.000      0.000
  Name = 
  3 active torsions:
  status: ('A' for Active; 'I' for Inactive)
    1  A    between atoms: C_4  and  O_37
    2  A    between atoms: C_8  and  C_18
    3  A    between atoms: C_23  and  C_30
                            x       y       z     vdW  Elec       q    Type
                         _______ _______ _______ _____ _____    ______ ____

>  <TORSDO>
F 3

$$$$
=
 OpenBabel11122411363D

 37 43  0  0  1  0  0  0  0  0999 V2000
  190.9150  178.5690  144.0250 C   0  0  0  0  0  0  0  0  0  0  0  0
  187.0190  178.0950  143.0540 C   0  0  2  0  0  3  0  0  0  0  0  0
  185.9590  178.5440  139.3180 O   0  0  0  0  0  0  0  0  0  0  0  0
  188.6240  177.7850  144.8310 C   0  0  0  0  0  0  0  0  0  0  0  0
  187.0270  177.8830  141.5660 C   0  0  1  0  0  3  0  0  0  0  0  0
  188.2860  177.3960  143.4240 C   0  0  2  0  0  3  0  0  0  0  0  0
  185.9740  178.7270  140.7470 C   0  0  2  0  0  3  0  0  0  0  0  0
  187.6260  177.7010  145.7290 C   0  0  0  0  0  3  0  0  0  0  0  0
  189.2520  177.7380  142.3010 C   0  0  2  0  0  3  0  0  0  0  0  0
  191.7390  177.2950  143.9150 C   0  0  0  0  0  1  0  0  0  0  0  0
  184.5940  178.3370  143.8500 C   0  0  0  0  0  2  0  0  0  0  0  0
  186.2600  177.1600  145.3200 C   0  0  0  0  0  2  0  0  0  0  0  0
  190.2010  178.8700  142.7010 C   0  0  0  0  0  2  0  0  0  0  0  0
  187.3680  177.3180  137.6370 C   0  0  1  0  0  3  0  0  0  0  0  0
  186.7100  177.4120  138.9870 C   0  0  1  0  0  3  0  0  0  0  0  0
  185.8590  177.4720  143.8470 C   0  0  2  0  0  3  0  0  0  0  0  0
  188.4260  178.1470  141.1600 N   0  0  1  0  0  0  0  0  0  0  0  0
  189.9260  178.4470  145.1940 C   0  0  0  0  0  2  0  0  0  0  0  0
  184.5510  178.5710  141.3230 C   0  0  1  0  0  3  0  0  0  0  0  0
  191.8600  179.7130  144.3270 C   0  0  0  0  0  1  0  0  0  0  0  0
  188.1110  177.9720  138.8010 C   0  0  1  0  0  3  0  0  0  0  0  0
  188.7720  177.3200  139.9990 C   0  0  0  0  0  2  0  0  0  0  0  0
  184.4430  179.2900  142.6630 C   0  0  0  0  0  2  0  0  0  0  0  0
  183.8620  179.9770  139.4490 C   0  0  0  0  0  3  0  0  0  0  0  0
  183.4930  179.0980  140.3950 C   0  0  0  0  0  0  0  0  0  0  0  0
  182.0320  178.7870  140.6620 C   0  0  0  0  0  2  0  0  0  0  0  0
  179.6720  179.2030  140.0060 C   0  0  0  0  0  1  0  0  0  0  0  0
  181.4760  180.6150  139.0500 C   0  0  0  0  0  2  0  0  0  0  0  0
  181.1070  179.2170  139.5230 C   0  0  1  0  0  3  0  0  0  0  0  0
  182.8870  180.5790  138.4730 C   0  0  0  0  0  2  0  0  0  0  0  0
  189.1990  173.4010  136.8630 O   0  0  0  0  0  0  0  0  0  0  0  0
  189.8780  174.4610  136.8330 C   0  0  0  0  0  0  0  0  0  0  0  0
  187.8740  175.9330  137.3860 C   0  0  0  0  0  0  0  0  0  0  0  0
  189.2610  175.7310  137.0860 N   0  0  0  0  0  2  0  0  0  0  0  0
  187.0690  174.9630  137.4040 O   0  0  0  0  0  0  0  0  0  0  0  0
  192.2250  174.6470  137.5410 C   0  0  0  0  0  1  0  0  0  0  0  0
  191.2410  174.3830  136.5530 O   0  0  0  0  0  0  0  0  0  0  0  0
  1 20  1  0  0  0  0
  1 18  1  0  0  0  0
  2  6  1  0  0  0  0
  2 16  1  0  0  0  0
  3  7  1  0  0  0  0
  4 18  1  0  0  0  0
  4  8  2  0  0  0  0
  5  2  1  0  0  0  0
  6  4  1  0  0  0  0
  7 19  1  0  0  0  0
  7  5  1  0  0  0  0
  9 13  1  0  0  0  0
  9  6  1  0  0  0  0
 10  1  1  0  0  0  0
 12  8  1  0  0  0  0
 13  1  1  0  0  0  0
 14 21  1  0  0  0  0
 14 15  1  0  0  0  0
 15  3  1  0  0  0  0
 16 11  1  0  0  0  0
 16 12  1  0  0  0  0
 17  5  1  0  0  0  0
 17  9  1  0  0  0  0
 19 23  1  0  0  0  0
 21 15  1  0  0  0  0
 21 22  1  0  0  0  0
 22 17  1  0  0  0  0
 23 11  1  0  0  0  0
 24 25  2  0  0  0  0
 25 26  1  0  0  0  0
 25 19  1  0  0  0  0
 28 29  1  0  0  0  0
 29 27  1  0  0  0  0
 29 26  1  0  0  0  0
 30 28  1  0  0  0  0
 30 24  1  0  0  0  0
 32 31  2  0  0  0  0
 32 34  1  0  0  0  0
 33 35  2  0  0  0  0
 33 14  1  0  0  0  0
 34 33  1  0  0  0  0
 37 32  1  0  0  0  0
 37 36  1  0  0  0  0
M  END
>  <MODEL>
2

>  <REMARK>
 VINA RESULT:      -8.5      1.132      1.617
  Name = 
  3 active torsions:
  status: ('A' for Active; 'I' for Inactive)
    1  A    between atoms: C_4  and  O_37
    2  A    between atoms: C_8  and  C_18
    3  A    between atoms: C_23  and  C_30
                            x       y       z     vdW  Elec       q    Type
                         _______ _______ _______ _____ _____    ______ ____

>  <TORSDO>
F 3

$$$$
=
 OpenBabel11122411363D

 37 43  0  0  1  0  0  0  0  0999 V2000
  184.7530  179.0260  144.5960 C   0  0  0  0  0  0  0  0  0  0  0  0
  182.0050  179.0400  141.6300 C   0  0  2  0  0  3  0  0  0  0  0  0
  183.2380  179.4790  137.9470 O   0  0  0  0  0  0  0  0  0  0  0  0
  182.3150  178.5880  143.9820 C   0  0  0  0  0  0  0  0  0  0  0  0
  182.7990  178.7700  140.3830 C   0  0  1  0  0  3  0  0  0  0  0  0
  182.7550  178.1930  142.6050 C   0  0  2  0  0  3  0  0  0  0  0  0
  182.4910  179.7140  139.1560 C   0  0  2  0  0  3  0  0  0  0  0  0
  180.9870  178.6740  144.1820 C   0  0  0  0  0  3  0  0  0  0  0  0
  184.2140  178.3580  142.2100 C   0  0  2  0  0  3  0  0  0  0  0  0
  185.3240  177.6510  144.9040 C   0  0  0  0  0  1  0  0  0  0  0  0
  179.5990  179.6350  140.9760 C   0  0  0  0  0  2  0  0  0  0  0  0
  180.0110  178.3040  143.0690 C   0  0  0  0  0  2  0  0  0  0  0  0
  184.9290  179.3680  143.1110 C   0  0  0  0  0  2  0  0  0  0  0  0
  185.1590  178.0100  137.2640 C   0  0  1  0  0  3  0  0  0  0  0  0
  183.8890  178.2450  138.0350 C   0  0  1  0  0  3  0  0  0  0  0  0
  180.5300  178.6090  141.6310 C   0  0  2  0  0  3  0  0  0  0  0  0
  184.2120  178.8280  140.8210 N   0  0  1  0  0  0  0  0  0  0  0  0
  183.2790  179.0840  145.0250 C   0  0  0  0  0  2  0  0  0  0  0  0
  180.9790  179.7720  138.8510 C   0  0  1  0  0  3  0  0  0  0  0  0
  185.5200  180.0450  145.4120 C   0  0  0  0  0  1  0  0  0  0  0  0
  185.2220  178.6040  138.6700 C   0  0  1  0  0  3  0  0  0  0  0  0
  185.0240  177.9170  140.0070 C   0  0  0  0  0  2  0  0  0  0  0  0
  180.2520  180.5510  139.9400 C   0  0  0  0  0  2  0  0  0  0  0  0
  180.4080  179.5870  136.4830 C   0  0  0  0  0  3  0  0  0  0  0  0
  180.6850  180.3990  137.5170 C   0  0  0  0  0  0  0  0  0  0  0  0
  180.8940  181.8890  137.3210 C   0  0  0  0  0  2  0  0  0  0  0  0
  180.9120  183.7850  135.7150 C   0  0  0  0  0  1  0  0  0  0  0  0
  180.7660  181.4580  134.8620 C   0  0  0  0  0  2  0  0  0  0  0  0
  180.3590  182.4020  135.9840 C   0  0  1  0  0  3  0  0  0  0  0  0
  180.1110  180.1030  135.1010 C   0  0  0  0  0  2  0  0  0  0  0  0
  185.8770  173.6760  137.2830 O   0  0  0  0  0  0  0  0  0  0  0  0
  184.7100  174.1490  137.2970 C   0  0  0  0  0  0  0  0  0  0  0  0
  185.5300  176.5610  137.2750 C   0  0  0  0  0  0  0  0  0  0  0  0
  184.4960  175.5680  137.2940 N   0  0  0  0  0  2  0  0  0  0  0  0
  186.7450  176.2280  137.3050 O   0  0  0  0  0  0  0  0  0  0  0  0
  183.7790  171.8860  137.0550 C   0  0  0  0  0  1  0  0  0  0  0  0
  183.6260  173.2740  137.3140 O   0  0  0  0  0  0  0  0  0  0  0  0
  1 10  1  0  0  0  0
  1 18  1  0  0  0  0
  1 20  1  0  0  0  0
  2 16  1  0  0  0  0
  2  6  1  0  0  0  0
  3 15  1  0  0  0  0
  3  7  1  0  0  0  0
  4  8  2  0  0  0  0
  4 18  1  0  0  0  0
  5 17  1  0  0  0  0
  5  2  1  0  0  0  0
  6  4  1  0  0  0  0
  7  5  1  0  0  0  0
  9  6  1  0  0  0  0
  9 13  1  0  0  0  0
 11 16  1  0  0  0  0
 12  8  1  0  0  0  0
 13  1  1  0  0  0  0
 14 33  1  0  0  0  0
 14 15  1  0  0  0  0
 14 21  1  0  0  0  0
 15 21  1  0  0  0  0
 16 12  1  0  0  0  0
 17  9  1  0  0  0  0
 19  7  1  0  0  0  0
 19 23  1  0  0  0  0
 21 22  1  0  0  0  0
 22 17  1  0  0  0  0
 23 11  1  0  0  0  0
 24 25  2  0  0  0  0
 25 19  1  0  0  0  0
 26 25  1  0  0  0  0
 27 29  1  0  0  0  0
 28 30  1  0  0  0  0
 28 29  1  0  0  0  0
 29 26  1  0  0  0  0
 30 24  1  0  0  0  0
 31 32  2  0  0  0  0
 32 37  1  0  0  0  0
 33 34  1  0  0  0  0
 33 35  2  0  0  0  0
 34 32  1  0  0  0  0
 36 37  1  0  0  0  0
M  END
>  <MODEL>
3

>  <REMARK>
 VINA RESULT:      -7.7      3.043      4.764
  Name = 
  3 active torsions:
  status: ('A' for Active; 'I' for Inactive)
    1  A    between atoms: C_4  and  O_37
    2  A    between atoms: C_8  and  C_18
    3  A    between atoms: C_23  and  C_30
                            x       y       z     vdW  Elec       q    Type
                         _______ _______ _______ _____ _____    ______ ____

>  <TORSDO>
F 3

$$$$
=
 OpenBabel11122411363D

 37 43  0  0  1  0  0  0  0  0999 V2000
  185.0130  176.4550  135.5200 C   0  0  0  0  0  0  0  0  0  0  0  0
  188.5600  174.5800  136.0210 C   0  0  2  0  0  3  0  0  0  0  0  0
  191.3570  176.3940  138.0620 O   0  0  0  0  0  0  0  0  0  0  0  0
  186.2910  174.2610  135.2610 C   0  0  0  0  0  0  0  0  0  0  0  0
  189.2030  175.2980  137.1750 C   0  0  1  0  0  3  0  0  0  0  0  0
  187.1290  174.6340  136.4460 C   0  0  2  0  0  3  0  0  0  0  0  0
  190.7150  175.7040  136.9720 C   0  0  2  0  0  3  0  0  0  0  0  0
  186.6610  173.1530  134.5940 C   0  0  0  0  0  3  0  0  0  0  0  0
  186.9690  176.0100  137.0710 C   0  0  2  0  0  3  0  0  0  0  0  0
  184.0090  176.1850  136.6300 C   0  0  0  0  0  1  0  0  0  0  0  0
  190.2560  172.9490  135.0020 C   0  0  0  0  0  2  0  0  0  0  0  0
  187.8280  172.3040  135.0900 C   0  0  0  0  0  2  0  0  0  0  0  0
  186.3260  176.9990  136.0960 C   0  0  0  0  0  2  0  0  0  0  0  0
  190.6360  177.3650  140.2640 C   0  0  1  0  0  3  0  0  0  0  0  0
  190.5610  176.2970  139.2070 C   0  0  1  0  0  3  0  0  0  0  0  0
  188.9560  173.1110  135.7980 C   0  0  2  0  0  3  0  0  0  0  0  0
  188.3190  176.4560  137.4320 N   0  0  1  0  0  0  0  0  0  0  0  0
  185.2360  175.1750  134.7000 C   0  0  0  0  0  2  0  0  0  0  0  0
  191.5700  174.5020  136.5200 C   0  0  1  0  0  3  0  0  0  0  0  0
  184.4250  177.5050  134.6010 C   0  0  0  0  0  1  0  0  0  0  0  0
  189.6570  177.5140  139.1010 C   0  0  1  0  0  3  0  0  0  0  0  0
  188.3440  176.7960  138.8590 C   0  0  0  0  0  2  0  0  0  0  0  0
  191.2300  174.1250  135.0820 C   0  0  0  0  0  2  0  0  0  0  0  0
  193.6190  175.5200  135.6640 C   0  0  0  0  0  3  0  0  0  0  0  0
  193.0450  174.7730  136.6220 C   0  0  0  0  0  0  0  0  0  0  0  0
  193.8730  174.0540  137.6700 C   0  0  0  0  0  2  0  0  0  0  0  0
  196.1470  173.6100  138.5660 C   0  0  0  0  0  1  0  0  0  0  0  0
  195.8950  174.7800  136.3910 C   0  0  0  0  0  2  0  0  0  0  0  0
  195.3020  174.5880  137.7790 C   0  0  1  0  0  3  0  0  0  0  0  0
  195.0880  175.8450  135.6570 C   0  0  0  0  0  2  0  0  0  0  0  0
  188.3260  176.3860  143.8700 O   0  0  0  0  0  0  0  0  0  0  0  0
  188.0580  177.4010  143.1730 C   0  0  0  0  0  0  0  0  0  0  0  0
  189.9290  176.9320  141.5100 C   0  0  0  0  0  0  0  0  0  0  0  0
  188.8260  177.7050  142.0010 N   0  0  0  0  0  2  0  0  0  0  0  0
  190.3340  175.9150  142.1350 O   0  0  0  0  0  0  0  0  0  0  0  0
  186.1760  177.9160  144.6700 C   0  0  0  0  0  1  0  0  0  0  0  0
  187.0010  178.2240  143.5560 O   0  0  0  0  0  0  0  0  0  0  0  0
  1 13  1  0  0  0  0
  1 10  1  0  0  0  0
  2  6  1  0  0  0  0
  2  5  1  0  0  0  0
  3 15  1  0  0  0  0
  4  6  1  0  0  0  0
  5 17  1  0  0  0  0
  6  9  1  0  0  0  0
  7  5  1  0  0  0  0
  7  3  1  0  0  0  0
  8 12  1  0  0  0  0
  8  4  2  0  0  0  0
  9 17  1  0  0  0  0
 11 23  1  0  0  0  0
 11 16  1  0  0  0  0
 12 16  1  0  0  0  0
 13  9  1  0  0  0  0
 14 33  1  0  0  0  0
 15 14  1  0  0  0  0
 16  2  1  0  0  0  0
 17 22  1  0  0  0  0
 18  4  1  0  0  0  0
 18  1  1  0  0  0  0
 19 25  1  0  0  0  0
 19  7  1  0  0  0  0
 20  1  1  0  0  0  0
 21 15  1  0  0  0  0
 21 14  1  0  0  0  0
 22 21  1  0  0  0  0
 23 19  1  0  0  0  0
 24 25  2  0  0  0  0
 25 26  1  0  0  0  0
 26 29  1  0  0  0  0
 28 29  1  0  0  0  0
 29 27  1  0  0  0  0
 30 24  1  0  0  0  0
 30 28  1  0  0  0  0
 32 37  1  0  0  0  0
 32 31  2  0  0  0  0
 33 34  1  0  0  0  0
 33 35  2  0  0  0  0
 34 32  1  0  0  0  0
 37 36  1  0  0  0  0
M  END
>  <MODEL>
4

>  <REMARK>
 VINA RESULT:      -7.7      4.005      9.658
  Name = 
  3 active torsions:
  status: ('A' for Active; 'I' for Inactive)
    1  A    between atoms: C_4  and  O_37
    2  A    between atoms: C_8  and  C_18
    3  A    between atoms: C_23  and  C_30
                            x       y       z     vdW  Elec       q    Type
                         _______ _______ _______ _____ _____    ______ ____

>  <TORSDO>
F 3

$$$$
=
 OpenBabel11122411363D

 37 43  0  0  1  0  0  0  0  0999 V2000
  182.3440  179.9610  138.8200 C   0  0  0  0  0  0  0  0  0  0  0  0
  185.0590  177.2410  137.5640 C   0  0  2  0  0  3  0  0  0  0  0  0
  188.7810  177.6680  138.6790 O   0  0  0  0  0  0  0  0  0  0  0  0
  182.6930  177.7010  137.6850 C   0  0  0  0  0  0  0  0  0  0  0  0
  186.2250  177.4180  138.4960 C   0  0  1  0  0  3  0  0  0  0  0  0
  183.9310  177.5040  138.5060 C   0  0  2  0  0  3  0  0  0  0  0  0
  187.6450  177.4980  137.8100 C   0  0  2  0  0  3  0  0  0  0  0  0
  182.4560  176.7820  136.7320 C   0  0  0  0  0  3  0  0  0  0  0  0
  184.4290  178.6350  139.3910 C   0  0  2  0  0  3  0  0  0  0  0  0
  181.7050  179.6240  140.1580 C   0  0  0  0  0  1  0  0  0  0  0  0
  185.7280  175.6270  135.6870 C   0  0  0  0  0  2  0  0  0  0  0  0
  183.3760  175.5750  136.5750 C   0  0  0  0  0  2  0  0  0  0  0  0
  183.8730  179.9880  138.9410 C   0  0  0  0  0  2  0  0  0  0  0  0
  189.1370  178.0950  141.1300 C   0  0  1  0  0  3  0  0  0  0  0  0
  188.3950  177.4310  140.0020 C   0  0  1  0  0  3  0  0  0  0  0  0
  184.8670  175.8510  136.9350 C   0  0  2  0  0  3  0  0  0  0  0  0
  185.8920  178.6250  139.2840 N   0  0  1  0  0  0  0  0  0  0  0  0
  181.8730  178.9620  137.7530 C   0  0  0  0  0  2  0  0  0  0  0  0
  187.8770  176.3140  136.8480 C   0  0  1  0  0  3  0  0  0  0  0  0
  181.8750  181.3410  138.4110 C   0  0  0  0  0  1  0  0  0  0  0  0
  187.9490  178.8030  140.4800 C   0  0  1  0  0  3  0  0  0  0  0  0
  186.4680  178.5170  140.6290 C   0  0  0  0  0  2  0  0  0  0  0  0
  187.0050  176.4640  135.6070 C   0  0  0  0  0  2  0  0  0  0  0  0
  189.6560  176.6240  135.2020 C   0  0  0  0  0  3  0  0  0  0  0  0
  189.3150  176.1880  136.4260 C   0  0  0  0  0  0  0  0  0  0  0  0
  190.2890  175.4120  137.2920 C   0  0  0  0  0  2  0  0  0  0  0  0
  192.5860  174.4890  137.5090 C   0  0  0  0  0  1  0  0  0  0  0  0
  191.8320  175.3960  135.3250 C   0  0  0  0  0  2  0  0  0  0  0  0
  191.7420  175.5500  136.8360 C   0  0  1  0  0  3  0  0  0  0  0  0
  191.0610  176.5360  134.6700 C   0  0  0  0  0  2  0  0  0  0  0  0
  188.2000  176.6190  145.1600 O   0  0  0  0  0  0  0  0  0  0  0  0
  188.9390  177.6240  144.9830 C   0  0  0  0  0  0  0  0  0  0  0  0
  188.7520  177.4970  142.4460 C   0  0  0  0  0  0  0  0  0  0  0  0
  189.2350  178.0890  143.6590 N   0  0  0  0  0  2  0  0  0  0  0  0
  188.0390  176.4580  142.4740 O   0  0  0  0  0  0  0  0  0  0  0  0
  189.1140  177.9100  147.4190 C   0  0  0  0  0  1  0  0  0  0  0  0
  189.4640  178.2820  146.0940 O   0  0  0  0  0  0  0  0  0  0  0  0
  1 13  1  0  0  0  0
  1 10  1  0  0  0  0
  2  5  1  0  0  0  0
  2  6  1  0  0  0  0
  3 15  1  0  0  0  0
  4 18  1  0  0  0  0
  4  6  1  0  0  0  0
  5 17  1  0  0  0  0
  6  9  1  0  0  0  0
  7  5  1  0  0  0  0
  7  3  1  0  0  0  0
  8  4  2  0  0  0  0
 11 16  1  0  0  0  0
 12  8  1  0  0  0  0
 12 16  1  0  0  0  0
 13  9  1  0  0  0  0
 14 33  1  0  0  0  0
 15 21  1  0  0  0  0
 15 14  1  0  0  0  0
 16  2  1  0  0  0  0
 17  9  1  0  0  0  0
 17 22  1  0  0  0  0
 18  1  1  0  0  0  0
 19  7  1  0  0  0  0
 20  1  1  0  0  0  0
 21 22  1  0  0  0  0
 21 14  1  0  0  0  0
 23 11  1  0  0  0  0
 23 19  1  0  0  0  0
 24 25  2  0  0  0  0
 25 19  1  0  0  0  0
 25 26  1  0  0  0  0
 28 29  1  0  0  0  0
 29 26  1  0  0  0  0
 29 27  1  0  0  0  0
 30 24  1  0  0  0  0
 30 28  1  0  0  0  0
 32 31  2  0  0  0  0
 32 37  1  0  0  0  0
 33 35  2  0  0  0  0
 33 34  1  0  0  0  0
 34 32  1  0  0  0  0
 37 36  1  0  0  0  0
M  END
>  <MODEL>
5

>  <REMARK>
 VINA RESULT:      -7.6      2.977      8.279
  Name = 
  3 active torsions:
  status: ('A' for Active; 'I' for Inactive)
    1  A    between atoms: C_4  and  O_37
    2  A    between atoms: C_8  and  C_18
    3  A    between atoms: C_23  and  C_30
                            x       y       z     vdW  Elec       q    Type
                         _______ _______ _______ _____ _____    ______ ____

>  <TORSDO>
F 3

$$$$
=
 OpenBabel11122411363D

 37 43  0  0  1  0  0  0  0  0999 V2000
  179.7660  179.1880  141.4770 C   0  0  0  0  0  0  0  0  0  0  0  0
  182.4450  177.2630  139.1400 C   0  0  2  0  0  3  0  0  0  0  0  0
  186.1710  178.4400  139.2130 O   0  0  0  0  0  0  0  0  0  0  0  0
  180.1850  177.1610  139.9850 C   0  0  0  0  0  0  0  0  0  0  0  0
  183.7810  177.6290  139.7220 C   0  0  1  0  0  3  0  0  0  0  0  0
  181.6280  177.1890  140.3880 C   0  0  2  0  0  3  0  0  0  0  0  0
  184.8800  178.0830  138.6840 C   0  0  2  0  0  3  0  0  0  0  0  0
  179.8530  176.2880  139.0170 C   0  0  0  0  0  3  0  0  0  0  0  0
  182.1420  178.3330  141.2480 C   0  0  2  0  0  3  0  0  0  0  0  0
  179.6430  178.6130  142.8800 C   0  0  0  0  0  1  0  0  0  0  0  0
  182.8110  175.9920  136.9430 C   0  0  0  0  0  2  0  0  0  0  0  0
  180.8990  175.3380  138.4400 C   0  0  0  0  0  2  0  0  0  0  0  0
  181.2230  179.5540  141.1670 C   0  0  0  0  0  2  0  0  0  0  0  0
  187.1660  178.7490  141.5010 C   0  0  1  0  0  3  0  0  0  0  0  0
  186.2600  178.0220  140.5450 C   0  0  1  0  0  3  0  0  0  0  0  0
  182.3450  175.9180  138.4020 C   0  0  2  0  0  3  0  0  0  0  0  0
  183.4750  178.6650  140.7340 N   0  0  1  0  0  0  0  0  0  0  0  0
  179.1960  178.1930  140.4560 C   0  0  0  0  0  2  0  0  0  0  0  0
  185.0350  177.0600  137.5390 C   0  0  1  0  0  3  0  0  0  0  0  0
  178.9350  180.4520  141.4150 C   0  0  0  0  0  1  0  0  0  0  0  0
  185.7230  179.2150  141.3170 C   0  0  1  0  0  3  0  0  0  0  0  0
  184.4430  178.5890  141.8340 C   0  0  0  0  0  2  0  0  0  0  0  0
  183.8140  177.1020  136.6270 C   0  0  0  0  0  2  0  0  0  0  0  0
  186.1280  177.8650  135.5080 C   0  0  0  0  0  3  0  0  0  0  0  0
  186.2710  177.2980  136.7170 C   0  0  0  0  0  0  0  0  0  0  0  0
  187.6000  176.7270  137.1730 C   0  0  0  0  0  2  0  0  0  0  0  0
  189.9950  176.3590  136.6220 C   0  0  0  0  0  1  0  0  0  0  0  0
  188.4460  177.1780  134.8640 C   0  0  0  0  0  2  0  0  0  0  0  0
  188.7860  177.2260  136.3460 C   0  0  1  0  0  3  0  0  0  0  0  0
  187.2930  178.1390  134.5960 C   0  0  0  0  0  2  0  0  0  0  0  0
  187.4690  176.7830  145.4170 O   0  0  0  0  0  0  0  0  0  0  0  0
  187.0020  177.9470  145.3000 C   0  0  0  0  0  0  0  0  0  0  0  0
  187.3250  177.9800  142.7740 C   0  0  0  0  0  0  0  0  0  0  0  0
  186.9140  178.5730  144.0130 N   0  0  0  0  0  2  0  0  0  0  0  0
  187.8520  176.8350  142.7490 O   0  0  0  0  0  0  0  0  0  0  0  0
  185.2000  178.6580  146.8140 C   0  0  0  0  0  1  0  0  0  0  0  0
  186.5690  178.6200  146.4420 O   0  0  0  0  0  0  0  0  0  0  0  0
  1 10  1  0  0  0  0
  2  5  1  0  0  0  0
  2  6  1  0  0  0  0
  3 15  1  0  0  0  0
  4  6  1  0  0  0  0
  4 18  1  0  0  0  0
  5 17  1  0  0  0  0
  6  9  1  0  0  0  0
  7  3  1  0  0  0  0
  7  5  1  0  0  0  0
  8  4  2  0  0  0  0
 11 16  1  0  0  0  0
 12  8  1  0  0  0  0
 13  9  1  0  0  0  0
 13  1  1  0  0  0  0
 14 33  1  0  0  0  0
 15 21  1  0  0  0  0
 15 14  1  0  0  0  0
 16 12  1  0  0  0  0
 16  2  1  0  0  0  0
 17  9  1  0  0  0  0
 17 22  1  0  0  0  0
 18  1  1  0  0  0  0
 19  7  1  0  0  0  0
 20  1  1  0  0  0  0
 21 14  1  0  0  0  0
 21 22  1  0  0  0  0
 23 11  1  0  0  0  0
 23 19  1  0  0  0  0
 24 25  2  0  0  0  0
 25 26  1  0  0  0  0
 25 19  1  0  0  0  0
 28 29  1  0  0  0  0
 29 27  1  0  0  0  0
 29 26  1  0  0  0  0
 30 28  1  0  0  0  0
 30 24  1  0  0  0  0
 32 31  2  0  0  0  0
 32 37  1  0  0  0  0
 33 34  1  0  0  0  0
 34 32  1  0  0  0  0
 35 33  2  0  0  0  0
 37 36  1  0  0  0  0
M  END
>  <MODEL>
6

>  <REMARK>
 VINA RESULT:      -7.0      2.913      7.904
  Name = 
  3 active torsions:
  status: ('A' for Active; 'I' for Inactive)
    1  A    between atoms: C_4  and  O_37
    2  A    between atoms: C_8  and  C_18
    3  A    between atoms: C_23  and  C_30
                            x       y       z     vdW  Elec       q    Type
                         _______ _______ _______ _____ _____    ______ ____

>  <TORSDO>
F 3

$$$$
=
 OpenBabel11122411363D

 37 43  0  0  1  0  0  0  0  0999 V2000
  181.9340  177.0840  136.2710 C   0  0  0  0  0  0  0  0  0  0  0  0
  184.9990  174.4910  136.7490 C   0  0  2  0  0  3  0  0  0  0  0  0
  188.6240  175.9220  137.0500 O   0  0  0  0  0  0  0  0  0  0  0  0
  182.5910  174.6660  136.7540 C   0  0  0  0  0  0  0  0  0  0  0  0
  186.1270  175.3360  137.2720 C   0  0  1  0  0  3  0  0  0  0  0  0
  183.8420  175.1600  137.4150 C   0  0  2  0  0  3  0  0  0  0  0  0
  187.5250  175.1240  136.5690 C   0  0  2  0  0  3  0  0  0  0  0  0
  182.4850  173.3340  136.5960 C   0  0  0  0  0  3  0  0  0  0  0  0
  184.1780  176.6410  137.3660 C   0  0  2  0  0  3  0  0  0  0  0  0
  181.3420  177.5880  137.5780 C   0  0  0  0  0  1  0  0  0  0  0  0
  185.8880  172.1440  136.2250 C   0  0  0  0  0  2  0  0  0  0  0  0
  183.5620  172.4020  137.1450 C   0  0  0  0  0  2  0  0  0  0  0  0
  183.4450  177.3470  136.2230 C   0  0  0  0  0  2  0  0  0  0  0  0
  188.9090  177.8200  138.6720 C   0  0  1  0  0  3  0  0  0  0  0  0
  188.2680  176.5220  138.2620 C   0  0  1  0  0  3  0  0  0  0  0  0
  185.0000  173.0030  137.1330 C   0  0  2  0  0  3  0  0  0  0  0  0
  185.6290  176.7260  137.1680 N   0  0  1  0  0  0  0  0  0  0  0  0
  181.6070  175.5940  136.0940 C   0  0  0  0  0  2  0  0  0  0  0  0
  187.9200  173.6340  136.5300 C   0  0  1  0  0  3  0  0  0  0  0  0
  181.2830  177.8460  135.1370 C   0  0  0  0  0  1  0  0  0  0  0  0
  187.6390  177.8340  137.8240 C   0  0  1  0  0  3  0  0  0  0  0  0
  186.2100  177.5440  138.2390 C   0  0  0  0  0  2  0  0  0  0  0  0
  187.0400  172.8810  135.5400 C   0  0  0  0  0  2  0  0  0  0  0  0
  189.6450  172.5810  135.1590 C   0  0  0  0  0  3  0  0  0  0  0  0
  189.3620  173.4300  136.1610 C   0  0  0  0  0  0  0  0  0  0  0  0
  190.4550  174.0190  137.0330 C   0  0  0  0  0  2  0  0  0  0  0  0
  192.8950  174.1760  137.4730 C   0  0  0  0  0  1  0  0  0  0  0  0
  192.0500  172.5040  135.8450 C   0  0  0  0  0  2  0  0  0  0  0  0
  191.8490  173.9000  136.4150 C   0  0  1  0  0  3  0  0  0  0  0  0
  191.0520  172.2900  134.7120 C   0  0  0  0  0  2  0  0  0  0  0  0
  188.2140  178.4400  142.9650 O   0  0  0  0  0  0  0  0  0  0  0  0
  188.8460  177.4370  142.5390 C   0  0  0  0  0  0  0  0  0  0  0  0
  188.6050  178.1360  140.1020 C   0  0  0  0  0  0  0  0  0  0  0  0
  189.0590  177.2500  141.1340 N   0  0  0  0  0  2  0  0  0  0  0  0
  187.9210  179.1570  140.3830 O   0  0  0  0  0  0  0  0  0  0  0  0
  190.5880  175.8640  143.2720 C   0  0  0  0  0  1  0  0  0  0  0  0
  189.3360  176.5080  143.4560 O   0  0  0  0  0  0  0  0  0  0  0  0
  1 10  1  0  0  0  0
  2 16  1  0  0  0  0
  2  5  1  0  0  0  0
  2  6  1  0  0  0  0
  3 15  1  0  0  0  0
  4  6  1  0  0  0  0
  7  3  1  0  0  0  0
  7  5  1  0  0  0  0
  8  4  2  0  0  0  0
  8 12  1  0  0  0  0
  9  6  1  0  0  0  0
 11 16  1  0  0  0  0
 13  1  1  0  0  0  0
 13  9  1  0  0  0  0
 14 33  1  0  0  0  0
 15 14  1  0  0  0  0
 16 12  1  0  0  0  0
 17  5  1  0  0  0  0
 17  9  1  0  0  0  0
 17 22  1  0  0  0  0
 18  1  1  0  0  0  0
 18  4  1  0  0  0  0
 19  7  1  0  0  0  0
 20  1  1  0  0  0  0
 21 22  1  0  0  0  0
 21 15  1  0  0  0  0
 21 14  1  0  0  0  0
 23 11  1  0  0  0  0
 23 19  1  0  0  0  0
 24 25  2  0  0  0  0
 25 19  1  0  0  0  0
 25 26  1  0  0  0  0
 28 29  1  0  0  0  0
 29 26  1  0  0  0  0
 29 27  1  0  0  0  0
 30 24  1  0  0  0  0
 30 28  1  0  0  0  0
 32 31  2  0  0  0  0
 32 37  1  0  0  0  0
 33 35  2  0  0  0  0
 33 34  1  0  0  0  0
 34 32  1  0  0  0  0
 36 37  1  0  0  0  0
M  END
>  <MODEL>
7

>  <REMARK>
 VINA RESULT:      -6.4      2.990      8.953
  Name = 
  3 active torsions:
  status: ('A' for Active; 'I' for Inactive)
    1  A    between atoms: C_4  and  O_37
    2  A    between atoms: C_8  and  C_18
    3  A    between atoms: C_23  and  C_30
                            x       y       z     vdW  Elec       q    Type
                         _______ _______ _______ _____ _____    ______ ____

>  <TORSDO>
F 3

$$$$
=
 OpenBabel11122411363D

 37 43  0  0  1  0  0  0  0  0999 V2000
  180.4050  180.4000  138.2700 C   0  0  0  0  0  0  0  0  0  0  0  0
  181.9060  176.6470  138.3670 C   0  0  2  0  0  3  0  0  0  0  0  0
  185.4390  176.0090  136.8230 O   0  0  0  0  0  0  0  0  0  0  0  0
  180.1290  178.0450  139.2140 C   0  0  0  0  0  0  0  0  0  0  0  0
  183.3800  176.8270  138.1340 C   0  0  1  0  0  3  0  0  0  0  0  0
  181.6170  177.8750  139.1670 C   0  0  2  0  0  3  0  0  0  0  0  0
  184.0280  175.8590  137.0670 C   0  0  2  0  0  3  0  0  0  0  0  0
  179.4140  176.9530  139.5400 C   0  0  0  0  0  3  0  0  0  0  0  0
  182.4730  178.9560  138.5280 C   0  0  2  0  0  3  0  0  0  0  0  0
  180.7910  181.2510  139.4690 C   0  0  0  0  0  1  0  0  0  0  0  0
  181.3530  174.1430  138.3260 C   0  0  0  0  0  2  0  0  0  0  0  0
  180.1160  175.6510  139.9130 C   0  0  0  0  0  2  0  0  0  0  0  0
  181.6540  179.8360  137.5810 C   0  0  0  0  0  2  0  0  0  0  0  0
  187.2360  177.6190  137.5260 C   0  0  1  0  0  3  0  0  0  0  0  0
  186.0020  176.8110  137.8210 C   0  0  1  0  0  3  0  0  0  0  0  0
  181.4670  175.4150  139.1750 C   0  0  2  0  0  3  0  0  0  0  0  0
  183.5290  178.2580  137.7880 N   0  0  1  0  0  0  0  0  0  0  0  0
  179.4440  179.2870  138.7110 C   0  0  0  0  0  2  0  0  0  0  0  0
  183.6870  174.3830  137.3600 C   0  0  1  0  0  3  0  0  0  0  0  0
  179.6770  181.2860  137.2820 C   0  0  0  0  0  1  0  0  0  0  0  0
  185.8560  178.2150  137.2570 C   0  0  1  0  0  3  0  0  0  0  0  0
  184.8360  178.7460  138.2430 C   0  0  0  0  0  2  0  0  0  0  0  0
  182.2170  174.1120  137.0650 C   0  0  0  0  0  2  0  0  0  0  0  0
  183.9630  172.7880  135.5310 C   0  0  0  0  0  3  0  0  0  0  0  0
  184.5330  173.4280  136.5650 C   0  0  0  0  0  0  0  0  0  0  0  0
  185.9230  173.0670  137.0530 C   0  0  0  0  0  2  0  0  0  0  0  0
  187.9300  171.6410  136.7170 C   0  0  0  0  0  1  0  0  0  0  0  0
  185.8570  171.1560  135.4420 C   0  0  0  0  0  2  0  0  0  0  0  0
  186.7260  172.2540  136.0360 C   0  0  1  0  0  3  0  0  0  0  0  0
  184.7100  171.8020  134.6740 C   0  0  0  0  0  2  0  0  0  0  0  0
  188.7450  178.9990  141.4140 O   0  0  0  0  0  0  0  0  0  0  0  0
  187.8430  178.1230  141.3320 C   0  0  0  0  0  0  0  0  0  0  0  0
  187.8250  178.1720  138.7860 C   0  0  0  0  0  0  0  0  0  0  0  0
  187.3610  177.6880  140.0530 N   0  0  0  0  0  2  0  0  0  0  0  0
  188.6940  179.0820  138.7200 O   0  0  0  0  0  0  0  0  0  0  0  0
  187.9900  176.5540  143.2190 C   0  0  0  0  0  1  0  0  0  0  0  0
  187.3190  177.5800  142.5040 O   0  0  0  0  0  0  0  0  0  0  0  0
  1 18  1  0  0  0  0
  1 10  1  0  0  0  0
  2  6  1  0  0  0  0
  2 16  1  0  0  0  0
  3  7  1  0  0  0  0
  3 15  1  0  0  0  0
  4  8  2  0  0  0  0
  5  2  1  0  0  0  0
  6  4  1  0  0  0  0
  7 19  1  0  0  0  0
  7  5  1  0  0  0  0
  8 12  1  0  0  0  0
  9  6  1  0  0  0  0
 11 16  1  0  0  0  0
 13  1  1  0  0  0  0
 13  9  1  0  0  0  0
 14 15  1  0  0  0  0
 14 33  1  0  0  0  0
 16 12  1  0  0  0  0
 17  5  1  0  0  0  0
 17 22  1  0  0  0  0
 17  9  1  0  0  0  0
 18  4  1  0  0  0  0
 20  1  1  0  0  0  0
 21 14  1  0  0  0  0
 21 15  1  0  0  0  0
 21 22  1  0  0  0  0
 23 19  1  0  0  0  0
 23 11  1  0  0  0  0
 24 25  2  0  0  0  0
 25 26  1  0  0  0  0
 25 19  1  0  0  0  0
 28 29  1  0  0  0  0
 29 27  1  0  0  0  0
 29 26  1  0  0  0  0
 30 28  1  0  0  0  0
 30 24  1  0  0  0  0
 32 31  2  0  0  0  0
 32 37  1  0  0  0  0
 33 34  1  0  0  0  0
 34 32  1  0  0  0  0
 35 33  2  0  0  0  0
 37 36  1  0  0  0  0
M  END
>  <MODEL>
8

>  <REMARK>
 VINA RESULT:      -6.1      2.560      8.023
  Name = 
  3 active torsions:
  status: ('A' for Active; 'I' for Inactive)
    1  A    between atoms: C_4  and  O_37
    2  A    between atoms: C_8  and  C_18
    3  A    between atoms: C_23  and  C_30
                            x       y       z     vdW  Elec       q    Type
                         _______ _______ _______ _____ _____    ______ ____

>  <TORSDO>
F 3

$$$$
=
 OpenBabel11122411363D

 37 43  0  0  1  0  0  0  0  0999 V2000
  190.2270  178.6280  143.4670 C   0  0  0  0  0  0  0  0  0  0  0  0
  186.2140  178.1690  143.6390 C   0  0  2  0  0  3  0  0  0  0  0  0
  184.0960  179.0630  140.4780 O   0  0  0  0  0  0  0  0  0  0  0  0
  188.2710  177.6800  144.8050 C   0  0  0  0  0  0  0  0  0  0  0  0
  185.7770  178.1500  142.2010 C   0  0  1  0  0  3  0  0  0  0  0  0
  187.5260  177.4650  143.5220 C   0  0  2  0  0  3  0  0  0  0  0  0
  184.5360  179.0610  141.8500 C   0  0  2  0  0  3  0  0  0  0  0  0
  187.5840  177.4520  145.9390 C   0  0  0  0  0  3  0  0  0  0  0  0
  188.1180  177.9770  142.2190 C   0  0  2  0  0  3  0  0  0  0  0  0
  190.9680  177.4040  142.9510 C   0  0  0  0  0  1  0  0  0  0  0  0
  184.1370  178.2350  145.1420 C   0  0  0  0  0  2  0  0  0  0  0  0
  186.1520  176.9280  145.8850 C   0  0  0  0  0  2  0  0  0  0  0  0
  189.1550  179.0750  142.4660 C   0  0  0  0  0  2  0  0  0  0  0  0
  184.9290  178.1050  138.3090 C   0  0  1  0  0  3  0  0  0  0  0  0
  184.7030  178.0060  139.7930 C   0  0  1  0  0  3  0  0  0  0  0  0
  185.3350  177.4140  144.6510 C   0  0  2  0  0  3  0  0  0  0  0  0
  186.9940  178.5050  141.4380 N   0  0  1  0  0  0  0  0  0  0  0  0
  189.6280  178.3280  144.8490 C   0  0  0  0  0  2  0  0  0  0  0  0
  183.3480  178.7900  142.7950 C   0  0  1  0  0  3  0  0  0  0  0  0
  191.2300  179.7510  143.6230 C   0  0  0  0  0  1  0  0  0  0  0  0
  185.9910  178.6250  139.2760 C   0  0  1  0  0  3  0  0  0  0  0  0
  186.9710  177.8440  140.1280 C   0  0  0  0  0  2  0  0  0  0  0  0
  183.6500  179.3270  144.1890 C   0  0  0  0  0  2  0  0  0  0  0  0
  181.1630  179.8020  143.2090 C   0  0  0  0  0  3  0  0  0  0  0  0
  182.0670  179.4010  142.2990 C   0  0  0  0  0  0  0  0  0  0  0  0
  181.7430  179.3740  140.8170 C   0  0  0  0  0  2  0  0  0  0  0  0
  180.0560  179.8510  139.0570 C   0  0  0  0  0  1  0  0  0  0  0  0
  179.3930  179.9490  141.4470 C   0  0  0  0  0  2  0  0  0  0  0  0
  180.5150  180.2100  140.4540 C   0  0  1  0  0  3  0  0  0  0  0  0
  179.8430  180.4150  142.8270 C   0  0  0  0  0  2  0  0  0  0  0  0
  186.3890  174.3830  136.4910 O   0  0  0  0  0  0  0  0  0  0  0  0
  186.9920  175.4760  136.3250 C   0  0  0  0  0  0  0  0  0  0  0  0
  185.3220  176.7790  137.7400 C   0  0  0  0  0  0  0  0  0  0  0  0
  186.4980  176.6820  136.9240 N   0  0  0  0  0  2  0  0  0  0  0  0
  184.5980  175.7700  137.9510 O   0  0  0  0  0  0  0  0  0  0  0  0
  189.2460  176.3460  135.8640 C   0  0  0  0  0  1  0  0  0  0  0  0
  188.1510  175.4990  135.5500 O   0  0  0  0  0  0  0  0  0  0  0  0
  1 20  1  0  0  0  0
  1 18  1  0  0  0  0
  2 16  1  0  0  0  0
  3  7  1  0  0  0  0
  4 18  1  0  0  0  0
  4  8  2  0  0  0  0
  5  2  1  0  0  0  0
  6  2  1  0  0  0  0
  6  4  1  0  0  0  0
  7  5  1  0  0  0  0
  7 19  1  0  0  0  0
  9 13  1  0  0  0  0
  9  6  1  0  0  0  0
 10  1  1  0  0  0  0
 12  8  1  0  0  0  0
 13  1  1  0  0  0  0
 14 21  1  0  0  0  0
 14 15  1  0  0  0  0
 15  3  1  0  0  0  0
 16 11  1  0  0  0  0
 16 12  1  0  0  0  0
 17  5  1  0  0  0  0
 17  9  1  0  0  0  0
 19 23  1  0  0  0  0
 21 15  1  0  0  0  0
 21 22  1  0  0  0  0
 22 17  1  0  0  0  0
 23 11  1  0  0  0  0
 25 19  1  0  0  0  0
 25 24  2  0  0  0  0
 26 25  1  0  0  0  0
 27 29  1  0  0  0  0
 28 30  1  0  0  0  0
 29 26  1  0  0  0  0
 29 28  1  0  0  0  0
 30 24  1  0  0  0  0
 32 31  2  0  0  0  0
 32 34  1  0  0  0  0
 33 35  2  0  0  0  0
 33 14  1  0  0  0  0
 34 33  1  0  0  0  0
 37 36  1  0  0  0  0
 37 32  1  0  0  0  0
M  END
>  <MODEL>
9

>  <REMARK>
 VINA RESULT:      -6.0      1.571      2.376
  Name = 
  3 active torsions:
  status: ('A' for Active; 'I' for Inactive)
    1  A    between atoms: C_4  and  O_37
    2  A    between atoms: C_8  and  C_18
    3  A    between atoms: C_23  and  C_30
                            x       y       z     vdW  Elec       q    Type
                         _______ _______ _______ _____ _____    ______ ____

>  <TORSDO>
F 3

$$$$
