=
 OpenBabel11122411033D

 31 35  0  0  1  0  0  0  0  0999 V2000
  192.5130  174.3530  135.7250 C   0  0  0  0  0  0  0  0  0  0  0  0
  189.7840  176.7410  136.6860 C   0  0  2  0  0  3  0  0  0  0  0  0
  188.4810  175.9610  136.6210 C   0  0  0  0  0  0  0  0  0  0  0  0
  190.9100  176.5050  141.9130 O   0  0  0  0  0  0  0  0  0  0  0  0
  190.1480  177.4840  141.6950 C   0  0  0  0  0  0  0  0  0  0  0  0
  187.1800  174.1520  135.6410 C   0  0  0  0  0  0  0  0  0  0  0  0
  190.9850  175.8380  136.7760 C   0  0  0  0  0  0  0  0  0  0  0  0
  193.1010  174.0500  136.9560 C   0  0  0  0  0  3  0  0  0  0  0  0
  188.3840  174.8460  135.7740 C   0  0  0  0  0  3  0  0  0  0  0  0
  190.2410  177.2270  139.1510 C   0  0  0  0  0  0  0  0  0  0  0  0
  192.9710  173.7640  134.5940 F   0  0  0  0  0  0  0  0  0  0  0  0
  187.3460  177.5870  138.2220 C   0  0  0  0  0  2  0  0  0  0  0  0
  187.0880  172.7530  134.5940 Cl  0  0  0  0  0  0  0  0  0  0  0  0
  191.0780  176.2310  139.2010 N   0  0  0  0  0  0  0  0  0  0  0  0
  189.8130  177.8010  137.8110 C   0  0  2  0  0  3  0  0  0  0  0  0
  189.8140  177.8760  140.3570 N   0  0  0  0  0  2  0  0  0  0  0  0
  191.4730  175.2270  135.6610 N   0  0  0  0  0  0  0  0  0  0  0  0
  186.0500  174.5760  136.3400 C   0  0  0  0  0  3  0  0  0  0  0  0
  191.5590  175.5680  138.0280 C   0  0  0  0  0  0  0  0  0  0  0  0
  192.6180  174.6640  138.1130 C   0  0  0  0  0  3  0  0  0  0  0  0
  188.4800  178.5480  137.8830 C   0  0  0  0  0  2  0  0  0  0  0  0
  187.3190  176.4070  137.2960 C   0  0  0  0  0  0  0  0  0  0  0  0
  186.1210  175.7000  137.1660 C   0  0  0  0  0  3  0  0  0  0  0  0
  190.6900  177.4750  145.4470 N   0  0  0  0  0  0  0  0  0  0  0  0
  190.6310  179.0630  143.5760 C   0  0  0  0  0  2  0  0  0  0  0  0
  187.9670  176.4380  143.2070 O   0  0  0  0  0  1  0  0  0  0  0  0
  191.5980  176.6670  146.2410 C   0  0  0  0  0  1  0  0  0  0  0  0
  191.5110  178.1800  144.4650 C   0  0  0  0  0  2  0  0  0  0  0  0
  188.8260  177.3190  143.8660 C   0  0  2  0  0  3  0  0  0  0  0  0
  189.5650  178.2250  142.8660 C   0  0  2  0  0  3  0  0  0  0  0  0
  189.8130  176.5440  144.7400 C   0  0  0  0  0  2  0  0  0  0  0  0
  1  8  1  0  0  0  0
  2  3  1  1  0  0  0
  2  7  1  0  0  0  0
  2 15  1  0  0  0  0
  3 22  1  0  0  0  0
  5  4  2  0  0  0  0
  6  9  1  0  0  0  0
  6 18  2  0  0  0  0
  7 19  2  0  0  0  0
  8 20  2  0  0  0  0
  9  3  2  0  0  0  0
 10 14  2  0  0  0  0
 10 16  1  0  0  0  0
 11  1  1  0  0  0  0
 13  6  1  0  0  0  0
 15 21  1  1  0  0  0
 15 10  1  0  0  0  0
 16  5  1  0  0  0  0
 17  1  2  0  0  0  0
 17  7  1  0  0  0  0
 18 23  1  0  0  0  0
 19 20  1  0  0  0  0
 19 14  1  0  0  0  0
 21 12  1  0  0  0  0
 22 12  1  0  0  0  0
 23 22  2  0  0  0  0
 24 27  1  0  0  0  0
 25 28  1  0  0  0  0
 28 24  1  0  0  0  0
 29 26  1  6  0  0  0
 29 31  1  0  0  0  0
 30  5  1  6  0  0  0
 30 25  1  0  0  0  0
 30 29  1  0  0  0  0
 31 24  1  0  0  0  0
M  END
>  <MODEL>
1

>  <REMARK>
 VINA RESULT:      -7.6      0.000      0.000
  Name = 
  1 active torsions:
  status: ('A' for Active; 'I' for Inactive)
    1  A    between atoms: C_5  and  C_30
                            x       y       z     vdW  Elec       q    Type
                         _______ _______ _______ _____ _____    ______ ____

>  <TORSDO>
F 1

$$$$
=
 OpenBabel11122411033D

 31 35  0  0  1  0  0  0  0  0999 V2000
  182.0030  178.8480  143.4230 C   0  0  0  0  0  0  0  0  0  0  0  0
  181.7770  178.1310  139.7480 C   0  0  2  0  0  3  0  0  0  0  0  0
  181.2420  179.3930  139.0910 C   0  0  0  0  0  0  0  0  0  0  0  0
  187.0420  178.6610  138.9430 O   0  0  0  0  0  0  0  0  0  0  0  0
  186.5210  178.1090  137.9380 C   0  0  0  0  0  0  0  0  0  0  0  0
  179.8920  181.4130  139.2450 C   0  0  0  0  0  0  0  0  0  0  0  0
  182.3460  178.3980  141.1150 C   0  0  0  0  0  0  0  0  0  0  0  0
  183.3740  179.0440  143.6110 C   0  0  0  0  0  3  0  0  0  0  0  0
  180.4550  180.2830  139.8390 C   0  0  0  0  0  3  0  0  0  0  0  0
  184.2150  177.8890  139.0240 C   0  0  0  0  0  0  0  0  0  0  0  0
  181.1510  178.9800  144.4680 F   0  0  0  0  0  0  0  0  0  0  0  0
  182.2380  178.7300  136.8410 C   0  0  0  0  0  2  0  0  0  0  0  0
  178.9310  182.5180  140.2040 Cl  0  0  0  0  0  0  0  0  0  0  0  0
  184.6100  178.3950  140.1560 N   0  0  0  0  0  0  0  0  0  0  0  0
  182.7960  177.3660  138.8720 C   0  0  2  0  0  3  0  0  0  0  0  0
  185.1460  177.7030  137.9490 N   0  0  0  0  0  2  0  0  0  0  0  0
  181.5210  178.5390  142.1890 N   0  0  0  0  0  0  0  0  0  0  0  0
  180.0930  181.6600  137.8870 C   0  0  0  0  0  3  0  0  0  0  0  0
  183.7300  178.5750  141.2700 C   0  0  0  0  0  0  0  0  0  0  0  0
  184.2400  178.9060  142.5260 C   0  0  0  0  0  3  0  0  0  0  0  0
  182.3310  177.3210  137.4160 C   0  0  0  0  0  2  0  0  0  0  0  0
  181.4080  179.6310  137.7050 C   0  0  0  0  0  0  0  0  0  0  0  0
  180.8500  180.7720  137.1210 C   0  0  0  0  0  3  0  0  0  0  0  0
  189.7280  176.2640  137.1170 N   0  0  0  0  0  0  0  0  0  0  0  0
  187.4150  176.4270  136.3140 C   0  0  0  0  0  2  0  0  0  0  0  0
  188.7380  179.7970  137.3260 O   0  0  0  0  0  1  0  0  0  0  0  0
  190.5900  175.4880  137.9900 C   0  0  0  0  0  1  0  0  0  0  0  0
  188.3970  175.6670  137.2090 C   0  0  0  0  0  2  0  0  0  0  0  0
  188.7730  178.4980  136.8140 C   0  0  2  0  0  3  0  0  0  0  0  0
  187.3570  177.9070  136.7050 C   0  0  2  0  0  3  0  0  0  0  0  0
  189.6750  177.6130  137.6750 C   0  0  0  0  0  2  0  0  0  0  0  0
  1  8  1  0  0  0  0
  1 11  1  0  0  0  0
  2  3  1  6  0  0  0
  2  7  1  0  0  0  0
  3  9  1  0  0  0  0
  5 16  1  0  0  0  0
  5  4  2  0  0  0  0
  6  9  2  0  0  0  0
  6 13  1  0  0  0  0
  7 19  2  0  0  0  0
  7 17  1  0  0  0  0
 10 14  2  0  0  0  0
 12 21  1  0  0  0  0
 12 22  1  0  0  0  0
 14 19  1  0  0  0  0
 15 21  1  6  0  0  0
 15 10  1  0  0  0  0
 15  2  1  0  0  0  0
 16 10  1  0  0  0  0
 17  1  2  0  0  0  0
 18  6  1  0  0  0  0
 19 20  1  0  0  0  0
 20  8  2  0  0  0  0
 22  3  2  0  0  0  0
 23 22  1  0  0  0  0
 23 18  2  0  0  0  0
 24 28  1  0  0  0  0
 24 31  1  0  0  0  0
 24 27  1  0  0  0  0
 25 30  1  0  0  0  0
 25 28  1  0  0  0  0
 29 26  1  1  0  0  0
 29 31  1  0  0  0  0
 30 29  1  0  0  0  0
 30  5  1  1  0  0  0
M  END
>  <MODEL>
2

>  <REMARK>
 VINA RESULT:      -7.6      6.362      9.111
  Name = 
  1 active torsions:
  status: ('A' for Active; 'I' for Inactive)
    1  A    between atoms: C_5  and  C_30
                            x       y       z     vdW  Elec       q    Type
                         _______ _______ _______ _____ _____    ______ ____

>  <TORSDO>
F 1

$$$$
=
 OpenBabel11122411033D

 31 35  0  0  1  0  0  0  0  0999 V2000
  183.5980  178.9600  143.2600 C   0  0  0  0  0  0  0  0  0  0  0  0
  182.7040  177.7970  139.8080 C   0  0  2  0  0  3  0  0  0  0  0  0
  181.8240  178.8780  139.1990 C   0  0  0  0  0  0  0  0  0  0  0  0
  187.4870  179.0350  137.7490 O   0  0  0  0  0  0  0  0  0  0  0  0
  186.8640  178.2970  136.9400 C   0  0  0  0  0  0  0  0  0  0  0  0
  180.2060  180.6700  139.5110 C   0  0  0  0  0  0  0  0  0  0  0  0
  183.5020  178.3050  140.9780 C   0  0  0  0  0  0  0  0  0  0  0  0
  184.9200  179.3850  143.1050 C   0  0  0  0  0  3  0  0  0  0  0  0
  181.0760  179.7160  140.0410 C   0  0  0  0  0  3  0  0  0  0  0  0
  184.9270  177.8520  138.5520 C   0  0  0  0  0  0  0  0  0  0  0  0
  182.9860  179.0790  144.4630 F   0  0  0  0  0  0  0  0  0  0  0  0
  182.4050  178.1210  136.8370 C   0  0  0  0  0  2  0  0  0  0  0  0
  179.2980  181.7160  140.5810 Cl  0  0  0  0  0  0  0  0  0  0  0  0
  185.4650  178.5400  139.5170 N   0  0  0  0  0  0  0  0  0  0  0  0
  183.6250  177.1020  138.7790 C   0  0  2  0  0  3  0  0  0  0  0  0
  185.6190  177.6880  137.3060 N   0  0  0  0  0  2  0  0  0  0  0  0
  182.9200  178.4400  142.2020 N   0  0  0  0  0  0  0  0  0  0  0  0
  180.0580  180.7860  138.1290 C   0  0  0  0  0  3  0  0  0  0  0  0
  184.8320  178.7090  140.7900 C   0  0  0  0  0  0  0  0  0  0  0  0
  185.5390  179.2580  141.8600 C   0  0  0  0  0  3  0  0  0  0  0  0
  182.8680  176.8190  137.4810 C   0  0  0  0  0  2  0  0  0  0  0  0
  181.6380  178.9770  137.8000 C   0  0  0  0  0  0  0  0  0  0  0  0
  180.7730  179.9430  137.2770 C   0  0  0  0  0  3  0  0  0  0  0  0
  187.3130  175.3290  134.6270 N   0  0  0  0  0  0  0  0  0  0  0  0
  186.3580  177.5890  134.5940 C   0  0  0  0  0  2  0  0  0  0  0  0
  189.5750  177.5070  136.5350 O   0  0  0  0  0  1  0  0  0  0  0  0
  186.9650  173.9360  134.8410 C   0  0  0  0  0  1  0  0  0  0  0  0
  186.0830  176.0980  134.8030 C   0  0  0  0  0  2  0  0  0  0  0  0
  188.6610  177.1580  135.5400 C   0  0  2  0  0  3  0  0  0  0  0  0
  187.4320  178.0850  135.5650 C   0  0  2  0  0  3  0  0  0  0  0  0
  188.2480  175.6940  135.6880 C   0  0  0  0  0  2  0  0  0  0  0  0
  1 11  1  0  0  0  0
  2  3  1  6  0  0  0
  2  7  1  0  0  0  0
  3  9  1  0  0  0  0
  5 16  1  0  0  0  0
  5  4  2  0  0  0  0
  6  9  2  0  0  0  0
  6 13  1  0  0  0  0
  7 17  1  0  0  0  0
  8  1  1  0  0  0  0
 10 15  1  0  0  0  0
 10 14  2  0  0  0  0
 12 21  1  0  0  0  0
 12 22  1  0  0  0  0
 14 19  1  0  0  0  0
 15 21  1  6  0  0  0
 15  2  1  0  0  0  0
 16 10  1  0  0  0  0
 17  1  2  0  0  0  0
 18  6  1  0  0  0  0
 19  7  2  0  0  0  0
 19 20  1  0  0  0  0
 20  8  2  0  0  0  0
 22  3  2  0  0  0  0
 23 22  1  0  0  0  0
 23 18  2  0  0  0  0
 24 28  1  0  0  0  0
 24 27  1  0  0  0  0
 24 31  1  0  0  0  0
 25 28  1  0  0  0  0
 25 30  1  0  0  0  0
 29 30  1  0  0  0  0
 29 31  1  0  0  0  0
 29 26  1  1  0  0  0
 30  5  1  1  0  0  0
M  END
>  <MODEL>
3

>  <REMARK>
 VINA RESULT:      -7.3      5.884      9.116
  Name = 
  1 active torsions:
  status: ('A' for Active; 'I' for Inactive)
    1  A    between atoms: C_5  and  C_30
                            x       y       z     vdW  Elec       q    Type
                         _______ _______ _______ _____ _____    ______ ____

>  <TORSDO>
F 1

$$$$
=
 OpenBabel11122411033D

 31 35  0  0  1  0  0  0  0  0999 V2000
  192.2970  177.2420  140.3010 C   0  0  0  0  0  0  0  0  0  0  0  0
  189.4320  177.7630  137.9360 C   0  0  2  0  0  3  0  0  0  0  0  0
  189.1200  176.4060  137.3250 C   0  0  0  0  0  0  0  0  0  0  0  0
  185.7790  178.0430  141.8360 O   0  0  0  0  0  0  0  0  0  0  0  0
  185.2730  178.4630  140.7620 C   0  0  0  0  0  0  0  0  0  0  0  0
  189.8940  174.2060  136.6280 C   0  0  0  0  0  0  0  0  0  0  0  0
  190.2260  177.6460  139.2090 C   0  0  0  0  0  0  0  0  0  0  0  0
  191.6710  177.2730  141.5490 C   0  0  0  0  0  3  0  0  0  0  0  0
  190.1300  175.4340  137.2460 C   0  0  0  0  0  3  0  0  0  0  0  0
  187.4780  178.3590  139.4690 C   0  0  0  0  0  0  0  0  0  0  0  0
  193.6310  177.0200  140.2180 F   0  0  0  0  0  0  0  0  0  0  0  0
  186.7410  177.1260  136.7640 C   0  0  0  0  0  2  0  0  0  0  0  0
  191.1630  173.0030  136.5580 Cl  0  0  0  0  0  0  0  0  0  0  0  0
  188.1620  177.9680  140.5050 N   0  0  0  0  0  0  0  0  0  0  0  0
  188.1800  178.6440  138.1510 C   0  0  2  0  0  3  0  0  0  0  0  0
  186.0790  178.6460  139.5900 N   0  0  0  0  0  2  0  0  0  0  0  0
  191.5680  177.4200  139.1660 N   0  0  0  0  0  0  0  0  0  0  0  0
  188.6460  173.9380  136.0630 C   0  0  0  0  0  3  0  0  0  0  0  0
  189.5660  177.6970  140.4470 C   0  0  0  0  0  0  0  0  0  0  0  0
  190.2960  177.5030  141.6190 C   0  0  0  0  0  3  0  0  0  0  0  0
  187.2430  178.5540  136.9470 C   0  0  0  0  0  2  0  0  0  0  0  0
  187.8710  176.1410  136.7150 C   0  0  0  0  0  0  0  0  0  0  0  0
  187.6380  174.9030  136.1090 C   0  0  0  0  0  3  0  0  0  0  0  0
  182.3710  177.3430  138.5960 N   0  0  0  0  0  0  0  0  0  0  0  0
  182.9840  177.4730  140.9690 C   0  0  0  0  0  2  0  0  0  0  0  0
  184.1810  180.5030  139.0940 O   0  0  0  0  0  1  0  0  0  0  0  0
  182.3690  176.4440  137.4560 C   0  0  0  0  0  1  0  0  0  0  0  0
  182.9420  176.5960  139.7150 C   0  0  0  0  0  2  0  0  0  0  0  0
  183.3410  179.4360  139.4180 C   0  0  2  0  0  3  0  0  0  0  0  0
  183.7980  178.7450  140.7150 C   0  0  2  0  0  3  0  0  0  0  0  0
  183.2740  178.4410  138.2590 C   0  0  0  0  0  2  0  0  0  0  0  0
  1  8  1  0  0  0  0
  2  3  1  1  0  0  0
  2 15  1  0  0  0  0
  2  7  1  0  0  0  0
  5  4  2  0  0  0  0
  6  9  2  0  0  0  0
  7 19  2  0  0  0  0
  8 20  2  0  0  0  0
  9  3  1  0  0  0  0
 10 16  1  0  0  0  0
 10 14  2  0  0  0  0
 11  1  1  0  0  0  0
 12 21  1  0  0  0  0
 13  6  1  0  0  0  0
 15 21  1  6  0  0  0
 15 10  1  0  0  0  0
 16  5  1  0  0  0  0
 17  7  1  0  0  0  0
 17  1  2  0  0  0  0
 18 23  2  0  0  0  0
 18  6  1  0  0  0  0
 19 14  1  0  0  0  0
 19 20  1  0  0  0  0
 22 12  1  0  0  0  0
 22  3  2  0  0  0  0
 23 22  1  0  0  0  0
 24 28  1  0  0  0  0
 27 24  1  0  0  0  0
 28 25  1  0  0  0  0
 29 26  1  6  0  0  0
 29 30  1  0  0  0  0
 30  5  1  6  0  0  0
 30 25  1  0  0  0  0
 31 24  1  0  0  0  0
 31 29  1  0  0  0  0
M  END
>  <MODEL>
4

>  <REMARK>
 VINA RESULT:      -7.2      3.362      5.670
  Name = 
  1 active torsions:
  status: ('A' for Active; 'I' for Inactive)
    1  A    between atoms: C_5  and  C_30
                            x       y       z     vdW  Elec       q    Type
                         _______ _______ _______ _____ _____    ______ ____

>  <TORSDO>
F 1

$$$$
=
 OpenBabel11122411033D

 31 35  0  0  1  0  0  0  0  0999 V2000
  179.7430  178.6140  142.1840 C   0  0  0  0  0  0  0  0  0  0  0  0
  183.1470  179.2310  140.7330 C   0  0  2  0  0  3  0  0  0  0  0  0
  184.1540  178.8360  141.8020 C   0  0  0  0  0  0  0  0  0  0  0  0
  183.0520  174.8340  137.6840 O   0  0  0  0  0  0  0  0  0  0  0  0
  183.9910  175.5830  137.3040 C   0  0  0  0  0  0  0  0  0  0  0  0
  184.7010  178.5890  144.1620 C   0  0  0  0  0  0  0  0  0  0  0  0
  181.7900  178.6270  140.9780 C   0  0  0  0  0  0  0  0  0  0  0  0
  179.3500  177.4340  141.5480 C   0  0  0  0  0  3  0  0  0  0  0  0
  183.7790  178.8780  143.1540 C   0  0  0  0  0  3  0  0  0  0  0  0
  183.3330  177.5040  138.8600 C   0  0  0  0  0  0  0  0  0  0  0  0
  178.9310  179.1910  143.1020 F   0  0  0  0  0  0  0  0  0  0  0  0
  185.9760  178.4820  140.0570 C   0  0  0  0  0  2  0  0  0  0  0  0
  184.2050  178.6290  145.8390 Cl  0  0  0  0  0  0  0  0  0  0  0  0
  182.2860  176.8820  139.3200 N   0  0  0  0  0  0  0  0  0  0  0  0
  183.6270  178.9300  139.2950 C   0  0  2  0  0  3  0  0  0  0  0  0
  184.1470  176.9010  137.8450 N   0  0  0  0  0  2  0  0  0  0  0  0
  180.9470  179.1780  141.8940 N   0  0  0  0  0  0  0  0  0  0  0  0
  186.0180  178.2710  143.8300 C   0  0  0  0  0  3  0  0  0  0  0  0
  181.4230  177.4500  140.3100 C   0  0  0  0  0  0  0  0  0  0  0  0
  180.1980  176.8500  140.6050 C   0  0  0  0  0  3  0  0  0  0  0  0
  185.0980  179.3110  139.1260 C   0  0  0  0  0  2  0  0  0  0  0  0
  185.5020  178.5510  141.4780 C   0  0  0  0  0  0  0  0  0  0  0  0
  186.4160  178.2510  142.4920 C   0  0  0  0  0  3  0  0  0  0  0  0
  187.3650  176.6950  135.9820 N   0  0  0  0  0  0  0  0  0  0  0  0
  186.3060  174.7010  136.9460 C   0  0  0  0  0  2  0  0  0  0  0  0
  183.9690  176.4730  134.5940 O   0  0  0  0  0  1  0  0  0  0  0  0
  188.1490  177.8640  136.3350 C   0  0  0  0  0  1  0  0  0  0  0  0
  187.1320  175.9600  137.2240 C   0  0  0  0  0  2  0  0  0  0  0  0
  185.1870  176.0100  135.0970 C   0  0  2  0  0  3  0  0  0  0  0  0
  184.9700  175.0630  136.2900 C   0  0  2  0  0  3  0  0  0  0  0  0
  186.0830  177.1870  135.4840 C   0  0  0  0  0  2  0  0  0  0  0  0
  1 11  1  0  0  0  0
  2  7  1  1  0  0  0
  2  3  1  0  0  0  0
  3  9  1  0  0  0  0
  5  4  2  0  0  0  0
  5 16  1  0  0  0  0
  6 13  1  0  0  0  0
  7 17  2  0  0  0  0
  8  1  2  0  0  0  0
  9  6  2  0  0  0  0
 10 15  1  0  0  0  0
 10 14  2  0  0  0  0
 12 22  1  0  0  0  0
 14 19  1  0  0  0  0
 15 21  1  1  0  0  0
 15  2  1  0  0  0  0
 16 10  1  0  0  0  0
 17  1  1  0  0  0  0
 18  6  1  0  0  0  0
 19 20  2  0  0  0  0
 19  7  1  0  0  0  0
 20  8  1  0  0  0  0
 21 12  1  0  0  0  0
 22  3  2  0  0  0  0
 22 23  1  0  0  0  0
 23 18  2  0  0  0  0
 24 27  1  0  0  0  0
 24 28  1  0  0  0  0
 25 28  1  0  0  0  0
 29 26  1  1  0  0  0
 29 31  1  0  0  0  0
 29 30  1  0  0  0  0
 30 25  1  0  0  0  0
 30  5  1  1  0  0  0
 31 24  1  0  0  0  0
M  END
>  <MODEL>
5

>  <REMARK>
 VINA RESULT:      -7.2      6.416      9.842
  Name = 
  1 active torsions:
  status: ('A' for Active; 'I' for Inactive)
    1  A    between atoms: C_5  and  C_30
                            x       y       z     vdW  Elec       q    Type
                         _______ _______ _______ _____ _____    ______ ____

>  <TORSDO>
F 1

$$$$
=
 OpenBabel11122411033D

 31 35  0  0  1  0  0  0  0  0999 V2000
  184.8190  178.8910  139.5920 C   0  0  0  0  0  0  0  0  0  0  0  0
  188.5290  178.4190  139.8840 C   0  0  2  0  0  3  0  0  0  0  0  0
  188.7610  177.5380  141.1010 C   0  0  0  0  0  0  0  0  0  0  0  0
  188.7590  174.8350  135.9160 O   0  0  0  0  0  0  0  0  0  0  0  0
  189.9240  175.2350  136.1840 C   0  0  0  0  0  0  0  0  0  0  0  0
  188.0300  176.7810  143.2970 C   0  0  0  0  0  0  0  0  0  0  0  0
  187.1160  178.3250  139.3730 C   0  0  0  0  0  0  0  0  0  0  0  0
  184.4850  178.0380  138.5370 C   0  0  0  0  0  3  0  0  0  0  0  0
  187.8120  177.5250  142.1360 C   0  0  0  0  0  3  0  0  0  0  0  0
  189.1290  177.0250  137.8300 C   0  0  0  0  0  0  0  0  0  0  0  0
  183.8490  179.5900  140.2290 F   0  0  0  0  0  0  0  0  0  0  0  0
  191.0310  176.7920  140.2180 C   0  0  0  0  0  2  0  0  0  0  0  0
  186.8240  176.7640  144.5640 Cl  0  0  0  0  0  0  0  0  0  0  0  0
  187.8690  176.7700  137.6250 N   0  0  0  0  0  0  0  0  0  0  0  0
  189.5400  178.1690  138.7410 C   0  0  2  0  0  3  0  0  0  0  0  0
  190.1400  176.3150  137.1010 N   0  0  0  0  0  2  0  0  0  0  0  0
  186.1140  179.0120  139.9900 N   0  0  0  0  0  0  0  0  0  0  0  0
  189.2110  176.0540  143.4470 C   0  0  0  0  0  3  0  0  0  0  0  0
  186.8200  177.4690  138.3020 C   0  0  0  0  0  0  0  0  0  0  0  0
  185.4950  177.3230  137.8900 C   0  0  0  0  0  3  0  0  0  0  0  0
  190.9550  178.0060  139.2980 C   0  0  0  0  0  2  0  0  0  0  0  0
  189.9730  176.8300  141.2800 C   0  0  0  0  0  0  0  0  0  0  0  0
  190.1780  176.0780  142.4400 C   0  0  0  0  0  3  0  0  0  0  0  0
  193.5400  174.6060  137.1290 N   0  0  0  0  0  0  0  0  0  0  0  0
  191.5620  173.3540  136.3940 C   0  0  0  0  0  2  0  0  0  0  0  0
  191.8290  176.6430  134.5940 O   0  0  0  0  0  1  0  0  0  0  0  0
  194.2630  175.0180  138.3190 C   0  0  0  0  0  1  0  0  0  0  0  0
  192.3890  173.8330  137.5900 C   0  0  0  0  0  2  0  0  0  0  0  0
  192.2710  175.4800  135.2260 C   0  0  2  0  0  3  0  0  0  0  0  0
  191.0950  174.5410  135.5460 C   0  0  2  0  0  3  0  0  0  0  0  0
  193.0570  175.8280  136.4900 C   0  0  0  0  0  2  0  0  0  0  0  0
  1 17  1  0  0  0  0
  1 11  1  0  0  0  0
  2  7  1  6  0  0  0
  2  3  1  0  0  0  0
  3 22  2  0  0  0  0
  3  9  1  0  0  0  0
  4  5  2  0  0  0  0
  5 16  1  0  0  0  0
  6 18  1  0  0  0  0
  6 13  1  0  0  0  0
  7 17  2  0  0  0  0
  8  1  2  0  0  0  0
  9  6  2  0  0  0  0
 10 15  1  0  0  0  0
 12 22  1  0  0  0  0
 14 10  2  0  0  0  0
 14 19  1  0  0  0  0
 15 21  1  1  0  0  0
 15  2  1  0  0  0  0
 16 10  1  0  0  0  0
 19  7  1  0  0  0  0
 20 19  2  0  0  0  0
 20  8  1  0  0  0  0
 21 12  1  0  0  0  0
 22 23  1  0  0  0  0
 23 18  2  0  0  0  0
 24 28  1  0  0  0  0
 24 27  1  0  0  0  0
 25 28  1  0  0  0  0
 29 26  1  1  0  0  0
 29 30  1  0  0  0  0
 29 31  1  0  0  0  0
 30  5  1  1  0  0  0
 30 25  1  0  0  0  0
 31 24  1  0  0  0  0
M  END
>  <MODEL>
6

>  <REMARK>
 VINA RESULT:      -6.8      4.132      7.363
  Name = 
  1 active torsions:
  status: ('A' for Active; 'I' for Inactive)
    1  A    between atoms: C_5  and  C_30
                            x       y       z     vdW  Elec       q    Type
                         _______ _______ _______ _____ _____    ______ ____

>  <TORSDO>
F 1

$$$$
=
 OpenBabel11122411033D

 31 35  0  0  1  0  0  0  0  0999 V2000
  189.9900  177.1860  137.4400 C   0  0  0  0  0  0  0  0  0  0  0  0
  186.3880  176.6950  136.5120 C   0  0  2  0  0  3  0  0  0  0  0  0
  186.0360  175.2620  136.8810 C   0  0  0  0  0  0  0  0  0  0  0  0
  184.5420  179.3750  140.7600 O   0  0  0  0  0  0  0  0  0  0  0  0
  183.6090  179.2200  139.9280 C   0  0  0  0  0  0  0  0  0  0  0  0
  186.7460  172.9550  137.1940 C   0  0  0  0  0  0  0  0  0  0  0  0
  187.6240  177.1790  137.2230 C   0  0  0  0  0  0  0  0  0  0  0  0
  189.9020  177.9360  138.6150 C   0  0  0  0  0  3  0  0  0  0  0  0
  187.0490  174.2910  136.9280 C   0  0  0  0  0  3  0  0  0  0  0  0
  185.1290  178.2140  138.1330 C   0  0  0  0  0  0  0  0  0  0  0  0
  191.2020  176.8110  136.9660 F   0  0  0  0  0  0  0  0  0  0  0  0
  183.5570  175.8330  137.0210 C   0  0  0  0  0  2  0  0  0  0  0  0
  188.0270  171.7650  137.2670 Cl  0  0  0  0  0  0  0  0  0  0  0  0
  186.2060  178.3550  138.8500 N   0  0  0  0  0  0  0  0  0  0  0  0
  185.2200  177.6870  136.7110 C   0  0  2  0  0  3  0  0  0  0  0  0
  183.8640  178.6720  138.6280 N   0  0  0  0  0  2  0  0  0  0  0  0
  188.8600  176.8200  136.7770 N   0  0  0  0  0  0  0  0  0  0  0  0
  185.4210  172.5680  137.4000 C   0  0  0  0  0  3  0  0  0  0  0  0
  187.4980  177.9430  138.3920 C   0  0  0  0  0  0  0  0  0  0  0  0
  188.6460  178.3160  139.0920 C   0  0  0  0  0  3  0  0  0  0  0  0
  183.9060  177.0800  136.2170 C   0  0  0  0  0  2  0  0  0  0  0  0
  184.6920  174.8530  137.0520 C   0  0  0  0  0  0  0  0  0  0  0  0
  184.3990  173.5150  137.3300 C   0  0  0  0  0  3  0  0  0  0  0  0
  180.1270  178.0180  139.0360 N   0  0  0  0  0  0  0  0  0  0  0  0
  181.5040  178.4260  141.0260 C   0  0  0  0  0  2  0  0  0  0  0  0
  182.0580  181.0850  138.4270 O   0  0  0  0  0  1  0  0  0  0  0  0
  179.7250  176.9750  138.1100 C   0  0  0  0  0  1  0  0  0  0  0  0
  181.0260  177.3930  140.0030 C   0  0  0  0  0  2  0  0  0  0  0  0
  181.3560  180.1320  139.1670 C   0  0  2  0  0  3  0  0  0  0  0  0
  182.2090  179.5940  140.3290 C   0  0  2  0  0  3  0  0  0  0  0  0
  180.8840  178.9960  138.2590 C   0  0  0  0  0  2  0  0  0  0  0  0
  1  8  1  0  0  0  0
  2 15  1  0  0  0  0
  2  3  1  1  0  0  0
  2  7  1  0  0  0  0
  3  9  2  0  0  0  0
  3 22  1  0  0  0  0
  5  4  2  0  0  0  0
  6 13  1  0  0  0  0
  6 18  2  0  0  0  0
  7 19  2  0  0  0  0
  8 20  2  0  0  0  0
  9  6  1  0  0  0  0
 10 16  1  0  0  0  0
 10 14  2  0  0  0  0
 11  1  1  0  0  0  0
 12 22  1  0  0  0  0
 15 21  1  1  0  0  0
 15 10  1  0  0  0  0
 16  5  1  0  0  0  0
 17  7  1  0  0  0  0
 17  1  2  0  0  0  0
 19 14  1  0  0  0  0
 19 20  1  0  0  0  0
 21 12  1  0  0  0  0
 22 23  2  0  0  0  0
 23 18  1  0  0  0  0
 24 28  1  0  0  0  0
 27 24  1  0  0  0  0
 28 25  1  0  0  0  0
 29 26  1  6  0  0  0
 29 30  1  0  0  0  0
 30  5  1  6  0  0  0
 30 25  1  0  0  0  0
 31 24  1  0  0  0  0
 31 29  1  0  0  0  0
M  END
>  <MODEL>
7

>  <REMARK>
 VINA RESULT:      -6.7      4.406      6.708
  Name = 
  1 active torsions:
  status: ('A' for Active; 'I' for Inactive)
    1  A    between atoms: C_5  and  C_30
                            x       y       z     vdW  Elec       q    Type
                         _______ _______ _______ _____ _____    ______ ____

>  <TORSDO>
F 1

$$$$
=
 OpenBabel11122411033D

 31 35  0  0  1  0  0  0  0  0999 V2000
  181.9570  171.7300  136.6680 C   0  0  0  0  0  0  0  0  0  0  0  0
  181.9970  175.4800  136.7740 C   0  0  2  0  0  3  0  0  0  0  0  0
  181.4630  175.8820  138.1400 C   0  0  0  0  0  0  0  0  0  0  0  0
  187.2820  175.7710  137.5690 O   0  0  0  0  0  0  0  0  0  0  0  0
  186.8470  176.9070  137.2420 C   0  0  0  0  0  0  0  0  0  0  0  0
  180.0370  175.3860  140.0490 C   0  0  0  0  0  0  0  0  0  0  0  0
  182.4660  174.0500  136.7440 C   0  0  0  0  0  0  0  0  0  0  0  0
  183.3050  171.4060  136.8440 C   0  0  0  0  0  3  0  0  0  0  0  0
  180.5990  175.0150  138.8270 C   0  0  0  0  0  3  0  0  0  0  0  0
  184.4840  176.0630  136.7440 C   0  0  0  0  0  0  0  0  0  0  0  0
  181.0340  170.7450  136.5500 F   0  0  0  0  0  0  0  0  0  0  0  0
  182.6270  178.1450  138.0070 C   0  0  0  0  0  2  0  0  0  0  0  0
  178.9780  174.2810  140.8970 Cl  0  0  0  0  0  0  0  0  0  0  0  0
  184.7860  174.8220  136.9960 N   0  0  0  0  0  0  0  0  0  0  0  0
  183.0970  176.4260  136.2400 C   0  0  2  0  0  3  0  0  0  0  0  0
  185.4890  177.0830  136.8170 N   0  0  0  0  0  2  0  0  0  0  0  0
  181.5680  173.0330  136.6280 N   0  0  0  0  0  0  0  0  0  0  0  0
  180.3180  176.6400  140.5930 C   0  0  0  0  0  3  0  0  0  0  0  0
  183.8290  173.7620  136.9090 C   0  0  0  0  0  0  0  0  0  0  0  0
  184.2450  172.4310  136.9650 C   0  0  0  0  0  3  0  0  0  0  0  0
  182.7300  177.8860  136.5080 C   0  0  0  0  0  2  0  0  0  0  0  0
  181.7110  177.1660  138.6800 C   0  0  0  0  0  0  0  0  0  0  0  0
  181.1540  177.5260  139.9110 C   0  0  0  0  0  3  0  0  0  0  0  0
  190.3750  177.5020  138.4930 N   0  0  0  0  0  0  0  0  0  0  0  0
  189.0240  177.8800  136.4800 C   0  0  0  0  0  2  0  0  0  0  0  0
  187.0180  178.5100  139.5960 O   0  0  0  0  0  1  0  0  0  0  0  0
  191.3070  176.5640  139.0930 C   0  0  0  0  0  1  0  0  0  0  0  0
  190.0110  176.9510  137.1900 C   0  0  0  0  0  2  0  0  0  0  0  0
  188.1460  178.4740  138.7740 C   0  0  2  0  0  3  0  0  0  0  0  0
  187.7690  178.0910  137.3320 C   0  0  2  0  0  3  0  0  0  0  0  0
  189.1880  177.5120  139.3440 C   0  0  0  0  0  2  0  0  0  0  0  0
  1  8  1  0  0  0  0
  2  7  1  1  0  0  0
  2  3  1  0  0  0  0
  3 22  2  0  0  0  0
  3  9  1  0  0  0  0
  5  4  2  0  0  0  0
  6 18  1  0  0  0  0
  6 13  1  0  0  0  0
  7 19  2  0  0  0  0
  8 20  2  0  0  0  0
  9  6  2  0  0  0  0
 10 16  1  0  0  0  0
 10 14  2  0  0  0  0
 11  1  1  0  0  0  0
 12 22  1  0  0  0  0
 15 21  1  1  0  0  0
 15 10  1  0  0  0  0
 15  2  1  0  0  0  0
 16  5  1  0  0  0  0
 17  1  2  0  0  0  0
 17  7  1  0  0  0  0
 19 20  1  0  0  0  0
 19 14  1  0  0  0  0
 21 12  1  0  0  0  0
 22 23  1  0  0  0  0
 23 18  2  0  0  0  0
 24 27  1  0  0  0  0
 24 31  1  0  0  0  0
 25 28  1  0  0  0  0
 25 30  1  0  0  0  0
 28 24  1  0  0  0  0
 29 31  1  0  0  0  0
 29 26  1  1  0  0  0
 30  5  1  1  0  0  0
 30 29  1  0  0  0  0
M  END
>  <MODEL>
8

>  <REMARK>
 VINA RESULT:      -6.6      5.236      7.613
  Name = 
  1 active torsions:
  status: ('A' for Active; 'I' for Inactive)
    1  A    between atoms: C_5  and  C_30
                            x       y       z     vdW  Elec       q    Type
                         _______ _______ _______ _____ _____    ______ ____

>  <TORSDO>
F 1

$$$$
=
 OpenBabel11122411033D

 31 35  0  0  1  0  0  0  0  0999 V2000
  191.1160  177.4460  140.7990 C   0  0  0  0  0  0  0  0  0  0  0  0
  189.2630  177.9660  137.5790 C   0  0  2  0  0  3  0  0  0  0  0  0
  189.2380  176.6210  136.8700 C   0  0  0  0  0  0  0  0  0  0  0  0
  184.4530  178.0240  139.9250 O   0  0  0  0  0  0  0  0  0  0  0  0
  184.3480  178.4650  138.7490 C   0  0  0  0  0  0  0  0  0  0  0  0
  190.2880  174.4660  136.4490 C   0  0  0  0  0  0  0  0  0  0  0  0
  189.5550  177.8290  139.0490 C   0  0  0  0  0  0  0  0  0  0  0  0
  190.0860  177.4210  141.7420 C   0  0  0  0  0  3  0  0  0  0  0  0
  190.2450  175.6800  137.1360 C   0  0  0  0  0  3  0  0  0  0  0  0
  186.8720  178.4610  138.3260 C   0  0  0  0  0  0  0  0  0  0  0  0
  192.3990  177.2610  141.1930 F   0  0  0  0  0  0  0  0  0  0  0  0
  187.1900  177.2960  135.5120 C   0  0  0  0  0  2  0  0  0  0  0  0
  191.5420  173.3000  136.8120 Cl  0  0  0  0  0  0  0  0  0  0  0  0
  187.1550  178.0560  139.5300 N   0  0  0  0  0  0  0  0  0  0  0  0
  187.9850  178.8060  137.3520 C   0  0  2  0  0  3  0  0  0  0  0  0
  185.5110  178.7070  137.9460 N   0  0  0  0  0  2  0  0  0  0  0  0
  190.8320  177.6410  139.4830 N   0  0  0  0  0  0  0  0  0  0  0  0
  189.3340  174.1830  135.4710 C   0  0  0  0  0  3  0  0  0  0  0  0
  188.4970  177.8240  139.9700 C   0  0  0  0  0  0  0  0  0  0  0  0
  188.7690  177.6110  141.3220 C   0  0  0  0  0  3  0  0  0  0  0  0
  187.5420  178.7300  135.8900 C   0  0  0  0  0  2  0  0  0  0  0  0
  188.2980  176.3430  135.8490 C   0  0  0  0  0  0  0  0  0  0  0  0
  188.3410  175.1190  135.1740 C   0  0  0  0  0  3  0  0  0  0  0  0
  180.8000  178.2200  140.0580 N   0  0  0  0  0  0  0  0  0  0  0  0
  182.2640  179.8380  138.9350 C   0  0  0  0  0  2  0  0  0  0  0  0
  182.7980  176.3680  137.5930 O   0  0  0  0  0  1  0  0  0  0  0  0
  180.3310  177.8110  141.3700 C   0  0  0  0  0  1  0  0  0  0  0  0
  181.7160  179.3380  140.2740 C   0  0  0  0  0  2  0  0  0  0  0  0
  182.0970  177.4490  138.1300 C   0  0  2  0  0  3  0  0  0  0  0  0
  182.9770  178.7090  138.1850 C   0  0  2  0  0  3  0  0  0  0  0  0
  181.5560  177.0940  139.5160 C   0  0  0  0  0  2  0  0  0  0  0  0
  1 11  1  0  0  0  0
  1  8  1  0  0  0  0
  2  3  1  1  0  0  0
  2  7  1  0  0  0  0
  3  9  1  0  0  0  0
  5  4  2  0  0  0  0
  6 13  1  0  0  0  0
  6  9  2  0  0  0  0
  7 17  1  0  0  0  0
  7 19  2  0  0  0  0
 10 14  2  0  0  0  0
 12 22  1  0  0  0  0
 12 21  1  0  0  0  0
 14 19  1  0  0  0  0
 15 21  1  6  0  0  0
 15  2  1  0  0  0  0
 15 10  1  0  0  0  0
 16 10  1  0  0  0  0
 16  5  1  0  0  0  0
 17  1  2  0  0  0  0
 18  6  1  0  0  0  0
 19 20  1  0  0  0  0
 20  8  2  0  0  0  0
 22  3  2  0  0  0  0
 23 18  2  0  0  0  0
 23 22  1  0  0  0  0
 24 28  1  0  0  0  0
 24 27  1  0  0  0  0
 25 28  1  0  0  0  0
 29 26  1  1  0  0  0
 29 30  1  0  0  0  0
 29 31  1  0  0  0  0
 30  5  1  1  0  0  0
 30 25  1  0  0  0  0
 31 24  1  0  0  0  0
M  END
>  <MODEL>
9

>  <REMARK>
 VINA RESULT:      -6.6      4.062      6.323
  Name = 
  1 active torsions:
  status: ('A' for Active; 'I' for Inactive)
    1  A    between atoms: C_5  and  C_30
                            x       y       z     vdW  Elec       q    Type
                         _______ _______ _______ _____ _____    ______ ____

>  <TORSDO>
F 1

$$$$
