=
 OpenBabel11122410513D

 32 37  0  0  1  0  0  0  0  0999 V2000
  191.9920  177.1070  142.4030 C   0  0  0  0  0  2  0  0  0  0  0  0
  186.5850  177.9900  141.4060 C   0  0  2  0  0  3  0  0  0  0  0  0
  184.7940  178.3190  145.9910 C   0  0  0  0  0  2  0  0  0  0  0  0
  183.5360  179.0030  145.4680 C   0  0  0  0  0  2  0  0  0  0  0  0
  185.0410  178.2530  139.3470 C   0  0  1  0  0  3  0  0  0  0  0  0
  183.7050  178.7900  138.7900 C   0  0  1  0  0  3  0  0  0  0  0  0
  188.9690  177.1940  141.0770 C   0  0  2  0  0  3  0  0  0  0  0  0
  188.0660  177.8270  143.3740 C   0  0  0  0  0  2  0  0  0  0  0  0
  181.9440  177.4590  139.8090 C   0  0  2  0  0  3  0  0  0  0  0  0
  189.8430  176.0020  143.2180 C   0  0  0  0  0  2  0  0  0  0  0  0
  185.9780  178.6580  145.0930 C   0  0  0  0  0  2  0  0  0  0  0  0
  186.8660  178.4690  142.7810 N   0  0  2  0  0  0  0  0  0  0  0  0
  185.7120  178.1910  143.6510 C   0  0  2  0  0  3  0  0  0  0  0  0
  184.1660  178.5270  141.6910 C   0  0  1  0  0  3  0  0  0  0  0  0
  182.2570  176.8560  138.4500 C   0  0  0  0  0  2  0  0  0  0  0  0
  191.3930  176.9620  141.0770 N   0  0  0  0  0  2  0  0  0  0  0  0
  188.6830  176.7150  142.5160 C   0  0  2  0  0  3  0  0  0  0  0  0
  183.1930  177.8240  137.7360 C   0  0  0  0  0  2  0  0  0  0  0  0
  190.3030  177.9170  140.9270 C   0  0  0  0  0  2  0  0  0  0  0  0
  190.9830  176.9660  143.5510 C   0  0  1  0  0  3  0  0  0  0  0  0
  183.2660  178.5710  144.0310 C   0  0  0  0  0  2  0  0  0  0  0  0
  184.4600  178.9190  143.1370 C   0  0  1  0  0  3  0  0  0  0  0  0
  182.9880  179.3350  141.1690 C   0  0  0  0  0  2  0  0  0  0  0  0
  187.8590  178.1120  140.5630 C   0  0  0  0  0  2  0  0  0  0  0  0
  186.1160  178.6540  138.3490 C   0  0  0  0  0  1  0  0  0  0  0  0
  180.4440  177.5630  139.9950 C   0  0  0  0  0  1  0  0  0  0  0  0
  185.3840  178.7460  140.7820 C   0  0  1  0  0  3  0  0  0  0  0  0
  182.5660  178.8410  139.7940 C   0  0  1  0  0  3  0  0  0  0  0  0
  191.6790  176.5250  144.7510 N   0  0  0  0  0  2  0  0  0  0  0  0
  191.1670  176.7540  146.0650 C   0  0  0  0  0  0  0  0  0  0  0  0
  191.9200  176.2530  147.2440 C   0  0  0  0  0  1  0  0  0  0  0  0
  190.0870  177.3800  146.2350 O   0  0  0  0  0  0  0  0  0  0  0  0
  1 20  1  0  0  0  0
  2 24  1  6  0  0  0
  2 12  1  0  0  0  0
  4  3  1  0  0  0  0
  5 25  1  6  0  0  0
  5 27  1  0  0  0  0
  6 18  1  6  0  0  0
  6  5  1  0  0  0  0
  6 28  1  0  0  0  0
  7 24  1  1  0  0  0
  7 17  1  0  0  0  0
  9 26  1  6  0  0  0
 10 20  1  0  0  0  0
 11  3  1  0  0  0  0
 12  8  1  1  0  0  0
 12 13  1  0  0  0  0
 13 11  1  1  0  0  0
 14 23  1  6  0  0  0
 14 22  1  0  0  0  0
 15  9  1  0  0  0  0
 16  1  1  0  0  0  0
 17 10  1  1  0  0  0
 17  8  1  0  0  0  0
 18 15  1  0  0  0  0
 19  7  1  0  0  0  0
 19 16  1  0  0  0  0
 20 29  1  1  0  0  0
 21  4  1  0  0  0  0
 22 13  1  0  0  0  0
 22 21  1  1  0  0  0
 27  2  1  0  0  0  0
 27 14  1  0  0  0  0
 28  9  1  0  0  0  0
 28 23  1  0  0  0  0
 29 30  1  0  0  0  0
 30 32  2  0  0  0  0
 30 31  1  0  0  0  0
M  END
>  <MODEL>
1

>  <REMARK>
 VINA RESULT:      -9.5      0.000      0.000
  Name = 
  1 active torsions:
  status: ('A' for Active; 'I' for Inactive)
    1  A    between atoms: C_20  and  N_29
                            x       y       z     vdW  Elec       q    Type
                         _______ _______ _______ _____ _____    ______ ____

>  <TORSDO>
F 1

$$$$
=
 OpenBabel11122410513D

 32 37  0  0  1  0  0  0  0  0999 V2000
  191.3460  177.3670  144.8820 C   0  0  0  0  0  2  0  0  0  0  0  0
  188.7450  177.3800  139.9580 C   0  0  2  0  0  3  0  0  0  0  0  0
  184.2580  178.9830  141.2360 C   0  0  0  0  0  2  0  0  0  0  0  0
  183.9560  179.3450  139.7860 C   0  0  0  0  0  2  0  0  0  0  0  0
  189.3150  176.8300  137.4960 C   0  0  1  0  0  3  0  0  0  0  0  0
  188.9610  177.0350  136.0070 C   0  0  1  0  0  3  0  0  0  0  0  0
  190.3840  176.7460  141.7850 C   0  0  2  0  0  3  0  0  0  0  0  0
  188.2200  177.9910  142.2920 C   0  0  0  0  0  2  0  0  0  0  0  0
  186.8210  175.9390  135.6460 C   0  0  2  0  0  3  0  0  0  0  0  0
  189.1470  176.3850  144.0440 C   0  0  0  0  0  2  0  0  0  0  0  0
  185.7510  179.1280  141.5060 C   0  0  0  0  0  2  0  0  0  0  0  0
  188.0000  178.2960  140.8560 N   0  0  2  0  0  0  0  0  0  0  0  0
  186.5580  178.2030  140.5760 C   0  0  2  0  0  3  0  0  0  0  0  0
  187.0670  177.7530  138.1510 C   0  0  1  0  0  3  0  0  0  0  0  0
  187.9160  174.9680  135.2410 C   0  0  0  0  0  2  0  0  0  0  0  0
  191.9110  176.7520  143.6810 N   0  0  0  0  0  2  0  0  0  0  0  0
  189.0470  176.7260  142.5540 C   0  0  2  0  0  3  0  0  0  0  0  0
  189.2290  175.7400  135.2600 C   0  0  0  0  0  2  0  0  0  0  0  0
  191.4940  177.5050  142.5060 C   0  0  0  0  0  2  0  0  0  0  0  0
  189.8190  177.5060  144.8390 C   0  0  1  0  0  3  0  0  0  0  0  0
  184.7630  178.4550  138.8470 C   0  0  0  0  0  2  0  0  0  0  0  0
  186.2620  178.6100  139.1240 C   0  0  1  0  0  3  0  0  0  0  0  0
  186.8400  178.2390  136.7280 C   0  0  0  0  0  2  0  0  0  0  0  0
  190.2160  177.3450  140.3880 C   0  0  0  0  0  2  0  0  0  0  0  0
  190.8240  176.9910  137.6050 C   0  0  0  0  0  1  0  0  0  0  0  0
  185.7310  175.9570  134.5940 C   0  0  0  0  0  1  0  0  0  0  0  0
  188.5690  177.7840  138.4720 C   0  0  1  0  0  3  0  0  0  0  0  0
  187.4910  177.2970  135.7280 C   0  0  1  0  0  3  0  0  0  0  0  0
  189.3010  177.5370  146.1990 N   0  0  0  0  0  2  0  0  0  0  0  0
  187.9500  177.8920  146.5000 C   0  0  0  0  0  0  0  0  0  0  0  0
  187.4840  177.8770  147.9110 C   0  0  0  0  0  1  0  0  0  0  0  0
  187.1520  178.2220  145.5830 O   0  0  0  0  0  0  0  0  0  0  0  0
  2 24  1  1  0  0  0
  2 12  1  0  0  0  0
  3 11  1  0  0  0  0
  4  3  1  0  0  0  0
  5 25  1  6  0  0  0
  5 27  1  0  0  0  0
  6 18  1  6  0  0  0
  6  5  1  0  0  0  0
  7 24  1  6  0  0  0
  7 19  1  0  0  0  0
  7 17  1  0  0  0  0
  9 26  1  6  0  0  0
  9 28  1  0  0  0  0
 10 20  1  0  0  0  0
 12  8  1  1  0  0  0
 13 12  1  0  0  0  0
 13 11  1  1  0  0  0
 14 23  1  6  0  0  0
 14 27  1  0  0  0  0
 14 22  1  0  0  0  0
 15 18  1  0  0  0  0
 15  9  1  0  0  0  0
 16  1  1  0  0  0  0
 17  8  1  1  0  0  0
 17 10  1  0  0  0  0
 19 16  1  0  0  0  0
 20  1  1  0  0  0  0
 20 29  1  1  0  0  0
 21  4  1  0  0  0  0
 22 21  1  6  0  0  0
 22 13  1  0  0  0  0
 27  2  1  0  0  0  0
 28  6  1  0  0  0  0
 28 23  1  0  0  0  0
 29 30  1  0  0  0  0
 30 31  1  0  0  0  0
 32 30  2  0  0  0  0
M  END
>  <MODEL>
2

>  <REMARK>
 VINA RESULT:      -9.4      2.561      4.424
  Name = 
  1 active torsions:
  status: ('A' for Active; 'I' for Inactive)
    1  A    between atoms: C_20  and  N_29
                            x       y       z     vdW  Elec       q    Type
                         _______ _______ _______ _____ _____    ______ ____

>  <TORSDO>
F 1

$$$$
=
 OpenBabel11122410513D

 32 37  0  0  1  0  0  0  0  0999 V2000
  189.6900  177.9440  145.9600 C   0  0  0  0  0  2  0  0  0  0  0  0
  189.8860  177.1120  140.4570 C   0  0  2  0  0  3  0  0  0  0  0  0
  185.2720  178.2580  139.1380 C   0  0  0  0  0  2  0  0  0  0  0  0
  185.7100  178.4250  137.6880 C   0  0  0  0  0  2  0  0  0  0  0  0
  191.6350  176.3840  138.6970 C   0  0  1  0  0  3  0  0  0  0  0  0
  192.0570  176.3860  137.2120 C   0  0  1  0  0  3  0  0  0  0  0  0
  190.4330  176.8850  142.9220 C   0  0  2  0  0  3  0  0  0  0  0  0
  188.2350  177.8920  142.1190 C   0  0  0  0  0  2  0  0  0  0  0  0
  190.4480  174.9960  136.0320 C   0  0  2  0  0  3  0  0  0  0  0  0
  188.2600  176.6080  144.3240 C   0  0  0  0  0  2  0  0  0  0  0  0
  186.4220  178.6180  140.0720 C   0  0  0  0  0  2  0  0  0  0  0  0
  188.7410  178.0150  140.7290 N   0  0  2  0  0  0  0  0  0  0  0  0
  187.6370  177.7110  139.8040 C   0  0  2  0  0  3  0  0  0  0  0  0
  189.3100  177.0780  138.0310 C   0  0  1  0  0  3  0  0  0  0  0  0
  191.6540  174.1340  136.3640 C   0  0  0  0  0  2  0  0  0  0  0  0
  190.8120  177.2840  145.2940 N   0  0  0  0  0  2  0  0  0  0  0  0
  188.8940  176.7770  142.9400 C   0  0  2  0  0  3  0  0  0  0  0  0
  192.7370  175.0650  136.8970 C   0  0  0  0  0  2  0  0  0  0  0  0
  190.9910  177.8500  143.9640 C   0  0  0  0  0  2  0  0  0  0  0  0
  188.3810  177.8820  145.1620 C   0  0  1  0  0  3  0  0  0  0  0  0
  186.9280  177.5510  137.4070 C   0  0  0  0  0  2  0  0  0  0  0  0
  188.0790  177.9230  138.3470 C   0  0  1  0  0  3  0  0  0  0  0  0
  189.7920  177.3800  136.6210 C   0  0  0  0  0  2  0  0  0  0  0  0
  190.9480  177.3090  141.5450 C   0  0  0  0  0  2  0  0  0  0  0  0
  192.8780  176.7450  139.4970 C   0  0  0  0  0  1  0  0  0  0  0  0
  190.0270  174.7660  134.5950 C   0  0  0  0  0  1  0  0  0  0  0  0
  190.4480  177.3330  139.0300 C   0  0  1  0  0  3  0  0  0  0  0  0
  190.9080  176.4290  136.2190 C   0  0  1  0  0  3  0  0  0  0  0  0
  187.2540  177.9890  146.0780 N   0  0  0  0  0  2  0  0  0  0  0  0
  185.9430  178.3540  145.6450 C   0  0  0  0  0  0  0  0  0  0  0  0
  184.8350  178.4180  146.6330 C   0  0  0  0  0  1  0  0  0  0  0  0
  185.7160  178.6250  144.4350 O   0  0  0  0  0  0  0  0  0  0  0  0
  2 12  1  0  0  0  0
  2 24  1  1  0  0  0
  3 11  1  0  0  0  0
  4  3  1  0  0  0  0
  5 27  1  0  0  0  0
  5 25  1  1  0  0  0
  6 18  1  6  0  0  0
  6  5  1  0  0  0  0
  7 24  1  6  0  0  0
  7 17  1  0  0  0  0
  7 19  1  0  0  0  0
  9 26  1  6  0  0  0
  9 28  1  0  0  0  0
  9 15  1  0  0  0  0
 10 20  1  0  0  0  0
 12  8  1  1  0  0  0
 13 11  1  1  0  0  0
 13 12  1  0  0  0  0
 14 23  1  6  0  0  0
 14 22  1  0  0  0  0
 14 27  1  0  0  0  0
 15 18  1  0  0  0  0
 16  1  1  0  0  0  0
 17  8  1  1  0  0  0
 17 10  1  0  0  0  0
 19 16  1  0  0  0  0
 20  1  1  0  0  0  0
 20 29  1  1  0  0  0
 21  4  1  0  0  0  0
 22 21  1  6  0  0  0
 22 13  1  0  0  0  0
 27  2  1  0  0  0  0
 28 23  1  0  0  0  0
 28  6  1  0  0  0  0
 30 29  1  0  0  0  0
 30 31  1  0  0  0  0
 32 30  2  0  0  0  0
M  END
>  <MODEL>
3

>  <REMARK>
 VINA RESULT:      -9.1      3.107      6.407
  Name = 
  1 active torsions:
  status: ('A' for Active; 'I' for Inactive)
    1  A    between atoms: C_20  and  N_29
                            x       y       z     vdW  Elec       q    Type
                         _______ _______ _______ _____ _____    ______ ____

>  <TORSDO>
F 1

$$$$
=
 OpenBabel11122410513D

 32 37  0  0  1  0  0  0  0  0999 V2000
  190.3940  177.9820  144.4550 C   0  0  0  0  0  2  0  0  0  0  0  0
  185.9540  178.0940  141.0970 C   0  0  2  0  0  3  0  0  0  0  0  0
  182.3040  178.8130  144.3380 C   0  0  0  0  0  2  0  0  0  0  0  0
  181.3780  179.2720  143.2180 C   0  0  0  0  0  2  0  0  0  0  0  0
  185.4710  177.9040  138.5630 C   0  0  1  0  0  3  0  0  0  0  0  0
  184.4960  178.2040  137.4040 C   0  0  1  0  0  3  0  0  0  0  0  0
  188.2710  177.5430  141.9650 C   0  0  2  0  0  3  0  0  0  0  0  0
  186.4160  178.3640  143.5070 C   0  0  0  0  0  2  0  0  0  0  0  0
  182.5300  176.8240  137.7750 C   0  0  2  0  0  3  0  0  0  0  0  0
  188.1600  176.7530  144.4410 C   0  0  0  0  0  2  0  0  0  0  0  0
  183.7470  179.1660  143.9940 C   0  0  0  0  0  2  0  0  0  0  0  0
  185.5750  178.7790  142.3560 N   0  0  2  0  0  0  0  0  0  0  0  0
  184.1690  178.4860  142.6790 C   0  0  2  0  0  3  0  0  0  0  0  0
  183.6370  178.3810  140.2200 C   0  0  1  0  0  3  0  0  0  0  0  0
  183.4400  176.0880  136.8060 C   0  0  0  0  0  2  0  0  0  0  0  0
  190.4520  177.5960  143.0460 N   0  0  0  0  0  2  0  0  0  0  0  0
  187.4000  177.2280  143.1990 C   0  0  2  0  0  3  0  0  0  0  0  0
  184.5500  177.0550  136.4120 C   0  0  0  0  0  2  0  0  0  0  0  0
  189.4990  178.3910  142.2830 C   0  0  0  0  0  2  0  0  0  0  0  0
  188.9900  177.8780  145.0630 C   0  0  1  0  0  3  0  0  0  0  0  0
  181.7930  178.6270  141.9000 C   0  0  0  0  0  2  0  0  0  0  0  0
  183.2420  178.9900  141.5620 C   0  0  1  0  0  3  0  0  0  0  0  0
  182.7760  178.9710  139.1130 C   0  0  0  0  0  2  0  0  0  0  0  0
  187.4630  178.2510  140.8760 C   0  0  0  0  0  2  0  0  0  0  0  0
  186.8570  178.2920  138.0710 C   0  0  0  0  0  1  0  0  0  0  0  0
  181.1000  176.7770  137.2780 C   0  0  0  0  0  1  0  0  0  0  0  0
  185.1200  178.6180  139.9000 C   0  0  1  0  0  3  0  0  0  0  0  0
  183.0300  178.2550  137.7960 C   0  0  1  0  0  3  0  0  0  0  0  0
  189.1020  177.6820  146.5010 N   0  0  0  0  0  2  0  0  0  0  0  0
  188.0030  177.8790  147.3920 C   0  0  0  0  0  0  0  0  0  0  0  0
  188.1840  177.6360  148.8470 C   0  0  0  0  0  1  0  0  0  0  0  0
  186.8830  178.2610  146.9590 O   0  0  0  0  0  0  0  0  0  0  0  0
  1 20  1  0  0  0  0
  2 24  1  6  0  0  0
  2 12  1  0  0  0  0
  4  3  1  0  0  0  0
  5 25  1  6  0  0  0
  5 27  1  0  0  0  0
  6 18  1  6  0  0  0
  6 28  1  0  0  0  0
  6  5  1  0  0  0  0
  7 24  1  6  0  0  0
  7 19  1  0  0  0  0
  7 17  1  0  0  0  0
  9 26  1  6  0  0  0
  9 28  1  0  0  0  0
 10 20  1  0  0  0  0
 11  3  1  0  0  0  0
 12 13  1  0  0  0  0
 12  8  1  1  0  0  0
 13 11  1  1  0  0  0
 14 23  1  6  0  0  0
 14 22  1  0  0  0  0
 15  9  1  0  0  0  0
 16  1  1  0  0  0  0
 17  8  1  1  0  0  0
 17 10  1  0  0  0  0
 18 15  1  0  0  0  0
 19 16  1  0  0  0  0
 20 29  1  1  0  0  0
 21  4  1  0  0  0  0
 22 21  1  1  0  0  0
 22 13  1  0  0  0  0
 27 14  1  0  0  0  0
 27  2  1  0  0  0  0
 28 23  1  0  0  0  0
 29 30  1  0  0  0  0
 30 31  1  0  0  0  0
 32 30  2  0  0  0  0
M  END
>  <MODEL>
4

>  <REMARK>
 VINA RESULT:      -9.0      1.757      2.302
  Name = 
  1 active torsions:
  status: ('A' for Active; 'I' for Inactive)
    1  A    between atoms: C_20  and  N_29
                            x       y       z     vdW  Elec       q    Type
                         _______ _______ _______ _____ _____    ______ ____

>  <TORSDO>
F 1

$$$$
=
 OpenBabel11122410513D

 32 37  0  0  1  0  0  0  0  0999 V2000
  190.1510  177.2070  137.4900 C   0  0  0  0  0  2  0  0  0  0  0  0
  188.9650  177.3090  142.9310 C   0  0  2  0  0  3  0  0  0  0  0  0
  184.3270  178.9900  142.8810 C   0  0  0  0  0  2  0  0  0  0  0  0
  184.1090  178.4790  144.3000 C   0  0  0  0  0  2  0  0  0  0  0  0
  190.1490  176.7220  145.1530 C   0  0  1  0  0  3  0  0  0  0  0  0
  189.9950  176.3510  146.6450 C   0  0  1  0  0  3  0  0  0  0  0  0
  190.3130  177.3720  140.7840 C   0  0  2  0  0  3  0  0  0  0  0  0
  187.7990  177.7880  140.8080 C   0  0  0  0  0  2  0  0  0  0  0  0
  189.1040  178.3190  147.7610 C   0  0  2  0  0  3  0  0  0  0  0  0
  189.2220  178.9880  139.0610 C   0  0  0  0  0  2  0  0  0  0  0  0
  185.3340  178.1010  142.1590 C   0  0  0  0  0  2  0  0  0  0  0  0
  187.6770  177.2780  142.1960 N   0  0  2  0  0  0  0  0  0  0  0  0
  186.6800  178.0950  142.9050 C   0  0  2  0  0  3  0  0  0  0  0  0
  187.7480  177.4760  145.1010 C   0  0  1  0  0  3  0  0  0  0  0  0
  190.6140  178.3310  147.9300 C   0  0  0  0  0  2  0  0  0  0  0  0
  191.1630  177.0230  138.5290 N   0  0  0  0  0  2  0  0  0  0  0  0
  189.1770  178.3660  140.4610 C   0  0  2  0  0  3  0  0  0  0  0  0
  191.1310  176.9890  147.4250 C   0  0  0  0  0  2  0  0  0  0  0  0
  190.5680  176.3530  139.6780 C   0  0  0  0  0  2  0  0  0  0  0  0
  188.9040  177.9600  137.9740 C   0  0  1  0  0  3  0  0  0  0  0  0
  185.4360  178.4440  145.0510 C   0  0  0  0  0  2  0  0  0  0  0  0
  186.4380  177.5450  144.3200 C   0  0  1  0  0  3  0  0  0  0  0  0
  187.5050  176.8330  146.4570 C   0  0  0  0  0  2  0  0  0  0  0  0
  190.0400  176.6160  142.0850 C   0  0  0  0  0  2  0  0  0  0  0  0
  191.1830  175.7670  144.5770 C   0  0  0  0  0  1  0  0  0  0  0  0
  188.4330  178.6340  149.0820 C   0  0  0  0  0  1  0  0  0  0  0  0
  188.8230  176.6840  144.3410 C   0  0  1  0  0  3  0  0  0  0  0  0
  188.7550  176.9100  147.3200 C   0  0  1  0  0  3  0  0  0  0  0  0
  188.2660  178.6110  136.8390 N   0  0  0  0  0  2  0  0  0  0  0  0
  187.4200  177.9100  135.9270 C   0  0  0  0  0  0  0  0  0  0  0  0
  186.7810  178.6460  134.8040 C   0  0  0  0  0  1  0  0  0  0  0  0
  187.2120  176.6750  136.0600 O   0  0  0  0  0  0  0  0  0  0  0  0
  1 20  1  0  0  0  0
  1 16  1  0  0  0  0
  2 24  1  6  0  0  0
  2 27  1  0  0  0  0
  3  4  1  0  0  0  0
  4 21  1  0  0  0  0
  5 25  1  6  0  0  0
  5  6  1  0  0  0  0
  6 28  1  0  0  0  0
  6 18  1  1  0  0  0
  7 19  1  6  0  0  0
  7 24  1  0  0  0  0
  9 15  1  0  0  0  0
  9 26  1  1  0  0  0
 11  3  1  0  0  0  0
 12  8  1  6  0  0  0
 12 13  1  0  0  0  0
 12  2  1  0  0  0  0
 13 11  1  6  0  0  0
 13 22  1  0  0  0  0
 14 23  1  1  0  0  0
 16 19  1  0  0  0  0
 17 10  1  6  0  0  0
 17  7  1  0  0  0  0
 17  8  1  0  0  0  0
 18 15  1  0  0  0  0
 20 29  1  6  0  0  0
 20 10  1  0  0  0  0
 22 21  1  1  0  0  0
 22 14  1  0  0  0  0
 23 28  1  0  0  0  0
 27 14  1  0  0  0  0
 27  5  1  0  0  0  0
 28  9  1  0  0  0  0
 30 32  2  0  0  0  0
 30 29  1  0  0  0  0
 31 30  1  0  0  0  0
M  END
>  <MODEL>
5

>  <REMARK>
 VINA RESULT:      -8.9      3.105      7.291
  Name = 
  1 active torsions:
  status: ('A' for Active; 'I' for Inactive)
    1  A    between atoms: C_20  and  N_29
                            x       y       z     vdW  Elec       q    Type
                         _______ _______ _______ _____ _____    ______ ____

>  <TORSDO>
F 1

$$$$
=
 OpenBabel11122410513D

 32 37  0  0  1  0  0  0  0  0999 V2000
  188.8880  178.1260  145.3740 C   0  0  0  0  0  2  0  0  0  0  0  0
  190.3140  176.9870  140.1130 C   0  0  2  0  0  3  0  0  0  0  0  0
  186.0470  177.7640  137.7620 C   0  0  0  0  0  2  0  0  0  0  0  0
  186.7810  177.8730  136.4300 C   0  0  0  0  0  2  0  0  0  0  0  0
  192.4370  176.2670  138.8230 C   0  0  1  0  0  3  0  0  0  0  0  0
  193.1710  176.2080  137.4660 C   0  0  1  0  0  3  0  0  0  0  0  0
  190.3240  176.9390  142.6470 C   0  0  2  0  0  3  0  0  0  0  0  0
  188.3060  177.7590  141.3250 C   0  0  0  0  0  2  0  0  0  0  0  0
  191.9250  174.6540  136.0710 C   0  0  2  0  0  3  0  0  0  0  0  0
  187.9140  176.6100  143.5690 C   0  0  0  0  0  2  0  0  0  0  0  0
  186.9480  178.2490  138.8920 C   0  0  0  0  0  2  0  0  0  0  0  0
  189.0960  177.8310  140.0700 N   0  0  2  0  0  0  0  0  0  0  0  0
  188.2340  177.4050  138.9540 C   0  0  2  0  0  3  0  0  0  0  0  0
  190.2810  176.7750  137.6280 C   0  0  1  0  0  3  0  0  0  0  0  0
  193.0700  173.8900  136.7120 C   0  0  0  0  0  2  0  0  0  0  0  0
  190.1590  177.4990  145.0110 N   0  0  0  0  0  2  0  0  0  0  0  0
  188.8240  176.7360  142.3440 C   0  0  2  0  0  3  0  0  0  0  0  0
  193.9650  174.9160  137.3970 C   0  0  0  0  0  2  0  0  0  0  0  0
  190.5950  177.9960  143.7130 C   0  0  0  0  0  2  0  0  0  0  0  0
  187.7880  177.9370  144.3210 C   0  0  1  0  0  3  0  0  0  0  0  0
  188.0710  177.0620  136.4780 C   0  0  0  0  0  2  0  0  0  0  0  0
  188.9710  177.5590  137.6140 C   0  0  1  0  0  3  0  0  0  0  0  0
  191.0430  177.0230  136.3360 C   0  0  0  0  0  2  0  0  0  0  0  0
  191.1040  177.3130  141.3860 C   0  0  0  0  0  2  0  0  0  0  0  0
  193.4570  176.7510  139.8420 C   0  0  0  0  0  1  0  0  0  0  0  0
  191.8370  174.3140  134.5980 C   0  0  0  0  0  1  0  0  0  0  0  0
  191.1620  177.1580  138.8270 C   0  0  1  0  0  3  0  0  0  0  0  0
  192.2640  176.1210  136.2500 C   0  0  1  0  0  3  0  0  0  0  0  0
  186.4860  178.0270  144.9660 N   0  0  0  0  0  2  0  0  0  0  0  0
  185.3460  178.5960  144.3200 C   0  0  0  0  0  0  0  0  0  0  0  0
  184.0410  178.6320  145.0310 C   0  0  0  0  0  1  0  0  0  0  0  0
  185.4360  179.0730  143.1570 O   0  0  0  0  0  0  0  0  0  0  0  0
  2 24  1  1  0  0  0
  3 11  1  0  0  0  0
  4 21  1  0  0  0  0
  4  3  1  0  0  0  0
  5 27  1  0  0  0  0
  5 25  1  1  0  0  0
  6 18  1  1  0  0  0
  6  5  1  0  0  0  0
  7 24  1  6  0  0  0
  7 19  1  0  0  0  0
  9 26  1  6  0  0  0
  9 28  1  0  0  0  0
  9 15  1  0  0  0  0
 10 20  1  0  0  0  0
 12  2  1  0  0  0  0
 12  8  1  1  0  0  0
 13 11  1  6  0  0  0
 13 12  1  0  0  0  0
 14 23  1  6  0  0  0
 14 27  1  0  0  0  0
 15 18  1  0  0  0  0
 16  1  1  0  0  0  0
 17  8  1  1  0  0  0
 17  7  1  0  0  0  0
 17 10  1  0  0  0  0
 19 16  1  0  0  0  0
 20 29  1  1  0  0  0
 20  1  1  0  0  0  0
 22 21  1  6  0  0  0
 22 14  1  0  0  0  0
 22 13  1  0  0  0  0
 27  2  1  0  0  0  0
 28 23  1  0  0  0  0
 28  6  1  0  0  0  0
 30 29  1  0  0  0  0
 30 31  1  0  0  0  0
 32 30  2  0  0  0  0
M  END
>  <MODEL>
6

>  <REMARK>
 VINA RESULT:      -8.7      3.422      7.329
  Name = 
  1 active torsions:
  status: ('A' for Active; 'I' for Inactive)
    1  A    between atoms: C_20  and  N_29
                            x       y       z     vdW  Elec       q    Type
                         _______ _______ _______ _____ _____    ______ ____

>  <TORSDO>
F 1

$$$$
=
 OpenBabel11122410513D

 32 37  0  0  1  0  0  0  0  0999 V2000
  181.3770  179.1910  141.1540 C   0  0  0  0  0  2  0  0  0  0  0  0
  186.1430  178.2650  143.8820 C   0  0  2  0  0  3  0  0  0  0  0  0
  189.2520  177.4250  140.1450 C   0  0  0  0  0  2  0  0  0  0  0  0
  190.4450  177.6890  141.0560 C   0  0  0  0  0  2  0  0  0  0  0  0
  186.9600  178.2150  146.3350 C   0  0  1  0  0  3  0  0  0  0  0  0
  188.1570  178.3190  147.3050 C   0  0  1  0  0  3  0  0  0  0  0  0
  183.6560  178.3830  143.4030 C   0  0  2  0  0  3  0  0  0  0  0  0
  185.3890  178.3970  141.5350 C   0  0  0  0  0  2  0  0  0  0  0  0
  189.5360  176.3540  146.9160 C   0  0  2  0  0  3  0  0  0  0  0  0
  183.1160  177.3270  141.0870 C   0  0  0  0  0  2  0  0  0  0  0  0
  188.0570  178.2530  140.6040 C   0  0  0  0  0  2  0  0  0  0  0  0
  186.4940  178.6500  142.4940 N   0  0  2  0  0  0  0  0  0  0  0  0
  187.6760  177.8920  142.0510 C   0  0  2  0  0  3  0  0  0  0  0  0
  188.5520  177.8990  144.4120 C   0  0  1  0  0  3  0  0  0  0  0  0
  188.6220  176.0570  148.0930 C   0  0  0  0  0  2  0  0  0  0  0  0
  181.4420  179.0030  142.6030 N   0  0  0  0  0  2  0  0  0  0  0  0
  184.1780  177.6720  142.1360 C   0  0  2  0  0  3  0  0  0  0  0  0
  187.9310  177.3640  148.4630 C   0  0  0  0  0  2  0  0  0  0  0  0
  182.7000  179.5340  143.1080 C   0  0  0  0  0  2  0  0  0  0  0  0
  182.5670  178.5800  140.4020 C   0  0  1  0  0  3  0  0  0  0  0  0
  190.0820  177.3590  142.5000 C   0  0  0  0  0  2  0  0  0  0  0  0
  188.8820  178.1980  142.9530 C   0  0  1  0  0  3  0  0  0  0  0  0
  189.7200  178.3050  145.2980 C   0  0  0  0  0  2  0  0  0  0  0  0
  184.8060  178.9150  144.2590 C   0  0  0  0  0  2  0  0  0  0  0  0
  185.8530  179.0750  146.9260 C   0  0  0  0  0  1  0  0  0  0  0  0
  190.9500  175.9120  147.2360 C   0  0  0  0  0  1  0  0  0  0  0  0
  187.2800  178.6270  144.8700 C   0  0  1  0  0  3  0  0  0  0  0  0
  189.4870  177.8580  146.7330 C   0  0  1  0  0  3  0  0  0  0  0  0
  182.1660  178.2710  139.0380 N   0  0  0  0  0  2  0  0  0  0  0  0
  183.1050  178.1520  137.9680 C   0  0  0  0  0  0  0  0  0  0  0  0
  182.6240  177.8090  136.6040 C   0  0  0  0  0  1  0  0  0  0  0  0
  184.3350  178.3390  138.1670 O   0  0  0  0  0  0  0  0  0  0  0  0
  1 16  1  0  0  0  0
  2 24  1  1  0  0  0
  2 27  1  0  0  0  0
  3 11  1  0  0  0  0
  3  4  1  0  0  0  0
  4 21  1  0  0  0  0
  5 25  1  1  0  0  0
  5  6  1  0  0  0  0
  6 18  1  1  0  0  0
  7 19  1  6  0  0  0
  7 24  1  0  0  0  0
  8 17  1  0  0  0  0
  9 26  1  1  0  0  0
  9 15  1  0  0  0  0
 12  8  1  6  0  0  0
 12  2  1  0  0  0  0
 13 11  1  6  0  0  0
 13 12  1  0  0  0  0
 13 22  1  0  0  0  0
 14 27  1  0  0  0  0
 14 23  1  1  0  0  0
 15 18  1  0  0  0  0
 16 19  1  0  0  0  0
 17 10  1  6  0  0  0
 17  7  1  0  0  0  0
 20 29  1  6  0  0  0
 20 10  1  0  0  0  0
 20  1  1  0  0  0  0
 22 21  1  6  0  0  0
 22 14  1  0  0  0  0
 23 28  1  0  0  0  0
 27  5  1  0  0  0  0
 28  9  1  0  0  0  0
 28  6  1  0  0  0  0
 30 32  2  0  0  0  0
 30 29  1  0  0  0  0
 31 30  1  0  0  0  0
M  END
>  <MODEL>
7

>  <REMARK>
 VINA RESULT:      -8.5      2.765      8.441
  Name = 
  1 active torsions:
  status: ('A' for Active; 'I' for Inactive)
    1  A    between atoms: C_20  and  N_29
                            x       y       z     vdW  Elec       q    Type
                         _______ _______ _______ _____ _____    ______ ____

>  <TORSDO>
F 1

$$$$
=
 OpenBabel11122410513D

 32 37  0  0  1  0  0  0  0  0999 V2000
  192.1970  175.2150  135.3190 C   0  0  0  0  0  2  0  0  0  0  0  0
  188.5890  177.2610  139.0350 C   0  0  2  0  0  3  0  0  0  0  0  0
  191.2670  177.1020  143.1750 C   0  0  0  0  0  2  0  0  0  0  0  0
  190.3210  178.0920  143.8450 C   0  0  0  0  0  2  0  0  0  0  0  0
  186.1690  178.1700  139.0450 C   0  0  1  0  0  3  0  0  0  0  0  0
  185.1140  179.0390  139.7640 C   0  0  1  0  0  3  0  0  0  0  0  0
  189.4730  176.1020  136.9610 C   0  0  2  0  0  3  0  0  0  0  0  0
  190.9300  176.4770  139.0170 C   0  0  0  0  0  2  0  0  0  0  0  0
  184.5840  177.9030  141.8480 C   0  0  2  0  0  3  0  0  0  0  0  0
  191.3460  174.4070  137.5830 C   0  0  0  0  0  2  0  0  0  0  0  0
  191.3160  177.3660  141.6750 C   0  0  0  0  0  2  0  0  0  0  0  0
  189.9510  177.4270  139.6000 N   0  0  2  0  0  0  0  0  0  0  0  0
  189.9140  177.2210  141.0570 C   0  0  2  0  0  3  0  0  0  0  0  0
  187.5870  178.1840  141.1240 C   0  0  1  0  0  3  0  0  0  0  0  0
  183.5390  177.5030  140.8200 C   0  0  0  0  0  2  0  0  0  0  0  0
  190.7800  175.4230  135.0220 N   0  0  0  0  0  2  0  0  0  0  0  0
  190.3210  175.4380  138.0660 C   0  0  2  0  0  3  0  0  0  0  0  0
  183.7510  178.3890  139.5980 C   0  0  0  0  0  2  0  0  0  0  0  0
  190.2910  176.5770  135.7640 C   0  0  0  0  0  2  0  0  0  0  0  0
  192.4950  175.0650  136.8170 C   0  0  1  0  0  3  0  0  0  0  0  0
  188.9300  177.9800  143.2310 C   0  0  0  0  0  2  0  0  0  0  0  0
  188.9890  178.2510  141.7250 C   0  0  1  0  0  3  0  0  0  0  0  0
  186.7180  179.2780  141.7230 C   0  0  0  0  0  2  0  0  0  0  0  0
  188.6760  177.2890  137.5040 C   0  0  0  0  0  2  0  0  0  0  0  0
  186.0910  178.5330  137.5700 C   0  0  0  0  0  1  0  0  0  0  0  0
  183.9110  178.2530  143.1590 C   0  0  0  0  0  1  0  0  0  0  0  0
  187.6150  178.3280  139.5950 C   0  0  1  0  0  3  0  0  0  0  0  0
  185.2740  179.1250  141.2720 C   0  0  1  0  0  3  0  0  0  0  0  0
  193.7180  174.2960  136.9880 N   0  0  0  0  0  2  0  0  0  0  0  0
  194.7020  174.6250  137.9700 C   0  0  0  0  0  0  0  0  0  0  0  0
  195.9170  173.7790  138.1060 C   0  0  0  0  0  1  0  0  0  0  0  0
  194.5550  175.6280  138.7190 O   0  0  0  0  0  0  0  0  0  0  0  0
  1 20  1  0  0  0  0
  2 24  1  6  0  0  0
  2 27  1  0  0  0  0
  2 12  1  0  0  0  0
  3  4  1  0  0  0  0
  5 25  1  6  0  0  0
  5 27  1  0  0  0  0
  5  6  1  0  0  0  0
  6 18  1  1  0  0  0
  6 28  1  0  0  0  0
  7 19  1  6  0  0  0
  7 24  1  0  0  0  0
  7 17  1  0  0  0  0
  9 26  1  1  0  0  0
 11  3  1  0  0  0  0
 12  8  1  6  0  0  0
 12 13  1  0  0  0  0
 13 11  1  1  0  0  0
 13 22  1  0  0  0  0
 14 23  1  1  0  0  0
 14 22  1  0  0  0  0
 15  9  1  0  0  0  0
 16  1  1  0  0  0  0
 16 19  1  0  0  0  0
 17 10  1  6  0  0  0
 17  8  1  0  0  0  0
 18 15  1  0  0  0  0
 20 29  1  6  0  0  0
 20 10  1  0  0  0  0
 21  4  1  0  0  0  0
 22 21  1  1  0  0  0
 27 14  1  0  0  0  0
 28 23  1  0  0  0  0
 28  9  1  0  0  0  0
 29 30  1  0  0  0  0
 30 31  1  0  0  0  0
 30 32  2  0  0  0  0
M  END
>  <MODEL>
8

>  <REMARK>
 VINA RESULT:      -8.4      3.637      5.525
  Name = 
  1 active torsions:
  status: ('A' for Active; 'I' for Inactive)
    1  A    between atoms: C_20  and  N_29
                            x       y       z     vdW  Elec       q    Type
                         _______ _______ _______ _____ _____    ______ ____

>  <TORSDO>
F 1

$$$$
=
 OpenBabel11122410513D

 32 37  0  0  1  0  0  0  0  0999 V2000
  182.2960  179.4760  142.7590 C   0  0  0  0  0  2  0  0  0  0  0  0
  187.5120  177.9270  143.9430 C   0  0  2  0  0  3  0  0  0  0  0  0
  189.4260  177.4310  139.4230 C   0  0  0  0  0  2  0  0  0  0  0  0
  190.8370  177.5030  139.9940 C   0  0  0  0  0  2  0  0  0  0  0  0
  188.9440  177.5000  146.0530 C   0  0  1  0  0  3  0  0  0  0  0  0
  190.3610  177.4050  146.6600 C   0  0  1  0  0  3  0  0  0  0  0  0
  185.0090  178.2460  144.1840 C   0  0  2  0  0  3  0  0  0  0  0  0
  186.1760  178.4180  141.9250 C   0  0  0  0  0  2  0  0  0  0  0  0
  191.4040  175.4380  145.6830 C   0  0  2  0  0  3  0  0  0  0  0  0
  183.7790  177.5460  142.0010 C   0  0  0  0  0  2  0  0  0  0  0  0
  188.4750  178.2540  140.2850 C   0  0  0  0  0  2  0  0  0  0  0  0
  187.5140  178.4770  142.5650 N   0  0  2  0  0  0  0  0  0  0  0  0
  188.4620  177.7220  141.7300 C   0  0  2  0  0  3  0  0  0  0  0  0
  189.9320  177.3600  143.7430 C   0  0  1  0  0  3  0  0  0  0  0  0
  190.8130  175.0360  147.0240 C   0  0  0  0  0  2  0  0  0  0  0  0
  182.7260  179.0900  144.1020 N   0  0  0  0  0  2  0  0  0  0  0  0
  185.1080  177.6870  142.7490 C   0  0  2  0  0  3  0  0  0  0  0  0
  190.3660  176.3160  147.7180 C   0  0  0  0  0  2  0  0  0  0  0  0
  184.1160  179.4780  144.2990 C   0  0  0  0  0  2  0  0  0  0  0  0
  183.1820  178.9080  141.6430 C   0  0  1  0  0  3  0  0  0  0  0  0
  190.8420  177.0010  141.4340 C   0  0  0  0  0  2  0  0  0  0  0  0
  189.8870  177.8360  142.2930 C   0  0  1  0  0  3  0  0  0  0  0  0
  191.3250  177.5780  144.3130 C   0  0  0  0  0  2  0  0  0  0  0  0
  186.3880  178.5930  144.7460 C   0  0  0  0  0  2  0  0  0  0  0  0
  188.1170  178.3320  147.0210 C   0  0  0  0  0  1  0  0  0  0  0  0
  192.8060  174.8800  145.5480 C   0  0  0  0  0  1  0  0  0  0  0  0
  188.8990  178.0890  144.6140 C   0  0  1  0  0  3  0  0  0  0  0  0
  191.4440  176.9540  145.6950 C   0  0  1  0  0  3  0  0  0  0  0  0
  182.4060  178.8100  140.4160 N   0  0  0  0  0  2  0  0  0  0  0  0
  182.8190  179.4230  139.1940 C   0  0  0  0  0  0  0  0  0  0  0  0
  181.9880  179.2580  137.9720 C   0  0  0  0  0  1  0  0  0  0  0  0
  183.8770  180.1040  139.1400 O   0  0  0  0  0  0  0  0  0  0  0  0
  1 16  1  0  0  0  0
  2 27  1  0  0  0  0
  2 24  1  1  0  0  0
  3  4  1  0  0  0  0
  3 11  1  0  0  0  0
  4 21  1  0  0  0  0
  5  6  1  0  0  0  0
  5 25  1  1  0  0  0
  6 18  1  1  0  0  0
  7 19  1  6  0  0  0
  7 24  1  0  0  0  0
  9 26  1  1  0  0  0
  9 28  1  0  0  0  0
  9 15  1  0  0  0  0
 10 17  1  0  0  0  0
 12  8  1  6  0  0  0
 12  2  1  0  0  0  0
 13 11  1  6  0  0  0
 13 22  1  0  0  0  0
 13 12  1  0  0  0  0
 14 23  1  1  0  0  0
 14 27  1  0  0  0  0
 15 18  1  0  0  0  0
 16 19  1  0  0  0  0
 17  8  1  6  0  0  0
 17  7  1  0  0  0  0
 20 29  1  6  0  0  0
 20 10  1  0  0  0  0
 20  1  1  0  0  0  0
 22 21  1  6  0  0  0
 22 14  1  0  0  0  0
 23 28  1  0  0  0  0
 27  5  1  0  0  0  0
 28  6  1  0  0  0  0
 30 29  1  0  0  0  0
 31 30  1  0  0  0  0
 32 30  2  0  0  0  0
M  END
>  <MODEL>
9

>  <REMARK>
 VINA RESULT:      -7.0      2.571      8.613
  Name = 
  1 active torsions:
  status: ('A' for Active; 'I' for Inactive)
    1  A    between atoms: C_20  and  N_29
                            x       y       z     vdW  Elec       q    Type
                         _______ _______ _______ _____ _____    ______ ____

>  <TORSDO>
F 1

$$$$
