=
 OpenBabel11122411523D

 28 31  0  0  1  0  0  0  0  0999 V2000
  180.7400  179.2750  142.6580 C   0  0  0  0  0  0  0  0  0  0  0  0
  179.4270  176.5630  140.4110 O   0  0  0  0  0  0  0  0  0  0  0  0
  179.4510  180.8240  140.7120 C   0  0  0  0  0  3  0  0  0  0  0  0
  181.5110  178.5670  143.7310 C   0  0  0  0  0  2  0  0  0  0  0  0
  180.0910  177.8850  138.4310 O   0  0  0  0  0  0  0  0  0  0  0  0
  180.4830  176.7720  139.3620 S   0  0  0  0  0  0  0  0  0  0  0  0
  182.0240  175.3960  137.5770 C   0  0  2  0  0  3  0  0  0  0  0  0
  182.0290  177.0550  140.0900 N   0  0  1  0  0  0  0  0  0  0  0  0
  185.1960  179.2510  144.6690 C   0  0  0  0  0  1  0  0  0  0  0  0
  183.5450  178.9060  140.5510 C   0  0  2  0  0  3  0  0  0  0  0  0
  183.2560  175.8330  138.3890 C   0  0  0  0  0  2  0  0  0  0  0  0
  180.7410  175.2800  138.4160 C   0  0  0  0  0  2  0  0  0  0  0  0
  184.0280  178.5450  143.9970 C   0  0  2  0  0  3  0  0  0  0  0  0
  181.0960  179.1400  141.3020 C   0  0  0  0  0  0  0  0  0  0  0  0
  182.2840  174.1770  136.9530 O   0  0  0  0  0  1  0  0  0  0  0  0
  184.3630  178.0940  142.6950 O   0  0  0  0  0  0  0  0  0  0  0  0
  180.4710  179.9440  140.3420 C   0  0  0  0  0  3  0  0  0  0  0  0
  179.7230  180.1640  143.0250 C   0  0  0  0  0  3  0  0  0  0  0  0
  179.0710  180.9270  142.0530 C   0  0  0  0  0  3  0  0  0  0  0  0
  182.7450  179.3820  144.0910 C   0  0  0  0  0  2  0  0  0  0  0  0
  184.1890  177.9170  139.5870 C   0  0  1  0  0  3  0  0  0  0  0  0
  184.3940  179.1870  141.8020 C   0  0  1  0  0  3  0  0  0  0  0  0
  182.9830  177.1980  139.0090 C   0  0  2  0  0  3  0  0  0  0  0  0
  182.2390  178.2340  140.9380 C   0  0  1  0  0  3  0  0  0  0  0  0
  186.4570  178.3820  141.8730 C   0  0  0  0  0  1  0  0  0  0  0  0
  185.7150  179.4880  141.4560 O   0  0  0  0  0  0  0  0  0  0  0  0
  184.9320  178.6760  138.4980 C   0  0  0  0  0  2  0  0  0  0  0  0
  186.2540  178.0000  138.1890 C   0  0  0  0  0  1  0  0  0  0  0  0
  1 18  1  0  0  0  0
  1  4  1  0  0  0  0
  3 19  1  0  0  0  0
  4 20  1  0  0  0  0
  5  6  2  0  0  0  0
  6  2  2  0  0  0  0
  7 15  1  1  0  0  0
  7 11  1  0  0  0  0
  7 12  1  0  0  0  0
  8  6  1  6  0  0  0
  8 24  1  0  0  0  0
 10 24  1  0  0  0  0
 10 22  1  0  0  0  0
 11 23  1  0  0  0  0
 12  6  1  0  0  0  0
 13 20  1  0  0  0  0
 13  9  1  0  0  0  0
 14  1  2  0  0  0  0
 16 13  1  0  0  0  0
 17  3  2  0  0  0  0
 17 14  1  0  0  0  0
 19 18  2  0  0  0  0
 21 10  1  0  0  0  0
 22 16  1  0  0  0  0
 23 21  1  0  0  0  0
 23  8  1  0  0  0  0
 24 14  1  0  0  0  0
 26 22  1  0  0  0  0
 26 25  1  0  0  0  0
 27 21  1  0  0  0  0
 28 27  1  0  0  0  0
M  END
>  <MODEL>
1

>  <REMARK>
 VINA RESULT:      -6.8      0.000      0.000
  Name = 
  2 active torsions:
  status: ('A' for Active; 'I' for Inactive)
    1  A    between atoms: C_5  and  C_24
    2  A    between atoms: O_17  and  C_25
                            x       y       z     vdW  Elec       q    Type
                         _______ _______ _______ _____ _____    ______ ____

>  <TORSDO>
F 2

$$$$
=
 OpenBabel11122411523D

 28 31  0  0  1  0  0  0  0  0999 V2000
  185.1670  175.6220  136.0070 C   0  0  0  0  0  0  0  0  0  0  0  0
  181.6770  177.0110  135.8450 O   0  0  0  0  0  0  0  0  0  0  0  0
  183.8140  173.7510  137.5930 C   0  0  0  0  0  3  0  0  0  0  0  0
  186.0150  176.5810  135.2280 C   0  0  0  0  0  2  0  0  0  0  0  0
  181.3920  176.5680  138.2600 O   0  0  0  0  0  0  0  0  0  0  0  0
  181.7330  177.6030  137.2250 S   0  0  0  0  0  0  0  0  0  0  0  0
  180.8900  179.7700  138.6560 C   0  0  2  0  0  3  0  0  0  0  0  0
  183.2790  178.3280  137.5240 N   0  0  1  0  0  0  0  0  0  0  0  0
  189.1830  178.3570  136.5480 C   0  0  0  0  0  1  0  0  0  0  0  0
  185.3400  177.8550  138.7330 C   0  0  2  0  0  3  0  0  0  0  0  0
  182.3670  180.1690  138.8160 C   0  0  0  0  0  2  0  0  0  0  0  0
  180.6010  178.9760  137.3720 C   0  0  0  0  0  2  0  0  0  0  0  0
  187.7140  178.1950  136.1860 C   0  0  2  0  0  3  0  0  0  0  0  0
  184.4410  176.0510  137.1350 C   0  0  0  0  0  0  0  0  0  0  0  0
  180.0920  180.9120  138.6860 O   0  0  0  0  0  1  0  0  0  0  0  0
  186.8670  178.8470  137.1180 O   0  0  0  0  0  0  0  0  0  0  0  0
  183.7980  175.1040  137.9420 C   0  0  0  0  0  3  0  0  0  0  0  0
  185.1870  174.2650  135.6670 C   0  0  0  0  0  3  0  0  0  0  0  0
  184.5020  173.3330  136.4510 C   0  0  0  0  0  3  0  0  0  0  0  0
  187.3710  176.7260  135.9050 C   0  0  0  0  0  2  0  0  0  0  0  0
  184.6580  179.0920  139.3050 C   0  0  1  0  0  3  0  0  0  0  0  0
  186.7990  178.0960  138.3120 C   0  0  1  0  0  3  0  0  0  0  0  0
  183.2220  178.9080  138.8500 C   0  0  2  0  0  3  0  0  0  0  0  0
  184.4910  177.5020  137.5240 C   0  0  1  0  0  3  0  0  0  0  0  0
  188.2550  177.7250  139.9400 C   0  0  0  0  0  1  0  0  0  0  0  0
  187.5160  178.7380  139.3270 O   0  0  0  0  0  0  0  0  0  0  0  0
  184.7460  179.0670  140.8240 C   0  0  0  0  0  2  0  0  0  0  0  0
  183.8200  178.0080  141.3900 C   0  0  0  0  0  1  0  0  0  0  0  0
  1 14  1  0  0  0  0
  2  6  2  0  0  0  0
  3 17  1  0  0  0  0
  4 20  1  0  0  0  0
  4  1  1  0  0  0  0
  6 12  1  0  0  0  0
  6  5  2  0  0  0  0
  7 15  1  6  0  0  0
  7 11  1  0  0  0  0
  8  6  1  1  0  0  0
  8 24  1  0  0  0  0
  8 23  1  0  0  0  0
 10 21  1  0  0  0  0
 11 23  1  0  0  0  0
 12  7  1  0  0  0  0
 13  9  1  0  0  0  0
 13 16  1  0  0  0  0
 14 24  1  0  0  0  0
 14 17  2  0  0  0  0
 16 22  1  0  0  0  0
 18  1  2  0  0  0  0
 18 19  1  0  0  0  0
 19  3  2  0  0  0  0
 20 13  1  0  0  0  0
 21 27  1  0  0  0  0
 22 10  1  0  0  0  0
 22 26  1  0  0  0  0
 23 21  1  0  0  0  0
 24 10  1  0  0  0  0
 26 25  1  0  0  0  0
 27 28  1  0  0  0  0
M  END
>  <MODEL>
2

>  <REMARK>
 VINA RESULT:      -6.3      2.717      6.270
  Name = 
  2 active torsions:
  status: ('A' for Active; 'I' for Inactive)
    1  A    between atoms: C_5  and  C_24
    2  A    between atoms: O_17  and  C_25
                            x       y       z     vdW  Elec       q    Type
                         _______ _______ _______ _____ _____    ______ ____

>  <TORSDO>
F 2

$$$$
=
 OpenBabel11122411523D

 28 31  0  0  1  0  0  0  0  0999 V2000
  186.1830  175.0170  136.4120 C   0  0  0  0  0  0  0  0  0  0  0  0
  182.9060  175.3150  134.5950 O   0  0  0  0  0  0  0  0  0  0  0  0
  184.7060  173.0300  137.7240 C   0  0  0  0  0  3  0  0  0  0  0  0
  187.0610  176.0830  135.8300 C   0  0  0  0  0  2  0  0  0  0  0  0
  181.6990  175.0880  136.7390 O   0  0  0  0  0  0  0  0  0  0  0  0
  182.2290  176.0530  135.7150 S   0  0  0  0  0  0  0  0  0  0  0  0
  180.4080  178.0340  136.1760 C   0  0  2  0  0  3  0  0  0  0  0  0
  183.2970  177.2200  136.4210 N   0  0  1  0  0  0  0  0  0  0  0  0
  188.8820  178.8340  137.8420 C   0  0  0  0  0  1  0  0  0  0  0  0
  184.6750  177.5020  138.4100 C   0  0  2  0  0  3  0  0  0  0  0  0
  181.5460  178.8570  136.8040 C   0  0  0  0  0  2  0  0  0  0  0  0
  180.8830  177.0490  135.0950 C   0  0  0  0  0  2  0  0  0  0  0  0
  187.7880  178.2160  136.9840 C   0  0  2  0  0  3  0  0  0  0  0  0
  184.9660  175.3450  137.0400 C   0  0  0  0  0  0  0  0  0  0  0  0
  179.4540  178.8940  135.6350 O   0  0  0  0  0  1  0  0  0  0  0  0
  186.5030  178.6990  137.3390 O   0  0  0  0  0  0  0  0  0  0  0  0
  184.2530  174.3520  137.7230 C   0  0  0  0  0  3  0  0  0  0  0  0
  186.6370  173.6930  136.4230 C   0  0  0  0  0  3  0  0  0  0  0  0
  185.8940  172.7000  137.0650 C   0  0  0  0  0  3  0  0  0  0  0  0
  187.9220  176.6880  136.9310 C   0  0  0  0  0  2  0  0  0  0  0  0
  183.5660  178.5470  138.3760 C   0  0  1  0  0  3  0  0  0  0  0  0
  186.0830  178.1020  138.5480 C   0  0  1  0  0  3  0  0  0  0  0  0
  182.5470  177.9070  137.4510 C   0  0  2  0  0  3  0  0  0  0  0  0
  184.5330  176.7830  137.0790 C   0  0  1  0  0  3  0  0  0  0  0  0
  186.7640  178.3680  140.6400 C   0  0  0  0  0  1  0  0  0  0  0  0
  186.1330  179.0360  139.5890 O   0  0  0  0  0  0  0  0  0  0  0  0
  182.9880  178.7230  139.7720 C   0  0  0  0  0  2  0  0  0  0  0  0
  182.9930  177.4020  140.5180 C   0  0  0  0  0  1  0  0  0  0  0  0
  1 18  2  0  0  0  0
  1 14  1  0  0  0  0
  2  6  2  0  0  0  0
  4  1  1  0  0  0  0
  4 20  1  0  0  0  0
  6  5  2  0  0  0  0
  7 15  1  6  0  0  0
  7 11  1  0  0  0  0
  8  6  1  1  0  0  0
  8 24  1  0  0  0  0
  8 23  1  0  0  0  0
 10 22  1  0  0  0  0
 11 23  1  0  0  0  0
 12  6  1  0  0  0  0
 12  7  1  0  0  0  0
 13 16  1  0  0  0  0
 13  9  1  0  0  0  0
 14 24  1  0  0  0  0
 14 17  2  0  0  0  0
 16 22  1  0  0  0  0
 17  3  1  0  0  0  0
 18 19  1  0  0  0  0
 19  3  2  0  0  0  0
 20 13  1  0  0  0  0
 21 10  1  0  0  0  0
 21 27  1  0  0  0  0
 22 26  1  0  0  0  0
 23 21  1  0  0  0  0
 24 10  1  0  0  0  0
 26 25  1  0  0  0  0
 27 28  1  0  0  0  0
M  END
>  <MODEL>
3

>  <REMARK>
 VINA RESULT:      -5.9      3.140      6.384
  Name = 
  2 active torsions:
  status: ('A' for Active; 'I' for Inactive)
    1  A    between atoms: C_5  and  C_24
    2  A    between atoms: O_17  and  C_25
                            x       y       z     vdW  Elec       q    Type
                         _______ _______ _______ _____ _____    ______ ____

>  <TORSDO>
F 2

$$$$
=
 OpenBabel11122411523D

 28 31  0  0  1  0  0  0  0  0999 V2000
  180.7580  179.4110  141.3640 C   0  0  0  0  0  0  0  0  0  0  0  0
  179.8100  176.7440  138.8900 O   0  0  0  0  0  0  0  0  0  0  0  0
  179.9270  181.0020  139.2140 C   0  0  0  0  0  3  0  0  0  0  0  0
  181.2810  178.6770  142.5620 C   0  0  0  0  0  2  0  0  0  0  0  0
  180.8910  178.0380  137.0840 O   0  0  0  0  0  0  0  0  0  0  0  0
  181.0560  176.9130  138.0670 S   0  0  0  0  0  0  0  0  0  0  0  0
  182.8640  175.4800  136.6070 C   0  0  2  0  0  3  0  0  0  0  0  0
  182.4410  177.1420  139.0830 N   0  0  1  0  0  0  0  0  0  0  0  0
  184.7360  179.2300  144.2000 C   0  0  0  0  0  1  0  0  0  0  0  0
  183.9040  178.9370  139.8390 C   0  0  2  0  0  3  0  0  0  0  0  0
  183.9290  175.8730  137.6440 C   0  0  0  0  0  2  0  0  0  0  0  0
  181.4390  175.4110  137.1810 C   0  0  0  0  0  2  0  0  0  0  0  0
  183.6960  178.5650  143.3110 C   0  0  2  0  0  3  0  0  0  0  0  0
  181.3650  179.2600  140.1020 C   0  0  0  0  0  0  0  0  0  0  0  0
  183.1970  174.2520  136.0390 O   0  0  0  0  0  1  0  0  0  0  0  0
  184.2610  178.1000  142.0960 O   0  0  0  0  0  0  0  0  0  0  0  0
  180.9670  180.0850  139.0430 C   0  0  0  0  0  3  0  0  0  0  0  0
  179.7220  180.3360  141.5320 C   0  0  0  0  0  3  0  0  0  0  0  0
  179.2980  181.1200  140.4560 C   0  0  0  0  0  3  0  0  0  0  0  0
  182.4500  179.4470  143.1590 C   0  0  0  0  0  2  0  0  0  0  0  0
  184.6860  177.9240  139.0120 C   0  0  1  0  0  3  0  0  0  0  0  0
  184.5030  179.1900  141.2320 C   0  0  1  0  0  3  0  0  0  0  0  0
  183.5900  177.2480  138.2080 C   0  0  2  0  0  3  0  0  0  0  0  0
  182.5240  178.3130  139.9610 C   0  0  1  0  0  3  0  0  0  0  0  0
  186.4850  178.2670  141.5930 C   0  0  0  0  0  1  0  0  0  0  0  0
  185.8770  179.4430  141.1500 O   0  0  0  0  0  0  0  0  0  0  0  0
  185.6530  178.6550  138.0920 C   0  0  0  0  0  2  0  0  0  0  0  0
  186.9990  177.9570  138.0770 C   0  0  0  0  0  1  0  0  0  0  0  0
  1 18  1  0  0  0  0
  1  4  1  0  0  0  0
  3 19  1  0  0  0  0
  4 20  1  0  0  0  0
  5  6  2  0  0  0  0
  6  2  2  0  0  0  0
  7 15  1  1  0  0  0
  7 12  1  0  0  0  0
  7 11  1  0  0  0  0
  8  6  1  6  0  0  0
  8 24  1  0  0  0  0
 10 24  1  0  0  0  0
 10 22  1  0  0  0  0
 11 23  1  0  0  0  0
 12  6  1  0  0  0  0
 13  9  1  0  0  0  0
 14  1  2  0  0  0  0
 16 13  1  0  0  0  0
 17  3  2  0  0  0  0
 17 14  1  0  0  0  0
 19 18  2  0  0  0  0
 20 13  1  0  0  0  0
 21 10  1  0  0  0  0
 22 16  1  0  0  0  0
 23 21  1  0  0  0  0
 23  8  1  0  0  0  0
 24 14  1  0  0  0  0
 26 22  1  0  0  0  0
 26 25  1  0  0  0  0
 27 21  1  0  0  0  0
 28 27  1  0  0  0  0
M  END
>  <MODEL>
4

>  <REMARK>
 VINA RESULT:      -5.6      0.988      1.134
  Name = 
  2 active torsions:
  status: ('A' for Active; 'I' for Inactive)
    1  A    between atoms: C_5  and  C_24
    2  A    between atoms: O_17  and  C_25
                            x       y       z     vdW  Elec       q    Type
                         _______ _______ _______ _____ _____    ______ ____

>  <TORSDO>
F 2

$$$$
=
 OpenBabel11122411523D

 28 31  0  0  1  0  0  0  0  0999 V2000
  188.9430  177.8260  137.4840 C   0  0  0  0  0  0  0  0  0  0  0  0
  192.3020  176.4160  136.5550 O   0  0  0  0  0  0  0  0  0  0  0  0
  189.8600  177.0250  140.0070 C   0  0  0  0  0  3  0  0  0  0  0  0
  188.3160  178.2480  136.1900 C   0  0  0  0  0  2  0  0  0  0  0  0
  191.9250  174.5150  138.0880 O   0  0  0  0  0  0  0  0  0  0  0  0
  191.8520  174.9870  136.6620 S   0  0  0  0  0  0  0  0  0  0  0  0
  192.2070  172.5410  135.5020 C   0  0  2  0  0  3  0  0  0  0  0  0
  190.2630  174.7880  135.9980 N   0  0  1  0  0  0  0  0  0  0  0  0
  184.8580  177.1060  134.8980 C   0  0  0  0  0  1  0  0  0  0  0  0
  187.9630  174.5170  136.7540 C   0  0  2  0  0  3  0  0  0  0  0  0
  190.7320  172.5950  135.0670 C   0  0  0  0  0  2  0  0  0  0  0  0
  192.8600  173.9260  135.6400 C   0  0  0  0  0  2  0  0  0  0  0  0
  186.3730  177.1120  135.0300 C   0  0  2  0  0  3  0  0  0  0  0  0
  189.3190  176.4870  137.7030 C   0  0  0  0  0  0  0  0  0  0  0  0
  192.9330  171.7730  134.5940 O   0  0  0  0  0  1  0  0  0  0  0  0
  186.9120  175.8020  134.9750 O   0  0  0  0  0  0  0  0  0  0  0  0
  189.7420  176.0880  138.9770 C   0  0  0  0  0  3  0  0  0  0  0  0
  189.0560  178.7590  138.5220 C   0  0  0  0  0  3  0  0  0  0  0  0
  189.5260  178.3620  139.7760 C   0  0  0  0  0  3  0  0  0  0  0  0
  186.8220  177.9550  136.2320 C   0  0  0  0  0  2  0  0  0  0  0  0
  188.4270  173.2760  136.0000 C   0  0  1  0  0  3  0  0  0  0  0  0
  186.6710  175.1320  136.1940 C   0  0  1  0  0  3  0  0  0  0  0  0
  189.9370  173.3800  136.1040 C   0  0  2  0  0  3  0  0  0  0  0  0
  189.1220  175.4870  136.5980 C   0  0  1  0  0  3  0  0  0  0  0  0
  184.9560  174.1650  137.2100 C   0  0  0  0  0  1  0  0  0  0  0  0
  185.6840  174.1550  136.0190 O   0  0  0  0  0  0  0  0  0  0  0  0
  187.9250  172.0290  136.7130 C   0  0  0  0  0  2  0  0  0  0  0  0
  187.3270  171.0550  135.7160 C   0  0  0  0  0  1  0  0  0  0  0  0
  1 14  2  0  0  0  0
  1 18  1  0  0  0  0
  2  6  2  0  0  0  0
  4 20  1  0  0  0  0
  4  1  1  0  0  0  0
  6  5  2  0  0  0  0
  7 15  1  6  0  0  0
  7 12  1  0  0  0  0
  8 23  1  0  0  0  0
  8 24  1  0  0  0  0
  8  6  1  1  0  0  0
  9 13  1  0  0  0  0
 11  7  1  0  0  0  0
 11 23  1  0  0  0  0
 12  6  1  0  0  0  0
 13 20  1  0  0  0  0
 14 17  1  0  0  0  0
 16 13  1  0  0  0  0
 16 22  1  0  0  0  0
 17  3  2  0  0  0  0
 18 19  2  0  0  0  0
 19  3  1  0  0  0  0
 21 23  1  0  0  0  0
 21 27  1  0  0  0  0
 21 10  1  0  0  0  0
 22 10  1  0  0  0  0
 24 10  1  0  0  0  0
 24 14  1  0  0  0  0
 26 22  1  0  0  0  0
 26 25  1  0  0  0  0
 28 27  1  0  0  0  0
M  END
>  <MODEL>
5

>  <REMARK>
 VINA RESULT:      -5.6      6.984      9.701
  Name = 
  2 active torsions:
  status: ('A' for Active; 'I' for Inactive)
    1  A    between atoms: C_5  and  C_24
    2  A    between atoms: O_17  and  C_25
                            x       y       z     vdW  Elec       q    Type
                         _______ _______ _______ _____ _____    ______ ____

>  <TORSDO>
F 2

$$$$
=
 OpenBabel11122411523D

 28 31  0  0  1  0  0  0  0  0999 V2000
  187.9210  177.6490  137.6180 C   0  0  0  0  0  0  0  0  0  0  0  0
  185.7010  174.7410  136.7520 O   0  0  0  0  0  0  0  0  0  0  0  0
  187.3910  178.2140  134.9260 C   0  0  0  0  0  3  0  0  0  0  0  0
  188.3250  177.4320  139.0450 C   0  0  0  0  0  2  0  0  0  0  0  0
  186.8780  174.4890  134.5940 O   0  0  0  0  0  0  0  0  0  0  0  0
  186.7780  174.0000  136.0120 S   0  0  0  0  0  0  0  0  0  0  0  0
  187.6970  171.4720  135.5400 C   0  0  2  0  0  3  0  0  0  0  0  0
  188.2940  174.1210  136.8430 N   0  0  1  0  0  0  0  0  0  0  0  0
  191.9600  177.2960  140.3500 C   0  0  0  0  0  1  0  0  0  0  0  0
  190.4040  175.3270  136.6750 C   0  0  2  0  0  3  0  0  0  0  0  0
  188.9810  171.8580  136.2930 C   0  0  0  0  0  2  0  0  0  0  0  0
  186.4510  172.2450  136.0060 C   0  0  0  0  0  2  0  0  0  0  0  0
  190.6240  176.7550  139.8610 C   0  0  2  0  0  3  0  0  0  0  0  0
  188.2270  176.6970  136.6260 C   0  0  0  0  0  0  0  0  0  0  0  0
  187.4710  170.1040  135.6720 O   0  0  0  0  0  1  0  0  0  0  0  0
  190.7850  175.5930  139.0640 O   0  0  0  0  0  0  0  0  0  0  0  0
  187.9920  177.0030  135.2800 C   0  0  0  0  0  3  0  0  0  0  0  0
  187.3270  178.8640  137.2560 C   0  0  0  0  0  3  0  0  0  0  0  0
  187.0510  179.1400  135.9150 C   0  0  0  0  0  3  0  0  0  0  0  0
  189.7720  177.8670  139.2340 C   0  0  0  0  0  2  0  0  0  0  0  0
  190.6290  173.8310  136.4970 C   0  0  1  0  0  3  0  0  0  0  0  0
  191.2650  175.9520  137.7860 C   0  0  1  0  0  3  0  0  0  0  0  0
  189.2520  173.3430  136.0850 C   0  0  2  0  0  3  0  0  0  0  0  0
  188.9300  175.4300  137.0270 C   0  0  1  0  0  3  0  0  0  0  0  0
  193.1960  176.6120  136.9250 C   0  0  0  0  0  1  0  0  0  0  0  0
  192.6060  175.5780  137.6520 O   0  0  0  0  0  0  0  0  0  0  0  0
  191.6370  173.5960  135.3810 C   0  0  0  0  0  2  0  0  0  0  0  0
  192.6690  172.5700  135.8080 C   0  0  0  0  0  1  0  0  0  0  0  0
  1  4  1  0  0  0  0
  3 17  2  0  0  0  0
  3 19  1  0  0  0  0
  4 20  1  0  0  0  0
  5  6  2  0  0  0  0
  6  2  2  0  0  0  0
  7 15  1  1  0  0  0
  7 12  1  0  0  0  0
  7 11  1  0  0  0  0
  8  6  1  6  0  0  0
  8 24  1  0  0  0  0
 10 24  1  0  0  0  0
 10 22  1  0  0  0  0
 12  6  1  0  0  0  0
 13  9  1  0  0  0  0
 14 24  1  0  0  0  0
 14  1  2  0  0  0  0
 16 13  1  0  0  0  0
 17 14  1  0  0  0  0
 18  1  1  0  0  0  0
 19 18  2  0  0  0  0
 20 13  1  0  0  0  0
 21 10  1  0  0  0  0
 22 16  1  0  0  0  0
 23 11  1  0  0  0  0
 23 21  1  0  0  0  0
 23  8  1  0  0  0  0
 25 26  1  0  0  0  0
 26 22  1  0  0  0  0
 27 28  1  0  0  0  0
 27 21  1  0  0  0  0
M  END
>  <MODEL>
6

>  <REMARK>
 VINA RESULT:      -5.1      6.689      8.418
  Name = 
  2 active torsions:
  status: ('A' for Active; 'I' for Inactive)
    1  A    between atoms: C_5  and  C_24
    2  A    between atoms: O_17  and  C_25
                            x       y       z     vdW  Elec       q    Type
                         _______ _______ _______ _____ _____    ______ ____

>  <TORSDO>
F 2

$$$$
=
 OpenBabel11122411523D

 28 31  0  0  1  0  0  0  0  0999 V2000
  185.9010  174.2090  135.4900 C   0  0  0  0  0  0  0  0  0  0  0  0
  182.2490  174.6690  134.7220 O   0  0  0  0  0  0  0  0  0  0  0  0
  184.7790  172.3930  137.3040 C   0  0  0  0  0  3  0  0  0  0  0  0
  186.6200  175.1830  134.6060 C   0  0  0  0  0  2  0  0  0  0  0  0
  181.7380  174.6220  137.1390 O   0  0  0  0  0  0  0  0  0  0  0  0
  181.9860  175.5010  135.9450 S   0  0  0  0  0  0  0  0  0  0  0  0
  180.5070  177.6290  136.8060 C   0  0  2  0  0  3  0  0  0  0  0  0
  183.2830  176.6160  136.2250 N   0  0  1  0  0  0  0  0  0  0  0  0
  189.1180  177.8750  135.8060 C   0  0  0  0  0  1  0  0  0  0  0  0
  185.2120  176.8800  137.6890 C   0  0  2  0  0  3  0  0  0  0  0  0
  181.8270  178.3910  137.0130 C   0  0  0  0  0  2  0  0  0  0  0  0
  180.5750  176.5660  135.6970 C   0  0  0  0  0  2  0  0  0  0  0  0
  187.7830  177.3030  135.3550 C   0  0  2  0  0  3  0  0  0  0  0  0
  184.9510  174.6510  136.4310 C   0  0  0  0  0  0  0  0  0  0  0  0
  179.4850  178.5320  136.5230 O   0  0  0  0  0  1  0  0  0  0  0  0
  186.6950  177.8930  136.0470 O   0  0  0  0  0  0  0  0  0  0  0  0
  184.4230  173.7430  137.3570 C   0  0  0  0  0  3  0  0  0  0  0  0
  186.2600  172.8570  135.4460 C   0  0  0  0  0  3  0  0  0  0  0  0
  185.6910  171.9490  136.3420 C   0  0  0  0  0  3  0  0  0  0  0  0
  187.8070  175.7690  135.3580 C   0  0  0  0  0  2  0  0  0  0  0  0
  184.2070  178.0010  137.9240 C   0  0  1  0  0  3  0  0  0  0  0  0
  186.6280  177.3800  137.3610 C   0  0  1  0  0  3  0  0  0  0  0  0
  182.9210  177.3990  137.3880 C   0  0  2  0  0  3  0  0  0  0  0  0
  184.6330  176.1180  136.5090 C   0  0  1  0  0  3  0  0  0  0  0  0
  187.9440  177.6900  139.1160 C   0  0  0  0  0  1  0  0  0  0  0  0
  187.0440  178.3510  138.2790 O   0  0  0  0  0  0  0  0  0  0  0  0
  184.0900  178.2770  139.4150 C   0  0  0  0  0  2  0  0  0  0  0  0
  183.8090  179.7470  139.6610 C   0  0  0  0  0  1  0  0  0  0  0  0
  1 14  1  0  0  0  0
  2  6  2  0  0  0  0
  3 17  1  0  0  0  0
  4 20  1  0  0  0  0
  4  1  1  0  0  0  0
  6  5  2  0  0  0  0
  7 15  1  6  0  0  0
  7 11  1  0  0  0  0
  8  6  1  1  0  0  0
  8 24  1  0  0  0  0
  8 23  1  0  0  0  0
 10 21  1  0  0  0  0
 11 23  1  0  0  0  0
 12  6  1  0  0  0  0
 12  7  1  0  0  0  0
 13 20  1  0  0  0  0
 13  9  1  0  0  0  0
 13 16  1  0  0  0  0
 14 24  1  0  0  0  0
 14 17  2  0  0  0  0
 16 22  1  0  0  0  0
 18  1  2  0  0  0  0
 18 19  1  0  0  0  0
 19  3  2  0  0  0  0
 21 27  1  0  0  0  0
 22 10  1  0  0  0  0
 22 26  1  0  0  0  0
 23 21  1  0  0  0  0
 24 10  1  0  0  0  0
 26 25  1  0  0  0  0
 27 28  1  0  0  0  0
M  END
>  <MODEL>
7

>  <REMARK>
 VINA RESULT:      -5.0      3.546      7.018
  Name = 
  2 active torsions:
  status: ('A' for Active; 'I' for Inactive)
    1  A    between atoms: C_5  and  C_24
    2  A    between atoms: O_17  and  C_25
                            x       y       z     vdW  Elec       q    Type
                         _______ _______ _______ _____ _____    ______ ____

>  <TORSDO>
F 2

$$$$
=
 OpenBabel11122411523D

 28 31  0  0  1  0  0  0  0  0999 V2000
  184.7280  175.0640  136.2220 C   0  0  0  0  0  0  0  0  0  0  0  0
  183.7280  177.3260  139.0530 O   0  0  0  0  0  0  0  0  0  0  0  0
  183.8390  177.2970  134.7830 C   0  0  0  0  0  3  0  0  0  0  0  0
  185.1800  173.7900  136.8690 C   0  0  0  0  0  2  0  0  0  0  0  0
  181.6920  177.9750  137.8130 O   0  0  0  0  0  0  0  0  0  0  0  0
  182.2580  177.0760  138.8770 S   0  0  0  0  0  0  0  0  0  0  0  0
  179.9500  176.7910  140.3090 C   0  0  2  0  0  3  0  0  0  0  0  0
  181.9520  175.4040  138.5370 N   0  0  1  0  0  0  0  0  0  0  0  0
  183.8000  170.2660  136.0880 C   0  0  0  0  0  1  0  0  0  0  0  0
  181.4010  173.9720  136.6450 C   0  0  2  0  0  3  0  0  0  0  0  0
  179.8900  175.3350  139.8180 C   0  0  0  0  0  2  0  0  0  0  0  0
  181.3790  177.3520  140.4060 C   0  0  0  0  0  2  0  0  0  0  0  0
  183.9460  171.5800  136.8410 C   0  0  2  0  0  3  0  0  0  0  0  0
  183.4200  175.5490  136.4140 C   0  0  0  0  0  0  0  0  0  0  0  0
  179.3260  176.8910  141.5510 O   0  0  0  0  0  1  0  0  0  0  0  0
  182.7030  172.0390  137.3460 O   0  0  0  0  0  0  0  0  0  0  0  0
  182.9730  176.6430  135.6630 C   0  0  0  0  0  3  0  0  0  0  0  0
  185.5890  175.7180  135.3320 C   0  0  0  0  0  3  0  0  0  0  0  0
  185.1490  176.8390  134.6240 C   0  0  0  0  0  3  0  0  0  0  0  0
  184.7390  172.6060  136.0200 C   0  0  0  0  0  2  0  0  0  0  0  0
  180.2710  173.9630  137.6670 C   0  0  1  0  0  3  0  0  0  0  0  0
  181.9240  172.5690  136.2950 C   0  0  1  0  0  3  0  0  0  0  0  0
  180.5150  175.2530  138.4300 C   0  0  2  0  0  3  0  0  0  0  0  0
  182.4890  174.7900  137.3180 C   0  0  1  0  0  3  0  0  0  0  0  0
  180.7780  171.7250  134.5970 C   0  0  0  0  0  1  0  0  0  0  0  0
  180.8710  171.7010  135.9900 O   0  0  0  0  0  0  0  0  0  0  0  0
  178.9310  174.0120  136.9480 C   0  0  0  0  0  2  0  0  0  0  0  0
  179.0050  174.9460  135.7550 C   0  0  0  0  0  1  0  0  0  0  0  0
  1 14  1  0  0  0  0
  1  4  1  0  0  0  0
  3 17  1  0  0  0  0
  5  6  2  0  0  0  0
  6  2  2  0  0  0  0
  6 12  1  0  0  0  0
  7 12  1  0  0  0  0
  7 15  1  1  0  0  0
  8  6  1  6  0  0  0
  9 13  1  0  0  0  0
 10 24  1  0  0  0  0
 10 21  1  0  0  0  0
 11  7  1  0  0  0  0
 13 16  1  0  0  0  0
 14 24  1  0  0  0  0
 17 14  2  0  0  0  0
 18  1  2  0  0  0  0
 19  3  2  0  0  0  0
 19 18  1  0  0  0  0
 20 13  1  0  0  0  0
 20  4  1  0  0  0  0
 21 23  1  0  0  0  0
 22 10  1  0  0  0  0
 22 16  1  0  0  0  0
 23  8  1  0  0  0  0
 23 11  1  0  0  0  0
 24  8  1  0  0  0  0
 25 26  1  0  0  0  0
 26 22  1  0  0  0  0
 27 21  1  0  0  0  0
 28 27  1  0  0  0  0
M  END
>  <MODEL>
8

>  <REMARK>
 VINA RESULT:      -5.0      3.330      7.652
  Name = 
  2 active torsions:
  status: ('A' for Active; 'I' for Inactive)
    1  A    between atoms: C_5  and  C_24
    2  A    between atoms: O_17  and  C_25
                            x       y       z     vdW  Elec       q    Type
                         _______ _______ _______ _____ _____    ______ ____

>  <TORSDO>
F 2

$$$$
=
 OpenBabel11122411523D

 28 31  0  0  1  0  0  0  0  0999 V2000
  179.6220  180.8830  139.3630 C   0  0  0  0  0  0  0  0  0  0  0  0
  178.9310  179.0810  136.1370 O   0  0  0  0  0  0  0  0  0  0  0  0
  181.0290  182.5140  137.5720 C   0  0  0  0  0  3  0  0  0  0  0  0
  178.9560  180.0650  140.4280 C   0  0  0  0  0  2  0  0  0  0  0  0
  181.2860  179.3980  135.4590 O   0  0  0  0  0  0  0  0  0  0  0  0
  180.2930  178.4500  136.0720 S   0  0  0  0  0  0  0  0  0  0  0  0
  181.5470  176.1460  135.3180 C   0  0  2  0  0  3  0  0  0  0  0  0
  180.8000  177.9120  137.6400 N   0  0  1  0  0  0  0  0  0  0  0  0
  180.6890  178.6480  143.5780 C   0  0  0  0  0  1  0  0  0  0  0  0
  182.3030  178.5920  139.4320 C   0  0  2  0  0  3  0  0  0  0  0  0
  181.9130  175.9260  136.7960 C   0  0  0  0  0  2  0  0  0  0  0  0
  180.2490  176.9440  135.1150 C   0  0  0  0  0  2  0  0  0  0  0  0
  180.1220  178.6400  142.1660 C   0  0  2  0  0  3  0  0  0  0  0  0
  180.6250  180.3280  138.5450 C   0  0  0  0  0  0  0  0  0  0  0  0
  181.4410  174.9130  134.6760 O   0  0  0  0  0  1  0  0  0  0  0  0
  180.9090  177.8550  141.2860 O   0  0  0  0  0  0  0  0  0  0  0  0
  181.3470  181.1580  137.6790 C   0  0  0  0  0  3  0  0  0  0  0  0
  179.3130  182.2440  139.2580 C   0  0  0  0  0  3  0  0  0  0  0  0
  180.0060  183.0550  138.3560 C   0  0  0  0  0  3  0  0  0  0  0  0
  179.8200  180.0650  141.6820 C   0  0  0  0  0  2  0  0  0  0  0  0
  182.7480  177.2600  138.8380 C   0  0  1  0  0  3  0  0  0  0  0  0
  182.0930  178.5480  140.9540 C   0  0  1  0  0  3  0  0  0  0  0  0
  182.0920  177.2820  137.4700 C   0  0  2  0  0  3  0  0  0  0  0  0
  180.9900  178.8810  138.7240 C   0  0  1  0  0  3  0  0  0  0  0  0
  183.9980  179.0360  141.9770 C   0  0  0  0  0  1  0  0  0  0  0  0
  183.1900  177.9630  141.5960 O   0  0  0  0  0  0  0  0  0  0  0  0
  184.2630  177.2410  138.7070 C   0  0  0  0  0  2  0  0  0  0  0  0
  184.7810  178.6190  138.3440 C   0  0  0  0  0  1  0  0  0  0  0  0
  1  4  1  0  0  0  0
  3 17  2  0  0  0  0
  3 19  1  0  0  0  0
  4 20  1  0  0  0  0
  5  6  2  0  0  0  0
  6  2  2  0  0  0  0
  7 15  1  1  0  0  0
  7 11  1  0  0  0  0
  8  6  1  6  0  0  0
  8 24  1  0  0  0  0
 10 22  1  0  0  0  0
 11 23  1  0  0  0  0
 12  7  1  0  0  0  0
 12  6  1  0  0  0  0
 13  9  1  0  0  0  0
 14 24  1  0  0  0  0
 14  1  2  0  0  0  0
 16 13  1  0  0  0  0
 17 14  1  0  0  0  0
 18  1  1  0  0  0  0
 19 18  2  0  0  0  0
 20 13  1  0  0  0  0
 21 10  1  0  0  0  0
 22 16  1  0  0  0  0
 22 26  1  0  0  0  0
 23  8  1  0  0  0  0
 23 21  1  0  0  0  0
 24 10  1  0  0  0  0
 26 25  1  0  0  0  0
 27 21  1  0  0  0  0
 28 27  1  0  0  0  0
M  END
>  <MODEL>
9

>  <REMARK>
 VINA RESULT:      -5.0      2.189      3.316
  Name = 
  2 active torsions:
  status: ('A' for Active; 'I' for Inactive)
    1  A    between atoms: C_5  and  C_24
    2  A    between atoms: O_17  and  C_25
                            x       y       z     vdW  Elec       q    Type
                         _______ _______ _______ _____ _____    ______ ____

>  <TORSDO>
F 2

$$$$
