=
 OpenBabel11122412113D

 34 41  0  0  1  0  0  0  0  0999 V2000
  185.6190  178.4460  142.6360 C   0  0  0  0  0  0  0  0  0  0  0  0
  185.2040  178.8570  140.1320 C   0  0  0  0  0  2  0  0  0  0  0  0
  189.7940  177.9750  147.5560 C   0  0  2  0  0  3  0  0  0  0  0  0
  186.2230  178.0900  144.9520 C   0  0  0  0  0  0  0  0  0  0  0  0
  188.6700  177.6910  145.4660 C   0  0  1  0  0  3  0  0  0  0  0  0
  191.0430  176.9620  146.4000 C   0  0  0  0  0  2  0  0  0  0  0  0
  191.1660  177.6940  147.6010 O   0  0  0  0  0  0  0  0  0  0  0  0
  187.6180  177.7770  148.5700 C   0  0  0  0  0  3  0  0  0  0  0  0
  187.2700  177.9590  140.8420 C   0  0  0  0  0  0  0  0  0  0  0  0
  189.8100  177.5290  138.8540 C   0  0  0  0  0  2  0  0  0  0  0  0
  188.7660  176.9710  144.1250 C   0  0  0  0  0  2  0  0  0  0  0  0
  187.0010  178.4110  147.3270 C   0  0  0  0  0  2  0  0  0  0  0  0
  188.1970  177.5520  141.7420 C   0  0  0  0  0  0  0  0  0  0  0  0
  186.1480  178.7990  138.9270 C   0  0  0  0  0  2  0  0  0  0  0  0
  187.2100  177.6290  146.0010 C   0  0  1  0  0  3  0  0  0  0  0  0
  188.9450  177.5920  148.7120 C   0  0  0  0  0  3  0  0  0  0  0  0
  188.7030  178.5910  138.8870 C   0  0  2  0  0  3  0  0  0  0  0  0
  186.5570  178.0310  143.5870 C   0  0  0  0  0  0  0  0  0  0  0  0
  189.5400  176.9830  146.4780 C   0  0  1  0  0  3  0  0  0  0  0  0
  187.8570  177.5730  143.1500 N   0  0  0  0  0  0  0  0  0  0  0  0
  184.0460  178.8870  144.4030 C   0  0  0  0  0  3  0  0  0  0  0  0
  189.7440  176.5220  140.0040 C   0  0  0  0  0  2  0  0  0  0  0  0
  184.9730  178.4940  145.3180 N   0  0  0  0  0  0  0  0  0  0  0  0
  189.6220  177.2260  141.3480 C   0  0  0  0  0  2  0  0  0  0  0  0
  187.3770  177.9820  139.3540 C   0  0  1  0  0  3  0  0  0  0  0  0
  184.3530  178.8780  143.0420 C   0  0  0  0  0  3  0  0  0  0  0  0
  185.9970  178.4100  141.2590 N   0  0  0  0  0  0  0  0  0  0  0  0
  188.5800  179.1500  137.6110 O   0  0  0  0  0  0  0  0  0  0  0  0
  189.3950  178.3630  136.7950 C   0  0  0  0  0  2  0  0  0  0  0  0
  187.1210  176.1110  136.1570 O   0  0  0  0  0  0  0  0  0  0  0  0
  187.2080  178.4130  135.6460 C   0  0  0  0  0  2  0  0  0  0  0  0
  188.6070  177.8710  135.5940 C   0  0  2  0  0  3  0  0  0  0  0  0
  186.3430  177.1780  135.6870 C   0  0  0  0  0  2  0  0  0  0  0  0
  188.4200  176.3740  135.6940 C   0  0  0  0  0  2  0  0  0  0  0  0
  1 26  2  0  0  0  0
  1 18  1  0  0  0  0
  2 27  1  0  0  0  0
  3  7  1  0  0  0  0
  3 16  1  1  0  0  0
  4 23  1  0  0  0  0
  4 15  1  0  0  0  0
  5 11  1  6  0  0  0
  5 15  1  0  0  0  0
  5 19  1  0  0  0  0
  6  7  1  0  0  0  0
  8 16  2  0  0  0  0
  9 27  1  0  0  0  0
  9 13  2  0  0  0  0
 10 17  1  0  0  0  0
 10 22  1  0  0  0  0
 12  8  1  0  0  0  0
 13 20  1  0  0  0  0
 14  2  1  0  0  0  0
 15 12  1  1  0  0  0
 17 28  1  6  0  0  0
 17 25  1  0  0  0  0
 18  4  2  0  0  0  0
 19  6  1  6  0  0  0
 19  3  1  0  0  0  0
 20 18  1  0  0  0  0
 20 11  1  0  0  0  0
 21 23  2  0  0  0  0
 22 24  1  0  0  0  0
 24 13  1  0  0  0  0
 25 14  1  6  0  0  0
 25  9  1  0  0  0  0
 26 21  1  0  0  0  0
 27  1  1  0  0  0  0
 29 28  1  0  0  0  0
 31 33  1  0  0  0  0
 32 31  1  0  0  0  0
 32 34  1  0  0  0  0
 32 29  1  1  0  0  0
 33 30  1  0  0  0  0
 34 30  1  0  0  0  0
M  END
>  <MODEL>
1

>  <REMARK>
 VINA RESULT:      -9.3      0.000      0.000
  Name = 
  3 active torsions:
  status: ('A' for Active; 'I' for Inactive)
    1  A    between atoms: C_17  and  O_28
    2  A    between atoms: O_28  and  C_29
    3  A    between atoms: C_29  and  C_32
                            x       y       z     vdW  Elec       q    Type
                         _______ _______ _______ _____ _____    ______ ____

>  <TORSDO>
F 3

$$$$
=
 OpenBabel11122412113D

 34 41  0  0  1  0  0  0  0  0999 V2000
  187.2560  178.2970  141.0490 C   0  0  0  0  0  0  0  0  0  0  0  0
  185.2670  178.6260  139.4530 C   0  0  0  0  0  2  0  0  0  0  0  0
  189.4630  176.4490  146.8430 C   0  0  2  0  0  3  0  0  0  0  0  0
  188.9840  177.9130  142.6990 C   0  0  0  0  0  0  0  0  0  0  0  0
  188.2410  177.5150  145.0860 C   0  0  1  0  0  3  0  0  0  0  0  0
  187.9260  177.3430  147.7140 C   0  0  0  0  0  2  0  0  0  0  0  0
  188.8430  176.3380  148.0940 O   0  0  0  0  0  0  0  0  0  0  0  0
  191.4390  176.9660  145.5630 C   0  0  0  0  0  3  0  0  0  0  0  0
  184.9240  178.7470  141.7870 C   0  0  0  0  0  0  0  0  0  0  0  0
  181.9790  178.9550  143.1530 C   0  0  0  0  0  2  0  0  0  0  0  0
  187.0950  178.4840  144.8220 C   0  0  0  0  0  2  0  0  0  0  0  0
  190.6210  176.8360  144.2820 C   0  0  0  0  0  2  0  0  0  0  0  0
  185.2730  178.6650  143.0930 C   0  0  0  0  0  0  0  0  0  0  0  0
  183.7610  178.7200  139.7180 C   0  0  0  0  0  2  0  0  0  0  0  0
  189.4360  177.8300  144.1390 C   0  0  1  0  0  3  0  0  0  0  0  0
  190.9160  176.7540  146.7870 C   0  0  0  0  0  3  0  0  0  0  0  0
  182.4710  178.2480  141.8830 C   0  0  2  0  0  3  0  0  0  0  0  0
  187.6430  178.2080  142.3900 C   0  0  0  0  0  0  0  0  0  0  0  0
  188.7410  177.7020  146.5000 C   0  0  1  0  0  3  0  0  0  0  0  0
  186.6570  178.3970  143.4290 N   0  0  0  0  0  0  0  0  0  0  0  0
  189.5290  177.8770  140.3790 C   0  0  0  0  0  3  0  0  0  0  0  0
  183.0870  179.6360  143.9590 C   0  0  0  0  0  2  0  0  0  0  0  0
  189.8890  177.7790  141.6880 N   0  0  0  0  0  0  0  0  0  0  0  0
  184.2500  178.6880  144.2090 C   0  0  0  0  0  2  0  0  0  0  0  0
  183.5840  179.0560  141.2070 C   0  0  1  0  0  3  0  0  0  0  0  0
  188.2010  178.1310  140.0330 C   0  0  0  0  0  3  0  0  0  0  0  0
  185.8810  178.5620  140.7630 N   0  0  0  0  0  0  0  0  0  0  0  0
  181.3860  178.0660  141.0210 O   0  0  0  0  0  0  0  0  0  0  0  0
  180.3980  178.9280  141.5020 C   0  0  0  0  0  2  0  0  0  0  0  0
  180.9610  181.0620  139.0970 O   0  0  0  0  0  0  0  0  0  0  0  0
  180.0500  178.8850  139.0560 C   0  0  0  0  0  2  0  0  0  0  0  0
  179.6340  179.5400  140.3410 C   0  0  2  0  0  3  0  0  0  0  0  0
  180.5940  180.0240  138.2290 C   0  0  0  0  0  2  0  0  0  0  0  0
  180.0540  180.9820  140.1670 C   0  0  0  0  0  2  0  0  0  0  0  0
  1 18  1  0  0  0  0
  2 14  1  0  0  0  0
  2 27  1  0  0  0  0
  3 16  1  1  0  0  0
  3  7  1  0  0  0  0
  4 15  1  0  0  0  0
  5 11  1  6  0  0  0
  5 19  1  0  0  0  0
  6  7  1  0  0  0  0
  8 16  2  0  0  0  0
  9 13  2  0  0  0  0
 10 22  1  0  0  0  0
 12  8  1  0  0  0  0
 13 20  1  0  0  0  0
 13 24  1  0  0  0  0
 15 12  1  6  0  0  0
 15  5  1  0  0  0  0
 17 28  1  6  0  0  0
 17 10  1  0  0  0  0
 18  4  2  0  0  0  0
 18 20  1  0  0  0  0
 19  3  1  0  0  0  0
 19  6  1  1  0  0  0
 20 11  1  0  0  0  0
 21 23  2  0  0  0  0
 22 24  1  0  0  0  0
 23  4  1  0  0  0  0
 25 14  1  6  0  0  0
 25  9  1  0  0  0  0
 25 17  1  0  0  0  0
 26 21  1  0  0  0  0
 26  1  2  0  0  0  0
 27  1  1  0  0  0  0
 27  9  1  0  0  0  0
 28 29  1  0  0  0  0
 30 34  1  0  0  0  0
 31 32  1  0  0  0  0
 32 29  1  1  0  0  0
 33 31  1  0  0  0  0
 33 30  1  0  0  0  0
 34 32  1  0  0  0  0
M  END
>  <MODEL>
2

>  <REMARK>
 VINA RESULT:      -9.2      3.018      5.630
  Name = 
  3 active torsions:
  status: ('A' for Active; 'I' for Inactive)
    1  A    between atoms: C_17  and  O_28
    2  A    between atoms: O_28  and  C_29
    3  A    between atoms: C_29  and  C_32
                            x       y       z     vdW  Elec       q    Type
                         _______ _______ _______ _____ _____    ______ ____

>  <TORSDO>
F 3

$$$$
=
 OpenBabel11122412113D

 34 41  0  0  1  0  0  0  0  0999 V2000
  188.3130  177.7600  143.2110 C   0  0  0  0  0  0  0  0  0  0  0  0
  190.6970  177.0440  142.5680 C   0  0  0  0  0  2  0  0  0  0  0  0
  182.0780  178.3500  141.5850 C   0  0  2  0  0  3  0  0  0  0  0  0
  186.0050  178.3670  143.6150 C   0  0  0  0  0  0  0  0  0  0  0  0
  184.4650  178.4790  141.6090 C   0  0  1  0  0  3  0  0  0  0  0  0
  182.6070  178.9860  139.7850 C   0  0  0  0  0  2  0  0  0  0  0  0
  181.4340  178.4320  140.3440 O   0  0  0  0  0  0  0  0  0  0  0  0
  182.1800  179.0110  143.9000 C   0  0  0  0  0  3  0  0  0  0  0  0
  189.1890  177.7280  140.8830 C   0  0  0  0  0  0  0  0  0  0  0  0
  189.8300  177.4830  137.7030 C   0  0  0  0  0  2  0  0  0  0  0  0
  185.6610  178.9690  140.8010 C   0  0  0  0  0  2  0  0  0  0  0  0
  183.5210  178.2950  144.0270 C   0  0  0  0  0  2  0  0  0  0  0  0
  187.9970  178.1260  140.3790 C   0  0  0  0  0  0  0  0  0  0  0  0
  191.3430  176.7830  141.2030 C   0  0  0  0  0  2  0  0  0  0  0  0
  184.6570  178.8310  143.1130 C   0  0  1  0  0  3  0  0  0  0  0  0
  181.4640  179.0210  142.7580 C   0  0  0  0  0  3  0  0  0  0  0  0
  190.2320  176.6100  138.8990 C   0  0  2  0  0  3  0  0  0  0  0  0
  187.0710  178.1720  142.7170 C   0  0  0  0  0  0  0  0  0  0  0  0
  183.2190  179.1960  141.1450 C   0  0  1  0  0  3  0  0  0  0  0  0
  186.8990  178.3660  141.2950 N   0  0  0  0  0  0  0  0  0  0  0  0
  187.4280  177.8210  145.4470 C   0  0  0  0  0  3  0  0  0  0  0  0
  188.9080  178.6490  138.0620 C   0  0  0  0  0  2  0  0  0  0  0  0
  186.2210  178.2090  144.9520 N   0  0  0  0  0  0  0  0  0  0  0  0
  187.7220  178.1800  138.8920 C   0  0  0  0  0  2  0  0  0  0  0  0
  190.4610  177.4680  140.1470 C   0  0  1  0  0  3  0  0  0  0  0  0
  188.4980  177.5820  144.5840 C   0  0  0  0  0  3  0  0  0  0  0  0
  189.3670  177.5350  142.2720 N   0  0  0  0  0  0  0  0  0  0  0  0
  191.3820  175.8900  138.5630 O   0  0  0  0  0  0  0  0  0  0  0  0
  191.7440  176.3620  137.2990 C   0  0  0  0  0  2  0  0  0  0  0  0
  194.9070  175.5600  137.3630 O   0  0  0  0  0  0  0  0  0  0  0  0
  192.9670  174.2300  137.5500 C   0  0  0  0  0  2  0  0  0  0  0  0
  192.6640  175.3660  136.6180 C   0  0  2  0  0  3  0  0  0  0  0  0
  194.4680  174.2710  137.6960 C   0  0  0  0  0  2  0  0  0  0  0  0
  194.0120  176.0080  136.3780 C   0  0  0  0  0  2  0  0  0  0  0  0
  1 26  1  0  0  0  0
  3 16  1  1  0  0  0
  4 23  2  0  0  0  0
  5 11  1  6  0  0  0
  5 15  1  0  0  0  0
  6  7  1  0  0  0  0
  7  3  1  0  0  0  0
  8 12  1  0  0  0  0
  9 27  1  0  0  0  0
 10 22  1  0  0  0  0
 10 17  1  0  0  0  0
 11 20  1  0  0  0  0
 13  9  2  0  0  0  0
 13 20  1  0  0  0  0
 14  2  1  0  0  0  0
 15  4  1  0  0  0  0
 15 12  1  1  0  0  0
 16  8  2  0  0  0  0
 17 28  1  6  0  0  0
 17 25  1  0  0  0  0
 18  1  2  0  0  0  0
 18  4  1  0  0  0  0
 19  6  1  6  0  0  0
 19  3  1  0  0  0  0
 19  5  1  0  0  0  0
 20 18  1  0  0  0  0
 22 24  1  0  0  0  0
 23 21  1  0  0  0  0
 24 13  1  0  0  0  0
 25  9  1  0  0  0  0
 25 14  1  1  0  0  0
 26 21  2  0  0  0  0
 27  2  1  0  0  0  0
 27  1  1  0  0  0  0
 29 28  1  0  0  0  0
 30 33  1  0  0  0  0
 31 33  1  0  0  0  0
 32 29  1  1  0  0  0
 32 31  1  0  0  0  0
 34 32  1  0  0  0  0
 34 30  1  0  0  0  0
M  END
>  <MODEL>
3

>  <REMARK>
 VINA RESULT:      -9.1      2.925      5.801
  Name = 
  3 active torsions:
  status: ('A' for Active; 'I' for Inactive)
    1  A    between atoms: C_17  and  O_28
    2  A    between atoms: O_28  and  C_29
    3  A    between atoms: C_29  and  C_32
                            x       y       z     vdW  Elec       q    Type
                         _______ _______ _______ _____ _____    ______ ____

>  <TORSDO>
F 3

$$$$
=
 OpenBabel11122412113D

 34 41  0  0  1  0  0  0  0  0999 V2000
  188.3260  177.9820  140.7710 C   0  0  0  0  0  0  0  0  0  0  0  0
  186.6410  178.2240  138.8450 C   0  0  0  0  0  2  0  0  0  0  0  0
  189.5110  176.3810  146.9270 C   0  0  2  0  0  3  0  0  0  0  0  0
  189.7450  177.6830  142.7080 C   0  0  0  0  0  0  0  0  0  0  0  0
  188.6040  177.3640  144.9460 C   0  0  1  0  0  3  0  0  0  0  0  0
  187.8400  177.2870  147.4850 C   0  0  0  0  0  2  0  0  0  0  0  0
  188.6850  176.3090  148.0550 O   0  0  0  0  0  0  0  0  0  0  0  0
  191.6750  176.8760  145.9880 C   0  0  0  0  0  3  0  0  0  0  0  0
  185.8990  178.4280  141.0780 C   0  0  0  0  0  0  0  0  0  0  0  0
  182.7600  178.6490  141.9070 C   0  0  0  0  0  2  0  0  0  0  0  0
  187.5150  178.3080  144.4500 C   0  0  0  0  0  2  0  0  0  0  0  0
  191.0920  176.6870  144.5910 C   0  0  0  0  0  2  0  0  0  0  0  0
  186.0170  178.4000  142.4270 C   0  0  0  0  0  0  0  0  0  0  0  0
  185.1110  178.3090  138.8430 C   0  0  0  0  0  2  0  0  0  0  0  0
  189.9420  177.6600  144.2070 C   0  0  1  0  0  3  0  0  0  0  0  0
  190.9490  176.7030  147.1110 C   0  0  0  0  0  3  0  0  0  0  0  0
  183.4700  177.9010  140.7700 C   0  0  2  0  0  3  0  0  0  0  0  0
  188.4770  177.9480  142.1610 C   0  0  0  0  0  0  0  0  0  0  0  0
  188.8510  177.6110  146.4160 C   0  0  1  0  0  3  0  0  0  0  0  0
  187.3240  178.1630  143.0070 N   0  0  0  0  0  0  0  0  0  0  0  0
  190.6830  177.5660  140.5210 C   0  0  0  0  0  3  0  0  0  0  0  0
  183.7080  179.3740  142.8640 C   0  0  0  0  0  2  0  0  0  0  0  0
  190.8130  177.5230  141.8750 N   0  0  0  0  0  0  0  0  0  0  0  0
  184.8170  178.4510  143.3480 C   0  0  0  0  0  2  0  0  0  0  0  0
  184.6770  178.6970  140.2650 C   0  0  1  0  0  3  0  0  0  0  0  0
  189.4340  177.7900  139.9410 C   0  0  0  0  0  3  0  0  0  0  0  0
  187.0200  178.2180  140.2430 N   0  0  0  0  0  0  0  0  0  0  0  0
  182.5510  177.6720  139.7420 O   0  0  0  0  0  0  0  0  0  0  0  0
  182.2220  176.3190  139.8500 C   0  0  0  0  0  2  0  0  0  0  0  0
  179.2980  176.4000  141.2960 O   0  0  0  0  0  0  0  0  0  0  0  0
  180.0790  177.4300  139.3220 C   0  0  0  0  0  2  0  0  0  0  0  0
  180.7700  176.1050  139.4610 C   0  0  2  0  0  3  0  0  0  0  0  0
  178.9630  177.3640  140.3350 C   0  0  0  0  0  2  0  0  0  0  0  0
  180.0390  175.4310  140.6000 C   0  0  0  0  0  2  0  0  0  0  0  0
  1 18  1  0  0  0  0
  2 27  1  0  0  0  0
  3 16  1  1  0  0  0
  3  7  1  0  0  0  0
  4 15  1  0  0  0  0
  5 11  1  6  0  0  0
  5 19  1  0  0  0  0
  6  7  1  0  0  0  0
  8 16  2  0  0  0  0
  9 13  2  0  0  0  0
 10 22  1  0  0  0  0
 12  8  1  0  0  0  0
 13 20  1  0  0  0  0
 13 24  1  0  0  0  0
 14  2  1  0  0  0  0
 15 12  1  6  0  0  0
 15  5  1  0  0  0  0
 17 28  1  6  0  0  0
 17 10  1  0  0  0  0
 18  4  2  0  0  0  0
 18 20  1  0  0  0  0
 19  3  1  0  0  0  0
 19  6  1  1  0  0  0
 20 11  1  0  0  0  0
 21 23  2  0  0  0  0
 22 24  1  0  0  0  0
 23  4  1  0  0  0  0
 25 14  1  6  0  0  0
 25 17  1  0  0  0  0
 25  9  1  0  0  0  0
 26 21  1  0  0  0  0
 26  1  2  0  0  0  0
 27  1  1  0  0  0  0
 27  9  1  0  0  0  0
 28 29  1  0  0  0  0
 31 32  1  0  0  0  0
 31 33  1  0  0  0  0
 32 29  1  1  0  0  0
 32 34  1  0  0  0  0
 33 30  1  0  0  0  0
 34 30  1  0  0  0  0
M  END
>  <MODEL>
4

>  <REMARK>
 VINA RESULT:      -9.0      3.088      5.383
  Name = 
  3 active torsions:
  status: ('A' for Active; 'I' for Inactive)
    1  A    between atoms: C_17  and  O_28
    2  A    between atoms: O_28  and  C_29
    3  A    between atoms: C_29  and  C_32
                            x       y       z     vdW  Elec       q    Type
                         _______ _______ _______ _____ _____    ______ ____

>  <TORSDO>
F 3

$$$$
=
 OpenBabel11122412113D

 34 41  0  0  1  0  0  0  0  0999 V2000
  190.2440  177.1050  141.2400 C   0  0  0  0  0  0  0  0  0  0  0  0
  191.5030  176.4340  139.1010 C   0  0  0  0  0  2  0  0  0  0  0  0
  184.6180  178.1440  144.2610 C   0  0  2  0  0  3  0  0  0  0  0  0
  188.8720  177.7050  143.1410 C   0  0  0  0  0  0  0  0  0  0  0  0
  186.4280  178.1950  142.7000 C   0  0  1  0  0  3  0  0  0  0  0  0
  183.9190  179.0540  142.6480 C   0  0  0  0  0  2  0  0  0  0  0  0
  183.3370  178.4510  143.7850 O   0  0  0  0  0  0  0  0  0  0  0  0
  186.2970  178.4080  145.9700 C   0  0  0  0  0  3  0  0  0  0  0  0
  189.3690  177.4340  138.9350 C   0  0  0  0  0  0  0  0  0  0  0  0
  187.7320  177.7010  136.1360 C   0  0  0  0  0  2  0  0  0  0  0  0
  186.8550  178.7760  141.3570 C   0  0  0  0  0  2  0  0  0  0  0  0
  187.2830  177.6410  145.0950 C   0  0  0  0  0  2  0  0  0  0  0  0
  188.2050  177.9460  139.4000 C   0  0  0  0  0  0  0  0  0  0  0  0
  191.0560  176.3850  137.6360 C   0  0  0  0  0  2  0  0  0  0  0  0
  187.6020  178.2870  143.7180 C   0  0  1  0  0  3  0  0  0  0  0  0
  185.0180  178.6290  145.6070 C   0  0  0  0  0  3  0  0  0  0  0  0
  188.6980  176.6300  136.6600 C   0  0  2  0  0  3  0  0  0  0  0  0
  189.0510  177.6300  141.7470 C   0  0  0  0  0  0  0  0  0  0  0  0
  185.2920  179.0160  143.2650 C   0  0  1  0  0  3  0  0  0  0  0  0
  188.0180  178.0630  140.8330 N   0  0  0  0  0  0  0  0  0  0  0  0
  191.0580  176.8200  143.4860 C   0  0  0  0  0  3  0  0  0  0  0  0
  187.4360  178.8190  137.1380 C   0  0  0  0  0  2  0  0  0  0  0  0
  189.8870  177.3200  143.9670 N   0  0  0  0  0  0  0  0  0  0  0  0
  187.0340  178.2540  138.4920 C   0  0  0  0  0  2  0  0  0  0  0  0
  189.8000  177.2620  137.5170 C   0  0  1  0  0  3  0  0  0  0  0  0
  191.2570  176.6960  142.1110 C   0  0  0  0  0  3  0  0  0  0  0  0
  190.3840  177.0070  139.8210 N   0  0  0  0  0  0  0  0  0  0  0  0
  189.2390  175.9420  135.5700 O   0  0  0  0  0  0  0  0  0  0  0  0
  188.3210  174.9250  135.2970 C   0  0  0  0  0  2  0  0  0  0  0  0
  186.6800  172.2470  136.1860 O   0  0  0  0  0  0  0  0  0  0  0  0
  188.8120  173.0380  136.8160 C   0  0  0  0  0  2  0  0  0  0  0  0
  187.9240  174.2260  136.5850 C   0  0  2  0  0  3  0  0  0  0  0  0
  187.8550  171.8720  136.8520 C   0  0  0  0  0  2  0  0  0  0  0  0
  186.5460  173.6240  136.4270 C   0  0  0  0  0  2  0  0  0  0  0  0
  1 18  2  0  0  0  0
  1 26  1  0  0  0  0
  2 27  1  0  0  0  0
  3 16  1  1  0  0  0
  4 15  1  0  0  0  0
  4 23  2  0  0  0  0
  5 11  1  6  0  0  0
  5 19  1  0  0  0  0
  5 15  1  0  0  0  0
  6  7  1  0  0  0  0
  7  3  1  0  0  0  0
  9 13  2  0  0  0  0
  9 27  1  0  0  0  0
 10 17  1  0  0  0  0
 10 22  1  0  0  0  0
 12  8  1  0  0  0  0
 13 20  1  0  0  0  0
 14  2  1  0  0  0  0
 15 12  1  1  0  0  0
 16  8  2  0  0  0  0
 17 28  1  6  0  0  0
 17 25  1  0  0  0  0
 18  4  1  0  0  0  0
 19  6  1  6  0  0  0
 19  3  1  0  0  0  0
 20 11  1  0  0  0  0
 20 18  1  0  0  0  0
 21 23  1  0  0  0  0
 22 24  1  0  0  0  0
 24 13  1  0  0  0  0
 25 14  1  1  0  0  0
 25  9  1  0  0  0  0
 26 21  2  0  0  0  0
 27  1  1  0  0  0  0
 29 28  1  0  0  0  0
 30 34  1  0  0  0  0
 30 33  1  0  0  0  0
 31 33  1  0  0  0  0
 32 29  1  6  0  0  0
 32 31  1  0  0  0  0
 34 32  1  0  0  0  0
M  END
>  <MODEL>
5

>  <REMARK>
 VINA RESULT:      -8.8      2.516      4.828
  Name = 
  3 active torsions:
  status: ('A' for Active; 'I' for Inactive)
    1  A    between atoms: C_17  and  O_28
    2  A    between atoms: O_28  and  C_29
    3  A    between atoms: C_29  and  C_32
                            x       y       z     vdW  Elec       q    Type
                         _______ _______ _______ _____ _____    ______ ____

>  <TORSDO>
F 3

$$$$
=
 OpenBabel11122412113D

 34 41  0  0  1  0  0  0  0  0999 V2000
  188.8970  177.5240  140.6720 C   0  0  0  0  0  0  0  0  0  0  0  0
  188.6910  177.2520  138.1240 C   0  0  0  0  0  2  0  0  0  0  0  0
  186.0400  177.6810  146.4750 C   0  0  2  0  0  3  0  0  0  0  0  0
  188.8720  177.7490  143.0810 C   0  0  0  0  0  0  0  0  0  0  0  0
  186.6240  178.0900  144.1930 C   0  0  1  0  0  3  0  0  0  0  0  0
  184.5490  178.7380  145.7130 C   0  0  0  0  0  2  0  0  0  0  0  0
  184.7210  177.9420  146.8670 O   0  0  0  0  0  0  0  0  0  0  0  0
  188.3980  177.8520  146.9410 C   0  0  0  0  0  3  0  0  0  0  0  0
  186.8600  178.0850  139.3610 C   0  0  0  0  0  0  0  0  0  0  0  0
  183.9140  178.5880  138.0740 C   0  0  0  0  0  2  0  0  0  0  0  0
  186.2060  178.8790  142.9570 C   0  0  0  0  0  2  0  0  0  0  0  0
  188.6950  177.2930  145.5530 C   0  0  0  0  0  2  0  0  0  0  0  0
  186.1790  178.4320  140.4790 C   0  0  0  0  0  0  0  0  0  0  0  0
  187.4830  177.3620  137.1880 C   0  0  0  0  0  2  0  0  0  0  0  0
  188.1700  178.1410  144.3610 C   0  0  1  0  0  3  0  0  0  0  0  0
  187.1450  178.0130  147.4100 C   0  0  0  0  0  3  0  0  0  0  0  0
  184.9950  177.5400  137.7800 C   0  0  2  0  0  3  0  0  0  0  0  0
  188.2180  177.8760  141.8430 C   0  0  0  0  0  0  0  0  0  0  0  0
  186.0270  178.7310  145.4240 C   0  0  1  0  0  3  0  0  0  0  0  0
  186.8510  178.3400  141.7600 N   0  0  0  0  0  0  0  0  0  0  0  0
  190.8510  177.0090  141.9780 C   0  0  0  0  0  3  0  0  0  0  0  0
  184.2580  179.5340  139.2270 C   0  0  0  0  0  2  0  0  0  0  0  0
  190.1740  177.3420  143.1110 N   0  0  0  0  0  0  0  0  0  0  0  0
  184.7020  178.7610  140.4610 C   0  0  0  0  0  2  0  0  0  0  0  0
  186.3950  178.1400  137.9440 C   0  0  1  0  0  3  0  0  0  0  0  0
  190.2230  177.0870  140.7350 C   0  0  0  0  0  3  0  0  0  0  0  0
  188.1950  177.6280  139.4320 N   0  0  0  0  0  0  0  0  0  0  0  0
  184.8040  177.0510  136.4840 O   0  0  0  0  0  0  0  0  0  0  0  0
  183.5920  176.3590  136.5370 C   0  0  0  0  0  2  0  0  0  0  0  0
  185.9600  174.1560  136.9720 O   0  0  0  0  0  0  0  0  0  0  0  0
  183.6640  174.0900  137.5130 C   0  0  0  0  0  2  0  0  0  0  0  0
  183.8220  174.8860  136.2510 C   0  0  2  0  0  3  0  0  0  0  0  0
  185.0050  173.4230  137.6910 C   0  0  0  0  0  2  0  0  0  0  0  0
  185.2680  174.6690  135.8630 C   0  0  0  0  0  2  0  0  0  0  0  0
  1 26  2  0  0  0  0
  1 18  1  0  0  0  0
  2 27  1  0  0  0  0
  3  7  1  0  0  0  0
  3 16  1  1  0  0  0
  4 23  1  0  0  0  0
  4 15  1  0  0  0  0
  5 11  1  6  0  0  0
  5 15  1  0  0  0  0
  5 19  1  0  0  0  0
  6  7  1  0  0  0  0
  8 16  2  0  0  0  0
  9 27  1  0  0  0  0
  9 13  2  0  0  0  0
 10 22  1  0  0  0  0
 12  8  1  0  0  0  0
 13 20  1  0  0  0  0
 14  2  1  0  0  0  0
 15 12  1  1  0  0  0
 17 28  1  6  0  0  0
 17 25  1  0  0  0  0
 17 10  1  0  0  0  0
 18  4  2  0  0  0  0
 19  6  1  6  0  0  0
 19  3  1  0  0  0  0
 20 18  1  0  0  0  0
 20 11  1  0  0  0  0
 21 23  2  0  0  0  0
 22 24  1  0  0  0  0
 24 13  1  0  0  0  0
 25 14  1  6  0  0  0
 25  9  1  0  0  0  0
 26 21  1  0  0  0  0
 27  1  1  0  0  0  0
 28 29  1  0  0  0  0
 30 33  1  0  0  0  0
 31 33  1  0  0  0  0
 32 29  1  1  0  0  0
 32 31  1  0  0  0  0
 34 32  1  0  0  0  0
 34 30  1  0  0  0  0
M  END
>  <MODEL>
6

>  <REMARK>
 VINA RESULT:      -8.8      2.262      4.384
  Name = 
  3 active torsions:
  status: ('A' for Active; 'I' for Inactive)
    1  A    between atoms: C_17  and  O_28
    2  A    between atoms: O_28  and  C_29
    3  A    between atoms: C_29  and  C_32
                            x       y       z     vdW  Elec       q    Type
                         _______ _______ _______ _____ _____    ______ ____

>  <TORSDO>
F 3

$$$$
=
 OpenBabel11122412113D

 34 41  0  0  1  0  0  0  0  0999 V2000
  188.5850  177.6740  138.5510 C   0  0  0  0  0  0  0  0  0  0  0  0
  186.9920  178.3750  140.4430 C   0  0  0  0  0  2  0  0  0  0  0  0
  193.7200  174.2460  136.6170 C   0  0  2  0  0  3  0  0  0  0  0  0
  190.1890  176.8890  136.9180 C   0  0  0  0  0  0  0  0  0  0  0  0
  192.2670  175.7370  137.7920 C   0  0  1  0  0  3  0  0  0  0  0  0
  194.6810  174.7480  138.2750 C   0  0  0  0  0  2  0  0  0  0  0  0
  194.8180  173.7230  137.3130 O   0  0  0  0  0  0  0  0  0  0  0  0
  192.8400  175.2320  134.6030 C   0  0  0  0  0  3  0  0  0  0  0  0
  189.2130  177.7540  140.9560 C   0  0  0  0  0  0  0  0  0  0  0  0
  190.3080  177.3800  143.9960 C   0  0  0  0  0  2  0  0  0  0  0  0
  192.2070  176.6810  138.9870 C   0  0  0  0  0  2  0  0  0  0  0  0
  191.5120  175.4620  135.3170 C   0  0  0  0  0  2  0  0  0  0  0  0
  190.4590  177.2920  140.6940 C   0  0  0  0  0  0  0  0  0  0  0  0
  187.1380  178.3060  141.9670 C   0  0  0  0  0  2  0  0  0  0  0  0
  191.5710  176.3890  136.5620 C   0  0  1  0  0  3  0  0  0  0  0  0
  193.8900  174.6270  135.1920 C   0  0  0  0  0  3  0  0  0  0  0  0
  188.9340  177.1250  143.3640 C   0  0  2  0  0  3  0  0  0  0  0  0
  189.8650  177.1960  138.2520 C   0  0  0  0  0  0  0  0  0  0  0  0
  193.7100  175.5050  137.4070 C   0  0  1  0  0  3  0  0  0  0  0  0
  190.8200  177.0040  139.3200 N   0  0  0  0  0  0  0  0  0  0  0  0
  188.0260  177.5970  136.2120 C   0  0  0  0  0  3  0  0  0  0  0  0
  191.3790  177.8350  143.0020 C   0  0  0  0  0  2  0  0  0  0  0  0
  189.2700  177.1190  135.9360 N   0  0  0  0  0  0  0  0  0  0  0  0
  191.4330  176.9170  141.7900 C   0  0  0  0  0  2  0  0  0  0  0  0
  188.6360  178.1570  142.2720 C   0  0  1  0  0  3  0  0  0  0  0  0
  187.6560  177.8770  137.5270 C   0  0  0  0  0  3  0  0  0  0  0  0
  188.2710  177.9430  139.9180 N   0  0  0  0  0  0  0  0  0  0  0  0
  187.9640  177.1610  144.3700 O   0  0  0  0  0  0  0  0  0  0  0  0
  188.5600  177.8660  145.4180 C   0  0  0  0  0  2  0  0  0  0  0  0
  189.6590  177.9760  148.4890 O   0  0  0  0  0  0  0  0  0  0  0  0
  187.4650  178.0670  147.6240 C   0  0  0  0  0  2  0  0  0  0  0  0
  188.2780  177.1700  146.7380 C   0  0  2  0  0  3  0  0  0  0  0  0
  188.3310  178.2500  148.8460 C   0  0  0  0  0  2  0  0  0  0  0  0
  189.5740  176.9870  147.4960 C   0  0  0  0  0  2  0  0  0  0  0  0
  1 27  1  0  0  0  0
  2 14  1  0  0  0  0
  3 16  1  6  0  0  0
  3  7  1  0  0  0  0
  3 19  1  0  0  0  0
  4 18  2  0  0  0  0
  5 11  1  1  0  0  0
  7  6  1  0  0  0  0
  8 16  2  0  0  0  0
  8 12  1  0  0  0  0
  9 25  1  0  0  0  0
 11 20  1  0  0  0  0
 13  9  2  0  0  0  0
 13 24  1  0  0  0  0
 15 12  1  6  0  0  0
 15  4  1  0  0  0  0
 15  5  1  0  0  0  0
 17 10  1  0  0  0  0
 17 28  1  1  0  0  0
 18  1  1  0  0  0  0
 18 20  1  0  0  0  0
 19  5  1  0  0  0  0
 19  6  1  1  0  0  0
 20 13  1  0  0  0  0
 21 26  1  0  0  0  0
 22 10  1  0  0  0  0
 23 21  2  0  0  0  0
 23  4  1  0  0  0  0
 24 22  1  0  0  0  0
 25 14  1  6  0  0  0
 25 17  1  0  0  0  0
 26  1  2  0  0  0  0
 27  2  1  0  0  0  0
 27  9  1  0  0  0  0
 28 29  1  0  0  0  0
 30 33  1  0  0  0  0
 31 33  1  0  0  0  0
 32 29  1  6  0  0  0
 32 34  1  0  0  0  0
 32 31  1  0  0  0  0
 34 30  1  0  0  0  0
M  END
>  <MODEL>
7

>  <REMARK>
 VINA RESULT:      -8.8      3.282      8.913
  Name = 
  3 active torsions:
  status: ('A' for Active; 'I' for Inactive)
    1  A    between atoms: C_17  and  O_28
    2  A    between atoms: O_28  and  C_29
    3  A    between atoms: C_29  and  C_32
                            x       y       z     vdW  Elec       q    Type
                         _______ _______ _______ _____ _____    ______ ____

>  <TORSDO>
F 3

$$$$
=
 OpenBabel11122412113D

 34 41  0  0  1  0  0  0  0  0999 V2000
  182.4910  178.8060  143.5210 C   0  0  0  0  0  0  0  0  0  0  0  0
  184.1600  178.6230  145.4670 C   0  0  0  0  0  2  0  0  0  0  0  0
  180.9710  177.4520  137.3800 C   0  0  2  0  0  3  0  0  0  0  0  0
  181.0620  178.8620  141.5690 C   0  0  0  0  0  0  0  0  0  0  0  0
  182.0930  178.1950  139.3550 C   0  0  1  0  0  3  0  0  0  0  0  0
  182.8310  177.8560  136.8300 C   0  0  0  0  0  2  0  0  0  0  0  0
  181.7570  177.1330  136.2650 O   0  0  0  0  0  0  0  0  0  0  0  0
  179.0160  178.5380  138.2770 C   0  0  0  0  0  3  0  0  0  0  0  0
  184.9510  178.5680  143.2420 C   0  0  0  0  0  0  0  0  0  0  0  0
  188.0380  177.9070  142.4560 C   0  0  0  0  0  2  0  0  0  0  0  0
  183.3950  178.8170  139.8500 C   0  0  0  0  0  2  0  0  0  0  0  0
  179.5130  178.2290  139.6850 C   0  0  0  0  0  2  0  0  0  0  0  0
  184.8420  178.5430  141.8920 C   0  0  0  0  0  0  0  0  0  0  0  0
  185.6560  178.2880  145.4910 C   0  0  0  0  0  2  0  0  0  0  0  0
  180.8800  178.8600  140.0680 C   0  0  1  0  0  3  0  0  0  0  0  0
  179.6770  178.1490  137.1680 C   0  0  0  0  0  3  0  0  0  0  0  0
  187.1410  177.4060  143.5970 C   0  0  2  0  0  3  0  0  0  0  0  0
  182.3500  178.7840  142.1300 C   0  0  0  0  0  0  0  0  0  0  0  0
  181.9370  178.4670  137.8770 C   0  0  1  0  0  3  0  0  0  0  0  0
  183.5250  178.6580  141.2980 N   0  0  0  0  0  0  0  0  0  0  0  0
  180.1080  179.0540  143.7440 C   0  0  0  0  0  3  0  0  0  0  0  0
  187.3330  178.8410  141.4710 C   0  0  0  0  0  2  0  0  0  0  0  0
  179.9830  179.0170  142.3900 N   0  0  0  0  0  0  0  0  0  0  0  0
  186.0190  178.2450  140.9890 C   0  0  0  0  0  2  0  0  0  0  0  0
  186.1910  178.5120  144.0690 C   0  0  1  0  0  3  0  0  0  0  0  0
  181.3650  178.9420  144.3380 C   0  0  0  0  0  3  0  0  0  0  0  0
  183.8070  178.6890  144.0640 N   0  0  0  0  0  0  0  0  0  0  0  0
  187.9530  176.9580  144.6430 O   0  0  0  0  0  0  0  0  0  0  0  0
  189.2480  177.3330  144.2760 C   0  0  0  0  0  2  0  0  0  0  0  0
  189.8640  176.3890  147.3390 O   0  0  0  0  0  0  0  0  0  0  0  0
  191.3070  177.1450  145.6310 C   0  0  0  0  0  2  0  0  0  0  0  0
  189.9970  177.8630  145.4870 C   0  0  2  0  0  3  0  0  0  0  0  0
  191.2180  176.5010  146.9930 C   0  0  0  0  0  2  0  0  0  0  0  0
  189.2410  177.4970  146.7440 C   0  0  0  0  0  2  0  0  0  0  0  0
  1 27  1  0  0  0  0
  1 26  1  0  0  0  0
  2 14  1  0  0  0  0
  3 16  1  6  0  0  0
  3 19  1  0  0  0  0
  4 18  1  0  0  0  0
  4 23  2  0  0  0  0
  5 11  1  1  0  0  0
  5 15  1  0  0  0  0
  7  6  1  0  0  0  0
  7  3  1  0  0  0  0
  8 12  1  0  0  0  0
  9 27  1  0  0  0  0
  9 25  1  0  0  0  0
 10 17  1  0  0  0  0
 11 20  1  0  0  0  0
 13  9  2  0  0  0  0
 15 12  1  1  0  0  0
 15  4  1  0  0  0  0
 16  8  2  0  0  0  0
 17 25  1  0  0  0  0
 17 28  1  1  0  0  0
 18  1  2  0  0  0  0
 19  6  1  6  0  0  0
 19  5  1  0  0  0  0
 20 13  1  0  0  0  0
 20 18  1  0  0  0  0
 21 26  2  0  0  0  0
 22 10  1  0  0  0  0
 23 21  1  0  0  0  0
 24 22  1  0  0  0  0
 24 13  1  0  0  0  0
 25 14  1  1  0  0  0
 27  2  1  0  0  0  0
 29 28  1  0  0  0  0
 31 33  1  0  0  0  0
 32 29  1  6  0  0  0
 32 31  1  0  0  0  0
 32 34  1  0  0  0  0
 33 30  1  0  0  0  0
 34 30  1  0  0  0  0
M  END
>  <MODEL>
8

>  <REMARK>
 VINA RESULT:      -8.5      3.241      8.593
  Name = 
  3 active torsions:
  status: ('A' for Active; 'I' for Inactive)
    1  A    between atoms: C_17  and  O_28
    2  A    between atoms: O_28  and  C_29
    3  A    between atoms: C_29  and  C_32
                            x       y       z     vdW  Elec       q    Type
                         _______ _______ _______ _____ _____    ______ ____

>  <TORSDO>
F 3

$$$$
=
 OpenBabel11122412113D

 34 41  0  0  1  0  0  0  0  0999 V2000
  184.6430  178.4200  144.2110 C   0  0  0  0  0  0  0  0  0  0  0  0
  182.4780  179.1210  143.0150 C   0  0  0  0  0  2  0  0  0  0  0  0
  191.1020  178.0490  144.2070 C   0  0  2  0  0  3  0  0  0  0  0  0
  186.7910  177.8390  145.1620 C   0  0  0  0  0  0  0  0  0  0  0  0
  188.7940  177.8700  143.6140 C   0  0  1  0  0  3  0  0  0  0  0  0
  191.0710  177.5030  142.3040 C   0  0  0  0  0  2  0  0  0  0  0  0
  192.0430  178.0490  143.1700 O   0  0  0  0  0  0  0  0  0  0  0  0
  190.4370  177.2580  146.3840 C   0  0  0  0  0  3  0  0  0  0  0  0
  184.3870  178.5630  141.7410 C   0  0  0  0  0  0  0  0  0  0  0  0
  184.5680  178.9710  138.5180 C   0  0  0  0  0  2  0  0  0  0  0  0
  187.8590  177.4010  142.5040 C   0  0  0  0  0  2  0  0  0  0  0  0
  189.0850  177.9380  146.1990 C   0  0  0  0  0  2  0  0  0  0  0  0
  185.6810  178.2180  141.5400 C   0  0  0  0  0  0  0  0  0  0  0  0
  182.1920  179.4440  141.5450 C   0  0  0  0  0  2  0  0  0  0  0  0
  188.2370  177.4310  145.0000 C   0  0  1  0  0  3  0  0  0  0  0  0
  191.4200  177.3260  145.4650 C   0  0  0  0  0  3  0  0  0  0  0  0
  183.8460  179.7680  139.6130 C   0  0  2  0  0  3  0  0  0  0  0  0
  185.9830  178.0610  144.0320 C   0  0  0  0  0  0  0  0  0  0  0  0
  190.1400  177.2050  143.4510 C   0  0  1  0  0  3  0  0  0  0  0  0
  186.5170  177.9510  142.6930 N   0  0  0  0  0  0  0  0  0  0  0  0
  184.9310  178.2530  146.5940 C   0  0  0  0  0  3  0  0  0  0  0  0
  185.4080  177.8050  139.0450 C   0  0  0  0  0  2  0  0  0  0  0  0
  186.2370  177.9180  146.4060 N   0  0  0  0  0  0  0  0  0  0  0  0
  186.3270  178.2530  140.1720 C   0  0  0  0  0  2  0  0  0  0  0  0
  183.3360  178.8370  140.7180 C   0  0  1  0  0  3  0  0  0  0  0  0
  184.1090  178.5170  145.4980 C   0  0  0  0  0  3  0  0  0  0  0  0
  183.8550  178.6750  143.0460 N   0  0  0  0  0  0  0  0  0  0  0  0
  182.7950  180.4810  139.0290 O   0  0  0  0  0  0  0  0  0  0  0  0
  182.2470  179.6070  138.0870 C   0  0  0  0  0  2  0  0  0  0  0  0
  180.8050  182.3870  137.1710 O   0  0  0  0  0  0  0  0  0  0  0  0
  180.7800  180.2360  136.2010 C   0  0  0  0  0  2  0  0  0  0  0  0
  180.8580  180.0750  137.6910 C   0  0  2  0  0  3  0  0  0  0  0  0
  180.4300  181.6920  136.0130 C   0  0  0  0  0  2  0  0  0  0  0  0
  180.6280  181.4720  138.2210 C   0  0  0  0  0  2  0  0  0  0  0  0
  1 26  1  0  0  0  0
  2 27  1  0  0  0  0
  3 16  1  1  0  0  0
  4 23  2  0  0  0  0
  5 11  1  6  0  0  0
  5 15  1  0  0  0  0
  6  7  1  0  0  0  0
  7  3  1  0  0  0  0
  9 27  1  0  0  0  0
 10 22  1  0  0  0  0
 10 17  1  0  0  0  0
 11 20  1  0  0  0  0
 12  8  1  0  0  0  0
 13  9  2  0  0  0  0
 13 20  1  0  0  0  0
 14  2  1  0  0  0  0
 15  4  1  0  0  0  0
 15 12  1  1  0  0  0
 16  8  2  0  0  0  0
 17 28  1  6  0  0  0
 17 25  1  0  0  0  0
 18  1  2  0  0  0  0
 18  4  1  0  0  0  0
 19  6  1  6  0  0  0
 19  5  1  0  0  0  0
 19  3  1  0  0  0  0
 20 18  1  0  0  0  0
 22 24  1  0  0  0  0
 23 21  1  0  0  0  0
 24 13  1  0  0  0  0
 25 14  1  1  0  0  0
 25  9  1  0  0  0  0
 26 21  2  0  0  0  0
 27  1  1  0  0  0  0
 29 28  1  0  0  0  0
 30 34  1  0  0  0  0
 31 32  1  0  0  0  0
 32 29  1  6  0  0  0
 32 34  1  0  0  0  0
 33 31  1  0  0  0  0
 33 30  1  0  0  0  0
M  END
>  <MODEL>
9

>  <REMARK>
 VINA RESULT:      -8.4      3.191      4.643
  Name = 
  3 active torsions:
  status: ('A' for Active; 'I' for Inactive)
    1  A    between atoms: C_17  and  O_28
    2  A    between atoms: O_28  and  C_29
    3  A    between atoms: C_29  and  C_32
                            x       y       z     vdW  Elec       q    Type
                         _______ _______ _______ _____ _____    ______ ____

>  <TORSDO>
F 3

$$$$
