=
 OpenBabel11122411573D

 28 32  0  0  1  0  0  0  0  0999 V2000
  185.3880  174.8250  136.8400 C   0  0  0  0  0  0  0  0  0  0  0  0
  183.2110  178.0020  140.4020 C   0  0  0  0  0  1  0  0  0  0  0  0
  181.5140  174.6240  134.5940 O   0  0  0  0  0  0  0  0  0  0  0  0
  186.1140  176.5550  134.7610 C   0  0  0  0  0  3  0  0  0  0  0  0
  181.4160  176.8160  135.6020 C   0  0  1  0  0  3  0  0  0  0  0  0
  184.9880  173.9490  137.8500 O   0  0  0  0  0  0  0  0  0  0  0  0
  185.4370  178.6870  139.5900 C   0  0  0  0  0  1  0  0  0  0  0  0
  183.9530  178.7300  139.2870 C   0  0  0  0  0  0  0  0  0  0  0  0
  182.3300  180.4250  138.6480 C   0  0  0  0  0  0  0  0  0  0  0  0
  183.6910  178.0810  137.9030 C   0  0  2  0  0  3  0  0  0  0  0  0
  183.1340  171.9800  135.7990 O   0  0  0  0  0  0  0  0  0  0  0  0
  182.4500  176.0290  137.7030 C   0  0  1  0  0  3  0  0  0  0  0  0
  181.5330  179.3380  138.0100 C   0  0  0  0  0  2  0  0  0  0  0  0
  183.5350  180.0910  139.2550 O   0  0  0  0  0  0  0  0  0  0  0  0
  183.2700  172.6650  136.8000 C   0  0  0  0  0  0  0  0  0  0  0  0
  184.8700  176.1320  136.8110 C   0  0  0  0  0  0  0  0  0  0  0  0
  181.7530  175.3770  135.5740 C   0  0  0  0  0  0  0  0  0  0  0  0
  181.9130  181.6120  138.6580 O   0  0  0  0  0  0  0  0  0  0  0  0
  182.1490  173.5460  137.2550 C   0  0  0  0  0  2  0  0  0  0  0  0
  185.2370  176.9870  135.7570 C   0  0  0  0  0  3  0  0  0  0  0  0
  186.2620  174.3940  135.8310 C   0  0  0  0  0  3  0  0  0  0  0  0
  186.6270  175.2580  134.7980 C   0  0  0  0  0  3  0  0  0  0  0  0
  184.5620  172.6240  137.5590 C   0  0  0  0  0  2  0  0  0  0  0  0
  181.6560  177.1790  137.0830 C   0  0  1  0  0  3  0  0  0  0  0  0
  182.3410  174.9110  136.7760 N   0  0  0  0  0  0  0  0  0  0  0  0
  182.4010  178.4270  137.2500 N   0  0  2  0  0  0  0  0  0  0  0  0
  182.2840  177.5100  134.7550 O   0  0  0  0  0  1  0  0  0  0  0  0
  183.8740  176.5660  137.8730 C   0  0  1  0  0  3  0  0  0  0  0  0
  1  6  1  0  0  0  0
  3 17  2  0  0  0  0
  4 22  2  0  0  0  0
  4 20  1  0  0  0  0
  5 27  1  6  0  0  0
  5 24  1  0  0  0  0
  8  7  1  0  0  0  0
  8  2  1  0  0  0  0
  9 18  2  0  0  0  0
  9 14  1  0  0  0  0
 10  8  1  1  0  0  0
 11 15  2  0  0  0  0
 12 25  1  6  0  0  0
 12 28  1  0  0  0  0
 13  9  1  0  0  0  0
 14  8  1  0  0  0  0
 15 19  1  0  0  0  0
 15 23  1  0  0  0  0
 16  1  1  0  0  0  0
 16 28  1  0  0  0  0
 17  5  1  0  0  0  0
 17 25  1  0  0  0  0
 20 16  2  0  0  0  0
 21  1  2  0  0  0  0
 22 21  1  0  0  0  0
 23  6  1  0  0  0  0
 24 26  1  0  0  0  0
 24 12  1  0  0  0  0
 25 19  1  0  0  0  0
 26 10  1  0  0  0  0
 26 13  1  0  0  0  0
 28 10  1  0  0  0  0
M  END
>  <MODEL>
1

>  <REMARK>
 VINA RESULT:      -4.8      0.000      0.000
  Name = 
  0 active torsions:
  status: ('A' for Active; 'I' for Inactive)
                            x       y       z     vdW  Elec       q    Type
                         _______ _______ _______ _____ _____    ______ ____

>  <TORSDO>
F 0

$$$$
=
 OpenBabel11122411573D

 28 32  0  0  1  0  0  0  0  0999 V2000
  189.5970  177.9640  137.9750 C   0  0  0  0  0  0  0  0  0  0  0  0
  193.2300  176.2620  134.5940 C   0  0  0  0  0  1  0  0  0  0  0  0
  186.9030  174.5610  136.8540 O   0  0  0  0  0  0  0  0  0  0  0  0
  190.0420  176.4160  140.2650 C   0  0  0  0  0  3  0  0  0  0  0  0
  189.1010  173.6220  136.5030 C   0  0  1  0  0  3  0  0  0  0  0  0
  189.3380  178.7090  136.8220 O   0  0  0  0  0  0  0  0  0  0  0  0
  194.0720  176.9010  136.8230 C   0  0  0  0  0  1  0  0  0  0  0  0
  193.4350  175.7800  136.0260 C   0  0  0  0  0  0  0  0  0  0  0  0
  193.8360  173.4060  135.6880 C   0  0  0  0  0  0  0  0  0  0  0  0
  192.0950  175.3720  136.6920 C   0  0  2  0  0  3  0  0  0  0  0  0
  186.0810  177.7760  136.6100 O   0  0  0  0  0  0  0  0  0  0  0  0
  189.9900  175.7360  135.5860 C   0  0  1  0  0  3  0  0  0  0  0  0
  192.3840  173.2640  135.3790 C   0  0  0  0  0  2  0  0  0  0  0  0
  194.3200  174.6650  136.0240 O   0  0  0  0  0  0  0  0  0  0  0  0
  187.1960  177.9050  136.1330 C   0  0  0  0  0  0  0  0  0  0  0  0
  190.4080  176.8190  137.8910 C   0  0  0  0  0  0  0  0  0  0  0  0
  188.0950  174.7060  136.4760 C   0  0  0  0  0  0  0  0  0  0  0  0
  194.6100  172.4160  135.6230 O   0  0  0  0  0  0  0  0  0  0  0  0
  187.7390  176.8550  135.2140 C   0  0  0  0  0  2  0  0  0  0  0  0
  190.6160  176.0470  139.0480 C   0  0  0  0  0  3  0  0  0  0  0  0
  189.0160  178.3260  139.1980 C   0  0  0  0  0  3  0  0  0  0  0  0
  189.2410  177.5570  140.3410 C   0  0  0  0  0  3  0  0  0  0  0  0
  188.0180  179.1110  136.4790 C   0  0  0  0  0  2  0  0  0  0  0  0
  190.2650  174.2370  135.6980 C   0  0  1  0  0  3  0  0  0  0  0  0
  188.5920  175.9230  135.9460 N   0  0  0  0  0  0  0  0  0  0  0  0
  191.5670  174.0300  136.3330 N   0  0  2  0  0  0  0  0  0  0  0  0
  189.4670  173.3660  137.8260 O   0  0  0  0  0  1  0  0  0  0  0  0
  190.9790  176.4020  136.5460 C   0  0  1  0  0  3  0  0  0  0  0  0
  1 21  1  0  0  0  0
  2  8  1  0  0  0  0
  4 22  1  0  0  0  0
  5 27  1  1  0  0  0
  6  1  1  0  0  0  0
  8  7  1  0  0  0  0
  9 14  1  0  0  0  0
 10  8  1  6  0  0  0
 12 24  1  0  0  0  0
 12 25  1  1  0  0  0
 12 28  1  0  0  0  0
 13  9  1  0  0  0  0
 13 26  1  0  0  0  0
 14  8  1  0  0  0  0
 15 23  1  0  0  0  0
 15 11  2  0  0  0  0
 16  1  2  0  0  0  0
 16 20  1  0  0  0  0
 17  5  1  0  0  0  0
 17  3  2  0  0  0  0
 18  9  2  0  0  0  0
 19 25  1  0  0  0  0
 19 15  1  0  0  0  0
 20  4  2  0  0  0  0
 21 22  2  0  0  0  0
 23  6  1  0  0  0  0
 24 26  1  0  0  0  0
 24  5  1  0  0  0  0
 25 17  1  0  0  0  0
 26 10  1  0  0  0  0
 28 10  1  0  0  0  0
 28 16  1  0  0  0  0
M  END
>  <MODEL>
2

>  <REMARK>
 VINA RESULT:      -4.8      5.679      8.858
  Name = 
  0 active torsions:
  status: ('A' for Active; 'I' for Inactive)
                            x       y       z     vdW  Elec       q    Type
                         _______ _______ _______ _____ _____    ______ ____

>  <TORSDO>
F 0

$$$$
=
 OpenBabel11122411573D

 28 32  0  0  1  0  0  0  0  0999 V2000
  181.2090  178.6410  137.3810 C   0  0  0  0  0  0  0  0  0  0  0  0
  180.4100  173.6750  138.8730 C   0  0  0  0  0  1  0  0  0  0  0  0
  185.6360  177.9390  137.2780 O   0  0  0  0  0  0  0  0  0  0  0  0
  181.4570  178.4680  134.5970 C   0  0  0  0  0  3  0  0  0  0  0  0
  184.7510  175.7550  136.7510 C   0  0  1  0  0  3  0  0  0  0  0  0
  181.1330  178.7310  138.7720 O   0  0  0  0  0  0  0  0  0  0  0  0
  178.9310  174.4940  137.0770 C   0  0  0  0  0  1  0  0  0  0  0  0
  180.2950  173.9010  137.3700 C   0  0  0  0  0  0  0  0  0  0  0  0
  181.6540  172.0840  136.4960 C   0  0  0  0  0  0  0  0  0  0  0  0
  181.3960  174.8610  136.8460 C   0  0  2  0  0  3  0  0  0  0  0  0
  184.1380  180.2700  139.1200 O   0  0  0  0  0  0  0  0  0  0  0  0
  182.8900  175.9870  138.3590 C   0  0  1  0  0  3  0  0  0  0  0  0
  182.8550  172.8340  136.9640 C   0  0  0  0  0  2  0  0  0  0  0  0
  180.4010  172.6510  136.6960 O   0  0  0  0  0  0  0  0  0  0  0  0
  183.3460  179.3830  139.3910 C   0  0  0  0  0  0  0  0  0  0  0  0
  181.4050  177.3860  136.7790 C   0  0  0  0  0  0  0  0  0  0  0  0
  184.7580  177.0540  137.4570 C   0  0  0  0  0  0  0  0  0  0  0  0
  181.7680  170.9530  135.9560 O   0  0  0  0  0  0  0  0  0  0  0  0
  183.8400  177.9860  139.6060 C   0  0  0  0  0  2  0  0  0  0  0  0
  181.5350  177.3150  135.3800 C   0  0  0  0  0  3  0  0  0  0  0  0
  181.1400  179.7970  136.5900 C   0  0  0  0  0  3  0  0  0  0  0  0
  181.2590  179.7100  135.2030 C   0  0  0  0  0  3  0  0  0  0  0  0
  181.8840  179.6980  139.4960 C   0  0  0  0  0  2  0  0  0  0  0  0
  183.6670  174.9720  137.5210 C   0  0  1  0  0  3  0  0  0  0  0  0
  183.6990  177.1970  138.3870 N   0  0  0  0  0  0  0  0  0  0  0  0
  182.7400  174.2630  136.6370 N   0  0  2  0  0  0  0  0  0  0  0  0
  184.3910  175.9570  135.4160 O   0  0  0  0  0  1  0  0  0  0  0  0
  181.5420  176.1490  137.6510 C   0  0  1  0  0  3  0  0  0  0  0  0
  1  6  1  0  0  0  0
  3 17  2  0  0  0  0
  4 22  2  0  0  0  0
  4 20  1  0  0  0  0
  5 27  1  6  0  0  0
  5 17  1  0  0  0  0
  5 24  1  0  0  0  0
  6 23  1  0  0  0  0
  7  8  1  0  0  0  0
  8  2  1  0  0  0  0
  9 14  1  0  0  0  0
  9 13  1  0  0  0  0
 10  8  1  1  0  0  0
 10 28  1  0  0  0  0
 11 15  2  0  0  0  0
 12 25  1  6  0  0  0
 14  8  1  0  0  0  0
 15 23  1  0  0  0  0
 15 19  1  0  0  0  0
 16  1  1  0  0  0  0
 16 28  1  0  0  0  0
 17 25  1  0  0  0  0
 18  9  2  0  0  0  0
 20 16  2  0  0  0  0
 21  1  2  0  0  0  0
 22 21  1  0  0  0  0
 24 12  1  0  0  0  0
 25 19  1  0  0  0  0
 26 10  1  0  0  0  0
 26 13  1  0  0  0  0
 26 24  1  0  0  0  0
 28 12  1  0  0  0  0
M  END
>  <MODEL>
3

>  <REMARK>
 VINA RESULT:      -4.6      1.840      6.063
  Name = 
  0 active torsions:
  status: ('A' for Active; 'I' for Inactive)
                            x       y       z     vdW  Elec       q    Type
                         _______ _______ _______ _____ _____    ______ ____

>  <TORSDO>
F 0

$$$$
=
 OpenBabel11122411573D

 28 32  0  0  1  0  0  0  0  0999 V2000
  182.5500  179.0770  138.5880 C   0  0  0  0  0  0  0  0  0  0  0  0
  180.5380  175.3540  135.4860 C   0  0  0  0  0  1  0  0  0  0  0  0
  178.9310  178.8900  141.2270 O   0  0  0  0  0  0  0  0  0  0  0  0
  183.7320  177.6350  140.6770 C   0  0  0  0  0  3  0  0  0  0  0  0
  179.0670  176.6350  140.3720 C   0  0  1  0  0  3  0  0  0  0  0  0
  181.9240  179.8060  137.5750 O   0  0  0  0  0  0  0  0  0  0  0  0
  182.9110  175.0620  136.0920 C   0  0  0  0  0  1  0  0  0  0  0  0
  181.4870  174.8290  136.5570 C   0  0  0  0  0  0  0  0  0  0  0  0
  180.2110  172.9720  137.4720 C   0  0  0  0  0  0  0  0  0  0  0  0
  181.2680  175.5390  137.9190 C   0  0  2  0  0  3  0  0  0  0  0  0
  180.0050  181.6390  139.6910 O   0  0  0  0  0  0  0  0  0  0  0  0
  179.7570  177.4000  138.1260 C   0  0  1  0  0  3  0  0  0  0  0  0
  179.3260  173.9790  138.1250 C   0  0  0  0  0  2  0  0  0  0  0  0
  181.2860  173.4280  136.7170 O   0  0  0  0  0  0  0  0  0  0  0  0
  180.1430  180.9060  138.7260 C   0  0  0  0  0  0  0  0  0  0  0  0
  182.2410  177.7150  138.7530 C   0  0  0  0  0  0  0  0  0  0  0  0
  179.1830  178.1060  140.2740 C   0  0  0  0  0  0  0  0  0  0  0  0
  179.9800  171.7400  137.5800 O   0  0  0  0  0  0  0  0  0  0  0  0
  179.1290  179.8390  138.4500 C   0  0  0  0  0  2  0  0  0  0  0  0
  182.8360  177.0060  139.8120 C   0  0  0  0  0  3  0  0  0  0  0  0
  183.4440  179.7060  139.4660 C   0  0  0  0  0  3  0  0  0  0  0  0
  184.0360  178.9860  140.5050 C   0  0  0  0  0  3  0  0  0  0  0  0
  181.3340  181.0740  137.8290 C   0  0  0  0  0  2  0  0  0  0  0  0
  179.2120  176.1990  138.8990 C   0  0  1  0  0  3  0  0  0  0  0  0
  179.5720  178.5580  138.9890 N   0  0  0  0  0  0  0  0  0  0  0  0
  180.1170  175.0610  138.7280 N   0  0  2  0  0  0  0  0  0  0  0  0
  180.1090  176.1420  141.1600 O   0  0  0  0  0  1  0  0  0  0  0  0
  181.2220  177.0620  137.8350 C   0  0  1  0  0  3  0  0  0  0  0  0
  1 16  2  0  0  0  0
  1 21  1  0  0  0  0
  2  8  1  0  0  0  0
  5 27  1  1  0  0  0
  6 23  1  0  0  0  0
  6  1  1  0  0  0  0
  7  8  1  0  0  0  0
  8 14  1  0  0  0  0
  9 18  2  0  0  0  0
  9 13  1  0  0  0  0
 10  8  1  6  0  0  0
 10 26  1  0  0  0  0
 12 24  1  0  0  0  0
 12 25  1  1  0  0  0
 13 26  1  0  0  0  0
 14  9  1  0  0  0  0
 15 11  2  0  0  0  0
 16 20  1  0  0  0  0
 17  5  1  0  0  0  0
 17  3  2  0  0  0  0
 19 15  1  0  0  0  0
 19 25  1  0  0  0  0
 20  4  2  0  0  0  0
 21 22  2  0  0  0  0
 22  4  1  0  0  0  0
 23 15  1  0  0  0  0
 24  5  1  0  0  0  0
 25 17  1  0  0  0  0
 26 24  1  0  0  0  0
 28 10  1  0  0  0  0
 28 12  1  0  0  0  0
 28 16  1  0  0  0  0
M  END
>  <MODEL>
4

>  <REMARK>
 VINA RESULT:      -4.5      2.601      6.550
  Name = 
  0 active torsions:
  status: ('A' for Active; 'I' for Inactive)
                            x       y       z     vdW  Elec       q    Type
                         _______ _______ _______ _____ _____    ______ ____

>  <TORSDO>
F 0

$$$$
=
 OpenBabel11122411573D

 28 32  0  0  1  0  0  0  0  0999 V2000
  180.7580  176.4830  136.5830 C   0  0  0  0  0  0  0  0  0  0  0  0
  185.9070  175.5140  136.8450 C   0  0  0  0  0  1  0  0  0  0  0  0
  180.8520  178.3020  140.6800 O   0  0  0  0  0  0  0  0  0  0  0  0
  180.6250  179.1580  135.7660 C   0  0  0  0  0  3  0  0  0  0  0  0
  183.0730  178.7680  139.8530 C   0  0  1  0  0  3  0  0  0  0  0  0
  180.8140  175.1630  137.0350 O   0  0  0  0  0  0  0  0  0  0  0  0
  185.1200  176.5070  134.7280 C   0  0  0  0  0  1  0  0  0  0  0  0
  185.5530  176.8220  136.1470 C   0  0  0  0  0  0  0  0  0  0  0  0
  187.0800  178.3790  137.2230 C   0  0  0  0  0  0  0  0  0  0  0  0
  184.4090  177.5730  136.8780 C   0  0  2  0  0  3  0  0  0  0  0  0
  178.9310  175.7310  139.8010 O   0  0  0  0  0  0  0  0  0  0  0  0
  183.2470  176.5730  138.7330 C   0  0  1  0  0  3  0  0  0  0  0  0
  186.2260  178.2850  138.4410 C   0  0  0  0  0  2  0  0  0  0  0  0
  186.7060  177.6550  136.0960 O   0  0  0  0  0  0  0  0  0  0  0  0
  179.9370  175.3160  139.2520 C   0  0  0  0  0  0  0  0  0  0  0  0
  181.9110  177.2850  136.6430 C   0  0  0  0  0  0  0  0  0  0  0  0
  181.8590  177.9390  140.0160 C   0  0  0  0  0  0  0  0  0  0  0  0
  188.1270  179.0760  137.2190 O   0  0  0  0  0  0  0  0  0  0  0  0
  181.2710  175.4950  139.9090 C   0  0  0  0  0  2  0  0  0  0  0  0
  181.8270  178.6290  136.2360 C   0  0  0  0  0  3  0  0  0  0  0  0
  179.5500  177.0230  136.1190 C   0  0  0  0  0  3  0  0  0  0  0  0
  179.4850  178.3550  135.7080 C   0  0  0  0  0  3  0  0  0  0  0  0
  179.8310  174.6380  137.9190 C   0  0  0  0  0  2  0  0  0  0  0  0
  184.0640  177.7710  139.2160 C   0  0  1  0  0  3  0  0  0  0  0  0
  181.9490  176.6750  139.3830 N   0  0  0  0  0  0  0  0  0  0  0  0
  184.7990  178.3430  138.0880 N   0  0  2  0  0  0  0  0  0  0  0  0
  182.7910  179.8340  138.9960 O   0  0  0  0  0  1  0  0  0  0  0  0
  183.1970  176.7060  137.2080 C   0  0  1  0  0  3  0  0  0  0  0  0
  1 16  1  0  0  0  0
  1  6  1  0  0  0  0
  4 20  1  0  0  0  0
  5 27  1  6  0  0  0
  5 17  1  0  0  0  0
  6 23  1  0  0  0  0
  7  8  1  0  0  0  0
  8  2  1  0  0  0  0
  9 13  1  0  0  0  0
 10  8  1  1  0  0  0
 10 28  1  0  0  0  0
 10 26  1  0  0  0  0
 12 24  1  0  0  0  0
 12 25  1  1  0  0  0
 14  8  1  0  0  0  0
 14  9  1  0  0  0  0
 15 11  2  0  0  0  0
 15 19  1  0  0  0  0
 16 28  1  0  0  0  0
 17  3  2  0  0  0  0
 18  9  2  0  0  0  0
 20 16  2  0  0  0  0
 21  1  2  0  0  0  0
 22  4  2  0  0  0  0
 22 21  1  0  0  0  0
 23 15  1  0  0  0  0
 24  5  1  0  0  0  0
 25 19  1  0  0  0  0
 25 17  1  0  0  0  0
 26 13  1  0  0  0  0
 26 24  1  0  0  0  0
 28 12  1  0  0  0  0
M  END
>  <MODEL>
5

>  <REMARK>
 VINA RESULT:      -4.5      2.519      4.940
  Name = 
  0 active torsions:
  status: ('A' for Active; 'I' for Inactive)
                            x       y       z     vdW  Elec       q    Type
                         _______ _______ _______ _____ _____    ______ ____

>  <TORSDO>
F 0

$$$$
=
 OpenBabel11122411573D

 28 32  0  0  1  0  0  0  0  0999 V2000
  182.8580  177.2390  137.3760 C   0  0  0  0  0  0  0  0  0  0  0  0
  185.3350  172.6650  138.0580 C   0  0  0  0  0  1  0  0  0  0  0  0
  186.7810  179.3150  136.7490 O   0  0  0  0  0  0  0  0  0  0  0  0
  182.6660  177.4840  134.5940 C   0  0  0  0  0  3  0  0  0  0  0  0
  187.2370  177.0870  135.9370 C   0  0  1  0  0  3  0  0  0  0  0  0
  182.9890  177.1480  138.7640 O   0  0  0  0  0  0  0  0  0  0  0  0
  183.3660  172.5940  136.5730 C   0  0  0  0  0  1  0  0  0  0  0  0
  184.8490  172.9050  136.6330 C   0  0  0  0  0  0  0  0  0  0  0  0
  186.8270  172.3320  135.3390 C   0  0  0  0  0  0  0  0  0  0  0  0
  185.0850  174.3710  136.1840 C   0  0  2  0  0  3  0  0  0  0  0  0
  184.5670  180.1340  139.0940 O   0  0  0  0  0  0  0  0  0  0  0  0
  185.8980  176.0310  137.7250 C   0  0  1  0  0  3  0  0  0  0  0  0
  187.4370  173.6060  135.8170 C   0  0  0  0  0  2  0  0  0  0  0  0
  185.5340  172.0250  135.7480 O   0  0  0  0  0  0  0  0  0  0  0  0
  184.4920  178.9310  139.2800 C   0  0  0  0  0  0  0  0  0  0  0  0
  183.6290  176.4020  136.5520 C   0  0  0  0  0  0  0  0  0  0  0  0
  186.6190  178.0710  136.8520 C   0  0  0  0  0  0  0  0  0  0  0  0
  187.4730  171.5420  134.6040 O   0  0  0  0  0  0  0  0  0  0  0  0
  185.7270  178.0880  139.2050 C   0  0  0  0  0  2  0  0  0  0  0  0
  183.5290  176.5420  135.1560 C   0  0  0  0  0  3  0  0  0  0  0  0
  181.9990  178.1900  136.8060 C   0  0  0  0  0  3  0  0  0  0  0  0
  181.9010  178.3090  135.4190 C   0  0  0  0  0  3  0  0  0  0  0  0
  183.1610  178.3060  139.5710 C   0  0  0  0  0  2  0  0  0  0  0  0
  186.9550  175.7520  136.6570 C   0  0  1  0  0  3  0  0  0  0  0  0
  185.8540  177.4770  137.8860 N   0  0  0  0  0  0  0  0  0  0  0  0
  186.4670  174.7100  135.7530 N   0  0  2  0  0  0  0  0  0  0  0  0
  186.5980  177.1480  134.6960 O   0  0  0  0  0  1  0  0  0  0  0  0
  184.6030  175.4200  137.1820 C   0  0  1  0  0  3  0  0  0  0  0  0
  1  6  1  0  0  0  0
  3 17  2  0  0  0  0
  4 20  2  0  0  0  0
  4 22  1  0  0  0  0
  5 27  1  6  0  0  0
  5 24  1  0  0  0  0
  5 17  1  0  0  0  0
  6 23  1  0  0  0  0
  7  8  1  0  0  0  0
  8  2  1  0  0  0  0
  9 14  1  0  0  0  0
  9 13  1  0  0  0  0
 10  8  1  1  0  0  0
 10 28  1  0  0  0  0
 11 15  2  0  0  0  0
 12 25  1  6  0  0  0
 14  8  1  0  0  0  0
 15 23  1  0  0  0  0
 16 28  1  0  0  0  0
 16  1  2  0  0  0  0
 17 25  1  0  0  0  0
 18  9  2  0  0  0  0
 19 15  1  0  0  0  0
 20 16  1  0  0  0  0
 21  1  1  0  0  0  0
 22 21  2  0  0  0  0
 24 12  1  0  0  0  0
 25 19  1  0  0  0  0
 26 13  1  0  0  0  0
 26 10  1  0  0  0  0
 26 24  1  0  0  0  0
 28 12  1  0  0  0  0
M  END
>  <MODEL>
6

>  <REMARK>
 VINA RESULT:      -4.5      2.248      6.264
  Name = 
  0 active torsions:
  status: ('A' for Active; 'I' for Inactive)
                            x       y       z     vdW  Elec       q    Type
                         _______ _______ _______ _____ _____    ______ ____

>  <TORSDO>
F 0

$$$$
=
 OpenBabel11122411573D

 28 32  0  0  1  0  0  0  0  0999 V2000
  179.8160  180.0760  139.6300 C   0  0  0  0  0  0  0  0  0  0  0  0
  179.6640  175.0560  138.1140 C   0  0  0  0  0  1  0  0  0  0  0  0
  183.5880  179.3090  141.9280 O   0  0  0  0  0  0  0  0  0  0  0  0
  181.5710  181.2700  137.8030 C   0  0  0  0  0  3  0  0  0  0  0  0
  183.7380  177.7020  140.1310 C   0  0  1  0  0  3  0  0  0  0  0  0
  178.9760  179.4810  140.5730 O   0  0  0  0  0  0  0  0  0  0  0  0
  179.2450  176.7140  136.3360 C   0  0  0  0  0  1  0  0  0  0  0  0
  180.3290  175.9910  137.1100 C   0  0  0  0  0  0  0  0  0  0  0  0
  182.3620  174.7680  136.5770 C   0  0  0  0  0  0  0  0  0  0  0  0
  181.2420  177.0320  137.8110 C   0  0  2  0  0  3  0  0  0  0  0  0
  180.7840  180.5140  143.2530 O   0  0  0  0  0  0  0  0  0  0  0  0
  181.3190  177.2070  140.2100 C   0  0  1  0  0  3  0  0  0  0  0  0
  182.8710  175.1390  137.9290 C   0  0  0  0  0  2  0  0  0  0  0  0
  181.1050  175.2240  136.1960 O   0  0  0  0  0  0  0  0  0  0  0  0
  180.2370  179.6450  142.5960 C   0  0  0  0  0  0  0  0  0  0  0  0
  180.6270  179.2660  138.8160 C   0  0  0  0  0  0  0  0  0  0  0  0
  183.0210  178.4910  141.1560 C   0  0  0  0  0  0  0  0  0  0  0  0
  183.0420  174.0400  135.8080 O   0  0  0  0  0  0  0  0  0  0  0  0
  180.8780  178.2990  142.4610 C   0  0  0  0  0  2  0  0  0  0  0  0
  181.5090  179.8800  137.9090 C   0  0  0  0  0  3  0  0  0  0  0  0
  179.8890  181.4720  139.5260 C   0  0  0  0  0  3  0  0  0  0  0  0
  180.7610  182.0670  138.6130 C   0  0  0  0  0  3  0  0  0  0  0  0
  178.9310  179.9360  141.9190 C   0  0  0  0  0  2  0  0  0  0  0  0
  182.6590  176.6940  139.6830 C   0  0  1  0  0  3  0  0  0  0  0  0
  181.6340  178.2110  141.2160 N   0  0  0  0  0  0  0  0  0  0  0  0
  182.5840  176.5500  138.2280 N   0  0  2  0  0  0  0  0  0  0  0  0
  184.1230  178.5450  139.0860 O   0  0  0  0  0  1  0  0  0  0  0  0
  180.5850  177.7560  138.9830 C   0  0  1  0  0  3  0  0  0  0  0  0
  1  6  1  0  0  0  0
  4 20  2  0  0  0  0
  4 22  1  0  0  0  0
  5 27  1  6  0  0  0
  5 17  1  0  0  0  0
  6 23  1  0  0  0  0
  7  8  1  0  0  0  0
  8  2  1  0  0  0  0
  9 13  1  0  0  0  0
 10  8  1  1  0  0  0
 10 26  1  0  0  0  0
 10 28  1  0  0  0  0
 12 25  1  1  0  0  0
 13 26  1  0  0  0  0
 14  9  1  0  0  0  0
 14  8  1  0  0  0  0
 15 11  2  0  0  0  0
 16 28  1  0  0  0  0
 16  1  2  0  0  0  0
 17 25  1  0  0  0  0
 17  3  2  0  0  0  0
 18  9  2  0  0  0  0
 19 15  1  0  0  0  0
 20 16  1  0  0  0  0
 21  1  1  0  0  0  0
 22 21  2  0  0  0  0
 23 15  1  0  0  0  0
 24  5  1  0  0  0  0
 24 12  1  0  0  0  0
 25 19  1  0  0  0  0
 26 24  1  0  0  0  0
 28 12  1  0  0  0  0
M  END
>  <MODEL>
7

>  <REMARK>
 VINA RESULT:      -4.5      2.561      6.927
  Name = 
  0 active torsions:
  status: ('A' for Active; 'I' for Inactive)
                            x       y       z     vdW  Elec       q    Type
                         _______ _______ _______ _____ _____    ______ ____

>  <TORSDO>
F 0

$$$$
=
 OpenBabel11122411573D

 28 32  0  0  1  0  0  0  0  0999 V2000
  182.2630  179.2800  141.9730 C   0  0  0  0  0  0  0  0  0  0  0  0
  179.6050  182.1430  138.4710 C   0  0  0  0  0  1  0  0  0  0  0  0
  179.6560  175.7360  141.1140 O   0  0  0  0  0  0  0  0  0  0  0  0
  184.1140  177.8720  140.4140 C   0  0  0  0  0  3  0  0  0  0  0  0
  179.6500  176.9090  139.0030 C   0  0  1  0  0  3  0  0  0  0  0  0
  181.3140  179.9430  142.7540 O   0  0  0  0  0  0  0  0  0  0  0  0
  182.0620  182.3240  138.3440 C   0  0  0  0  0  1  0  0  0  0  0  0
  180.8680  181.4930  137.9160 C   0  0  0  0  0  0  0  0  0  0  0  0
  180.0470  180.5160  135.8460 C   0  0  0  0  0  0  0  0  0  0  0  0
  181.0420  180.0400  138.4320 C   0  0  2  0  0  3  0  0  0  0  0  0
  180.0430  177.1080  144.1210 O   0  0  0  0  0  0  0  0  0  0  0  0
  179.5650  179.1230  140.0970 C   0  0  1  0  0  3  0  0  0  0  0  0
  179.3510  179.4900  136.6750 C   0  0  0  0  0  2  0  0  0  0  0  0
  180.8070  181.4840  136.4940 O   0  0  0  0  0  0  0  0  0  0  0  0
  179.9170  178.1660  143.5270 C   0  0  0  0  0  0  0  0  0  0  0  0
  182.0990  179.2290  140.5780 C   0  0  0  0  0  0  0  0  0  0  0  0
  179.6460  176.8240  140.4800 C   0  0  0  0  0  0  0  0  0  0  0  0
  179.9310  180.5230  134.5940 O   0  0  0  0  0  0  0  0  0  0  0  0
  178.9310  178.2770  142.4060 C   0  0  0  0  0  2  0  0  0  0  0  0
  183.0320  178.5110  139.8090 C   0  0  0  0  0  3  0  0  0  0  0  0
  183.3480  178.6280  142.5770 C   0  0  0  0  0  3  0  0  0  0  0  0
  184.2720  177.9300  141.8000 C   0  0  0  0  0  3  0  0  0  0  0  0
  180.7600  179.3430  143.9180 C   0  0  0  0  0  2  0  0  0  0  0  0
  179.3560  178.4050  138.7630 C   0  0  1  0  0  3  0  0  0  0  0  0
  179.5910  178.0870  141.1190 N   0  0  0  0  0  0  0  0  0  0  0  0
  180.2270  179.0010  137.7500 N   0  0  2  0  0  0  0  0  0  0  0  0
  180.9110  176.5490  138.5240 O   0  0  0  0  0  1  0  0  0  0  0  0
  180.8850  179.8850  139.9420 C   0  0  1  0  0  3  0  0  0  0  0  0
  1 21  1  0  0  0  0
  1  6  1  0  0  0  0
  4 22  1  0  0  0  0
  5 27  1  1  0  0  0
  5 17  1  0  0  0  0
  6 23  1  0  0  0  0
  8  7  1  0  0  0  0
  8  2  1  0  0  0  0
  9 14  1  0  0  0  0
  9 13  1  0  0  0  0
 10  8  1  6  0  0  0
 10 28  1  0  0  0  0
 12 25  1  1  0  0  0
 13 26  1  0  0  0  0
 14  8  1  0  0  0  0
 15 23  1  0  0  0  0
 15 11  2  0  0  0  0
 16  1  2  0  0  0  0
 17  3  2  0  0  0  0
 17 25  1  0  0  0  0
 18  9  2  0  0  0  0
 19 15  1  0  0  0  0
 20  4  2  0  0  0  0
 20 16  1  0  0  0  0
 22 21  2  0  0  0  0
 24  5  1  0  0  0  0
 24 12  1  0  0  0  0
 25 19  1  0  0  0  0
 26 10  1  0  0  0  0
 26 24  1  0  0  0  0
 28 12  1  0  0  0  0
 28 16  1  0  0  0  0
M  END
>  <MODEL>
8

>  <REMARK>
 VINA RESULT:      -4.3      4.172      6.165
  Name = 
  0 active torsions:
  status: ('A' for Active; 'I' for Inactive)
                            x       y       z     vdW  Elec       q    Type
                         _______ _______ _______ _____ _____    ______ ____

>  <TORSDO>
F 0

$$$$
=
 OpenBabel11122411573D

 28 32  0  0  1  0  0  0  0  0999 V2000
  181.9590  178.2050  138.1150 C   0  0  0  0  0  0  0  0  0  0  0  0
  186.8730  178.2270  136.2760 C   0  0  0  0  0  1  0  0  0  0  0  0
  180.7570  175.2340  134.9810 O   0  0  0  0  0  0  0  0  0  0  0  0
  181.8850  175.9620  139.7890 C   0  0  0  0  0  3  0  0  0  0  0  0
  183.0850  174.6990  135.3380 C   0  0  1  0  0  3  0  0  0  0  0  0
  181.9730  179.2990  137.2470 O   0  0  0  0  0  0  0  0  0  0  0  0
  186.6580  178.0620  138.7280 C   0  0  0  0  0  1  0  0  0  0  0  0
  186.6450  177.2660  137.4380 C   0  0  0  0  0  0  0  0  0  0  0  0
  187.6940  175.2360  136.6050 C   0  0  0  0  0  0  0  0  0  0  0  0
  185.2920  176.5170  137.3090 C   0  0  2  0  0  3  0  0  0  0  0  0
  179.3450  178.2180  135.3910 O   0  0  0  0  0  0  0  0  0  0  0  0
  183.7190  177.0750  135.5750 C   0  0  1  0  0  3  0  0  0  0  0  0
  186.5350  175.0880  135.6780 C   0  0  0  0  0  2  0  0  0  0  0  0
  187.7070  176.3170  137.4780 O   0  0  0  0  0  0  0  0  0  0  0  0
  180.4920  178.6180  135.5010 C   0  0  0  0  0  0  0  0  0  0  0  0
  182.9910  177.2530  138.0450 C   0  0  0  0  0  0  0  0  0  0  0  0
  181.9340  175.6190  135.2120 C   0  0  0  0  0  0  0  0  0  0  0  0
  188.6490  174.4170  136.5830 O   0  0  0  0  0  0  0  0  0  0  0  0
  181.5670  178.0400  134.6340 C   0  0  0  0  0  2  0  0  0  0  0  0
  182.9360  176.1270  138.8860 C   0  0  0  0  0  3  0  0  0  0  0  0
  180.9010  178.0290  139.0180 C   0  0  0  0  0  3  0  0  0  0  0  0
  180.8660  176.9130  139.8550 C   0  0  0  0  0  3  0  0  0  0  0  0
  180.8170  179.6770  136.5120 C   0  0  0  0  0  2  0  0  0  0  0  0
  184.2820  175.6730  135.3360 C   0  0  1  0  0  3  0  0  0  0  0  0
  182.2860  176.9850  135.3400 N   0  0  0  0  0  0  0  0  0  0  0  0
  185.2690  175.3640  136.3720 N   0  0  2  0  0  0  0  0  0  0  0  0
  182.9890  174.0020  136.5450 O   0  0  0  0  0  1  0  0  0  0  0  0
  184.0980  177.4220  137.0180 C   0  0  1  0  0  3  0  0  0  0  0  0
  1 21  1  0  0  0  0
  2  8  1  0  0  0  0
  3 17  2  0  0  0  0
  4 22  1  0  0  0  0
  5 27  1  1  0  0  0
  6  1  1  0  0  0  0
  8 14  1  0  0  0  0
  8  7  1  0  0  0  0
  9 14  1  0  0  0  0
 10  8  1  6  0  0  0
 11 15  2  0  0  0  0
 12 25  1  1  0  0  0
 12 28  1  0  0  0  0
 13 26  1  0  0  0  0
 13  9  1  0  0  0  0
 15 23  1  0  0  0  0
 16  1  2  0  0  0  0
 16 20  1  0  0  0  0
 17  5  1  0  0  0  0
 17 25  1  0  0  0  0
 18  9  2  0  0  0  0
 19 25  1  0  0  0  0
 19 15  1  0  0  0  0
 20  4  2  0  0  0  0
 21 22  2  0  0  0  0
 23  6  1  0  0  0  0
 24  5  1  0  0  0  0
 24 12  1  0  0  0  0
 24 26  1  0  0  0  0
 26 10  1  0  0  0  0
 28 10  1  0  0  0  0
 28 16  1  0  0  0  0
M  END
>  <MODEL>
9

>  <REMARK>
 VINA RESULT:      -4.2      2.065      5.342
  Name = 
  0 active torsions:
  status: ('A' for Active; 'I' for Inactive)
                            x       y       z     vdW  Elec       q    Type
                         _______ _______ _______ _____ _____    ______ ____

>  <TORSDO>
F 0

$$$$
