=
 OpenBabel11122412153D

 34 41  0  0  1  0  0  0  0  0999 V2000
  186.9740  178.1770  140.9800 C   0  0  0  0  0  0  0  0  0  0  0  0
  187.9880  177.8600  138.6250 C   0  0  0  0  0  3  0  0  0  0  0  0
  187.6580  178.5050  147.3780 C   0  0  2  0  0  3  0  0  0  0  0  0
  186.2460  178.4740  143.3000 C   0  0  0  0  0  0  0  0  0  0  0  0
  187.6420  177.6090  145.1090 C   0  0  0  0  0  0  0  0  0  0  0  0
  189.2330  177.0960  147.1310 C   0  0  0  0  0  2  0  0  0  0  0  0
  188.9040  178.1680  148.1660 C   0  0  0  0  0  2  0  0  0  0  0  0
  185.2120  178.1730  146.9870 C   0  0  0  0  0  2  0  0  0  0  0  0
  189.0850  176.9650  140.5040 C   0  0  0  0  0  0  0  0  0  0  0  0
  191.7760  177.8490  140.6890 C   0  0  0  0  0  2  0  0  0  0  0  0
  188.5460  177.1100  144.1660 C   0  0  0  0  0  3  0  0  0  0  0  0
  185.4650  178.9260  145.6630 C   0  0  0  0  0  2  0  0  0  0  0  0
  189.3240  176.7760  141.8100 C   0  0  0  0  0  0  0  0  0  0  0  0
  189.3510  177.3040  138.1740 C   0  0  0  0  0  3  0  0  0  0  0  0
  186.4540  178.2790  144.6830 C   0  0  0  0  0  0  0  0  0  0  0  0
  186.3010  178.4290  148.0520 C   0  0  0  0  0  2  0  0  0  0  0  0
  191.3740  176.9910  139.5650 N   0  0  0  0  0  0  0  0  0  0  0  0
  187.1840  177.9800  142.3620 C   0  0  0  0  0  0  0  0  0  0  0  0
  187.8390  177.2650  146.5520 C   0  0  1  0  0  3  0  0  0  0  0  0
  188.3410  177.2960  142.8000 C   0  0  0  0  0  0  0  0  0  0  0  0
  184.9130  179.3540  141.4560 C   0  0  0  0  0  3  0  0  0  0  0  0
  191.8210  177.0690  142.0100 C   0  0  0  0  0  2  0  0  0  0  0  0
  185.1140  179.1600  142.8260 C   0  0  0  0  0  3  0  0  0  0  0  0
  190.6180  176.1430  142.2380 C   0  0  0  0  0  2  0  0  0  0  0  0
  189.9760  176.5800  139.3760 C   0  0  1  0  0  3  0  0  0  0  0  0
  185.8400  178.8640  140.5340 C   0  0  0  0  0  3  0  0  0  0  0  0
  187.9420  177.6610  140.0590 N   0  0  0  0  0  0  0  0  0  0  0  0
  192.3360  176.4650  138.6830 N   0  0  0  0  0  0  0  0  0  0  0  0
  192.1280  175.3980  137.9810 C   0  0  0  0  0  3  0  0  0  0  0  0
  195.4070  175.5610  136.6590 O   0  0  0  0  0  0  0  0  0  0  0  0
  194.0980  173.9410  137.7780 C   0  0  0  0  0  2  0  0  0  0  0  0
  193.1790  174.8850  137.0590 C   0  0  2  0  0  3  0  0  0  0  0  0
  195.4500  174.6100  137.6880 C   0  0  0  0  0  2  0  0  0  0  0  0
  194.0830  176.0200  136.6390 C   0  0  0  0  0  2  0  0  0  0  0  0
  1 18  1  0  0  0  0
  2 27  1  0  0  0  0
  3 16  1  1  0  0  0
  3  7  1  0  0  0  0
  4 15  1  0  0  0  0
  5 19  1  0  0  0  0
  6  7  1  0  0  0  0
  8 16  1  0  0  0  0
  9 13  2  0  0  0  0
 10 22  1  0  0  0  0
 11  5  1  0  0  0  0
 12  8  1  0  0  0  0
 13 24  1  0  0  0  0
 13 20  1  0  0  0  0
 14  2  2  0  0  0  0
 15  5  2  0  0  0  0
 15 12  1  0  0  0  0
 17 10  1  0  0  0  0
 18 20  1  0  0  0  0
 18  4  2  0  0  0  0
 19  6  1  6  0  0  0
 19  3  1  0  0  0  0
 20 11  2  0  0  0  0
 21 23  2  0  0  0  0
 22 24  1  0  0  0  0
 23  4  1  0  0  0  0
 25 14  1  6  0  0  0
 25 17  1  0  0  0  0
 25  9  1  0  0  0  0
 26  1  2  0  0  0  0
 26 21  1  0  0  0  0
 27  9  1  0  0  0  0
 27  1  1  0  0  0  0
 28 17  1  0  0  0  0
 29 28  2  0  0  0  0
 30 33  1  0  0  0  0
 32 31  1  0  0  0  0
 32 29  1  1  0  0  0
 33 31  1  0  0  0  0
 34 30  1  0  0  0  0
 34 32  1  0  0  0  0
M  END
>  <MODEL>
1

>  <REMARK>
 VINA RESULT:     -10.7      0.000      0.000
  Name = 
  2 active torsions:
  status: ('A' for Active; 'I' for Inactive)
    1  A    between atoms: N_17  and  N_28
    2  A    between atoms: C_29  and  C_32
                            x       y       z     vdW  Elec       q    Type
                         _______ _______ _______ _____ _____    ______ ____

>  <TORSDO>
F 2

$$$$
=
 OpenBabel11122412153D

 34 41  0  0  1  0  0  0  0  0999 V2000
  188.2650  177.6870  140.3440 C   0  0  0  0  0  0  0  0  0  0  0  0
  186.6290  178.1700  138.4020 C   0  0  0  0  0  3  0  0  0  0  0  0
  189.3770  176.6460  146.6030 C   0  0  2  0  0  3  0  0  0  0  0  0
  189.6130  177.2060  142.3300 C   0  0  0  0  0  0  0  0  0  0  0  0
  188.7300  177.7720  144.5370 C   0  0  0  0  0  0  0  0  0  0  0  0
  187.7340  177.9510  146.9580 C   0  0  0  0  0  2  0  0  0  0  0  0
  188.3820  176.8050  147.7310 C   0  0  0  0  0  2  0  0  0  0  0  0
  191.6040  177.1990  145.6150 C   0  0  0  0  0  2  0  0  0  0  0  0
  186.0530  178.7810  140.5990 C   0  0  0  0  0  0  0  0  0  0  0  0
  183.5570  177.6830  141.3900 C   0  0  0  0  0  2  0  0  0  0  0  0
  187.5820  178.2970  143.9390 C   0  0  0  0  0  3  0  0  0  0  0  0
  191.0320  176.5720  144.3260 C   0  0  0  0  0  2  0  0  0  0  0  0
  186.1730  178.8150  141.9340 C   0  0  0  0  0  0  0  0  0  0  0  0
  185.1730  178.6660  138.4020 C   0  0  0  0  0  3  0  0  0  0  0  0
  189.7840  177.2400  143.7320 C   0  0  0  0  0  0  0  0  0  0  0  0
  190.8620  176.7530  146.8940 C   0  0  0  0  0  2  0  0  0  0  0  0
  183.5970  178.6810  140.3110 N   0  0  0  0  0  0  0  0  0  0  0  0
  188.4330  177.7230  141.7450 C   0  0  0  0  0  0  0  0  0  0  0  0
  188.9220  177.9490  146.0110 C   0  0  1  0  0  3  0  0  0  0  0  0
  187.4120  178.2700  142.5550 C   0  0  0  0  0  0  0  0  0  0  0  0
  190.4260  176.6250  140.1060 C   0  0  0  0  0  3  0  0  0  0  0  0
  183.8420  178.3160  142.7590 C   0  0  0  0  0  2  0  0  0  0  0  0
  190.6000  176.6600  141.4920 C   0  0  0  0  0  3  0  0  0  0  0  0
  185.0200  179.3010  142.7660 C   0  0  0  0  0  2  0  0  0  0  0  0
  184.8700  179.2130  139.8050 C   0  0  1  0  0  3  0  0  0  0  0  0
  189.2610  177.1370  139.5310 C   0  0  0  0  0  3  0  0  0  0  0  0
  187.0590  178.2220  139.7840 N   0  0  0  0  0  0  0  0  0  0  0  0
  182.4080  179.2220  139.7890 N   0  0  0  0  0  0  0  0  0  0  0  0
  181.2910  179.2130  140.4430 C   0  0  0  0  0  3  0  0  0  0  0  0
  179.1840  181.9970  139.8610 O   0  0  0  0  0  0  0  0  0  0  0  0
  180.3740  180.4500  138.5260 C   0  0  0  0  0  2  0  0  0  0  0  0
  180.0610  179.8040  139.8440 C   0  0  2  0  0  3  0  0  0  0  0  0
  180.0220  181.9040  138.7410 C   0  0  0  0  0  2  0  0  0  0  0  0
  179.5790  180.9480  140.7040 C   0  0  0  0  0  2  0  0  0  0  0  0
  1 18  1  0  0  0  0
  2 14  2  0  0  0  0
  2 27  1  0  0  0  0
  3 16  1  1  0  0  0
  3  7  1  0  0  0  0
  4 15  1  0  0  0  0
  5 19  1  0  0  0  0
  6  7  1  0  0  0  0
  8 16  1  0  0  0  0
  9 13  2  0  0  0  0
 10 22  1  0  0  0  0
 11  5  1  0  0  0  0
 12  8  1  0  0  0  0
 13 20  1  0  0  0  0
 13 24  1  0  0  0  0
 15 12  1  0  0  0  0
 15  5  2  0  0  0  0
 17 10  1  0  0  0  0
 18  4  2  0  0  0  0
 18 20  1  0  0  0  0
 19  3  1  0  0  0  0
 19  6  1  1  0  0  0
 20 11  2  0  0  0  0
 21 23  2  0  0  0  0
 22 24  1  0  0  0  0
 23  4  1  0  0  0  0
 25 14  1  6  0  0  0
 25 17  1  0  0  0  0
 25  9  1  0  0  0  0
 26 21  1  0  0  0  0
 26  1  2  0  0  0  0
 27  1  1  0  0  0  0
 27  9  1  0  0  0  0
 28 17  1  0  0  0  0
 28 29  2  0  0  0  0
 30 34  1  0  0  0  0
 31 33  1  0  0  0  0
 31 32  1  0  0  0  0
 32 29  1  1  0  0  0
 32 34  1  0  0  0  0
 33 30  1  0  0  0  0
M  END
>  <MODEL>
2

>  <REMARK>
 VINA RESULT:     -10.6      4.045      7.882
  Name = 
  2 active torsions:
  status: ('A' for Active; 'I' for Inactive)
    1  A    between atoms: N_17  and  N_28
    2  A    between atoms: C_29  and  C_32
                            x       y       z     vdW  Elec       q    Type
                         _______ _______ _______ _____ _____    ______ ____

>  <TORSDO>
F 2

$$$$
=
 OpenBabel11122412153D

 34 41  0  0  1  0  0  0  0  0999 V2000
  189.2390  177.4710  143.7210 C   0  0  0  0  0  0  0  0  0  0  0  0
  191.6800  176.9230  143.0760 C   0  0  0  0  0  3  0  0  0  0  0  0
  183.0610  178.2920  142.0860 C   0  0  2  0  0  3  0  0  0  0  0  0
  186.8640  177.9340  144.0970 C   0  0  0  0  0  0  0  0  0  0  0  0
  185.4730  178.6400  142.2160 C   0  0  0  0  0  0  0  0  0  0  0  0
  183.8050  179.0030  140.2230 C   0  0  0  0  0  2  0  0  0  0  0  0
  182.5050  178.3490  140.6810 C   0  0  0  0  0  2  0  0  0  0  0  0
  183.2960  179.3370  144.3430 C   0  0  0  0  0  2  0  0  0  0  0  0
  190.2020  177.7720  141.4550 C   0  0  0  0  0  0  0  0  0  0  0  0
  190.0470  176.0950  139.1700 C   0  0  0  0  0  2  0  0  0  0  0  0
  186.5910  178.5950  141.3780 C   0  0  0  0  0  3  0  0  0  0  0  0
  184.4020  178.2820  144.5620 C   0  0  0  0  0  2  0  0  0  0  0  0
  189.0160  178.1420  140.9500 C   0  0  0  0  0  0  0  0  0  0  0  0
  192.3830  176.8790  141.7070 C   0  0  0  0  0  3  0  0  0  0  0  0
  185.6010  178.3350  143.6060 C   0  0  0  0  0  0  0  0  0  0  0  0
  182.3070  178.9610  143.2190 C   0  0  0  0  0  2  0  0  0  0  0  0
  191.3110  176.7800  139.4780 N   0  0  0  0  0  0  0  0  0  0  0  0
  187.9790  177.8730  143.2270 C   0  0  0  0  0  0  0  0  0  0  0  0
  184.1900  179.1950  141.6800 C   0  0  1  0  0  3  0  0  0  0  0  0
  187.8390  178.2040  141.8600 C   0  0  0  0  0  0  0  0  0  0  0  0
  188.2890  177.1850  145.9280 C   0  0  0  0  0  3  0  0  0  0  0  0
  188.9800  177.0750  138.6650 C   0  0  0  0  0  2  0  0  0  0  0  0
  187.0390  177.5850  145.4470 C   0  0  0  0  0  3  0  0  0  0  0  0
  188.8850  178.3780  139.4720 C   0  0  0  0  0  2  0  0  0  0  0  0
  191.4690  177.5880  140.6960 C   0  0  1  0  0  3  0  0  0  0  0  0
  189.3880  177.1280  145.0690 C   0  0  0  0  0  3  0  0  0  0  0  0
  190.3460  177.4240  142.8140 N   0  0  0  0  0  0  0  0  0  0  0  0
  192.3830  176.7530  138.5670 N   0  0  0  0  0  0  0  0  0  0  0  0
  192.3920  175.9880  137.5230 C   0  0  0  0  0  3  0  0  0  0  0  0
  195.0180  174.3000  135.8550 O   0  0  0  0  0  0  0  0  0  0  0  0
  193.1290  175.5690  135.2150 C   0  0  0  0  0  2  0  0  0  0  0  0
  193.5520  176.0010  136.5880 C   0  0  2  0  0  3  0  0  0  0  0  0
  193.9390  174.3200  134.9600 C   0  0  0  0  0  2  0  0  0  0  0  0
  194.5510  174.9490  137.0070 C   0  0  0  0  0  2  0  0  0  0  0  0
  1 26  1  0  0  0  0
  3  7  1  6  0  0  0
  3 16  1  0  0  0  0
  4 23  2  0  0  0  0
  5 15  2  0  0  0  0
  6  7  1  0  0  0  0
  8 12  1  0  0  0  0
  9 27  1  0  0  0  0
 10 17  1  0  0  0  0
 11 20  2  0  0  0  0
 11  5  1  0  0  0  0
 13  9  2  0  0  0  0
 13 20  1  0  0  0  0
 14  2  2  0  0  0  0
 15  4  1  0  0  0  0
 15 12  1  0  0  0  0
 16  8  1  0  0  0  0
 17 25  1  0  0  0  0
 18  1  2  0  0  0  0
 18  4  1  0  0  0  0
 19  6  1  6  0  0  0
 19  3  1  0  0  0  0
 19  5  1  0  0  0  0
 20 18  1  0  0  0  0
 22 10  1  0  0  0  0
 22 24  1  0  0  0  0
 23 21  1  0  0  0  0
 24 13  1  0  0  0  0
 25  9  1  0  0  0  0
 25 14  1  1  0  0  0
 26 21  2  0  0  0  0
 27  2  1  0  0  0  0
 27  1  1  0  0  0  0
 28 17  1  0  0  0  0
 29 28  2  0  0  0  0
 30 34  1  0  0  0  0
 31 32  1  0  0  0  0
 32 34  1  0  0  0  0
 32 29  1  1  0  0  0
 33 31  1  0  0  0  0
 33 30  1  0  0  0  0
M  END
>  <MODEL>
3

>  <REMARK>
 VINA RESULT:     -10.3      1.459      4.217
  Name = 
  2 active torsions:
  status: ('A' for Active; 'I' for Inactive)
    1  A    between atoms: N_17  and  N_28
    2  A    between atoms: C_29  and  C_32
                            x       y       z     vdW  Elec       q    Type
                         _______ _______ _______ _____ _____    ______ ____

>  <TORSDO>
F 2

$$$$
=
 OpenBabel11122412153D

 34 41  0  0  1  0  0  0  0  0999 V2000
  183.3000  178.6810  143.8010 C   0  0  0  0  0  0  0  0  0  0  0  0
  184.5650  178.5950  146.0530 C   0  0  0  0  0  3  0  0  0  0  0  0
  183.0450  177.5220  137.4690 C   0  0  2  0  0  3  0  0  0  0  0  0
  182.2900  178.6330  141.5710 C   0  0  0  0  0  0  0  0  0  0  0  0
  183.7380  178.4670  139.6090 C   0  0  0  0  0  0  0  0  0  0  0  0
  185.1420  177.8830  137.4710 C   0  0  0  0  0  2  0  0  0  0  0  0
  184.1930  177.0750  136.5920 C   0  0  0  0  0  2  0  0  0  0  0  0
  181.1970  179.1410  137.9240 C   0  0  0  0  0  2  0  0  0  0  0  0
  185.7690  178.6090  144.0310 C   0  0  0  0  0  0  0  0  0  0  0  0
  187.5540  176.4100  143.8380 C   0  0  0  0  0  2  0  0  0  0  0  0
  184.8600  178.4790  140.4420 C   0  0  0  0  0  3  0  0  0  0  0  0
  181.1500  178.4810  139.3180 C   0  0  0  0  0  2  0  0  0  0  0  0
  185.9350  178.5340  142.7030 C   0  0  0  0  0  0  0  0  0  0  0  0
  186.0540  178.3690  146.3710 C   0  0  0  0  0  3  0  0  0  0  0  0
  182.4260  178.5740  140.1660 C   0  0  0  0  0  0  0  0  0  0  0  0
  181.8720  178.2580  136.8510 C   0  0  0  0  0  2  0  0  0  0  0  0
  187.7830  177.4370  144.8640 N   0  0  0  0  0  0  0  0  0  0  0  0
  183.4390  178.6230  142.3980 C   0  0  0  0  0  0  0  0  0  0  0  0
  183.9370  178.5350  138.1270 C   0  0  1  0  0  3  0  0  0  0  0  0
  184.7300  178.5430  141.8280 C   0  0  0  0  0  0  0  0  0  0  0  0
  180.8930  178.7560  143.5650 C   0  0  0  0  0  3  0  0  0  0  0  0
  187.8670  176.9350  142.4310 C   0  0  0  0  0  2  0  0  0  0  0  0
  181.0230  178.7010  142.1750 C   0  0  0  0  0  3  0  0  0  0  0  0
  187.3170  178.3390  142.1430 C   0  0  0  0  0  2  0  0  0  0  0  0
  186.8400  178.5470  145.0630 C   0  0  1  0  0  3  0  0  0  0  0  0
  182.0270  178.7460  144.3780 C   0  0  0  0  0  3  0  0  0  0  0  0
  184.4830  178.6710  144.6080 N   0  0  0  0  0  0  0  0  0  0  0  0
  188.9620  177.4360  145.6320 N   0  0  0  0  0  0  0  0  0  0  0  0
  190.1200  177.1440  145.1310 C   0  0  0  0  0  3  0  0  0  0  0  0
  191.7960  176.2410  148.1140 O   0  0  0  0  0  0  0  0  0  0  0  0
  192.1350  175.9040  145.7990 C   0  0  0  0  0  2  0  0  0  0  0  0
  191.3380  177.1620  145.9870 C   0  0  2  0  0  3  0  0  0  0  0  0
  192.1350  175.2650  147.1680 C   0  0  0  0  0  2  0  0  0  0  0  0
  190.9350  177.1200  147.4430 C   0  0  0  0  0  2  0  0  0  0  0  0
  1 26  1  0  0  0  0
  1 27  1  0  0  0  0
  2 14  2  0  0  0  0
  3  7  1  6  0  0  0
  3 19  1  0  0  0  0
  4 23  2  0  0  0  0
  4 18  1  0  0  0  0
  5 15  2  0  0  0  0
  5 11  1  0  0  0  0
  7  6  1  0  0  0  0
  8 12  1  0  0  0  0
  9 27  1  0  0  0  0
  9 25  1  0  0  0  0
 10 17  1  0  0  0  0
 11 20  2  0  0  0  0
 12 15  1  0  0  0  0
 13  9  2  0  0  0  0
 15  4  1  0  0  0  0
 16  3  1  0  0  0  0
 16  8  1  0  0  0  0
 17 25  1  0  0  0  0
 17 28  1  0  0  0  0
 18  1  2  0  0  0  0
 19  6  1  1  0  0  0
 19  5  1  0  0  0  0
 20 18  1  0  0  0  0
 20 13  1  0  0  0  0
 21 26  2  0  0  0  0
 22 10  1  0  0  0  0
 23 21  1  0  0  0  0
 24 22  1  0  0  0  0
 24 13  1  0  0  0  0
 25 14  1  1  0  0  0
 27  2  1  0  0  0  0
 29 28  2  0  0  0  0
 31 32  1  0  0  0  0
 31 33  1  0  0  0  0
 32 29  1  6  0  0  0
 32 34  1  0  0  0  0
 33 30  1  0  0  0  0
 34 30  1  0  0  0  0
M  END
>  <MODEL>
4

>  <REMARK>
 VINA RESULT:      -9.9      4.576      7.771
  Name = 
  2 active torsions:
  status: ('A' for Active; 'I' for Inactive)
    1  A    between atoms: N_17  and  N_28
    2  A    between atoms: C_29  and  C_32
                            x       y       z     vdW  Elec       q    Type
                         _______ _______ _______ _____ _____    ______ ____

>  <TORSDO>
F 2

$$$$
=
 OpenBabel11122412153D

 34 41  0  0  1  0  0  0  0  0999 V2000
  183.5280  178.6990  143.7800 C   0  0  0  0  0  0  0  0  0  0  0  0
  181.2230  179.2640  142.7580 C   0  0  0  0  0  3  0  0  0  0  0  0
  189.9010  177.9740  143.1730 C   0  0  2  0  0  3  0  0  0  0  0  0
  185.8120  178.2310  144.5300 C   0  0  0  0  0  0  0  0  0  0  0  0
  187.5060  177.6110  142.8820 C   0  0  0  0  0  0  0  0  0  0  0  0
  189.4880  177.3410  141.1840 C   0  0  0  0  0  2  0  0  0  0  0  0
  190.6860  177.9800  141.8800 C   0  0  0  0  0  2  0  0  0  0  0  0
  189.3030  176.8340  145.3140 C   0  0  0  0  0  2  0  0  0  0  0  0
  182.9610  178.4910  141.3740 C   0  0  0  0  0  0  0  0  0  0  0  0
  183.4780  180.2650  139.2190 C   0  0  0  0  0  2  0  0  0  0  0  0
  186.5430  177.6870  141.8710 C   0  0  0  0  0  3  0  0  0  0  0  0
  188.1650  177.8740  145.3870 C   0  0  0  0  0  2  0  0  0  0  0  0
  184.2190  178.1480  141.0610 C   0  0  0  0  0  0  0  0  0  0  0  0
  180.7590  179.3630  141.2930 C   0  0  0  0  0  3  0  0  0  0  0  0
  187.1430  177.8570  144.2410 C   0  0  0  0  0  0  0  0  0  0  0  0
  190.4630  177.2610  144.3880 C   0  0  0  0  0  2  0  0  0  0  0  0
  182.1880  179.5620  139.2810 N   0  0  0  0  0  0  0  0  0  0  0  0
  184.8570  178.3240  143.4890 C   0  0  0  0  0  0  0  0  0  0  0  0
  188.8660  177.0850  142.5460 C   0  0  1  0  0  3  0  0  0  0  0  0
  185.2270  178.0520  142.1520 C   0  0  0  0  0  0  0  0  0  0  0  0
  184.0910  178.8950  146.1250 C   0  0  0  0  0  3  0  0  0  0  0  0
  184.6260  179.3120  138.8600 C   0  0  0  0  0  2  0  0  0  0  0  0
  185.4080  178.5210  145.8450 C   0  0  0  0  0  3  0  0  0  0  0  0
  184.5990  177.9760  139.6170 C   0  0  0  0  0  2  0  0  0  0  0  0
  181.8370  178.7020  140.4210 C   0  0  1  0  0  3  0  0  0  0  0  0
  183.1510  178.9840  145.0970 C   0  0  0  0  0  3  0  0  0  0  0  0
  182.5870  178.7800  142.7030 N   0  0  0  0  0  0  0  0  0  0  0  0
  181.2830  179.6230  138.2060 N   0  0  0  0  0  0  0  0  0  0  0  0
  180.9680  180.7350  137.6230 C   0  0  0  0  0  3  0  0  0  0  0  0
  179.0320  182.5010  135.2430 O   0  0  0  0  0  0  0  0  0  0  0  0
  180.7350  180.8620  135.1780 C   0  0  0  0  0  2  0  0  0  0  0  0
  180.0060  180.7430  136.4850 C   0  0  2  0  0  3  0  0  0  0  0  0
  180.2280  182.1600  134.5950 C   0  0  0  0  0  2  0  0  0  0  0  0
  179.1620  181.9950  136.5440 C   0  0  0  0  0  2  0  0  0  0  0  0
  1 26  1  0  0  0  0
  3  7  1  6  0  0  0
  3 16  1  0  0  0  0
  4 23  2  0  0  0  0
  5 15  2  0  0  0  0
  6  7  1  0  0  0  0
  8 12  1  0  0  0  0
  9 27  1  0  0  0  0
 10 17  1  0  0  0  0
 11 20  2  0  0  0  0
 11  5  1  0  0  0  0
 13  9  2  0  0  0  0
 13 20  1  0  0  0  0
 14  2  2  0  0  0  0
 15  4  1  0  0  0  0
 15 12  1  0  0  0  0
 16  8  1  0  0  0  0
 17 25  1  0  0  0  0
 18  1  2  0  0  0  0
 18  4  1  0  0  0  0
 19  6  1  6  0  0  0
 19  5  1  0  0  0  0
 19  3  1  0  0  0  0
 20 18  1  0  0  0  0
 22 10  1  0  0  0  0
 22 24  1  0  0  0  0
 23 21  1  0  0  0  0
 24 13  1  0  0  0  0
 25 14  1  1  0  0  0
 25  9  1  0  0  0  0
 26 21  2  0  0  0  0
 27  2  1  0  0  0  0
 27  1  1  0  0  0  0
 28 17  1  0  0  0  0
 29 28  2  0  0  0  0
 30 34  1  0  0  0  0
 31 32  1  0  0  0  0
 32 34  1  0  0  0  0
 32 29  1  1  0  0  0
 33 31  1  0  0  0  0
 33 30  1  0  0  0  0
M  END
>  <MODEL>
5

>  <REMARK>
 VINA RESULT:      -9.6      4.928      8.590
  Name = 
  2 active torsions:
  status: ('A' for Active; 'I' for Inactive)
    1  A    between atoms: N_17  and  N_28
    2  A    between atoms: C_29  and  C_32
                            x       y       z     vdW  Elec       q    Type
                         _______ _______ _______ _____ _____    ______ ____

>  <TORSDO>
F 2

$$$$
=
 OpenBabel11122412153D

 34 41  0  0  1  0  0  0  0  0999 V2000
  187.9270  177.8600  138.4440 C   0  0  0  0  0  0  0  0  0  0  0  0
  186.2810  178.5810  140.3010 C   0  0  0  0  0  3  0  0  0  0  0  0
  193.2170  174.7020  136.5620 C   0  0  2  0  0  3  0  0  0  0  0  0
  189.5980  177.0340  136.8550 C   0  0  0  0  0  0  0  0  0  0  0  0
  191.7850  176.3270  137.6840 C   0  0  0  0  0  0  0  0  0  0  0  0
  193.9970  175.1660  138.4870 C   0  0  0  0  0  2  0  0  0  0  0  0
  194.2490  174.0630  137.4640 C   0  0  0  0  0  2  0  0  0  0  0  0
  192.6790  176.2690  134.6930 C   0  0  0  0  0  2  0  0  0  0  0  0
  188.4960  178.0110  140.8530 C   0  0  0  0  0  0  0  0  0  0  0  0
  188.6110  175.9770  142.8300 C   0  0  0  0  0  2  0  0  0  0  0  0
  191.4000  176.6740  138.9820 C   0  0  0  0  0  3  0  0  0  0  0  0
  191.2160  176.0940  135.1540 C   0  0  0  0  0  2  0  0  0  0  0  0
  189.7250  177.5210  140.6400 C   0  0  0  0  0  0  0  0  0  0  0  0
  186.4090  178.5590  141.8340 C   0  0  0  0  0  3  0  0  0  0  0  0
  190.8910  176.5310  136.5890 C   0  0  0  0  0  0  0  0  0  0  0  0
  193.6080  175.1270  135.1600 C   0  0  0  0  0  2  0  0  0  0  0  0
  188.0570  177.2930  143.1800 N   0  0  0  0  0  0  0  0  0  0  0  0
  189.2200  177.3590  138.1800 C   0  0  0  0  0  0  0  0  0  0  0  0
  193.2040  175.9230  137.4350 C   0  0  1  0  0  3  0  0  0  0  0  0
  190.1270  177.1750  139.2490 C   0  0  0  0  0  0  0  0  0  0  0  0
  187.3840  177.7130  136.0900 C   0  0  0  0  0  3  0  0  0  0  0  0
  190.1320  176.0360  142.6380 C   0  0  0  0  0  2  0  0  0  0  0  0
  188.6630  177.2180  135.8210 C   0  0  0  0  0  3  0  0  0  0  0  0
  190.6190  177.2360  141.8140 C   0  0  0  0  0  2  0  0  0  0  0  0
  187.8930  178.3490  142.1720 C   0  0  1  0  0  3  0  0  0  0  0  0
  187.0150  178.0340  137.3970 C   0  0  0  0  0  3  0  0  0  0  0  0
  187.5790  178.1810  139.7960 N   0  0  0  0  0  0  0  0  0  0  0  0
  187.7450  177.6090  144.5150 N   0  0  0  0  0  0  0  0  0  0  0  0
  186.7630  177.0570  145.1520 C   0  0  0  0  0  3  0  0  0  0  0  0
  187.4370  179.0320  148.0110 O   0  0  0  0  0  0  0  0  0  0  0  0
  185.5640  178.6140  146.6300 C   0  0  0  0  0  2  0  0  0  0  0  0
  186.4790  177.4260  146.5670 C   0  0  2  0  0  3  0  0  0  0  0  0
  186.3820  179.6670  147.3400 C   0  0  0  0  0  2  0  0  0  0  0  0
  187.7480  177.9120  147.2290 C   0  0  0  0  0  2  0  0  0  0  0  0
  1 27  1  0  0  0  0
  2 14  2  0  0  0  0
  3 16  1  6  0  0  0
  3 19  1  0  0  0  0
  3  7  1  0  0  0  0
  4 18  1  0  0  0  0
  5 11  2  0  0  0  0
  7  6  1  0  0  0  0
  8 12  1  0  0  0  0
  8 16  1  0  0  0  0
  9 25  1  0  0  0  0
 10 17  1  0  0  0  0
 11 20  1  0  0  0  0
 12 15  1  0  0  0  0
 13  9  2  0  0  0  0
 13 24  1  0  0  0  0
 15  4  2  0  0  0  0
 15  5  1  0  0  0  0
 17 28  1  0  0  0  0
 18  1  1  0  0  0  0
 18 20  2  0  0  0  0
 19  5  1  0  0  0  0
 19  6  1  1  0  0  0
 20 13  1  0  0  0  0
 21 26  1  0  0  0  0
 22 10  1  0  0  0  0
 23 21  2  0  0  0  0
 23  4  1  0  0  0  0
 24 22  1  0  0  0  0
 25 14  1  6  0  0  0
 25 17  1  0  0  0  0
 26  1  2  0  0  0  0
 27  2  1  0  0  0  0
 27  9  1  0  0  0  0
 28 29  2  0  0  0  0
 31 33  1  0  0  0  0
 32 29  1  6  0  0  0
 32 31  1  0  0  0  0
 32 34  1  0  0  0  0
 33 30  1  0  0  0  0
 34 30  1  0  0  0  0
M  END
>  <MODEL>
6

>  <REMARK>
 VINA RESULT:      -9.0      2.950      8.836
  Name = 
  2 active torsions:
  status: ('A' for Active; 'I' for Inactive)
    1  A    between atoms: N_17  and  N_28
    2  A    between atoms: C_29  and  C_32
                            x       y       z     vdW  Elec       q    Type
                         _______ _______ _______ _____ _____    ______ ____

>  <TORSDO>
F 2

$$$$
=
 OpenBabel11122412153D

 34 41  0  0  1  0  0  0  0  0999 V2000
  184.3400  178.5680  144.4650 C   0  0  0  0  0  0  0  0  0  0  0  0
  182.0070  179.0570  143.4650 C   0  0  0  0  0  3  0  0  0  0  0  0
  190.7110  177.9130  143.7650 C   0  0  2  0  0  3  0  0  0  0  0  0
  186.6440  178.1650  145.1890 C   0  0  0  0  0  0  0  0  0  0  0  0
  188.3160  177.5030  143.5350 C   0  0  0  0  0  0  0  0  0  0  0  0
  190.2700  177.1920  141.8120 C   0  0  0  0  0  2  0  0  0  0  0  0
  191.4710  177.8770  142.4590 C   0  0  0  0  0  2  0  0  0  0  0  0
  190.1700  176.8530  145.9620 C   0  0  0  0  0  2  0  0  0  0  0  0
  183.7320  178.2530  142.0810 C   0  0  0  0  0  0  0  0  0  0  0  0
  184.1800  179.9440  139.8460 C   0  0  0  0  0  2  0  0  0  0  0  0
  187.3340  177.5230  142.5410 C   0  0  0  0  0  3  0  0  0  0  0  0
  189.0180  177.8780  146.0150 C   0  0  0  0  0  2  0  0  0  0  0  0
  184.9890  177.9170  141.7580 C   0  0  0  0  0  0  0  0  0  0  0  0
  181.5150  179.0890  142.0070 C   0  0  0  0  0  3  0  0  0  0  0  0
  187.9750  177.7990  144.8910 C   0  0  0  0  0  0  0  0  0  0  0  0
  191.3060  177.2590  144.9970 C   0  0  0  0  0  2  0  0  0  0  0  0
  182.9030  179.2260  139.9620 N   0  0  0  0  0  0  0  0  0  0  0  0
  185.6690  178.2010  144.1640 C   0  0  0  0  0  0  0  0  0  0  0  0
  189.6780  176.9840  143.1950 C   0  0  1  0  0  3  0  0  0  0  0  0
  186.0190  177.8800  142.8320 C   0  0  0  0  0  0  0  0  0  0  0  0
  184.9430  178.8680  146.7890 C   0  0  0  0  0  3  0  0  0  0  0  0
  185.3360  178.9940  139.5040 C   0  0  0  0  0  2  0  0  0  0  0  0
  186.2610  178.5030  146.4990 C   0  0  0  0  0  3  0  0  0  0  0  0
  185.3440  177.6910  140.3150 C   0  0  0  0  0  2  0  0  0  0  0  0
  182.5870  178.4090  141.1420 C   0  0  1  0  0  3  0  0  0  0  0  0
  183.9830  178.9020  145.7760 C   0  0  0  0  0  3  0  0  0  0  0  0
  183.3780  178.5910  143.4040 N   0  0  0  0  0  0  0  0  0  0  0  0
  181.9780  179.2300  138.9020 N   0  0  0  0  0  0  0  0  0  0  0  0
  181.7350  178.1800  138.1850 C   0  0  0  0  0  3  0  0  0  0  0  0
  180.5050  179.6950  135.2320 O   0  0  0  0  0  0  0  0  0  0  0  0
  181.2740  177.5470  135.8540 C   0  0  0  0  0  2  0  0  0  0  0  0
  180.7420  178.2370  137.0760 C   0  0  2  0  0  3  0  0  0  0  0  0
  181.3290  178.6410  134.8130 C   0  0  0  0  0  2  0  0  0  0  0  0
  180.5600  179.6700  136.6320 C   0  0  0  0  0  2  0  0  0  0  0  0
  1 26  1  0  0  0  0
  3  7  1  6  0  0  0
  3 16  1  0  0  0  0
  4 23  2  0  0  0  0
  5 15  2  0  0  0  0
  6  7  1  0  0  0  0
  8 12  1  0  0  0  0
  9 27  1  0  0  0  0
 10 17  1  0  0  0  0
 11 20  2  0  0  0  0
 11  5  1  0  0  0  0
 13  9  2  0  0  0  0
 13 20  1  0  0  0  0
 14  2  2  0  0  0  0
 15  4  1  0  0  0  0
 15 12  1  0  0  0  0
 16  8  1  0  0  0  0
 17 25  1  0  0  0  0
 18  1  2  0  0  0  0
 18  4  1  0  0  0  0
 19  6  1  6  0  0  0
 19  5  1  0  0  0  0
 19  3  1  0  0  0  0
 20 18  1  0  0  0  0
 22 10  1  0  0  0  0
 22 24  1  0  0  0  0
 23 21  1  0  0  0  0
 24 13  1  0  0  0  0
 25 14  1  1  0  0  0
 25  9  1  0  0  0  0
 26 21  2  0  0  0  0
 27  2  1  0  0  0  0
 27  1  1  0  0  0  0
 28 17  1  0  0  0  0
 29 28  2  0  0  0  0
 30 34  1  0  0  0  0
 31 32  1  0  0  0  0
 32 29  1  1  0  0  0
 33 30  1  0  0  0  0
 33 31  1  0  0  0  0
 34 32  1  0  0  0  0
M  END
>  <MODEL>
7

>  <REMARK>
 VINA RESULT:      -9.0      4.545      7.772
  Name = 
  2 active torsions:
  status: ('A' for Active; 'I' for Inactive)
    1  A    between atoms: N_17  and  N_28
    2  A    between atoms: C_29  and  C_32
                            x       y       z     vdW  Elec       q    Type
                         _______ _______ _______ _____ _____    ______ ____

>  <TORSDO>
F 2

$$$$
=
 OpenBabel11122412153D

 34 41  0  0  1  0  0  0  0  0999 V2000
  185.4960  178.7040  142.5650 C   0  0  0  0  0  0  0  0  0  0  0  0
  185.1110  178.9050  140.0170 C   0  0  0  0  0  3  0  0  0  0  0  0
  189.4550  177.9460  147.5910 C   0  0  2  0  0  3  0  0  0  0  0  0
  186.1050  178.5150  144.9290 C   0  0  0  0  0  0  0  0  0  0  0  0
  188.2300  177.4720  145.5350 C   0  0  0  0  0  0  0  0  0  0  0  0
  190.6390  176.7530  146.2860 C   0  0  0  0  0  2  0  0  0  0  0  0
  190.9230  177.5890  147.5310 C   0  0  0  0  0  2  0  0  0  0  0  0
  187.1650  177.4690  148.4700 C   0  0  0  0  0  2  0  0  0  0  0  0
  187.0180  177.7930  140.8310 C   0  0  0  0  0  0  0  0  0  0  0  0
  189.4170  178.8700  139.7630 C   0  0  0  0  0  2  0  0  0  0  0  0
  188.4930  177.2330  144.1830 C   0  0  0  0  0  3  0  0  0  0  0  0
  186.6940  178.4650  147.3890 C   0  0  0  0  0  2  0  0  0  0  0  0
  187.9060  177.3960  141.7540 C   0  0  0  0  0  0  0  0  0  0  0  0
  186.0220  178.5650  138.8240 C   0  0  0  0  0  3  0  0  0  0  0  0
  187.0080  178.0960  145.9320 C   0  0  0  0  0  0  0  0  0  0  0  0
  188.6560  177.6290  148.8400 C   0  0  0  0  0  2  0  0  0  0  0  0
  188.4690  178.1930  138.8670 N   0  0  0  0  0  0  0  0  0  0  0  0
  186.4000  178.2830  143.5640 C   0  0  0  0  0  0  0  0  0  0  0  0
  189.1520  176.8950  146.5630 C   0  0  1  0  0  3  0  0  0  0  0  0
  187.6020  177.6400  143.1910 C   0  0  0  0  0  0  0  0  0  0  0  0
  184.0170  179.5840  144.2650 C   0  0  0  0  0  3  0  0  0  0  0  0
  190.1380  177.8740  140.6820 C   0  0  0  0  0  2  0  0  0  0  0  0
  184.9050  179.1690  145.2600 C   0  0  0  0  0  3  0  0  0  0  0  0
  189.2210  176.8170  141.3120 C   0  0  0  0  0  2  0  0  0  0  0  0
  187.1740  177.6970  139.3530 C   0  0  1  0  0  3  0  0  0  0  0  0
  184.3090  179.3530  142.9200 C   0  0  0  0  0  3  0  0  0  0  0  0
  185.8240  178.4500  141.1940 N   0  0  0  0  0  0  0  0  0  0  0  0
  188.8120  177.9220  137.5290 N   0  0  0  0  0  0  0  0  0  0  0  0
  188.7440  176.7340  137.0190 C   0  0  0  0  0  3  0  0  0  0  0  0
  190.9060  175.3300  134.5940 O   0  0  0  0  0  0  0  0  0  0  0  0
  188.6080  175.1710  135.1260 C   0  0  0  0  0  2  0  0  0  0  0  0
  189.1160  176.5030  135.5950 C   0  0  2  0  0  3  0  0  0  0  0  0
  189.8610  174.4100  134.7620 C   0  0  0  0  0  2  0  0  0  0  0  0
  190.6170  176.3780  135.4780 C   0  0  0  0  0  2  0  0  0  0  0  0
  1 26  2  0  0  0  0
  1 18  1  0  0  0  0
  2 27  1  0  0  0  0
  3  7  1  1  0  0  0
  3 16  1  0  0  0  0
  4 23  1  0  0  0  0
  4 15  1  0  0  0  0
  5 15  2  0  0  0  0
  5 19  1  0  0  0  0
  6  7  1  0  0  0  0
  8 16  1  0  0  0  0
  9 27  1  0  0  0  0
  9 13  2  0  0  0  0
 10 22  1  0  0  0  0
 11  5  1  0  0  0  0
 12  8  1  0  0  0  0
 13 20  1  0  0  0  0
 14  2  2  0  0  0  0
 15 12  1  0  0  0  0
 17 25  1  0  0  0  0
 17 10  1  0  0  0  0
 18  4  2  0  0  0  0
 19  6  1  6  0  0  0
 19  3  1  0  0  0  0
 20 18  1  0  0  0  0
 20 11  2  0  0  0  0
 21 23  2  0  0  0  0
 22 24  1  0  0  0  0
 24 13  1  0  0  0  0
 25 14  1  6  0  0  0
 25  9  1  0  0  0  0
 26 21  1  0  0  0  0
 27  1  1  0  0  0  0
 28 17  1  0  0  0  0
 29 28  2  0  0  0  0
 30 33  1  0  0  0  0
 30 34  1  0  0  0  0
 31 32  1  0  0  0  0
 32 29  1  1  0  0  0
 33 31  1  0  0  0  0
 34 32  1  0  0  0  0
M  END
>  <MODEL>
8

>  <REMARK>
 VINA RESULT:      -8.6      2.259      3.013
  Name = 
  2 active torsions:
  status: ('A' for Active; 'I' for Inactive)
    1  A    between atoms: N_17  and  N_28
    2  A    between atoms: C_29  and  C_32
                            x       y       z     vdW  Elec       q    Type
                         _______ _______ _______ _____ _____    ______ ____

>  <TORSDO>
F 2

$$$$
=
 OpenBabel11122412153D

 34 41  0  0  1  0  0  0  0  0999 V2000
  186.4680  178.3250  141.9970 C   0  0  0  0  0  0  0  0  0  0  0  0
  188.9970  177.8110  141.8540 C   0  0  0  0  0  3  0  0  0  0  0  0
  180.6160  178.4560  139.3060 C   0  0  2  0  0  3  0  0  0  0  0  0
  184.0510  178.7070  141.9070 C   0  0  0  0  0  0  0  0  0  0  0  0
  182.9640  178.9650  139.7340 C   0  0  0  0  0  0  0  0  0  0  0  0
  181.6310  178.8480  137.4770 C   0  0  0  0  0  2  0  0  0  0  0  0
  180.2930  178.2150  137.8480 C   0  0  0  0  0  2  0  0  0  0  0  0
  180.4520  179.9170  141.3260 C   0  0  0  0  0  2  0  0  0  0  0  0
  187.7770  178.2530  139.8910 C   0  0  0  0  0  0  0  0  0  0  0  0
  188.0430  176.1710  137.9800 C   0  0  0  0  0  2  0  0  0  0  0  0
  184.2030  178.8300  139.1030 C   0  0  0  0  0  3  0  0  0  0  0  0
  181.5370  178.9900  141.9130 C   0  0  0  0  0  2  0  0  0  0  0  0
  186.6780  178.4500  139.1480 C   0  0  0  0  0  0  0  0  0  0  0  0
  189.9120  177.5540  140.6440 C   0  0  0  0  0  3  0  0  0  0  0  0
  182.8740  178.9340  141.1600 C   0  0  0  0  0  0  0  0  0  0  0  0
  179.6690  179.2800  140.1570 C   0  0  0  0  0  2  0  0  0  0  0  0
  189.2190  176.9750  138.3390 N   0  0  0  0  0  0  0  0  0  0  0  0
  185.2940  178.5520  141.2480 C   0  0  0  0  0  0  0  0  0  0  0  0
  181.7690  179.3320  138.9100 C   0  0  1  0  0  3  0  0  0  0  0  0
  185.3680  178.6120  139.8370 C   0  0  0  0  0  0  0  0  0  0  0  0
  185.1820  178.4020  144.0460 C   0  0  0  0  0  3  0  0  0  0  0  0
  187.0430  176.9730  137.1360 C   0  0  0  0  0  2  0  0  0  0  0  0
  184.0160  178.6290  143.3100 C   0  0  0  0  0  3  0  0  0  0  0  0
  186.7820  178.3960  137.6500 C   0  0  0  0  0  2  0  0  0  0  0  0
  189.1550  178.0050  139.3860 C   0  0  1  0  0  3  0  0  0  0  0  0
  186.4070  178.2500  143.3930 C   0  0  0  0  0  3  0  0  0  0  0  0
  187.7090  178.1740  141.2980 N   0  0  0  0  0  0  0  0  0  0  0  0
  190.4250  176.8420  137.6270 N   0  0  0  0  0  0  0  0  0  0  0  0
  191.0150  175.7010  137.4620 C   0  0  0  0  0  3  0  0  0  0  0  0
  194.5530  175.6300  137.3740 O   0  0  0  0  0  0  0  0  0  0  0  0
  192.8010  174.2040  136.6760 C   0  0  0  0  0  2  0  0  0  0  0  0
  192.2900  175.6150  136.6960 C   0  0  2  0  0  3  0  0  0  0  0  0
  194.1380  174.2910  137.3740 C   0  0  0  0  0  2  0  0  0  0  0  0
  193.3710  176.3810  137.4220 C   0  0  0  0  0  2  0  0  0  0  0  0
  1 26  1  0  0  0  0
  3  7  1  6  0  0  0
  3 16  1  0  0  0  0
  4 23  2  0  0  0  0
  5 15  2  0  0  0  0
  6  7  1  0  0  0  0
  8 12  1  0  0  0  0
  9 27  1  0  0  0  0
 10 17  1  0  0  0  0
 11  5  1  0  0  0  0
 11 20  2  0  0  0  0
 13 20  1  0  0  0  0
 13  9  2  0  0  0  0
 14  2  2  0  0  0  0
 15  4  1  0  0  0  0
 15 12  1  0  0  0  0
 16  8  1  0  0  0  0
 17 25  1  0  0  0  0
 18  4  1  0  0  0  0
 18  1  2  0  0  0  0
 19  6  1  6  0  0  0
 19  3  1  0  0  0  0
 19  5  1  0  0  0  0
 20 18  1  0  0  0  0
 22 24  1  0  0  0  0
 22 10  1  0  0  0  0
 23 21  1  0  0  0  0
 24 13  1  0  0  0  0
 25  9  1  0  0  0  0
 25 14  1  1  0  0  0
 26 21  2  0  0  0  0
 27  2  1  0  0  0  0
 27  1  1  0  0  0  0
 28 17  1  0  0  0  0
 29 28  2  0  0  0  0
 30 34  1  0  0  0  0
 31 32  1  0  0  0  0
 31 33  1  0  0  0  0
 32 34  1  0  0  0  0
 32 29  1  1  0  0  0
 33 30  1  0  0  0  0
M  END
>  <MODEL>
9

>  <REMARK>
 VINA RESULT:      -8.6      2.563      5.678
  Name = 
  2 active torsions:
  status: ('A' for Active; 'I' for Inactive)
    1  A    between atoms: N_17  and  N_28
    2  A    between atoms: C_29  and  C_32
                            x       y       z     vdW  Elec       q    Type
                         _______ _______ _______ _____ _____    ______ ____

>  <TORSDO>
F 2

$$$$
