=
 OpenBabel11122410353D

 30 35  0  0  1  0  0  0  0  0999 V2000
  188.9020  178.0320  143.7600 C   0  0  2  0  0  3  0  0  0  0  0  0
  186.7790  177.6330  145.1480 C   0  0  0  0  0  0  0  0  0  0  0  0
  186.3900  178.8730  140.5130 O   0  0  0  0  0  0  0  0  0  0  0  0
  189.2660  177.7540  142.2910 C   0  0  2  0  0  3  0  0  0  0  0  0
  189.5070  177.0460  144.5730 O   0  0  0  0  0  0  0  0  0  0  0  0
  191.2020  175.5390  142.8990 O   0  0  0  0  0  1  0  0  0  0  0  0
  190.5040  176.4380  139.9670 C   0  0  1  0  0  3  0  0  0  0  0  0
  191.4630  176.8860  143.1750 C   0  0  2  0  0  3  0  0  0  0  0  0
  189.0400  176.7340  139.6500 C   0  0  2  0  0  3  0  0  0  0  0  0
  187.1580  178.3920  139.4780 C   0  0  0  0  0  0  0  0  0  0  0  0
  190.8980  177.2690  144.5460 C   0  0  2  0  0  3  0  0  0  0  0  0
  190.7930  177.7870  142.1320 C   0  0  1  0  0  3  0  0  0  0  0  0
  185.3890  177.6740  145.2800 C   0  0  0  0  0  3  0  0  0  0  0  0
  188.9160  176.3080  138.1950 C   0  0  0  0  0  2  0  0  0  0  0  0
  191.0960  176.1350  138.6120 C   0  0  0  0  0  2  0  0  0  0  0  0
  187.5260  177.1960  146.2340 O   0  0  0  0  0  1  0  0  0  0  0  0
  187.1730  179.1600  141.6570 C   0  0  2  0  0  3  0  0  0  0  0  0
  184.5950  178.1480  144.2390 C   0  0  0  0  0  3  0  0  0  0  0  0
  187.3950  178.0380  143.9380 C   0  0  0  0  0  0  0  0  0  0  0  0
  188.6150  178.7280  141.3010 C   0  0  2  0  0  3  0  0  0  0  0  0
  186.6820  178.1830  138.3310 O   0  0  0  0  0  0  0  0  0  0  0  0
  188.5890  178.2110  139.8340 C   0  0  1  0  0  3  0  0  0  0  0  0
  190.0750  175.6160  137.8090 O   0  0  0  0  0  0  0  0  0  0  0  0
  192.6510  177.3290  140.6540 O   0  0  0  0  0  1  0  0  0  0  0  0
  185.1890  178.5940  143.0620 C   0  0  0  0  0  3  0  0  0  0  0  0
  186.5790  178.5420  142.8970 C   0  0  0  0  0  0  0  0  0  0  0  0
  191.2720  177.5580  140.6850 C   0  0  1  0  0  3  0  0  0  0  0  0
  191.5900  176.4760  145.6450 C   0  0  0  0  0  2  0  0  0  0  0  0
  192.0140  176.8740  147.9640 O   0  0  0  0  0  1  0  0  0  0  0  0
  191.0030  176.8060  147.0050 C   0  0  0  0  0  2  0  0  0  0  0  0
  1 19  1  6  0  0  0
  1  5  1  0  0  0  0
  2 13  1  0  0  0  0
  2 16  1  0  0  0  0
  3 17  1  0  0  0  0
  4  1  1  0  0  0  0
  6  8  1  0  0  0  0
  7 27  1  0  0  0  0
  8 11  1  0  0  0  0
  9 22  1  0  0  0  0
  9  7  1  0  0  0  0
 10 22  1  0  0  0  0
 10  3  1  0  0  0  0
 11  5  1  0  0  0  0
 11 28  1  0  0  0  0
 12  4  1  0  0  0  0
 12  8  1  0  0  0  0
 14  9  1  0  0  0  0
 15  7  1  0  0  0  0
 17 26  1  0  0  0  0
 18 13  2  0  0  0  0
 19  2  2  0  0  0  0
 20 17  1  0  0  0  0
 20  4  1  0  0  0  0
 21 10  2  0  0  0  0
 22 20  1  0  0  0  0
 23 14  1  0  0  0  0
 23 15  1  0  0  0  0
 24 27  1  0  0  0  0
 25 18  1  0  0  0  0
 26 25  2  0  0  0  0
 26 19  1  0  0  0  0
 27 12  1  0  0  0  0
 28 30  1  0  0  0  0
 30 29  1  0  0  0  0
M  END
>  <MODEL>
1

>  <REMARK>
 VINA RESULT:      -8.8      0.000      0.000
  Name = 
  2 active torsions:
  status: ('A' for Active; 'I' for Inactive)
    1  A    between atoms: C_11  and  C_28
    2  A    between atoms: C_28  and  C_30
                            x       y       z     vdW  Elec       q    Type
                         _______ _______ _______ _____ _____    ______ ____

>  <TORSDO>
F 2

$$$$
=
 OpenBabel11122410353D

 30 35  0  0  1  0  0  0  0  0999 V2000
  186.1520  177.7590  142.4160 C   0  0  2  0  0  3  0  0  0  0  0  0
  184.0960  178.9910  143.3370 C   0  0  0  0  0  0  0  0  0  0  0  0
  187.4420  177.3480  146.3810 O   0  0  0  0  0  0  0  0  0  0  0  0
  187.6300  177.7130  142.8440 C   0  0  2  0  0  3  0  0  0  0  0  0
  186.0320  178.5980  141.2840 O   0  0  0  0  0  0  0  0  0  0  0  0
  188.6530  179.2550  140.4770 O   0  0  0  0  0  1  0  0  0  0  0  0
  190.5230  178.2520  142.7970 C   0  0  1  0  0  3  0  0  0  0  0  0
  188.1730  177.9440  140.3910 C   0  0  2  0  0  3  0  0  0  0  0  0
  190.0130  178.3990  144.2290 C   0  0  2  0  0  3  0  0  0  0  0  0
  188.8040  177.4190  146.2050 C   0  0  0  0  0  0  0  0  0  0  0  0
  186.6530  177.9420  140.2020 C   0  0  2  0  0  3  0  0  0  0  0  0
  188.4780  177.1750  141.6820 C   0  0  1  0  0  3  0  0  0  0  0  0
  183.3160  179.4130  144.4150 C   0  0  0  0  0  3  0  0  0  0  0  0
  191.2870  178.6490  145.0190 C   0  0  0  0  0  2  0  0  0  0  0  0
  192.0200  178.1710  142.9720 C   0  0  0  0  0  2  0  0  0  0  0  0
  183.6630  179.3050  142.0540 O   0  0  0  0  0  1  0  0  0  0  0  0
  186.7780  176.9780  145.1870 C   0  0  2  0  0  3  0  0  0  0  0  0
  183.6770  179.0850  145.7190 C   0  0  0  0  0  3  0  0  0  0  0  0
  185.2870  178.2570  143.5590 C   0  0  0  0  0  0  0  0  0  0  0  0
  187.8780  176.8780  144.1050 C   0  0  2  0  0  3  0  0  0  0  0  0
  189.5950  177.6180  147.1640 O   0  0  0  0  0  0  0  0  0  0  0  0
  189.2360  177.1800  144.8030 C   0  0  1  0  0  3  0  0  0  0  0  0
  192.3500  178.8790  144.1330 O   0  0  0  0  0  0  0  0  0  0  0  0
  190.7200  176.8210  140.8510 O   0  0  0  0  0  1  0  0  0  0  0  0
  184.8200  178.3240  145.9500 C   0  0  0  0  0  3  0  0  0  0  0  0
  185.6310  177.9080  144.8870 C   0  0  0  0  0  0  0  0  0  0  0  0
  189.9770  177.0490  142.0130 C   0  0  1  0  0  3  0  0  0  0  0  0
  186.2820  178.6090  138.8860 C   0  0  0  0  0  2  0  0  0  0  0  0
  184.4700  180.1670  138.9340 O   0  0  0  0  0  1  0  0  0  0  0  0
  184.7810  178.8160  138.7850 C   0  0  0  0  0  2  0  0  0  0  0  0
  1  5  1  6  0  0  0
  1  4  1  0  0  0  0
  1 19  1  0  0  0  0
  2 19  2  0  0  0  0
  2 13  1  0  0  0  0
  4 20  1  0  0  0  0
  7 15  1  0  0  0  0
  7  9  1  0  0  0  0
  8  6  1  0  0  0  0
  8 12  1  0  0  0  0
  9 22  1  0  0  0  0
  9 14  1  0  0  0  0
 10  3  1  0  0  0  0
 10 21  2  0  0  0  0
 11  8  1  0  0  0  0
 11  5  1  0  0  0  0
 12 27  1  0  0  0  0
 12  4  1  0  0  0  0
 13 18  2  0  0  0  0
 15 23  1  0  0  0  0
 16  2  1  0  0  0  0
 17  3  1  0  0  0  0
 18 25  1  0  0  0  0
 19 26  1  0  0  0  0
 20 22  1  0  0  0  0
 20 17  1  0  0  0  0
 22 10  1  0  0  0  0
 23 14  1  0  0  0  0
 24 27  1  0  0  0  0
 26 17  1  0  0  0  0
 26 25  2  0  0  0  0
 27  7  1  0  0  0  0
 28 11  1  0  0  0  0
 30 28  1  0  0  0  0
 30 29  1  0  0  0  0
M  END
>  <MODEL>
2

>  <REMARK>
 VINA RESULT:      -8.6      1.899      5.641
  Name = 
  2 active torsions:
  status: ('A' for Active; 'I' for Inactive)
    1  A    between atoms: C_11  and  C_28
    2  A    between atoms: C_28  and  C_30
                            x       y       z     vdW  Elec       q    Type
                         _______ _______ _______ _____ _____    ______ ____

>  <TORSDO>
F 2

$$$$
=
 OpenBabel11122410353D

 30 35  0  0  1  0  0  0  0  0999 V2000
  187.4220  177.5270  142.8370 C   0  0  2  0  0  3  0  0  0  0  0  0
  185.6330  179.3350  142.4860 C   0  0  0  0  0  0  0  0  0  0  0  0
  186.3680  177.5440  146.8930 O   0  0  0  0  0  0  0  0  0  0  0  0
  188.4000  177.2240  143.9860 C   0  0  2  0  0  3  0  0  0  0  0  0
  188.1310  178.1570  141.7880 O   0  0  0  0  0  0  0  0  0  0  0  0
  190.8640  178.0500  142.4770 O   0  0  0  0  0  1  0  0  0  0  0  0
  190.9400  177.0780  145.4670 C   0  0  1  0  0  3  0  0  0  0  0  0
  190.1400  176.8870  142.1900 C   0  0  2  0  0  3  0  0  0  0  0  0
  189.8470  177.5890  146.4030 C   0  0  2  0  0  3  0  0  0  0  0  0
  187.5890  177.2730  147.4650 C   0  0  0  0  0  0  0  0  0  0  0  0
  188.9940  177.1960  141.2230 C   0  0  2  0  0  3  0  0  0  0  0  0
  189.5220  176.3110  143.4690 C   0  0  1  0  0  3  0  0  0  0  0  0
  184.5750  180.1060  142.9710 C   0  0  0  0  0  3  0  0  0  0  0  0
  190.5630  177.6800  147.7410 C   0  0  0  0  0  2  0  0  0  0  0  0
  192.0510  176.6930  146.4120 C   0  0  0  0  0  2  0  0  0  0  0  0
  186.0120  179.5060  141.1600 O   0  0  0  0  0  1  0  0  0  0  0  0
  186.3190  177.1280  145.5400 C   0  0  2  0  0  3  0  0  0  0  0  0
  184.1220  179.9420  144.2770 C   0  0  0  0  0  3  0  0  0  0  0  0
  186.2840  178.4010  143.3300 C   0  0  0  0  0  0  0  0  0  0  0  0
  187.7320  176.5920  145.2120 C   0  0  2  0  0  3  0  0  0  0  0  0
  187.8100  177.4550  148.6910 O   0  0  0  0  0  0  0  0  0  0  0  0
  188.5770  176.6980  146.5140 C   0  0  1  0  0  3  0  0  0  0  0  0
  191.9410  177.5030  147.5480 O   0  0  0  0  0  0  0  0  0  0  0  0
  191.6680  175.3170  143.9680 O   0  0  0  0  0  1  0  0  0  0  0  0
  184.7220  178.9950  145.1040 C   0  0  0  0  0  3  0  0  0  0  0  0
  185.7990  178.2250  144.6480 C   0  0  0  0  0  0  0  0  0  0  0  0
  190.5440  175.9100  144.5500 C   0  0  1  0  0  3  0  0  0  0  0  0
  189.5410  177.6860  139.8900 C   0  0  0  0  0  2  0  0  0  0  0  0
  188.9200  179.2490  138.1920 O   0  0  0  0  0  1  0  0  0  0  0  0
  188.4300  178.2350  139.0150 C   0  0  0  0  0  2  0  0  0  0  0  0
  1  5  1  6  0  0  0
  1 19  1  0  0  0  0
  1  4  1  0  0  0  0
  2 13  2  0  0  0  0
  2 19  1  0  0  0  0
  3 10  1  0  0  0  0
  4 20  1  0  0  0  0
  7  9  1  0  0  0  0
  7 15  1  0  0  0  0
  8  6  1  0  0  0  0
  8 12  1  0  0  0  0
  9 22  1  0  0  0  0
  9 14  1  0  0  0  0
 10 21  2  0  0  0  0
 11  5  1  0  0  0  0
 11  8  1  0  0  0  0
 12  4  1  0  0  0  0
 12 27  1  0  0  0  0
 13 18  1  0  0  0  0
 15 23  1  0  0  0  0
 16  2  1  0  0  0  0
 17  3  1  0  0  0  0
 18 25  2  0  0  0  0
 19 26  2  0  0  0  0
 20 17  1  0  0  0  0
 20 22  1  0  0  0  0
 22 10  1  0  0  0  0
 23 14  1  0  0  0  0
 24 27  1  0  0  0  0
 26 25  1  0  0  0  0
 26 17  1  0  0  0  0
 27  7  1  0  0  0  0
 28 11  1  0  0  0  0
 29 30  1  0  0  0  0
 30 28  1  0  0  0  0
M  END
>  <MODEL>
3

>  <REMARK>
 VINA RESULT:      -8.3      1.653      5.819
  Name = 
  2 active torsions:
  status: ('A' for Active; 'I' for Inactive)
    1  A    between atoms: C_11  and  C_28
    2  A    between atoms: C_28  and  C_30
                            x       y       z     vdW  Elec       q    Type
                         _______ _______ _______ _____ _____    ______ ____

>  <TORSDO>
F 2

$$$$
=
 OpenBabel11122410353D

 30 35  0  0  1  0  0  0  0  0999 V2000
  188.1730  178.1650  140.8540 C   0  0  2  0  0  3  0  0  0  0  0  0
  188.2790  177.3220  143.2770 C   0  0  0  0  0  0  0  0  0  0  0  0
  184.0770  178.8070  141.4600 O   0  0  0  0  0  0  0  0  0  0  0  0
  187.1080  178.0570  139.7490 C   0  0  2  0  0  3  0  0  0  0  0  0
  189.2060  177.2380  140.5840 O   0  0  0  0  0  0  0  0  0  0  0  0
  188.6810  176.1560  138.0340 O   0  0  0  0  0  1  0  0  0  0  0  0
  185.7870  177.1330  137.2850 C   0  0  1  0  0  3  0  0  0  0  0  0
  189.0190  177.5040  138.1970 C   0  0  2  0  0  3  0  0  0  0  0  0
  184.7540  177.2040  138.4070 C   0  0  2  0  0  3  0  0  0  0  0  0
  183.5970  178.5350  140.2000 C   0  0  0  0  0  0  0  0  0  0  0  0
  189.8930  177.6900  139.4400 C   0  0  2  0  0  3  0  0  0  0  0  0
  187.7570  178.3540  138.3890 C   0  0  1  0  0  3  0  0  0  0  0  0
  187.6760  177.1220  144.5210 C   0  0  0  0  0  3  0  0  0  0  0  0
  183.4540  176.8680  137.6930 C   0  0  0  0  0  2  0  0  0  0  0  0
  184.9380  177.0300  136.0420 C   0  0  0  0  0  2  0  0  0  0  0  0
  189.6060  176.9380  143.1250 O   0  0  0  0  0  1  0  0  0  0  0  0
  185.4530  179.1370  141.4370 C   0  0  2  0  0  3  0  0  0  0  0  0
  186.3630  177.5310  144.7430 C   0  0  0  0  0  3  0  0  0  0  0  0
  187.5500  177.9090  142.2130 C   0  0  0  0  0  0  0  0  0  0  0  0
  185.9010  178.9770  139.9650 C   0  0  2  0  0  3  0  0  0  0  0  0
  182.3740  178.3320  139.9770 O   0  0  0  0  0  0  0  0  0  0  0  0
  184.6430  178.5690  139.1450 C   0  0  1  0  0  3  0  0  0  0  0  0
  183.7370  176.4080  136.3980 O   0  0  0  0  0  0  0  0  0  0  0  0
  187.4590  178.3170  135.9900 O   0  0  0  0  0  1  0  0  0  0  0  0
  185.6500  178.1520  143.7210 C   0  0  0  0  0  3  0  0  0  0  0  0
  186.2250  178.3430  142.4580 C   0  0  0  0  0  0  0  0  0  0  0  0
  186.7700  178.3110  137.2070 C   0  0  1  0  0  3  0  0  0  0  0  0
  191.2110  176.9460  139.2780 C   0  0  0  0  0  2  0  0  0  0  0  0
  193.5250  177.2640  139.7810 O   0  0  0  0  0  1  0  0  0  0  0  0
  192.2360  177.4310  140.2860 C   0  0  0  0  0  2  0  0  0  0  0  0
  1  5  1  6  0  0  0
  1 19  1  0  0  0  0
  2 13  1  0  0  0  0
  4 20  1  0  0  0  0
  4  1  1  0  0  0  0
  6  8  1  0  0  0  0
  7  9  1  0  0  0  0
  8 12  1  0  0  0  0
  8 11  1  0  0  0  0
  9 22  1  0  0  0  0
 10  3  1  0  0  0  0
 11  5  1  0  0  0  0
 12  4  1  0  0  0  0
 13 18  2  0  0  0  0
 14  9  1  0  0  0  0
 15 23  1  0  0  0  0
 15  7  1  0  0  0  0
 16  2  1  0  0  0  0
 17  3  1  0  0  0  0
 17 26  1  0  0  0  0
 19 26  1  0  0  0  0
 19  2  2  0  0  0  0
 20 17  1  0  0  0  0
 21 10  2  0  0  0  0
 22 20  1  0  0  0  0
 22 10  1  0  0  0  0
 23 14  1  0  0  0  0
 24 27  1  0  0  0  0
 25 18  1  0  0  0  0
 26 25  2  0  0  0  0
 27  7  1  0  0  0  0
 27 12  1  0  0  0  0
 28 11  1  0  0  0  0
 28 30  1  0  0  0  0
 29 30  1  0  0  0  0
M  END
>  <MODEL>
4

>  <REMARK>
 VINA RESULT:      -8.0      2.286      4.691
  Name = 
  2 active torsions:
  status: ('A' for Active; 'I' for Inactive)
    1  A    between atoms: C_11  and  C_28
    2  A    between atoms: C_28  and  C_30
                            x       y       z     vdW  Elec       q    Type
                         _______ _______ _______ _____ _____    ______ ____

>  <TORSDO>
F 2

$$$$
=
 OpenBabel11122410353D

 30 35  0  0  1  0  0  0  0  0999 V2000
  184.5760  178.8980  140.9920 C   0  0  2  0  0  3  0  0  0  0  0  0
  186.1190  178.2980  142.9550 C   0  0  0  0  0  0  0  0  0  0  0  0
  181.3920  178.7890  143.7150 O   0  0  0  0  0  0  0  0  0  0  0  0
  183.1370  178.4940  140.6250 C   0  0  2  0  0  3  0  0  0  0  0  0
  185.4750  178.1660  140.1830 O   0  0  0  0  0  0  0  0  0  0  0  0
  183.9190  176.7920  138.2750 O   0  0  0  0  0  1  0  0  0  0  0  0
  180.9380  177.1290  139.2220 C   0  0  1  0  0  3  0  0  0  0  0  0
  184.0030  178.1890  138.2750 C   0  0  2  0  0  3  0  0  0  0  0  0
  180.6670  177.0940  140.7240 C   0  0  2  0  0  3  0  0  0  0  0  0
  180.3870  178.3260  142.8990 C   0  0  0  0  0  0  0  0  0  0  0  0
  185.3410  178.6440  138.8630 C   0  0  2  0  0  3  0  0  0  0  0  0
  182.8900  178.7940  139.1390 C   0  0  1  0  0  3  0  0  0  0  0  0
  186.3220  178.0920  144.3210 C   0  0  0  0  0  3  0  0  0  0  0  0
  179.2890  176.4570  140.8050 C   0  0  0  0  0  2  0  0  0  0  0  0
  179.6030  176.7600  138.6230 C   0  0  0  0  0  2  0  0  0  0  0  0
  187.2100  178.1650  142.1050 O   0  0  0  0  0  1  0  0  0  0  0  0
  182.4440  179.3750  142.9700 C   0  0  2  0  0  3  0  0  0  0  0  0
  185.2750  178.2580  145.2230 C   0  0  0  0  0  3  0  0  0  0  0  0
  184.8350  178.6420  142.4650 C   0  0  0  0  0  0  0  0  0  0  0  0
  182.0670  179.1800  141.4830 C   0  0  2  0  0  3  0  0  0  0  0  0
  179.3060  177.8730  143.3580 O   0  0  0  0  0  0  0  0  0  0  0  0
  180.6830  178.4700  141.4500 C   0  0  1  0  0  3  0  0  0  0  0  0
  178.9330  175.9510  139.5460 O   0  0  0  0  0  0  0  0  0  0  0  0
  181.3830  178.4980  137.2720 O   0  0  0  0  0  1  0  0  0  0  0  0
  184.0190  178.6420  144.7620 C   0  0  0  0  0  3  0  0  0  0  0  0
  183.7840  178.8330  143.3950 C   0  0  0  0  0  0  0  0  0  0  0  0
  181.4610  178.4630  138.6670 C   0  0  1  0  0  3  0  0  0  0  0  0
  186.4940  178.1560  137.9980 C   0  0  0  0  0  2  0  0  0  0  0  0
  188.6110  178.9970  138.7210 O   0  0  0  0  0  1  0  0  0  0  0  0
  187.7380  177.9160  138.8340 C   0  0  0  0  0  2  0  0  0  0  0  0
  1  5  1  6  0  0  0
  1 19  1  0  0  0  0
  2 13  1  0  0  0  0
  4  1  1  0  0  0  0
  4 20  1  0  0  0  0
  6  8  1  0  0  0  0
  7  9  1  0  0  0  0
  8 11  1  0  0  0  0
  8 12  1  0  0  0  0
  9 14  1  0  0  0  0
  9 22  1  0  0  0  0
 10 21  2  0  0  0  0
 10  3  1  0  0  0  0
 11  5  1  0  0  0  0
 12  4  1  0  0  0  0
 13 18  2  0  0  0  0
 15  7  1  0  0  0  0
 15 23  1  0  0  0  0
 16  2  1  0  0  0  0
 17 26  1  0  0  0  0
 17  3  1  0  0  0  0
 19  2  2  0  0  0  0
 19 26  1  0  0  0  0
 20 17  1  0  0  0  0
 22 20  1  0  0  0  0
 22 10  1  0  0  0  0
 23 14  1  0  0  0  0
 24 27  1  0  0  0  0
 25 18  1  0  0  0  0
 26 25  2  0  0  0  0
 27 12  1  0  0  0  0
 27  7  1  0  0  0  0
 28 30  1  0  0  0  0
 28 11  1  0  0  0  0
 29 30  1  0  0  0  0
M  END
>  <MODEL>
5

>  <REMARK>
 VINA RESULT:      -7.7      4.169      7.713
  Name = 
  2 active torsions:
  status: ('A' for Active; 'I' for Inactive)
    1  A    between atoms: C_11  and  C_28
    2  A    between atoms: C_28  and  C_30
                            x       y       z     vdW  Elec       q    Type
                         _______ _______ _______ _____ _____    ______ ____

>  <TORSDO>
F 2

$$$$
=
 OpenBabel11122410353D

 30 35  0  0  1  0  0  0  0  0999 V2000
  188.3270  178.3060  141.2550 C   0  0  2  0  0  3  0  0  0  0  0  0
  186.9030  178.0570  143.3770 C   0  0  0  0  0  0  0  0  0  0  0  0
  184.7410  178.3380  139.0860 O   0  0  0  0  0  0  0  0  0  0  0  0
  188.1790  177.7680  139.8200 C   0  0  2  0  0  3  0  0  0  0  0  0
  189.3020  177.5370  141.9310 O   0  0  0  0  0  0  0  0  0  0  0  0
  190.4730  175.8380  140.0100 O   0  0  0  0  0  1  0  0  0  0  0  0
  188.6720  176.1000  137.4450 C   0  0  1  0  0  3  0  0  0  0  0  0
  190.6390  177.2260  139.9500 C   0  0  2  0  0  3  0  0  0  0  0  0
  187.1650  176.2380  137.6530 C   0  0  2  0  0  3  0  0  0  0  0  0
  185.1470  177.7120  137.9310 C   0  0  0  0  0  0  0  0  0  0  0  0
  190.5520  177.8350  141.3520 C   0  0  2  0  0  3  0  0  0  0  0  0
  189.5330  177.8620  139.1010 C   0  0  1  0  0  3  0  0  0  0  0  0
  185.6580  178.0380  144.0090 C   0  0  0  0  0  3  0  0  0  0  0  0
  186.5900  175.5290  136.4370 C   0  0  0  0  0  2  0  0  0  0  0  0
  188.7790  175.5740  136.0350 C   0  0  0  0  0  2  0  0  0  0  0  0
  188.0370  177.8880  144.1630 O   0  0  0  0  0  1  0  0  0  0  0  0
  185.8350  178.8910  139.7950 C   0  0  2  0  0  3  0  0  0  0  0  0
  184.4920  178.2500  143.2770 C   0  0  0  0  0  3  0  0  0  0  0  0
  186.9940  178.2540  141.9770 C   0  0  0  0  0  0  0  0  0  0  0  0
  187.0990  178.4870  139.0020 C   0  0  2  0  0  3  0  0  0  0  0  0
  184.3270  177.2530  137.0930 O   0  0  0  0  0  0  0  0  0  0  0  0
  186.6230  177.6920  137.7530 C   0  0  1  0  0  3  0  0  0  0  0  0
  187.6150  174.8470  135.7640 O   0  0  0  0  0  0  0  0  0  0  0  0
  190.7890  177.2380  137.1320 O   0  0  0  0  0  1  0  0  0  0  0  0
  184.5680  178.4920  141.9080 C   0  0  0  0  0  3  0  0  0  0  0  0
  185.8040  178.4940  141.2480 C   0  0  0  0  0  0  0  0  0  0  0  0
  189.4930  177.3840  137.6370 C   0  0  1  0  0  3  0  0  0  0  0  0
  191.6850  177.3170  142.2270 C   0  0  0  0  0  2  0  0  0  0  0  0
  191.5900  179.0950  143.8210 O   0  0  0  0  0  1  0  0  0  0  0  0
  191.4760  177.7120  143.6770 C   0  0  0  0  0  2  0  0  0  0  0  0
  1  5  1  1  0  0  0
  1 19  1  0  0  0  0
  2 13  1  0  0  0  0
  2 16  1  0  0  0  0
  3 17  1  0  0  0  0
  4  1  1  0  0  0  0
  7 27  1  0  0  0  0
  7  9  1  0  0  0  0
  8  6  1  0  0  0  0
  8 11  1  0  0  0  0
  9 22  1  0  0  0  0
 10  3  1  0  0  0  0
 11  5  1  0  0  0  0
 11 28  1  0  0  0  0
 12  4  1  0  0  0  0
 12  8  1  0  0  0  0
 14  9  1  0  0  0  0
 15  7  1  0  0  0  0
 17 26  1  0  0  0  0
 18 13  2  0  0  0  0
 19  2  2  0  0  0  0
 20 17  1  0  0  0  0
 20  4  1  0  0  0  0
 21 10  2  0  0  0  0
 22 10  1  0  0  0  0
 22 20  1  0  0  0  0
 23 15  1  0  0  0  0
 23 14  1  0  0  0  0
 24 27  1  0  0  0  0
 25 18  1  0  0  0  0
 26 25  2  0  0  0  0
 26 19  1  0  0  0  0
 27 12  1  0  0  0  0
 28 30  1  0  0  0  0
 30 29  1  0  0  0  0
M  END
>  <MODEL>
6

>  <REMARK>
 VINA RESULT:      -7.7      1.849      2.883
  Name = 
  2 active torsions:
  status: ('A' for Active; 'I' for Inactive)
    1  A    between atoms: C_11  and  C_28
    2  A    between atoms: C_28  and  C_30
                            x       y       z     vdW  Elec       q    Type
                         _______ _______ _______ _____ _____    ______ ____

>  <TORSDO>
F 2

$$$$
=
 OpenBabel11122410353D

 30 35  0  0  1  0  0  0  0  0999 V2000
  186.3790  178.3120  138.8320 C   0  0  2  0  0  3  0  0  0  0  0  0
  187.0440  176.8030  136.8630 C   0  0  0  0  0  0  0  0  0  0  0  0
  190.1270  177.4610  140.5000 O   0  0  0  0  0  0  0  0  0  0  0  0
  186.6590  178.2530  140.3440 C   0  0  2  0  0  3  0  0  0  0  0  0
  185.0540  177.8780  138.5960 O   0  0  0  0  0  0  0  0  0  0  0  0
  183.8370  177.5740  141.1220 O   0  0  0  0  0  1  0  0  0  0  0  0
  186.1710  177.8230  143.2150 C   0  0  1  0  0  3  0  0  0  0  0  0
  184.2230  178.8330  140.6470 C   0  0  2  0  0  3  0  0  0  0  0  0
  187.5210  177.2130  142.8430 C   0  0  2  0  0  3  0  0  0  0  0  0
  189.8110  177.4810  141.8380 C   0  0  0  0  0  0  0  0  0  0  0  0
  184.1870  178.8600  139.1160 C   0  0  2  0  0  3  0  0  0  0  0  0
  185.6570  179.1540  141.0810 C   0  0  1  0  0  3  0  0  0  0  0  0
  187.9970  176.0410  136.1860 C   0  0  0  0  0  3  0  0  0  0  0  0
  188.0660  176.7530  144.1850 C   0  0  0  0  0  2  0  0  0  0  0  0
  186.2220  177.8780  144.7220 C   0  0  0  0  0  2  0  0  0  0  0  0
  185.7750  176.9070  136.3060 O   0  0  0  0  0  1  0  0  0  0  0  0
  189.1830  178.1790  139.7270 C   0  0  2  0  0  3  0  0  0  0  0  0
  189.2980  175.9410  136.6740 C   0  0  0  0  0  3  0  0  0  0  0  0
  187.3770  177.4550  138.0770 C   0  0  0  0  0  0  0  0  0  0  0  0
  188.0930  178.6450  140.7200 C   0  0  2  0  0  3  0  0  0  0  0  0
  190.5770  177.0030  142.7160 O   0  0  0  0  0  0  0  0  0  0  0  0
  188.5260  178.1660  142.1350 C   0  0  1  0  0  3  0  0  0  0  0  0
  187.0570  176.8430  145.1560 O   0  0  0  0  0  0  0  0  0  0  0  0
  184.7780  179.8070  143.2360 O   0  0  0  0  0  1  0  0  0  0  0  0
  189.6530  176.6150  137.8400 C   0  0  0  0  0  3  0  0  0  0  0  0
  188.7090  177.3680  138.5490 C   0  0  0  0  0  0  0  0  0  0  0  0
  185.8700  179.2010  142.6060 C   0  0  1  0  0  3  0  0  0  0  0  0
  182.7670  178.6410  138.6150 C   0  0  0  0  0  2  0  0  0  0  0  0
  182.3020  180.9850  138.6430 O   0  0  0  0  0  1  0  0  0  0  0  0
  181.8450  179.7470  139.0930 C   0  0  0  0  0  2  0  0  0  0  0  0
  1 19  1  6  0  0  0
  1  4  1  0  0  0  0
  2 19  1  0  0  0  0
  3 10  1  0  0  0  0
  4 20  1  0  0  0  0
  4 12  1  0  0  0  0
  5  1  1  0  0  0  0
  5 11  1  0  0  0  0
  7 15  1  0  0  0  0
  8 12  1  0  0  0  0
  8  6  1  0  0  0  0
  9  7  1  0  0  0  0
  9 14  1  0  0  0  0
 10 22  1  0  0  0  0
 10 21  2  0  0  0  0
 11  8  1  0  0  0  0
 12 27  1  0  0  0  0
 13 18  1  0  0  0  0
 13  2  2  0  0  0  0
 14 23  1  0  0  0  0
 15 23  1  0  0  0  0
 16  2  1  0  0  0  0
 17  3  1  0  0  0  0
 17 20  1  0  0  0  0
 18 25  2  0  0  0  0
 19 26  2  0  0  0  0
 20 22  1  0  0  0  0
 22  9  1  0  0  0  0
 25 26  1  0  0  0  0
 26 17  1  0  0  0  0
 27  7  1  0  0  0  0
 27 24  1  0  0  0  0
 28 30  1  0  0  0  0
 28 11  1  0  0  0  0
 29 30  1  0  0  0  0
M  END
>  <MODEL>
7

>  <REMARK>
 VINA RESULT:      -7.7      2.308      7.464
  Name = 
  2 active torsions:
  status: ('A' for Active; 'I' for Inactive)
    1  A    between atoms: C_11  and  C_28
    2  A    between atoms: C_28  and  C_30
                            x       y       z     vdW  Elec       q    Type
                         _______ _______ _______ _____ _____    ______ ____

>  <TORSDO>
F 2

$$$$
=
 OpenBabel11122410353D

 30 35  0  0  1  0  0  0  0  0999 V2000
  187.7340  178.4680  141.3120 C   0  0  2  0  0  3  0  0  0  0  0  0
  185.3380  178.3560  142.2300 C   0  0  0  0  0  0  0  0  0  0  0  0
  186.0810  178.0390  137.4850 O   0  0  0  0  0  0  0  0  0  0  0  0
  188.4430  177.7730  140.1370 C   0  0  2  0  0  3  0  0  0  0  0  0
  188.1260  177.8410  142.5170 O   0  0  0  0  0  0  0  0  0  0  0  0
  190.1800  176.0260  141.8570 O   0  0  0  0  0  1  0  0  0  0  0  0
  190.2110  175.8970  138.7150 C   0  0  1  0  0  3  0  0  0  0  0  0
  190.3630  177.4070  141.7320 C   0  0  2  0  0  3  0  0  0  0  0  0
  188.8670  175.9580  137.9930 C   0  0  2  0  0  3  0  0  0  0  0  0
  187.0780  177.3210  136.8660 C   0  0  0  0  0  0  0  0  0  0  0  0
  189.4820  178.1560  142.7370 C   0  0  2  0  0  3  0  0  0  0  0  0
  189.9640  177.8770  140.3290 C   0  0  1  0  0  3  0  0  0  0  0  0
  183.9580  178.3240  142.0210 C   0  0  0  0  0  3  0  0  0  0  0  0
  189.1000  175.0880  136.7680 C   0  0  0  0  0  2  0  0  0  0  0  0
  191.1140  175.2320  137.7050 C   0  0  0  0  0  2  0  0  0  0  0  0
  185.8010  178.3450  143.5400 O   0  0  0  0  0  1  0  0  0  0  0  0
  186.5630  178.7340  138.6200 C   0  0  2  0  0  3  0  0  0  0  0  0
  183.4380  178.3810  140.7300 C   0  0  0  0  0  3  0  0  0  0  0  0
  186.2290  178.4080  141.1290 C   0  0  0  0  0  0  0  0  0  0  0  0
  188.0490  178.3290  138.7640 C   0  0  2  0  0  3  0  0  0  0  0  0
  186.8950  176.7240  135.7730 O   0  0  0  0  0  0  0  0  0  0  0  0
  188.3810  177.3770  137.5790 C   0  0  1  0  0  3  0  0  0  0  0  0
  190.3190  174.4060  136.9030 O   0  0  0  0  0  0  0  0  0  0  0  0
  192.1250  177.1300  139.5460 O   0  0  0  0  0  1  0  0  0  0  0  0
  184.3000  178.4800  139.6410 C   0  0  0  0  0  3  0  0  0  0  0  0
  185.6880  178.4920  139.8230 C   0  0  0  0  0  0  0  0  0  0  0  0
  190.7790  177.2450  139.1850 C   0  0  1  0  0  3  0  0  0  0  0  0
  189.8880  177.8070  144.1620 C   0  0  0  0  0  2  0  0  0  0  0  0
  188.8340  177.3920  146.2660 O   0  0  0  0  0  1  0  0  0  0  0  0
  188.7510  177.1250  144.9000 C   0  0  0  0  0  2  0  0  0  0  0  0
  1 19  1  6  0  0  0
  1  5  1  0  0  0  0
  2 16  1  0  0  0  0
  3 17  1  0  0  0  0
  4 12  1  0  0  0  0
  4  1  1  0  0  0  0
  5 11  1  0  0  0  0
  7 27  1  0  0  0  0
  8  6  1  0  0  0  0
  8 11  1  0  0  0  0
  9  7  1  0  0  0  0
 10  3  1  0  0  0  0
 10 22  1  0  0  0  0
 11 28  1  0  0  0  0
 12  8  1  0  0  0  0
 13  2  1  0  0  0  0
 14 23  1  0  0  0  0
 14  9  1  0  0  0  0
 15  7  1  0  0  0  0
 17 20  1  0  0  0  0
 17 26  1  0  0  0  0
 18 13  2  0  0  0  0
 19  2  2  0  0  0  0
 20  4  1  0  0  0  0
 21 10  2  0  0  0  0
 22  9  1  0  0  0  0
 22 20  1  0  0  0  0
 23 15  1  0  0  0  0
 25 26  2  0  0  0  0
 25 18  1  0  0  0  0
 26 19  1  0  0  0  0
 27 24  1  0  0  0  0
 27 12  1  0  0  0  0
 28 30  1  0  0  0  0
 30 29  1  0  0  0  0
M  END
>  <MODEL>
8

>  <REMARK>
 VINA RESULT:      -7.5      1.748      2.665
  Name = 
  2 active torsions:
  status: ('A' for Active; 'I' for Inactive)
    1  A    between atoms: C_11  and  C_28
    2  A    between atoms: C_28  and  C_30
                            x       y       z     vdW  Elec       q    Type
                         _______ _______ _______ _____ _____    ______ ____

>  <TORSDO>
F 2

$$$$
=
 OpenBabel11122410353D

 30 35  0  0  1  0  0  0  0  0999 V2000
  186.0470  177.8790  144.8060 C   0  0  2  0  0  3  0  0  0  0  0  0
  186.9000  178.5950  147.1200 C   0  0  0  0  0  0  0  0  0  0  0  0
  189.9070  176.4380  144.0410 O   0  0  0  0  0  0  0  0  0  0  0  0
  186.6960  177.8430  143.4110 C   0  0  2  0  0  3  0  0  0  0  0  0
  185.1870  179.0000  144.8800 O   0  0  0  0  0  0  0  0  0  0  0  0
  185.0610  180.0990  142.2860 O   0  0  0  0  0  1  0  0  0  0  0  0
  187.3030  178.6320  140.6410 C   0  0  1  0  0  3  0  0  0  0  0  0
  184.5350  178.8330  142.5660 C   0  0  2  0  0  3  0  0  0  0  0  0
  188.6080  178.3050  141.3620 C   0  0  2  0  0  3  0  0  0  0  0  0
  189.9960  176.6810  142.6900 C   0  0  0  0  0  0  0  0  0  0  0  0
  184.0910  178.7500  144.0290 C   0  0  2  0  0  3  0  0  0  0  0  0
  185.5960  177.7500  142.3430 C   0  0  1  0  0  3  0  0  0  0  0  0
  187.9000  178.6080  148.0940 C   0  0  0  0  0  3  0  0  0  0  0  0
  189.6460  178.4250  140.2570 C   0  0  0  0  0  2  0  0  0  0  0  0
  187.7060  178.6390  139.1860 C   0  0  0  0  0  2  0  0  0  0  0  0
  185.6990  179.2310  147.4080 O   0  0  0  0  0  1  0  0  0  0  0  0
  188.5600  176.3770  144.4740 C   0  0  2  0  0  3  0  0  0  0  0  0
  189.1060  177.9450  147.8780 C   0  0  0  0  0  3  0  0  0  0  0  0
  187.1150  177.9380  145.8820 C   0  0  0  0  0  0  0  0  0  0  0  0
  187.7010  176.7000  143.2300 C   0  0  2  0  0  3  0  0  0  0  0  0
  191.0950  176.6600  142.0770 O   0  0  0  0  0  0  0  0  0  0  0  0
  188.6800  176.9050  142.0380 C   0  0  1  0  0  3  0  0  0  0  0  0
  189.0560  179.0010  139.1220 O   0  0  0  0  0  0  0  0  0  0  0  0
  185.1030  177.8600  139.9790 O   0  0  0  0  0  1  0  0  0  0  0  0
  189.3130  177.2560  146.6860 C   0  0  0  0  0  3  0  0  0  0  0  0
  188.3340  177.2470  145.6840 C   0  0  0  0  0  0  0  0  0  0  0  0
  186.1350  177.6680  140.9020 C   0  0  1  0  0  3  0  0  0  0  0  0
  182.9670  179.7390  144.3000 C   0  0  0  0  0  2  0  0  0  0  0  0
  180.8510  178.6280  144.2980 O   0  0  0  0  0  1  0  0  0  0  0  0
  181.7230  179.3770  143.5090 C   0  0  0  0  0  2  0  0  0  0  0  0
  1  5  1  6  0  0  0
  1 19  1  0  0  0  0
  2 16  1  0  0  0  0
  2 13  1  0  0  0  0
  3 17  1  0  0  0  0
  4  1  1  0  0  0  0
  6  8  1  0  0  0  0
  7 27  1  0  0  0  0
  7  9  1  0  0  0  0
  8 11  1  0  0  0  0
  9 22  1  0  0  0  0
 10  3  1  0  0  0  0
 11 28  1  0  0  0  0
 11  5  1  0  0  0  0
 12  8  1  0  0  0  0
 12  4  1  0  0  0  0
 14  9  1  0  0  0  0
 15  7  1  0  0  0  0
 17 26  1  0  0  0  0
 18 13  2  0  0  0  0
 19  2  2  0  0  0  0
 20  4  1  0  0  0  0
 20 17  1  0  0  0  0
 21 10  2  0  0  0  0
 22 10  1  0  0  0  0
 22 20  1  0  0  0  0
 23 15  1  0  0  0  0
 23 14  1  0  0  0  0
 24 27  1  0  0  0  0
 25 18  1  0  0  0  0
 26 19  1  0  0  0  0
 26 25  2  0  0  0  0
 27 12  1  0  0  0  0
 30 29  1  0  0  0  0
 30 28  1  0  0  0  0
M  END
>  <MODEL>
9

>  <REMARK>
 VINA RESULT:      -7.4      2.214      5.591
  Name = 
  2 active torsions:
  status: ('A' for Active; 'I' for Inactive)
    1  A    between atoms: C_11  and  C_28
    2  A    between atoms: C_28  and  C_30
                            x       y       z     vdW  Elec       q    Type
                         _______ _______ _______ _____ _____    ______ ____

>  <TORSDO>
F 2

$$$$
