=
 OpenBabel11122411453D

 37 43  0  0  1  0  0  0  0  0999 V2000
  181.6010  178.2400  137.5370 C   0  0  2  0  0  3  0  0  0  0  0  0
  184.9570  175.3130  136.2210 C   0  0  1  0  0  0  0  0  0  0  0  0
  186.1850  178.1050  139.0040 C   0  0  0  0  0  0  0  0  0  0  0  0
  183.4300  178.8440  141.7020 C   0  0  0  0  0  2  0  0  0  0  0  0
  186.8310  176.7160  137.1570 C   0  0  0  0  0  0  0  0  0  0  0  0
  184.9210  178.6280  139.6450 C   0  0  2  0  0  3  0  0  0  0  0  0
  180.2420  178.5960  139.5740 N   0  0  0  0  0  0  0  0  0  0  0  0
  185.8770  177.3860  137.8970 C   0  0  0  0  0  0  0  0  0  0  0  0
  184.7510  178.2630  141.1550 C   0  0  1  0  0  3  0  0  0  0  0  0
  188.1420  176.8550  137.5040 N   0  0  0  0  0  0  0  0  0  0  0  0
  180.7130  177.5910  138.6180 C   0  0  0  0  0  2  0  0  0  0  0  0
  184.5040  177.2710  137.6780 N   0  0  0  0  0  0  0  0  0  0  0  0
  184.9950  174.3380  137.2180 O   0  0  0  0  0  1  0  0  0  0  0  0
  187.9070  178.9700  140.6080 C   0  0  0  0  0  2  0  0  0  0  0  0
  188.5060  177.6060  138.5900 C   0  0  0  0  0  3  0  0  0  0  0  0
  183.9520  176.4150  136.6250 C   0  0  0  0  0  2  0  0  0  0  0  0
  181.3790  179.2040  140.2880 C   0  0  1  0  0  3  0  0  0  0  0  0
  182.1800  178.1910  141.1350 C   0  0  0  0  0  2  0  0  0  0  0  0
  187.5250  178.2530  139.3710 C   0  0  0  0  0  0  0  0  0  0  0  0
  183.8040  177.9590  138.7590 C   0  0  2  0  0  3  0  0  0  0  0  0
  186.3810  175.8750  135.9970 C   0  0  0  0  0  2  0  0  0  0  0  0
  185.8870  178.8170  142.0660 C   0  0  2  0  0  3  0  0  0  0  0  0
  184.4800  174.6740  134.9330 C   0  0  0  0  0  1  0  0  0  0  0  0
  182.2730  179.9370  139.2760 C   0  0  0  0  0  2  0  0  0  0  0  0
  179.3500  177.9410  140.5220 C   0  0  0  0  0  1  0  0  0  0  0  0
  182.7890  178.9740  138.1980 C   0  0  2  0  0  3  0  0  0  0  0  0
  187.2770  178.2570  141.7830 C   0  0  0  0  0  2  0  0  0  0  0  0
  184.4880  179.1450  144.0790 C   0  0  0  0  0  3  0  0  0  0  0  0
  185.6020  178.6320  143.5330 C   0  0  0  0  0  0  0  0  0  0  0  0
  186.6140  177.8680  144.3540 C   0  0  0  0  0  2  0  0  0  0  0  0
  187.0170  177.1370  146.5920 O   0  0  0  0  0  0  0  0  0  0  0  0
  185.0060  178.3390  146.3240 C   0  0  0  0  0  3  0  0  0  0  0  0
  186.2480  177.7500  145.8080 C   0  0  0  0  0  0  0  0  0  0  0  0
  184.1800  178.9930  145.5100 C   0  0  0  0  0  3  0  0  0  0  0  0
  180.8220  179.1430  136.6830 N   0  0  0  0  0  0  0  0  0  0  0  0
  181.5560  179.3990  135.5710 O   0  0  0  0  0  1  0  0  0  0  0  0
  179.6440  178.4250  136.2210 C   0  0  0  0  0  1  0  0  0  0  0  0
  1 35  1  1  0  0  0
  1 26  1  0  0  0  0
  1 11  1  0  0  0  0
  2 23  1  6  0  0  0
  2 16  1  0  0  0  0
  2 13  1  0  0  0  0
  3 19  1  0  0  0  0
  5 10  2  0  0  0  0
  5  8  1  0  0  0  0
  6  3  1  6  0  0  0
  6  9  1  0  0  0  0
  7 17  1  0  0  0  0
  7 25  1  0  0  0  0
  8  3  2  0  0  0  0
  9  4  1  1  0  0  0
  9 22  1  0  0  0  0
 10 15  1  0  0  0  0
 11  7  1  0  0  0  0
 12  8  1  0  0  0  0
 14 27  1  0  0  0  0
 15 19  2  0  0  0  0
 16 12  1  0  0  0  0
 17 24  1  6  0  0  0
 17 18  1  0  0  0  0
 18  4  1  0  0  0  0
 19 14  1  0  0  0  0
 20 12  1  6  0  0  0
 20  6  1  0  0  0  0
 21  2  1  0  0  0  0
 21  5  1  0  0  0  0
 22 29  1  1  0  0  0
 26 20  1  0  0  0  0
 26 24  1  1  0  0  0
 27 22  1  0  0  0  0
 28 34  1  0  0  0  0
 29 28  2  0  0  0  0
 29 30  1  0  0  0  0
 30 33  1  0  0  0  0
 33 32  1  0  0  0  0
 33 31  2  0  0  0  0
 34 32  2  0  0  0  0
 36 35  1  0  0  0  0
 37 35  1  0  0  0  0
M  END
>  <MODEL>
1

>  <REMARK>
 VINA RESULT:      -8.3      0.000      0.000
  Name = 
  2 active torsions:
  status: ('A' for Active; 'I' for Inactive)
    1  A    between atoms: C_1  and  N_4
    2  A    between atoms: C_23  and  C_30
                            x       y       z     vdW  Elec       q    Type
                         _______ _______ _______ _____ _____    ______ ____

>  <TORSDO>
F 2

$$$$
=
 OpenBabel11122411453D

 37 43  0  0  1  0  0  0  0  0999 V2000
  181.7960  178.2810  137.9820 C   0  0  2  0  0  3  0  0  0  0  0  0
  184.6800  175.3830  135.7810 C   0  0  1  0  0  0  0  0  0  0  0  0
  186.5820  177.9540  138.3920 C   0  0  0  0  0  0  0  0  0  0  0  0
  184.5110  178.5650  141.6710 C   0  0  0  0  0  2  0  0  0  0  0  0
  186.7610  176.6800  136.3660 C   0  0  0  0  0  0  0  0  0  0  0  0
  185.5080  178.4580  139.3270 C   0  0  2  0  0  3  0  0  0  0  0  0
  180.9290  178.5260  140.2860 N   0  0  0  0  0  0  0  0  0  0  0  0
  186.0150  177.3180  137.3380 C   0  0  0  0  0  0  0  0  0  0  0  0
  185.6590  177.9950  140.8120 C   0  0  1  0  0  3  0  0  0  0  0  0
  188.1200  176.7690  136.4240 N   0  0  0  0  0  0  0  0  0  0  0  0
  181.1430  177.5790  139.1900 C   0  0  0  0  0  2  0  0  0  0  0  0
  184.6240  177.2460  137.4200 N   0  0  0  0  0  0  0  0  0  0  0  0
  184.9010  174.3410  136.6830 O   0  0  0  0  0  1  0  0  0  0  0  0
  188.6420  178.6730  139.6290 C   0  0  0  0  0  2  0  0  0  0  0  0
  188.7380  177.4360  137.4470 C   0  0  0  0  0  3  0  0  0  0  0  0
  183.8270  176.4750  136.4640 C   0  0  0  0  0  2  0  0  0  0  0  0
  182.2140  179.0610  140.7680 C   0  0  1  0  0  3  0  0  0  0  0  0
  183.1450  177.9770  141.3540 C   0  0  0  0  0  2  0  0  0  0  0  0
  187.9750  178.0490  138.4640 C   0  0  0  0  0  0  0  0  0  0  0  0
  184.2020  177.8740  138.6690 C   0  0  2  0  0  3  0  0  0  0  0  0
  186.0400  175.9290  135.2840 C   0  0  0  0  0  2  0  0  0  0  0  0
  186.9850  178.4630  141.4830 C   0  0  2  0  0  3  0  0  0  0  0  0
  183.9110  174.8420  134.5940 C   0  0  0  0  0  1  0  0  0  0  0  0
  182.8900  179.8420  139.6310 C   0  0  0  0  0  2  0  0  0  0  0  0
  180.2430  177.8270  141.3640 C   0  0  0  0  0  1  0  0  0  0  0  0
  183.1250  178.9440  138.4090 C   0  0  2  0  0  3  0  0  0  0  0  0
  188.2590  177.8950  140.8670 C   0  0  0  0  0  2  0  0  0  0  0  0
  185.9110  178.3170  143.7050 C   0  0  0  0  0  3  0  0  0  0  0  0
  187.0210  178.1840  142.9620 C   0  0  0  0  0  0  0  0  0  0  0  0
  188.3410  177.7700  143.5670 C   0  0  0  0  0  2  0  0  0  0  0  0
  189.3190  177.1820  145.6660 O   0  0  0  0  0  0  0  0  0  0  0  0
  187.0200  177.6940  145.7890 C   0  0  0  0  0  3  0  0  0  0  0  0
  188.2780  177.5290  145.0500 C   0  0  0  0  0  0  0  0  0  0  0  0
  185.9090  178.0630  145.1550 C   0  0  0  0  0  3  0  0  0  0  0  0
  180.8810  179.2560  137.3770 N   0  0  0  0  0  0  0  0  0  0  0  0
  181.1900  179.3540  136.0600 O   0  0  0  0  0  1  0  0  0  0  0  0
  179.5360  178.7050  137.4270 C   0  0  0  0  0  1  0  0  0  0  0  0
  1 35  1  1  0  0  0
  1 26  1  0  0  0  0
  1 11  1  0  0  0  0
  2 23  1  6  0  0  0
  2 16  1  0  0  0  0
  2 13  1  0  0  0  0
  3 19  1  0  0  0  0
  5 10  2  0  0  0  0
  5  8  1  0  0  0  0
  6  3  1  6  0  0  0
  6  9  1  0  0  0  0
  7 17  1  0  0  0  0
  7 25  1  0  0  0  0
  8 12  1  0  0  0  0
  8  3  2  0  0  0  0
  9 22  1  0  0  0  0
  9  4  1  1  0  0  0
 10 15  1  0  0  0  0
 11  7  1  0  0  0  0
 14 27  1  0  0  0  0
 15 19  2  0  0  0  0
 16 12  1  0  0  0  0
 17 24  1  6  0  0  0
 17 18  1  0  0  0  0
 18  4  1  0  0  0  0
 19 14  1  0  0  0  0
 20 12  1  6  0  0  0
 20  6  1  0  0  0  0
 21  2  1  0  0  0  0
 21  5  1  0  0  0  0
 22 29  1  1  0  0  0
 26 20  1  0  0  0  0
 26 24  1  1  0  0  0
 27 22  1  0  0  0  0
 28 34  1  0  0  0  0
 29 30  1  0  0  0  0
 29 28  2  0  0  0  0
 30 33  1  0  0  0  0
 33 31  2  0  0  0  0
 33 32  1  0  0  0  0
 34 32  2  0  0  0  0
 35 37  1  0  0  0  0
 36 35  1  0  0  0  0
M  END
>  <MODEL>
2

>  <REMARK>
 VINA RESULT:      -7.6      0.996      1.186
  Name = 
  2 active torsions:
  status: ('A' for Active; 'I' for Inactive)
    1  A    between atoms: C_1  and  N_4
    2  A    between atoms: C_23  and  C_30
                            x       y       z     vdW  Elec       q    Type
                         _______ _______ _______ _____ _____    ______ ____

>  <TORSDO>
F 2

$$$$
=
 OpenBabel11122411453D

 37 43  0  0  1  0  0  0  0  0999 V2000
  180.8840  174.1210  136.7220 C   0  0  2  0  0  3  0  0  0  0  0  0
  185.3670  173.1380  136.0150 C   0  0  1  0  0  0  0  0  0  0  0  0
  184.7180  176.9060  137.5750 C   0  0  0  0  0  0  0  0  0  0  0  0
  181.8080  176.9580  140.2090 C   0  0  0  0  0  2  0  0  0  0  0  0
  186.1350  175.5320  136.2090 C   0  0  0  0  0  0  0  0  0  0  0  0
  183.3280  176.8720  138.1640 C   0  0  2  0  0  3  0  0  0  0  0  0
  179.4030  174.3790  138.6870 N   0  0  0  0  0  0  0  0  0  0  0  0
  184.9200  175.8080  136.8060 C   0  0  0  0  0  0  0  0  0  0  0  0
  183.2710  177.0080  139.7200 C   0  0  1  0  0  3  0  0  0  0  0  0
  187.1420  176.4430  136.3280 N   0  0  0  0  0  0  0  0  0  0  0  0
  180.4020  173.5150  138.0560 C   0  0  0  0  0  2  0  0  0  0  0  0
  183.8380  174.9270  136.8070 N   0  0  0  0  0  0  0  0  0  0  0  0
  185.8470  172.7320  137.2610 O   0  0  0  0  0  1  0  0  0  0  0  0
  185.5960  179.0250  138.5880 C   0  0  0  0  0  2  0  0  0  0  0  0
  186.9720  177.5870  137.0600 C   0  0  0  0  0  3  0  0  0  0  0  0
  183.9040  173.6130  136.1640 C   0  0  0  0  0  2  0  0  0  0  0  0
  179.9870  175.6900  139.0200 C   0  0  1  0  0  3  0  0  0  0  0  0
  181.1410  175.6020  140.0420 C   0  0  0  0  0  2  0  0  0  0  0  0
  185.7440  177.8460  137.7060 C   0  0  0  0  0  0  0  0  0  0  0  0
  182.8050  175.4660  137.6870 C   0  0  2  0  0  3  0  0  0  0  0  0
  186.2860  174.2460  135.4480 C   0  0  0  0  0  2  0  0  0  0  0  0
  183.8690  178.3430  140.2550 C   0  0  2  0  0  3  0  0  0  0  0  0
  185.3960  171.9540  135.0730 C   0  0  0  0  0  1  0  0  0  0  0  0
  180.4240  176.3880  137.7240 C   0  0  0  0  0  2  0  0  0  0  0  0
  178.9310  173.7210  139.8980 C   0  0  0  0  0  1  0  0  0  0  0  0
  181.4490  175.5400  136.9590 C   0  0  2  0  0  3  0  0  0  0  0  0
  185.3590  178.5350  139.9990 C   0  0  0  0  0  2  0  0  0  0  0  0
  182.4260  178.9690  142.1630 C   0  0  0  0  0  3  0  0  0  0  0  0
  183.6220  178.5440  141.7270 C   0  0  0  0  0  0  0  0  0  0  0  0
  184.7640  178.2670  142.6750 C   0  0  0  0  0  2  0  0  0  0  0  0
  185.2990  178.3180  145.0030 O   0  0  0  0  0  0  0  0  0  0  0  0
  183.0880  178.9750  144.5130 C   0  0  0  0  0  3  0  0  0  0  0  0
  184.4250  178.5120  144.1200 C   0  0  0  0  0  0  0  0  0  0  0  0
  182.1500  179.1870  143.5920 C   0  0  0  0  0  3  0  0  0  0  0  0
  179.8070  174.1330  135.7250 N   0  0  0  0  0  0  0  0  0  0  0  0
  180.2940  174.7030  134.5950 O   0  0  0  0  0  1  0  0  0  0  0  0
  179.5030  172.7550  135.3730 C   0  0  0  0  0  1  0  0  0  0  0  0
  1 35  1  6  0  0  0
  1 26  1  0  0  0  0
  1 11  1  0  0  0  0
  2 23  1  6  0  0  0
  2 16  1  0  0  0  0
  2 13  1  0  0  0  0
  3 19  1  0  0  0  0
  5 10  2  0  0  0  0
  5  8  1  0  0  0  0
  6  3  1  1  0  0  0
  6  9  1  0  0  0  0
  7 17  1  0  0  0  0
  7 25  1  0  0  0  0
  8 12  1  0  0  0  0
  8  3  2  0  0  0  0
  9  4  1  6  0  0  0
  9 22  1  0  0  0  0
 10 15  1  0  0  0  0
 11  7  1  0  0  0  0
 14 27  1  0  0  0  0
 15 19  2  0  0  0  0
 16 12  1  0  0  0  0
 17 24  1  6  0  0  0
 17 18  1  0  0  0  0
 18  4  1  0  0  0  0
 19 14  1  0  0  0  0
 20 12  1  6  0  0  0
 20  6  1  0  0  0  0
 21  2  1  0  0  0  0
 21  5  1  0  0  0  0
 22 29  1  1  0  0  0
 26 20  1  0  0  0  0
 26 24  1  1  0  0  0
 27 22  1  0  0  0  0
 28 34  1  0  0  0  0
 29 28  2  0  0  0  0
 29 30  1  0  0  0  0
 30 33  1  0  0  0  0
 33 32  1  0  0  0  0
 33 31  2  0  0  0  0
 34 32  2  0  0  0  0
 36 35  1  0  0  0  0
 37 35  1  0  0  0  0
M  END
>  <MODEL>
3

>  <REMARK>
 VINA RESULT:      -7.3      2.520      3.209
  Name = 
  2 active torsions:
  status: ('A' for Active; 'I' for Inactive)
    1  A    between atoms: C_1  and  N_4
    2  A    between atoms: C_23  and  C_30
                            x       y       z     vdW  Elec       q    Type
                         _______ _______ _______ _____ _____    ______ ____

>  <TORSDO>
F 2

$$$$
=
 OpenBabel11122411453D

 37 43  0  0  1  0  0  0  0  0999 V2000
  182.2180  178.3210  138.1510 C   0  0  2  0  0  3  0  0  0  0  0  0
  184.4520  175.0210  135.7680 C   0  0  1  0  0  0  0  0  0  0  0  0
  186.9640  177.6090  137.7780 C   0  0  0  0  0  0  0  0  0  0  0  0
  185.5490  178.6490  141.2890 C   0  0  0  0  0  2  0  0  0  0  0  0
  186.6930  176.1730  135.8750 C   0  0  0  0  0  0  0  0  0  0  0  0
  186.1100  178.2750  138.8300 C   0  0  2  0  0  3  0  0  0  0  0  0
  181.7870  178.8180  140.5360 N   0  0  0  0  0  0  0  0  0  0  0  0
  186.1770  176.9460  136.8960 C   0  0  0  0  0  0  0  0  0  0  0  0
  186.4850  177.9170  140.3040 C   0  0  1  0  0  3  0  0  0  0  0  0
  188.0440  176.1460  135.6940 N   0  0  0  0  0  0  0  0  0  0  0  0
  181.7370  177.7740  139.5100 C   0  0  0  0  0  2  0  0  0  0  0  0
  184.8200  177.0030  137.2170 N   0  0  0  0  0  0  0  0  0  0  0  0
  184.7520  174.0360  136.7110 O   0  0  0  0  0  1  0  0  0  0  0  0
  189.2560  178.2380  138.5790 C   0  0  0  0  0  2  0  0  0  0  0  0
  188.8780  176.8340  136.5340 C   0  0  0  0  0  3  0  0  0  0  0  0
  183.8140  176.2330  136.4830 C   0  0  0  0  0  2  0  0  0  0  0  0
  183.1720  179.2740  140.7440 C   0  0  1  0  0  3  0  0  0  0  0  0
  184.1100  178.1610  141.2610 C   0  0  0  0  0  2  0  0  0  0  0  0
  188.3510  177.5870  137.6050 C   0  0  0  0  0  0  0  0  0  0  0  0
  184.6700  177.7590  138.4570 C   0  0  2  0  0  3  0  0  0  0  0  0
  185.7400  175.4060  135.0020 C   0  0  0  0  0  2  0  0  0  0  0  0
  187.9380  178.3170  140.6970 C   0  0  2  0  0  3  0  0  0  0  0  0
  183.4500  174.4600  134.7810 C   0  0  0  0  0  1  0  0  0  0  0  0
  183.6940  179.9030  139.4440 C   0  0  0  0  0  2  0  0  0  0  0  0
  181.2510  178.2660  141.7730 C   0  0  0  0  0  1  0  0  0  0  0  0
  183.6450  178.8960  138.2860 C   0  0  2  0  0  3  0  0  0  0  0  0
  189.0400  177.5950  139.9300 C   0  0  0  0  0  2  0  0  0  0  0  0
  189.4320  178.4110  142.6660 C   0  0  0  0  0  3  0  0  0  0  0  0
  188.2130  178.1510  142.1680 C   0  0  0  0  0  0  0  0  0  0  0  0
  187.0790  177.6730  143.0440 C   0  0  0  0  0  2  0  0  0  0  0  0
  186.5940  177.1280  145.3190 O   0  0  0  0  0  0  0  0  0  0  0  0
  188.8150  177.8330  144.9550 C   0  0  0  0  0  3  0  0  0  0  0  0
  187.4560  177.5230  144.4930 C   0  0  0  0  0  0  0  0  0  0  0  0
  189.7410  178.2510  144.0950 C   0  0  0  0  0  3  0  0  0  0  0  0
  181.2840  179.3230  137.6220 N   0  0  0  0  0  0  0  0  0  0  0  0
  181.5490  179.4820  136.3020 O   0  0  0  0  0  1  0  0  0  0  0  0
  179.9410  178.7700  137.6910 C   0  0  0  0  0  1  0  0  0  0  0  0
  1 35  1  1  0  0  0
  1 26  1  0  0  0  0
  1 11  1  0  0  0  0
  2 23  1  6  0  0  0
  2 16  1  0  0  0  0
  2 13  1  0  0  0  0
  5  8  1  0  0  0  0
  6  3  1  6  0  0  0
  6  9  1  0  0  0  0
  7 17  1  0  0  0  0
  7 25  1  0  0  0  0
  8 12  1  0  0  0  0
  8  3  2  0  0  0  0
  9 22  1  0  0  0  0
  9  4  1  1  0  0  0
 10  5  2  0  0  0  0
 10 15  1  0  0  0  0
 11  7  1  0  0  0  0
 14 27  1  0  0  0  0
 15 19  2  0  0  0  0
 16 12  1  0  0  0  0
 17 24  1  6  0  0  0
 17 18  1  0  0  0  0
 18  4  1  0  0  0  0
 19  3  1  0  0  0  0
 19 14  1  0  0  0  0
 20 12  1  6  0  0  0
 20  6  1  0  0  0  0
 21  2  1  0  0  0  0
 21  5  1  0  0  0  0
 22 29  1  1  0  0  0
 26 20  1  0  0  0  0
 26 24  1  1  0  0  0
 27 22  1  0  0  0  0
 28 34  1  0  0  0  0
 29 28  2  0  0  0  0
 29 30  1  0  0  0  0
 30 33  1  0  0  0  0
 33 32  1  0  0  0  0
 33 31  2  0  0  0  0
 34 32  2  0  0  0  0
 35 37  1  0  0  0  0
 36 35  1  0  0  0  0
M  END
>  <MODEL>
4

>  <REMARK>
 VINA RESULT:      -7.1      1.491      2.159
  Name = 
  2 active torsions:
  status: ('A' for Active; 'I' for Inactive)
    1  A    between atoms: C_1  and  N_4
    2  A    between atoms: C_23  and  C_30
                            x       y       z     vdW  Elec       q    Type
                         _______ _______ _______ _____ _____    ______ ____

>  <TORSDO>
F 2

$$$$
=
 OpenBabel11122411453D

 37 43  0  0  1  0  0  0  0  0999 V2000
  191.0340  176.8930  139.2480 C   0  0  2  0  0  3  0  0  0  0  0  0
  188.8960  176.6570  143.3640 C   0  0  1  0  0  0  0  0  0  0  0  0
  186.6290  178.4480  140.4140 C   0  0  0  0  0  0  0  0  0  0  0  0
  187.0850  176.7230  136.9170 C   0  0  0  0  0  2  0  0  0  0  0  0
  187.1090  178.3310  142.7630 C   0  0  0  0  0  0  0  0  0  0  0  0
  187.2500  178.0220  139.1050 C   0  0  2  0  0  3  0  0  0  0  0  0
  190.8050  175.7760  137.0520 N   0  0  0  0  0  0  0  0  0  0  0  0
  187.4570  178.1340  141.4400 C   0  0  0  0  0  0  0  0  0  0  0  0
  186.3520  177.0950  138.2230 C   0  0  1  0  0  3  0  0  0  0  0  0
  185.9230  178.9430  143.0410 N   0  0  0  0  0  0  0  0  0  0  0  0
  190.9060  175.5530  138.4960 C   0  0  0  0  0  2  0  0  0  0  0  0
  188.6110  177.4640  141.0340 N   0  0  0  0  0  0  0  0  0  0  0  0
  188.0750  175.5320  143.2790 O   0  0  0  0  0  1  0  0  0  0  0  0
  184.4430  179.3750  139.6080 C   0  0  0  0  0  2  0  0  0  0  0  0
  185.0720  179.3170  142.0360 C   0  0  0  0  0  3  0  0  0  0  0  0
  189.5650  176.9040  141.9930 C   0  0  0  0  0  2  0  0  0  0  0  0
  189.5900  176.5450  136.7310 C   0  0  1  0  0  3  0  0  0  0  0  0
  188.2850  175.8110  137.1140 C   0  0  0  0  0  2  0  0  0  0  0  0
  185.4100  179.0740  140.6880 C   0  0  0  0  0  0  0  0  0  0  0  0
  188.5520  177.2790  139.5860 C   0  0  2  0  0  3  0  0  0  0  0  0
  188.0580  177.8700  143.8320 C   0  0  0  0  0  2  0  0  0  0  0  0
  185.0020  177.7480  137.8000 C   0  0  2  0  0  3  0  0  0  0  0  0
  189.9790  176.3920  144.3880 C   0  0  0  0  0  1  0  0  0  0  0  0
  189.6820  177.9290  137.3900 C   0  0  0  0  0  2  0  0  0  0  0  0
  190.7650  174.4790  136.3920 C   0  0  0  0  0  1  0  0  0  0  0  0
  189.8330  177.8050  138.9130 C   0  0  2  0  0  3  0  0  0  0  0  0
  184.0510  178.0730  138.9470 C   0  0  0  0  0  2  0  0  0  0  0  0
  183.9080  177.4490  135.6030 C   0  0  0  0  0  3  0  0  0  0  0  0
  184.2470  176.9240  136.7910 C   0  0  0  0  0  0  0  0  0  0  0  0
  183.8800  175.5100  137.1720 C   0  0  0  0  0  2  0  0  0  0  0  0
  182.7510  173.5890  136.3100 O   0  0  0  0  0  0  0  0  0  0  0  0
  182.7860  175.4240  134.8290 C   0  0  0  0  0  3  0  0  0  0  0  0
  183.1150  174.7750  136.1050 C   0  0  0  0  0  0  0  0  0  0  0  0
  183.1610  176.6790  134.5950 C   0  0  0  0  0  3  0  0  0  0  0  0
  192.3090  177.5530  138.9440 N   0  0  0  0  0  0  0  0  0  0  0  0
  192.9390  177.8020  140.1200 O   0  0  0  0  0  1  0  0  0  0  0  0
  193.1540  176.6010  138.2390 C   0  0  0  0  0  1  0  0  0  0  0  0
  1 35  1  6  0  0  0
  2 21  1  0  0  0  0
  2 23  1  1  0  0  0
  3 19  2  0  0  0  0
  3  8  1  0  0  0  0
  4 18  1  0  0  0  0
  5 10  1  0  0  0  0
  5 21  1  0  0  0  0
  6 20  1  0  0  0  0
  6  3  1  1  0  0  0
  7 11  1  0  0  0  0
  8  5  2  0  0  0  0
  9  4  1  6  0  0  0
  9  6  1  0  0  0  0
 11  1  1  0  0  0  0
 12  8  1  0  0  0  0
 12 16  1  0  0  0  0
 13  2  1  0  0  0  0
 14 19  1  0  0  0  0
 15 10  2  0  0  0  0
 16  2  1  0  0  0  0
 17  7  1  0  0  0  0
 17 18  1  1  0  0  0
 17 24  1  0  0  0  0
 19 15  1  0  0  0  0
 20 12  1  1  0  0  0
 22 29  1  6  0  0  0
 22  9  1  0  0  0  0
 22 27  1  0  0  0  0
 25  7  1  0  0  0  0
 26 24  1  6  0  0  0
 26  1  1  0  0  0  0
 26 20  1  0  0  0  0
 27 14  1  0  0  0  0
 28 29  2  0  0  0  0
 29 30  1  0  0  0  0
 32 33  1  0  0  0  0
 33 31  2  0  0  0  0
 33 30  1  0  0  0  0
 34 32  2  0  0  0  0
 34 28  1  0  0  0  0
 35 36  1  0  0  0  0
 37 35  1  0  0  0  0
M  END
>  <MODEL>
5

>  <REMARK>
 VINA RESULT:      -7.1      3.107      8.376
  Name = 
  2 active torsions:
  status: ('A' for Active; 'I' for Inactive)
    1  A    between atoms: C_1  and  N_4
    2  A    between atoms: C_23  and  C_30
                            x       y       z     vdW  Elec       q    Type
                         _______ _______ _______ _____ _____    ______ ____

>  <TORSDO>
F 2

$$$$
=
 OpenBabel11122411453D

 37 43  0  0  1  0  0  0  0  0999 V2000
  182.3490  177.7880  136.6690 C   0  0  2  0  0  3  0  0  0  0  0  0
  180.5540  182.0250  137.2920 C   0  0  1  0  0  0  0  0  0  0  0  0
  180.6660  179.7450  140.7330 C   0  0  0  0  0  0  0  0  0  0  0  0
  183.9150  177.5550  140.9760 C   0  0  0  0  0  2  0  0  0  0  0  0
  179.5320  181.4870  139.5330 C   0  0  0  0  0  0  0  0  0  0  0  0
  181.6690  178.6480  140.4650 C   0  0  2  0  0  3  0  0  0  0  0  0
  184.4470  176.6300  137.2860 N   0  0  0  0  0  0  0  0  0  0  0  0
  180.3610  180.3830  139.5770 C   0  0  0  0  0  0  0  0  0  0  0  0
  182.9670  178.7180  141.3340 C   0  0  1  0  0  3  0  0  0  0  0  0
  178.9310  181.8970  140.6860 N   0  0  0  0  0  0  0  0  0  0  0  0
  183.8900  177.8460  136.6890 C   0  0  0  0  0  2  0  0  0  0  0  0
  181.0790  179.9080  138.4780 N   0  0  0  0  0  0  0  0  0  0  0  0
  181.6070  182.7910  137.7950 O   0  0  0  0  0  1  0  0  0  0  0  0
  180.4110  179.5390  143.2190 C   0  0  0  0  0  2  0  0  0  0  0  0
  179.1760  181.2590  141.8720 C   0  0  0  0  0  3  0  0  0  0  0  0
  181.0110  180.5540  137.1660 C   0  0  0  0  0  2  0  0  0  0  0  0
  184.0230  176.5020  138.6910 C   0  0  1  0  0  3  0  0  0  0  0  0
  184.5270  177.6550  139.5880 C   0  0  0  0  0  2  0  0  0  0  0  0
  180.0580  180.1590  141.9220 C   0  0  0  0  0  0  0  0  0  0  0  0
  181.9850  178.8590  138.9370 C   0  0  2  0  0  3  0  0  0  0  0  0
  179.3230  182.1770  138.2160 C   0  0  0  0  0  2  0  0  0  0  0  0
  182.7020  178.6140  142.8660 C   0  0  2  0  0  3  0  0  0  0  0  0
  180.1940  182.5380  135.9140 C   0  0  0  0  0  1  0  0  0  0  0  0
  182.4940  176.3640  138.7440 C   0  0  0  0  0  2  0  0  0  0  0  0
  185.8990  176.7080  137.2080 C   0  0  0  0  0  1  0  0  0  0  0  0
  181.8080  177.5770  138.1010 C   0  0  2  0  0  3  0  0  0  0  0  0
  181.8870  179.7570  143.4630 C   0  0  0  0  0  2  0  0  0  0  0  0
  185.0880  178.0090  143.0980 C   0  0  0  0  0  3  0  0  0  0  0  0
  183.9680  178.4790  143.6700 C   0  0  0  0  0  0  0  0  0  0  0  0
  183.9210  178.8740  145.1260 C   0  0  0  0  0  2  0  0  0  0  0  0
  185.3110  178.9820  147.0660 O   0  0  0  0  0  0  0  0  0  0  0  0
  186.4100  178.1710  145.1440 C   0  0  0  0  0  3  0  0  0  0  0  0
  185.2290  178.6890  145.8460 C   0  0  0  0  0  0  0  0  0  0  0  0
  186.3420  177.8530  143.8530 C   0  0  0  0  0  3  0  0  0  0  0  0
  181.8690  176.7430  135.7560 N   0  0  0  0  0  0  0  0  0  0  0  0
  180.6520  177.1230  135.2940 O   0  0  0  0  0  1  0  0  0  0  0  0
  182.7440  176.7220  134.5940 C   0  0  0  0  0  1  0  0  0  0  0  0
  1 35  1  6  0  0  0
  1 11  1  0  0  0  0
  1 26  1  0  0  0  0
  2 23  1  6  0  0  0
  2 13  1  0  0  0  0
  2 21  1  0  0  0  0
  3 19  1  0  0  0  0
  5  8  1  0  0  0  0
  5 10  2  0  0  0  0
  6  3  1  1  0  0  0
  6  9  1  0  0  0  0
  7 17  1  0  0  0  0
  8  3  2  0  0  0  0
  9  4  1  6  0  0  0
  9 22  1  0  0  0  0
 10 15  1  0  0  0  0
 11  7  1  0  0  0  0
 12  8  1  0  0  0  0
 14 27  1  0  0  0  0
 15 19  2  0  0  0  0
 16  2  1  0  0  0  0
 16 12  1  0  0  0  0
 17 24  1  6  0  0  0
 17 18  1  0  0  0  0
 18  4  1  0  0  0  0
 19 14  1  0  0  0  0
 20 12  1  6  0  0  0
 20  6  1  0  0  0  0
 21  5  1  0  0  0  0
 22 27  1  0  0  0  0
 22 29  1  1  0  0  0
 25  7  1  0  0  0  0
 26 24  1  1  0  0  0
 26 20  1  0  0  0  0
 28 29  2  0  0  0  0
 28 34  1  0  0  0  0
 29 30  1  0  0  0  0
 30 33  1  0  0  0  0
 32 33  1  0  0  0  0
 33 31  2  0  0  0  0
 34 32  2  0  0  0  0
 36 35  1  0  0  0  0
 37 35  1  0  0  0  0
M  END
>  <MODEL>
6

>  <REMARK>
 VINA RESULT:      -7.0      2.185      5.597
  Name = 
  2 active torsions:
  status: ('A' for Active; 'I' for Inactive)
    1  A    between atoms: C_1  and  N_4
    2  A    between atoms: C_23  and  C_30
                            x       y       z     vdW  Elec       q    Type
                         _______ _______ _______ _____ _____    ______ ____

>  <TORSDO>
F 2

$$$$
=
 OpenBabel11122411453D

 37 43  0  0  1  0  0  0  0  0999 V2000
  184.5950  178.6220  139.9480 C   0  0  2  0  0  3  0  0  0  0  0  0
  186.8590  175.6360  137.2050 C   0  0  1  0  0  0  0  0  0  0  0  0
  189.2990  177.5980  139.8970 C   0  0  0  0  0  0  0  0  0  0  0  0
  187.5810  178.0950  143.3920 C   0  0  0  0  0  2  0  0  0  0  0  0
  189.1440  176.5590  137.7390 C   0  0  0  0  0  0  0  0  0  0  0  0
  188.3800  178.1300  140.9710 C   0  0  2  0  0  3  0  0  0  0  0  0
  183.9410  178.7090  142.3330 N   0  0  0  0  0  0  0  0  0  0  0  0
  188.5710  177.1740  138.8360 C   0  0  0  0  0  0  0  0  0  0  0  0
  188.5690  177.4780  142.3790 C   0  0  1  0  0  3  0  0  0  0  0  0
  190.5020  176.4540  137.6860 N   0  0  0  0  0  0  0  0  0  0  0  0
  183.9360  177.8780  141.1270 C   0  0  0  0  0  2  0  0  0  0  0  0
  187.1930  177.2830  139.0320 N   0  0  0  0  0  0  0  0  0  0  0  0
  186.9910  174.4750  137.9680 O   0  0  0  0  0  1  0  0  0  0  0  0
  191.5250  177.8780  141.0160 C   0  0  0  0  0  2  0  0  0  0  0  0
  191.2820  176.9050  138.7160 C   0  0  0  0  0  3  0  0  0  0  0  0
  186.2250  176.7460  138.0730 C   0  0  0  0  0  2  0  0  0  0  0  0
  185.3220  179.0030  142.7530 C   0  0  1  0  0  3  0  0  0  0  0  0
  186.1250  177.7410  143.1360 C   0  0  0  0  0  2  0  0  0  0  0  0
  190.6920  177.4920  139.8550 C   0  0  0  0  0  0  0  0  0  0  0  0
  186.9590  177.8110  140.3730 C   0  0  2  0  0  3  0  0  0  0  0  0
  188.2440  176.0460  136.6510 C   0  0  0  0  0  2  0  0  0  0  0  0
  189.9940  177.6790  142.9760 C   0  0  2  0  0  3  0  0  0  0  0  0
  185.9360  175.3500  136.0390 C   0  0  0  0  0  1  0  0  0  0  0  0
  186.0210  179.8130  141.6510 C   0  0  0  0  0  2  0  0  0  0  0  0
  183.2400  177.9880  143.3870 C   0  0  0  0  0  1  0  0  0  0  0  0
  186.0330  179.0420  140.3240 C   0  0  2  0  0  3  0  0  0  0  0  0
  191.1240  177.0190  142.1940 C   0  0  0  0  0  2  0  0  0  0  0  0
  189.0640  177.3960  145.2500 C   0  0  0  0  0  3  0  0  0  0  0  0
  190.0960  177.2250  144.4090 C   0  0  0  0  0  0  0  0  0  0  0  0
  191.3930  176.5930  144.8550 C   0  0  0  0  0  2  0  0  0  0  0  0
  192.4300  175.6530  146.7910 O   0  0  0  0  0  0  0  0  0  0  0  0
  190.2270  176.4090  147.1560 C   0  0  0  0  0  3  0  0  0  0  0  0
  191.4020  176.1880  146.3030 C   0  0  0  0  0  0  0  0  0  0  0  0
  189.1290  176.9750  146.6590 C   0  0  0  0  0  3  0  0  0  0  0  0
  183.7900  179.7770  139.5340 N   0  0  0  0  0  0  0  0  0  0  0  0
  184.5550  180.5450  138.7180 O   0  0  0  0  0  1  0  0  0  0  0  0
  182.6960  179.2920  138.7060 C   0  0  0  0  0  1  0  0  0  0  0  0
  1 35  1  1  0  0  0
  1 26  1  0  0  0  0
  1 11  1  0  0  0  0
  2 23  1  6  0  0  0
  2 13  1  0  0  0  0
  2 16  1  0  0  0  0
  5  8  1  0  0  0  0
  6  3  1  6  0  0  0
  6  9  1  0  0  0  0
  7 17  1  0  0  0  0
  7 25  1  0  0  0  0
  8 12  1  0  0  0  0
  8  3  2  0  0  0  0
  9 22  1  0  0  0  0
  9  4  1  1  0  0  0
 10  5  2  0  0  0  0
 10 15  1  0  0  0  0
 11  7  1  0  0  0  0
 14 27  1  0  0  0  0
 15 19  2  0  0  0  0
 16 12  1  0  0  0  0
 17 24  1  6  0  0  0
 17 18  1  0  0  0  0
 18  4  1  0  0  0  0
 19  3  1  0  0  0  0
 19 14  1  0  0  0  0
 20 12  1  6  0  0  0
 20  6  1  0  0  0  0
 21  2  1  0  0  0  0
 21  5  1  0  0  0  0
 22 29  1  1  0  0  0
 26 20  1  0  0  0  0
 26 24  1  1  0  0  0
 27 22  1  0  0  0  0
 28 34  1  0  0  0  0
 29 30  1  0  0  0  0
 29 28  2  0  0  0  0
 30 33  1  0  0  0  0
 33 31  2  0  0  0  0
 33 32  1  0  0  0  0
 34 32  2  0  0  0  0
 36 35  1  0  0  0  0
 37 35  1  0  0  0  0
M  END
>  <MODEL>
7

>  <REMARK>
 VINA RESULT:      -6.8      2.756      4.022
  Name = 
  2 active torsions:
  status: ('A' for Active; 'I' for Inactive)
    1  A    between atoms: C_1  and  N_4
    2  A    between atoms: C_23  and  C_30
                            x       y       z     vdW  Elec       q    Type
                         _______ _______ _______ _____ _____    ______ ____

>  <TORSDO>
F 2

$$$$
=
 OpenBabel11122411453D

 37 43  0  0  1  0  0  0  0  0999 V2000
  190.7380  175.0810  136.1400 C   0  0  2  0  0  3  0  0  0  0  0  0
  189.8900  177.1430  140.2140 C   0  0  1  0  0  0  0  0  0  0  0  0
  186.6020  176.9720  137.7220 C   0  0  0  0  0  0  0  0  0  0  0  0
  186.4150  173.6020  135.7160 C   0  0  0  0  0  2  0  0  0  0  0  0
  187.7170  178.1820  139.4700 C   0  0  0  0  0  0  0  0  0  0  0  0
  186.9130  175.8980  136.7070 C   0  0  2  0  0  3  0  0  0  0  0  0
  190.1410  172.9310  135.0710 N   0  0  0  0  0  0  0  0  0  0  0  0
  187.7220  177.2890  138.4160 C   0  0  0  0  0  0  0  0  0  0  0  0
  186.0070  174.6280  136.7950 C   0  0  1  0  0  3  0  0  0  0  0  0
  186.5560  178.8330  139.7670 N   0  0  0  0  0  0  0  0  0  0  0  0
  190.6730  173.5470  136.2880 C   0  0  0  0  0  2  0  0  0  0  0  0
  188.8300  176.5180  138.0580 N   0  0  0  0  0  0  0  0  0  0  0  0
  189.3110  176.1500  141.0060 O   0  0  0  0  0  1  0  0  0  0  0  0
  184.1420  177.2710  137.3380 C   0  0  0  0  0  2  0  0  0  0  0  0
  185.4080  178.5760  139.0670 C   0  0  0  0  0  3  0  0  0  0  0  0
  190.0990  176.5950  138.7840 C   0  0  0  0  0  2  0  0  0  0  0  0
  188.7590  173.3790  134.8250 C   0  0  1  0  0  3  0  0  0  0  0  0
  187.7760  172.9660  135.9440 C   0  0  0  0  0  2  0  0  0  0  0  0
  185.4060  177.6300  138.0200 C   0  0  0  0  0  0  0  0  0  0  0  0
  188.4150  175.5610  137.0360 C   0  0  2  0  0  3  0  0  0  0  0  0
  188.9920  178.4020  140.2320 C   0  0  0  0  0  2  0  0  0  0  0  0
  184.4930  174.9200  136.5750 C   0  0  2  0  0  3  0  0  0  0  0  0
  191.2410  177.5020  140.7950 C   0  0  0  0  0  1  0  0  0  0  0  0
  188.7560  174.8970  134.5940 C   0  0  0  0  0  2  0  0  0  0  0  0
  190.1750  171.4850  135.2390 C   0  0  0  0  0  1  0  0  0  0  0  0
  189.3370  175.6400  135.8040 C   0  0  2  0  0  3  0  0  0  0  0  0
  183.8460  175.8160  137.6260 C   0  0  0  0  0  2  0  0  0  0  0  0
  184.0200  172.5580  137.1300 C   0  0  0  0  0  3  0  0  0  0  0  0
  183.6660  173.6670  136.4620 C   0  0  0  0  0  0  0  0  0  0  0  0
  182.4500  173.7060  135.5680 C   0  0  0  0  0  2  0  0  0  0  0  0
  180.6700  172.3140  134.7930 O   0  0  0  0  0  0  0  0  0  0  0  0
  182.1540  171.2360  136.2750 C   0  0  0  0  0  3  0  0  0  0  0  0
  181.7000  172.4040  135.5090 C   0  0  0  0  0  0  0  0  0  0  0  0
  183.2430  171.3110  137.0370 C   0  0  0  0  0  3  0  0  0  0  0  0
  191.7280  175.4760  135.1320 N   0  0  0  0  0  0  0  0  0  0  0  0
  191.3280  176.6550  134.5960 O   0  0  0  0  0  1  0  0  0  0  0  0
  192.9810  175.7590  135.8160 C   0  0  0  0  0  1  0  0  0  0  0  0
  1 35  1  6  0  0  0
  1 11  1  0  0  0  0
  2 21  1  0  0  0  0
  2 23  1  1  0  0  0
  2 13  1  0  0  0  0
  3 19  2  0  0  0  0
  3  8  1  0  0  0  0
  4 18  1  0  0  0  0
  5 10  1  0  0  0  0
  5 21  1  0  0  0  0
  6  9  1  0  0  0  0
  6 20  1  0  0  0  0
  6  3  1  1  0  0  0
  7 25  1  0  0  0  0
  7 11  1  0  0  0  0
  8  5  2  0  0  0  0
  9  4  1  6  0  0  0
 12  8  1  0  0  0  0
 12 16  1  0  0  0  0
 14 27  1  0  0  0  0
 14 19  1  0  0  0  0
 15 10  2  0  0  0  0
 16  2  1  0  0  0  0
 17 24  1  1  0  0  0
 17  7  1  0  0  0  0
 17 18  1  0  0  0  0
 19 15  1  0  0  0  0
 20 12  1  1  0  0  0
 22 29  1  1  0  0  0
 22  9  1  0  0  0  0
 22 27  1  0  0  0  0
 26 24  1  6  0  0  0
 26  1  1  0  0  0  0
 26 20  1  0  0  0  0
 29 28  2  0  0  0  0
 30 29  1  0  0  0  0
 31 33  2  0  0  0  0
 32 34  2  0  0  0  0
 33 30  1  0  0  0  0
 33 32  1  0  0  0  0
 34 28  1  0  0  0  0
 35 37  1  0  0  0  0
 36 35  1  0  0  0  0
M  END
>  <MODEL>
8

>  <REMARK>
 VINA RESULT:      -6.4      3.981      8.750
  Name = 
  2 active torsions:
  status: ('A' for Active; 'I' for Inactive)
    1  A    between atoms: C_1  and  N_4
    2  A    between atoms: C_23  and  C_30
                            x       y       z     vdW  Elec       q    Type
                         _______ _______ _______ _____ _____    ______ ____

>  <TORSDO>
F 2

$$$$
=
 OpenBabel11122411453D

 37 43  0  0  1  0  0  0  0  0999 V2000
  192.8340  175.3370  136.9830 C   0  0  2  0  0  3  0  0  0  0  0  0
  190.8470  177.0820  140.8000 C   0  0  1  0  0  0  0  0  0  0  0  0
  188.2920  176.8230  137.5670 C   0  0  0  0  0  0  0  0  0  0  0  0
  188.8870  173.5760  135.4410 C   0  0  0  0  0  2  0  0  0  0  0  0
  188.8400  178.0030  139.5840 C   0  0  0  0  0  0  0  0  0  0  0  0
  188.9320  175.8380  136.6170 C   0  0  2  0  0  3  0  0  0  0  0  0
  192.7010  173.2180  135.7130 N   0  0  0  0  0  0  0  0  0  0  0  0
  189.1790  177.1780  138.5280 C   0  0  0  0  0  0  0  0  0  0  0  0
  188.1430  174.5020  136.4270 C   0  0  1  0  0  3  0  0  0  0  0  0
  187.5910  178.5490  139.6100 N   0  0  0  0  0  0  0  0  0  0  0  0
  192.8660  173.7960  137.0480 C   0  0  0  0  0  2  0  0  0  0  0  0
  190.4010  176.5130  138.4250 N   0  0  0  0  0  0  0  0  0  0  0  0
  190.1790  176.0030  141.3830 O   0  0  0  0  0  1  0  0  0  0  0  0
  185.9840  176.9650  136.5970 C   0  0  0  0  0  2  0  0  0  0  0  0
  186.6740  178.2520  138.6380 C   0  0  0  0  0  3  0  0  0  0  0  0
  191.4440  176.6380  139.4460 C   0  0  0  0  0  2  0  0  0  0  0  0
  191.3880  173.5780  135.1510 C   0  0  1  0  0  3  0  0  0  0  0  0
  190.2010  173.0280  135.9730 C   0  0  0  0  0  2  0  0  0  0  0  0
  187.0080  177.3740  137.5850 C   0  0  0  0  0  0  0  0  0  0  0  0
  190.3310  175.5920  137.2940 C   0  0  2  0  0  3  0  0  0  0  0  0
  189.8670  178.2690  140.6460 C   0  0  0  0  0  2  0  0  0  0  0  0
  186.7090  174.6970  135.8500 C   0  0  2  0  0  3  0  0  0  0  0  0
  191.9800  177.5020  141.7120 C   0  0  0  0  0  1  0  0  0  0  0  0
  191.3120  175.1030  134.9880 C   0  0  0  0  0  2  0  0  0  0  0  0
  192.8170  171.7700  135.8250 C   0  0  0  0  0  1  0  0  0  0  0  0
  191.5160  175.8120  136.3340 C   0  0  2  0  0  3  0  0  0  0  0  0
  185.7510  175.4790  136.7430 C   0  0  0  0  0  2  0  0  0  0  0  0
  186.7820  172.3020  135.2420 C   0  0  0  0  0  3  0  0  0  0  0  0
  186.0450  173.3960  135.4850 C   0  0  0  0  0  0  0  0  0  0  0  0
  184.5380  173.3790  135.3910 C   0  0  0  0  0  2  0  0  0  0  0  0
  182.7250  171.9050  134.8920 O   0  0  0  0  0  0  0  0  0  0  0  0
  184.8500  170.8910  134.7590 C   0  0  0  0  0  3  0  0  0  0  0  0
  183.9700  172.0410  135.0050 C   0  0  0  0  0  0  0  0  0  0  0  0
  186.1700  171.0160  134.8720 C   0  0  0  0  0  3  0  0  0  0  0  0
  194.0030  175.8620  136.2690 N   0  0  0  0  0  0  0  0  0  0  0  0
  194.2200  177.1290  136.7030 O   0  0  0  0  0  1  0  0  0  0  0  0
  195.1690  175.0970  136.6850 C   0  0  0  0  0  1  0  0  0  0  0  0
  1 35  1  6  0  0  0
  1 11  1  0  0  0  0
  2 13  1  0  0  0  0
  2 23  1  1  0  0  0
  3 19  2  0  0  0  0
  3  8  1  0  0  0  0
  4 18  1  0  0  0  0
  5 10  1  0  0  0  0
  5 21  1  0  0  0  0
  6 20  1  0  0  0  0
  6  3  1  1  0  0  0
  7 25  1  0  0  0  0
  7 11  1  0  0  0  0
  8  5  2  0  0  0  0
  9  4  1  6  0  0  0
  9  6  1  0  0  0  0
 12  8  1  0  0  0  0
 12 16  1  0  0  0  0
 14 27  1  0  0  0  0
 14 19  1  0  0  0  0
 15 10  2  0  0  0  0
 16  2  1  0  0  0  0
 17 24  1  1  0  0  0
 17  7  1  0  0  0  0
 17 18  1  0  0  0  0
 19 15  1  0  0  0  0
 20 12  1  1  0  0  0
 21  2  1  0  0  0  0
 22 29  1  1  0  0  0
 22  9  1  0  0  0  0
 22 27  1  0  0  0  0
 26 24  1  6  0  0  0
 26  1  1  0  0  0  0
 26 20  1  0  0  0  0
 28 29  2  0  0  0  0
 30 29  1  0  0  0  0
 31 33  2  0  0  0  0
 32 34  2  0  0  0  0
 32 33  1  0  0  0  0
 33 30  1  0  0  0  0
 34 28  1  0  0  0  0
 35 37  1  0  0  0  0
 35 36  1  0  0  0  0
M  END
>  <MODEL>
9

>  <REMARK>
 VINA RESULT:      -6.2      4.667      9.882
  Name = 
  2 active torsions:
  status: ('A' for Active; 'I' for Inactive)
    1  A    between atoms: C_1  and  N_4
    2  A    between atoms: C_23  and  C_30
                            x       y       z     vdW  Elec       q    Type
                         _______ _______ _______ _____ _____    ______ ____

>  <TORSDO>
F 2

$$$$
