=
 OpenBabel11122412043D

 34 40  0  0  1  0  0  0  0  0999 V2000
  182.2630  178.7800  143.1430 C   0  0  0  0  0  0  0  0  0  0  0  0
  183.4950  178.9500  145.3830 C   0  0  0  0  0  2  0  0  0  0  0  0
  181.6440  178.6040  136.5090 C   0  0  0  0  0  0  0  0  0  0  0  0
  181.2350  179.0180  140.9690 C   0  0  0  0  0  0  0  0  0  0  0  0
  182.6820  178.8130  138.8280 C   0  0  2  0  0  3  0  0  0  0  0  0
  183.1880  176.8260  137.3180 C   0  0  0  0  0  1  0  0  0  0  0  0
  181.4350  177.9030  135.4840 O   0  0  0  0  0  0  0  0  0  0  0  0
  181.2420  180.8840  137.6220 C   0  0  0  0  0  2  0  0  0  0  0  0
  184.7020  179.0450  143.3550 C   0  0  2  0  0  3  0  0  0  0  0  0
  187.7740  178.0310  143.2450 C   0  0  0  0  0  2  0  0  0  0  0  0
  183.6810  178.1300  139.7750 C   0  0  0  0  0  2  0  0  0  0  0  0
  180.7320  180.4420  138.9920 C   0  0  0  0  0  2  0  0  0  0  0  0
  184.9050  178.4220  141.9740 C   0  0  1  0  0  3  0  0  0  0  0  0
  184.9760  178.9100  145.7510 C   0  0  0  0  0  2  0  0  0  0  0  0
  181.2980  179.0980  139.4620 C   0  0  2  0  0  3  0  0  0  0  0  0
  180.9800  179.8730  136.6070 N   0  0  0  0  0  2  0  0  0  0  0  0
  186.6900  177.7170  144.2710 C   0  0  2  0  0  3  0  0  0  0  0  0
  182.3980  178.8880  141.7430 C   0  0  0  0  0  0  0  0  0  0  0  0
  182.5160  178.1040  137.5490 N   0  0  0  0  0  0  0  0  0  0  0  0
  183.7600  178.9180  141.0710 C   0  0  2  0  0  3  0  0  0  0  0  0
  179.9130  178.9240  142.9350 C   0  0  0  0  0  3  0  0  0  0  0  0
  187.3050  177.7940  141.8150 C   0  0  0  0  0  2  0  0  0  0  0  0
  180.0230  179.0350  141.5860 N   0  0  0  0  0  0  0  0  0  0  0  0
  186.2530  178.8060  141.3870 C   0  0  0  0  0  2  0  0  0  0  0  0
  185.7750  178.9420  144.4370 C   0  0  1  0  0  3  0  0  0  0  0  0
  181.0250  178.7820  143.7020 N   0  0  0  0  0  0  0  0  0  0  0  0
  183.4710  178.4420  143.9660 C   0  0  2  0  0  3  0  0  0  0  0  0
  187.3380  177.3880  145.5320 N   0  0  0  0  0  2  0  0  0  0  0  0
  188.7050  177.8750  145.4430 C   0  0  0  0  0  2  0  0  0  0  0  0
  192.0480  176.7550  146.3220 N   0  0  0  0  0  2  0  0  0  0  0  0
  189.9620  177.1310  147.4530 C   0  0  0  0  0  2  0  0  0  0  0  0
  189.6620  176.8430  146.0100 C   0  0  2  0  0  3  0  0  0  0  0  0
  191.3910  176.6820  147.6220 C   0  0  0  0  0  2  0  0  0  0  0  0
  191.0020  176.9480  145.3220 C   0  0  0  0  0  2  0  0  0  0  0  0
  1 26  1  0  0  0  0
  1 27  1  0  0  0  0
  2 14  1  0  0  0  0
  3 16  1  0  0  0  0
  3 19  1  0  0  0  0
  4 23  2  0  0  0  0
  4 18  1  0  0  0  0
  5 15  1  0  0  0  0
  5 11  1  1  0  0  0
  6 19  1  0  0  0  0
  7  3  2  0  0  0  0
  8 12  1  0  0  0  0
  9 27  1  0  0  0  0
  9 25  1  0  0  0  0
 10 17  1  0  0  0  0
 11 20  1  0  0  0  0
 12 15  1  0  0  0  0
 13  9  1  0  0  0  0
 15  4  1  0  0  0  0
 16  8  1  0  0  0  0
 17 25  1  0  0  0  0
 17 28  1  0  0  0  0
 18  1  2  0  0  0  0
 19  5  1  0  0  0  0
 20 18  1  0  0  0  0
 20 13  1  0  0  0  0
 21 26  2  0  0  0  0
 22 10  1  0  0  0  0
 23 21  1  0  0  0  0
 24 22  1  0  0  0  0
 24 13  1  0  0  0  0
 25 14  1  0  0  0  0
 27  2  1  0  0  0  0
 29 28  1  0  0  0  0
 29 32  1  0  0  0  0
 30 33  1  0  0  0  0
 31 33  1  0  0  0  0
 32 31  1  0  0  0  0
 34 32  1  0  0  0  0
 34 30  1  0  0  0  0
M  END
>  <MODEL>
1

>  <REMARK>
 VINA RESULT:      -9.6      0.000      0.000
  Name = 
  3 active torsions:
  status: ('A' for Active; 'I' for Inactive)
    1  A    between atoms: C_17  and  N_28
    2  A    between atoms: N_28  and  C_29
    3  A    between atoms: C_29  and  C_32
                            x       y       z     vdW  Elec       q    Type
                         _______ _______ _______ _____ _____    ______ ____

>  <TORSDO>
F 3

$$$$
=
 OpenBabel11122412043D

 34 40  0  0  1  0  0  0  0  0999 V2000
  186.7050  178.3450  140.4660 C   0  0  0  0  0  0  0  0  0  0  0  0
  188.0750  177.7780  142.5550 C   0  0  0  0  0  2  0  0  0  0  0  0
  181.1910  179.5210  136.9110 C   0  0  0  0  0  0  0  0  0  0  0  0
  185.2550  178.4880  138.5380 C   0  0  0  0  0  0  0  0  0  0  0  0
  182.7180  178.9150  138.8600 C   0  0  2  0  0  3  0  0  0  0  0  0
  181.3560  181.0670  138.8550 C   0  0  0  0  0  1  0  0  0  0  0  0
  180.4600  180.3750  136.3420 O   0  0  0  0  0  0  0  0  0  0  0  0
  182.1260  177.1320  136.7890 C   0  0  0  0  0  2  0  0  0  0  0  0
  185.7200  177.9070  142.6810 C   0  0  2  0  0  3  0  0  0  0  0  0
  184.2860  178.7410  145.4590 C   0  0  0  0  0  2  0  0  0  0  0  0
  183.1500  179.3930  140.2550 C   0  0  0  0  0  2  0  0  0  0  0  0
  183.6120  177.4000  137.0200 C   0  0  0  0  0  2  0  0  0  0  0  0
  184.4760  178.7120  142.3030 C   0  0  1  0  0  3  0  0  0  0  0  0
  187.7080  177.6760  144.0330 C   0  0  0  0  0  2  0  0  0  0  0  0
  183.8940  178.6250  137.8950 C   0  0  2  0  0  3  0  0  0  0  0  0
  181.4600  178.2940  136.2170 N   0  0  0  0  0  2  0  0  0  0  0  0
  185.7260  178.9660  145.0120 C   0  0  2  0  0  3  0  0  0  0  0  0
  185.4010  178.4350  139.9320 C   0  0  0  0  0  0  0  0  0  0  0  0
  181.7450  179.8120  138.2150 N   0  0  0  0  0  0  0  0  0  0  0  0
  184.1710  178.4210  140.8220 C   0  0  2  0  0  3  0  0  0  0  0  0
  187.6090  178.3740  138.2830 C   0  0  0  0  0  3  0  0  0  0  0  0
  183.2750  179.2120  144.4220 C   0  0  0  0  0  2  0  0  0  0  0  0
  186.3630  178.4540  137.7500 N   0  0  0  0  0  0  0  0  0  0  0  0
  183.2910  178.3370  143.1780 C   0  0  0  0  0  2  0  0  0  0  0  0
  186.1770  177.7870  144.1330 C   0  0  1  0  0  3  0  0  0  0  0  0
  187.7750  178.3360  139.6310 N   0  0  0  0  0  0  0  0  0  0  0  0
  186.8940  178.4870  141.9470 C   0  0  2  0  0  3  0  0  0  0  0  0
  186.5620  179.0700  146.1990 N   0  0  0  0  0  2  0  0  0  0  0  0
  186.1240  178.0290  147.1140 C   0  0  0  0  0  2  0  0  0  0  0  0
  189.6120  177.0890  147.5030 N   0  0  0  0  0  2  0  0  0  0  0  0
  188.1110  178.7160  148.4370 C   0  0  0  0  0  2  0  0  0  0  0  0
  187.2930  177.5530  147.9560 C   0  0  2  0  0  3  0  0  0  0  0  0
  189.5210  178.1800  148.4660 C   0  0  0  0  0  2  0  0  0  0  0  0
  188.2490  176.7510  147.1060 C   0  0  0  0  0  2  0  0  0  0  0  0
  1 27  1  0  0  0  0
  2 14  1  0  0  0  0
  3 19  1  0  0  0  0
  4 18  2  0  0  0  0
  5 11  1  1  0  0  0
  7  3  2  0  0  0  0
  8 12  1  0  0  0  0
  9 25  1  0  0  0  0
 11 20  1  0  0  0  0
 12 15  1  0  0  0  0
 13  9  1  0  0  0  0
 13 24  1  0  0  0  0
 14 25  1  0  0  0  0
 15  4  1  0  0  0  0
 15  5  1  0  0  0  0
 16  8  1  0  0  0  0
 16  3  1  0  0  0  0
 17 10  1  0  0  0  0
 17 28  1  0  0  0  0
 18  1  1  0  0  0  0
 18 20  1  0  0  0  0
 19  6  1  0  0  0  0
 19  5  1  0  0  0  0
 20 13  1  0  0  0  0
 21 26  1  0  0  0  0
 22 10  1  0  0  0  0
 23 21  2  0  0  0  0
 23  4  1  0  0  0  0
 24 22  1  0  0  0  0
 25 17  1  0  0  0  0
 26  1  2  0  0  0  0
 27  2  1  0  0  0  0
 27  9  1  0  0  0  0
 28 29  1  0  0  0  0
 29 32  1  0  0  0  0
 30 33  1  0  0  0  0
 31 33  1  0  0  0  0
 32 31  1  0  0  0  0
 34 30  1  0  0  0  0
 34 32  1  0  0  0  0
M  END
>  <MODEL>
2

>  <REMARK>
 VINA RESULT:      -8.7      1.975      3.929
  Name = 
  3 active torsions:
  status: ('A' for Active; 'I' for Inactive)
    1  A    between atoms: C_17  and  N_28
    2  A    between atoms: N_28  and  C_29
    3  A    between atoms: C_29  and  C_32
                            x       y       z     vdW  Elec       q    Type
                         _______ _______ _______ _____ _____    ______ ____

>  <TORSDO>
F 3

$$$$
=
 OpenBabel11122412043D

 34 40  0  0  1  0  0  0  0  0999 V2000
  189.5970  176.4970  137.0400 C   0  0  0  0  0  0  0  0  0  0  0  0
  187.6310  177.6200  138.2380 C   0  0  0  0  0  2  0  0  0  0  0  0
  195.9140  174.5640  136.1560 C   0  0  0  0  0  0  0  0  0  0  0  0
  191.6080  175.8310  135.8770 C   0  0  0  0  0  0  0  0  0  0  0  0
  193.8510  175.6710  137.1650 C   0  0  2  0  0  3  0  0  0  0  0  0
  195.0030  173.7080  138.3090 C   0  0  0  0  0  1  0  0  0  0  0  0
  196.7440  173.6160  136.1740 O   0  0  0  0  0  0  0  0  0  0  0  0
  195.2210  176.7350  134.9720 C   0  0  0  0  0  2  0  0  0  0  0  0
  189.7890  177.6700  139.1970 C   0  0  2  0  0  3  0  0  0  0  0  0
  190.1350  177.8430  142.4100 C   0  0  0  0  0  2  0  0  0  0  0  0
  192.9420  175.6370  138.4030 C   0  0  0  0  0  2  0  0  0  0  0  0
  193.7320  176.4720  134.7510 C   0  0  0  0  0  2  0  0  0  0  0  0
  191.0370  176.8580  139.5440 C   0  0  1  0  0  3  0  0  0  0  0  0
  187.4760  178.2070  139.6390 C   0  0  0  0  0  2  0  0  0  0  0  0
  193.0960  175.5740  135.8170 C   0  0  2  0  0  3  0  0  0  0  0  0
  195.9720  175.4910  135.0620 N   0  0  0  0  0  2  0  0  0  0  0  0
  188.9240  177.4070  141.5920 C   0  0  2  0  0  3  0  0  0  0  0  0
  190.9970  176.3160  137.0420 C   0  0  0  0  0  0  0  0  0  0  0  0
  194.9320  174.6720  137.2120 N   0  0  0  0  0  0  0  0  0  0  0  0
  191.8480  176.6800  138.2460 C   0  0  2  0  0  3  0  0  0  0  0  0
  189.4940  175.7260  134.8080 C   0  0  0  0  0  3  0  0  0  0  0  0
  191.4100  177.1250  141.9870 C   0  0  0  0  0  2  0  0  0  0  0  0
  190.8410  175.5510  134.7890 N   0  0  0  0  0  0  0  0  0  0  0  0
  191.8730  177.5570  140.6050 C   0  0  0  0  0  2  0  0  0  0  0  0
  188.8710  178.2190  140.2870 C   0  0  1  0  0  3  0  0  0  0  0  0
  188.8790  176.1810  135.9310 N   0  0  0  0  0  0  0  0  0  0  0  0
  188.9050  176.8230  138.3300 C   0  0  2  0  0  3  0  0  0  0  0  0
  187.7290  177.6390  142.3890 N   0  0  0  0  0  2  0  0  0  0  0  0
  188.0430  177.2330  143.7490 C   0  0  0  0  0  2  0  0  0  0  0  0
  185.9940  178.7630  146.3300 N   0  0  0  0  0  2  0  0  0  0  0  0
  185.7690  178.2010  144.0050 C   0  0  0  0  0  2  0  0  0  0  0  0
  186.7930  177.2820  144.6070 C   0  0  2  0  0  3  0  0  0  0  0  0
  185.0720  178.8000  145.2000 C   0  0  0  0  0  2  0  0  0  0  0  0
  187.1100  177.9050  145.9460 C   0  0  0  0  0  2  0  0  0  0  0  0
  1 18  1  0  0  0  0
  1 27  1  0  0  0  0
  2 27  1  0  0  0  0
  2 14  1  0  0  0  0
  3  7  2  0  0  0  0
  3 19  1  0  0  0  0
  4 18  2  0  0  0  0
  5 19  1  0  0  0  0
  5 11  1  1  0  0  0
  8 16  1  0  0  0  0
  9 13  1  0  0  0  0
  9 25  1  0  0  0  0
 12  8  1  0  0  0  0
 12 15  1  0  0  0  0
 13 24  1  0  0  0  0
 14 25  1  0  0  0  0
 15  4  1  0  0  0  0
 15  5  1  0  0  0  0
 16  3  1  0  0  0  0
 17 28  1  0  0  0  0
 17 10  1  0  0  0  0
 18 20  1  0  0  0  0
 19  6  1  0  0  0  0
 20 11  1  0  0  0  0
 20 13  1  0  0  0  0
 21 26  1  0  0  0  0
 22 10  1  0  0  0  0
 23 21  2  0  0  0  0
 23  4  1  0  0  0  0
 24 22  1  0  0  0  0
 25 17  1  0  0  0  0
 26  1  2  0  0  0  0
 27  9  1  0  0  0  0
 28 29  1  0  0  0  0
 29 32  1  0  0  0  0
 31 32  1  0  0  0  0
 31 33  1  0  0  0  0
 32 34  1  0  0  0  0
 33 30  1  0  0  0  0
 34 30  1  0  0  0  0
M  END
>  <MODEL>
3

>  <REMARK>
 VINA RESULT:      -8.6      6.750      9.816
  Name = 
  3 active torsions:
  status: ('A' for Active; 'I' for Inactive)
    1  A    between atoms: C_17  and  N_28
    2  A    between atoms: N_28  and  C_29
    3  A    between atoms: C_29  and  C_32
                            x       y       z     vdW  Elec       q    Type
                         _______ _______ _______ _____ _____    ______ ____

>  <TORSDO>
F 3

$$$$
=
 OpenBabel11122412043D

 34 40  0  0  1  0  0  0  0  0999 V2000
  183.7570  178.8040  144.0350 C   0  0  0  0  0  0  0  0  0  0  0  0
  181.2070  179.0090  143.8970 C   0  0  0  0  0  2  0  0  0  0  0  0
  189.9010  177.4250  141.8530 C   0  0  0  0  0  0  0  0  0  0  0  0
  186.0940  178.1950  144.1190 C   0  0  0  0  0  0  0  0  0  0  0  0
  187.3620  177.6400  141.9280 C   0  0  2  0  0  3  0  0  0  0  0  0
  188.7770  179.0910  140.3850 C   0  0  0  0  0  1  0  0  0  0  0  0
  191.0080  177.8730  141.4510 O   0  0  0  0  0  0  0  0  0  0  0  0
  188.7450  175.5800  143.2160 C   0  0  0  0  0  2  0  0  0  0  0  0
  182.4360  178.2320  142.0360 C   0  0  2  0  0  3  0  0  0  0  0  0
  181.3170  178.7060  139.0370 C   0  0  0  0  0  2  0  0  0  0  0  0
  186.1890  178.3770  141.2630 C   0  0  0  0  0  2  0  0  0  0  0  0
  187.8370  176.4200  144.1120 C   0  0  0  0  0  2  0  0  0  0  0  0
  183.6590  178.4550  141.1470 C   0  0  1  0  0  3  0  0  0  0  0  0
  180.2260  178.9130  142.7310 C   0  0  0  0  0  2  0  0  0  0  0  0
  187.3800  177.7360  143.4740 C   0  0  2  0  0  3  0  0  0  0  0  0
  189.9140  176.3360  142.7880 N   0  0  0  0  0  2  0  0  0  0  0  0
  180.9470  179.4260  140.3300 C   0  0  2  0  0  3  0  0  0  0  0  0
  184.9120  178.3340  143.3760 C   0  0  0  0  0  0  0  0  0  0  0  0
  188.6740  178.0280  141.3830 N   0  0  0  0  0  0  0  0  0  0  0  0
  184.8890  177.9310  141.9120 C   0  0  2  0  0  3  0  0  0  0  0  0
  184.9700  178.9730  146.0570 C   0  0  0  0  0  3  0  0  0  0  0  0
  182.8220  178.6510  138.8140 C   0  0  0  0  0  2  0  0  0  0  0  0
  186.0910  178.5160  145.4410 N   0  0  0  0  0  0  0  0  0  0  0  0
  183.5110  177.7370  139.8150 C   0  0  0  0  0  2  0  0  0  0  0  0
  181.0200  178.4340  141.5040 C   0  0  1  0  0  3  0  0  0  0  0  0
  183.8180  179.1300  145.3520 N   0  0  0  0  0  0  0  0  0  0  0  0
  182.5450  179.1470  143.2210 C   0  0  2  0  0  3  0  0  0  0  0  0
  179.5990  179.9540  140.1880 N   0  0  0  0  0  2  0  0  0  0  0  0
  179.7150  181.4030  140.1690 C   0  0  0  0  0  2  0  0  0  0  0  0
  179.6240  184.0900  137.7240 N   0  0  0  0  0  2  0  0  0  0  0  0
  181.0750  182.2550  138.2730 C   0  0  0  0  0  2  0  0  0  0  0  0
  179.6910  181.9070  138.7380 C   0  0  2  0  0  3  0  0  0  0  0  0
  180.8610  183.4200  137.3390 C   0  0  0  0  0  2  0  0  0  0  0  0
  178.9320  183.2100  138.6610 C   0  0  0  0  0  2  0  0  0  0  0  0
  1 26  1  0  0  0  0
  3 16  1  0  0  0  0
  4 23  2  0  0  0  0
  5 11  1  6  0  0  0
  5 15  1  0  0  0  0
  6 19  1  0  0  0  0
  7  3  2  0  0  0  0
  8 12  1  0  0  0  0
  9 27  1  0  0  0  0
 10 17  1  0  0  0  0
 11 20  1  0  0  0  0
 13 20  1  0  0  0  0
 13  9  1  0  0  0  0
 14  2  1  0  0  0  0
 15 12  1  0  0  0  0
 15  4  1  0  0  0  0
 16  8  1  0  0  0  0
 17 25  1  0  0  0  0
 18  1  2  0  0  0  0
 18  4  1  0  0  0  0
 19  3  1  0  0  0  0
 19  5  1  0  0  0  0
 20 18  1  0  0  0  0
 22 10  1  0  0  0  0
 22 24  1  0  0  0  0
 23 21  1  0  0  0  0
 24 13  1  0  0  0  0
 25  9  1  0  0  0  0
 25 14  1  0  0  0  0
 26 21  2  0  0  0  0
 27  2  1  0  0  0  0
 27  1  1  0  0  0  0
 28 17  1  0  0  0  0
 29 28  1  0  0  0  0
 30 34  1  0  0  0  0
 31 32  1  0  0  0  0
 32 29  1  0  0  0  0
 33 30  1  0  0  0  0
 33 31  1  0  0  0  0
 34 32  1  0  0  0  0
M  END
>  <MODEL>
4

>  <REMARK>
 VINA RESULT:      -8.0      2.888      8.572
  Name = 
  3 active torsions:
  status: ('A' for Active; 'I' for Inactive)
    1  A    between atoms: C_17  and  N_28
    2  A    between atoms: N_28  and  C_29
    3  A    between atoms: C_29  and  C_32
                            x       y       z     vdW  Elec       q    Type
                         _______ _______ _______ _____ _____    ______ ____

>  <TORSDO>
F 3

$$$$
=
 OpenBabel11122412043D

 34 40  0  0  1  0  0  0  0  0999 V2000
  186.4690  178.3450  140.4000 C   0  0  0  0  0  0  0  0  0  0  0  0
  188.9230  177.8520  140.9470 C   0  0  0  0  0  2  0  0  0  0  0  0
  179.9190  178.7750  141.5580 C   0  0  0  0  0  0  0  0  0  0  0  0
  184.0970  178.3930  139.9380 C   0  0  0  0  0  0  0  0  0  0  0  0
  182.3990  178.2880  141.8930 C   0  0  2  0  0  3  0  0  0  0  0  0
  181.2150  180.1260  143.1990 C   0  0  0  0  0  1  0  0  0  0  0  0
  178.9310  179.5230  141.7800 O   0  0  0  0  0  0  0  0  0  0  0  0
  180.7220  176.6350  140.3850 C   0  0  0  0  0  2  0  0  0  0  0  0
  187.2520  177.5110  142.5810 C   0  0  2  0  0  3  0  0  0  0  0  0
  187.9760  177.7750  145.7240 C   0  0  0  0  0  2  0  0  0  0  0  0
  183.6110  178.7020  142.7420 C   0  0  0  0  0  2  0  0  0  0  0  0
  181.9550  177.1610  139.6530 C   0  0  0  0  0  2  0  0  0  0  0  0
  186.0140  178.0920  143.2640 C   0  0  1  0  0  3  0  0  0  0  0  0
  189.6450  177.5370  142.2540 C   0  0  0  0  0  2  0  0  0  0  0  0
  182.6500  178.3260  140.3650 C   0  0  2  0  0  3  0  0  0  0  0  0
  179.7540  177.6970  140.6250 N   0  0  0  0  0  2  0  0  0  0  0  0
  188.7260  178.3180  144.5120 C   0  0  2  0  0  3  0  0  0  0  0  0
  185.1400  178.2330  140.8620 C   0  0  0  0  0  0  0  0  0  0  0  0
  181.1760  179.0390  142.2230 N   0  0  0  0  0  0  0  0  0  0  0  0
  184.8230  177.8950  142.3080 C   0  0  2  0  0  3  0  0  0  0  0  0
  185.6800  178.7620  138.2110 C   0  0  0  0  0  3  0  0  0  0  0  0
  186.4980  178.1410  145.7020 C   0  0  0  0  0  2  0  0  0  0  0  0
  184.3950  178.6510  138.6350 N   0  0  0  0  0  0  0  0  0  0  0  0
  185.7490  177.4120  144.5970 C   0  0  0  0  0  2  0  0  0  0  0  0
  188.5680  177.3400  143.3350 C   0  0  1  0  0  3  0  0  0  0  0  0
  186.7060  178.6250  139.0920 N   0  0  0  0  0  0  0  0  0  0  0  0
  187.5860  178.3750  141.4010 C   0  0  2  0  0  3  0  0  0  0  0  0
  190.1280  178.4640  144.8720 N   0  0  0  0  0  2  0  0  0  0  0  0
  190.2790  177.9200  146.2110 C   0  0  0  0  0  2  0  0  0  0  0  0
  192.3190  175.2110  147.5160 N   0  0  0  0  0  2  0  0  0  0  0  0
  191.6400  176.0240  145.3590 C   0  0  0  0  0  2  0  0  0  0  0  0
  191.5950  177.1740  146.3240 C   0  0  2  0  0  3  0  0  0  0  0  0
  192.4490  174.9760  146.0820 C   0  0  0  0  0  2  0  0  0  0  0  0
  191.7070  176.5250  147.6830 C   0  0  0  0  0  2  0  0  0  0  0  0
  1 18  1  0  0  0  0
  1 27  1  0  0  0  0
  2 27  1  0  0  0  0
  2 14  1  0  0  0  0
  3  7  2  0  0  0  0
  3 19  1  0  0  0  0
  4 15  1  0  0  0  0
  4 18  2  0  0  0  0
  5 19  1  0  0  0  0
  5 11  1  1  0  0  0
  8 16  1  0  0  0  0
  9 13  1  0  0  0  0
  9 25  1  0  0  0  0
 12 15  1  0  0  0  0
 12  8  1  0  0  0  0
 13 24  1  0  0  0  0
 14 25  1  0  0  0  0
 15  5  1  0  0  0  0
 16  3  1  0  0  0  0
 17 28  1  0  0  0  0
 17 10  1  0  0  0  0
 18 20  1  0  0  0  0
 19  6  1  0  0  0  0
 20 11  1  0  0  0  0
 20 13  1  0  0  0  0
 21 23  2  0  0  0  0
 21 26  1  0  0  0  0
 22 10  1  0  0  0  0
 23  4  1  0  0  0  0
 24 22  1  0  0  0  0
 25 17  1  0  0  0  0
 26  1  2  0  0  0  0
 27  9  1  0  0  0  0
 28 29  1  0  0  0  0
 29 32  1  0  0  0  0
 30 34  1  0  0  0  0
 31 33  1  0  0  0  0
 31 32  1  0  0  0  0
 32 34  1  0  0  0  0
 33 30  1  0  0  0  0
M  END
>  <MODEL>
5

>  <REMARK>
 VINA RESULT:      -7.7      2.255      4.315
  Name = 
  3 active torsions:
  status: ('A' for Active; 'I' for Inactive)
    1  A    between atoms: C_17  and  N_28
    2  A    between atoms: N_28  and  C_29
    3  A    between atoms: C_29  and  C_32
                            x       y       z     vdW  Elec       q    Type
                         _______ _______ _______ _____ _____    ______ ____

>  <TORSDO>
F 3

$$$$
=
 OpenBabel11122412043D

 34 40  0  0  1  0  0  0  0  0999 V2000
  188.6440  178.1100  138.8790 C   0  0  0  0  0  0  0  0  0  0  0  0
  190.6440  177.6410  140.4090 C   0  0  0  0  0  2  0  0  0  0  0  0
  182.2110  178.7430  137.2540 C   0  0  0  0  0  0  0  0  0  0  0  0
  186.6620  178.1440  137.4970 C   0  0  0  0  0  0  0  0  0  0  0  0
  184.3200  178.2580  138.6010 C   0  0  2  0  0  3  0  0  0  0  0  0
  182.8110  180.2340  139.1550 C   0  0  0  0  0  1  0  0  0  0  0  0
  181.2570  179.5230  136.9930 O   0  0  0  0  0  0  0  0  0  0  0  0
  183.3010  176.4860  136.6940 C   0  0  0  0  0  2  0  0  0  0  0  0
  188.4430  177.4880  141.2530 C   0  0  2  0  0  3  0  0  0  0  0  0
  187.8610  178.0560  144.3860 C   0  0  0  0  0  2  0  0  0  0  0  0
  185.1110  178.7380  139.8290 C   0  0  0  0  0  2  0  0  0  0  0  0
  184.7500  176.9190  136.4790 C   0  0  0  0  0  2  0  0  0  0  0  0
  187.0680  178.1520  141.3260 C   0  0  1  0  0  3  0  0  0  0  0  0
  190.7650  177.4490  141.9190 C   0  0  0  0  0  2  0  0  0  0  0  0
  185.1630  178.1400  137.3080 C   0  0  2  0  0  3  0  0  0  0  0  0
  182.3760  177.5790  136.4310 N   0  0  0  0  0  2  0  0  0  0  0  0
  189.0620  178.4640  143.5370 C   0  0  2  0  0  3  0  0  0  0  0  0
  187.2370  178.0630  138.7730 C   0  0  0  0  0  0  0  0  0  0  0  0
  183.1090  179.0550  138.3440 N   0  0  0  0  0  0  0  0  0  0  0  0
  186.3500  177.8750  139.9920 C   0  0  2  0  0  3  0  0  0  0  0  0
  188.8200  178.3160  136.5310 C   0  0  0  0  0  3  0  0  0  0  0  0
  186.5370  178.4380  143.7380 C   0  0  0  0  0  2  0  0  0  0  0  0
  187.4690  178.2660  136.4080 N   0  0  0  0  0  0  0  0  0  0  0  0
  186.2560  177.6120  142.4920 C   0  0  0  0  0  2  0  0  0  0  0  0
  189.3370  177.3750  142.4860 C   0  0  1  0  0  3  0  0  0  0  0  0
  189.3990  178.2550  137.7590 N   0  0  0  0  0  0  0  0  0  0  0  0
  189.2670  178.2250  140.2380 C   0  0  2  0  0  3  0  0  0  0  0  0
  190.2080  178.6270  144.4190 N   0  0  0  0  0  2  0  0  0  0  0  0
  189.9700  177.7860  145.5800 C   0  0  0  0  0  2  0  0  0  0  0  0
  191.8920  175.5650  147.7190 N   0  0  0  0  0  2  0  0  0  0  0  0
  191.7220  176.0380  145.3690 C   0  0  0  0  0  2  0  0  0  0  0  0
  191.2870  177.2630  146.1220 C   0  0  2  0  0  3  0  0  0  0  0  0
  192.4270  175.2050  146.4100 C   0  0  0  0  0  2  0  0  0  0  0  0
  191.1070  176.7830  147.5420 C   0  0  0  0  0  2  0  0  0  0  0  0
  1 27  1  0  0  0  0
  2 14  1  0  0  0  0
  3 19  1  0  0  0  0
  4 18  2  0  0  0  0
  5 11  1  1  0  0  0
  7  3  2  0  0  0  0
  9 13  1  0  0  0  0
  9 25  1  0  0  0  0
 11 20  1  0  0  0  0
 12  8  1  0  0  0  0
 12 15  1  0  0  0  0
 13 24  1  0  0  0  0
 14 25  1  0  0  0  0
 15  4  1  0  0  0  0
 15  5  1  0  0  0  0
 16  8  1  0  0  0  0
 16  3  1  0  0  0  0
 17 10  1  0  0  0  0
 17 28  1  0  0  0  0
 18  1  1  0  0  0  0
 18 20  1  0  0  0  0
 19  5  1  0  0  0  0
 19  6  1  0  0  0  0
 20 13  1  0  0  0  0
 21 26  1  0  0  0  0
 22 10  1  0  0  0  0
 23 21  2  0  0  0  0
 23  4  1  0  0  0  0
 24 22  1  0  0  0  0
 25 17  1  0  0  0  0
 26  1  2  0  0  0  0
 27  2  1  0  0  0  0
 27  9  1  0  0  0  0
 28 29  1  0  0  0  0
 29 32  1  0  0  0  0
 31 32  1  0  0  0  0
 31 33  1  0  0  0  0
 32 34  1  0  0  0  0
 33 30  1  0  0  0  0
 34 30  1  0  0  0  0
M  END
>  <MODEL>
6

>  <REMARK>
 VINA RESULT:      -7.0      2.591      4.974
  Name = 
  3 active torsions:
  status: ('A' for Active; 'I' for Inactive)
    1  A    between atoms: C_17  and  N_28
    2  A    between atoms: N_28  and  C_29
    3  A    between atoms: C_29  and  C_32
                            x       y       z     vdW  Elec       q    Type
                         _______ _______ _______ _____ _____    ______ ____

>  <TORSDO>
F 3

$$$$
=
 OpenBabel11122412043D

 34 40  0  0  1  0  0  0  0  0999 V2000
  189.1780  177.0680  138.7930 C   0  0  0  0  0  0  0  0  0  0  0  0
  188.0970  177.3500  136.4880 C   0  0  0  0  0  2  0  0  0  0  0  0
  189.7490  177.7570  145.3980 C   0  0  0  0  0  0  0  0  0  0  0  0
  190.2390  177.2240  140.9590 C   0  0  0  0  0  0  0  0  0  0  0  0
  188.8610  177.9820  143.0190 C   0  0  2  0  0  3  0  0  0  0  0  0
  187.6030  176.6520  144.7900 C   0  0  0  0  0  1  0  0  0  0  0  0
  189.6650  177.2120  146.5300 O   0  0  0  0  0  0  0  0  0  0  0  0
  191.0380  179.4580  143.9690 C   0  0  0  0  0  2  0  0  0  0  0  0
  187.0590  178.2620  138.4040 C   0  0  2  0  0  3  0  0  0  0  0  0
  183.8440  178.6170  138.4950 C   0  0  0  0  0  2  0  0  0  0  0  0
  187.6580  177.6170  142.1350 C   0  0  0  0  0  2  0  0  0  0  0  0
  191.3050  178.6270  142.7150 C   0  0  0  0  0  2  0  0  0  0  0  0
  186.6360  178.0130  139.8510 C   0  0  1  0  0  3  0  0  0  0  0  0
  186.7260  177.8550  136.0460 C   0  0  0  0  0  2  0  0  0  0  0  0
  190.2320  177.5710  142.4290 C   0  0  2  0  0  3  0  0  0  0  0  0
  190.8740  178.6110  145.1420 N   0  0  0  0  0  2  0  0  0  0  0  0
  184.6910  177.7250  137.5930 C   0  0  2  0  0  3  0  0  0  0  0  0
  189.1150  177.4510  140.1500 C   0  0  0  0  0  0  0  0  0  0  0  0
  188.7360  177.4890  144.4010 N   0  0  0  0  0  0  0  0  0  0  0  0
  187.8940  178.1430  140.7300 C   0  0  2  0  0  3  0  0  0  0  0  0
  191.3820  176.2770  139.1110 C   0  0  0  0  0  3  0  0  0  0  0  0
  184.1910  178.4500  139.9680 C   0  0  0  0  0  2  0  0  0  0  0  0
  191.3440  176.6440  140.4170 N   0  0  0  0  0  0  0  0  0  0  0  0
  185.5700  179.0030  140.2930 C   0  0  0  0  0  2  0  0  0  0  0  0
  186.0260  178.4260  137.2910 C   0  0  1  0  0  3  0  0  0  0  0  0
  190.3010  176.4740  138.3130 N   0  0  0  0  0  0  0  0  0  0  0  0
  187.9280  177.1190  137.9660 C   0  0  2  0  0  3  0  0  0  0  0  0
  183.9490  177.4830  136.3650 N   0  0  0  0  0  2  0  0  0  0  0  0
  183.4380  176.1250  136.4420 C   0  0  0  0  0  2  0  0  0  0  0  0
  184.5560  172.8650  137.5940 N   0  0  0  0  0  2  0  0  0  0  0  0
  185.2460  174.4900  135.9640 C   0  0  0  0  0  2  0  0  0  0  0  0
  184.4870  175.2080  137.0420 C   0  0  2  0  0  3  0  0  0  0  0  0
  185.5610  173.1470  136.5750 C   0  0  0  0  0  2  0  0  0  0  0  0
  183.8200  174.1040  137.8270 C   0  0  0  0  0  2  0  0  0  0  0  0
  1 18  1  0  0  0  0
  2 27  1  0  0  0  0
  3  7  2  0  0  0  0
  4 15  1  0  0  0  0
  5 11  1  6  0  0  0
  5 19  1  0  0  0  0
  8 16  1  0  0  0  0
  9 13  1  0  0  0  0
 10 22  1  0  0  0  0
 12  8  1  0  0  0  0
 13 24  1  0  0  0  0
 13 20  1  0  0  0  0
 14  2  1  0  0  0  0
 14 25  1  0  0  0  0
 15 12  1  0  0  0  0
 15  5  1  0  0  0  0
 16  3  1  0  0  0  0
 17 10  1  0  0  0  0
 18 20  1  0  0  0  0
 18  4  2  0  0  0  0
 19  6  1  0  0  0  0
 19  3  1  0  0  0  0
 20 11  1  0  0  0  0
 21 23  2  0  0  0  0
 22 24  1  0  0  0  0
 23  4  1  0  0  0  0
 25 17  1  0  0  0  0
 25  9  1  0  0  0  0
 26  1  2  0  0  0  0
 26 21  1  0  0  0  0
 27  9  1  0  0  0  0
 27  1  1  0  0  0  0
 28 29  1  0  0  0  0
 28 17  1  0  0  0  0
 29 32  1  0  0  0  0
 30 34  1  0  0  0  0
 31 33  1  0  0  0  0
 31 32  1  0  0  0  0
 32 34  1  0  0  0  0
 33 30  1  0  0  0  0
M  END
>  <MODEL>
7

>  <REMARK>
 VINA RESULT:      -7.0      4.022      9.544
  Name = 
  3 active torsions:
  status: ('A' for Active; 'I' for Inactive)
    1  A    between atoms: C_17  and  N_28
    2  A    between atoms: N_28  and  C_29
    3  A    between atoms: C_29  and  C_32
                            x       y       z     vdW  Elec       q    Type
                         _______ _______ _______ _____ _____    ______ ____

>  <TORSDO>
F 3

$$$$
=
 OpenBabel11122412043D

 34 40  0  0  1  0  0  0  0  0999 V2000
  187.4900  177.8740  140.1510 C   0  0  0  0  0  0  0  0  0  0  0  0
  185.4540  178.4830  138.7210 C   0  0  0  0  0  2  0  0  0  0  0  0
  191.1520  177.4650  145.7050 C   0  0  0  0  0  0  0  0  0  0  0  0
  189.4570  177.7190  141.5470 C   0  0  0  0  0  0  0  0  0  0  0  0
  189.2490  178.0410  144.1110 C   0  0  2  0  0  3  0  0  0  0  0  0
  188.9400  176.3630  146.0020 C   0  0  0  0  0  1  0  0  0  0  0  0
  191.5980  176.7320  146.6280 O   0  0  0  0  0  0  0  0  0  0  0  0
  191.6620  179.4520  144.1590 C   0  0  0  0  0  2  0  0  0  0  0  0
  185.4810  178.9980  141.0260 C   0  0  2  0  0  3  0  0  0  0  0  0
  182.7080  179.1560  142.6870 C   0  0  0  0  0  2  0  0  0  0  0  0
  187.7590  177.7650  143.8520 C   0  0  0  0  0  2  0  0  0  0  0  0
  191.2750  178.8610  142.8050 C   0  0  0  0  0  2  0  0  0  0  0  0
  185.7880  178.4850  142.4320 C   0  0  1  0  0  3  0  0  0  0  0  0
  184.0550  178.9780  139.0770 C   0  0  0  0  0  2  0  0  0  0  0  0
  190.1610  177.8110  142.8810 C   0  0  2  0  0  3  0  0  0  0  0  0
  192.0480  178.4110  145.1020 N   0  0  0  0  0  2  0  0  0  0  0  0
  182.9960  178.4770  141.3520 C   0  0  2  0  0  3  0  0  0  0  0  0
  188.0920  178.0180  141.4200 C   0  0  0  0  0  0  0  0  0  0  0  0
  189.7790  177.3150  145.2760 N   0  0  0  0  0  0  0  0  0  0  0  0
  187.3160  178.5340  142.6190 C   0  0  2  0  0  3  0  0  0  0  0  0
  189.5540  177.1630  139.2440 C   0  0  0  0  0  3  0  0  0  0  0  0
  183.7080  178.7600  143.7660 C   0  0  0  0  0  2  0  0  0  0  0  0
  190.1530  177.3010  140.4550 N   0  0  0  0  0  0  0  0  0  0  0  0
  185.0930  179.3260  143.4910 C   0  0  0  0  0  2  0  0  0  0  0  0
  184.0500  179.2920  140.5830 C   0  0  1  0  0  3  0  0  0  0  0  0
  188.2300  177.4330  139.1010 N   0  0  0  0  0  0  0  0  0  0  0  0
  186.0000  177.9950  140.0370 C   0  0  2  0  0  3  0  0  0  0  0  0
  181.7530  178.4060  140.6000 N   0  0  0  0  0  2  0  0  0  0  0  0
  180.6970  178.8650  141.4870 C   0  0  0  0  0  2  0  0  0  0  0  0
  178.9310  181.9610  140.7820 N   0  0  0  0  0  2  0  0  0  0  0  0
  180.3390  180.4250  139.5870 C   0  0  0  0  0  2  0  0  0  0  0  0
  179.6770  179.6730  140.7060 C   0  0  2  0  0  3  0  0  0  0  0  0
  179.5370  181.6980  139.4820 C   0  0  0  0  0  2  0  0  0  0  0  0
  179.0910  180.7520  141.5850 C   0  0  0  0  0  2  0  0  0  0  0  0
  1 18  1  0  0  0  0
  2 14  1  0  0  0  0
  2 27  1  0  0  0  0
  3  7  2  0  0  0  0
  4 15  1  0  0  0  0
  5 11  1  6  0  0  0
  5 19  1  0  0  0  0
  8 16  1  0  0  0  0
  9 13  1  0  0  0  0
 10 22  1  0  0  0  0
 12 15  1  0  0  0  0
 12  8  1  0  0  0  0
 13 20  1  0  0  0  0
 13 24  1  0  0  0  0
 14 25  1  0  0  0  0
 15  5  1  0  0  0  0
 16  3  1  0  0  0  0
 17 10  1  0  0  0  0
 18  4  2  0  0  0  0
 18 20  1  0  0  0  0
 19  3  1  0  0  0  0
 19  6  1  0  0  0  0
 20 11  1  0  0  0  0
 21 23  2  0  0  0  0
 23  4  1  0  0  0  0
 24 22  1  0  0  0  0
 25  9  1  0  0  0  0
 25 17  1  0  0  0  0
 26 21  1  0  0  0  0
 26  1  2  0  0  0  0
 27  1  1  0  0  0  0
 27  9  1  0  0  0  0
 28 17  1  0  0  0  0
 28 29  1  0  0  0  0
 30 34  1  0  0  0  0
 31 32  1  0  0  0  0
 32 29  1  0  0  0  0
 32 34  1  0  0  0  0
 33 31  1  0  0  0  0
 33 30  1  0  0  0  0
M  END
>  <MODEL>
8

>  <REMARK>
 VINA RESULT:      -6.9      3.419      9.446
  Name = 
  3 active torsions:
  status: ('A' for Active; 'I' for Inactive)
    1  A    between atoms: C_17  and  N_28
    2  A    between atoms: N_28  and  C_29
    3  A    between atoms: C_29  and  C_32
                            x       y       z     vdW  Elec       q    Type
                         _______ _______ _______ _____ _____    ______ ____

>  <TORSDO>
F 3

$$$$
=
 OpenBabel11122412043D

 34 40  0  0  1  0  0  0  0  0999 V2000
  187.4850  177.8230  139.9420 C   0  0  0  0  0  0  0  0  0  0  0  0
  185.5390  178.4310  138.3910 C   0  0  0  0  0  2  0  0  0  0  0  0
  190.8270  177.4650  145.6970 C   0  0  0  0  0  0  0  0  0  0  0  0
  189.3690  177.6690  141.4480 C   0  0  0  0  0  0  0  0  0  0  0  0
  189.0220  178.0360  143.9900 C   0  0  2  0  0  3  0  0  0  0  0  0
  188.5880  176.3930  145.8880 C   0  0  0  0  0  1  0  0  0  0  0  0
  191.2120  176.7420  146.6550 O   0  0  0  0  0  0  0  0  0  0  0  0
  191.4460  179.4200  144.1510 C   0  0  0  0  0  2  0  0  0  0  0  0
  185.4440  178.9840  140.6850 C   0  0  2  0  0  3  0  0  0  0  0  0
  182.5850  179.2010  142.1870 C   0  0  0  0  0  2  0  0  0  0  0  0
  187.5460  177.7720  143.6540 C   0  0  0  0  0  2  0  0  0  0  0  0
  191.1280  178.8110  142.7870 C   0  0  0  0  0  2  0  0  0  0  0  0
  185.6660  178.4910  142.1150 C   0  0  1  0  0  3  0  0  0  0  0  0
  184.1280  178.9480  138.6600 C   0  0  0  0  0  2  0  0  0  0  0  0
  189.9990  177.7750  142.8170 C   0  0  2  0  0  3  0  0  0  0  0  0
  191.7660  178.3900  145.1300 N   0  0  0  0  0  2  0  0  0  0  0  0
  182.9380  178.4960  140.8800 C   0  0  2  0  0  3  0  0  0  0  0  0
  188.0170  177.9820  141.2400 C   0  0  0  0  0  0  0  0  0  0  0  0
  189.4780  177.3230  145.1950 N   0  0  0  0  0  0  0  0  0  0  0  0
  187.1820  178.5250  142.3850 C   0  0  2  0  0  3  0  0  0  0  0  0
  189.5870  177.0740  139.1630 C   0  0  0  0  0  3  0  0  0  0  0  0
  183.5180  178.8120  143.3260 C   0  0  0  0  0  2  0  0  0  0  0  0
  190.1190  177.2250  140.4030 N   0  0  0  0  0  0  0  0  0  0  0  0
  184.9230  179.3570  143.1190 C   0  0  0  0  0  2  0  0  0  0  0  0
  184.0430  179.2870  140.1580 C   0  0  1  0  0  3  0  0  0  0  0  0
  188.2760  177.3560  138.9420 N   0  0  0  0  0  0  0  0  0  0  0  0
  186.0040  177.9600  139.7430 C   0  0  2  0  0  3  0  0  0  0  0  0
  181.7380  178.4280  140.0610 N   0  0  0  0  0  2  0  0  0  0  0  0
  181.1100  177.1460  140.3390 C   0  0  0  0  0  2  0  0  0  0  0  0
  182.0060  176.5400  136.8700 N   0  0  0  0  0  2  0  0  0  0  0  0
  182.5930  175.6490  139.0230 C   0  0  0  0  0  2  0  0  0  0  0  0
  181.2170  176.2420  139.1260 C   0  0  2  0  0  3  0  0  0  0  0  0
  182.8290  175.5380  137.5380 C   0  0  0  0  0  2  0  0  0  0  0  0
  181.0650  177.0530  137.8620 C   0  0  0  0  0  2  0  0  0  0  0  0
  1 18  1  0  0  0  0
  2 14  1  0  0  0  0
  2 27  1  0  0  0  0
  3  7  2  0  0  0  0
  4 15  1  0  0  0  0
  5 11  1  6  0  0  0
  5 19  1  0  0  0  0
  8 16  1  0  0  0  0
  9 13  1  0  0  0  0
 10 22  1  0  0  0  0
 12 15  1  0  0  0  0
 12  8  1  0  0  0  0
 13 20  1  0  0  0  0
 13 24  1  0  0  0  0
 14 25  1  0  0  0  0
 15  5  1  0  0  0  0
 16  3  1  0  0  0  0
 17 10  1  0  0  0  0
 18  4  2  0  0  0  0
 18 20  1  0  0  0  0
 19  3  1  0  0  0  0
 19  6  1  0  0  0  0
 20 11  1  0  0  0  0
 21 23  2  0  0  0  0
 23  4  1  0  0  0  0
 24 22  1  0  0  0  0
 25  9  1  0  0  0  0
 25 17  1  0  0  0  0
 26 21  1  0  0  0  0
 26  1  2  0  0  0  0
 27  1  1  0  0  0  0
 27  9  1  0  0  0  0
 28 29  1  0  0  0  0
 28 17  1  0  0  0  0
 30 33  1  0  0  0  0
 30 34  1  0  0  0  0
 31 32  1  0  0  0  0
 32 29  1  0  0  0  0
 33 31  1  0  0  0  0
 34 32  1  0  0  0  0
M  END
>  <MODEL>
9

>  <REMARK>
 VINA RESULT:      -6.9      3.417      9.160
  Name = 
  3 active torsions:
  status: ('A' for Active; 'I' for Inactive)
    1  A    between atoms: C_17  and  N_28
    2  A    between atoms: N_28  and  C_29
    3  A    between atoms: C_29  and  C_32
                            x       y       z     vdW  Elec       q    Type
                         _______ _______ _______ _____ _____    ______ ____

>  <TORSDO>
F 3

$$$$
