=
 OpenBabel11122410293D

 30 35  0  0  1  0  0  0  0  0999 V2000
  186.7470  178.0380  144.8900 C   0  0  0  0  0  0  0  0  0  0  0  0
  184.3410  178.6640  145.2520 C   0  0  0  0  0  0  0  0  0  0  0  0
  186.3250  178.3970  140.8090 N   0  0  0  0  0  2  0  0  0  0  0  0
  187.8300  177.8230  143.9900 C   0  0  0  0  0  0  0  0  0  0  0  0
  187.0310  177.9580  146.3670 C   0  0  0  0  0  2  0  0  0  0  0  0
  190.3420  176.4950  146.2610 O   0  0  0  0  0  0  0  0  0  0  0  0
  190.5060  176.7990  142.6360 C   0  0  1  0  0  3  0  0  0  0  0  0
  189.2380  176.9450  145.8450 C   0  0  0  0  0  0  0  0  0  0  0  0
  189.7180  177.1360  141.3800 C   0  0  2  0  0  3  0  0  0  0  0  0
  187.5770  178.0250  140.4760 C   0  0  0  0  0  0  0  0  0  0  0  0
  188.0050  176.8300  146.6980 C   0  0  1  0  0  3  0  0  0  0  0  0
  189.1310  177.5040  144.5250 N   0  0  0  0  0  0  0  0  0  0  0  0
  183.1110  179.0460  144.7090 C   0  0  0  0  0  3  0  0  0  0  0  0
  190.6500  177.9690  140.5230 C   0  0  0  0  0  2  0  0  0  0  0  0
  191.9600  176.7620  142.1910 C   0  0  0  0  0  2  0  0  0  0  0  0
  184.4190  178.5220  146.6330 O   0  0  0  0  0  1  0  0  0  0  0  0
  186.3470  178.3430  142.1510 C   0  0  0  0  0  0  0  0  0  0  0  0
  182.9540  179.1970  143.3330 C   0  0  0  0  0  3  0  0  0  0  0  0
  185.4570  178.4250  144.4030 C   0  0  0  0  0  0  0  0  0  0  0  0
  187.5820  177.9580  142.6080 C   0  0  0  0  0  0  0  0  0  0  0  0
  187.9440  177.9080  139.2750 O   0  0  0  0  0  0  0  0  0  0  0  0
  188.3880  177.7560  141.5330 N   0  0  0  0  0  0  0  0  0  0  0  0
  192.0370  177.4440  140.8320 C   0  0  0  0  0  2  0  0  0  0  0  0
  190.4890  179.2560  143.4310 C   0  0  0  0  0  1  0  0  0  0  0  0
  184.0300  178.9660  142.4820 C   0  0  0  0  0  3  0  0  0  0  0  0
  185.2720  178.5840  143.0010 C   0  0  0  0  0  0  0  0  0  0  0  0
  190.3560  177.7770  143.7900 C   0  0  2  0  0  3  0  0  0  0  0  0
  188.3050  176.7900  148.2000 C   0  0  0  0  0  2  0  0  0  0  0  0
  189.6830  178.7090  148.8450 C   0  0  0  0  0  2  0  0  0  0  0  0
  188.4750  178.1560  148.7890 C   0  0  0  0  0  3  0  0  0  0  0  0
  1  5  1  0  0  0  0
  2 16  1  0  0  0  0
  3 17  1  0  0  0  0
  4 12  1  0  0  0  0
  4  1  2  0  0  0  0
  5 11  1  0  0  0  0
  7 15  1  6  0  0  0
  7 27  1  0  0  0  0
  8  6  2  0  0  0  0
  8 11  1  0  0  0  0
  9 14  1  6  0  0  0
  9 22  1  0  0  0  0
  9  7  1  0  0  0  0
 10  3  1  0  0  0  0
 10 22  1  0  0  0  0
 11 28  1  1  0  0  0
 12  8  1  0  0  0  0
 13  2  1  0  0  0  0
 14 23  1  0  0  0  0
 17 20  2  0  0  0  0
 17 26  1  0  0  0  0
 18 13  2  0  0  0  0
 19  1  1  0  0  0  0
 19  2  2  0  0  0  0
 20  4  1  0  0  0  0
 21 10  2  0  0  0  0
 22 20  1  0  0  0  0
 23 15  1  0  0  0  0
 25 26  2  0  0  0  0
 25 18  1  0  0  0  0
 26 19  1  0  0  0  0
 27 24  1  6  0  0  0
 27 12  1  0  0  0  0
 28 30  1  0  0  0  0
 30 29  2  0  0  0  0
M  END
>  <MODEL>
1

>  <REMARK>
 VINA RESULT:     -10.0      0.000      0.000
  Name = 
  2 active torsions:
  status: ('A' for Active; 'I' for Inactive)
    1  A    between atoms: C_11  and  C_28
    2  A    between atoms: C_28  and  C_30
                            x       y       z     vdW  Elec       q    Type
                         _______ _______ _______ _____ _____    ______ ____

>  <TORSDO>
F 2

$$$$
=
 OpenBabel11122410293D

 30 35  0  0  1  0  0  0  0  0999 V2000
  186.3920  178.1700  141.9960 C   0  0  0  0  0  0  0  0  0  0  0  0
  183.9510  178.6430  141.6340 C   0  0  0  0  0  0  0  0  0  0  0  0
  185.9060  178.2890  146.0840 N   0  0  0  0  0  2  0  0  0  0  0  0
  187.4700  177.9440  142.8980 C   0  0  0  0  0  0  0  0  0  0  0  0
  186.6640  178.0250  140.5220 C   0  0  0  0  0  2  0  0  0  0  0  0
  190.2820  177.8880  140.5910 O   0  0  0  0  0  0  0  0  0  0  0  0
  190.3410  177.7720  144.2300 C   0  0  1  0  0  3  0  0  0  0  0  0
  189.0980  177.9960  141.0160 C   0  0  0  0  0  0  0  0  0  0  0  0
  189.5010  177.8940  145.4920 C   0  0  2  0  0  3  0  0  0  0  0  0
  187.1990  178.0940  146.4140 C   0  0  0  0  0  0  0  0  0  0  0  0
  188.0300  178.5870  140.1370 C   0  0  1  0  0  3  0  0  0  0  0  0
  188.7730  177.6250  142.3660 N   0  0  0  0  0  0  0  0  0  0  0  0
  182.6850  178.8740  142.1800 C   0  0  0  0  0  3  0  0  0  0  0  0
  189.9830  176.7920  146.4130 C   0  0  0  0  0  2  0  0  0  0  0  0
  191.6690  177.1950  144.6950 C   0  0  0  0  0  2  0  0  0  0  0  0
  184.0660  178.6490  140.2490 O   0  0  0  0  0  1  0  0  0  0  0  0
  185.9330  178.2440  144.7410 C   0  0  0  0  0  0  0  0  0  0  0  0
  182.4950  178.8940  143.5590 C   0  0  0  0  0  3  0  0  0  0  0  0
  185.0690  178.4200  142.4850 C   0  0  0  0  0  0  0  0  0  0  0  0
  187.2060  178.0180  144.2820 C   0  0  0  0  0  0  0  0  0  0  0  0
  187.5950  178.1130  147.6110 O   0  0  0  0  0  0  0  0  0  0  0  0
  188.0320  177.9130  145.3560 N   0  0  0  0  0  0  0  0  0  0  0  0
  191.4560  176.6350  146.0950 C   0  0  0  0  0  2  0  0  0  0  0  0
  189.2370  175.5270  143.5880 C   0  0  0  0  0  1  0  0  0  0  0  0
  183.5740  178.6820  144.4120 C   0  0  0  0  0  3  0  0  0  0  0  0
  184.8510  178.4470  143.8900 C   0  0  0  0  0  0  0  0  0  0  0  0
  189.7620  176.8890  143.1360 C   0  0  2  0  0  3  0  0  0  0  0  0
  188.2990  178.3970  138.6410 C   0  0  0  0  0  2  0  0  0  0  0  0
  186.8070  178.1520  136.7140 C   0  0  0  0  0  2  0  0  0  0  0  0
  187.1540  177.7430  137.9300 C   0  0  0  0  0  3  0  0  0  0  0  0
  1 19  2  0  0  0  0
  1  4  1  0  0  0  0
  2 13  2  0  0  0  0
  2 19  1  0  0  0  0
  3 10  1  0  0  0  0
  4 20  2  0  0  0  0
  5  1  1  0  0  0  0
  6  8  2  0  0  0  0
  7 15  1  1  0  0  0
  7  9  1  0  0  0  0
  8 12  1  0  0  0  0
  9 14  1  1  0  0  0
 10 21  2  0  0  0  0
 11 28  1  6  0  0  0
 11  5  1  0  0  0  0
 11  8  1  0  0  0  0
 12  4  1  0  0  0  0
 12 27  1  0  0  0  0
 13 18  1  0  0  0  0
 15 23  1  0  0  0  0
 16  2  1  0  0  0  0
 17  3  1  0  0  0  0
 18 25  2  0  0  0  0
 19 26  1  0  0  0  0
 20 17  1  0  0  0  0
 20 22  1  0  0  0  0
 22  9  1  0  0  0  0
 22 10  1  0  0  0  0
 23 14  1  0  0  0  0
 26 25  1  0  0  0  0
 26 17  2  0  0  0  0
 27 24  1  1  0  0  0
 27  7  1  0  0  0  0
 29 30  2  0  0  0  0
 30 28  1  0  0  0  0
M  END
>  <MODEL>
2

>  <REMARK>
 VINA RESULT:      -9.5      1.824      5.356
  Name = 
  2 active torsions:
  status: ('A' for Active; 'I' for Inactive)
    1  A    between atoms: C_11  and  C_28
    2  A    between atoms: C_28  and  C_30
                            x       y       z     vdW  Elec       q    Type
                         _______ _______ _______ _____ _____    ______ ____

>  <TORSDO>
F 2

$$$$
=
 OpenBabel11122410293D

 30 35  0  0  1  0  0  0  0  0999 V2000
  189.5990  177.6130  142.3130 C   0  0  0  0  0  0  0  0  0  0  0  0
  191.0850  177.2040  140.3290 C   0  0  0  0  0  0  0  0  0  0  0  0
  186.4470  178.6280  139.8630 N   0  0  0  0  0  2  0  0  0  0  0  0
  188.3190  177.9700  142.8260 C   0  0  0  0  0  0  0  0  0  0  0  0
  190.6570  177.1830  143.2940 C   0  0  0  0  0  2  0  0  0  0  0  0
  189.0530  178.1870  146.3820 O   0  0  0  0  0  0  0  0  0  0  0  0
  185.9610  179.0370  144.6550 C   0  0  1  0  0  3  0  0  0  0  0  0
  189.2300  178.0320  145.1410 C   0  0  0  0  0  0  0  0  0  0  0  0
  185.3060  179.2160  143.2960 C   0  0  2  0  0  3  0  0  0  0  0  0
  185.5660  178.9310  140.8380 C   0  0  0  0  0  0  0  0  0  0  0  0
  190.6210  178.0190  144.5710 C   0  0  1  0  0  3  0  0  0  0  0  0
  188.1040  177.9400  144.2520 N   0  0  0  0  0  0  0  0  0  0  0  0
  191.2410  177.1680  138.9390 C   0  0  0  0  0  3  0  0  0  0  0  0
  183.9310  178.5930  143.4190 C   0  0  0  0  0  2  0  0  0  0  0  0
  184.8120  179.0360  145.6500 C   0  0  0  0  0  2  0  0  0  0  0  0
  192.1910  176.8880  141.1090 O   0  0  0  0  0  1  0  0  0  0  0  0
  187.5350  178.2480  140.5550 C   0  0  0  0  0  0  0  0  0  0  0  0
  190.1800  177.4840  138.0940 C   0  0  0  0  0  3  0  0  0  0  0  0
  189.8320  177.5620  140.9010 C   0  0  0  0  0  0  0  0  0  0  0  0
  187.3060  178.3140  141.9060 C   0  0  0  0  0  0  0  0  0  0  0  0
  184.4150  179.3780  140.5840 O   0  0  0  0  0  0  0  0  0  0  0  0
  186.0330  178.7480  142.1010 N   0  0  0  0  0  0  0  0  0  0  0  0
  183.5280  178.8180  144.8610 C   0  0  0  0  0  2  0  0  0  0  0  0
  186.1160  176.4760  144.3590 C   0  0  0  0  0  1  0  0  0  0  0  0
  188.9470  177.8410  138.6300 C   0  0  0  0  0  3  0  0  0  0  0  0
  188.7650  177.8820  140.0160 C   0  0  0  0  0  0  0  0  0  0  0  0
  186.7810  177.7680  144.8300 C   0  0  2  0  0  3  0  0  0  0  0  0
  191.6830  177.5420  145.5670 C   0  0  0  0  0  2  0  0  0  0  0  0
  192.0550  175.5220  146.9020 C   0  0  0  0  0  2  0  0  0  0  0  0
  191.6780  176.0550  145.7430 C   0  0  0  0  0  3  0  0  0  0  0  0
  1  4  1  0  0  0  0
  1  5  1  0  0  0  0
  2 19  1  0  0  0  0
  2 16  1  0  0  0  0
  3 17  1  0  0  0  0
  3 10  1  0  0  0  0
  4 12  1  0  0  0  0
  5 11  1  0  0  0  0
  7 27  1  0  0  0  0
  7 15  1  1  0  0  0
  8  6  2  0  0  0  0
  9 14  1  1  0  0  0
  9  7  1  0  0  0  0
 10 22  1  0  0  0  0
 11  8  1  0  0  0  0
 11 28  1  1  0  0  0
 12 27  1  0  0  0  0
 12  8  1  0  0  0  0
 13  2  2  0  0  0  0
 14 23  1  0  0  0  0
 17 20  1  0  0  0  0
 18 25  2  0  0  0  0
 18 13  1  0  0  0  0
 19  1  2  0  0  0  0
 20 22  1  0  0  0  0
 20  4  2  0  0  0  0
 21 10  2  0  0  0  0
 22  9  1  0  0  0  0
 23 15  1  0  0  0  0
 25 26  1  0  0  0  0
 26 17  2  0  0  0  0
 26 19  1  0  0  0  0
 27 24  1  6  0  0  0
 28 30  1  0  0  0  0
 30 29  2  0  0  0  0
M  END
>  <MODEL>
3

>  <REMARK>
 VINA RESULT:      -9.0      1.987      5.516
  Name = 
  2 active torsions:
  status: ('A' for Active; 'I' for Inactive)
    1  A    between atoms: C_11  and  C_28
    2  A    between atoms: C_28  and  C_30
                            x       y       z     vdW  Elec       q    Type
                         _______ _______ _______ _____ _____    ______ ____

>  <TORSDO>
F 2

$$$$
=
 OpenBabel11122410293D

 30 35  0  0  1  0  0  0  0  0999 V2000
  188.0740  177.7890  142.4050 C   0  0  0  0  0  0  0  0  0  0  0  0
  188.6870  177.4240  144.8140 C   0  0  0  0  0  0  0  0  0  0  0  0
  191.9550  177.0910  141.2140 N   0  0  0  0  0  2  0  0  0  0  0  0
  188.4680  177.8190  141.0370 C   0  0  0  0  0  0  0  0  0  0  0  0
  186.6140  177.9810  142.7230 C   0  0  0  0  0  2  0  0  0  0  0  0
  185.4420  179.1160  139.4900 O   0  0  0  0  0  0  0  0  0  0  0  0
  188.6710  178.4620  137.9400 C   0  0  1  0  0  3  0  0  0  0  0  0
  186.2470  178.7330  140.3850 C   0  0  0  0  0  0  0  0  0  0  0  0
  190.1200  178.0830  138.1990 C   0  0  2  0  0  3  0  0  0  0  0  0
  191.7700  177.3140  139.8960 C   0  0  0  0  0  0  0  0  0  0  0  0
  185.9720  179.0400  141.8310 C   0  0  1  0  0  3  0  0  0  0  0  0
  187.4680  178.0660  140.0260 N   0  0  0  0  0  0  0  0  0  0  0  0
  189.6630  177.1070  145.7640 C   0  0  0  0  0  3  0  0  0  0  0  0
  190.4850  177.0920  137.1130 C   0  0  0  0  0  2  0  0  0  0  0  0
  188.4900  178.3240  136.4360 C   0  0  0  0  0  2  0  0  0  0  0  0
  187.4020  177.6860  145.2740 O   0  0  0  0  0  1  0  0  0  0  0  0
  190.7220  177.2680  141.7190 C   0  0  0  0  0  0  0  0  0  0  0  0
  190.9750  176.8440  145.3790 C   0  0  0  0  0  3  0  0  0  0  0  0
  189.0220  177.4790  143.4320 C   0  0  0  0  0  0  0  0  0  0  0  0
  189.8240  177.5790  140.7300 C   0  0  0  0  0  0  0  0  0  0  0  0
  192.7230  177.2840  139.0720 O   0  0  0  0  0  0  0  0  0  0  0  0
  190.4890  177.6050  139.5450 N   0  0  0  0  0  0  0  0  0  0  0  0
  189.6670  177.5140  135.9100 C   0  0  0  0  0  2  0  0  0  0  0  0
  187.8330  176.1020  138.5700 C   0  0  0  0  0  1  0  0  0  0  0  0
  191.3280  176.8950  144.0340 C   0  0  0  0  0  3  0  0  0  0  0  0
  190.3690  177.2070  143.0640 C   0  0  0  0  0  0  0  0  0  0  0  0
  187.6300  177.6140  138.6540 C   0  0  2  0  0  3  0  0  0  0  0  0
  184.4820  179.1930  142.1490 C   0  0  0  0  0  2  0  0  0  0  0  0
  183.5690  179.2330  144.4210 C   0  0  0  0  0  2  0  0  0  0  0  0
  184.0950  178.5200  143.4300 C   0  0  0  0  0  3  0  0  0  0  0  0
  1  5  1  0  0  0  0
  1 19  1  0  0  0  0
  2 16  1  0  0  0  0
  2 13  1  0  0  0  0
  3 17  1  0  0  0  0
  4  1  2  0  0  0  0
  6  8  2  0  0  0  0
  7 15  1  6  0  0  0
  7  9  1  0  0  0  0
  7 27  1  0  0  0  0
  8 11  1  0  0  0  0
  9 14  1  6  0  0  0
  9 22  1  0  0  0  0
 10  3  1  0  0  0  0
 11 28  1  6  0  0  0
 11  5  1  0  0  0  0
 12  8  1  0  0  0  0
 12  4  1  0  0  0  0
 17 26  1  0  0  0  0
 18 13  2  0  0  0  0
 19  2  2  0  0  0  0
 20  4  1  0  0  0  0
 20 17  2  0  0  0  0
 21 10  2  0  0  0  0
 22 10  1  0  0  0  0
 22 20  1  0  0  0  0
 23 15  1  0  0  0  0
 23 14  1  0  0  0  0
 25 18  1  0  0  0  0
 26 19  1  0  0  0  0
 26 25  2  0  0  0  0
 27 24  1  1  0  0  0
 27 12  1  0  0  0  0
 28 30  1  0  0  0  0
 30 29  2  0  0  0  0
M  END
>  <MODEL>
4

>  <REMARK>
 VINA RESULT:      -8.7      2.315      5.599
  Name = 
  2 active torsions:
  status: ('A' for Active; 'I' for Inactive)
    1  A    between atoms: C_11  and  C_28
    2  A    between atoms: C_28  and  C_30
                            x       y       z     vdW  Elec       q    Type
                         _______ _______ _______ _____ _____    ______ ____

>  <TORSDO>
F 2

$$$$
=
 OpenBabel11122410293D

 30 35  0  0  1  0  0  0  0  0999 V2000
  189.1020  177.6080  143.4810 C   0  0  0  0  0  0  0  0  0  0  0  0
  191.1630  177.0190  144.7920 C   0  0  0  0  0  0  0  0  0  0  0  0
  186.8110  177.6140  146.9050 N   0  0  0  0  0  2  0  0  0  0  0  0
  187.7100  177.9110  143.4670 C   0  0  0  0  0  0  0  0  0  0  0  0
  189.8600  177.7120  142.1840 C   0  0  0  0  0  2  0  0  0  0  0  0
  187.0770  178.0040  139.8860 O   0  0  0  0  0  0  0  0  0  0  0  0
  184.6770  178.2530  142.6140 C   0  0  1  0  0  3  0  0  0  0  0  0
  187.6940  177.8610  140.9780 C   0  0  0  0  0  0  0  0  0  0  0  0
  184.4890  178.1400  144.1180 C   0  0  2  0  0  3  0  0  0  0  0  0
  185.6270  177.8750  146.3150 C   0  0  0  0  0  0  0  0  0  0  0  0
  189.0410  177.1950  141.0040 C   0  0  1  0  0  3  0  0  0  0  0  0
  187.0850  178.2660  142.2160 N   0  0  0  0  0  0  0  0  0  0  0  0
  191.7560  176.7540  146.0300 C   0  0  0  0  0  3  0  0  0  0  0  0
  183.5860  179.2930  144.5050 C   0  0  0  0  0  2  0  0  0  0  0  0
  183.4000  178.9020  142.1040 C   0  0  0  0  0  2  0  0  0  0  0  0
  191.9740  176.9690  143.6650 O   0  0  0  0  0  1  0  0  0  0  0  0
  187.6650  177.6120  145.8660 C   0  0  0  0  0  0  0  0  0  0  0  0
  191.0040  176.7750  147.2020 C   0  0  0  0  0  3  0  0  0  0  0  0
  189.7740  177.3200  144.7120 C   0  0  0  0  0  0  0  0  0  0  0  0
  187.0090  177.8750  144.6900 C   0  0  0  0  0  0  0  0  0  0  0  0
  184.5490  177.9160  146.9670 O   0  0  0  0  0  0  0  0  0  0  0  0
  185.6910  178.0540  144.9690 N   0  0  0  0  0  0  0  0  0  0  0  0
  182.6840  179.5010  143.3070 C   0  0  0  0  0  2  0  0  0  0  0  0
  186.0560  180.4240  142.8440 C   0  0  0  0  0  1  0  0  0  0  0  0
  189.6440  177.0630  147.1490 C   0  0  0  0  0  3  0  0  0  0  0  0
  189.0270  177.3340  145.9230 C   0  0  0  0  0  0  0  0  0  0  0  0
  185.8760  179.0710  142.1580 C   0  0  2  0  0  3  0  0  0  0  0  0
  189.8190  177.3430  139.6920 C   0  0  0  0  0  2  0  0  0  0  0  0
  192.0330  176.7370  138.8370 C   0  0  0  0  0  2  0  0  0  0  0  0
  191.2900  177.1270  139.8690 C   0  0  0  0  0  3  0  0  0  0  0  0
  1 19  1  0  0  0  0
  2 13  1  0  0  0  0
  4  1  2  0  0  0  0
  4 20  1  0  0  0  0
  5  1  1  0  0  0  0
  6  8  2  0  0  0  0
  7 15  1  6  0  0  0
  7  9  1  0  0  0  0
  8 11  1  0  0  0  0
  8 12  1  0  0  0  0
  9 14  1  1  0  0  0
  9 22  1  0  0  0  0
 10  3  1  0  0  0  0
 10 21  2  0  0  0  0
 11 28  1  6  0  0  0
 11  5  1  0  0  0  0
 12  4  1  0  0  0  0
 13 18  2  0  0  0  0
 15 23  1  0  0  0  0
 16  2  1  0  0  0  0
 17 26  1  0  0  0  0
 17  3  1  0  0  0  0
 19  2  2  0  0  0  0
 19 26  1  0  0  0  0
 20 22  1  0  0  0  0
 20 17  2  0  0  0  0
 22 10  1  0  0  0  0
 23 14  1  0  0  0  0
 25 18  1  0  0  0  0
 26 25  2  0  0  0  0
 27 12  1  0  0  0  0
 27  7  1  0  0  0  0
 27 24  1  1  0  0  0
 28 30  1  0  0  0  0
 29 30  2  0  0  0  0
M  END
>  <MODEL>
5

>  <REMARK>
 VINA RESULT:      -8.7      1.595      6.744
  Name = 
  2 active torsions:
  status: ('A' for Active; 'I' for Inactive)
    1  A    between atoms: C_11  and  C_28
    2  A    between atoms: C_28  and  C_30
                            x       y       z     vdW  Elec       q    Type
                         _______ _______ _______ _____ _____    ______ ____

>  <TORSDO>
F 2

$$$$
=
 OpenBabel11122410293D

 30 35  0  0  1  0  0  0  0  0999 V2000
  186.4320  178.0690  142.8290 C   0  0  0  0  0  0  0  0  0  0  0  0
  188.7460  177.5060  143.6290 C   0  0  0  0  0  0  0  0  0  0  0  0
  187.7230  178.2530  138.9220 N   0  0  0  0  0  2  0  0  0  0  0  0
  185.5490  178.3510  141.7470 C   0  0  0  0  0  0  0  0  0  0  0  0
  185.8400  177.9470  144.2090 C   0  0  0  0  0  2  0  0  0  0  0  0
  182.5310  179.2670  143.5590 O   0  0  0  0  0  0  0  0  0  0  0  0
  183.1520  179.4230  139.9740 C   0  0  1  0  0  3  0  0  0  0  0  0
  183.7260  178.9220  143.3430 C   0  0  0  0  0  0  0  0  0  0  0  0
  184.2060  179.2830  138.8880 C   0  0  2  0  0  3  0  0  0  0  0  0
  186.5450  178.6100  138.3720 C   0  0  0  0  0  0  0  0  0  0  0  0
  184.7420  178.9800  144.4500 C   0  0  1  0  0  3  0  0  0  0  0  0
  184.1450  178.5420  142.0220 N   0  0  0  0  0  0  0  0  0  0  0  0
  190.0870  177.2500  143.3230 C   0  0  0  0  0  3  0  0  0  0  0  0
  183.5340  178.5270  137.7600 C   0  0  0  0  0  2  0  0  0  0  0  0
  181.8240  179.4540  139.2330 C   0  0  0  0  0  2  0  0  0  0  0  0
  188.3720  177.4670  144.9660 O   0  0  0  0  0  1  0  0  0  0  0  0
  187.4170  178.1340  140.2250 C   0  0  0  0  0  0  0  0  0  0  0  0
  190.5380  177.2830  142.0060 C   0  0  0  0  0  3  0  0  0  0  0  0
  187.8190  177.8030  142.5910 C   0  0  0  0  0  0  0  0  0  0  0  0
  186.0890  178.4040  140.4450 C   0  0  0  0  0  0  0  0  0  0  0  0
  186.4310  178.8640  137.1420 O   0  0  0  0  0  0  0  0  0  0  0  0
  185.5140  178.7070  139.2520 N   0  0  0  0  0  0  0  0  0  0  0  0
  182.0800  178.9480  137.8200 C   0  0  0  0  0  2  0  0  0  0  0  0
  183.1720  176.8870  140.4650 C   0  0  0  0  0  1  0  0  0  0  0  0
  189.6500  177.5740  140.9750 C   0  0  0  0  0  3  0  0  0  0  0  0
  188.3040  177.8330  141.2540 C   0  0  0  0  0  0  0  0  0  0  0  0
  183.1240  178.3130  141.0130 C   0  0  2  0  0  3  0  0  0  0  0  0
  184.1320  178.8150  145.8450 C   0  0  0  0  0  2  0  0  0  0  0  0
  186.0580  179.0280  147.3430 C   0  0  0  0  0  2  0  0  0  0  0  0
  185.1050  178.2530  146.8350 C   0  0  0  0  0  3  0  0  0  0  0  0
  1  5  1  0  0  0  0
  2 16  1  0  0  0  0
  3 17  1  0  0  0  0
  4 12  1  0  0  0  0
  4  1  2  0  0  0  0
  5 11  1  0  0  0  0
  7 15  1  6  0  0  0
  7 27  1  0  0  0  0
  8  6  2  0  0  0  0
  8 11  1  0  0  0  0
  9 14  1  6  0  0  0
  9 22  1  0  0  0  0
  9  7  1  0  0  0  0
 10  3  1  0  0  0  0
 10 22  1  0  0  0  0
 11 28  1  1  0  0  0
 12  8  1  0  0  0  0
 13  2  1  0  0  0  0
 14 23  1  0  0  0  0
 17 20  2  0  0  0  0
 17 26  1  0  0  0  0
 18 13  2  0  0  0  0
 19  1  1  0  0  0  0
 19  2  2  0  0  0  0
 20  4  1  0  0  0  0
 21 10  2  0  0  0  0
 22 20  1  0  0  0  0
 23 15  1  0  0  0  0
 25 26  2  0  0  0  0
 25 18  1  0  0  0  0
 26 19  1  0  0  0  0
 27 24  1  6  0  0  0
 27 12  1  0  0  0  0
 28 30  1  0  0  0  0
 30 29  2  0  0  0  0
M  END
>  <MODEL>
6

>  <REMARK>
 VINA RESULT:      -8.7      2.322      5.877
  Name = 
  2 active torsions:
  status: ('A' for Active; 'I' for Inactive)
    1  A    between atoms: C_11  and  C_28
    2  A    between atoms: C_28  and  C_30
                            x       y       z     vdW  Elec       q    Type
                         _______ _______ _______ _____ _____    ______ ____

>  <TORSDO>
F 2

$$$$
=
 OpenBabel11122410293D

 30 35  0  0  1  0  0  0  0  0999 V2000
  187.6000  177.7890  142.7440 C   0  0  0  0  0  0  0  0  0  0  0  0
  186.3900  178.3030  144.8850 C   0  0  0  0  0  0  0  0  0  0  0  0
  184.3250  178.9160  140.5130 N   0  0  0  0  0  2  0  0  0  0  0  0
  187.6020  177.7640  141.3200 C   0  0  0  0  0  0  0  0  0  0  0  0
  188.8770  177.4320  143.4580 C   0  0  0  0  0  2  0  0  0  0  0  0
  190.7520  176.0600  140.6810 O   0  0  0  0  0  0  0  0  0  0  0  0
  188.1920  177.0520  138.2880 C   0  0  1  0  0  3  0  0  0  0  0  0
  189.7840  176.5660  141.3140 C   0  0  0  0  0  0  0  0  0  0  0  0
  186.7880  177.6130  138.1310 C   0  0  2  0  0  3  0  0  0  0  0  0
  184.8410  178.6300  139.3000 C   0  0  0  0  0  0  0  0  0  0  0  0
  189.6030  176.2740  142.7780 C   0  0  1  0  0  3  0  0  0  0  0  0
  188.8060  177.3650  140.6300 N   0  0  0  0  0  0  0  0  0  0  0  0
  185.2350  178.7660  145.5240 C   0  0  0  0  0  3  0  0  0  0  0  0
  186.8690  178.6060  136.9900 C   0  0  0  0  0  2  0  0  0  0  0  0
  188.8020  177.1190  136.8970 C   0  0  0  0  0  2  0  0  0  0  0  0
  187.4520  177.9010  145.6860 O   0  0  0  0  0  1  0  0  0  0  0  0
  185.3350  178.6060  141.3440 C   0  0  0  0  0  0  0  0  0  0  0  0
  184.1270  179.1750  144.7870 C   0  0  0  0  0  3  0  0  0  0  0  0
  186.4490  178.2450  143.4640 C   0  0  0  0  0  0  0  0  0  0  0  0
  186.4280  178.1570  140.6450 C   0  0  0  0  0  0  0  0  0  0  0  0
  184.1670  178.7500  138.2410 O   0  0  0  0  0  0  0  0  0  0  0  0
  186.1220  178.1740  139.3210 N   0  0  0  0  0  0  0  0  0  0  0  0
  187.9300  178.0490  136.0640 C   0  0  0  0  0  2  0  0  0  0  0  0
  189.1120  179.3120  139.1370 C   0  0  0  0  0  1  0  0  0  0  0  0
  184.1600  179.1240  143.3970 C   0  0  0  0  0  3  0  0  0  0  0  0
  185.3040  178.6670  142.7340 C   0  0  0  0  0  0  0  0  0  0  0  0
  189.0910  177.7900  139.2690 C   0  0  2  0  0  3  0  0  0  0  0  0
  190.9150  175.9520  143.5010 C   0  0  0  0  0  2  0  0  0  0  0  0
  191.7130  176.5350  145.7420 C   0  0  0  0  0  2  0  0  0  0  0  0
  191.2420  176.9490  144.5700 C   0  0  0  0  0  3  0  0  0  0  0  0
  1  5  1  0  0  0  0
  1 19  1  0  0  0  0
  2 13  1  0  0  0  0
  2 16  1  0  0  0  0
  3 17  1  0  0  0  0
  4  1  2  0  0  0  0
  6  8  2  0  0  0  0
  7 15  1  6  0  0  0
  7 27  1  0  0  0  0
  8 11  1  0  0  0  0
  9 14  1  6  0  0  0
  9  7  1  0  0  0  0
  9 22  1  0  0  0  0
 10 22  1  0  0  0  0
 10  3  1  0  0  0  0
 11  5  1  0  0  0  0
 11 28  1  1  0  0  0
 12  8  1  0  0  0  0
 12  4  1  0  0  0  0
 17 26  1  0  0  0  0
 18 13  2  0  0  0  0
 19  2  2  0  0  0  0
 20  4  1  0  0  0  0
 20 17  2  0  0  0  0
 21 10  2  0  0  0  0
 22 20  1  0  0  0  0
 23 15  1  0  0  0  0
 23 14  1  0  0  0  0
 25 18  1  0  0  0  0
 26 25  2  0  0  0  0
 26 19  1  0  0  0  0
 27 24  1  1  0  0  0
 27 12  1  0  0  0  0
 28 30  1  0  0  0  0
 30 29  2  0  0  0  0
M  END
>  <MODEL>
7

>  <REMARK>
 VINA RESULT:      -8.5      2.282      3.875
  Name = 
  2 active torsions:
  status: ('A' for Active; 'I' for Inactive)
    1  A    between atoms: C_11  and  C_28
    2  A    between atoms: C_28  and  C_30
                            x       y       z     vdW  Elec       q    Type
                         _______ _______ _______ _____ _____    ______ ____

>  <TORSDO>
F 2

$$$$
=
 OpenBabel11122410293D

 30 35  0  0  1  0  0  0  0  0999 V2000
  186.1180  178.4640  140.3200 C   0  0  0  0  0  0  0  0  0  0  0  0
  187.6020  178.2900  138.3000 C   0  0  0  0  0  0  0  0  0  0  0  0
  189.2350  177.4540  142.8160 N   0  0  0  0  0  2  0  0  0  0  0  0
  185.9670  178.3870  141.7340 C   0  0  0  0  0  0  0  0  0  0  0  0
  184.9330  178.9190  139.5090 C   0  0  0  0  0  2  0  0  0  0  0  0
  182.3610  178.7360  142.0510 O   0  0  0  0  0  0  0  0  0  0  0  0
  184.7990  178.0130  144.6560 C   0  0  1  0  0  3  0  0  0  0  0  0
  183.5000  178.6320  141.5170 C   0  0  0  0  0  0  0  0  0  0  0  0
  186.2550  177.6750  144.9380 C   0  0  2  0  0  3  0  0  0  0  0  0
  188.5370  177.4610  143.9700 C   0  0  0  0  0  0  0  0  0  0  0  0
  183.6230  178.3480  140.0460 C   0  0  1  0  0  3  0  0  0  0  0  0
  184.6890  178.7110  142.3210 N   0  0  0  0  0  0  0  0  0  0  0  0
  188.8720  178.0450  137.7680 C   0  0  0  0  0  3  0  0  0  0  0  0
  186.6370  178.4940  146.1540 C   0  0  0  0  0  2  0  0  0  0  0  0
  184.2050  178.3560  146.0130 C   0  0  0  0  0  2  0  0  0  0  0  0
  186.5770  178.5910  137.4110 O   0  0  0  0  0  1  0  0  0  0  0  0
  188.3080  177.8020  141.9070 C   0  0  0  0  0  0  0  0  0  0  0  0
  189.9440  177.7260  138.5970 C   0  0  0  0  0  3  0  0  0  0  0  0
  187.3870  178.2190  139.7050 C   0  0  0  0  0  0  0  0  0  0  0  0
  187.0920  178.0210  142.5030 C   0  0  0  0  0  0  0  0  0  0  0  0
  189.0590  177.1360  145.0700 O   0  0  0  0  0  0  0  0  0  0  0  0
  187.2290  177.8090  143.8390 N   0  0  0  0  0  0  0  0  0  0  0  0
  185.3650  178.5970  146.9690 C   0  0  0  0  0  2  0  0  0  0  0  0
  185.3860  180.4280  143.9560 C   0  0  0  0  0  1  0  0  0  0  0  0
  189.7580  177.6480  139.9740 C   0  0  0  0  0  3  0  0  0  0  0  0
  188.4980  177.8900  140.5310 C   0  0  0  0  0  0  0  0  0  0  0  0
  184.5640  179.1670  143.6950 C   0  0  2  0  0  3  0  0  0  0  0  0
  182.4310  178.8520  139.2260 C   0  0  0  0  0  2  0  0  0  0  0  0
  181.6350  181.0960  138.6510 C   0  0  0  0  0  2  0  0  0  0  0  0
  182.6450  180.2330  138.6880 C   0  0  0  0  0  3  0  0  0  0  0  0
  1  4  1  0  0  0  0
  2 19  1  0  0  0  0
  3 10  1  0  0  0  0
  4 12  1  0  0  0  0
  4 20  2  0  0  0  0
  5 11  1  0  0  0  0
  5  1  1  0  0  0  0
  7  9  1  0  0  0  0
  7 15  1  1  0  0  0
  8  6  2  0  0  0  0
  8 12  1  0  0  0  0
  9 14  1  1  0  0  0
 10 21  2  0  0  0  0
 11 28  1  6  0  0  0
 11  8  1  0  0  0  0
 12 27  1  0  0  0  0
 13  2  2  0  0  0  0
 13 18  1  0  0  0  0
 14 23  1  0  0  0  0
 15 23  1  0  0  0  0
 16  2  1  0  0  0  0
 17 20  1  0  0  0  0
 17  3  1  0  0  0  0
 18 25  2  0  0  0  0
 19  1  2  0  0  0  0
 19 26  1  0  0  0  0
 20 22  1  0  0  0  0
 22 10  1  0  0  0  0
 22  9  1  0  0  0  0
 25 26  1  0  0  0  0
 26 17  2  0  0  0  0
 27 24  1  1  0  0  0
 27  7  1  0  0  0  0
 29 30  2  0  0  0  0
 30 28  1  0  0  0  0
M  END
>  <MODEL>
8

>  <REMARK>
 VINA RESULT:      -8.4      2.277      7.179
  Name = 
  2 active torsions:
  status: ('A' for Active; 'I' for Inactive)
    1  A    between atoms: C_11  and  C_28
    2  A    between atoms: C_28  and  C_30
                            x       y       z     vdW  Elec       q    Type
                         _______ _______ _______ _____ _____    ______ ____

>  <TORSDO>
F 2

$$$$
=
 OpenBabel11122410293D

 30 35  0  0  1  0  0  0  0  0999 V2000
  188.9790  177.3240  145.3600 C   0  0  0  0  0  0  0  0  0  0  0  0
  187.5000  177.8530  147.3200 C   0  0  0  0  0  0  0  0  0  0  0  0
  186.0790  178.5710  142.7140 N   0  0  0  0  0  2  0  0  0  0  0  0
  189.1790  177.3130  143.9490 C   0  0  0  0  0  0  0  0  0  0  0  0
  190.1350  176.9220  146.2380 C   0  0  0  0  0  2  0  0  0  0  0  0
  192.3370  175.5210  143.7280 O   0  0  0  0  0  0  0  0  0  0  0  0
  190.1620  176.6130  141.0190 C   0  0  1  0  0  3  0  0  0  0  0  0
  191.3050  176.0500  144.2290 C   0  0  0  0  0  0  0  0  0  0  0  0
  188.8090  177.2170  140.6770 C   0  0  2  0  0  3  0  0  0  0  0  0
  186.7490  178.2810  141.5800 C   0  0  0  0  0  0  0  0  0  0  0  0
  190.9150  175.7500  145.6500 C   0  0  1  0  0  3  0  0  0  0  0  0
  190.4540  176.8850  143.4270 N   0  0  0  0  0  0  0  0  0  0  0  0
  186.2820  178.3450  147.8000 C   0  0  0  0  0  3  0  0  0  0  0  0
  189.0760  178.2180  139.5720 C   0  0  0  0  0  2  0  0  0  0  0  0
  190.9600  176.6750  139.7260 C   0  0  0  0  0  2  0  0  0  0  0  0
  188.4290  177.4120  148.2550 O   0  0  0  0  0  1  0  0  0  0  0  0
  186.9550  178.2230  143.6720 C   0  0  0  0  0  0  0  0  0  0  0  0
  185.2980  178.7940  146.9230 C   0  0  0  0  0  3  0  0  0  0  0  0
  187.7540  177.8080  145.9210 C   0  0  0  0  0  0  0  0  0  0  0  0
  188.1200  177.7480  143.1250 C   0  0  0  0  0  0  0  0  0  0  0  0
  186.2320  178.4310  140.4400 O   0  0  0  0  0  0  0  0  0  0  0  0
  188.0010  177.7870  141.7710 N   0  0  0  0  0  0  0  0  0  0  0  0
  190.2390  177.6390  138.7940 C   0  0  0  0  0  2  0  0  0  0  0  0
  191.0190  178.8350  142.0170 C   0  0  0  0  0  1  0  0  0  0  0  0
  185.5220  178.7560  145.5500 C   0  0  0  0  0  3  0  0  0  0  0  0
  186.7330  178.2700  145.0450 C   0  0  0  0  0  0  0  0  0  0  0  0
  190.9370  177.3140  142.1240 C   0  0  2  0  0  3  0  0  0  0  0  0
  192.1040  175.3810  146.5420 C   0  0  0  0  0  2  0  0  0  0  0  0
  193.0360  175.8860  148.7510 C   0  0  0  0  0  2  0  0  0  0  0  0
  192.1310  176.1650  147.8180 C   0  0  0  0  0  3  0  0  0  0  0  0
  1 19  1  0  0  0  0
  1  5  1  0  0  0  0
  2 13  1  0  0  0  0
  2 16  1  0  0  0  0
  3 17  1  0  0  0  0
  4  1  2  0  0  0  0
  6  8  2  0  0  0  0
  7 15  1  6  0  0  0
  7 27  1  0  0  0  0
  8 11  1  0  0  0  0
  9 14  1  6  0  0  0
  9  7  1  0  0  0  0
  9 22  1  0  0  0  0
 10 22  1  0  0  0  0
 10  3  1  0  0  0  0
 11  5  1  0  0  0  0
 11 28  1  1  0  0  0
 12  4  1  0  0  0  0
 12  8  1  0  0  0  0
 17 26  1  0  0  0  0
 18 13  2  0  0  0  0
 19  2  2  0  0  0  0
 20 17  2  0  0  0  0
 20  4  1  0  0  0  0
 21 10  2  0  0  0  0
 22 20  1  0  0  0  0
 23 14  1  0  0  0  0
 23 15  1  0  0  0  0
 25 18  1  0  0  0  0
 26 25  2  0  0  0  0
 26 19  1  0  0  0  0
 27 24  1  6  0  0  0
 27 12  1  0  0  0  0
 28 30  1  0  0  0  0
 30 29  2  0  0  0  0
M  END
>  <MODEL>
9

>  <REMARK>
 VINA RESULT:      -8.2      1.930      2.883
  Name = 
  2 active torsions:
  status: ('A' for Active; 'I' for Inactive)
    1  A    between atoms: C_11  and  C_28
    2  A    between atoms: C_28  and  C_30
                            x       y       z     vdW  Elec       q    Type
                         _______ _______ _______ _____ _____    ______ ____

>  <TORSDO>
F 2

$$$$
