=
 OpenBabel11122410483D

 32 37  0  0  1  0  0  0  0  0999 V2000
  185.0710  178.5180  140.8840 C   0  0  0  0  0  0  0  0  0  0  0  0
  183.7070  179.0130  145.5260 C   0  0  0  0  0  3  0  0  0  0  0  0
  185.0170  178.5090  145.9810 C   0  0  0  0  0  3  0  0  0  0  0  0
  187.4190  177.9510  140.2290 C   0  0  2  0  0  3  0  0  0  0  0  0
  188.7950  178.0250  140.8770 C   0  0  2  0  0  3  0  0  0  0  0  0
  183.4460  178.9300  139.0440 C   0  0  2  0  0  3  0  0  0  0  0  0
  182.7360  179.2400  141.4240 C   0  0  0  0  0  2  0  0  0  0  0  0
  190.2410  176.9710  142.3560 N   0  0  0  0  0  0  0  0  0  0  0  0
  183.3440  178.9310  144.2430 C   0  0  0  0  0  3  0  0  0  0  0  0
  184.0470  178.7610  141.8680 N   0  0  0  0  0  0  0  0  0  0  0  0
  184.2070  178.2210  143.2230 C   0  0  1  0  0  3  0  0  0  0  0  0
  186.6400  178.0820  142.7340 C   0  0  0  0  0  0  0  0  0  0  0  0
  190.8820  176.9480  141.0940 N   0  0  0  0  0  2  0  0  0  0  0  0
  182.3490  178.6410  140.0720 C   0  0  2  0  0  3  0  0  0  0  0  0
  189.9300  177.4440  140.0950 C   0  0  0  0  0  2  0  0  0  0  0  0
  185.9460  178.1250  145.1010 C   0  0  0  0  0  3  0  0  0  0  0  0
  185.6590  178.1750  143.6500 C   0  0  0  0  0  0  0  0  0  0  0  0
  188.0760  177.8850  143.1790 C   0  0  0  0  0  2  0  0  0  0  0  0
  184.7360  178.5400  139.5230 O   0  0  0  0  0  0  0  0  0  0  0  0
  187.3690  178.8910  139.1960 O   0  0  0  0  0  1  0  0  0  0  0  0
  190.3890  175.6430  142.9250 C   0  0  0  0  0  1  0  0  0  0  0  0
  186.3300  178.2290  141.2670 C   0  0  0  0  0  0  0  0  0  0  0  0
  188.8300  177.1630  142.0800 C   0  0  1  0  0  3  0  0  0  0  0  0
  180.6850  176.8870  140.6550 C   0  0  0  0  0  2  0  0  0  0  0  0
  182.1060  177.1430  140.1950 C   0  0  1  0  0  3  0  0  0  0  0  0
  181.0480  176.7230  139.1940 C   0  0  1  0  0  3  0  0  0  0  0  0
  181.2280  175.2510  138.8780 C   0  0  0  0  0  2  0  0  0  0  0  0
  179.9020  174.5750  138.8400 C   0  0  0  0  0  0  0  0  0  0  0  0
  179.1000  174.8150  137.9010 O   0  0  0  0  0  0  0  0  0  0  0  0
  179.5650  173.6510  139.8210 O   0  0  0  0  0  1  0  0  0  0  0  0
  182.1510  180.8180  138.3680 O   0  0  0  0  0  1  0  0  0  0  0  0
  183.4490  180.4020  138.6640 C   0  0  0  0  0  2  0  0  0  0  0  0
  1 22  2  0  0  0  0
  1 10  1  0  0  0  0
  2  3  1  0  0  0  0
  4 20  1  6  0  0  0
  4  5  1  0  0  0  0
  4 22  1  0  0  0  0
  5 15  1  6  0  0  0
  5 23  1  0  0  0  0
  6 32  1  1  0  0  0
  6 19  1  0  0  0  0
  6 14  1  0  0  0  0
  7 10  1  0  0  0  0
  8 21  1  0  0  0  0
  9  2  2  0  0  0  0
 10 11  1  0  0  0  0
 11 17  1  0  0  0  0
 11  9  1  1  0  0  0
 12 18  1  0  0  0  0
 12 17  2  0  0  0  0
 13  8  1  0  0  0  0
 14 25  1  0  0  0  0
 14  7  1  1  0  0  0
 15 13  1  0  0  0  0
 16  3  2  0  0  0  0
 17 16  1  0  0  0  0
 19  1  1  0  0  0  0
 22 12  1  0  0  0  0
 23  8  1  0  0  0  0
 23 18  1  1  0  0  0
 25 24  1  1  0  0  0
 26 27  1  1  0  0  0
 26 25  1  0  0  0  0
 26 24  1  0  0  0  0
 28 27  1  0  0  0  0
 28 30  1  0  0  0  0
 29 28  2  0  0  0  0
 31 32  1  0  0  0  0
M  END
>  <MODEL>
1

>  <REMARK>
 VINA RESULT:      -7.7      0.000      0.000
  Name = 
  4 active torsions:
  status: ('A' for Active; 'I' for Inactive)
    1  A    between atoms: C_7  and  C_19
    2  A    between atoms: C_10  and  C_17
    3  A    between atoms: C_20  and  C_29
    4  A    between atoms: C_29  and  C_30
                            x       y       z     vdW  Elec       q    Type
                         _______ _______ _______ _____ _____    ______ ____

>  <TORSDO>
F 4

$$$$
=
 OpenBabel11122410483D

 32 37  0  0  1  0  0  0  0  0999 V2000
  183.1110  177.0630  138.8790 C   0  0  0  0  0  0  0  0  0  0  0  0
  187.2040  178.2310  136.5260 C   0  0  0  0  0  3  0  0  0  0  0  0
  187.2150  176.9160  135.8590 C   0  0  0  0  0  3  0  0  0  0  0  0
  181.8130  174.9870  138.3620 C   0  0  2  0  0  3  0  0  0  0  0  0
  181.7080  174.0110  137.1990 C   0  0  2  0  0  3  0  0  0  0  0  0
  182.1670  178.5950  140.5980 C   0  0  2  0  0  3  0  0  0  0  0  0
  184.2470  179.2400  139.3640 C   0  0  0  0  0  2  0  0  0  0  0  0
  182.7100  172.1830  136.1750 N   0  0  0  0  0  0  0  0  0  0  0  0
  186.3690  178.4860  137.5370 C   0  0  0  0  0  3  0  0  0  0  0  0
  184.2370  177.9410  138.6870 N   0  0  0  0  0  0  0  0  0  0  0  0
  185.4780  177.4080  138.1140 C   0  0  1  0  0  3  0  0  0  0  0  0
  184.0980  175.5550  137.1970 C   0  0  0  0  0  0  0  0  0  0  0  0
  181.4330  171.7460  136.6040 N   0  0  0  0  0  2  0  0  0  0  0  0
  183.5820  179.1610  140.7380 C   0  0  2  0  0  3  0  0  0  0  0  0
  180.8360  172.8140  137.4110 C   0  0  0  0  0  2  0  0  0  0  0  0
  186.2720  176.0070  136.1220 C   0  0  0  0  0  3  0  0  0  0  0  0
  185.2140  176.3020  137.1140 C   0  0  0  0  0  0  0  0  0  0  0  0
  183.9170  174.3580  136.2850 C   0  0  0  0  0  2  0  0  0  0  0  0
  182.1570  177.3710  139.8590 O   0  0  0  0  0  0  0  0  0  0  0  0
  180.6150  175.7020  138.4450 O   0  0  0  0  0  1  0  0  0  0  0  0
  183.6560  171.1470  136.5500 C   0  0  0  0  0  1  0  0  0  0  0  0
  182.9970  175.9340  138.1530 C   0  0  0  0  0  0  0  0  0  0  0  0
  183.0160  173.3540  136.9750 C   0  0  1  0  0  3  0  0  0  0  0  0
  185.8490  178.7910  141.6930 C   0  0  0  0  0  2  0  0  0  0  0  0
  184.4110  178.3110  141.6910 C   0  0  1  0  0  3  0  0  0  0  0  0
  184.9210  179.1790  142.8250 C   0  0  1  0  0  3  0  0  0  0  0  0
  185.1950  178.3010  144.0300 C   0  0  0  0  0  2  0  0  0  0  0  0
  184.6780  178.9570  145.2630 C   0  0  0  0  0  0  0  0  0  0  0  0
  183.4390  179.1060  145.4240 O   0  0  0  0  0  0  0  0  0  0  0  0
  185.5610  179.3710  146.2510 O   0  0  0  0  0  1  0  0  0  0  0  0
  180.4080  180.1810  140.9020 O   0  0  0  0  0  1  0  0  0  0  0  0
  181.2450  179.6120  139.9430 C   0  0  0  0  0  2  0  0  0  0  0  0
  1 19  1  0  0  0  0
  2  9  2  0  0  0  0
  3 16  2  0  0  0  0
  3  2  1  0  0  0  0
  4 20  1  6  0  0  0
  5 15  1  1  0  0  0
  5  4  1  0  0  0  0
  6 32  1  6  0  0  0
  6 14  1  0  0  0  0
  8 21  1  0  0  0  0
  8 13  1  0  0  0  0
  8 23  1  0  0  0  0
 10  1  1  0  0  0  0
 10  7  1  0  0  0  0
 11  9  1  6  0  0  0
 11 10  1  0  0  0  0
 12 22  1  0  0  0  0
 13 15  1  0  0  0  0
 14  7  1  6  0  0  0
 14 25  1  0  0  0  0
 16 17  1  0  0  0  0
 17 12  2  0  0  0  0
 17 11  1  0  0  0  0
 18 12  1  0  0  0  0
 19  6  1  0  0  0  0
 22  4  1  0  0  0  0
 22  1  2  0  0  0  0
 23 18  1  6  0  0  0
 23  5  1  0  0  0  0
 24 26  1  0  0  0  0
 25 24  1  6  0  0  0
 25 26  1  0  0  0  0
 26 27  1  1  0  0  0
 27 28  1  0  0  0  0
 28 29  2  0  0  0  0
 28 30  1  0  0  0  0
 32 31  1  0  0  0  0
M  END
>  <MODEL>
2

>  <REMARK>
 VINA RESULT:      -6.9      3.769      7.423
  Name = 
  4 active torsions:
  status: ('A' for Active; 'I' for Inactive)
    1  A    between atoms: C_7  and  C_19
    2  A    between atoms: C_10  and  C_17
    3  A    between atoms: C_20  and  C_29
    4  A    between atoms: C_29  and  C_30
                            x       y       z     vdW  Elec       q    Type
                         _______ _______ _______ _____ _____    ______ ____

>  <TORSDO>
F 4

$$$$
=
 OpenBabel11122410483D

 32 37  0  0  1  0  0  0  0  0999 V2000
  189.4260  175.7780  137.6000 C   0  0  0  0  0  0  0  0  0  0  0  0
  194.1260  174.5980  137.1770 C   0  0  0  0  0  3  0  0  0  0  0  0
  193.7640  173.3320  136.5120 C   0  0  0  0  0  3  0  0  0  0  0  0
  187.6080  174.4540  136.5030 C   0  0  2  0  0  3  0  0  0  0  0  0
  187.5030  173.4610  135.3540 C   0  0  2  0  0  3  0  0  0  0  0  0
  188.7480  177.8190  138.8530 C   0  0  2  0  0  3  0  0  0  0  0  0
  191.1760  177.2580  138.6060 C   0  0  0  0  0  2  0  0  0  0  0  0
  187.8220  171.2440  134.7440 N   0  0  0  0  0  0  0  0  0  0  0  0
  193.1980  175.3560  137.7710 C   0  0  0  0  0  3  0  0  0  0  0  0
  190.8100  176.0140  137.9250 N   0  0  0  0  0  0  0  0  0  0  0  0
  191.7610  174.8980  137.8830 C   0  0  1  0  0  3  0  0  0  0  0  0
  190.1340  173.7460  136.3980 C   0  0  0  0  0  0  0  0  0  0  0  0
  186.4380  171.4990  134.5940 N   0  0  0  0  0  2  0  0  0  0  0  0
  190.0880  177.7020  139.5850 C   0  0  2  0  0  3  0  0  0  0  0  0
  186.1630  172.8340  135.1370 C   0  0  0  0  0  2  0  0  0  0  0  0
  192.4840  172.9980  136.3260 C   0  0  0  0  0  3  0  0  0  0  0  0
  191.4070  173.8870  136.8130 C   0  0  0  0  0  0  0  0  0  0  0  0
  189.7700  172.6310  135.4370 C   0  0  0  0  0  2  0  0  0  0  0  0
  188.4410  176.6310  138.1190 O   0  0  0  0  0  0  0  0  0  0  0  0
  186.9620  175.6350  136.1230 O   0  0  0  0  0  1  0  0  0  0  0  0
  187.9420  169.9660  135.4240 C   0  0  0  0  0  1  0  0  0  0  0  0
  189.0760  174.7230  136.8390 C   0  0  0  0  0  0  0  0  0  0  0  0
  188.3160  172.2610  135.6520 C   0  0  1  0  0  3  0  0  0  0  0  0
  191.0750  177.0180  141.7620 C   0  0  0  0  0  2  0  0  0  0  0  0
  189.9830  176.7310  140.7520 C   0  0  1  0  0  3  0  0  0  0  0  0
  189.6630  177.5000  142.0180 C   0  0  1  0  0  3  0  0  0  0  0  0
  188.9780  176.5690  142.9990 C   0  0  0  0  0  2  0  0  0  0  0  0
  188.7050  177.2870  144.2740 C   0  0  0  0  0  0  0  0  0  0  0  0
  187.6200  177.0970  144.8830 O   0  0  0  0  0  1  0  0  0  0  0  0
  189.6630  178.1380  144.8110 O   0  0  0  0  0  0  0  0  0  0  0  0
  187.5860  179.0260  137.1530 O   0  0  0  0  0  1  0  0  0  0  0  0
  188.7470  179.0250  137.9270 C   0  0  0  0  0  2  0  0  0  0  0  0
  1 10  1  0  0  0  0
  1 19  1  0  0  0  0
  2  9  2  0  0  0  0
  3  2  1  0  0  0  0
  4 20  1  6  0  0  0
  4 22  1  0  0  0  0
  5 15  1  1  0  0  0
  5 23  1  0  0  0  0
  5  4  1  0  0  0  0
  6 32  1  6  0  0  0
  6 14  1  0  0  0  0
  8 21  1  0  0  0  0
  8 23  1  0  0  0  0
 10  7  1  0  0  0  0
 11  9  1  6  0  0  0
 11 10  1  0  0  0  0
 12 17  2  0  0  0  0
 12 22  1  0  0  0  0
 13  8  1  0  0  0  0
 13 15  1  0  0  0  0
 14  7  1  6  0  0  0
 14 25  1  0  0  0  0
 16  3  2  0  0  0  0
 16 17  1  0  0  0  0
 17 11  1  0  0  0  0
 18 12  1  0  0  0  0
 19  6  1  0  0  0  0
 22  1  2  0  0  0  0
 23 18  1  6  0  0  0
 24 26  1  0  0  0  0
 25 24  1  1  0  0  0
 25 26  1  0  0  0  0
 26 27  1  1  0  0  0
 27 28  1  0  0  0  0
 28 30  2  0  0  0  0
 28 29  1  0  0  0  0
 31 32  1  0  0  0  0
M  END
>  <MODEL>
3

>  <REMARK>
 VINA RESULT:      -6.5      5.243      9.146
  Name = 
  4 active torsions:
  status: ('A' for Active; 'I' for Inactive)
    1  A    between atoms: C_7  and  C_19
    2  A    between atoms: C_10  and  C_17
    3  A    between atoms: C_20  and  C_29
    4  A    between atoms: C_29  and  C_30
                            x       y       z     vdW  Elec       q    Type
                         _______ _______ _______ _____ _____    ______ ____

>  <TORSDO>
F 4

$$$$
=
 OpenBabel11122410483D

 32 37  0  0  1  0  0  0  0  0999 V2000
  188.7310  177.0860  138.8080 C   0  0  0  0  0  0  0  0  0  0  0  0
  184.4090  179.2860  139.1800 C   0  0  0  0  0  3  0  0  0  0  0  0
  184.6090  179.4700  140.6300 C   0  0  0  0  0  3  0  0  0  0  0  0
  190.3590  177.0000  140.7060 C   0  0  2  0  0  3  0  0  0  0  0  0
  190.5940  177.7740  141.9970 C   0  0  2  0  0  3  0  0  0  0  0  0
  189.4490  176.0800  136.6480 C   0  0  2  0  0  3  0  0  0  0  0  0
  187.2420  177.2510  136.8030 C   0  0  0  0  0  2  0  0  0  0  0  0
  189.8990  178.0240  144.1970 N   0  0  0  0  0  0  0  0  0  0  0  0
  185.2230  178.5050  138.4650 C   0  0  0  0  0  3  0  0  0  0  0  0
  187.4580  177.4510  138.2380 N   0  0  0  0  0  0  0  0  0  0  0  0
  186.3130  177.6890  139.1230 C   0  0  1  0  0  3  0  0  0  0  0  0
  187.9680  178.0610  140.9400 C   0  0  0  0  0  0  0  0  0  0  0  0
  191.2480  177.5990  144.2550 N   0  0  0  0  0  2  0  0  0  0  0  0
  187.9610  176.0010  136.2960 C   0  0  2  0  0  3  0  0  0  0  0  0
  191.6740  177.2580  142.8940 C   0  0  0  0  0  2  0  0  0  0  0  0
  185.7090  179.0100  141.2330 C   0  0  0  0  0  3  0  0  0  0  0  0
  186.7340  178.2810  140.4520 C   0  0  0  0  0  0  0  0  0  0  0  0
  188.3260  178.5330  142.3360 C   0  0  0  0  0  2  0  0  0  0  0  0
  189.6500  176.3630  138.0350 O   0  0  0  0  0  0  0  0  0  0  0  0
  191.4120  177.2780  139.8300 O   0  0  0  0  0  1  0  0  0  0  0  0
  189.1680  177.2340  145.1730 C   0  0  0  0  0  1  0  0  0  0  0  0
  189.0180  177.3990  140.0870 C   0  0  0  0  0  0  0  0  0  0  0  0
  189.4180  177.6370  142.8850 C   0  0  1  0  0  3  0  0  0  0  0  0
  185.8230  174.8320  136.7980 C   0  0  0  0  0  2  0  0  0  0  0  0
  187.3340  174.7430  136.8810 C   0  0  1  0  0  3  0  0  0  0  0  0
  186.5880  174.0000  135.7900 C   0  0  1  0  0  3  0  0  0  0  0  0
  186.4970  172.5340  136.1700 C   0  0  0  0  0  2  0  0  0  0  0  0
  185.0960  172.0560  136.0080 C   0  0  0  0  0  0  0  0  0  0  0  0
  184.6550  171.7770  134.8640 O   0  0  0  0  0  0  0  0  0  0  0  0
  184.2890  171.8830  137.1250 O   0  0  0  0  0  1  0  0  0  0  0  0
  190.6890  176.5200  134.6570 O   0  0  0  0  0  1  0  0  0  0  0  0
  190.1470  177.1240  135.7920 C   0  0  0  0  0  2  0  0  0  0  0  0
  1 22  2  0  0  0  0
  2  3  1  0  0  0  0
  3 16  2  0  0  0  0
  4 20  1  6  0  0  0
  4  5  1  0  0  0  0
  5 23  1  0  0  0  0
  5 15  1  1  0  0  0
  6 32  1  6  0  0  0
  6 19  1  0  0  0  0
  7 10  1  0  0  0  0
  8 13  1  0  0  0  0
  8 21  1  0  0  0  0
  9  2  2  0  0  0  0
 10  1  1  0  0  0  0
 10 11  1  0  0  0  0
 11  9  1  6  0  0  0
 11 17  1  0  0  0  0
 12 18  1  0  0  0  0
 14  6  1  0  0  0  0
 14  7  1  1  0  0  0
 14 25  1  0  0  0  0
 15 13  1  0  0  0  0
 17 12  2  0  0  0  0
 17 16  1  0  0  0  0
 19  1  1  0  0  0  0
 22  4  1  0  0  0  0
 22 12  1  0  0  0  0
 23 18  1  6  0  0  0
 23  8  1  0  0  0  0
 25 24  1  1  0  0  0
 26 27  1  1  0  0  0
 26 24  1  0  0  0  0
 26 25  1  0  0  0  0
 28 27  1  0  0  0  0
 28 30  1  0  0  0  0
 29 28  2  0  0  0  0
 31 32  1  0  0  0  0
M  END
>  <MODEL>
4

>  <REMARK>
 VINA RESULT:      -6.3      3.767      5.425
  Name = 
  4 active torsions:
  status: ('A' for Active; 'I' for Inactive)
    1  A    between atoms: C_7  and  C_19
    2  A    between atoms: C_10  and  C_17
    3  A    between atoms: C_20  and  C_29
    4  A    between atoms: C_29  and  C_30
                            x       y       z     vdW  Elec       q    Type
                         _______ _______ _______ _____ _____    ______ ____

>  <TORSDO>
F 4

$$$$
=
 OpenBabel11122410483D

 32 37  0  0  1  0  0  0  0  0999 V2000
  191.2050  176.5020  137.9230 C   0  0  0  0  0  0  0  0  0  0  0  0
  187.1470  177.8720  135.6190 C   0  0  0  0  0  3  0  0  0  0  0  0
  186.4760  178.1130  136.9110 C   0  0  0  0  0  3  0  0  0  0  0  0
  191.4920  176.7500  140.3960 C   0  0  2  0  0  3  0  0  0  0  0  0
  190.8530  177.5740  141.5050 C   0  0  2  0  0  3  0  0  0  0  0  0
  193.1410  175.6100  136.6380 C   0  0  2  0  0  3  0  0  0  0  0  0
  191.0810  176.3560  135.4270 C   0  0  0  0  0  2  0  0  0  0  0  0
  189.0220  177.7280  142.9240 N   0  0  0  0  0  0  0  0  0  0  0  0
  188.3240  177.2420  135.5590 C   0  0  0  0  0  3  0  0  0  0  0  0
  190.4310  176.6160  136.7130 N   0  0  0  0  0  0  0  0  0  0  0  0
  188.9660  176.6530  136.7960 C   0  0  1  0  0  3  0  0  0  0  0  0
  189.2530  177.3550  139.1630 C   0  0  0  0  0  0  0  0  0  0  0  0
  190.1540  177.5610  143.7570 N   0  0  0  0  0  2  0  0  0  0  0  0
  192.1320  175.2520  135.5440 C   0  0  2  0  0  3  0  0  0  0  0  0
  191.3100  177.2820  142.8990 C   0  0  0  0  0  2  0  0  0  0  0  0
  187.1060  177.8740  138.0640 C   0  0  0  0  0  3  0  0  0  0  0  0
  188.4840  177.3340  138.0590 C   0  0  0  0  0  0  0  0  0  0  0  0
  188.7000  177.9070  140.4620 C   0  0  0  0  0  2  0  0  0  0  0  0
  192.4920  175.9480  137.8660 O   0  0  0  0  0  0  0  0  0  0  0  0
  192.8010  177.2020  140.2100 O   0  0  0  0  0  1  0  0  0  0  0  0
  187.9950  176.8330  143.4280 C   0  0  0  0  0  1  0  0  0  0  0  0
  190.6830  176.8840  139.1040 C   0  0  0  0  0  0  0  0  0  0  0  0
  189.4160  177.2370  141.6170 C   0  0  1  0  0  3  0  0  0  0  0  0
  190.4960  173.5650  134.7300 C   0  0  0  0  0  2  0  0  0  0  0  0
  191.4750  173.9100  135.8340 C   0  0  1  0  0  3  0  0  0  0  0  0
  191.8640  172.9170  134.7560 C   0  0  1  0  0  3  0  0  0  0  0  0
  191.7500  171.5130  135.3180 C   0  0  0  0  0  2  0  0  0  0  0  0
  193.1000  170.8910  135.4050 C   0  0  0  0  0  0  0  0  0  0  0  0
  194.1110  171.5230  135.0020 O   0  0  0  0  0  0  0  0  0  0  0  0
  193.2480  169.6280  135.9640 O   0  0  0  0  0  1  0  0  0  0  0  0
  195.3570  176.3050  136.0840 O   0  0  0  0  0  1  0  0  0  0  0  0
  194.0390  176.7510  136.1860 C   0  0  0  0  0  2  0  0  0  0  0  0
  1 22  2  0  0  0  0
  2  3  1  0  0  0  0
  3 16  2  0  0  0  0
  4 20  1  6  0  0  0
  4  5  1  0  0  0  0
  5 23  1  0  0  0  0
  5 15  1  1  0  0  0
  6 32  1  6  0  0  0
  6 19  1  0  0  0  0
  7 10  1  0  0  0  0
  8 21  1  0  0  0  0
  8 13  1  0  0  0  0
  9  2  2  0  0  0  0
 10 11  1  0  0  0  0
 10  1  1  0  0  0  0
 11  9  1  6  0  0  0
 11 17  1  0  0  0  0
 12 18  1  0  0  0  0
 14  7  1  1  0  0  0
 14 25  1  0  0  0  0
 14  6  1  0  0  0  0
 15 13  1  0  0  0  0
 17 16  1  0  0  0  0
 17 12  2  0  0  0  0
 19  1  1  0  0  0  0
 22 12  1  0  0  0  0
 22  4  1  0  0  0  0
 23 18  1  6  0  0  0
 23  8  1  0  0  0  0
 24 26  1  0  0  0  0
 25 24  1  6  0  0  0
 26 27  1  1  0  0  0
 26 25  1  0  0  0  0
 27 28  1  0  0  0  0
 28 30  1  0  0  0  0
 29 28  2  0  0  0  0
 31 32  1  0  0  0  0
M  END
>  <MODEL>
5

>  <REMARK>
 VINA RESULT:      -6.1      5.772      9.153
  Name = 
  4 active torsions:
  status: ('A' for Active; 'I' for Inactive)
    1  A    between atoms: C_7  and  C_19
    2  A    between atoms: C_10  and  C_17
    3  A    between atoms: C_20  and  C_29
    4  A    between atoms: C_29  and  C_30
                            x       y       z     vdW  Elec       q    Type
                         _______ _______ _______ _____ _____    ______ ____

>  <TORSDO>
F 4

$$$$
=
 OpenBabel11122410483D

 32 37  0  0  1  0  0  0  0  0999 V2000
  186.5320  178.0450  139.9170 C   0  0  0  0  0  0  0  0  0  0  0  0
  182.0900  179.0400  141.6310 C   0  0  0  0  0  3  0  0  0  0  0  0
  182.5850  178.9410  143.0170 C   0  0  0  0  0  3  0  0  0  0  0  0
  188.5450  177.9250  141.3990 C   0  0  2  0  0  3  0  0  0  0  0  0
  188.9290  178.4280  142.7840 C   0  0  2  0  0  3  0  0  0  0  0  0
  186.8990  177.7350  137.4750 C   0  0  2  0  0  3  0  0  0  0  0  0
  184.6130  178.2960  138.3290 C   0  0  0  0  0  2  0  0  0  0  0  0
  188.7300  178.0180  145.0610 N   0  0  0  0  0  0  0  0  0  0  0  0
  182.8430  178.6470  140.5990 C   0  0  0  0  0  3  0  0  0  0  0  0
  185.1180  178.2190  139.7020 N   0  0  0  0  0  0  0  0  0  0  0  0
  184.1850  177.9830  140.8110 C   0  0  1  0  0  3  0  0  0  0  0  0
  186.1210  178.3210  142.3320 C   0  0  0  0  0  0  0  0  0  0  0  0
  190.1100  177.9170  144.7600 N   0  0  0  0  0  2  0  0  0  0  0  0
  185.4090  177.3910  137.3890 C   0  0  2  0  0  3  0  0  0  0  0  0
  190.2620  177.9930  143.3030 C   0  0  0  0  0  2  0  0  0  0  0  0
  183.8590  178.6290  143.2670 C   0  0  0  0  0  3  0  0  0  0  0  0
  184.7890  178.3490  142.1500 C   0  0  0  0  0  0  0  0  0  0  0  0
  186.7030  178.5430  143.7150 C   0  0  0  0  0  2  0  0  0  0  0  0
  187.3620  177.7440  138.8280 O   0  0  0  0  0  0  0  0  0  0  0  0
  189.2970  178.6260  140.4530 O   0  0  0  0  0  1  0  0  0  0  0  0
  188.4020  176.8840  145.9070 C   0  0  0  0  0  1  0  0  0  0  0  0
  187.0470  178.1270  141.1590 C   0  0  0  0  0  0  0  0  0  0  0  0
  188.0360  177.8280  143.8010 C   0  0  1  0  0  3  0  0  0  0  0  0
  183.7010  175.5940  137.5850 C   0  0  0  0  0  2  0  0  0  0  0  0
  185.1740  175.9250  137.7230 C   0  0  1  0  0  3  0  0  0  0  0  0
  184.6700  175.2030  136.4890 C   0  0  1  0  0  3  0  0  0  0  0  0
  185.0070  173.7300  136.6100 C   0  0  0  0  0  2  0  0  0  0  0  0
  183.7890  172.9100  136.3620 C   0  0  0  0  0  0  0  0  0  0  0  0
  183.4220  172.0560  137.2100 O   0  0  0  0  0  1  0  0  0  0  0  0
  183.0370  173.1130  135.2110 O   0  0  0  0  0  0  0  0  0  0  0  0
  188.4230  179.5550  137.2220 O   0  0  0  0  0  1  0  0  0  0  0  0
  187.1780  179.0750  136.8140 C   0  0  0  0  0  2  0  0  0  0  0  0
  1 22  2  0  0  0  0
  2  3  1  0  0  0  0
  3 16  2  0  0  0  0
  4 20  1  6  0  0  0
  4  5  1  0  0  0  0
  5 15  1  1  0  0  0
  5 23  1  0  0  0  0
  6 32  1  1  0  0  0
  6 19  1  0  0  0  0
  7 10  1  0  0  0  0
  8 21  1  0  0  0  0
  9  2  2  0  0  0  0
 10  1  1  0  0  0  0
 10 11  1  0  0  0  0
 11  9  1  6  0  0  0
 11 17  1  0  0  0  0
 12 18  1  0  0  0  0
 13  8  1  0  0  0  0
 14  6  1  0  0  0  0
 14 25  1  0  0  0  0
 14  7  1  1  0  0  0
 15 13  1  0  0  0  0
 17 12  2  0  0  0  0
 17 16  1  0  0  0  0
 19  1  1  0  0  0  0
 22  4  1  0  0  0  0
 22 12  1  0  0  0  0
 23 18  1  1  0  0  0
 23  8  1  0  0  0  0
 25 24  1  1  0  0  0
 26 27  1  1  0  0  0
 26 24  1  0  0  0  0
 26 25  1  0  0  0  0
 28 27  1  0  0  0  0
 28 29  1  0  0  0  0
 30 28  2  0  0  0  0
 32 31  1  0  0  0  0
M  END
>  <MODEL>
6

>  <REMARK>
 VINA RESULT:      -5.9      2.625      3.649
  Name = 
  4 active torsions:
  status: ('A' for Active; 'I' for Inactive)
    1  A    between atoms: C_7  and  C_19
    2  A    between atoms: C_10  and  C_17
    3  A    between atoms: C_20  and  C_29
    4  A    between atoms: C_29  and  C_30
                            x       y       z     vdW  Elec       q    Type
                         _______ _______ _______ _____ _____    ______ ____

>  <TORSDO>
F 4

$$$$
=
 OpenBabel11122410483D

 32 37  0  0  1  0  0  0  0  0999 V2000
  188.1460  176.1520  137.4670 C   0  0  0  0  0  0  0  0  0  0  0  0
  191.5030  173.1210  135.6770 C   0  0  0  0  0  3  0  0  0  0  0  0
  190.4570  172.1350  135.3430 C   0  0  0  0  0  3  0  0  0  0  0  0
  185.6920  175.7320  137.2190 C   0  0  2  0  0  3  0  0  0  0  0  0
  184.8000  174.8960  136.3120 C   0  0  2  0  0  3  0  0  0  0  0  0
  188.8300  178.2650  138.5910 C   0  0  2  0  0  3  0  0  0  0  0  0
  190.5730  176.7440  137.6330 C   0  0  0  0  0  2  0  0  0  0  0  0
  183.9720  172.7600  135.9310 N   0  0  0  0  0  0  0  0  0  0  0  0
  191.2300  174.1860  136.4370 C   0  0  0  0  0  3  0  0  0  0  0  0
  189.5270  175.7810  137.2830 N   0  0  0  0  0  0  0  0  0  0  0  0
  189.8720  174.3700  137.0780 C   0  0  1  0  0  3  0  0  0  0  0  0
  187.5110  174.0320  136.3810 C   0  0  0  0  0  0  0  0  0  0  0  0
  182.8490  173.5750  136.2140 N   0  0  0  0  0  2  0  0  0  0  0  0
  190.1770  177.5840  138.8480 C   0  0  2  0  0  3  0  0  0  0  0  0
  183.3400  174.8910  136.6350 C   0  0  0  0  0  2  0  0  0  0  0  0
  189.1760  172.3710  135.6360 C   0  0  0  0  0  3  0  0  0  0  0  0
  188.7910  173.6210  136.3290 C   0  0  0  0  0  0  0  0  0  0  0  0
  186.4180  173.1910  135.7510 C   0  0  0  0  0  2  0  0  0  0  0  0
  187.8370  177.3280  138.1640 O   0  0  0  0  0  0  0  0  0  0  0  0
  185.4800  177.0810  136.9200 O   0  0  0  0  0  1  0  0  0  0  0  0
  183.8070  171.5370  136.6970 C   0  0  0  0  0  1  0  0  0  0  0  0
  187.1600  175.3550  137.0120 C   0  0  0  0  0  0  0  0  0  0  0  0
  185.1170  173.4600  136.4820 C   0  0  1  0  0  3  0  0  0  0  0  0
  191.2210  177.1280  141.0580 C   0  0  0  0  0  2  0  0  0  0  0  0
  190.1170  176.7240  140.1020 C   0  0  1  0  0  3  0  0  0  0  0  0
  189.8040  177.6030  141.2980 C   0  0  1  0  0  3  0  0  0  0  0  0
  189.1590  176.7520  142.3750 C   0  0  0  0  0  2  0  0  0  0  0  0
  188.8760  177.5860  143.5760 C   0  0  0  0  0  0  0  0  0  0  0  0
  189.8240  178.1080  144.2170 O   0  0  0  0  0  1  0  0  0  0  0  0
  187.5630  177.8170  143.9670 O   0  0  0  0  0  0  0  0  0  0  0  0
  187.7930  179.5190  136.8430 O   0  0  0  0  0  1  0  0  0  0  0  0
  188.9780  179.3780  137.5660 C   0  0  0  0  0  2  0  0  0  0  0  0
  1 19  1  0  0  0  0
  2  9  2  0  0  0  0
  3 16  2  0  0  0  0
  3  2  1  0  0  0  0
  4 20  1  6  0  0  0
  5 23  1  0  0  0  0
  5 15  1  1  0  0  0
  5  4  1  0  0  0  0
  6 32  1  6  0  0  0
  6 14  1  0  0  0  0
  8 13  1  0  0  0  0
  8 23  1  0  0  0  0
  8 21  1  0  0  0  0
 10  1  1  0  0  0  0
 10  7  1  0  0  0  0
 11  9  1  6  0  0  0
 11 10  1  0  0  0  0
 12 22  1  0  0  0  0
 13 15  1  0  0  0  0
 14  7  1  6  0  0  0
 14 25  1  0  0  0  0
 16 17  1  0  0  0  0
 17 12  2  0  0  0  0
 17 11  1  0  0  0  0
 18 12  1  0  0  0  0
 19  6  1  0  0  0  0
 22  4  1  0  0  0  0
 22  1  2  0  0  0  0
 23 18  1  6  0  0  0
 24 26  1  0  0  0  0
 25 24  1  1  0  0  0
 25 26  1  0  0  0  0
 26 27  1  1  0  0  0
 27 28  1  0  0  0  0
 28 30  2  0  0  0  0
 28 29  1  0  0  0  0
 31 32  1  0  0  0  0
M  END
>  <MODEL>
7

>  <REMARK>
 VINA RESULT:      -5.9      4.546      8.903
  Name = 
  4 active torsions:
  status: ('A' for Active; 'I' for Inactive)
    1  A    between atoms: C_7  and  C_19
    2  A    between atoms: C_10  and  C_17
    3  A    between atoms: C_20  and  C_29
    4  A    between atoms: C_29  and  C_30
                            x       y       z     vdW  Elec       q    Type
                         _______ _______ _______ _____ _____    ______ ____

>  <TORSDO>
F 4

$$$$
=
 OpenBabel11122410483D

 32 37  0  0  1  0  0  0  0  0999 V2000
  183.7850  178.1400  138.0580 C   0  0  0  0  0  0  0  0  0  0  0  0
  181.9160  174.6880  135.1870 C   0  0  0  0  0  3  0  0  0  0  0  0
  183.2630  174.3540  134.6850 C   0  0  0  0  0  3  0  0  0  0  0  0
  186.2500  178.4290  138.3770 C   0  0  2  0  0  3  0  0  0  0  0  0
  187.4970  177.5770  138.1840 C   0  0  2  0  0  3  0  0  0  0  0  0
  182.2870  179.6380  139.3640 C   0  0  2  0  0  3  0  0  0  0  0  0
  181.3040  177.8360  137.9320 C   0  0  0  0  0  2  0  0  0  0  0  0
  189.0190  176.7900  136.6170 N   0  0  0  0  0  0  0  0  0  0  0  0
  181.7060  175.7820  135.9240 C   0  0  0  0  0  3  0  0  0  0  0  0
  182.6470  177.4940  137.4560 N   0  0  0  0  0  0  0  0  0  0  0  0
  182.8110  176.7820  136.1840 C   0  0  1  0  0  3  0  0  0  0  0  0
  185.2350  176.6620  136.7200 C   0  0  0  0  0  0  0  0  0  0  0  0
  189.7590  177.5950  137.5160 N   0  0  0  0  0  2  0  0  0  0  0  0
  181.2080  179.3090  138.3290 C   0  0  2  0  0  3  0  0  0  0  0  0
  188.8090  178.2550  138.4180 C   0  0  0  0  0  2  0  0  0  0  0  0
  184.3360  175.0320  135.1020 C   0  0  0  0  0  3  0  0  0  0  0  0
  184.1820  176.1510  136.0570 C   0  0  0  0  0  0  0  0  0  0  0  0
  186.6270  176.1150  136.4690 C   0  0  0  0  0  2  0  0  0  0  0  0
  183.5840  179.2200  138.9280 O   0  0  0  0  0  0  0  0  0  0  0  0
  186.0610  178.6270  139.7480 O   0  0  0  0  0  1  0  0  0  0  0  0
  189.4440  177.1570  135.2780 C   0  0  0  0  0  1  0  0  0  0  0  0
  185.0350  177.7380  137.7560 C   0  0  0  0  0  0  0  0  0  0  0  0
  187.6360  177.2070  136.7580 C   0  0  1  0  0  3  0  0  0  0  0  0
  180.0750  180.1390  136.2770 C   0  0  0  0  0  2  0  0  0  0  0  0
  181.3410  180.2070  137.1080 C   0  0  1  0  0  3  0  0  0  0  0  0
  180.3160  181.3220  137.1910 C   0  0  1  0  0  3  0  0  0  0  0  0
  180.8070  182.5010  136.3750 C   0  0  0  0  0  2  0  0  0  0  0  0
  180.8220  183.7290  137.2180 C   0  0  0  0  0  0  0  0  0  0  0  0
  179.8460  183.9890  137.9670 O   0  0  0  0  0  1  0  0  0  0  0  0
  181.9300  184.5680  137.2030 O   0  0  0  0  0  0  0  0  0  0  0  0
  183.1290  178.7350  141.4080 O   0  0  0  0  0  1  0  0  0  0  0  0
  181.9540  179.0040  140.7060 C   0  0  0  0  0  2  0  0  0  0  0  0
  1 19  1  0  0  0  0
  2  9  2  0  0  0  0
  3 16  2  0  0  0  0
  3  2  1  0  0  0  0
  4 20  1  1  0  0  0
  5  4  1  0  0  0  0
  5 15  1  6  0  0  0
  6 32  1  1  0  0  0
  8 23  1  0  0  0  0
  8 13  1  0  0  0  0
 10  7  1  0  0  0  0
 10  1  1  0  0  0  0
 11  9  1  1  0  0  0
 11 10  1  0  0  0  0
 12 22  1  0  0  0  0
 13 15  1  0  0  0  0
 14  7  1  6  0  0  0
 14  6  1  0  0  0  0
 16 17  1  0  0  0  0
 17 11  1  0  0  0  0
 17 12  2  0  0  0  0
 18 12  1  0  0  0  0
 19  6  1  0  0  0  0
 21  8  1  0  0  0  0
 22  1  2  0  0  0  0
 22  4  1  0  0  0  0
 23 18  1  1  0  0  0
 23  5  1  0  0  0  0
 24 26  1  0  0  0  0
 25 24  1  6  0  0  0
 25 26  1  0  0  0  0
 25 14  1  0  0  0  0
 26 27  1  6  0  0  0
 27 28  1  0  0  0  0
 28 29  1  0  0  0  0
 30 28  2  0  0  0  0
 32 31  1  0  0  0  0
M  END
>  <MODEL>
8

>  <REMARK>
 VINA RESULT:      -5.8      3.787      6.550
  Name = 
  4 active torsions:
  status: ('A' for Active; 'I' for Inactive)
    1  A    between atoms: C_7  and  C_19
    2  A    between atoms: C_10  and  C_17
    3  A    between atoms: C_20  and  C_29
    4  A    between atoms: C_29  and  C_30
                            x       y       z     vdW  Elec       q    Type
                         _______ _______ _______ _____ _____    ______ ____

>  <TORSDO>
F 4

$$$$
=
 OpenBabel11122410483D

 32 37  0  0  1  0  0  0  0  0999 V2000
  190.0350  176.7270  139.1230 C   0  0  0  0  0  0  0  0  0  0  0  0
  186.0120  178.7410  137.2750 C   0  0  0  0  0  3  0  0  0  0  0  0
  185.4980  178.9980  138.6330 C   0  0  0  0  0  3  0  0  0  0  0  0
  190.5710  176.8020  141.5670 C   0  0  2  0  0  3  0  0  0  0  0  0
  190.1510  177.6420  142.7650 C   0  0  2  0  0  3  0  0  0  0  0  0
  191.7110  175.6600  137.6250 C   0  0  2  0  0  3  0  0  0  0  0  0
  189.6720  176.7340  136.6470 C   0  0  0  0  0  2  0  0  0  0  0  0
  188.4910  177.9580  144.3570 N   0  0  0  0  0  0  0  0  0  0  0  0
  187.0830  177.9660  137.0780 C   0  0  0  0  0  3  0  0  0  0  0  0
  189.1790  177.0070  137.9980 N   0  0  0  0  0  0  0  0  0  0  0  0
  187.7460  177.2320  138.2220 C   0  0  1  0  0  3  0  0  0  0  0  0
  188.3340  177.7610  140.5780 C   0  0  0  0  0  0  0  0  0  0  0  0
  189.6590  177.5990  145.0710 N   0  0  0  0  0  2  0  0  0  0  0  0
  190.5700  175.4970  136.6170 C   0  0  2  0  0  3  0  0  0  0  0  0
  190.6850  177.2170  144.0950 C   0  0  0  0  0  2  0  0  0  0  0  0
  186.1890  178.6170  139.7100 C   0  0  0  0  0  3  0  0  0  0  0  0
  187.4750  177.9020  139.5520 C   0  0  0  0  0  0  0  0  0  0  0  0
  187.9790  178.3100  141.9460 C   0  0  0  0  0  2  0  0  0  0  0  0
  191.2250  176.0140  138.9220 O   0  0  0  0  0  0  0  0  0  0  0  0
  191.9080  177.0880  141.2760 O   0  0  0  0  0  1  0  0  0  0  0  0
  187.4000  177.1800  144.9180 C   0  0  0  0  0  1  0  0  0  0  0  0
  189.6760  177.1100  140.3640 C   0  0  0  0  0  0  0  0  0  0  0  0
  188.6970  177.4910  142.9990 C   0  0  1  0  0  3  0  0  0  0  0  0
  188.3280  174.4310  136.4720 C   0  0  0  0  0  2  0  0  0  0  0  0
  189.7650  174.2390  136.9130 C   0  0  1  0  0  3  0  0  0  0  0  0
  189.2830  173.6340  135.6090 C   0  0  1  0  0  3  0  0  0  0  0  0
  189.0390  172.1520  135.8170 C   0  0  0  0  0  2  0  0  0  0  0  0
  189.9750  171.3610  134.9710 C   0  0  0  0  0  0  0  0  0  0  0  0
  191.0780  171.8550  134.6220 O   0  0  0  0  0  1  0  0  0  0  0  0
  189.6470  170.0630  134.5990 O   0  0  0  0  0  0  0  0  0  0  0  0
  193.5930  177.0250  138.1680 O   0  0  0  0  0  1  0  0  0  0  0  0
  192.7120  176.6960  137.1370 C   0  0  0  0  0  2  0  0  0  0  0  0
  1 22  2  0  0  0  0
  2  3  1  0  0  0  0
  3 16  2  0  0  0  0
  4 20  1  6  0  0  0
  4  5  1  0  0  0  0
  5 23  1  0  0  0  0
  5 15  1  1  0  0  0
  6 32  1  6  0  0  0
  6 19  1  0  0  0  0
  7 10  1  0  0  0  0
  8 21  1  0  0  0  0
  8 13  1  0  0  0  0
  9  2  2  0  0  0  0
 10 11  1  0  0  0  0
 10  1  1  0  0  0  0
 11  9  1  6  0  0  0
 11 17  1  0  0  0  0
 12 18  1  0  0  0  0
 14  7  1  1  0  0  0
 14 25  1  0  0  0  0
 14  6  1  0  0  0  0
 15 13  1  0  0  0  0
 17 16  1  0  0  0  0
 17 12  2  0  0  0  0
 19  1  1  0  0  0  0
 22 12  1  0  0  0  0
 22  4  1  0  0  0  0
 23 18  1  6  0  0  0
 23  8  1  0  0  0  0
 25 24  1  1  0  0  0
 26 27  1  1  0  0  0
 26 24  1  0  0  0  0
 26 25  1  0  0  0  0
 28 27  1  0  0  0  0
 29 28  1  0  0  0  0
 30 28  2  0  0  0  0
 32 31  1  0  0  0  0
M  END
>  <MODEL>
9

>  <REMARK>
 VINA RESULT:      -5.5      4.966      7.481
  Name = 
  4 active torsions:
  status: ('A' for Active; 'I' for Inactive)
    1  A    between atoms: C_7  and  C_19
    2  A    between atoms: C_10  and  C_17
    3  A    between atoms: C_20  and  C_29
    4  A    between atoms: C_29  and  C_30
                            x       y       z     vdW  Elec       q    Type
                         _______ _______ _______ _____ _____    ______ ____

>  <TORSDO>
F 4

$$$$
