=
 OpenBabel11122412193D

 34 40  0  0  0  0  0  0  0  0999 V2000
  183.5050  178.5850  143.3190 C   0  0  0  0  0  0  0  0  0  0  0  0
  185.6690  178.2940  144.6970 C   0  0  0  0  0  3  0  0  0  0  0  0
  180.7700  181.6030  139.0860 O   0  0  0  0  0  0  0  0  0  0  0  0
  181.5370  178.8620  141.8890 C   0  0  0  0  0  0  0  0  0  0  0  0
  181.7950  178.9390  139.4700 C   0  0  0  0  0  0  0  0  0  0  0  0
  181.6660  180.1800  137.3650 C   0  0  0  0  0  2  0  0  0  0  0  0
  180.8380  181.4220  137.6970 C   0  0  0  0  0  2  0  0  0  0  0  0
  178.9330  180.0230  139.3650 C   0  0  0  0  0  2  0  0  0  0  0  0
  185.7070  178.4020  142.3190 C   0  0  0  0  0  0  0  0  0  0  0  0
  188.2980  178.2090  140.6810 N   0  0  0  0  0  0  0  0  0  0  0  0
  183.1770  178.7920  139.6190 C   0  0  0  0  0  3  0  0  0  0  0  0
  179.4530  179.1300  140.4920 C   0  0  0  0  0  2  0  0  0  0  0  0
  185.1850  178.5180  141.0200 C   0  0  0  0  0  0  0  0  0  0  0  0
  187.0440  178.1720  144.2330 N   0  0  0  0  0  0  0  0  0  0  0  0
  180.9590  178.9890  140.6070 C   0  0  0  0  0  0  0  0  0  0  0  0
  179.4160  181.4770  139.4400 C   0  0  0  0  0  2  0  0  0  0  0  0
  188.2090  178.1510  142.1120 C   0  0  0  0  0  0  0  0  0  0  0  0
  182.9390  178.7060  142.0290 C   0  0  0  0  0  0  0  0  0  0  0  0
  181.2680  179.0870  138.1870 O   0  0  0  0  0  0  0  0  0  0  0  0
  183.7750  178.6710  140.8810 C   0  0  0  0  0  0  0  0  0  0  0  0
  181.3060  178.7710  144.3140 C   0  0  0  0  0  3  0  0  0  0  0  0
  187.3970  178.3470  139.7600 C   0  0  0  0  0  3  0  0  0  0  0  0
  180.7370  178.8920  143.0450 C   0  0  0  0  0  3  0  0  0  0  0  0
  185.9450  178.4900  139.9210 C   0  0  0  0  0  3  0  0  0  0  0  0
  187.0660  178.2370  142.8070 C   0  0  0  0  0  0  0  0  0  0  0  0
  182.6840  178.6190  144.4520 C   0  0  0  0  0  3  0  0  0  0  0  0
  184.8860  178.4350  143.4330 C   0  0  0  0  0  0  0  0  0  0  0  0
  189.4670  177.9850  142.8570 C   0  0  0  0  0  3  0  0  0  0  0  0
  190.2020  176.9320  142.7050 N   0  0  0  0  0  0  0  0  0  0  0  0
  192.1110  175.5300  145.4000 C   0  0  0  0  0  2  0  0  0  0  0  0
  191.4530  177.7240  144.6340 C   0  0  0  0  0  2  0  0  0  0  0  0
  191.4450  176.7780  143.4440 C   0  0  0  0  0  3  0  0  0  0  0  0
  191.5960  176.8670  145.8770 C   0  0  0  0  0  2  0  0  0  0  0  0
  191.5540  175.3700  144.0060 C   0  0  0  0  0  2  0  0  0  0  0  0
  1 27  1  0  0  0  0
  1 26  1  0  0  0  0
  3 16  1  0  0  0  0
  4 18  1  0  0  0  0
  4 23  2  0  0  0  0
  5 11  1  0  0  0  0
  5 15  2  0  0  0  0
  6  7  1  0  0  0  0
  6 19  1  0  0  0  0
  7  3  1  0  0  0  0
  8 16  1  0  0  0  0
  8 12  1  0  0  0  0
  9 25  1  0  0  0  0
  9 27  1  0  0  0  0
 10 17  2  0  0  0  0
 11 20  2  0  0  0  0
 12 15  1  0  0  0  0
 13  9  2  0  0  0  0
 14  2  1  0  0  0  0
 15  4  1  0  0  0  0
 17 25  1  0  0  0  0
 17 28  1  0  0  0  0
 18  1  2  0  0  0  0
 19  5  1  0  0  0  0
 20 13  1  0  0  0  0
 20 18  1  0  0  0  0
 21 26  2  0  0  0  0
 22 24  2  0  0  0  0
 22 10  1  0  0  0  0
 23 21  1  0  0  0  0
 24 13  1  0  0  0  0
 25 14  2  0  0  0  0
 27  2  2  0  0  0  0
 29 28  2  0  0  0  0
 29 32  1  0  0  0  0
 30 33  1  0  0  0  0
 31 33  1  0  0  0  0
 32 34  1  0  0  0  0
 32 31  1  0  0  0  0
 34 30  1  0  0  0  0
M  END
>  <MODEL>
1

>  <REMARK>
 VINA RESULT:      -9.3      0.000      0.000
  Name = 
  2 active torsions:
  status: ('A' for Active; 'I' for Inactive)
    1  A    between atoms: C_17  and  C_28
    2  A    between atoms: N_29  and  C_32
                            x       y       z     vdW  Elec       q    Type
                         _______ _______ _______ _____ _____    ______ ____

>  <TORSDO>
F 2

$$$$
=
 OpenBabel11122412193D

 34 40  0  0  0  0  0  0  0  0999 V2000
  185.8660  178.2710  144.8420 C   0  0  0  0  0  0  0  0  0  0  0  0
  183.5000  178.5680  143.8530 C   0  0  0  0  0  3  0  0  0  0  0  0
  190.9130  175.2730  144.6390 O   0  0  0  0  0  0  0  0  0  0  0  0
  188.1630  177.9900  145.6430 C   0  0  0  0  0  0  0  0  0  0  0  0
  190.0040  177.9430  144.0520 C   0  0  0  0  0  0  0  0  0  0  0  0
  191.8130  176.7240  142.9420 C   0  0  0  0  0  2  0  0  0  0  0  0
  192.0160  175.4710  143.7940 C   0  0  0  0  0  2  0  0  0  0  0  0
  191.7250  176.8320  146.3300 C   0  0  0  0  0  2  0  0  0  0  0  0
  185.4340  178.4860  142.4660 C   0  0  0  0  0  0  0  0  0  0  0  0
  185.3030  178.7220  139.4060 N   0  0  0  0  0  0  0  0  0  0  0  0
  189.0950  178.1020  143.0030 C   0  0  0  0  0  3  0  0  0  0  0  0
  190.4980  177.7180  146.5560 C   0  0  0  0  0  2  0  0  0  0  0  0
  186.7990  178.3800  142.1540 C   0  0  0  0  0  0  0  0  0  0  0  0
  183.0980  178.7090  142.4600 N   0  0  0  0  0  0  0  0  0  0  0  0
  189.5460  177.8720  145.3860 C   0  0  0  0  0  0  0  0  0  0  0  0
  191.3930  175.3820  145.9540 C   0  0  0  0  0  2  0  0  0  0  0  0
  184.1780  178.7640  140.2950 C   0  0  0  0  0  0  0  0  0  0  0  0
  187.2490  178.1590  144.5720 C   0  0  0  0  0  0  0  0  0  0  0  0
  191.3600  177.8040  143.7520 O   0  0  0  0  0  0  0  0  0  0  0  0
  187.7160  178.2140  143.2320 C   0  0  0  0  0  0  0  0  0  0  0  0
  186.3010  178.0520  147.2140 C   0  0  0  0  0  3  0  0  0  0  0  0
  186.5750  178.5860  139.6200 C   0  0  0  0  0  3  0  0  0  0  0  0
  187.6680  177.9400  146.9570 C   0  0  0  0  0  3  0  0  0  0  0  0
  187.2700  178.4270  140.9030 C   0  0  0  0  0  3  0  0  0  0  0  0
  184.2570  178.6590  141.6290 C   0  0  0  0  0  0  0  0  0  0  0  0
  185.4020  178.2170  146.1620 C   0  0  0  0  0  3  0  0  0  0  0  0
  184.9850  178.4330  143.7740 C   0  0  0  0  0  0  0  0  0  0  0  0
  182.8490  178.9340  139.6880 C   0  0  0  0  0  3  0  0  0  0  0  0
  182.5540  179.9920  139.0050 N   0  0  0  0  0  0  0  0  0  0  0  0
  180.4240  180.4710  136.1570 C   0  0  0  0  0  2  0  0  0  0  0  0
  180.9380  181.6270  138.2150 C   0  0  0  0  0  2  0  0  0  0  0  0
  181.2380  180.1500  138.4070 C   0  0  0  0  0  3  0  0  0  0  0  0
  180.7030  181.8400  136.7310 C   0  0  0  0  0  2  0  0  0  0  0  0
  181.2050  179.5150  137.0270 C   0  0  0  0  0  2  0  0  0  0  0  0
  1 26  2  0  0  0  0
  3 16  1  0  0  0  0
  4 23  1  0  0  0  0
  5 15  1  0  0  0  0
  6 19  1  0  0  0  0
  6  7  1  0  0  0  0
  7  3  1  0  0  0  0
  8 12  1  0  0  0  0
  9 27  2  0  0  0  0
 10 22  2  0  0  0  0
 10 17  1  0  0  0  0
 11 20  1  0  0  0  0
 11  5  2  0  0  0  0
 13  9  1  0  0  0  0
 13 20  1  0  0  0  0
 14  2  2  0  0  0  0
 15  4  2  0  0  0  0
 15 12  1  0  0  0  0
 16  8  1  0  0  0  0
 17 25  2  0  0  0  0
 18  1  1  0  0  0  0
 18  4  1  0  0  0  0
 19  5  1  0  0  0  0
 20 18  2  0  0  0  0
 22 24  1  0  0  0  0
 23 21  2  0  0  0  0
 24 13  2  0  0  0  0
 25 14  1  0  0  0  0
 25  9  1  0  0  0  0
 26 21  1  0  0  0  0
 27  2  1  0  0  0  0
 27  1  1  0  0  0  0
 28 17  1  0  0  0  0
 29 28  2  0  0  0  0
 30 33  1  0  0  0  0
 30 34  1  0  0  0  0
 31 32  1  0  0  0  0
 32 29  1  0  0  0  0
 33 31  1  0  0  0  0
 34 32  1  0  0  0  0
M  END
>  <MODEL>
2

>  <REMARK>
 VINA RESULT:      -9.3      3.469      9.199
  Name = 
  2 active torsions:
  status: ('A' for Active; 'I' for Inactive)
    1  A    between atoms: C_17  and  C_28
    2  A    between atoms: N_29  and  C_32
                            x       y       z     vdW  Elec       q    Type
                         _______ _______ _______ _____ _____    ______ ____

>  <TORSDO>
F 2

$$$$
=
 OpenBabel11122412193D

 34 40  0  0  0  0  0  0  0  0999 V2000
  185.6990  178.4150  140.9850 C   0  0  0  0  0  0  0  0  0  0  0  0
  188.0130  177.8470  141.9810 C   0  0  0  0  0  3  0  0  0  0  0  0
  179.9760  177.1010  140.8500 O   0  0  0  0  0  0  0  0  0  0  0  0
  183.4510  178.9530  140.1790 C   0  0  0  0  0  0  0  0  0  0  0  0
  181.6360  179.2690  141.7690 C   0  0  0  0  0  0  0  0  0  0  0  0
  179.5090  178.5310  142.7300 C   0  0  0  0  0  2  0  0  0  0  0  0
  178.9610  177.5170  141.7250 C   0  0  0  0  0  2  0  0  0  0  0  0
  179.7280  179.0350  139.3840 C   0  0  0  0  0  2  0  0  0  0  0  0
  186.1060  178.1850  143.3650 C   0  0  0  0  0  0  0  0  0  0  0  0
  186.2100  177.9800  146.4280 N   0  0  0  0  0  0  0  0  0  0  0  0
  182.5180  179.0090  142.8200 C   0  0  0  0  0  3  0  0  0  0  0  0
  181.1720  179.5250  139.2620 C   0  0  0  0  0  2  0  0  0  0  0  0
  184.7640  178.4620  143.6740 C   0  0  0  0  0  0  0  0  0  0  0  0
  188.3970  177.6810  143.3750 N   0  0  0  0  0  0  0  0  0  0  0  0
  182.0900  179.2310  140.4330 C   0  0  0  0  0  0  0  0  0  0  0  0
  179.5920  177.5180  139.5650 C   0  0  0  0  0  2  0  0  0  0  0  0
  187.3210  177.7890  145.5400 C   0  0  0  0  0  0  0  0  0  0  0  0
  184.3400  178.6970  141.2530 C   0  0  0  0  0  0  0  0  0  0  0  0
  180.2930  179.5140  142.0620 O   0  0  0  0  0  0  0  0  0  0  0  0
  183.8720  178.7220  142.5940 C   0  0  0  0  0  0  0  0  0  0  0  0
  185.2900  178.6420  138.6100 C   0  0  0  0  0  3  0  0  0  0  0  0
  184.9640  178.2670  146.2110 C   0  0  0  0  0  3  0  0  0  0  0  0
  183.9460  178.9210  138.8640 C   0  0  0  0  0  3  0  0  0  0  0  0
  184.2930  178.4920  144.9250 C   0  0  0  0  0  3  0  0  0  0  0  0
  187.2530  177.8830  144.2050 C   0  0  0  0  0  0  0  0  0  0  0  0
  186.1640  178.3890  139.6650 C   0  0  0  0  0  3  0  0  0  0  0  0
  186.5550  178.1630  142.0570 C   0  0  0  0  0  0  0  0  0  0  0  0
  188.6200  177.4660  146.1510 C   0  0  0  0  0  3  0  0  0  0  0  0
  189.7300  177.8390  145.6020 N   0  0  0  0  0  0  0  0  0  0  0  0
  192.2750  175.4850  146.5280 C   0  0  0  0  0  2  0  0  0  0  0  0
  190.7880  177.0320  147.6370 C   0  0  0  0  0  2  0  0  0  0  0  0
  191.0090  177.5160  146.2140 C   0  0  0  0  0  3  0  0  0  0  0  0
  191.3560  175.6290  147.7180 C   0  0  0  0  0  2  0  0  0  0  0  0
  191.6810  176.3780  145.4650 C   0  0  0  0  0  2  0  0  0  0  0  0
  1 18  1  0  0  0  0
  1 27  1  0  0  0  0
  2 27  2  0  0  0  0
  2 14  1  0  0  0  0
  3  7  1  0  0  0  0
  4 15  2  0  0  0  0
  4 18  1  0  0  0  0
  5 19  1  0  0  0  0
  5 11  2  0  0  0  0
  7  6  1  0  0  0  0
  8 16  1  0  0  0  0
  9 13  2  0  0  0  0
  9 25  1  0  0  0  0
 12  8  1  0  0  0  0
 12 15  1  0  0  0  0
 13 24  1  0  0  0  0
 14 25  2  0  0  0  0
 15  5  1  0  0  0  0
 16  3  1  0  0  0  0
 17 28  1  0  0  0  0
 17 10  2  0  0  0  0
 18 20  2  0  0  0  0
 19  6  1  0  0  0  0
 20 11  1  0  0  0  0
 20 13  1  0  0  0  0
 21 23  2  0  0  0  0
 21 26  1  0  0  0  0
 22 10  1  0  0  0  0
 23  4  1  0  0  0  0
 24 22  2  0  0  0  0
 25 17  1  0  0  0  0
 26  1  2  0  0  0  0
 27  9  1  0  0  0  0
 29 28  2  0  0  0  0
 29 32  1  0  0  0  0
 30 33  1  0  0  0  0
 31 33  1  0  0  0  0
 32 31  1  0  0  0  0
 34 32  1  0  0  0  0
 34 30  1  0  0  0  0
M  END
>  <MODEL>
3

>  <REMARK>
 VINA RESULT:      -9.0      1.684      3.797
  Name = 
  2 active torsions:
  status: ('A' for Active; 'I' for Inactive)
    1  A    between atoms: C_17  and  C_28
    2  A    between atoms: N_29  and  C_32
                            x       y       z     vdW  Elec       q    Type
                         _______ _______ _______ _____ _____    ______ ____

>  <TORSDO>
F 2

$$$$
=
 OpenBabel11122412193D

 34 40  0  0  0  0  0  0  0  0999 V2000
  185.1770  178.6680  142.7370 C   0  0  0  0  0  0  0  0  0  0  0  0
  187.6780  178.6110  142.0990 C   0  0  0  0  0  3  0  0  0  0  0  0
  179.8870  180.9510  141.5930 O   0  0  0  0  0  0  0  0  0  0  0  0
  182.7730  178.7030  143.1980 C   0  0  0  0  0  0  0  0  0  0  0  0
  181.1840  178.3870  141.3810 C   0  0  0  0  0  0  0  0  0  0  0  0
  179.4180  179.2700  139.9350 C   0  0  0  0  0  2  0  0  0  0  0  0
  178.9480  180.5460  140.6330 C   0  0  0  0  0  2  0  0  0  0  0  0
  179.0360  179.4300  143.3000 C   0  0  0  0  0  2  0  0  0  0  0  0
  185.9660  178.3330  140.4680 C   0  0  0  0  0  0  0  0  0  0  0  0
  186.5580  177.8860  137.4880 N   0  0  0  0  0  0  0  0  0  0  0  0
  182.2460  178.2710  140.4810 C   0  0  0  0  0  3  0  0  0  0  0  0
  180.3160  178.7330  143.7670 C   0  0  0  0  0  2  0  0  0  0  0  0
  184.6570  178.2350  139.9710 C   0  0  0  0  0  0  0  0  0  0  0  0
  188.2890  178.4210  140.7910 N   0  0  0  0  0  0  0  0  0  0  0  0
  181.4360  178.6180  142.7520 C   0  0  0  0  0  0  0  0  0  0  0  0
  179.2420  180.8780  142.8380 C   0  0  0  0  0  2  0  0  0  0  0  0
  187.5430  178.0600  138.5170 C   0  0  0  0  0  0  0  0  0  0  0  0
  183.8430  178.5760  142.2770 C   0  0  0  0  0  0  0  0  0  0  0  0
  179.8780  178.3230  140.8950 O   0  0  0  0  0  0  0  0  0  0  0  0
  183.5820  178.3590  140.8990 C   0  0  0  0  0  0  0  0  0  0  0  0
  184.3860  179.0060  145.0000 C   0  0  0  0  0  3  0  0  0  0  0  0
  185.2620  177.8690  137.5190 C   0  0  0  0  0  3  0  0  0  0  0  0
  183.0660  178.9170  144.5560 C   0  0  0  0  0  3  0  0  0  0  0  0
  184.3770  178.0320  138.6790 C   0  0  0  0  0  3  0  0  0  0  0  0
  187.2620  178.2540  139.8130 C   0  0  0  0  0  0  0  0  0  0  0  0
  185.4390  178.8820  144.0950 C   0  0  0  0  0  3  0  0  0  0  0  0
  186.2140  178.5430  141.8130 C   0  0  0  0  0  0  0  0  0  0  0  0
  188.9550  178.0220  138.1080 C   0  0  0  0  0  3  0  0  0  0  0  0
  189.5230  176.9120  137.7640 N   0  0  0  0  0  0  0  0  0  0  0  0
  192.3010  175.3280  136.1360 C   0  0  0  0  0  2  0  0  0  0  0  0
  191.7260  176.0740  138.3610 C   0  0  0  0  0  2  0  0  0  0  0  0
  190.9200  176.8840  137.3600 C   0  0  0  0  0  3  0  0  0  0  0  0
  192.3610  174.9310  137.5920 C   0  0  0  0  0  2  0  0  0  0  0  0
  191.0670  176.1900  136.0160 C   0  0  0  0  0  2  0  0  0  0  0  0
  1 26  2  0  0  0  0
  3 16  1  0  0  0  0
  4 23  1  0  0  0  0
  5 15  1  0  0  0  0
  6  7  1  0  0  0  0
  6 19  1  0  0  0  0
  7  3  1  0  0  0  0
  8 12  1  0  0  0  0
  9 27  2  0  0  0  0
 10 22  2  0  0  0  0
 10 17  1  0  0  0  0
 11 20  1  0  0  0  0
 11  5  2  0  0  0  0
 13  9  1  0  0  0  0
 13 20  1  0  0  0  0
 14  2  2  0  0  0  0
 15  4  2  0  0  0  0
 15 12  1  0  0  0  0
 16  8  1  0  0  0  0
 17 25  2  0  0  0  0
 18  1  1  0  0  0  0
 18  4  1  0  0  0  0
 19  5  1  0  0  0  0
 20 18  2  0  0  0  0
 22 24  1  0  0  0  0
 23 21  2  0  0  0  0
 24 13  2  0  0  0  0
 25  9  1  0  0  0  0
 25 14  1  0  0  0  0
 26 21  1  0  0  0  0
 27  2  1  0  0  0  0
 27  1  1  0  0  0  0
 28 17  1  0  0  0  0
 29 28  2  0  0  0  0
 30 33  1  0  0  0  0
 32 29  1  0  0  0  0
 32 31  1  0  0  0  0
 33 31  1  0  0  0  0
 34 30  1  0  0  0  0
 34 32  1  0  0  0  0
M  END
>  <MODEL>
4

>  <REMARK>
 VINA RESULT:      -8.9      2.687      4.060
  Name = 
  2 active torsions:
  status: ('A' for Active; 'I' for Inactive)
    1  A    between atoms: C_17  and  C_28
    2  A    between atoms: N_29  and  C_32
                            x       y       z     vdW  Elec       q    Type
                         _______ _______ _______ _____ _____    ______ ____

>  <TORSDO>
F 2

$$$$
=
 OpenBabel11122412193D

 34 40  0  0  0  0  0  0  0  0999 V2000
  185.8910  178.2500  144.8680 C   0  0  0  0  0  0  0  0  0  0  0  0
  183.5570  178.5720  143.8120 C   0  0  0  0  0  3  0  0  0  0  0  0
  190.9270  175.2280  144.7770 O   0  0  0  0  0  0  0  0  0  0  0  0
  188.1610  177.9470  145.7330 C   0  0  0  0  0  0  0  0  0  0  0  0
  190.0490  177.9100  144.1970 C   0  0  0  0  0  0  0  0  0  0  0  0
  191.8850  176.6960  143.1270 C   0  0  0  0  0  2  0  0  0  0  0  0
  192.0550  175.4310  143.9680 C   0  0  0  0  0  2  0  0  0  0  0  0
  191.6950  176.7610  146.5110 C   0  0  0  0  0  2  0  0  0  0  0  0
  185.5310  178.4980  142.4820 C   0  0  0  0  0  0  0  0  0  0  0  0
  185.4940  178.7740  139.4240 N   0  0  0  0  0  0  0  0  0  0  0  0
  189.1730  178.0870  143.1240 C   0  0  0  0  0  3  0  0  0  0  0  0
  190.4670  177.6510  146.7130 C   0  0  0  0  0  2  0  0  0  0  0  0
  186.9040  178.3880  142.2110 C   0  0  0  0  0  0  0  0  0  0  0  0
  183.1970  178.7330  142.4100 N   0  0  0  0  0  0  0  0  0  0  0  0
  189.5510  177.8250  145.5160 C   0  0  0  0  0  0  0  0  0  0  0  0
  191.3680  175.3190  146.1070 C   0  0  0  0  0  2  0  0  0  0  0  0
  184.3420  178.8100  140.2790 C   0  0  0  0  0  0  0  0  0  0  0  0
  187.2810  178.1340  144.6380 C   0  0  0  0  0  0  0  0  0  0  0  0
  191.4130  177.7680  143.9370 O   0  0  0  0  0  0  0  0  0  0  0  0
  187.7880  178.2040  143.3130 C   0  0  0  0  0  0  0  0  0  0  0  0
  186.2530  177.9990  147.2490 C   0  0  0  0  0  3  0  0  0  0  0  0
  186.7580  178.6280  139.6740 C   0  0  0  0  0  3  0  0  0  0  0  0
  187.6270  177.8830  147.0310 C   0  0  0  0  0  3  0  0  0  0  0  0
  187.4130  178.4490  140.9750 C   0  0  0  0  0  3  0  0  0  0  0  0
  184.3810  178.6880  141.6130 C   0  0  0  0  0  0  0  0  0  0  0  0
  185.3870  178.1810  146.1720 C   0  0  0  0  0  3  0  0  0  0  0  0
  185.0430  178.4300  143.7760 C   0  0  0  0  0  0  0  0  0  0  0  0
  183.0330  178.9940  139.6340 C   0  0  0  0  0  3  0  0  0  0  0  0
  182.7660  180.0600  138.9520 N   0  0  0  0  0  0  0  0  0  0  0  0
  179.3030  179.1980  138.5730 C   0  0  0  0  0  2  0  0  0  0  0  0
  181.2990  179.2040  137.2120 C   0  0  0  0  0  2  0  0  0  0  0  0
  181.4690  180.2330  138.3170 C   0  0  0  0  0  3  0  0  0  0  0  0
  180.0720  178.3840  137.5590 C   0  0  0  0  0  2  0  0  0  0  0  0
  180.3530  179.9860  139.3190 C   0  0  0  0  0  2  0  0  0  0  0  0
  1 26  2  0  0  0  0
  3 16  1  0  0  0  0
  4 23  1  0  0  0  0
  5 15  1  0  0  0  0
  6 19  1  0  0  0  0
  6  7  1  0  0  0  0
  7  3  1  0  0  0  0
  8 12  1  0  0  0  0
  9 27  2  0  0  0  0
 10 22  2  0  0  0  0
 10 17  1  0  0  0  0
 11 20  1  0  0  0  0
 11  5  2  0  0  0  0
 13  9  1  0  0  0  0
 13 20  1  0  0  0  0
 14  2  2  0  0  0  0
 15  4  2  0  0  0  0
 15 12  1  0  0  0  0
 16  8  1  0  0  0  0
 17 25  2  0  0  0  0
 18  1  1  0  0  0  0
 18  4  1  0  0  0  0
 19  5  1  0  0  0  0
 20 18  2  0  0  0  0
 22 24  1  0  0  0  0
 23 21  2  0  0  0  0
 24 13  2  0  0  0  0
 25 14  1  0  0  0  0
 25  9  1  0  0  0  0
 26 21  1  0  0  0  0
 27  2  1  0  0  0  0
 27  1  1  0  0  0  0
 28 17  1  0  0  0  0
 29 28  2  0  0  0  0
 30 34  1  0  0  0  0
 31 33  1  0  0  0  0
 31 32  1  0  0  0  0
 32 29  1  0  0  0  0
 32 34  1  0  0  0  0
 33 30  1  0  0  0  0
M  END
>  <MODEL>
5

>  <REMARK>
 VINA RESULT:      -8.9      3.478      9.135
  Name = 
  2 active torsions:
  status: ('A' for Active; 'I' for Inactive)
    1  A    between atoms: C_17  and  C_28
    2  A    between atoms: N_29  and  C_32
                            x       y       z     vdW  Elec       q    Type
                         _______ _______ _______ _____ _____    ______ ____

>  <TORSDO>
F 2

$$$$
=
 OpenBabel11122412193D

 34 40  0  0  0  0  0  0  0  0999 V2000
  189.3280  177.6790  142.2320 C   0  0  0  0  0  0  0  0  0  0  0  0
  188.2890  178.4460  139.9970 C   0  0  0  0  0  3  0  0  0  0  0  0
  189.8950  178.7360  147.9820 O   0  0  0  0  0  0  0  0  0  0  0  0
  190.1780  176.9630  144.4130 C   0  0  0  0  0  0  0  0  0  0  0  0
  188.6550  176.7540  146.3000 C   0  0  0  0  0  0  0  0  0  0  0  0
  187.8910  177.5080  148.5000 C   0  0  0  0  0  2  0  0  0  0  0  0
  189.0310  178.3800  149.0270 C   0  0  0  0  0  2  0  0  0  0  0  0
  191.1430  176.6430  148.0830 C   0  0  0  0  0  2  0  0  0  0  0  0
  186.9720  178.1890  141.9630 C   0  0  0  0  0  0  0  0  0  0  0  0
  183.9510  178.7380  142.0310 N   0  0  0  0  0  0  0  0  0  0  0  0
  187.5980  177.1650  145.4850 C   0  0  0  0  0  3  0  0  0  0  0  0
  191.1370  176.2010  146.6190 C   0  0  0  0  0  2  0  0  0  0  0  0
  186.7000  177.8940  143.3090 C   0  0  0  0  0  0  0  0  0  0  0  0
  186.9050  178.7830  139.6940 N   0  0  0  0  0  0  0  0  0  0  0  0
  189.9630  176.6610  145.7760 C   0  0  0  0  0  0  0  0  0  0  0  0
  191.1420  178.1640  148.2810 C   0  0  0  0  0  2  0  0  0  0  0  0
  184.7980  178.8740  140.8810 C   0  0  0  0  0  0  0  0  0  0  0  0
  189.0970  177.3730  143.5930 C   0  0  0  0  0  0  0  0  0  0  0  0
  188.4030  176.4890  147.6470 O   0  0  0  0  0  0  0  0  0  0  0  0
  187.7870  177.4790  144.1320 C   0  0  0  0  0  0  0  0  0  0  0  0
  191.6790  177.1710  142.5040 C   0  0  0  0  0  3  0  0  0  0  0  0
  184.1950  178.3780  143.2530 C   0  0  0  0  0  3  0  0  0  0  0  0
  191.4620  176.8680  143.8500 C   0  0  0  0  0  3  0  0  0  0  0  0
  185.4790  177.9850  143.8460 C   0  0  0  0  0  3  0  0  0  0  0  0
  186.1150  178.6290  140.8740 C   0  0  0  0  0  0  0  0  0  0  0  0
  190.6170  177.5750  141.6980 C   0  0  0  0  0  3  0  0  0  0  0  0
  188.2500  178.0820  141.4440 C   0  0  0  0  0  0  0  0  0  0  0  0
  184.1640  179.3150  139.6290 C   0  0  0  0  0  3  0  0  0  0  0  0
  182.8770  179.3820  139.5170 N   0  0  0  0  0  0  0  0  0  0  0  0
  180.5720  181.4480  137.7030 C   0  0  0  0  0  2  0  0  0  0  0  0
  180.9420  179.0900  138.0740 C   0  0  0  0  0  2  0  0  0  0  0  0
  182.2600  179.8200  138.2760 C   0  0  0  0  0  3  0  0  0  0  0  0
  179.8590  180.1490  137.9960 C   0  0  0  0  0  2  0  0  0  0  0  0
  181.9310  181.3020  138.3430 C   0  0  0  0  0  2  0  0  0  0  0  0
  1 18  1  0  0  0  0
  2 27  1  0  0  0  0
  3 16  1  0  0  0  0
  3  7  1  0  0  0  0
  4 15  2  0  0  0  0
  5 19  1  0  0  0  0
  6  7  1  0  0  0  0
  8 16  1  0  0  0  0
  9 13  1  0  0  0  0
 10 22  2  0  0  0  0
 11  5  2  0  0  0  0
 12  8  1  0  0  0  0
 13 24  2  0  0  0  0
 13 20  1  0  0  0  0
 14  2  2  0  0  0  0
 14 25  1  0  0  0  0
 15  5  1  0  0  0  0
 15 12  1  0  0  0  0
 17 10  1  0  0  0  0
 18 20  2  0  0  0  0
 18  4  1  0  0  0  0
 19  6  1  0  0  0  0
 20 11  1  0  0  0  0
 21 23  2  0  0  0  0
 22 24  1  0  0  0  0
 23  4  1  0  0  0  0
 25 17  2  0  0  0  0
 25  9  1  0  0  0  0
 26  1  2  0  0  0  0
 26 21  1  0  0  0  0
 27  9  2  0  0  0  0
 27  1  1  0  0  0  0
 28 17  1  0  0  0  0
 29 28  2  0  0  0  0
 30 33  1  0  0  0  0
 30 34  1  0  0  0  0
 31 32  1  0  0  0  0
 32 34  1  0  0  0  0
 32 29  1  0  0  0  0
 33 31  1  0  0  0  0
M  END
>  <MODEL>
6

>  <REMARK>
 VINA RESULT:      -8.7      3.689      9.760
  Name = 
  2 active torsions:
  status: ('A' for Active; 'I' for Inactive)
    1  A    between atoms: C_17  and  C_28
    2  A    between atoms: N_29  and  C_32
                            x       y       z     vdW  Elec       q    Type
                         _______ _______ _______ _____ _____    ______ ____

>  <TORSDO>
F 2

$$$$
=
 OpenBabel11122412193D

 34 40  0  0  0  0  0  0  0  0999 V2000
  185.7130  178.3910  140.7320 C   0  0  0  0  0  0  0  0  0  0  0  0
  187.6230  178.0870  142.4420 C   0  0  0  0  0  3  0  0  0  0  0  0
  180.3350  176.7250  139.0580 O   0  0  0  0  0  0  0  0  0  0  0  0
  183.8070  178.6920  139.2250 C   0  0  0  0  0  0  0  0  0  0  0  0
  181.5860  179.0830  140.1410 C   0  0  0  0  0  0  0  0  0  0  0  0
  179.2850  178.3350  140.5070 C   0  0  0  0  0  2  0  0  0  0  0  0
  179.0920  177.1790  139.5250 C   0  0  0  0  0  2  0  0  0  0  0  0
  180.5040  178.4530  137.3450 C   0  0  0  0  0  2  0  0  0  0  0  0
  185.3770  178.4690  143.1330 C   0  0  0  0  0  0  0  0  0  0  0  0
  184.5450  178.6340  146.0850 N   0  0  0  0  0  0  0  0  0  0  0  0
  182.1110  179.0030  141.4330 C   0  0  0  0  0  3  0  0  0  0  0  0
  181.9050  179.0130  137.5990 C   0  0  0  0  0  2  0  0  0  0  0  0
  184.0000  178.6980  142.9860 C   0  0  0  0  0  0  0  0  0  0  0  0
  187.5670  178.1100  143.8970 N   0  0  0  0  0  0  0  0  0  0  0  0
  182.4280  178.9150  139.0200 C   0  0  0  0  0  0  0  0  0  0  0  0
  180.3530  176.9630  137.6740 C   0  0  0  0  0  2  0  0  0  0  0  0
  185.8780  178.4070  145.6050 C   0  0  0  0  0  0  0  0  0  0  0  0
  184.3310  178.6200  140.5400 C   0  0  0  0  0  0  0  0  0  0  0  0
  180.2140  179.2790  139.9820 O   0  0  0  0  0  0  0  0  0  0  0  0
  183.4750  178.7750  141.6630 C   0  0  0  0  0  0  0  0  0  0  0  0
  186.0440  178.3110  138.3350 C   0  0  0  0  0  3  0  0  0  0  0  0
  183.4190  178.8170  145.4680 C   0  0  0  0  0  3  0  0  0  0  0  0
  184.6810  178.5360  138.1360 C   0  0  0  0  0  3  0  0  0  0  0  0
  183.1680  178.8470  144.0230 C   0  0  0  0  0  3  0  0  0  0  0  0
  186.2190  178.3380  144.3110 C   0  0  0  0  0  0  0  0  0  0  0  0
  186.5590  178.2380  139.6280 C   0  0  0  0  0  3  0  0  0  0  0  0
  186.2060  178.3200  142.0350 C   0  0  0  0  0  0  0  0  0  0  0  0
  186.9350  178.2380  146.6150 C   0  0  0  0  0  3  0  0  0  0  0  0
  187.3060  177.0630  147.0070 N   0  0  0  0  0  0  0  0  0  0  0  0
  190.2130  178.2580  148.7370 C   0  0  0  0  0  2  0  0  0  0  0  0
  189.6140  176.3780  147.3430 C   0  0  0  0  0  2  0  0  0  0  0  0
  188.3520  176.9060  148.0040 C   0  0  0  0  0  3  0  0  0  0  0  0
  190.7040  177.4020  147.5930 C   0  0  0  0  0  2  0  0  0  0  0  0
  188.7090  178.2530  148.6120 C   0  0  0  0  0  2  0  0  0  0  0  0
  1 27  1  0  0  0  0
  2 14  1  0  0  0  0
  3  7  1  0  0  0  0
  4 18  1  0  0  0  0
  5 11  2  0  0  0  0
  7  6  1  0  0  0  0
  8 12  1  0  0  0  0
  8 16  1  0  0  0  0
  9 25  1  0  0  0  0
 11 20  1  0  0  0  0
 12 15  1  0  0  0  0
 13  9  2  0  0  0  0
 13 24  1  0  0  0  0
 14 25  2  0  0  0  0
 15  4  2  0  0  0  0
 15  5  1  0  0  0  0
 16  3  1  0  0  0  0
 17 10  2  0  0  0  0
 17 28  1  0  0  0  0
 18  1  1  0  0  0  0
 18 20  2  0  0  0  0
 19  5  1  0  0  0  0
 19  6  1  0  0  0  0
 20 13  1  0  0  0  0
 21 26  1  0  0  0  0
 22 10  1  0  0  0  0
 23 21  2  0  0  0  0
 23  4  1  0  0  0  0
 24 22  2  0  0  0  0
 25 17  1  0  0  0  0
 26  1  2  0  0  0  0
 27  2  2  0  0  0  0
 27  9  1  0  0  0  0
 28 29  2  0  0  0  0
 29 32  1  0  0  0  0
 31 33  1  0  0  0  0
 31 32  1  0  0  0  0
 32 34  1  0  0  0  0
 33 30  1  0  0  0  0
 34 30  1  0  0  0  0
M  END
>  <MODEL>
7

>  <REMARK>
 VINA RESULT:      -8.5      1.974      4.220
  Name = 
  2 active torsions:
  status: ('A' for Active; 'I' for Inactive)
    1  A    between atoms: C_17  and  C_28
    2  A    between atoms: N_29  and  C_32
                            x       y       z     vdW  Elec       q    Type
                         _______ _______ _______ _____ _____    ______ ____

>  <TORSDO>
F 2

$$$$
=
 OpenBabel11122412193D

 34 40  0  0  0  0  0  0  0  0999 V2000
  187.8910  177.7080  142.5440 C   0  0  0  0  0  0  0  0  0  0  0  0
  185.7140  177.9520  143.9110 C   0  0  0  0  0  3  0  0  0  0  0  0
  190.5040  175.2280  137.9050 O   0  0  0  0  0  0  0  0  0  0  0  0
  189.8760  177.5060  141.1260 C   0  0  0  0  0  0  0  0  0  0  0  0
  189.6940  177.8680  138.7250 C   0  0  0  0  0  0  0  0  0  0  0  0
  189.7900  176.9990  136.4400 C   0  0  0  0  0  2  0  0  0  0  0  0
  190.4980  175.6500  136.5670 C   0  0  0  0  0  2  0  0  0  0  0  0
  192.4570  176.5670  138.4880 C   0  0  0  0  0  2  0  0  0  0  0  0
  185.7470  178.2560  141.5500 C   0  0  0  0  0  0  0  0  0  0  0  0
  183.2390  178.9560  139.9220 N   0  0  0  0  0  0  0  0  0  0  0  0
  188.3260  178.1100  138.8710 C   0  0  0  0  0  3  0  0  0  0  0  0
  191.9760  177.2970  139.7430 C   0  0  0  0  0  2  0  0  0  0  0  0
  186.3020  178.3180  140.2610 C   0  0  0  0  0  0  0  0  0  0  0  0
  184.3710  178.2730  143.4500 N   0  0  0  0  0  0  0  0  0  0  0  0
  190.4840  177.5490  139.8520 C   0  0  0  0  0  0  0  0  0  0  0  0
  191.8500  175.1710  138.3000 C   0  0  0  0  0  2  0  0  0  0  0  0
  183.2840  178.7600  141.3430 C   0  0  0  0  0  0  0  0  0  0  0  0
  188.4880  177.7600  141.2640 C   0  0  0  0  0  0  0  0  0  0  0  0
  190.2500  177.8950  137.4460 O   0  0  0  0  0  0  0  0  0  0  0  0
  187.6980  178.0650  140.1240 C   0  0  0  0  0  0  0  0  0  0  0  0
  190.0320  177.1600  143.5330 C   0  0  0  0  0  3  0  0  0  0  0  0
  184.1560  178.8980  139.0070 C   0  0  0  0  0  3  0  0  0  0  0  0
  190.6300  177.2080  142.2730 C   0  0  0  0  0  3  0  0  0  0  0  0
  185.5840  178.6000  139.1690 C   0  0  0  0  0  3  0  0  0  0  0  0
  184.3910  178.4550  142.0340 C   0  0  0  0  0  0  0  0  0  0  0  0
  188.6670  177.4090  143.6690 C   0  0  0  0  0  3  0  0  0  0  0  0
  186.5240  177.9590  142.6560 C   0  0  0  0  0  0  0  0  0  0  0  0
  182.0200  178.9080  142.0810 C   0  0  0  0  0  3  0  0  0  0  0  0
  180.8840  178.6390  141.5260 N   0  0  0  0  0  0  0  0  0  0  0  0
  178.9310  180.1270  144.1420 C   0  0  0  0  0  2  0  0  0  0  0  0
  179.6790  177.9190  143.5110 C   0  0  0  0  0  2  0  0  0  0  0  0
  179.6400  178.7870  142.2640 C   0  0  0  0  0  3  0  0  0  0  0  0
  179.5050  178.8460  144.6980 C   0  0  0  0  0  2  0  0  0  0  0  0
  179.4730  180.2210  142.7360 C   0  0  0  0  0  2  0  0  0  0  0  0
  1 27  1  0  0  0  0
  1 26  1  0  0  0  0
  3 16  1  0  0  0  0
  4 18  1  0  0  0  0
  4 23  2  0  0  0  0
  5 11  1  0  0  0  0
  5 15  2  0  0  0  0
  6  7  1  0  0  0  0
  6 19  1  0  0  0  0
  7  3  1  0  0  0  0
  8 12  1  0  0  0  0
  9 25  1  0  0  0  0
  9 27  1  0  0  0  0
 10 17  2  0  0  0  0
 11 20  2  0  0  0  0
 12 15  1  0  0  0  0
 13  9  2  0  0  0  0
 14  2  1  0  0  0  0
 15  4  1  0  0  0  0
 16  8  1  0  0  0  0
 17 25  1  0  0  0  0
 17 28  1  0  0  0  0
 18  1  2  0  0  0  0
 19  5  1  0  0  0  0
 20 13  1  0  0  0  0
 20 18  1  0  0  0  0
 21 26  2  0  0  0  0
 22 24  2  0  0  0  0
 22 10  1  0  0  0  0
 23 21  1  0  0  0  0
 24 13  1  0  0  0  0
 25 14  2  0  0  0  0
 27  2  2  0  0  0  0
 29 28  2  0  0  0  0
 29 32  1  0  0  0  0
 30 33  1  0  0  0  0
 31 33  1  0  0  0  0
 32 34  1  0  0  0  0
 32 31  1  0  0  0  0
 34 30  1  0  0  0  0
M  END
>  <MODEL>
8

>  <REMARK>
 VINA RESULT:      -8.5      3.556      8.676
  Name = 
  2 active torsions:
  status: ('A' for Active; 'I' for Inactive)
    1  A    between atoms: C_17  and  C_28
    2  A    between atoms: N_29  and  C_32
                            x       y       z     vdW  Elec       q    Type
                         _______ _______ _______ _____ _____    ______ ____

>  <TORSDO>
F 2

$$$$
=
 OpenBabel11122412193D

 34 40  0  0  0  0  0  0  0  0999 V2000
  182.7480  178.6160  141.1330 C   0  0  0  0  0  0  0  0  0  0  0  0
  184.6100  178.9110  142.8970 C   0  0  0  0  0  3  0  0  0  0  0  0
  180.6820  180.2460  135.8820 O   0  0  0  0  0  0  0  0  0  0  0  0
  181.0890  178.3190  139.3580 C   0  0  0  0  0  0  0  0  0  0  0  0
  181.8180  177.8830  137.0770 C   0  0  0  0  0  0  0  0  0  0  0  0
  182.0130  178.5950  134.7430 C   0  0  0  0  0  2  0  0  0  0  0  0
  181.0400  179.7670  134.6130 C   0  0  0  0  0  2  0  0  0  0  0  0
  178.9570  178.5530  136.2110 C   0  0  0  0  0  2  0  0  0  0  0  0
  185.1130  178.4870  140.6090 C   0  0  0  0  0  0  0  0  0  0  0  0
  187.9860  178.2550  139.5480 N   0  0  0  0  0  0  0  0  0  0  0  0
  183.1490  177.9450  137.4960 C   0  0  0  0  0  3  0  0  0  0  0  0
  179.3110  178.0070  137.5960 C   0  0  0  0  0  2  0  0  0  0  0  0
  184.8530  178.2430  139.2510 C   0  0  0  0  0  0  0  0  0  0  0  0
  186.0550  178.8590  142.7260 N   0  0  0  0  0  0  0  0  0  0  0  0
  180.7700  178.0830  138.0030 C   0  0  0  0  0  0  0  0  0  0  0  0
  179.3000  180.0350  136.0130 C   0  0  0  0  0  2  0  0  0  0  0  0
  187.6180  178.5080  140.9120 C   0  0  0  0  0  0  0  0  0  0  0  0
  182.4430  178.3730  139.7740 C   0  0  0  0  0  0  0  0  0  0  0  0
  181.5470  177.6730  135.7240 O   0  0  0  0  0  0  0  0  0  0  0  0
  183.4910  178.1860  138.8340 C   0  0  0  0  0  0  0  0  0  0  0  0
  180.3870  178.7470  141.6530 C   0  0  0  0  0  3  0  0  0  0  0  0
  187.2780  178.0690  138.4770 C   0  0  0  0  0  3  0  0  0  0  0  0
  180.0750  178.5080  140.3130 C   0  0  0  0  0  3  0  0  0  0  0  0
  185.8170  178.0640  138.3420 C   0  0  0  0  0  3  0  0  0  0  0  0
  186.3570  178.6050  141.3530 C   0  0  0  0  0  0  0  0  0  0  0  0
  181.7180  178.8010  142.0620 C   0  0  0  0  0  3  0  0  0  0  0  0
  184.0870  178.6680  141.5200 C   0  0  0  0  0  0  0  0  0  0  0  0
  188.7110  178.6700  141.8820 C   0  0  0  0  0  3  0  0  0  0  0  0
  189.3560  177.6480  142.3420 N   0  0  0  0  0  0  0  0  0  0  0  0
  191.4480  176.4160  144.9840 C   0  0  0  0  0  2  0  0  0  0  0  0
  189.8640  178.2080  144.6530 C   0  0  0  0  0  2  0  0  0  0  0  0
  190.4360  177.8190  143.3010 C   0  0  0  0  0  3  0  0  0  0  0  0
  190.2960  177.1400  145.6390 C   0  0  0  0  0  2  0  0  0  0  0  0
  191.1770  176.5070  143.5020 C   0  0  0  0  0  2  0  0  0  0  0  0
  1 27  1  0  0  0  0
  1 26  1  0  0  0  0
  3 16  1  0  0  0  0
  4 18  1  0  0  0  0
  4 23  2  0  0  0  0
  5 11  1  0  0  0  0
  5 15  2  0  0  0  0
  6 19  1  0  0  0  0
  7  6  1  0  0  0  0
  7  3  1  0  0  0  0
  8 12  1  0  0  0  0
  9 25  1  0  0  0  0
  9 27  1  0  0  0  0
 10 17  2  0  0  0  0
 11 20  2  0  0  0  0
 12 15  1  0  0  0  0
 13  9  2  0  0  0  0
 14  2  1  0  0  0  0
 15  4  1  0  0  0  0
 16  8  1  0  0  0  0
 17 25  1  0  0  0  0
 17 28  1  0  0  0  0
 18  1  2  0  0  0  0
 19  5  1  0  0  0  0
 20 13  1  0  0  0  0
 20 18  1  0  0  0  0
 21 26  2  0  0  0  0
 22 10  1  0  0  0  0
 23 21  1  0  0  0  0
 24 22  2  0  0  0  0
 24 13  1  0  0  0  0
 25 14  2  0  0  0  0
 27  2  2  0  0  0  0
 28 29  2  0  0  0  0
 29 32  1  0  0  0  0
 30 33  1  0  0  0  0
 31 33  1  0  0  0  0
 32 34  1  0  0  0  0
 32 31  1  0  0  0  0
 34 30  1  0  0  0  0
M  END
>  <MODEL>
9

>  <REMARK>
 VINA RESULT:      -7.9      1.741      2.334
  Name = 
  2 active torsions:
  status: ('A' for Active; 'I' for Inactive)
    1  A    between atoms: C_17  and  C_28
    2  A    between atoms: N_29  and  C_32
                            x       y       z     vdW  Elec       q    Type
                         _______ _______ _______ _____ _____    ______ ____

>  <TORSDO>
F 2

$$$$
