=
 OpenBabel11122412013D

 28 32  0  0  1  0  0  0  0  0999 V2000
  184.3130  177.2800  138.1720 C   0  0  0  0  0  0  0  0  0  0  0  0
  182.0250  179.6500  138.6620 O   0  0  0  0  0  0  0  0  0  0  0  0
  185.6240  177.7760  144.1570 C   0  0  0  0  0  1  0  0  0  0  0  0
  182.9840  174.8880  137.5590 C   0  0  0  0  0  3  0  0  0  0  0  0
  183.5560  178.9460  143.2550 C   0  0  0  0  0  0  0  0  0  0  0  0
  185.0920  178.5210  138.4470 C   0  0  0  0  0  2  0  0  0  0  0  0
  180.3720  177.9180  138.1250 O   0  0  0  0  0  0  0  0  0  0  0  0
  180.9220  178.7910  139.2160 S   0  0  0  0  0  0  0  0  0  0  0  0
  180.1040  180.4880  141.1260 C   0  0  1  0  0  3  0  0  0  0  0  0
  181.5170  177.7640  140.5740 C   0  0  2  0  0  3  0  0  0  0  0  0
  188.2170  178.9520  140.1570 O   0  0  0  0  0  0  0  0  0  0  0  0
  183.7940  178.5620  140.9400 C   0  0  1  0  0  3  0  0  0  0  0  0
  180.3310  179.4210  142.1910 C   0  0  0  0  0  2  0  0  0  0  0  0
  179.6340  179.8440  139.8360 C   0  0  0  0  0  2  0  0  0  0  0  0
  186.9910  178.6740  140.1210 C   0  0  0  0  0  0  0  0  0  0  0  0
  183.3620  176.7510  139.0830 C   0  0  0  0  0  0  0  0  0  0  0  0
  184.7620  178.2320  143.0800 N   0  0  0  0  0  0  0  0  0  0  0  0
  179.0950  181.4210  141.5900 N   0  0  0  0  0  1  0  0  0  0  0  0
  186.2070  178.8530  141.3070 N   0  0  0  0  0  2  0  0  0  0  0  0
  182.7150  175.5500  138.7590 C   0  0  0  0  0  3  0  0  0  0  0  0
  184.5740  176.6070  136.9730 C   0  0  0  0  0  3  0  0  0  0  0  0
  183.9110  175.4180  136.6640 C   0  0  0  0  0  3  0  0  0  0  0  0
  186.4300  178.1810  138.9010 N   0  0  0  0  0  2  0  0  0  0  0  0
  182.8840  179.2530  141.9750 C   0  0  1  0  0  3  0  0  0  0  0  0
  185.0440  178.0490  141.6690 C   0  0  2  0  0  3  0  0  0  0  0  0
  181.5430  178.5310  141.8940 C   0  0  2  0  0  3  0  0  0  0  0  0
  183.1190  179.2930  144.3830 O   0  0  0  0  0  0  0  0  0  0  0  0
  182.9820  177.3830  140.4090 C   0  0  2  0  0  3  0  0  0  0  0  0
  1  6  1  0  0  0  0
  1 16  1  0  0  0  0
  2  8  2  0  0  0  0
  4 20  1  0  0  0  0
  5 27  2  0  0  0  0
  6 23  1  0  0  0  0
  7  8  2  0  0  0  0
  8 14  1  0  0  0  0
  9 18  1  1  0  0  0
  9 13  1  0  0  0  0
 10  8  1  6  0  0  0
 10 26  1  0  0  0  0
 12 25  1  0  0  0  0
 12 24  1  0  0  0  0
 14  9  1  0  0  0  0
 15 11  2  0  0  0  0
 15 19  1  0  0  0  0
 16 28  1  0  0  0  0
 17  5  1  0  0  0  0
 17  3  1  0  0  0  0
 19 25  1  0  0  0  0
 20 16  2  0  0  0  0
 21  1  2  0  0  0  0
 22 21  1  0  0  0  0
 22  4  2  0  0  0  0
 23 15  1  0  0  0  0
 24  5  1  0  0  0  0
 25 17  1  0  0  0  0
 26 24  1  0  0  0  0
 26 13  1  0  0  0  0
 28 10  1  0  0  0  0
 28 12  1  0  0  0  0
M  END
>  <MODEL>
1

>  <REMARK>
 VINA RESULT:      -6.4      0.000      0.000
  Name = 
  0 active torsions:
  status: ('A' for Active; 'I' for Inactive)
                            x       y       z     vdW  Elec       q    Type
                         _______ _______ _______ _____ _____    ______ ____

>  <TORSDO>
F 0

$$$$
=
 OpenBabel11122412013D

 28 32  0  0  1  0  0  0  0  0999 V2000
  182.4620  179.9320  138.6600 C   0  0  0  0  0  0  0  0  0  0  0  0
  181.1020  177.7220  140.7490 O   0  0  0  0  0  0  0  0  0  0  0  0
  184.7730  175.1230  135.6070 C   0  0  0  0  0  1  0  0  0  0  0  0
  180.3930  181.2010  137.2550 C   0  0  0  0  0  3  0  0  0  0  0  0
  183.0430  174.7060  137.4210 C   0  0  0  0  0  0  0  0  0  0  0  0
  183.6120  179.3340  139.3970 C   0  0  0  0  0  2  0  0  0  0  0  0
  178.9410  178.5170  139.9030 O   0  0  0  0  0  0  0  0  0  0  0  0
  179.8920  177.3550  139.9360 S   0  0  0  0  0  0  0  0  0  0  0  0
  179.9320  174.7210  140.4460 C   0  0  1  0  0  3  0  0  0  0  0  0
  180.3510  176.8980  138.2530 C   0  0  2  0  0  3  0  0  0  0  0  0
  186.9470  178.6220  138.2790 O   0  0  0  0  0  0  0  0  0  0  0  0
  182.7900  176.8740  138.3120 C   0  0  1  0  0  3  0  0  0  0  0  0
  179.9880  174.4180  138.9530 C   0  0  0  0  0  2  0  0  0  0  0  0
  179.0950  175.9620  140.6940 C   0  0  0  0  0  2  0  0  0  0  0  0
  185.7040  178.4290  138.2850 C   0  0  0  0  0  0  0  0  0  0  0  0
  181.5490  179.1550  137.9000 C   0  0  0  0  0  0  0  0  0  0  0  0
  183.9330  175.5440  136.7150 N   0  0  0  0  0  0  0  0  0  0  0  0
  179.3370  173.5950  141.1410 N   0  0  0  0  0  1  0  0  0  0  0  0
  185.2050  177.1330  137.9290 N   0  0  0  0  0  2  0  0  0  0  0  0
  180.5270  179.8120  137.2000 C   0  0  0  0  0  3  0  0  0  0  0  0
  182.3180  181.3230  138.7070 C   0  0  0  0  0  3  0  0  0  0  0  0
  181.2870  181.9560  138.0120 C   0  0  0  0  0  3  0  0  0  0  0  0
  184.8390  179.5110  138.6370 N   0  0  0  0  0  2  0  0  0  0  0  0
  182.3050  175.4220  138.4820 C   0  0  1  0  0  3  0  0  0  0  0  0
  183.9250  176.8810  137.2770 C   0  0  2  0  0  3  0  0  0  0  0  0
  180.8120  175.4450  138.1670 C   0  0  2  0  0  3  0  0  0  0  0  0
  182.9110  173.4780  137.1740 O   0  0  0  0  0  0  0  0  0  0  0  0
  181.5890  177.6440  137.7710 C   0  0  2  0  0  3  0  0  0  0  0  0
  1 21  1  0  0  0  0
  1  6  1  0  0  0  0
  3 17  1  0  0  0  0
  4 22  1  0  0  0  0
  5 24  1  0  0  0  0
  7  8  2  0  0  0  0
  8 14  1  0  0  0  0
  8  2  2  0  0  0  0
  9 14  1  0  0  0  0
  9 18  1  1  0  0  0
 10  8  1  1  0  0  0
 11 15  2  0  0  0  0
 12 24  1  0  0  0  0
 13  9  1  0  0  0  0
 15 23  1  0  0  0  0
 16  1  2  0  0  0  0
 17 25  1  0  0  0  0
 17  5  1  0  0  0  0
 19 15  1  0  0  0  0
 20  4  2  0  0  0  0
 20 16  1  0  0  0  0
 22 21  2  0  0  0  0
 23  6  1  0  0  0  0
 25 19  1  0  0  0  0
 25 12  1  0  0  0  0
 26 10  1  0  0  0  0
 26 24  1  0  0  0  0
 26 13  1  0  0  0  0
 27  5  2  0  0  0  0
 28 16  1  0  0  0  0
 28 10  1  0  0  0  0
 28 12  1  0  0  0  0
M  END
>  <MODEL>
2

>  <REMARK>
 VINA RESULT:      -6.0      3.016      5.147
  Name = 
  0 active torsions:
  status: ('A' for Active; 'I' for Inactive)
                            x       y       z     vdW  Elec       q    Type
                         _______ _______ _______ _____ _____    ______ ____

>  <TORSDO>
F 0

$$$$
=
 OpenBabel11122412013D

 28 32  0  0  1  0  0  0  0  0999 V2000
  183.0850  177.3300  137.1120 C   0  0  0  0  0  0  0  0  0  0  0  0
  184.2370  174.2080  137.2410 O   0  0  0  0  0  0  0  0  0  0  0  0
  188.9540  179.1490  137.3010 C   0  0  0  0  0  1  0  0  0  0  0  0
  181.9180  177.7330  134.5940 C   0  0  0  0  0  3  0  0  0  0  0  0
  188.4460  176.6850  136.9430 C   0  0  0  0  0  0  0  0  0  0  0  0
  183.6470  177.1800  138.4840 C   0  0  0  0  0  2  0  0  0  0  0  0
  183.3230  173.9650  134.9770 O   0  0  0  0  0  0  0  0  0  0  0  0
  184.5850  174.0330  135.7890 S   0  0  0  0  0  0  0  0  0  0  0  0
  186.8920  172.7120  136.1530 C   0  0  1  0  0  3  0  0  0  0  0  0
  185.6140  175.3900  135.1970 C   0  0  2  0  0  3  0  0  0  0  0  0
  185.3150  179.5770  140.5690 O   0  0  0  0  0  0  0  0  0  0  0  0
  186.1050  176.6610  137.2220 C   0  0  1  0  0  3  0  0  0  0  0  0
  187.6390  173.7620  135.3400 C   0  0  0  0  0  2  0  0  0  0  0  0
  185.4930  172.5200  135.5960 C   0  0  0  0  0  2  0  0  0  0  0  0
  185.2460  178.8280  139.5620 C   0  0  0  0  0  0  0  0  0  0  0  0
  183.8580  177.1290  135.9380 C   0  0  0  0  0  0  0  0  0  0  0  0
  188.0570  178.0070  137.2500 N   0  0  0  0  0  0  0  0  0  0  0  0
  187.6100  171.4530  136.0850 N   0  0  0  0  0  1  0  0  0  0  0  0
  186.4610  178.3550  138.9670 N   0  0  0  0  0  2  0  0  0  0  0  0
  183.2550  177.3430  134.6900 C   0  0  0  0  0  3  0  0  0  0  0  0
  181.7460  177.7220  137.0010 C   0  0  0  0  0  3  0  0  0  0  0  0
  181.1620  177.9200  135.7490 C   0  0  0  0  0  3  0  0  0  0  0  0
  183.9580  178.4850  139.0430 N   0  0  0  0  0  2  0  0  0  0  0  0
  187.3090  175.7410  136.9450 C   0  0  1  0  0  3  0  0  0  0  0  0
  186.6390  178.0630  137.5490 C   0  0  2  0  0  3  0  0  0  0  0  0
  187.0860  175.1780  135.5440 C   0  0  2  0  0  3  0  0  0  0  0  0
  189.6390  176.3540  136.7110 O   0  0  0  0  0  0  0  0  0  0  0  0
  185.3130  176.6980  135.9180 C   0  0  2  0  0  3  0  0  0  0  0  0
  1  6  1  0  0  0  0
  4 20  2  0  0  0  0
  4 22  1  0  0  0  0
  5 24  1  0  0  0  0
  5 17  1  0  0  0  0
  6 23  1  0  0  0  0
  7  8  2  0  0  0  0
  8  2  2  0  0  0  0
  9 18  1  6  0  0  0
 10 26  1  0  0  0  0
 10  8  1  1  0  0  0
 10 28  1  0  0  0  0
 12 25  1  0  0  0  0
 13 26  1  0  0  0  0
 13  9  1  0  0  0  0
 14  8  1  0  0  0  0
 14  9  1  0  0  0  0
 15 11  2  0  0  0  0
 16  1  2  0  0  0  0
 17  3  1  0  0  0  0
 17 25  1  0  0  0  0
 19 15  1  0  0  0  0
 20 16  1  0  0  0  0
 21  1  1  0  0  0  0
 22 21  2  0  0  0  0
 23 15  1  0  0  0  0
 24 12  1  0  0  0  0
 25 19  1  0  0  0  0
 26 24  1  0  0  0  0
 27  5  2  0  0  0  0
 28 16  1  0  0  0  0
 28 12  1  0  0  0  0
M  END
>  <MODEL>
3

>  <REMARK>
 VINA RESULT:      -5.9      3.624      6.909
  Name = 
  0 active torsions:
  status: ('A' for Active; 'I' for Inactive)
                            x       y       z     vdW  Elec       q    Type
                         _______ _______ _______ _____ _____    ______ ____

>  <TORSDO>
F 0

$$$$
=
 OpenBabel11122412013D

 28 32  0  0  1  0  0  0  0  0999 V2000
  191.0540  174.2390  135.7450 C   0  0  0  0  0  0  0  0  0  0  0  0
  190.6780  175.2080  138.9100 O   0  0  0  0  0  0  0  0  0  0  0  0
  185.4730  176.6000  134.7090 C   0  0  0  0  0  1  0  0  0  0  0  0
  193.0990  175.7740  134.5940 C   0  0  0  0  0  3  0  0  0  0  0  0
  186.6120  177.0760  136.9300 C   0  0  0  0  0  0  0  0  0  0  0  0
  189.9890  173.3550  136.2980 C   0  0  0  0  0  2  0  0  0  0  0  0
  192.5320  176.7540  138.4710 O   0  0  0  0  0  0  0  0  0  0  0  0
  191.0590  176.6530  138.7520 S   0  0  0  0  0  0  0  0  0  0  0  0
  189.1820  177.6740  140.3750 C   0  0  1  0  0  3  0  0  0  0  0  0
  190.1310  177.4300  137.4150 C   0  0  2  0  0  3  0  0  0  0  0  0
  187.0900  171.9630  134.7070 O   0  0  0  0  0  0  0  0  0  0  0  0
  188.5280  175.7120  136.7580 C   0  0  1  0  0  3  0  0  0  0  0  0
  188.6650  178.5560  139.2450 C   0  0  0  0  0  2  0  0  0  0  0  0
  190.6860  177.5110  140.2610 C   0  0  0  0  0  2  0  0  0  0  0  0
  187.7610  172.9220  135.1660 C   0  0  0  0  0  0  0  0  0  0  0  0
  190.9480  175.6540  135.7320 C   0  0  0  0  0  0  0  0  0  0  0  0
  186.5250  176.4030  135.6930 N   0  0  0  0  0  0  0  0  0  0  0  0
  188.8630  178.2900  141.6490 N   0  0  0  0  0  1  0  0  0  0  0  0
  187.0730  174.0980  135.6080 N   0  0  0  0  0  2  0  0  0  0  0  0
  191.9800  176.4010  135.1440 C   0  0  0  0  0  3  0  0  0  0  0  0
  192.1810  173.6220  135.1890 C   0  0  0  0  0  3  0  0  0  0  0  0
  193.2010  174.3840  134.6190 C   0  0  0  0  0  3  0  0  0  0  0  0
  189.1850  172.8040  135.2190 N   0  0  0  0  0  2  0  0  0  0  0  0
  187.8060  176.6860  137.7090 C   0  0  1  0  0  3  0  0  0  0  0  0
  187.6120  175.4530  135.5530 C   0  0  2  0  0  3  0  0  0  0  0  0
  188.7450  177.8770  137.8740 C   0  0  2  0  0  3  0  0  0  0  0  0
  185.7520  177.9060  137.3250 O   0  0  0  0  0  0  0  0  0  0  0  0
  189.7870  176.4460  136.3050 C   0  0  2  0  0  3  0  0  0  0  0  0
  1  6  1  0  0  0  0
  3 17  1  0  0  0  0
  4 22  2  0  0  0  0
  4 20  1  0  0  0  0
  5 27  2  0  0  0  0
  5 24  1  0  0  0  0
  7  8  2  0  0  0  0
  8  2  2  0  0  0  0
  8 14  1  0  0  0  0
  9 18  1  1  0  0  0
 10 26  1  0  0  0  0
 10  8  1  1  0  0  0
 11 15  2  0  0  0  0
 12 24  1  0  0  0  0
 13  9  1  0  0  0  0
 14  9  1  0  0  0  0
 15 23  1  0  0  0  0
 15 19  1  0  0  0  0
 16  1  1  0  0  0  0
 16 28  1  0  0  0  0
 17  5  1  0  0  0  0
 20 16  2  0  0  0  0
 21  1  2  0  0  0  0
 22 21  1  0  0  0  0
 23  6  1  0  0  0  0
 24 26  1  0  0  0  0
 25 19  1  0  0  0  0
 25 17  1  0  0  0  0
 25 12  1  0  0  0  0
 26 13  1  0  0  0  0
 28 12  1  0  0  0  0
 28 10  1  0  0  0  0
M  END
>  <MODEL>
4

>  <REMARK>
 VINA RESULT:      -5.6      5.791      8.834
  Name = 
  0 active torsions:
  status: ('A' for Active; 'I' for Inactive)
                            x       y       z     vdW  Elec       q    Type
                         _______ _______ _______ _____ _____    ______ ____

>  <TORSDO>
F 0

$$$$
=
 OpenBabel11122412013D

 28 32  0  0  1  0  0  0  0  0999 V2000
  182.0710  178.5610  139.1310 C   0  0  0  0  0  0  0  0  0  0  0  0
  182.1810  175.2530  138.7630 O   0  0  0  0  0  0  0  0  0  0  0  0
  187.7790  178.6700  136.8530 C   0  0  0  0  0  1  0  0  0  0  0  0
  180.1780  179.5830  137.3320 C   0  0  0  0  0  3  0  0  0  0  0  0
  186.4550  176.5050  136.7370 C   0  0  0  0  0  0  0  0  0  0  0  0
  183.0590  178.0910  140.1430 C   0  0  0  0  0  2  0  0  0  0  0  0
  180.4140  175.5580  137.0890 O   0  0  0  0  0  0  0  0  0  0  0  0
  181.8520  175.1750  137.2990 S   0  0  0  0  0  0  0  0  0  0  0  0
  183.5980  173.2400  136.6640 C   0  0  1  0  0  3  0  0  0  0  0  0
  182.9160  176.2640  136.3330 C   0  0  2  0  0  3  0  0  0  0  0  0
  186.0560  179.6570  141.3440 O   0  0  0  0  0  0  0  0  0  0  0  0
  184.5300  177.0850  137.9690 C   0  0  1  0  0  3  0  0  0  0  0  0
  184.2370  174.1410  135.6140 C   0  0  0  0  0  2  0  0  0  0  0  0
  182.1060  173.5090  136.7420 C   0  0  0  0  0  2  0  0  0  0  0  0
  185.3690  179.0890  140.4560 C   0  0  0  0  0  0  0  0  0  0  0  0
  182.2120  178.3070  137.7420 C   0  0  0  0  0  0  0  0  0  0  0  0
  186.6380  177.8330  137.1800 N   0  0  0  0  0  0  0  0  0  0  0  0
  183.8150  171.8520  136.3000 N   0  0  0  0  0  1  0  0  0  0  0  0
  186.0430  178.3820  139.4080 N   0  0  0  0  0  2  0  0  0  0  0  0
  181.2570  178.8340  136.8610 C   0  0  0  0  0  3  0  0  0  0  0  0
  180.9840  179.3140  139.5920 C   0  0  0  0  0  3  0  0  0  0  0  0
  180.0390  179.8210  138.6980 C   0  0  0  0  0  3  0  0  0  0  0  0
  183.9440  179.1800  140.5230 N   0  0  0  0  0  2  0  0  0  0  0  0
  185.1860  175.9140  137.2120 C   0  0  1  0  0  3  0  0  0  0  0  0
  185.5450  178.2350  138.0440 C   0  0  2  0  0  3  0  0  0  0  0  0
  184.2660  175.6160  136.0330 C   0  0  2  0  0  3  0  0  0  0  0  0
  187.2960  175.8930  136.0270 O   0  0  0  0  0  0  0  0  0  0  0  0
  183.3350  177.5020  137.1150 C   0  0  2  0  0  3  0  0  0  0  0  0
  1 21  1  0  0  0  0
  1  6  1  0  0  0  0
  3 17  1  0  0  0  0
  4 22  1  0  0  0  0
  5 17  1  0  0  0  0
  5 24  1  0  0  0  0
  6 23  1  0  0  0  0
  7  8  2  0  0  0  0
  8  2  2  0  0  0  0
  9 18  1  6  0  0  0
  9 14  1  0  0  0  0
 10 28  1  0  0  0  0
 10  8  1  1  0  0  0
 12 25  1  0  0  0  0
 13 26  1  0  0  0  0
 13  9  1  0  0  0  0
 14  8  1  0  0  0  0
 15 23  1  0  0  0  0
 15 11  2  0  0  0  0
 16  1  2  0  0  0  0
 17 25  1  0  0  0  0
 19 15  1  0  0  0  0
 20  4  2  0  0  0  0
 20 16  1  0  0  0  0
 22 21  2  0  0  0  0
 24 12  1  0  0  0  0
 25 19  1  0  0  0  0
 26 10  1  0  0  0  0
 26 24  1  0  0  0  0
 27  5  2  0  0  0  0
 28 16  1  0  0  0  0
 28 12  1  0  0  0  0
M  END
>  <MODEL>
5

>  <REMARK>
 VINA RESULT:      -5.6      2.645      5.881
  Name = 
  0 active torsions:
  status: ('A' for Active; 'I' for Inactive)
                            x       y       z     vdW  Elec       q    Type
                         _______ _______ _______ _____ _____    ______ ____

>  <TORSDO>
F 0

$$$$
=
 OpenBabel11122412013D

 28 32  0  0  1  0  0  0  0  0999 V2000
  184.6590  176.1120  136.0880 C   0  0  0  0  0  0  0  0  0  0  0  0
  182.2750  178.3160  136.8310 O   0  0  0  0  0  0  0  0  0  0  0  0
  187.7790  178.3760  140.8770 C   0  0  0  0  0  1  0  0  0  0  0  0
  183.6590  173.5380  136.5800 C   0  0  0  0  0  3  0  0  0  0  0  0
  185.3530  179.0620  140.5600 C   0  0  0  0  0  0  0  0  0  0  0  0
  185.2450  177.4420  135.7620 C   0  0  0  0  0  2  0  0  0  0  0  0
  180.8820  176.3660  137.3570 O   0  0  0  0  0  0  0  0  0  0  0  0
  181.5960  177.5550  137.9350 S   0  0  0  0  0  0  0  0  0  0  0  0
  181.1690  179.6410  139.5670 C   0  0  1  0  0  3  0  0  0  0  0  0
  182.7860  177.0050  139.1740 C   0  0  2  0  0  3  0  0  0  0  0  0
  188.6280  178.6040  136.0460 O   0  0  0  0  0  0  0  0  0  0  0  0
  184.8690  178.0670  138.4780 C   0  0  1  0  0  3  0  0  0  0  0  0
  181.9280  178.9390  140.6870 C   0  0  0  0  0  2  0  0  0  0  0  0
  180.4200  178.6230  138.7270 C   0  0  0  0  0  2  0  0  0  0  0  0
  187.5330  178.2220  136.5310 C   0  0  0  0  0  0  0  0  0  0  0  0
  184.1790  175.7780  137.3820 C   0  0  0  0  0  0  0  0  0  0  0  0
  186.5390  178.4350  140.1210 N   0  0  0  0  0  0  0  0  0  0  0  0
  180.2200  180.5760  140.1430 N   0  0  0  0  0  1  0  0  0  0  0  0
  187.1710  178.6570  137.8480 N   0  0  0  0  0  2  0  0  0  0  0  0
  183.6910  174.4830  137.6060 C   0  0  0  0  0  3  0  0  0  0  0  0
  184.6220  175.1540  135.0670 C   0  0  0  0  0  3  0  0  0  0  0  0
  184.1220  173.8740  135.3090 C   0  0  0  0  0  3  0  0  0  0  0  0
  186.6970  177.3610  135.7540 N   0  0  0  0  0  2  0  0  0  0  0  0
  184.2480  178.9390  139.5860 C   0  0  1  0  0  3  0  0  0  0  0  0
  186.3630  177.8900  138.7890 C   0  0  2  0  0  3  0  0  0  0  0  0
  183.1110  178.1100  140.1760 C   0  0  2  0  0  3  0  0  0  0  0  0
  185.2620  179.6720  141.6580 O   0  0  0  0  0  0  0  0  0  0  0  0
  184.1560  176.7210  138.5710 C   0  0  2  0  0  3  0  0  0  0  0  0
  1 16  1  0  0  0  0
  2  8  2  0  0  0  0
  4 20  1  0  0  0  0
  5 27  2  0  0  0  0
  6  1  1  0  0  0  0
  7  8  2  0  0  0  0
  8 14  1  0  0  0  0
  9 18  1  1  0  0  0
  9 13  1  0  0  0  0
 10  8  1  6  0  0  0
 10 26  1  0  0  0  0
 11 15  2  0  0  0  0
 12 28  1  0  0  0  0
 12 25  1  0  0  0  0
 12 24  1  0  0  0  0
 14  9  1  0  0  0  0
 15 19  1  0  0  0  0
 16 20  2  0  0  0  0
 16 28  1  0  0  0  0
 17  5  1  0  0  0  0
 17  3  1  0  0  0  0
 19 25  1  0  0  0  0
 21 22  1  0  0  0  0
 21  1  2  0  0  0  0
 22  4  2  0  0  0  0
 23  6  1  0  0  0  0
 23 15  1  0  0  0  0
 24 26  1  0  0  0  0
 24  5  1  0  0  0  0
 25 17  1  0  0  0  0
 26 13  1  0  0  0  0
 28 10  1  0  0  0  0
M  END
>  <MODEL>
6

>  <REMARK>
 VINA RESULT:      -5.5      1.965      2.731
  Name = 
  0 active torsions:
  status: ('A' for Active; 'I' for Inactive)
                            x       y       z     vdW  Elec       q    Type
                         _______ _______ _______ _____ _____    ______ ____

>  <TORSDO>
F 0

$$$$
=
 OpenBabel11122412013D

 28 32  0  0  1  0  0  0  0  0999 V2000
  182.7250  179.0530  138.3540 C   0  0  0  0  0  0  0  0  0  0  0  0
  181.5070  176.0610  139.1650 O   0  0  0  0  0  0  0  0  0  0  0  0
  186.5830  176.0950  134.5940 C   0  0  0  0  0  1  0  0  0  0  0  0
  180.7390  180.4620  136.9620 C   0  0  0  0  0  3  0  0  0  0  0  0
  184.6700  174.8000  135.6520 C   0  0  0  0  0  0  0  0  0  0  0  0
  183.8130  178.3860  139.1240 C   0  0  0  0  0  2  0  0  0  0  0  0
  179.4290  176.8140  138.1000 O   0  0  0  0  0  0  0  0  0  0  0  0
  180.5880  175.8630  137.9920 S   0  0  0  0  0  0  0  0  0  0  0  0
  181.1070  173.2620  137.5930 C   0  0  1  0  0  3  0  0  0  0  0  0
  181.4530  176.1350  136.4330 C   0  0  2  0  0  3  0  0  0  0  0  0
  187.3740  178.6020  138.7400 O   0  0  0  0  0  0  0  0  0  0  0  0
  183.7790  176.4220  137.1120 C   0  0  1  0  0  3  0  0  0  0  0  0
  181.5160  173.5490  136.1530 C   0  0  0  0  0  2  0  0  0  0  0  0
  179.9850  174.1940  138.0120 C   0  0  0  0  0  2  0  0  0  0  0  0
  186.2280  178.2540  138.3590 C   0  0  0  0  0  0  0  0  0  0  0  0
  182.1700  178.5010  137.1710 C   0  0  0  0  0  0  0  0  0  0  0  0
  185.4730  175.9530  135.5200 N   0  0  0  0  0  0  0  0  0  0  0  0
  180.6510  171.8880  137.6960 N   0  0  0  0  0  1  0  0  0  0  0  0
  186.1050  177.1310  137.4780 N   0  0  0  0  0  2  0  0  0  0  0  0
  181.1830  179.2270  136.4870 C   0  0  0  0  0  3  0  0  0  0  0  0
  182.2710  180.2930  138.8200 C   0  0  0  0  0  3  0  0  0  0  0  0
  181.2810  180.9940  138.1310 C   0  0  0  0  0  3  0  0  0  0  0  0
  185.0940  178.9990  138.8110 N   0  0  0  0  0  2  0  0  0  0  0  0
  183.6010  174.9600  136.6600 C   0  0  1  0  0  3  0  0  0  0  0  0
  185.0620  176.9690  136.4700 C   0  0  2  0  0  3  0  0  0  0  0  0
  182.2300  174.8960  135.9940 C   0  0  2  0  0  3  0  0  0  0  0  0
  184.8620  173.7470  134.9870 O   0  0  0  0  0  0  0  0  0  0  0  0
  182.5650  177.1680  136.5640 C   0  0  2  0  0  3  0  0  0  0  0  0
  1 21  1  0  0  0  0
  1  6  1  0  0  0  0
  3 17  1  0  0  0  0
  4 22  1  0  0  0  0
  5 24  1  0  0  0  0
  8 14  1  0  0  0  0
  8  7  2  0  0  0  0
  8  2  2  0  0  0  0
  9 18  1  6  0  0  0
  9 14  1  0  0  0  0
 10 28  1  0  0  0  0
 10  8  1  1  0  0  0
 13  9  1  0  0  0  0
 15 11  2  0  0  0  0
 15 23  1  0  0  0  0
 16  1  2  0  0  0  0
 17  5  1  0  0  0  0
 17 25  1  0  0  0  0
 19 15  1  0  0  0  0
 20  4  2  0  0  0  0
 20 16  1  0  0  0  0
 22 21  2  0  0  0  0
 23  6  1  0  0  0  0
 24 12  1  0  0  0  0
 25 12  1  0  0  0  0
 25 19  1  0  0  0  0
 26 13  1  0  0  0  0
 26 10  1  0  0  0  0
 26 24  1  0  0  0  0
 27  5  2  0  0  0  0
 28 12  1  0  0  0  0
 28 16  1  0  0  0  0
M  END
>  <MODEL>
7

>  <REMARK>
 VINA RESULT:      -5.5      3.211      5.990
  Name = 
  0 active torsions:
  status: ('A' for Active; 'I' for Inactive)
                            x       y       z     vdW  Elec       q    Type
                         _______ _______ _______ _____ _____    ______ ____

>  <TORSDO>
F 0

$$$$
=
 OpenBabel11122412013D

 28 32  0  0  1  0  0  0  0  0999 V2000
  183.2170  178.1290  137.9220 C   0  0  0  0  0  0  0  0  0  0  0  0
  182.6210  174.8790  138.3410 O   0  0  0  0  0  0  0  0  0  0  0  0
  188.1290  176.4620  134.6230 C   0  0  0  0  0  1  0  0  0  0  0  0
  181.1700  179.2010  136.3330 C   0  0  0  0  0  3  0  0  0  0  0  0
  186.4380  174.6850  135.2870 C   0  0  0  0  0  0  0  0  0  0  0  0
  184.3150  177.6440  138.8070 C   0  0  0  0  0  2  0  0  0  0  0  0
  180.5910  175.2620  137.0170 O   0  0  0  0  0  0  0  0  0  0  0  0
  181.9400  174.6020  137.0290 S   0  0  0  0  0  0  0  0  0  0  0  0
  183.0930  172.2270  136.5500 C   0  0  1  0  0  3  0  0  0  0  0  0
  182.9240  175.2060  135.6440 C   0  0  2  0  0  3  0  0  0  0  0  0
  187.7490  178.6660  138.9940 O   0  0  0  0  0  0  0  0  0  0  0  0
  185.0070  175.9250  136.6920 C   0  0  1  0  0  3  0  0  0  0  0  0
  183.6170  172.7360  135.2120 C   0  0  0  0  0  2  0  0  0  0  0  0
  181.7410  172.8470  136.8490 C   0  0  0  0  0  2  0  0  0  0  0  0
  186.7760  178.1150  138.4180 C   0  0  0  0  0  0  0  0  0  0  0  0
  182.9710  177.5880  136.6340 C   0  0  0  0  0  0  0  0  0  0  0  0
  186.9650  175.9930  135.3560 N   0  0  0  0  0  0  0  0  0  0  0  0
  182.9550  170.7840  136.4930 N   0  0  0  0  0  1  0  0  0  0  0  0
  187.0360  177.0830  137.4590 N   0  0  0  0  0  2  0  0  0  0  0  0
  181.9470  178.1440  135.8540 C   0  0  0  0  0  3  0  0  0  0  0  0
  182.4320  179.1900  138.3910 C   0  0  0  0  0  3  0  0  0  0  0  0
  181.4110  179.7220  137.6030 C   0  0  0  0  0  3  0  0  0  0  0  0
  185.4510  178.5480  138.7370 N   0  0  0  0  0  2  0  0  0  0  0  0
  185.2340  174.5100  136.1250 C   0  0  1  0  0  3  0  0  0  0  0  0
  186.2060  176.7980  136.2930 C   0  0  2  0  0  3  0  0  0  0  0  0
  184.0180  174.2150  135.2520 C   0  0  2  0  0  3  0  0  0  0  0  0
  186.9550  173.7700  134.5940 O   0  0  0  0  0  0  0  0  0  0  0  0
  183.7410  176.4380  136.0110 C   0  0  2  0  0  3  0  0  0  0  0  0
  1 21  1  0  0  0  0
  1  6  1  0  0  0  0
  3 17  1  0  0  0  0
  4 22  1  0  0  0  0
  5 17  1  0  0  0  0
  5 24  1  0  0  0  0
  7  8  2  0  0  0  0
  8  2  2  0  0  0  0
  9 18  1  6  0  0  0
  9 14  1  0  0  0  0
 10 28  1  0  0  0  0
 10  8  1  1  0  0  0
 13 26  1  0  0  0  0
 13  9  1  0  0  0  0
 14  8  1  0  0  0  0
 15 23  1  0  0  0  0
 15 11  2  0  0  0  0
 16  1  2  0  0  0  0
 17 25  1  0  0  0  0
 19 15  1  0  0  0  0
 20  4  2  0  0  0  0
 20 16  1  0  0  0  0
 22 21  2  0  0  0  0
 23  6  1  0  0  0  0
 24 12  1  0  0  0  0
 25 12  1  0  0  0  0
 25 19  1  0  0  0  0
 26 10  1  0  0  0  0
 26 24  1  0  0  0  0
 27  5  2  0  0  0  0
 28 16  1  0  0  0  0
 28 12  1  0  0  0  0
M  END
>  <MODEL>
8

>  <REMARK>
 VINA RESULT:      -5.2      3.582      6.626
  Name = 
  0 active torsions:
  status: ('A' for Active; 'I' for Inactive)
                            x       y       z     vdW  Elec       q    Type
                         _______ _______ _______ _____ _____    ______ ____

>  <TORSDO>
F 0

$$$$
=
 OpenBabel11122412013D

 28 32  0  0  1  0  0  0  0  0999 V2000
  186.0520  175.2970  136.8450 C   0  0  0  0  0  0  0  0  0  0  0  0
  183.8940  176.9500  134.9210 O   0  0  0  0  0  0  0  0  0  0  0  0
  184.2940  179.0030  141.4240 C   0  0  0  0  0  1  0  0  0  0  0  0
  185.1110  172.6740  137.1660 C   0  0  0  0  0  3  0  0  0  0  0  0
  182.9690  179.0210  139.2560 C   0  0  0  0  0  0  0  0  0  0  0  0
  186.6380  176.6580  136.6850 C   0  0  0  0  0  2  0  0  0  0  0  0
  182.6570  174.8350  134.7950 O   0  0  0  0  0  0  0  0  0  0  0  0
  182.6340  176.2400  135.3280 S   0  0  0  0  0  0  0  0  0  0  0  0
  181.0450  178.4000  135.4170 C   0  0  1  0  0  3  0  0  0  0  0  0
  182.4570  176.2050  137.1230 C   0  0  2  0  0  3  0  0  0  0  0  0
  188.5450  178.6330  138.9950 O   0  0  0  0  0  0  0  0  0  0  0  0
  184.2910  177.6100  137.9060 C   0  0  1  0  0  3  0  0  0  0  0  0
  180.6880  178.0950  136.8670 C   0  0  0  0  0  2  0  0  0  0  0  0
  181.2430  177.1070  134.6480 C   0  0  0  0  0  2  0  0  0  0  0  0
  187.4840  178.0830  138.6050 C   0  0  0  0  0  0  0  0  0  0  0  0
  184.7600  175.0750  137.3910 C   0  0  0  0  0  0  0  0  0  0  0  0
  184.0820  178.6350  140.0340 N   0  0  0  0  0  0  0  0  0  0  0  0
  179.9680  179.1580  134.8080 N   0  0  0  0  0  1  0  0  0  0  0  0
  186.2280  178.6280  139.0280 N   0  0  0  0  0  2  0  0  0  0  0  0
  184.3140  173.7540  137.5490 C   0  0  0  0  0  3  0  0  0  0  0  0
  186.8420  174.2050  136.4660 C   0  0  0  0  0  3  0  0  0  0  0  0
  186.3740  172.8990  136.6220 C   0  0  0  0  0  3  0  0  0  0  0  0
  187.5730  176.9300  137.7650 N   0  0  0  0  0  2  0  0  0  0  0  0
  183.0160  178.4750  137.8830 C   0  0  1  0  0  3  0  0  0  0  0  0
  185.0100  177.8530  139.2410 C   0  0  2  0  0  3  0  0  0  0  0  0
  181.8610  177.5050  137.6580 C   0  0  2  0  0  3  0  0  0  0  0  0
  182.0480  179.7620  139.6900 O   0  0  0  0  0  0  0  0  0  0  0  0
  183.8030  176.1660  137.8340 C   0  0  2  0  0  3  0  0  0  0  0  0
  1 16  1  0  0  0  0
  2  8  2  0  0  0  0
  4 20  1  0  0  0  0
  5 27  2  0  0  0  0
  5 17  1  0  0  0  0
  6  1  1  0  0  0  0
  6 23  1  0  0  0  0
  7  8  2  0  0  0  0
  9 18  1  6  0  0  0
  9 13  1  0  0  0  0
 10  8  1  6  0  0  0
 10 26  1  0  0  0  0
 10 28  1  0  0  0  0
 12 25  1  0  0  0  0
 13 26  1  0  0  0  0
 14  8  1  0  0  0  0
 14  9  1  0  0  0  0
 15 11  2  0  0  0  0
 15 19  1  0  0  0  0
 16 20  2  0  0  0  0
 16 28  1  0  0  0  0
 17  3  1  0  0  0  0
 19 25  1  0  0  0  0
 21 22  1  0  0  0  0
 21  1  2  0  0  0  0
 22  4  2  0  0  0  0
 23 15  1  0  0  0  0
 24 12  1  0  0  0  0
 24  5  1  0  0  0  0
 25 17  1  0  0  0  0
 26 24  1  0  0  0  0
 28 12  1  0  0  0  0
M  END
>  <MODEL>
9

>  <REMARK>
 VINA RESULT:      -5.2      2.982      4.004
  Name = 
  0 active torsions:
  status: ('A' for Active; 'I' for Inactive)
                            x       y       z     vdW  Elec       q    Type
                         _______ _______ _______ _____ _____    ______ ____

>  <TORSDO>
F 0

$$$$
