=
 OpenBabel11122411563D

 28 32  0  0  1  0  0  0  0  0999 V2000
  181.7660  178.8100  142.2720 C   0  0  0  0  0  0  0  0  0  0  0  0
  180.5650  181.1910  139.3980 O   0  0  0  0  0  0  0  0  0  0  0  0
  178.9310  175.3190  137.8100 O   0  0  0  0  0  0  0  0  0  0  0  0
  184.5680  178.8030  142.1920 C   0  0  0  0  0  3  0  0  0  0  0  0
  181.0670  176.1100  137.2120 N   0  0  0  0  0  0  0  0  0  0  0  0
  180.2770  178.7370  142.3790 C   0  0  0  0  0  2  0  0  0  0  0  0
  182.8380  181.8710  138.7580 O   0  0  0  0  0  0  0  0  0  0  0  0
  181.7050  180.9330  138.4530 S   0  0  0  0  0  0  0  0  0  0  0  0
  180.7950  180.1800  136.0880 C   0  0  0  0  0  0  0  0  0  0  0  0
  182.2910  179.2470  138.5970 C   0  0  2  0  0  3  0  0  0  0  0  0
  179.2970  175.2340  141.9840 O   0  0  0  0  0  0  0  0  0  0  0  0
  181.6130  177.0300  139.3490 C   0  0  2  0  0  3  0  0  0  0  0  0
  180.7390  178.7870  136.6370 C   0  0  0  0  0  2  0  0  0  0  0  0
  181.1760  181.1760  136.8250 N   0  0  0  0  0  0  0  0  0  0  0  0
  179.4600  176.4440  141.6800 C   0  0  0  0  0  0  0  0  0  0  0  0
  182.4290  178.6730  141.0350 C   0  0  0  0  0  0  0  0  0  0  0  0
  180.0040  175.9050  138.1140 C   0  0  0  0  0  0  0  0  0  0  0  0
  180.3490  180.4200  134.7580 N   0  0  0  0  0  1  0  0  0  0  0  0
  179.1870  176.8930  140.2820 C   0  0  0  0  0  2  0  0  0  0  0  0
  183.8350  178.6580  141.0120 C   0  0  0  0  0  3  0  0  0  0  0  0
  182.5090  178.9510  143.4490 C   0  0  0  0  0  3  0  0  0  0  0  0
  183.9050  178.9550  143.4100 C   0  0  0  0  0  3  0  0  0  0  0  0
  179.8790  177.3700  142.6840 N   0  0  0  0  0  2  0  0  0  0  0  0
  182.0590  176.9570  137.8680 C   0  0  2  0  0  3  0  0  0  0  0  0
  180.2550  176.4720  139.3840 N   0  0  0  0  0  0  0  0  0  0  0  0
  182.0530  178.4050  137.3450 C   0  0  2  0  0  3  0  0  0  0  0  0
  181.1260  175.6410  135.8380 C   0  0  0  0  0  1  0  0  0  0  0  0
  181.6500  178.4980  139.7570 C   0  0  1  0  0  3  0  0  0  0  0  0
  1  6  1  0  0  0  0
  1 21  1  0  0  0  0
  3 17  2  0  0  0  0
  4 22  1  0  0  0  0
  5 17  1  0  0  0  0
  6 23  1  0  0  0  0
  8  7  2  0  0  0  0
  8  2  2  0  0  0  0
  9 13  1  0  0  0  0
  9 14  2  0  0  0  0
 10  8  1  6  0  0  0
 10 28  1  0  0  0  0
 12 25  1  6  0  0  0
 12 28  1  0  0  0  0
 14  8  1  0  0  0  0
 15 11  2  0  0  0  0
 15 23  1  0  0  0  0
 16  1  2  0  0  0  0
 17 25  1  0  0  0  0
 18  9  1  0  0  0  0
 19 15  1  0  0  0  0
 20 16  1  0  0  0  0
 20  4  2  0  0  0  0
 22 21  2  0  0  0  0
 24  5  1  6  0  0  0
 24 12  1  0  0  0  0
 25 19  1  0  0  0  0
 26 13  1  1  0  0  0
 26 24  1  0  0  0  0
 26 10  1  0  0  0  0
 27  5  1  0  0  0  0
 28 16  1  1  0  0  0
M  END
>  <MODEL>
1

>  <REMARK>
 VINA RESULT:      -6.0      0.000      0.000
  Name = 
  0 active torsions:
  status: ('A' for Active; 'I' for Inactive)
                            x       y       z     vdW  Elec       q    Type
                         _______ _______ _______ _____ _____    ______ ____

>  <TORSDO>
F 0

$$$$
=
 OpenBabel11122411563D

 28 32  0  0  1  0  0  0  0  0999 V2000
  180.6130  179.4370  142.1330 C   0  0  0  0  0  0  0  0  0  0  0  0
  180.7100  175.9570  140.3300 O   0  0  0  0  0  0  0  0  0  0  0  0
  186.6290  178.0820  140.6780 O   0  0  0  0  0  0  0  0  0  0  0  0
  179.3340  181.2140  140.3820 C   0  0  0  0  0  3  0  0  0  0  0  0
  185.3000  178.7020  138.8350 N   0  0  0  0  0  0  0  0  0  0  0  0
  181.3210  178.5690  143.1210 C   0  0  0  0  0  2  0  0  0  0  0  0
  179.4200  176.7200  138.3820 O   0  0  0  0  0  0  0  0  0  0  0  0
  180.8000  176.4780  138.9220 S   0  0  0  0  0  0  0  0  0  0  0  0
  182.8830  175.4270  137.6790 C   0  0  0  0  0  0  0  0  0  0  0  0
  181.7260  178.0090  138.8620 C   0  0  2  0  0  3  0  0  0  0  0  0
  184.6010  180.0560  143.7700 O   0  0  0  0  0  0  0  0  0  0  0  0
  183.3690  179.3170  140.1000 C   0  0  2  0  0  3  0  0  0  0  0  0
  183.7050  176.5180  138.2950 C   0  0  0  0  0  2  0  0  0  0  0  0
  181.6150  175.3220  137.9270 N   0  0  0  0  0  0  0  0  0  0  0  0
  183.7540  179.2520  143.3030 C   0  0  0  0  0  0  0  0  0  0  0  0
  180.9720  179.4540  140.7680 C   0  0  0  0  0  0  0  0  0  0  0  0
  185.5410  178.5140  140.2110 C   0  0  0  0  0  0  0  0  0  0  0  0
  183.5230  174.4480  136.8700 N   0  0  0  0  0  1  0  0  0  0  0  0
  184.1870  178.2200  142.3140 C   0  0  0  0  0  2  0  0  0  0  0  0
  180.3310  180.3600  139.9060 C   0  0  0  0  0  3  0  0  0  0  0  0
  179.6150  180.2990  142.6010 C   0  0  0  0  0  3  0  0  0  0  0  0
  178.9720  181.1790  141.7290 C   0  0  0  0  0  3  0  0  0  0  0  0
  182.3980  179.3240  143.7470 N   0  0  0  0  0  2  0  0  0  0  0  0
  183.8940  179.0540  138.6670 C   0  0  2  0  0  3  0  0  0  0  0  0
  184.4130  178.8200  141.0040 N   0  0  0  0  0  0  0  0  0  0  0  0
  183.0470  177.8990  138.1040 C   0  0  2  0  0  3  0  0  0  0  0  0
  186.2580  178.4900  137.7620 C   0  0  0  0  0  1  0  0  0  0  0  0
  182.0590  178.5510  140.2450 C   0  0  1  0  0  3  0  0  0  0  0  0
  1 21  1  0  0  0  0
  1  6  1  0  0  0  0
  4 22  1  0  0  0  0
  5 17  1  0  0  0  0
  6 23  1  0  0  0  0
  7  8  2  0  0  0  0
  8  2  2  0  0  0  0
  9 14  2  0  0  0  0
  9 13  1  0  0  0  0
 10  8  1  1  0  0  0
 10 28  1  0  0  0  0
 12 28  1  0  0  0  0
 12 25  1  1  0  0  0
 14  8  1  0  0  0  0
 15 23  1  0  0  0  0
 15 11  2  0  0  0  0
 16  1  2  0  0  0  0
 17  3  2  0  0  0  0
 17 25  1  0  0  0  0
 18  9  1  0  0  0  0
 19 15  1  0  0  0  0
 20  4  2  0  0  0  0
 20 16  1  0  0  0  0
 22 21  2  0  0  0  0
 24  5  1  1  0  0  0
 24 12  1  0  0  0  0
 25 19  1  0  0  0  0
 26 13  1  1  0  0  0
 26 24  1  0  0  0  0
 26 10  1  0  0  0  0
 27  5  1  0  0  0  0
 28 16  1  6  0  0  0
M  END
>  <MODEL>
2

>  <REMARK>
 VINA RESULT:      -5.8      2.884      4.916
  Name = 
  0 active torsions:
  status: ('A' for Active; 'I' for Inactive)
                            x       y       z     vdW  Elec       q    Type
                         _______ _______ _______ _____ _____    ______ ____

>  <TORSDO>
F 0

$$$$
=
 OpenBabel11122411563D

 28 32  0  0  1  0  0  0  0  0999 V2000
  182.3340  176.9540  137.2880 C   0  0  0  0  0  0  0  0  0  0  0  0
  184.5560  173.7970  137.9690 O   0  0  0  0  0  0  0  0  0  0  0  0
  188.2860  178.8600  138.3230 O   0  0  0  0  0  0  0  0  0  0  0  0
  181.5700  176.8340  134.5940 C   0  0  0  0  0  3  0  0  0  0  0  0
  187.9440  177.8390  136.2280 N   0  0  0  0  0  0  0  0  0  0  0  0
  182.7050  177.1110  138.7270 C   0  0  0  0  0  2  0  0  0  0  0  0
  184.2460  172.8610  135.7170 O   0  0  0  0  0  0  0  0  0  0  0  0
  185.1480  173.6840  136.5910 S   0  0  0  0  0  0  0  0  0  0  0  0
  187.7890  173.6390  136.7200 C   0  0  0  0  0  0  0  0  0  0  0  0
  185.3620  175.3010  135.8500 C   0  0  2  0  0  3  0  0  0  0  0  0
  184.4330  180.3160  139.0930 O   0  0  0  0  0  0  0  0  0  0  0  0
  185.5670  177.6640  136.4070 C   0  0  2  0  0  3  0  0  0  0  0  0
  187.7380  175.1370  136.7380 C   0  0  0  0  0  2  0  0  0  0  0  0
  186.7030  172.9330  136.6870 N   0  0  0  0  0  0  0  0  0  0  0  0
  184.2860  179.0690  139.0150 C   0  0  0  0  0  0  0  0  0  0  0  0
  183.2950  176.6470  136.3030 C   0  0  0  0  0  0  0  0  0  0  0  0
  187.5100  178.3700  137.4600 C   0  0  0  0  0  0  0  0  0  0  0  0
  189.0490  172.9860  136.8160 N   0  0  0  0  0  1  0  0  0  0  0  0
  185.4920  178.1900  138.9560 C   0  0  0  0  0  2  0  0  0  0  0  0
  182.9000  176.6040  134.9540 C   0  0  0  0  0  3  0  0  0  0  0  0
  181.0050  177.1860  136.9170 C   0  0  0  0  0  3  0  0  0  0  0  0
  180.6210  177.1190  135.5760 C   0  0  0  0  0  3  0  0  0  0  0  0
  182.9690  178.5150  139.0090 N   0  0  0  0  0  2  0  0  0  0  0  0
  186.7940  177.2240  135.5720 C   0  0  2  0  0  3  0  0  0  0  0  0
  186.1140  178.2500  137.6380 N   0  0  0  0  0  0  0  0  0  0  0  0
  186.8230  175.6860  135.6260 C   0  0  2  0  0  3  0  0  0  0  0  0
  189.3120  177.8220  135.7380 C   0  0  0  0  0  1  0  0  0  0  0  0
  184.7360  176.4150  136.6770 C   0  0  1  0  0  3  0  0  0  0  0  0
  1  6  1  0  0  0  0
  4 20  2  0  0  0  0
  4 22  1  0  0  0  0
  5 17  1  0  0  0  0
  6 23  1  0  0  0  0
  7  8  2  0  0  0  0
  8 14  1  0  0  0  0
  8  2  2  0  0  0  0
  9 13  1  0  0  0  0
  9 18  1  0  0  0  0
 10  8  1  1  0  0  0
 10 28  1  0  0  0  0
 12 28  1  0  0  0  0
 12 25  1  1  0  0  0
 14  9  2  0  0  0  0
 15 11  2  0  0  0  0
 16  1  2  0  0  0  0
 17 25  1  0  0  0  0
 17  3  2  0  0  0  0
 19 15  1  0  0  0  0
 20 16  1  0  0  0  0
 21  1  1  0  0  0  0
 22 21  2  0  0  0  0
 23 15  1  0  0  0  0
 24 26  1  0  0  0  0
 24  5  1  1  0  0  0
 24 12  1  0  0  0  0
 25 19  1  0  0  0  0
 26 10  1  0  0  0  0
 26 13  1  1  0  0  0
 27  5  1  0  0  0  0
 28 16  1  6  0  0  0
M  END
>  <MODEL>
3

>  <REMARK>
 VINA RESULT:      -5.5      4.941      7.484
  Name = 
  0 active torsions:
  status: ('A' for Active; 'I' for Inactive)
                            x       y       z     vdW  Elec       q    Type
                         _______ _______ _______ _____ _____    ______ ____

>  <TORSDO>
F 0

$$$$
=
 OpenBabel11122411563D

 28 32  0  0  1  0  0  0  0  0999 V2000
  189.7160  174.5200  136.3560 C   0  0  0  0  0  0  0  0  0  0  0  0
  188.6450  176.5220  139.5520 O   0  0  0  0  0  0  0  0  0  0  0  0
  183.3880  174.6330  136.6420 O   0  0  0  0  0  0  0  0  0  0  0  0
  190.8640  176.3740  134.5940 C   0  0  0  0  0  3  0  0  0  0  0  0
  184.3680  176.6790  136.0130 N   0  0  0  0  0  0  0  0  0  0  0  0
  189.1050  173.4660  137.2210 C   0  0  0  0  0  2  0  0  0  0  0  0
  189.5890  178.6510  138.7640 O   0  0  0  0  0  0  0  0  0  0  0  0
  188.3390  177.8240  138.8640 S   0  0  0  0  0  0  0  0  0  0  0  0
  185.8880  178.6250  139.4480 C   0  0  0  0  0  0  0  0  0  0  0  0
  187.6930  177.5430  137.2170 C   0  0  2  0  0  3  0  0  0  0  0  0
  186.3430  171.9530  135.3570 O   0  0  0  0  0  0  0  0  0  0  0  0
  186.6040  175.8560  135.8360 C   0  0  2  0  0  3  0  0  0  0  0  0
  185.4160  177.7500  138.3280 C   0  0  0  0  0  2  0  0  0  0  0  0
  187.1430  178.6890  139.7650 N   0  0  0  0  0  0  0  0  0  0  0  0
  186.9210  172.6670  136.2160 C   0  0  0  0  0  0  0  0  0  0  0  0
  189.0770  175.7570  136.1290 C   0  0  0  0  0  0  0  0  0  0  0  0
  184.4040  175.3050  136.3220 C   0  0  0  0  0  0  0  0  0  0  0  0
  184.9310  179.3380  140.2230 N   0  0  0  0  0  1  0  0  0  0  0  0
  186.1150  173.6070  137.0520 C   0  0  0  0  0  2  0  0  0  0  0  0
  189.6570  176.6700  135.2320 C   0  0  0  0  0  3  0  0  0  0  0  0
  190.9230  174.2310  135.7090 C   0  0  0  0  0  3  0  0  0  0  0  0
  191.4990  175.1560  134.8370 C   0  0  0  0  0  3  0  0  0  0  0  0
  188.3340  172.5480  136.3940 N   0  0  0  0  0  2  0  0  0  0  0  0
  185.7430  177.1420  135.8520 C   0  0  2  0  0  3  0  0  0  0  0  0
  185.7130  174.7750  136.2780 N   0  0  0  0  0  0  0  0  0  0  0  0
  186.2390  177.9780  137.0450 C   0  0  2  0  0  3  0  0  0  0  0  0
  183.1780  177.5120  135.9560 C   0  0  0  0  0  1  0  0  0  0  0  0
  187.7660  176.0820  136.7970 C   0  0  1  0  0  3  0  0  0  0  0  0
  1  6  1  0  0  0  0
  4 22  2  0  0  0  0
  4 20  1  0  0  0  0
  5 17  1  0  0  0  0
  7  8  2  0  0  0  0
  8  2  2  0  0  0  0
  8 14  1  0  0  0  0
  9 14  2  0  0  0  0
  9 18  1  0  0  0  0
 10  8  1  1  0  0  0
 11 15  2  0  0  0  0
 12 24  1  0  0  0  0
 12 25  1  1  0  0  0
 12 28  1  0  0  0  0
 13  9  1  0  0  0  0
 15 23  1  0  0  0  0
 15 19  1  0  0  0  0
 16  1  1  0  0  0  0
 17  3  2  0  0  0  0
 20 16  2  0  0  0  0
 21  1  2  0  0  0  0
 22 21  1  0  0  0  0
 23  6  1  0  0  0  0
 24  5  1  1  0  0  0
 24 26  1  0  0  0  0
 25 17  1  0  0  0  0
 25 19  1  0  0  0  0
 26 10  1  0  0  0  0
 26 13  1  1  0  0  0
 27  5  1  0  0  0  0
 28 16  1  6  0  0  0
 28 10  1  0  0  0  0
M  END
>  <MODEL>
4

>  <REMARK>
 VINA RESULT:      -5.2      6.564      8.103
  Name = 
  0 active torsions:
  status: ('A' for Active; 'I' for Inactive)
                            x       y       z     vdW  Elec       q    Type
                         _______ _______ _______ _____ _____    ______ ____

>  <TORSDO>
F 0

$$$$
=
 OpenBabel11122411563D

 28 32  0  0  1  0  0  0  0  0999 V2000
  183.3770  175.9820  136.1320 C   0  0  0  0  0  0  0  0  0  0  0  0
  180.9510  179.0490  136.4050 O   0  0  0  0  0  0  0  0  0  0  0  0
  185.3530  179.7060  140.8610 O   0  0  0  0  0  0  0  0  0  0  0  0
  181.9130  173.7250  136.9220 C   0  0  0  0  0  3  0  0  0  0  0  0
  183.4130  178.4640  141.3490 N   0  0  0  0  0  0  0  0  0  0  0  0
  184.2400  177.1280  135.7140 C   0  0  0  0  0  2  0  0  0  0  0  0
  179.0010  177.6880  137.0310 O   0  0  0  0  0  0  0  0  0  0  0  0
  180.1270  178.5340  137.5530 S   0  0  0  0  0  0  0  0  0  0  0  0
  180.0700  180.3030  139.5170 C   0  0  0  0  0  0  0  0  0  0  0  0
  181.1240  177.5500  138.6690 C   0  0  2  0  0  3  0  0  0  0  0  0
  187.1200  177.2410  137.9690 O   0  0  0  0  0  0  0  0  0  0  0  0
  183.4300  177.1540  139.3510 C   0  0  2  0  0  3  0  0  0  0  0  0
  181.3650  179.7110  139.9860 C   0  0  0  0  0  2  0  0  0  0  0  0
  179.4820  179.8660  138.4480 N   0  0  0  0  0  0  0  0  0  0  0  0
  186.0160  177.5720  137.4650 C   0  0  0  0  0  0  0  0  0  0  0  0
  182.5770  176.0390  137.2930 C   0  0  0  0  0  0  0  0  0  0  0  0
  184.5140  178.8200  140.5460 C   0  0  0  0  0  0  0  0  0  0  0  0
  179.5200  181.4120  140.2180 N   0  0  0  0  0  1  0  0  0  0  0  0
  185.1940  178.6280  138.1280 C   0  0  0  0  0  2  0  0  0  0  0  0
  181.8600  174.8950  137.6830 C   0  0  0  0  0  3  0  0  0  0  0  0
  183.4270  174.8040  135.3780 C   0  0  0  0  0  3  0  0  0  0  0  0
  182.6930  173.6820  135.7660 C   0  0  0  0  0  3  0  0  0  0  0  0
  185.5800  176.9490  136.2560 N   0  0  0  0  0  2  0  0  0  0  0  0
  182.5850  177.5310  140.5910 C   0  0  2  0  0  3  0  0  0  0  0  0
  184.5480  178.1060  139.3270 N   0  0  0  0  0  0  0  0  0  0  0  0
  181.2930  178.1730  140.0540 C   0  0  2  0  0  3  0  0  0  0  0  0
  183.1020  179.0030  142.6630 C   0  0  0  0  0  1  0  0  0  0  0  0
  182.5240  177.2890  138.1320 C   0  0  1  0  0  3  0  0  0  0  0  0
  1 16  1  0  0  0  0
  2  8  2  0  0  0  0
  4 20  1  0  0  0  0
  5 27  1  0  0  0  0
  6  1  1  0  0  0  0
  6 23  1  0  0  0  0
  7  8  2  0  0  0  0
  8 14  1  0  0  0  0
  9 13  1  0  0  0  0
  9 18  1  0  0  0  0
 10  8  1  6  0  0  0
 10 26  1  0  0  0  0
 12 25  1  6  0  0  0
 12 24  1  0  0  0  0
 14  9  2  0  0  0  0
 15 11  2  0  0  0  0
 15 19  1  0  0  0  0
 16 20  2  0  0  0  0
 17  3  2  0  0  0  0
 17  5  1  0  0  0  0
 19 25  1  0  0  0  0
 21 22  1  0  0  0  0
 21  1  2  0  0  0  0
 22  4  2  0  0  0  0
 23 15  1  0  0  0  0
 24  5  1  1  0  0  0
 25 17  1  0  0  0  0
 26 13  1  6  0  0  0
 26 24  1  0  0  0  0
 28 16  1  1  0  0  0
 28 10  1  0  0  0  0
 28 12  1  0  0  0  0
M  END
>  <MODEL>
5

>  <REMARK>
 VINA RESULT:      -5.0      2.948      6.033
  Name = 
  0 active torsions:
  status: ('A' for Active; 'I' for Inactive)
                            x       y       z     vdW  Elec       q    Type
                         _______ _______ _______ _____ _____    ______ ____

>  <TORSDO>
F 0

$$$$
=
 OpenBabel11122411563D

 28 32  0  0  1  0  0  0  0  0999 V2000
  182.4770  178.2690  141.7800 C   0  0  0  0  0  0  0  0  0  0  0  0
  181.6750  174.8800  139.9790 O   0  0  0  0  0  0  0  0  0  0  0  0
  181.8770  179.3750  135.5710 O   0  0  0  0  0  0  0  0  0  0  0  0
  180.2290  178.9080  143.3290 C   0  0  0  0  0  3  0  0  0  0  0  0
  179.8440  178.9600  136.6840 N   0  0  0  0  0  0  0  0  0  0  0  0
  183.7090  178.0200  140.9730 C   0  0  0  0  0  2  0  0  0  0  0  0
  179.5050  174.5850  141.0950 O   0  0  0  0  0  0  0  0  0  0  0  0
  180.1900  175.0820  139.8540 S   0  0  0  0  0  0  0  0  0  0  0  0
  179.4250  174.8000  137.3390 C   0  0  0  0  0  0  0  0  0  0  0  0
  179.7930  176.8130  139.6240 C   0  0  2  0  0  3  0  0  0  0  0  0
  184.1780  180.8780  138.7360 O   0  0  0  0  0  0  0  0  0  0  0  0
  180.7560  178.9290  138.8930 C   0  0  2  0  0  3  0  0  0  0  0  0
  179.7870  176.2410  137.1470 C   0  0  0  0  0  2  0  0  0  0  0  0
  179.5990  174.2120  138.4810 N   0  0  0  0  0  0  0  0  0  0  0  0
  183.8810  179.7080  139.0930 C   0  0  0  0  0  0  0  0  0  0  0  0
  181.1870  178.1530  141.2210 C   0  0  0  0  0  0  0  0  0  0  0  0
  181.2340  179.1870  136.6380 C   0  0  0  0  0  0  0  0  0  0  0  0
  178.9540  174.0490  136.2270 N   0  0  0  0  0  1  0  0  0  0  0  0
  183.2350  178.7840  138.1140 C   0  0  0  0  0  2  0  0  0  0  0  0
  180.0710  178.4900  142.0050 C   0  0  0  0  0  3  0  0  0  0  0  0
  182.6260  178.6910  143.1060 C   0  0  0  0  0  3  0  0  0  0  0  0
  181.5070  179.0030  143.8810 C   0  0  0  0  0  3  0  0  0  0  0  0
  184.1890  179.2790  140.4200 N   0  0  0  0  0  2  0  0  0  0  0  0
  179.4870  178.6260  138.0600 C   0  0  2  0  0  3  0  0  0  0  0  0
  181.8330  179.1330  137.9160 N   0  0  0  0  0  0  0  0  0  0  0  0
  179.1900  177.1280  138.2570 C   0  0  2  0  0  3  0  0  0  0  0  0
  178.9380  178.9630  135.5470 C   0  0  0  0  0  1  0  0  0  0  0  0
  181.0040  177.7210  139.7890 C   0  0  1  0  0  3  0  0  0  0  0  0
  1 21  1  0  0  0  0
  3 17  2  0  0  0  0
  4 22  1  0  0  0  0
  6  1  1  0  0  0  0
  8  2  2  0  0  0  0
  8  7  2  0  0  0  0
  9 14  2  0  0  0  0
 10 28  1  0  0  0  0
 10  8  1  6  0  0  0
 11 15  2  0  0  0  0
 12 25  1  6  0  0  0
 12 28  1  0  0  0  0
 13  9  1  0  0  0  0
 14  8  1  0  0  0  0
 15 23  1  0  0  0  0
 16  1  2  0  0  0  0
 16 20  1  0  0  0  0
 17  5  1  0  0  0  0
 17 25  1  0  0  0  0
 18  9  1  0  0  0  0
 19 15  1  0  0  0  0
 20  4  2  0  0  0  0
 21 22  2  0  0  0  0
 23  6  1  0  0  0  0
 24  5  1  6  0  0  0
 24 26  1  0  0  0  0
 24 12  1  0  0  0  0
 25 19  1  0  0  0  0
 26 13  1  6  0  0  0
 26 10  1  0  0  0  0
 27  5  1  0  0  0  0
 28 16  1  1  0  0  0
M  END
>  <MODEL>
6

>  <REMARK>
 VINA RESULT:      -4.9      2.315      4.716
  Name = 
  0 active torsions:
  status: ('A' for Active; 'I' for Inactive)
                            x       y       z     vdW  Elec       q    Type
                         _______ _______ _______ _____ _____    ______ ____

>  <TORSDO>
F 0

$$$$
=
 OpenBabel11122411563D

 28 32  0  0  1  0  0  0  0  0999 V2000
  189.9280  177.2000  138.2710 C   0  0  0  0  0  0  0  0  0  0  0  0
  189.7020  173.3730  137.4470 O   0  0  0  0  0  0  0  0  0  0  0  0
  195.8010  174.9420  137.5300 O   0  0  0  0  0  0  0  0  0  0  0  0
  188.8850  178.5620  136.0530 C   0  0  0  0  0  3  0  0  0  0  0  0
  194.5910  175.1750  135.5240 N   0  0  0  0  0  0  0  0  0  0  0  0
  190.5170  176.5610  139.4860 C   0  0  0  0  0  2  0  0  0  0  0  0
  188.5470  173.7120  135.3030 O   0  0  0  0  0  0  0  0  0  0  0  0
  189.8810  173.4910  135.9590 S   0  0  0  0  0  0  0  0  0  0  0  0
  191.8720  171.9560  135.1410 C   0  0  0  0  0  0  0  0  0  0  0  0
  190.9640  174.8570  135.5480 C   0  0  2  0  0  3  0  0  0  0  0  0
  193.9180  177.8480  139.8910 O   0  0  0  0  0  0  0  0  0  0  0  0
  192.7040  176.2840  136.4830 C   0  0  2  0  0  3  0  0  0  0  0  0
  192.7880  173.0880  135.4920 C   0  0  0  0  0  2  0  0  0  0  0  0
  190.5940  172.0410  135.3430 N   0  0  0  0  0  0  0  0  0  0  0  0
  193.0020  177.0340  139.6080 C   0  0  0  0  0  0  0  0  0  0  0  0
  190.3200  176.8200  136.9690 C   0  0  0  0  0  0  0  0  0  0  0  0
  194.7770  175.3360  136.9120 C   0  0  0  0  0  0  0  0  0  0  0  0
  192.4250  170.7410  134.6500 N   0  0  0  0  0  1  0  0  0  0  0  0
  193.3490  175.7400  138.9460 C   0  0  0  0  0  2  0  0  0  0  0  0
  189.7990  177.5220  135.8680 C   0  0  0  0  0  3  0  0  0  0  0  0
  189.0150  178.2450  138.4460 C   0  0  0  0  0  3  0  0  0  0  0  0
  188.4890  178.9200  137.3430 C   0  0  0  0  0  3  0  0  0  0  0  0
  191.6510  177.3500  139.9470 N   0  0  0  0  0  2  0  0  0  0  0  0
  193.2340  175.6020  135.1980 C   0  0  2  0  0  3  0  0  0  0  0  0
  193.6680  175.9470  137.5390 N   0  0  0  0  0  0  0  0  0  0  0  0
  192.2850  174.4240  134.9130 C   0  0  2  0  0  3  0  0  0  0  0  0
  195.5470  174.5970  134.5940 C   0  0  0  0  0  1  0  0  0  0  0  0
  191.3180  175.7120  136.7570 C   0  0  1  0  0  3  0  0  0  0  0  0
  1 21  1  0  0  0  0
  1  6  1  0  0  0  0
  4 22  1  0  0  0  0
  5 17  1  0  0  0  0
  6 23  1  0  0  0  0
  7  8  2  0  0  0  0
  8  2  2  0  0  0  0
  9 14  2  0  0  0  0
  9 13  1  0  0  0  0
 10  8  1  1  0  0  0
 10 28  1  0  0  0  0
 12 28  1  0  0  0  0
 12 25  1  1  0  0  0
 14  8  1  0  0  0  0
 15 11  2  0  0  0  0
 15 23  1  0  0  0  0
 16  1  2  0  0  0  0
 17  3  2  0  0  0  0
 17 25  1  0  0  0  0
 18  9  1  0  0  0  0
 19 15  1  0  0  0  0
 20  4  2  0  0  0  0
 20 16  1  0  0  0  0
 22 21  2  0  0  0  0
 24  5  1  1  0  0  0
 24 12  1  0  0  0  0
 25 19  1  0  0  0  0
 26 24  1  0  0  0  0
 26 13  1  1  0  0  0
 26 10  1  0  0  0  0
 27  5  1  0  0  0  0
 28 16  1  6  0  0  0
M  END
>  <MODEL>
7

>  <REMARK>
 VINA RESULT:      -4.9     10.513     12.185
  Name = 
  0 active torsions:
  status: ('A' for Active; 'I' for Inactive)
                            x       y       z     vdW  Elec       q    Type
                         _______ _______ _______ _____ _____    ______ ____

>  <TORSDO>
F 0

$$$$
=
 OpenBabel11122411563D

 28 32  0  0  1  0  0  0  0  0999 V2000
  182.2660  178.5480  139.9350 C   0  0  0  0  0  0  0  0  0  0  0  0
  183.2320  174.9620  138.6800 O   0  0  0  0  0  0  0  0  0  0  0  0
  188.5820  178.0560  139.8950 O   0  0  0  0  0  0  0  0  0  0  0  0
  181.1600  179.8970  137.7400 C   0  0  0  0  0  3  0  0  0  0  0  0
  187.6100  178.2530  137.7590 N   0  0  0  0  0  0  0  0  0  0  0  0
  182.8570  177.9170  141.1530 C   0  0  0  0  0  2  0  0  0  0  0  0
  182.3000  175.2950  136.4300 O   0  0  0  0  0  0  0  0  0  0  0  0
  183.5510  175.3400  137.2600 S   0  0  0  0  0  0  0  0  0  0  0  0
  185.9790  174.5220  136.6080 C   0  0  0  0  0  0  0  0  0  0  0  0
  184.2470  176.9890  137.1750 C   0  0  2  0  0  3  0  0  0  0  0  0
  185.6810  179.9830  142.2260 O   0  0  0  0  0  0  0  0  0  0  0  0
  185.3840  178.6720  138.5210 C   0  0  2  0  0  3  0  0  0  0  0  0
  186.4890  175.7920  137.2180 C   0  0  0  0  0  2  0  0  0  0  0  0
  184.7150  174.2370  136.6130 N   0  0  0  0  0  0  0  0  0  0  0  0
  185.0740  179.0060  141.7160 C   0  0  0  0  0  0  0  0  0  0  0  0
  182.9050  178.4810  138.6790 C   0  0  0  0  0  0  0  0  0  0  0  0
  187.5720  178.2530  139.1680 C   0  0  0  0  0  0  0  0  0  0  0  0
  186.9090  173.5830  136.0830 N   0  0  0  0  0  1  0  0  0  0  0  0
  185.8500  177.9620  140.9830 C   0  0  0  0  0  2  0  0  0  0  0  0
  182.3460  179.1740  137.5910 C   0  0  0  0  0  3  0  0  0  0  0  0
  181.0800  179.2780  140.0750 C   0  0  0  0  0  3  0  0  0  0  0  0
  180.5240  179.9450  138.9810 C   0  0  0  0  0  3  0  0  0  0  0  0
  183.6570  178.9010  141.8690 N   0  0  0  0  0  2  0  0  0  0  0  0
  186.2380  178.3500  137.2710 C   0  0  2  0  0  3  0  0  0  0  0  0
  186.2680  178.4500  139.6740 N   0  0  0  0  0  0  0  0  0  0  0  0
  185.7030  177.0180  136.7140 C   0  0  2  0  0  3  0  0  0  0  0  0
  188.7970  178.0910  136.9350 C   0  0  0  0  0  1  0  0  0  0  0  0
  184.1940  177.7190  138.5090 C   0  0  1  0  0  3  0  0  0  0  0  0
  1 21  1  0  0  0  0
  1  6  1  0  0  0  0
  4 22  1  0  0  0  0
  5 17  1  0  0  0  0
  6 23  1  0  0  0  0
  7  8  2  0  0  0  0
  8  2  2  0  0  0  0
  9 14  2  0  0  0  0
  9 13  1  0  0  0  0
 10  8  1  1  0  0  0
 10 28  1  0  0  0  0
 12 25  1  1  0  0  0
 14  8  1  0  0  0  0
 15 23  1  0  0  0  0
 15 11  2  0  0  0  0
 16  1  2  0  0  0  0
 17 25  1  0  0  0  0
 17  3  2  0  0  0  0
 18  9  1  0  0  0  0
 19 15  1  0  0  0  0
 20  4  2  0  0  0  0
 20 16  1  0  0  0  0
 22 21  2  0  0  0  0
 24  5  1  1  0  0  0
 24 12  1  0  0  0  0
 25 19  1  0  0  0  0
 26 10  1  0  0  0  0
 26 13  1  1  0  0  0
 26 24  1  0  0  0  0
 27  5  1  0  0  0  0
 28 12  1  0  0  0  0
 28 16  1  6  0  0  0
M  END
>  <MODEL>
8

>  <REMARK>
 VINA RESULT:      -4.9      4.111      6.148
  Name = 
  0 active torsions:
  status: ('A' for Active; 'I' for Inactive)
                            x       y       z     vdW  Elec       q    Type
                         _______ _______ _______ _____ _____    ______ ____

>  <TORSDO>
F 0

$$$$
=
 OpenBabel11122411563D

 28 32  0  0  1  0  0  0  0  0999 V2000
  185.9190  174.9390  136.3810 C   0  0  0  0  0  0  0  0  0  0  0  0
  182.9460  176.7660  134.5940 O   0  0  0  0  0  0  0  0  0  0  0  0
  184.4030  180.0940  139.7380 O   0  0  0  0  0  0  0  0  0  0  0  0
  184.8980  172.5250  137.3750 C   0  0  0  0  0  3  0  0  0  0  0  0
  182.8580  178.3270  139.9230 N   0  0  0  0  0  0  0  0  0  0  0  0
  186.5450  176.2090  135.9050 C   0  0  0  0  0  2  0  0  0  0  0  0
  181.3590  174.9200  134.9370 O   0  0  0  0  0  0  0  0  0  0  0  0
  181.8460  176.2370  135.4710 S   0  0  0  0  0  0  0  0  0  0  0  0
  180.4180  178.2270  136.4670 C   0  0  0  0  0  0  0  0  0  0  0  0
  182.4200  176.0060  137.1530 C   0  0  2  0  0  3  0  0  0  0  0  0
  187.8910  177.9570  138.8250 O   0  0  0  0  0  0  0  0  0  0  0  0
  184.1500  176.7220  138.7120 C   0  0  2  0  0  3  0  0  0  0  0  0
  181.4450  178.3190  137.5550 C   0  0  0  0  0  2  0  0  0  0  0  0
  180.5360  177.3660  135.5060 N   0  0  0  0  0  0  0  0  0  0  0  0
  187.1080  177.7010  137.8740 C   0  0  0  0  0  0  0  0  0  0  0  0
  184.6840  174.9310  137.0640 C   0  0  0  0  0  0  0  0  0  0  0  0
  184.0730  178.9020  139.4990 C   0  0  0  0  0  0  0  0  0  0  0  0
  179.3370  179.1510  136.4530 N   0  0  0  0  0  1  0  0  0  0  0  0
  185.8300  178.4620  137.7490 C   0  0  0  0  0  2  0  0  0  0  0  0
  184.1920  173.7150  137.5690 C   0  0  0  0  0  3  0  0  0  0  0  0
  186.6200  173.7430  136.1960 C   0  0  0  0  0  3  0  0  0  0  0  0
  186.1090  172.5390  136.6840 C   0  0  0  0  0  3  0  0  0  0  0  0
  187.4690  176.7030  136.9160 N   0  0  0  0  0  2  0  0  0  0  0  0
  182.7570  176.9980  139.3270 C   0  0  2  0  0  3  0  0  0  0  0  0
  184.8580  178.0080  138.7370 N   0  0  0  0  0  0  0  0  0  0  0  0
  181.7520  176.9360  138.1630 C   0  0  2  0  0  3  0  0  0  0  0  0
  181.8400  178.9760  140.7330 C   0  0  0  0  0  1  0  0  0  0  0  0
  183.9220  176.2100  137.2940 C   0  0  1  0  0  3  0  0  0  0  0  0
  1 16  1  0  0  0  0
  2  8  2  0  0  0  0
  4 20  1  0  0  0  0
  5 27  1  0  0  0  0
  6  1  1  0  0  0  0
  6 23  1  0  0  0  0
  7  8  2  0  0  0  0
  8 14  1  0  0  0  0
  9 13  1  0  0  0  0
 10  8  1  6  0  0  0
 10 28  1  0  0  0  0
 10 26  1  0  0  0  0
 12 25  1  6  0  0  0
 12 24  1  0  0  0  0
 14  9  2  0  0  0  0
 15 11  2  0  0  0  0
 16 20  2  0  0  0  0
 17  3  2  0  0  0  0
 17  5  1  0  0  0  0
 18  9  1  0  0  0  0
 19 15  1  0  0  0  0
 19 25  1  0  0  0  0
 21  1  2  0  0  0  0
 21 22  1  0  0  0  0
 22  4  2  0  0  0  0
 23 15  1  0  0  0  0
 24  5  1  6  0  0  0
 25 17  1  0  0  0  0
 26 13  1  6  0  0  0
 26 24  1  0  0  0  0
 28 16  1  1  0  0  0
 28 12  1  0  0  0  0
M  END
>  <MODEL>
9

>  <REMARK>
 VINA RESULT:      -4.8      3.888      6.434
  Name = 
  0 active torsions:
  status: ('A' for Active; 'I' for Inactive)
                            x       y       z     vdW  Elec       q    Type
                         _______ _______ _______ _____ _____    ______ ____

>  <TORSDO>
F 0

$$$$
