=
 OpenBabel11122410343D

 30 35  0  0  1  0  0  0  0  0999 V2000
  183.4830  178.9650  141.8580 C   0  0  2  0  0  3  0  0  0  0  0  0
  182.3840  178.0000  139.7020 C   0  0  0  0  0  0  0  0  0  0  0  0
  187.1730  178.2030  140.1040 O   0  0  0  0  0  0  0  0  0  0  0  0
  184.7710  178.7080  142.6550 C   0  0  2  0  0  3  0  0  0  0  0  0
  182.4170  178.3210  142.5300 O   0  0  0  0  0  0  0  0  0  0  0  0
  183.2240  178.6120  145.8120 O   0  0  0  0  0  0  0  0  0  0  0  0
  186.4900  177.7280  144.8720 C   0  0  1  0  0  3  0  0  0  0  0  0
  183.3380  178.9500  144.6430 C   0  0  0  0  0  0  0  0  0  0  0  0
  187.0250  177.2690  143.4950 C   0  0  2  0  0  3  0  0  0  0  0  0
  187.9210  177.9140  141.2220 C   0  0  0  0  0  0  0  0  0  0  0  0
  182.1480  179.0310  143.7210 C   0  0  2  0  0  3  0  0  0  0  0  0
  184.6580  179.3530  144.0410 C   0  0  1  0  0  3  0  0  0  0  0  0
  182.5300  177.2980  138.4250 C   0  0  0  0  0  3  0  0  0  0  0  0
  188.2750  176.4700  143.8200 C   0  0  0  0  0  2  0  0  0  0  0  0
  187.6340  177.5690  145.8660 C   0  0  0  0  0  2  0  0  0  0  0  0
  181.2290  178.2010  140.1630 O   0  0  0  0  0  0  0  0  0  0  0  0
  186.0420  178.9920  140.4210 C   0  0  2  0  0  3  0  0  0  0  0  0
  183.7090  177.2730  137.8110 C   0  0  0  0  0  3  0  0  0  0  0  0
  183.5980  178.4400  140.4400 C   0  0  0  0  0  0  0  0  0  0  0  0
  186.0560  179.1540  141.9580 C   0  0  2  0  0  3  0  0  0  0  0  0
  189.0330  177.3260  141.1510 O   0  0  0  0  0  0  0  0  0  0  0  0
  187.3230  178.4190  142.4860 C   0  0  1  0  0  3  0  0  0  0  0  0
  188.8320  177.0720  145.0870 C   0  0  0  0  0  2  0  0  0  0  0  0
  185.7090  179.5990  146.2180 O   0  0  0  0  0  1  0  0  0  0  0  0
  184.8910  178.0360  138.3400 C   0  0  0  0  0  2  0  0  0  0  0  0
  184.7920  178.4120  139.8040 C   0  0  0  0  0  0  0  0  0  0  0  0
  185.9180  179.1550  144.9090 C   0  0  1  0  0  3  0  0  0  0  0  0
  181.0080  178.4990  144.3320 O   0  0  0  0  0  0  0  0  0  0  0  0
  178.9310  179.6000  143.9860 C   0  0  0  0  0  1  0  0  0  0  0  0
  179.9860  178.6860  143.4000 C   0  0  0  0  0  2  0  0  0  0  0  0
  1 19  1  6  0  0  0
  1  5  1  0  0  0  0
  1  4  1  0  0  0  0
  2 16  2  0  0  0  0
  2 19  1  0  0  0  0
  3 17  1  0  0  0  0
  3 10  1  0  0  0  0
  4 12  1  0  0  0  0
  5 11  1  0  0  0  0
  7 27  1  0  0  0  0
  7 15  1  0  0  0  0
  8  6  2  0  0  0  0
  9 14  1  0  0  0  0
  9  7  1  0  0  0  0
 10 22  1  0  0  0  0
 11 28  1  0  0  0  0
 11  8  1  0  0  0  0
 12  8  1  0  0  0  0
 12 27  1  0  0  0  0
 13  2  1  0  0  0  0
 14 23  1  0  0  0  0
 17 20  1  0  0  0  0
 18 25  1  0  0  0  0
 18 13  2  0  0  0  0
 20 22  1  0  0  0  0
 20  4  1  0  0  0  0
 21 10  2  0  0  0  0
 22  9  1  0  0  0  0
 23 15  1  0  0  0  0
 25 26  1  0  0  0  0
 26 17  1  0  0  0  0
 26 19  2  0  0  0  0
 27 24  1  0  0  0  0
 30 29  1  0  0  0  0
 30 28  1  0  0  0  0
M  END
>  <MODEL>
1

>  <REMARK>
 VINA RESULT:      -9.0      0.000      0.000
  Name = 
  2 active torsions:
  status: ('A' for Active; 'I' for Inactive)
    1  A    between atoms: C_11  and  O_28
    2  A    between atoms: O_28  and  C_30
                            x       y       z     vdW  Elec       q    Type
                         _______ _______ _______ _____ _____    ______ ____

>  <TORSDO>
F 2

$$$$
=
 OpenBabel11122410343D

 30 35  0  0  1  0  0  0  0  0999 V2000
  187.1890  177.5990  142.7680 C   0  0  2  0  0  3  0  0  0  0  0  0
  185.2310  179.2910  142.4640 C   0  0  0  0  0  0  0  0  0  0  0  0
  186.2550  177.5200  146.8170 O   0  0  0  0  0  0  0  0  0  0  0  0
  188.2040  177.2660  143.8730 C   0  0  2  0  0  3  0  0  0  0  0  0
  187.8460  178.3870  141.7940 O   0  0  0  0  0  0  0  0  0  0  0  0
  191.0140  177.1740  141.7600 O   0  0  0  0  0  0  0  0  0  0  0  0
  190.8260  177.1690  145.2670 C   0  0  1  0  0  3  0  0  0  0  0  0
  189.8260  177.0710  142.0310 C   0  0  0  0  0  0  0  0  0  0  0  0
  189.7130  177.7170  146.1910 C   0  0  2  0  0  3  0  0  0  0  0  0
  187.5050  177.3180  147.3540 C   0  0  0  0  0  0  0  0  0  0  0  0
  188.7540  177.5640  141.0930 C   0  0  2  0  0  3  0  0  0  0  0  0
  189.3360  176.4130  143.2930 C   0  0  1  0  0  3  0  0  0  0  0  0
  184.2220  180.1640  143.0660 C   0  0  0  0  0  3  0  0  0  0  0  0
  190.4160  177.9970  147.5080 C   0  0  0  0  0  2  0  0  0  0  0  0
  191.9810  176.7490  146.1670 C   0  0  0  0  0  2  0  0  0  0  0  0
  185.4500  179.3690  141.2260 O   0  0  0  0  0  0  0  0  0  0  0  0
  186.1830  177.0760  145.4760 C   0  0  2  0  0  3  0  0  0  0  0  0
  183.8150  179.9480  144.3130 C   0  0  0  0  0  3  0  0  0  0  0  0
  185.9940  178.3480  143.3250 C   0  0  0  0  0  0  0  0  0  0  0  0
  187.6070  176.5980  145.1110 C   0  0  2  0  0  3  0  0  0  0  0  0
  187.7550  177.5290  148.5710 O   0  0  0  0  0  0  0  0  0  0  0  0
  188.4890  176.7710  146.3820 C   0  0  1  0  0  3  0  0  0  0  0  0
  191.5450  176.9990  147.5940 C   0  0  0  0  0  2  0  0  0  0  0  0
  191.4980  175.3970  143.7400 O   0  0  0  0  0  1  0  0  0  0  0  0
  184.2870  178.7600  145.1040 C   0  0  0  0  0  2  0  0  0  0  0  0
  185.5680  178.1340  144.5920 C   0  0  0  0  0  0  0  0  0  0  0  0
  190.3990  176.0190  144.3400 C   0  0  1  0  0  3  0  0  0  0  0  0
  189.3120  178.2840  140.0320 O   0  0  0  0  0  0  0  0  0  0  0  0
  188.9540  178.6980  137.7200 C   0  0  0  0  0  1  0  0  0  0  0  0
  188.3410  178.2510  139.0310 C   0  0  0  0  0  2  0  0  0  0  0  0
  1  5  1  6  0  0  0
  1 19  1  0  0  0  0
  1  4  1  0  0  0  0
  2 13  1  0  0  0  0
  2 19  1  0  0  0  0
  3 10  1  0  0  0  0
  4 20  1  0  0  0  0
  6  8  2  0  0  0  0
  7 15  1  0  0  0  0
  7  9  1  0  0  0  0
  8 12  1  0  0  0  0
  9 22  1  0  0  0  0
  9 14  1  0  0  0  0
 10 21  2  0  0  0  0
 11  5  1  0  0  0  0
 11  8  1  0  0  0  0
 12  4  1  0  0  0  0
 12 27  1  0  0  0  0
 13 18  2  0  0  0  0
 14 23  1  0  0  0  0
 15 23  1  0  0  0  0
 16  2  2  0  0  0  0
 17  3  1  0  0  0  0
 18 25  1  0  0  0  0
 19 26  2  0  0  0  0
 20 17  1  0  0  0  0
 20 22  1  0  0  0  0
 22 10  1  0  0  0  0
 24 27  1  0  0  0  0
 26 25  1  0  0  0  0
 26 17  1  0  0  0  0
 27  7  1  0  0  0  0
 28 11  1  0  0  0  0
 29 30  1  0  0  0  0
 30 28  1  0  0  0  0
M  END
>  <MODEL>
2

>  <REMARK>
 VINA RESULT:      -8.4      2.868      6.278
  Name = 
  2 active torsions:
  status: ('A' for Active; 'I' for Inactive)
    1  A    between atoms: C_11  and  O_28
    2  A    between atoms: O_28  and  C_30
                            x       y       z     vdW  Elec       q    Type
                         _______ _______ _______ _____ _____    ______ ____

>  <TORSDO>
F 2

$$$$
=
 OpenBabel11122410343D

 30 35  0  0  1  0  0  0  0  0999 V2000
  186.2750  178.3450  138.7720 C   0  0  2  0  0  3  0  0  0  0  0  0
  186.9420  177.0060  136.6400 C   0  0  0  0  0  0  0  0  0  0  0  0
  190.1030  177.6130  140.2130 O   0  0  0  0  0  0  0  0  0  0  0  0
  186.6310  178.2980  140.2670 C   0  0  2  0  0  3  0  0  0  0  0  0
  185.0130  177.7270  138.6050 O   0  0  0  0  0  0  0  0  0  0  0  0
  183.3210  178.5390  141.4310 O   0  0  0  0  0  0  0  0  0  0  0  0
  186.2740  177.7710  143.1690 C   0  0  1  0  0  3  0  0  0  0  0  0
  184.2320  178.7150  140.6350 C   0  0  0  0  0  0  0  0  0  0  0  0
  187.5950  177.1610  142.6400 C   0  0  2  0  0  3  0  0  0  0  0  0
  189.8490  177.5410  141.5630 C   0  0  0  0  0  0  0  0  0  0  0  0
  184.0250  178.5770  139.1480 C   0  0  2  0  0  3  0  0  0  0  0  0
  185.6160  179.1230  141.0650 C   0  0  1  0  0  3  0  0  0  0  0  0
  187.9020  176.1420  135.9490 C   0  0  0  0  0  3  0  0  0  0  0  0
  188.2270  176.5110  143.8580 C   0  0  0  0  0  2  0  0  0  0  0  0
  186.3950  177.8390  144.6860 C   0  0  0  0  0  2  0  0  0  0  0  0
  185.8030  177.1850  136.1330 O   0  0  0  0  0  0  0  0  0  0  0  0
  189.1100  178.3540  139.5320 C   0  0  2  0  0  3  0  0  0  0  0  0
  189.1730  176.1160  136.3380 C   0  0  0  0  0  3  0  0  0  0  0  0
  187.3190  177.6340  137.9340 C   0  0  0  0  0  0  0  0  0  0  0  0
  188.0580  178.7340  140.5980 C   0  0  2  0  0  3  0  0  0  0  0  0
  190.6670  177.0320  142.3740 O   0  0  0  0  0  0  0  0  0  0  0  0
  188.5640  178.1760  141.9610 C   0  0  1  0  0  3  0  0  0  0  0  0
  187.7720  177.3260  145.0440 C   0  0  0  0  0  2  0  0  0  0  0  0
  184.8660  179.7520  143.2890 O   0  0  0  0  0  1  0  0  0  0  0  0
  189.6880  177.0310  137.4140 C   0  0  0  0  0  2  0  0  0  0  0  0
  188.6160  177.6030  138.3190 C   0  0  0  0  0  0  0  0  0  0  0  0
  185.9060  179.1430  142.5800 C   0  0  1  0  0  3  0  0  0  0  0  0
  182.7580  178.0550  138.8690 O   0  0  0  0  0  0  0  0  0  0  0  0
  182.2000  175.8130  139.4230 C   0  0  0  0  0  1  0  0  0  0  0  0
  182.9910  176.7270  138.5110 C   0  0  0  0  0  2  0  0  0  0  0  0
  1 19  1  6  0  0  0
  1  4  1  0  0  0  0
  2 19  1  0  0  0  0
  3 10  1  0  0  0  0
  4 20  1  0  0  0  0
  4 12  1  0  0  0  0
  5  1  1  0  0  0  0
  5 11  1  0  0  0  0
  7 15  1  0  0  0  0
  8 12  1  0  0  0  0
  8  6  2  0  0  0  0
  9  7  1  0  0  0  0
  9 14  1  0  0  0  0
 10 22  1  0  0  0  0
 10 21  2  0  0  0  0
 11  8  1  0  0  0  0
 12 27  1  0  0  0  0
 13 18  2  0  0  0  0
 13  2  1  0  0  0  0
 14 23  1  0  0  0  0
 15 23  1  0  0  0  0
 16  2  2  0  0  0  0
 17  3  1  0  0  0  0
 17 20  1  0  0  0  0
 18 25  1  0  0  0  0
 19 26  2  0  0  0  0
 20 22  1  0  0  0  0
 22  9  1  0  0  0  0
 25 26  1  0  0  0  0
 26 17  1  0  0  0  0
 27  7  1  0  0  0  0
 27 24  1  0  0  0  0
 28 11  1  0  0  0  0
 30 28  1  0  0  0  0
 30 29  1  0  0  0  0
M  END
>  <MODEL>
3

>  <REMARK>
 VINA RESULT:      -8.4      2.335      4.069
  Name = 
  2 active torsions:
  status: ('A' for Active; 'I' for Inactive)
    1  A    between atoms: C_11  and  O_28
    2  A    between atoms: O_28  and  C_30
                            x       y       z     vdW  Elec       q    Type
                         _______ _______ _______ _____ _____    ______ ____

>  <TORSDO>
F 2

$$$$
=
 OpenBabel11122410343D

 30 35  0  0  1  0  0  0  0  0999 V2000
  185.7690  178.4920  139.1440 C   0  0  2  0  0  3  0  0  0  0  0  0
  186.2680  177.1890  136.9440 C   0  0  0  0  0  0  0  0  0  0  0  0
  189.6790  177.6890  140.2980 O   0  0  0  0  0  0  0  0  0  0  0  0
  186.2280  178.4120  140.6080 C   0  0  2  0  0  3  0  0  0  0  0  0
  184.4910  177.8920  139.0530 O   0  0  0  0  0  0  0  0  0  0  0  0
  183.0110  178.6660  142.0060 O   0  0  0  0  0  0  0  0  0  0  0  0
  186.0690  177.8300  143.5180 C   0  0  1  0  0  3  0  0  0  0  0  0
  183.8660  178.8480  141.1520 C   0  0  0  0  0  0  0  0  0  0  0  0
  187.3410  177.2170  142.8860 C   0  0  2  0  0  3  0  0  0  0  0  0
  189.5190  177.5920  141.6610 C   0  0  0  0  0  0  0  0  0  0  0  0
  183.5540  178.7410  139.6810 C   0  0  2  0  0  3  0  0  0  0  0  0
  185.2820  179.2320  141.4910 C   0  0  1  0  0  3  0  0  0  0  0  0
  187.1670  176.3280  136.1720 C   0  0  0  0  0  3  0  0  0  0  0  0
  188.0490  176.5350  144.0440 C   0  0  0  0  0  2  0  0  0  0  0  0
  186.2960  177.8660  145.0240 C   0  0  0  0  0  2  0  0  0  0  0  0
  185.0990  177.3910  136.5220 O   0  0  0  0  0  0  0  0  0  0  0  0
  188.6500  178.4540  139.7020 C   0  0  2  0  0  3  0  0  0  0  0  0
  188.4610  176.2810  136.4700 C   0  0  0  0  0  3  0  0  0  0  0  0
  186.7420  177.7860  138.2210 C   0  0  0  0  0  0  0  0  0  0  0  0
  187.6800  178.8240  140.8470 C   0  0  2  0  0  3  0  0  0  0  0  0
  190.3860  177.0580  142.4030 O   0  0  0  0  0  0  0  0  0  0  0  0
  188.2730  178.2340  142.1600 C   0  0  1  0  0  3  0  0  0  0  0  0
  187.6890  177.3310  145.2750 C   0  0  0  0  0  2  0  0  0  0  0  0
  184.6970  179.8240  143.7740 O   0  0  0  0  0  1  0  0  0  0  0  0
  189.0620  177.1680  137.5250 C   0  0  0  0  0  2  0  0  0  0  0  0
  188.0640  177.7340  138.5130 C   0  0  0  0  0  0  0  0  0  0  0  0
  185.6770  179.2180  142.9830 C   0  0  1  0  0  3  0  0  0  0  0  0
  182.2640  178.2400  139.4810 O   0  0  0  0  0  0  0  0  0  0  0  0
  181.8460  180.2740  138.3250 C   0  0  0  0  0  1  0  0  0  0  0  0
  181.8670  178.7620  138.2500 C   0  0  0  0  0  2  0  0  0  0  0  0
  1 19  1  6  0  0  0
  1  4  1  0  0  0  0
  2 19  1  0  0  0  0
  3 10  1  0  0  0  0
  4 20  1  0  0  0  0
  4 12  1  0  0  0  0
  5  1  1  0  0  0  0
  5 11  1  0  0  0  0
  7 15  1  0  0  0  0
  8 12  1  0  0  0  0
  8  6  2  0  0  0  0
  9  7  1  0  0  0  0
  9 14  1  0  0  0  0
 10 22  1  0  0  0  0
 10 21  2  0  0  0  0
 11  8  1  0  0  0  0
 12 27  1  0  0  0  0
 13 18  2  0  0  0  0
 13  2  1  0  0  0  0
 14 23  1  0  0  0  0
 15 23  1  0  0  0  0
 16  2  2  0  0  0  0
 17  3  1  0  0  0  0
 17 20  1  0  0  0  0
 18 25  1  0  0  0  0
 19 26  2  0  0  0  0
 20 22  1  0  0  0  0
 22  9  1  0  0  0  0
 25 26  1  0  0  0  0
 26 17  1  0  0  0  0
 27  7  1  0  0  0  0
 27 24  1  0  0  0  0
 28 11  1  0  0  0  0
 30 29  1  0  0  0  0
 30 28  1  0  0  0  0
M  END
>  <MODEL>
4

>  <REMARK>
 VINA RESULT:      -8.4      2.089      3.556
  Name = 
  2 active torsions:
  status: ('A' for Active; 'I' for Inactive)
    1  A    between atoms: C_11  and  O_28
    2  A    between atoms: O_28  and  C_30
                            x       y       z     vdW  Elec       q    Type
                         _______ _______ _______ _____ _____    ______ ____

>  <TORSDO>
F 2

$$$$
=
 OpenBabel11122410343D

 30 35  0  0  1  0  0  0  0  0999 V2000
  186.1750  177.8310  141.9920 C   0  0  2  0  0  3  0  0  0  0  0  0
  183.9750  179.0000  142.7530 C   0  0  0  0  0  0  0  0  0  0  0  0
  187.1980  177.5350  146.0090 O   0  0  0  0  0  0  0  0  0  0  0  0
  187.6230  177.7540  142.5020 C   0  0  2  0  0  3  0  0  0  0  0  0
  186.1380  178.7530  140.9190 O   0  0  0  0  0  0  0  0  0  0  0  0
  189.1320  178.3390  139.3790 O   0  0  0  0  0  0  0  0  0  0  0  0
  190.5430  178.2950  142.5950 C   0  0  1  0  0  3  0  0  0  0  0  0
  188.2460  177.9530  140.1280 C   0  0  0  0  0  0  0  0  0  0  0  0
  189.8740  178.5600  143.9650 C   0  0  2  0  0  3  0  0  0  0  0  0
  188.5670  177.6420  145.9230 C   0  0  0  0  0  0  0  0  0  0  0  0
  186.7880  178.1710  139.8090 C   0  0  2  0  0  3  0  0  0  0  0  0
  188.5290  177.1980  141.3990 C   0  0  1  0  0  3  0  0  0  0  0  0
  183.1810  179.6060  143.8250 C   0  0  0  0  0  3  0  0  0  0  0  0
  191.0140  179.0030  144.8650 C   0  0  0  0  0  2  0  0  0  0  0  0
  192.0390  178.1670  142.8510 C   0  0  0  0  0  2  0  0  0  0  0  0
  183.5920  179.1270  141.5600 O   0  0  0  0  0  0  0  0  0  0  0  0
  186.6300  177.0850  144.7940 C   0  0  2  0  0  3  0  0  0  0  0  0
  183.4340  179.2990  145.0930 C   0  0  0  0  0  3  0  0  0  0  0  0
  185.2260  178.2700  143.0900 C   0  0  0  0  0  0  0  0  0  0  0  0
  187.8040  176.9640  143.7970 C   0  0  2  0  0  3  0  0  0  0  0  0
  189.2840  177.9090  146.9240 O   0  0  0  0  0  0  0  0  0  0  0  0
  189.1020  177.3460  144.5680 C   0  0  1  0  0  3  0  0  0  0  0  0
  192.2470  178.3060  144.3430 C   0  0  0  0  0  2  0  0  0  0  0  0
  190.8240  176.7350  140.7480 O   0  0  0  0  0  1  0  0  0  0  0  0
  184.4550  178.2620  145.4680 C   0  0  0  0  0  2  0  0  0  0  0  0
  185.4710  177.9620  144.3850 C   0  0  0  0  0  0  0  0  0  0  0  0
  190.0050  177.0740  141.8300 C   0  0  1  0  0  3  0  0  0  0  0  0
  186.6410  179.0030  138.6950 O   0  0  0  0  0  0  0  0  0  0  0  0
  186.8750  177.9050  136.6010 C   0  0  0  0  0  1  0  0  0  0  0  0
  185.9560  178.2260  137.7600 C   0  0  0  0  0  2  0  0  0  0  0  0
  1  5  1  6  0  0  0
  1  4  1  0  0  0  0
  1 19  1  0  0  0  0
  2 19  1  0  0  0  0
  2 13  1  0  0  0  0
  4 20  1  0  0  0  0
  6  8  2  0  0  0  0
  7 15  1  0  0  0  0
  7  9  1  0  0  0  0
  8 12  1  0  0  0  0
  9 22  1  0  0  0  0
  9 14  1  0  0  0  0
 10  3  1  0  0  0  0
 10 21  2  0  0  0  0
 11  8  1  0  0  0  0
 11  5  1  0  0  0  0
 12 27  1  0  0  0  0
 12  4  1  0  0  0  0
 13 18  2  0  0  0  0
 15 23  1  0  0  0  0
 16  2  2  0  0  0  0
 17  3  1  0  0  0  0
 18 25  1  0  0  0  0
 19 26  2  0  0  0  0
 20 22  1  0  0  0  0
 20 17  1  0  0  0  0
 22 10  1  0  0  0  0
 23 14  1  0  0  0  0
 24 27  1  0  0  0  0
 26 17  1  0  0  0  0
 26 25  1  0  0  0  0
 27  7  1  0  0  0  0
 28 11  1  0  0  0  0
 29 30  1  0  0  0  0
 30 28  1  0  0  0  0
M  END
>  <MODEL>
5

>  <REMARK>
 VINA RESULT:      -8.4      2.185      5.736
  Name = 
  2 active torsions:
  status: ('A' for Active; 'I' for Inactive)
    1  A    between atoms: C_11  and  O_28
    2  A    between atoms: O_28  and  C_30
                            x       y       z     vdW  Elec       q    Type
                         _______ _______ _______ _____ _____    ______ ____

>  <TORSDO>
F 2

$$$$
=
 OpenBabel11122410343D

 30 35  0  0  1  0  0  0  0  0999 V2000
  186.3100  177.9540  142.7670 C   0  0  2  0  0  3  0  0  0  0  0  0
  185.1660  179.1160  144.7990 C   0  0  0  0  0  0  0  0  0  0  0  0
  189.2780  176.6910  145.3870 O   0  0  0  0  0  0  0  0  0  0  0  0
  187.7520  177.6400  142.3380 C   0  0  2  0  0  3  0  0  0  0  0  0
  185.8760  179.0900  142.0430 O   0  0  0  0  0  0  0  0  0  0  0  0
  187.3910  178.7640  139.0250 O   0  0  0  0  0  0  0  0  0  0  0  0
  190.2870  177.8870  140.8070 C   0  0  1  0  0  3  0  0  0  0  0  0
  187.0010  178.3030  140.0880 C   0  0  0  0  0  0  0  0  0  0  0  0
  190.5420  177.9010  142.3330 C   0  0  2  0  0  3  0  0  0  0  0  0
  190.3660  176.6930  144.5450 C   0  0  0  0  0  0  0  0  0  0  0  0
  185.6840  178.7130  140.6960 C   0  0  2  0  0  3  0  0  0  0  0  0
  187.7770  177.2640  140.8530 C   0  0  1  0  0  3  0  0  0  0  0  0
  185.2250  179.5370  146.2000 C   0  0  0  0  0  3  0  0  0  0  0  0
  192.0490  178.0330  142.4640 C   0  0  0  0  0  2  0  0  0  0  0  0
  191.6190  177.5750  140.1390 C   0  0  0  0  0  2  0  0  0  0  0  0
  184.2280  179.5360  144.0710 O   0  0  0  0  0  0  0  0  0  0  0  0
  188.0630  176.5720  144.6720 C   0  0  2  0  0  3  0  0  0  0  0  0
  186.0630  178.9370  147.0400 C   0  0  0  0  0  3  0  0  0  0  0  0
  186.2240  178.2220  144.2560 C   0  0  0  0  0  0  0  0  0  0  0  0
  188.4500  176.5700  143.1760 C   0  0  2  0  0  3  0  0  0  0  0  0
  191.5490  176.6680  144.9780 O   0  0  0  0  0  0  0  0  0  0  0  0
  190.0030  176.6570  143.1040 C   0  0  1  0  0  3  0  0  0  0  0  0
  192.6310  177.3620  141.2430 C   0  0  0  0  0  2  0  0  0  0  0  0
  189.1980  176.7550  138.9480 O   0  0  0  0  0  1  0  0  0  0  0  0
  186.8930  177.7570  146.6200 C   0  0  0  0  0  2  0  0  0  0  0  0
  187.0700  177.6150  145.1220 C   0  0  0  0  0  0  0  0  0  0  0  0
  189.1890  176.9180  140.3370 C   0  0  1  0  0  3  0  0  0  0  0  0
  185.1200  179.7800  139.9890 O   0  0  0  0  0  0  0  0  0  0  0  0
  183.7390  178.4380  138.5970 C   0  0  0  0  0  1  0  0  0  0  0  0
  183.7970  179.3980  139.7660 C   0  0  0  0  0  2  0  0  0  0  0  0
  1  5  1  6  0  0  0
  1 19  1  0  0  0  0
  2 13  1  0  0  0  0
  4  1  1  0  0  0  0
  4 20  1  0  0  0  0
  6  8  2  0  0  0  0
  7  9  1  0  0  0  0
  8 11  1  0  0  0  0
  8 12  1  0  0  0  0
  9 14  1  0  0  0  0
  9 22  1  0  0  0  0
 10 21  2  0  0  0  0
 10  3  1  0  0  0  0
 11  5  1  0  0  0  0
 12  4  1  0  0  0  0
 13 18  2  0  0  0  0
 15  7  1  0  0  0  0
 15 23  1  0  0  0  0
 16  2  2  0  0  0  0
 17 26  1  0  0  0  0
 17  3  1  0  0  0  0
 19  2  1  0  0  0  0
 19 26  2  0  0  0  0
 20 17  1  0  0  0  0
 22 20  1  0  0  0  0
 22 10  1  0  0  0  0
 23 14  1  0  0  0  0
 24 27  1  0  0  0  0
 25 18  1  0  0  0  0
 26 25  1  0  0  0  0
 27  7  1  0  0  0  0
 27 12  1  0  0  0  0
 28 11  1  0  0  0  0
 29 30  1  0  0  0  0
 30 28  1  0  0  0  0
M  END
>  <MODEL>
6

>  <REMARK>
 VINA RESULT:      -8.3      2.353      5.859
  Name = 
  2 active torsions:
  status: ('A' for Active; 'I' for Inactive)
    1  A    between atoms: C_11  and  O_28
    2  A    between atoms: O_28  and  C_30
                            x       y       z     vdW  Elec       q    Type
                         _______ _______ _______ _____ _____    ______ ____

>  <TORSDO>
F 2

$$$$
=
 OpenBabel11122410343D

 30 35  0  0  1  0  0  0  0  0999 V2000
  187.4290  178.3230  142.3970 C   0  0  2  0  0  3  0  0  0  0  0  0
  187.8100  177.5030  144.8410 C   0  0  0  0  0  0  0  0  0  0  0  0
  183.4800  179.0740  143.4530 O   0  0  0  0  0  0  0  0  0  0  0  0
  186.2620  178.3210  141.3970 C   0  0  2  0  0  3  0  0  0  0  0  0
  188.3050  177.2670  142.0480 O   0  0  0  0  0  0  0  0  0  0  0  0
  188.1370  177.1520  138.6610 O   0  0  0  0  0  0  0  0  0  0  0  0
  184.6630  177.5030  139.0300 C   0  0  1  0  0  3  0  0  0  0  0  0
  187.9710  177.7270  139.7270 C   0  0  0  0  0  0  0  0  0  0  0  0
  183.8070  177.5030  140.3200 C   0  0  2  0  0  3  0  0  0  0  0  0
  182.8520  178.8160  142.2560 C   0  0  0  0  0  0  0  0  0  0  0  0
  188.9690  177.6180  140.8520 C   0  0  2  0  0  3  0  0  0  0  0  0
  186.7890  178.6210  139.9900 C   0  0  1  0  0  3  0  0  0  0  0  0
  187.2500  177.1390  146.1440 C   0  0  0  0  0  3  0  0  0  0  0  0
  182.4250  177.0770  139.8580 C   0  0  0  0  0  2  0  0  0  0  0  0
  183.6920  177.5120  137.8560 C   0  0  0  0  0  2  0  0  0  0  0  0
  189.0200  177.2500  144.6010 O   0  0  0  0  0  0  0  0  0  0  0  0
  184.8430  179.4040  143.2690 C   0  0  2  0  0  3  0  0  0  0  0  0
  186.0530  177.5930  146.5040 C   0  0  0  0  0  3  0  0  0  0  0  0
  186.9370  178.1410  143.8190 C   0  0  0  0  0  0  0  0  0  0  0  0
  185.1130  179.2630  141.7540 C   0  0  2  0  0  3  0  0  0  0  0  0
  181.6100  178.6210  142.1780 O   0  0  0  0  0  0  0  0  0  0  0  0
  183.7660  178.8620  141.0840 C   0  0  1  0  0  3  0  0  0  0  0  0
  182.2960  177.5640  138.4350 C   0  0  0  0  0  2  0  0  0  0  0  0
  186.2150  178.7510  137.6320 O   0  0  0  0  0  1  0  0  0  0  0  0
  185.2860  178.5630  145.6490 C   0  0  0  0  0  2  0  0  0  0  0  0
  185.7210  178.6020  144.1990 C   0  0  0  0  0  0  0  0  0  0  0  0
  185.6780  178.6530  138.9190 C   0  0  1  0  0  3  0  0  0  0  0  0
  189.9430  176.6570  140.5620 O   0  0  0  0  0  0  0  0  0  0  0  0
  191.6810  177.5030  141.9440 C   0  0  0  0  0  1  0  0  0  0  0  0
  191.1440  177.3650  140.5350 C   0  0  0  0  0  2  0  0  0  0  0  0
  1  5  1  6  0  0  0
  1 19  1  0  0  0  0
  2 13  1  0  0  0  0
  4 20  1  0  0  0  0
  4  1  1  0  0  0  0
  6  8  2  0  0  0  0
  7  9  1  0  0  0  0
  8 12  1  0  0  0  0
  8 11  1  0  0  0  0
  9 22  1  0  0  0  0
 10  3  1  0  0  0  0
 11  5  1  0  0  0  0
 12  4  1  0  0  0  0
 13 18  2  0  0  0  0
 14  9  1  0  0  0  0
 15 23  1  0  0  0  0
 15  7  1  0  0  0  0
 16  2  2  0  0  0  0
 17  3  1  0  0  0  0
 17 26  1  0  0  0  0
 19 26  2  0  0  0  0
 19  2  1  0  0  0  0
 20 17  1  0  0  0  0
 21 10  2  0  0  0  0
 22 20  1  0  0  0  0
 22 10  1  0  0  0  0
 23 14  1  0  0  0  0
 24 27  1  0  0  0  0
 25 18  1  0  0  0  0
 26 25  1  0  0  0  0
 27  7  1  0  0  0  0
 27 12  1  0  0  0  0
 28 11  1  0  0  0  0
 30 28  1  0  0  0  0
 30 29  1  0  0  0  0
M  END
>  <MODEL>
7

>  <REMARK>
 VINA RESULT:      -8.1      1.698      7.261
  Name = 
  2 active torsions:
  status: ('A' for Active; 'I' for Inactive)
    1  A    between atoms: C_11  and  O_28
    2  A    between atoms: O_28  and  C_30
                            x       y       z     vdW  Elec       q    Type
                         _______ _______ _______ _____ _____    ______ ____

>  <TORSDO>
F 2

$$$$
=
 OpenBabel11122410343D

 30 35  0  0  1  0  0  0  0  0999 V2000
  181.8760  177.3450  139.2390 C   0  0  2  0  0  3  0  0  0  0  0  0
  182.6520  175.6700  137.4010 C   0  0  0  0  0  0  0  0  0  0  0  0
  185.8320  178.5880  139.5250 O   0  0  0  0  0  0  0  0  0  0  0  0
  182.4890  177.9620  140.5060 C   0  0  2  0  0  3  0  0  0  0  0  0
  181.0070  176.3020  139.6370 O   0  0  0  0  0  0  0  0  0  0  0  0
  179.6920  177.4020  142.5640 O   0  0  0  0  0  0  0  0  0  0  0  0
  182.9490  178.4070  143.4080 C   0  0  1  0  0  3  0  0  0  0  0  0
  180.2670  177.5970  141.5030 C   0  0  0  0  0  0  0  0  0  0  0  0
  184.2790  178.1630  142.6540 C   0  0  2  0  0  3  0  0  0  0  0  0
  185.8920  178.9130  140.8600 C   0  0  0  0  0  0  0  0  0  0  0  0
  179.8680  176.8770  140.2400 C   0  0  2  0  0  3  0  0  0  0  0  0
  181.3840  178.5950  141.3580 C   0  0  1  0  0  3  0  0  0  0  0  0
  183.7460  175.0210  136.6760 C   0  0  0  0  0  3  0  0  0  0  0  0
  185.3470  178.2570  143.7290 C   0  0  0  0  0  2  0  0  0  0  0  0
  183.3090  179.0460  144.7430 C   0  0  0  0  0  2  0  0  0  0  0  0
  181.4780  175.2390  137.2540 O   0  0  0  0  0  0  0  0  0  0  0  0
  184.5060  178.6330  139.0340 C   0  0  2  0  0  3  0  0  0  0  0  0
  184.9470  175.5890  136.6360 C   0  0  0  0  0  3  0  0  0  0  0  0
  182.9490  176.8060  138.3140 C   0  0  0  0  0  0  0  0  0  0  0  0
  183.6140  178.9640  140.2510 C   0  0  2  0  0  3  0  0  0  0  0  0
  186.9860  179.0520  141.4680 O   0  0  0  0  0  0  0  0  0  0  0  0
  184.5590  179.1450  141.4760 C   0  0  1  0  0  3  0  0  0  0  0  0
  184.8120  179.2200  144.7610 C   0  0  0  0  0  2  0  0  0  0  0  0
  180.8650  179.6600  143.4790 O   0  0  0  0  0  1  0  0  0  0  0  0
  185.2000  176.9450  137.2340 C   0  0  0  0  0  2  0  0  0  0  0  0
  184.1760  177.3780  138.2630 C   0  0  0  0  0  0  0  0  0  0  0  0
  181.9130  179.2530  142.6490 C   0  0  1  0  0  3  0  0  0  0  0  0
  178.9310  175.8760  140.5130 O   0  0  0  0  0  0  0  0  0  0  0  0
  179.2900  173.7830  141.5800 C   0  0  0  0  0  1  0  0  0  0  0  0
  179.6470  174.6820  140.4150 C   0  0  0  0  0  2  0  0  0  0  0  0
  1 19  1  6  0  0  0
  1  5  1  0  0  0  0
  1  4  1  0  0  0  0
  2 19  1  0  0  0  0
  3 10  1  0  0  0  0
  4 12  1  0  0  0  0
  5 11  1  0  0  0  0
  7 15  1  0  0  0  0
  8  6  2  0  0  0  0
  9  7  1  0  0  0  0
  9 14  1  0  0  0  0
 10 21  2  0  0  0  0
 10 22  1  0  0  0  0
 11 28  1  0  0  0  0
 11  8  1  0  0  0  0
 12  8  1  0  0  0  0
 12 27  1  0  0  0  0
 13  2  1  0  0  0  0
 14 23  1  0  0  0  0
 15 23  1  0  0  0  0
 16  2  2  0  0  0  0
 17  3  1  0  0  0  0
 17 20  1  0  0  0  0
 18 13  2  0  0  0  0
 18 25  1  0  0  0  0
 20  4  1  0  0  0  0
 20 22  1  0  0  0  0
 22  9  1  0  0  0  0
 25 26  1  0  0  0  0
 26 19  2  0  0  0  0
 26 17  1  0  0  0  0
 27  7  1  0  0  0  0
 27 24  1  0  0  0  0
 30 28  1  0  0  0  0
 30 29  1  0  0  0  0
M  END
>  <MODEL>
8

>  <REMARK>
 VINA RESULT:      -8.0      2.139      3.827
  Name = 
  2 active torsions:
  status: ('A' for Active; 'I' for Inactive)
    1  A    between atoms: C_11  and  O_28
    2  A    between atoms: O_28  and  C_30
                            x       y       z     vdW  Elec       q    Type
                         _______ _______ _______ _____ _____    ______ ____

>  <TORSDO>
F 2

$$$$
=
 OpenBabel11122410343D

 30 35  0  0  1  0  0  0  0  0999 V2000
  187.6780  178.1860  141.4440 C   0  0  2  0  0  3  0  0  0  0  0  0
  187.9120  177.5160  143.9500 C   0  0  0  0  0  0  0  0  0  0  0  0
  183.6680  178.9620  142.2090 O   0  0  0  0  0  0  0  0  0  0  0  0
  186.5750  178.1150  140.3760 C   0  0  2  0  0  3  0  0  0  0  0  0
  188.5800  177.1200  141.2120 O   0  0  0  0  0  0  0  0  0  0  0  0
  188.6220  176.8020  137.8350 O   0  0  0  0  0  0  0  0  0  0  0  0
  185.1290  177.1430  137.9690 C   0  0  1  0  0  3  0  0  0  0  0  0
  188.3870  177.4380  138.8520 C   0  0  0  0  0  0  0  0  0  0  0  0
  184.1960  177.2120  139.2010 C   0  0  2  0  0  3  0  0  0  0  0  0
  183.1160  178.6280  140.9940 C   0  0  0  0  0  0  0  0  0  0  0  0
  189.3140  177.4040  140.0410 C   0  0  2  0  0  3  0  0  0  0  0  0
  187.1860  178.3350  138.9880 C   0  0  1  0  0  3  0  0  0  0  0  0
  187.2750  177.2250  145.2360 C   0  0  0  0  0  3  0  0  0  0  0  0
  182.8470  176.7460  138.6820 C   0  0  0  0  0  2  0  0  0  0  0  0
  184.2330  177.0730  136.7390 C   0  0  0  0  0  2  0  0  0  0  0  0
  189.1360  177.2600  143.8000 O   0  0  0  0  0  0  0  0  0  0  0  0
  185.0380  179.2930  142.0890 C   0  0  2  0  0  3  0  0  0  0  0  0
  186.0560  177.6880  145.4950 C   0  0  0  0  0  3  0  0  0  0  0  0
  187.1000  178.0840  142.8410 C   0  0  0  0  0  0  0  0  0  0  0  0
  185.4010  179.0660  140.6050 C   0  0  2  0  0  3  0  0  0  0  0  0
  181.8830  178.4170  140.8520 O   0  0  0  0  0  0  0  0  0  0  0  0
  184.1000  178.6130  139.8780 C   0  0  1  0  0  3  0  0  0  0  0  0
  182.8030  177.1470  137.2270 C   0  0  0  0  0  2  0  0  0  0  0  0
  186.7580  178.3200  136.5960 O   0  0  0  0  0  1  0  0  0  0  0  0
  185.3380  178.5990  144.5380 C   0  0  0  0  0  2  0  0  0  0  0  0
  185.8610  178.5560  143.1170 C   0  0  0  0  0  0  0  0  0  0  0  0
  186.1430  178.2930  137.8510 C   0  0  1  0  0  3  0  0  0  0  0  0
  190.3090  176.4370  139.8680 O   0  0  0  0  0  0  0  0  0  0  0  0
  191.9130  177.5030  141.2610 C   0  0  0  0  0  1  0  0  0  0  0  0
  191.5040  177.1570  139.8450 C   0  0  0  0  0  2  0  0  0  0  0  0
  1  5  1  6  0  0  0
  1 19  1  0  0  0  0
  2 13  1  0  0  0  0
  4 20  1  0  0  0  0
  4  1  1  0  0  0  0
  6  8  2  0  0  0  0
  7  9  1  0  0  0  0
  8 12  1  0  0  0  0
  8 11  1  0  0  0  0
  9 22  1  0  0  0  0
 10  3  1  0  0  0  0
 11  5  1  0  0  0  0
 12  4  1  0  0  0  0
 13 18  2  0  0  0  0
 14  9  1  0  0  0  0
 15 23  1  0  0  0  0
 15  7  1  0  0  0  0
 16  2  2  0  0  0  0
 17  3  1  0  0  0  0
 17 26  1  0  0  0  0
 19 26  2  0  0  0  0
 19  2  1  0  0  0  0
 20 17  1  0  0  0  0
 21 10  2  0  0  0  0
 22 20  1  0  0  0  0
 22 10  1  0  0  0  0
 23 14  1  0  0  0  0
 24 27  1  0  0  0  0
 25 18  1  0  0  0  0
 26 25  1  0  0  0  0
 27  7  1  0  0  0  0
 27 12  1  0  0  0  0
 28 11  1  0  0  0  0
 30 28  1  0  0  0  0
 30 29  1  0  0  0  0
M  END
>  <MODEL>
9

>  <REMARK>
 VINA RESULT:      -7.7      2.058      7.486
  Name = 
  2 active torsions:
  status: ('A' for Active; 'I' for Inactive)
    1  A    between atoms: C_11  and  O_28
    2  A    between atoms: O_28  and  C_30
                            x       y       z     vdW  Elec       q    Type
                         _______ _______ _______ _____ _____    ______ ____

>  <TORSDO>
F 2

$$$$
