=
 OpenBabel11122410223D

 30 35  0  0  1  0  0  0  0  0999 V2000
  185.3080  178.1430  142.2560 C   0  0  0  0  0  0  0  0  0  0  0  0
  186.2980  178.1310  144.6170 C   0  0  0  0  0  0  0  0  0  0  0  0
  181.1290  179.0730  143.8830 S   0  0  0  0  0  0  0  0  0  0  0  0
  184.1880  178.3290  141.4080 C   0  0  0  0  0  0  0  0  0  0  0  0
  186.6130  177.7100  141.6460 C   0  0  0  0  0  2  0  0  0  0  0  0
  185.9670  179.0210  138.3000 O   0  0  0  0  0  0  0  0  0  0  0  0
  182.3280  176.7480  139.8130 C   0  0  1  0  0  3  0  0  0  0  0  0
  185.7540  178.5720  139.4580 C   0  0  0  0  0  0  0  0  0  0  0  0
  181.5070  178.0020  139.9480 C   0  0  1  0  0  3  0  0  0  0  0  0
  180.5490  178.9520  142.1450 C   0  0  1  0  0  3  0  0  0  0  0  0
  186.8460  178.3660  140.3660 N   0  0  0  0  0  0  0  0  0  0  0  0
  184.3420  178.2910  139.8970 C   0  0  1  0  0  3  0  0  0  0  0  0
  186.1960  178.6870  146.0080 C   0  0  0  0  0  2  0  0  0  0  0  0
  180.1050  177.5030  139.6850 C   0  0  0  0  0  2  0  0  0  0  0  0
  181.5540  175.8250  139.0020 N   0  0  0  0  0  2  0  0  0  0  0  0
  187.3650  177.5540  144.2800 O   0  0  0  0  0  0  0  0  0  0  0  0
  182.8070  178.7720  143.3460 C   0  0  0  0  0  0  0  0  0  0  0  0
  184.7750  178.7770  146.4920 C   0  0  0  0  0  3  0  0  0  0  0  0
  185.1700  178.3070  143.6610 C   0  0  0  0  0  0  0  0  0  0  0  0
  182.9290  178.5890  141.9900 C   0  0  0  0  0  0  0  0  0  0  0  0
  179.9940  180.2950  141.7090 C   0  0  0  0  0  1  0  0  0  0  0  0
  181.6790  178.5800  141.2920 N   0  0  0  0  0  0  0  0  0  0  0  0
  180.2000  176.1050  139.2670 N   0  0  0  0  0  2  0  0  0  0  0  0
  183.6700  177.2120  137.7270 C   0  0  0  0  0  1  0  0  0  0  0  0
  183.7350  178.7950  145.6570 C   0  0  0  0  0  3  0  0  0  0  0  0
  183.9090  178.6490  144.1980 C   0  0  0  0  0  0  0  0  0  0  0  0
  183.7290  177.0350  139.2430 C   0  0  2  0  0  3  0  0  0  0  0  0
  188.2220  178.6050  139.9570 C   0  0  0  0  0  2  0  0  0  0  0  0
  190.1880  177.1060  140.0350 C   0  0  0  0  0  1  0  0  0  0  0  0
  189.1740  177.8580  140.8720 C   0  0  0  0  0  2  0  0  0  0  0  0
  1 19  1  0  0  0  0
  2 13  1  0  0  0  0
  4 20  1  0  0  0  0
  4  1  2  0  0  0  0
  5  1  1  0  0  0  0
  6  8  2  0  0  0  0
  7 15  1  6  0  0  0
  7  9  1  0  0  0  0
  8 11  1  0  0  0  0
  9 14  1  1  0  0  0
  9 22  1  0  0  0  0
 10 21  1  6  0  0  0
 10  3  1  0  0  0  0
 11  5  1  0  0  0  0
 12  8  1  1  0  0  0
 12  4  1  0  0  0  0
 13 18  1  0  0  0  0
 15 23  1  0  0  0  0
 16  2  2  0  0  0  0
 17  3  1  0  0  0  0
 17 26  1  0  0  0  0
 19 26  2  0  0  0  0
 19  2  1  0  0  0  0
 20 17  2  0  0  0  0
 22 20  1  0  0  0  0
 22 10  1  0  0  0  0
 23 14  1  0  0  0  0
 25 18  2  0  0  0  0
 26 25  1  0  0  0  0
 27 24  1  6  0  0  0
 27  7  1  0  0  0  0
 27 12  1  0  0  0  0
 28 11  1  0  0  0  0
 28 30  1  0  0  0  0
 29 30  1  0  0  0  0
M  END
>  <MODEL>
1

>  <REMARK>
 VINA RESULT:      -7.7      0.000      0.000
  Name = 
  2 active torsions:
  status: ('A' for Active; 'I' for Inactive)
    1  A    between atoms: N_11  and  C_28
    2  A    between atoms: C_28  and  C_30
                            x       y       z     vdW  Elec       q    Type
                         _______ _______ _______ _____ _____    ______ ____

>  <TORSDO>
F 2

$$$$
=
 OpenBabel11122410223D

 30 35  0  0  1  0  0  0  0  0999 V2000
  188.5600  177.4890  141.6090 C   0  0  0  0  0  0  0  0  0  0  0  0
  186.8030  177.7870  143.4480 C   0  0  0  0  0  0  0  0  0  0  0  0
  185.5410  178.6530  138.3680 S   0  0  0  0  0  0  0  0  0  0  0  0
  188.9100  177.5650  140.2390 C   0  0  0  0  0  0  0  0  0  0  0  0
  189.5780  176.9690  142.5880 C   0  0  0  0  0  2  0  0  0  0  0  0
  192.5290  177.8240  140.6160 O   0  0  0  0  0  0  0  0  0  0  0  0
  189.4270  175.7970  137.9780 C   0  0  1  0  0  3  0  0  0  0  0  0
  191.3350  177.5360  140.8980 C   0  0  0  0  0  0  0  0  0  0  0  0
  189.1360  177.0630  137.2180 C   0  0  1  0  0  3  0  0  0  0  0  0
  186.8770  178.3040  137.1580 C   0  0  1  0  0  3  0  0  0  0  0  0
  190.9160  177.4460  142.2670 N   0  0  0  0  0  0  0  0  0  0  0  0
  190.3410  177.3250  139.7870 C   0  0  1  0  0  3  0  0  0  0  0  0
  185.5670  178.5240  143.8750 C   0  0  0  0  0  2  0  0  0  0  0  0
  188.7570  176.5420  135.8510 C   0  0  0  0  0  2  0  0  0  0  0  0
  189.7420  174.7780  136.9930 N   0  0  0  0  0  2  0  0  0  0  0  0
  187.4600  177.1630  144.3220 O   0  0  0  0  0  0  0  0  0  0  0  0
  186.6560  178.2730  139.7120 C   0  0  0  0  0  0  0  0  0  0  0  0
  184.5760  178.6870  142.7560 C   0  0  0  0  0  3  0  0  0  0  0  0
  187.2480  177.8390  142.0270 C   0  0  0  0  0  0  0  0  0  0  0  0
  187.9150  177.9090  139.3000 C   0  0  0  0  0  0  0  0  0  0  0  0
  187.2220  179.5800  136.4130 C   0  0  0  0  0  1  0  0  0  0  0  0
  188.0540  177.8140  137.8770 N   0  0  0  0  0  0  0  0  0  0  0  0
  189.0000  175.1000  135.8400 N   0  0  0  0  0  2  0  0  0  0  0  0
  191.9140  175.9700  138.3680 C   0  0  0  0  0  1  0  0  0  0  0  0
  184.9250  178.5990  141.4720 C   0  0  0  0  0  3  0  0  0  0  0  0
  186.3020  178.2590  141.0650 C   0  0  0  0  0  0  0  0  0  0  0  0
  190.5360  175.9960  139.0260 C   0  0  2  0  0  3  0  0  0  0  0  0
  191.8630  177.6200  143.3580 C   0  0  0  0  0  2  0  0  0  0  0  0
  191.5620  176.7340  145.6480 C   0  0  0  0  0  1  0  0  0  0  0  0
  191.1200  177.8010  144.6690 C   0  0  0  0  0  2  0  0  0  0  0  0
  1 19  1  0  0  0  0
  1  5  1  0  0  0  0
  2 13  1  0  0  0  0
  2 16  2  0  0  0  0
  3 17  1  0  0  0  0
  4  1  2  0  0  0  0
  6  8  2  0  0  0  0
  7 15  1  6  0  0  0
  7 27  1  0  0  0  0
  8 11  1  0  0  0  0
  9 14  1  6  0  0  0
  9 22  1  0  0  0  0
  9  7  1  0  0  0  0
 10 21  1  1  0  0  0
 10 22  1  0  0  0  0
 10  3  1  0  0  0  0
 11  5  1  0  0  0  0
 11 28  1  0  0  0  0
 12  4  1  1  0  0  0
 12  8  1  0  0  0  0
 17 26  1  0  0  0  0
 18 13  1  0  0  0  0
 19  2  1  0  0  0  0
 20 17  2  0  0  0  0
 20  4  1  0  0  0  0
 22 20  1  0  0  0  0
 23 14  1  0  0  0  0
 23 15  1  0  0  0  0
 25 18  2  0  0  0  0
 26 25  1  0  0  0  0
 26 19  2  0  0  0  0
 27 24  1  6  0  0  0
 27 12  1  0  0  0  0
 28 30  1  0  0  0  0
 30 29  1  0  0  0  0
M  END
>  <MODEL>
2

>  <REMARK>
 VINA RESULT:      -7.7      3.749      6.136
  Name = 
  2 active torsions:
  status: ('A' for Active; 'I' for Inactive)
    1  A    between atoms: N_11  and  C_28
    2  A    between atoms: C_28  and  C_30
                            x       y       z     vdW  Elec       q    Type
                         _______ _______ _______ _____ _____    ______ ____

>  <TORSDO>
F 2

$$$$
=
 OpenBabel11122410223D

 30 35  0  0  1  0  0  0  0  0999 V2000
  186.3680  178.5160  145.0550 C   0  0  0  0  0  0  0  0  0  0  0  0
  186.6220  179.0530  147.5460 C   0  0  0  0  0  0  0  0  0  0  0  0
  190.4950  176.5340  144.9380 S   0  0  0  0  0  0  0  0  0  0  0  0
  186.8900  177.9230  143.8800 C   0  0  0  0  0  0  0  0  0  0  0  0
  185.0630  179.2620  144.9700 C   0  0  0  0  0  2  0  0  0  0  0  0
  183.7660  177.5030  142.0460 O   0  0  0  0  0  0  0  0  0  0  0  0
  188.0950  178.7100  141.3440 C   0  0  1  0  0  3  0  0  0  0  0  0
  184.5870  177.9750  142.8760 C   0  0  0  0  0  0  0  0  0  0  0  0
  188.5790  177.2870  141.3960 C   0  0  1  0  0  3  0  0  0  0  0  0
  190.2090  176.3080  143.1390 C   0  0  1  0  0  3  0  0  0  0  0  0
  184.1220  178.5870  144.0880 N   0  0  0  0  0  0  0  0  0  0  0  0
  186.0640  177.8600  142.6070 C   0  0  1  0  0  3  0  0  0  0  0  0
  187.2320  178.6280  148.8510 C   0  0  0  0  0  2  0  0  0  0  0  0
  189.7700  177.3130  140.4650 C   0  0  0  0  0  2  0  0  0  0  0  0
  188.5870  179.2760  140.1000 N   0  0  0  0  0  2  0  0  0  0  0  0
  185.6810  179.8890  147.5690 O   0  0  0  0  0  0  0  0  0  0  0  0
  188.8750  177.2720  145.1030 C   0  0  0  0  0  0  0  0  0  0  0  0
  188.6530  178.1620  148.6990 C   0  0  0  0  0  3  0  0  0  0  0  0
  187.1030  178.4550  146.2700 C   0  0  0  0  0  0  0  0  0  0  0  0
  188.1810  177.3530  143.9210 C   0  0  0  0  0  0  0  0  0  0  0  0
  190.1800  174.8250  142.8190 C   0  0  0  0  0  1  0  0  0  0  0  0
  188.9290  176.9190  142.7790 N   0  0  0  0  0  0  0  0  0  0  0  0
  189.8070  178.6280  139.8260 N   0  0  0  0  0  2  0  0  0  0  0  0
  185.8710  178.4730  140.1760 C   0  0  0  0  0  1  0  0  0  0  0  0
  189.1510  177.7520  147.5310 C   0  0  0  0  0  3  0  0  0  0  0  0
  188.3560  177.8020  146.2890 C   0  0  0  0  0  0  0  0  0  0  0  0
  186.5660  178.8040  141.4940 C   0  0  2  0  0  3  0  0  0  0  0  0
  182.7000  178.7340  144.3590 C   0  0  0  0  0  2  0  0  0  0  0  0
  180.5380  179.0110  143.1890 C   0  0  0  0  0  1  0  0  0  0  0  0
  182.0070  179.3780  143.1730 C   0  0  0  0  0  2  0  0  0  0  0  0
  1 19  1  0  0  0  0
  2 16  2  0  0  0  0
  2 13  1  0  0  0  0
  3 17  1  0  0  0  0
  4 20  1  0  0  0  0
  4  1  2  0  0  0  0
  5  1  1  0  0  0  0
  6  8  2  0  0  0  0
  7 15  1  6  0  0  0
  7  9  1  0  0  0  0
  7 27  1  0  0  0  0
  8 11  1  0  0  0  0
  9 14  1  6  0  0  0
  9 22  1  0  0  0  0
 10 21  1  1  0  0  0
 10  3  1  0  0  0  0
 11 28  1  0  0  0  0
 11  5  1  0  0  0  0
 12  8  1  1  0  0  0
 12  4  1  0  0  0  0
 17 26  1  0  0  0  0
 18 13  1  0  0  0  0
 19 26  2  0  0  0  0
 19  2  1  0  0  0  0
 20 17  2  0  0  0  0
 22 10  1  0  0  0  0
 22 20  1  0  0  0  0
 23 15  1  0  0  0  0
 23 14  1  0  0  0  0
 25 18  2  0  0  0  0
 26 25  1  0  0  0  0
 27 24  1  6  0  0  0
 27 12  1  0  0  0  0
 30 29  1  0  0  0  0
 30 28  1  0  0  0  0
M  END
>  <MODEL>
3

>  <REMARK>
 VINA RESULT:      -6.8      3.309      6.553
  Name = 
  2 active torsions:
  status: ('A' for Active; 'I' for Inactive)
    1  A    between atoms: N_11  and  C_28
    2  A    between atoms: C_28  and  C_30
                            x       y       z     vdW  Elec       q    Type
                         _______ _______ _______ _____ _____    ______ ____

>  <TORSDO>
F 2

$$$$
=
 OpenBabel11122410223D

 30 35  0  0  1  0  0  0  0  0999 V2000
  186.5950  178.0180  142.0370 C   0  0  0  0  0  0  0  0  0  0  0  0
  186.0790  177.9100  144.5430 C   0  0  0  0  0  0  0  0  0  0  0  0
  182.3060  179.3120  141.0870 S   0  0  0  0  0  0  0  0  0  0  0  0
  186.1650  178.3050  140.7190 C   0  0  0  0  0  0  0  0  0  0  0  0
  187.9820  177.4710  142.2430 C   0  0  0  0  0  2  0  0  0  0  0  0
  189.4290  178.8450  139.1850 O   0  0  0  0  0  0  0  0  0  0  0  0
  185.4180  176.9020  138.2740 C   0  0  1  0  0  3  0  0  0  0  0  0
  188.5690  178.4140  139.9990 C   0  0  0  0  0  0  0  0  0  0  0  0
  184.7570  178.2230  137.9910 C   0  0  1  0  0  3  0  0  0  0  0  0
  182.7990  179.2480  139.3200 C   0  0  1  0  0  3  0  0  0  0  0  0
  188.9420  178.1080  141.3510 N   0  0  0  0  0  0  0  0  0  0  0  0
  187.1390  178.2590  139.5550 C   0  0  1  0  0  3  0  0  0  0  0  0
  185.2510  178.4690  145.6650 C   0  0  0  0  0  2  0  0  0  0  0  0
  183.7150  177.8530  136.9610 C   0  0  0  0  0  2  0  0  0  0  0  0
  185.1720  176.0530  137.1210 N   0  0  0  0  0  2  0  0  0  0  0  0
  187.1060  177.2410  144.8320 O   0  0  0  0  0  0  0  0  0  0  0  0
  183.9680  178.8640  141.5690 C   0  0  0  0  0  0  0  0  0  0  0  0
  183.8160  178.6840  145.2720 C   0  0  0  0  0  3  0  0  0  0  0  0
  185.7020  178.1890  143.1300 C   0  0  0  0  0  0  0  0  0  0  0  0
  184.8190  178.6750  140.5070 C   0  0  0  0  0  0  0  0  0  0  0  0
  182.6850  180.6370  138.7190 C   0  0  0  0  0  1  0  0  0  0  0  0
  184.1830  178.7790  139.2280 N   0  0  0  0  0  0  0  0  0  0  0  0
  183.9280  176.4530  136.5950 N   0  0  0  0  0  2  0  0  0  0  0  0
  187.7310  177.2510  137.3280 C   0  0  0  0  0  1  0  0  0  0  0  0
  183.4320  178.7960  144.0000 C   0  0  0  0  0  3  0  0  0  0  0  0
  184.3860  178.6410  142.8850 C   0  0  0  0  0  0  0  0  0  0  0  0
  186.9130  177.0640  138.6040 C   0  0  2  0  0  3  0  0  0  0  0  0
  190.3210  178.2250  141.7970 C   0  0  0  0  0  2  0  0  0  0  0  0
  191.2070  179.0090  143.9700 C   0  0  0  0  0  1  0  0  0  0  0  0
  190.4170  177.9160  143.2800 C   0  0  0  0  0  2  0  0  0  0  0  0
  1  5  1  0  0  0  0
  1 19  1  0  0  0  0
  2 16  2  0  0  0  0
  2 13  1  0  0  0  0
  3 17  1  0  0  0  0
  4  1  2  0  0  0  0
  6  8  2  0  0  0  0
  7 15  1  6  0  0  0
  7 27  1  0  0  0  0
  8 11  1  0  0  0  0
  9 14  1  6  0  0  0
  9  7  1  0  0  0  0
  9 22  1  0  0  0  0
 10 21  1  1  0  0  0
 10  3  1  0  0  0  0
 11 28  1  0  0  0  0
 11  5  1  0  0  0  0
 12  8  1  1  0  0  0
 12  4  1  0  0  0  0
 17 26  1  0  0  0  0
 18 13  1  0  0  0  0
 19  2  1  0  0  0  0
 20  4  1  0  0  0  0
 20 17  2  0  0  0  0
 22 10  1  0  0  0  0
 22 20  1  0  0  0  0
 23 14  1  0  0  0  0
 23 15  1  0  0  0  0
 25 18  2  0  0  0  0
 26 19  2  0  0  0  0
 26 25  1  0  0  0  0
 27 24  1  6  0  0  0
 27 12  1  0  0  0  0
 28 30  1  0  0  0  0
 30 29  1  0  0  0  0
M  END
>  <MODEL>
4

>  <REMARK>
 VINA RESULT:      -6.7      2.152      2.939
  Name = 
  2 active torsions:
  status: ('A' for Active; 'I' for Inactive)
    1  A    between atoms: N_11  and  C_28
    2  A    between atoms: C_28  and  C_30
                            x       y       z     vdW  Elec       q    Type
                         _______ _______ _______ _____ _____    ______ ____

>  <TORSDO>
F 2

$$$$
=
 OpenBabel11122410223D

 30 35  0  0  1  0  0  0  0  0999 V2000
  184.8390  178.1770  139.7190 C   0  0  0  0  0  0  0  0  0  0  0  0
  186.1230  178.1270  137.5040 C   0  0  0  0  0  0  0  0  0  0  0  0
  181.1260  176.3620  137.7450 S   0  0  0  0  0  0  0  0  0  0  0  0
  183.6610  177.8820  140.4480 C   0  0  0  0  0  0  0  0  0  0  0  0
  185.9620  178.8940  140.4190 C   0  0  0  0  0  2  0  0  0  0  0  0
  185.0920  177.8320  143.8020 O   0  0  0  0  0  0  0  0  0  0  0  0
  181.3690  179.2590  141.6120 C   0  0  1  0  0  3  0  0  0  0  0  0
  184.9670  178.1170  142.5810 C   0  0  0  0  0  0  0  0  0  0  0  0
  180.7900  177.8730  141.5370 C   0  0  1  0  0  3  0  0  0  0  0  0
  180.3050  176.5520  139.3760 C   0  0  1  0  0  3  0  0  0  0  0  0
  186.1230  178.4210  141.7870 N   0  0  0  0  0  0  0  0  0  0  0  0
  183.6010  178.0970  141.9500 C   0  0  1  0  0  3  0  0  0  0  0  0
  186.3020  177.4250  136.1890 C   0  0  0  0  0  2  0  0  0  0  0  0
  179.3030  178.1390  141.5730 C   0  0  0  0  0  2  0  0  0  0  0  0
  180.3530  180.1080  142.2100 N   0  0  0  0  0  2  0  0  0  0  0  0
  187.0260  178.9160  137.8900 O   0  0  0  0  0  0  0  0  0  0  0  0
  182.6440  177.0080  138.4320 C   0  0  0  0  0  0  0  0  0  0  0  0
  184.9930  177.0370  135.5590 C   0  0  0  0  0  3  0  0  0  0  0  0
  184.9210  177.8510  138.3380 C   0  0  0  0  0  0  0  0  0  0  0  0
  182.5510  177.3460  139.7600 C   0  0  0  0  0  0  0  0  0  0  0  0
  179.9230  175.1830  139.9060 C   0  0  0  0  0  1  0  0  0  0  0  0
  181.2330  177.2030  140.3030 N   0  0  0  0  0  0  0  0  0  0  0  0
  179.1110  179.5660  141.8260 N   0  0  0  0  0  2  0  0  0  0  0  0
  182.4750  179.2520  143.8800 C   0  0  0  0  0  1  0  0  0  0  0  0
  183.8670  176.9190  136.2640 C   0  0  0  0  0  3  0  0  0  0  0  0
  183.8160  177.2380  137.7040 C   0  0  0  0  0  0  0  0  0  0  0  0
  182.7080  179.2840  142.3710 C   0  0  2  0  0  3  0  0  0  0  0  0
  187.4520  178.4720  142.3780 C   0  0  0  0  0  2  0  0  0  0  0  0
  188.2180  176.3010  143.2860 C   0  0  0  0  0  1  0  0  0  0  0  0
  188.2110  177.1960  142.0640 C   0  0  0  0  0  2  0  0  0  0  0  0
  1  5  1  0  0  0  0
  1  4  1  0  0  0  0
  2 16  2  0  0  0  0
  2 19  1  0  0  0  0
  3 17  1  0  0  0  0
  3 10  1  0  0  0  0
  5 11  1  0  0  0  0
  7 15  1  1  0  0  0
  7 27  1  0  0  0  0
  8  6  2  0  0  0  0
  9 14  1  6  0  0  0
  9  7  1  0  0  0  0
 10 21  1  1  0  0  0
 10 22  1  0  0  0  0
 11 28  1  0  0  0  0
 11  8  1  0  0  0  0
 12  4  1  6  0  0  0
 12 27  1  0  0  0  0
 12  8  1  0  0  0  0
 13  2  1  0  0  0  0
 14 23  1  0  0  0  0
 17 20  1  0  0  0  0
 18 13  1  0  0  0  0
 18 25  2  0  0  0  0
 19  1  2  0  0  0  0
 20 22  1  0  0  0  0
 20  4  2  0  0  0  0
 22  9  1  0  0  0  0
 23 15  1  0  0  0  0
 25 26  1  0  0  0  0
 26 19  1  0  0  0  0
 26 17  2  0  0  0  0
 27 24  1  1  0  0  0
 30 28  1  0  0  0  0
 30 29  1  0  0  0  0
M  END
>  <MODEL>
5

>  <REMARK>
 VINA RESULT:      -6.6      2.125      5.218
  Name = 
  2 active torsions:
  status: ('A' for Active; 'I' for Inactive)
    1  A    between atoms: N_11  and  C_28
    2  A    between atoms: C_28  and  C_30
                            x       y       z     vdW  Elec       q    Type
                         _______ _______ _______ _____ _____    ______ ____

>  <TORSDO>
F 2

$$$$
=
 OpenBabel11122410223D

 30 35  0  0  1  0  0  0  0  0999 V2000
  185.1940  178.5480  139.7460 C   0  0  0  0  0  0  0  0  0  0  0  0
  187.7370  178.2550  139.6970 C   0  0  0  0  0  0  0  0  0  0  0  0
  184.8020  176.9140  135.4860 S   0  0  0  0  0  0  0  0  0  0  0  0
  183.9400  178.3960  139.1050 C   0  0  0  0  0  0  0  0  0  0  0  0
  185.2410  179.2170  141.0930 C   0  0  0  0  0  2  0  0  0  0  0  0
  181.8060  178.4460  142.0620 O   0  0  0  0  0  0  0  0  0  0  0  0
  181.9050  180.0240  137.7970 C   0  0  1  0  0  3  0  0  0  0  0  0
  182.8110  178.6610  141.3340 C   0  0  0  0  0  0  0  0  0  0  0  0
  181.5390  178.6860  137.2140 C   0  0  1  0  0  3  0  0  0  0  0  0
  183.0080  177.2730  135.6350 C   0  0  1  0  0  3  0  0  0  0  0  0
  184.1110  178.8210  141.9230 N   0  0  0  0  0  0  0  0  0  0  0  0
  182.6480  178.7110  139.8380 C   0  0  1  0  0  3  0  0  0  0  0  0
  188.8840  177.4580  139.1450 C   0  0  0  0  0  2  0  0  0  0  0  0
  180.7720  179.0720  135.9700 C   0  0  0  0  0  2  0  0  0  0  0  0
  180.9560  180.9870  137.2670 N   0  0  0  0  0  2  0  0  0  0  0  0
  187.9460  178.9910  140.6970 O   0  0  0  0  0  0  0  0  0  0  0  0
  185.0560  177.4790  137.1620 C   0  0  0  0  0  0  0  0  0  0  0  0
  188.7140  177.1350  137.6860 C   0  0  0  0  0  3  0  0  0  0  0  0
  186.3830  178.1300  139.0900 C   0  0  0  0  0  0  0  0  0  0  0  0
  183.9070  177.9070  137.7820 C   0  0  0  0  0  0  0  0  0  0  0  0
  182.2290  175.9760  135.5330 C   0  0  0  0  0  1  0  0  0  0  0  0
  182.7550  177.9050  136.9300 N   0  0  0  0  0  0  0  0  0  0  0  0
  180.5950  180.5230  135.9870 N   0  0  0  0  0  2  0  0  0  0  0  0
  180.5350  180.0740  139.9150 C   0  0  0  0  0  1  0  0  0  0  0  0
  187.5240  177.1540  137.0840 C   0  0  0  0  0  3  0  0  0  0  0  0
  186.3000  177.5680  137.7960 C   0  0  0  0  0  0  0  0  0  0  0  0
  181.9450  179.9900  139.3350 C   0  0  2  0  0  3  0  0  0  0  0  0
  184.2910  178.8030  143.3660 C   0  0  0  0  0  2  0  0  0  0  0  0
  185.8460  178.2710  145.2160 C   0  0  0  0  0  1  0  0  0  0  0  0
  185.6580  178.2440  143.7140 C   0  0  0  0  0  2  0  0  0  0  0  0
  1  5  1  0  0  0  0
  2 16  2  0  0  0  0
  3 10  1  0  0  0  0
  3 17  1  0  0  0  0
  4  1  1  0  0  0  0
  5 11  1  0  0  0  0
  7 15  1  1  0  0  0
  7 27  1  0  0  0  0
  8 11  1  0  0  0  0
  8  6  2  0  0  0  0
  9 14  1  6  0  0  0
  9  7  1  0  0  0  0
 10 21  1  1  0  0  0
 10 22  1  0  0  0  0
 11 28  1  0  0  0  0
 12  4  1  6  0  0  0
 12  8  1  0  0  0  0
 13  2  1  0  0  0  0
 14 23  1  0  0  0  0
 17 20  1  0  0  0  0
 17 26  2  0  0  0  0
 18 13  1  0  0  0  0
 19  2  1  0  0  0  0
 19  1  2  0  0  0  0
 20  4  2  0  0  0  0
 22  9  1  0  0  0  0
 22 20  1  0  0  0  0
 23 15  1  0  0  0  0
 25 18  2  0  0  0  0
 25 26  1  0  0  0  0
 26 19  1  0  0  0  0
 27 12  1  0  0  0  0
 27 24  1  1  0  0  0
 28 30  1  0  0  0  0
 30 29  1  0  0  0  0
M  END
>  <MODEL>
6

>  <REMARK>
 VINA RESULT:      -6.5      3.096      5.608
  Name = 
  2 active torsions:
  status: ('A' for Active; 'I' for Inactive)
    1  A    between atoms: N_11  and  C_28
    2  A    between atoms: C_28  and  C_30
                            x       y       z     vdW  Elec       q    Type
                         _______ _______ _______ _____ _____    ______ ____

>  <TORSDO>
F 2

$$$$
=
 OpenBabel11122410223D

 30 35  0  0  1  0  0  0  0  0999 V2000
  188.3780  177.4040  139.7530 C   0  0  0  0  0  0  0  0  0  0  0  0
  189.6420  176.4590  137.7370 C   0  0  0  0  0  0  0  0  0  0  0  0
  192.2390  177.6660  142.2030 S   0  0  0  0  0  0  0  0  0  0  0  0
  188.4050  177.9170  141.0730 C   0  0  0  0  0  0  0  0  0  0  0  0
  187.0480  177.2300  139.0720 C   0  0  0  0  0  2  0  0  0  0  0  0
  185.2540  179.7520  141.0080 O   0  0  0  0  0  0  0  0  0  0  0  0
  187.7010  177.1070  143.7840 C   0  0  1  0  0  3  0  0  0  0  0  0
  186.1180  178.8890  140.7010 C   0  0  0  0  0  0  0  0  0  0  0  0
  188.6610  178.2160  144.1180 C   0  0  1  0  0  3  0  0  0  0  0  0
  191.1850  178.2400  143.5910 C   0  0  1  0  0  3  0  0  0  0  0  0
  186.1460  178.3320  139.3780 N   0  0  0  0  0  0  0  0  0  0  0  0
  187.1470  178.4730  141.7180 C   0  0  1  0  0  3  0  0  0  0  0  0
  190.9470  176.4270  136.9930 C   0  0  0  0  0  2  0  0  0  0  0  0
  189.0750  177.8740  145.5310 C   0  0  0  0  0  2  0  0  0  0  0  0
  187.2090  176.5820  145.0460 N   0  0  0  0  0  2  0  0  0  0  0  0
  188.6070  176.0490  137.1480 O   0  0  0  0  0  0  0  0  0  0  0  0
  190.8020  177.5820  141.1440 C   0  0  0  0  0  0  0  0  0  0  0  0
  192.1330  176.3360  137.9120 C   0  0  0  0  0  3  0  0  0  0  0  0
  189.5870  177.0060  139.1210 C   0  0  0  0  0  0  0  0  0  0  0  0
  189.6330  177.9420  141.7690 C   0  0  0  0  0  0  0  0  0  0  0  0
  191.5870  179.6520  143.9740 C   0  0  0  0  0  1  0  0  0  0  0  0
  189.7850  178.2200  143.1660 N   0  0  0  0  0  0  0  0  0  0  0  0
  188.2520  176.7500  145.9770 N   0  0  0  0  0  2  0  0  0  0  0  0
  185.5040  178.3360  143.6170 C   0  0  0  0  0  1  0  0  0  0  0  0
  192.0720  176.6890  139.1970 C   0  0  0  0  0  3  0  0  0  0  0  0
  190.8080  177.1240  139.8230 C   0  0  0  0  0  0  0  0  0  0  0  0
  186.5800  177.5790  142.8410 C   0  0  2  0  0  3  0  0  0  0  0  0
  185.1470  178.6990  138.3850 C   0  0  0  0  0  2  0  0  0  0  0  0
  183.9110  177.4000  136.6800 C   0  0  0  0  0  1  0  0  0  0  0  0
  184.1870  177.5450  138.1620 C   0  0  0  0  0  2  0  0  0  0  0  0
  1  4  1  0  0  0  0
  2 19  1  0  0  0  0
  3 10  1  0  0  0  0
  4 12  1  0  0  0  0
  4 20  2  0  0  0  0
  5 11  1  0  0  0  0
  5  1  1  0  0  0  0
  7  9  1  0  0  0  0
  7 15  1  1  0  0  0
  8  6  2  0  0  0  0
  9 14  1  1  0  0  0
 10 21  1  6  0  0  0
 11  8  1  0  0  0  0
 12  8  1  6  0  0  0
 12 27  1  0  0  0  0
 13  2  1  0  0  0  0
 13 18  1  0  0  0  0
 14 23  1  0  0  0  0
 15 23  1  0  0  0  0
 16  2  2  0  0  0  0
 17 20  1  0  0  0  0
 17  3  1  0  0  0  0
 18 25  2  0  0  0  0
 19  1  2  0  0  0  0
 19 26  1  0  0  0  0
 20 22  1  0  0  0  0
 22 10  1  0  0  0  0
 22  9  1  0  0  0  0
 25 26  1  0  0  0  0
 26 17  2  0  0  0  0
 27 24  1  1  0  0  0
 27  7  1  0  0  0  0
 28 11  1  0  0  0  0
 29 30  1  0  0  0  0
 30 28  1  0  0  0  0
M  END
>  <MODEL>
7

>  <REMARK>
 VINA RESULT:      -6.5      3.706      7.706
  Name = 
  2 active torsions:
  status: ('A' for Active; 'I' for Inactive)
    1  A    between atoms: N_11  and  C_28
    2  A    between atoms: C_28  and  C_30
                            x       y       z     vdW  Elec       q    Type
                         _______ _______ _______ _____ _____    ______ ____

>  <TORSDO>
F 2

$$$$
=
 OpenBabel11122410223D

 30 35  0  0  1  0  0  0  0  0999 V2000
  191.4130  175.7050  138.2000 C   0  0  0  0  0  0  0  0  0  0  0  0
  193.7520  174.7460  137.7900 C   0  0  0  0  0  0  0  0  0  0  0  0
  189.5280  172.6390  135.3680 S   0  0  0  0  0  0  0  0  0  0  0  0
  190.0180  175.6460  137.9670 C   0  0  0  0  0  0  0  0  0  0  0  0
  191.9600  176.8280  139.0400 C   0  0  0  0  0  2  0  0  0  0  0  0
  188.8950  177.4760  140.9160 O   0  0  0  0  0  0  0  0  0  0  0  0
  187.9530  177.0750  136.4830 C   0  0  1  0  0  3  0  0  0  0  0  0
  189.6580  177.0950  139.9880 C   0  0  0  0  0  0  0  0  0  0  0  0
  187.2340  175.7680  136.6770 C   0  0  1  0  0  3  0  0  0  0  0  0
  187.9360  173.4940  135.6840 C   0  0  1  0  0  3  0  0  0  0  0  0
  191.0820  177.1270  140.1630 N   0  0  0  0  0  0  0  0  0  0  0  0
  189.0650  176.5690  138.7080 C   0  0  1  0  0  3  0  0  0  0  0  0
  194.5480  173.5170  137.4580 C   0  0  0  0  0  2  0  0  0  0  0  0
  186.1970  175.8000  135.5770 C   0  0  0  0  0  2  0  0  0  0  0  0
  187.0450  177.9520  135.7650 N   0  0  0  0  0  2  0  0  0  0  0  0
  194.3580  175.7420  138.2660 O   0  0  0  0  0  0  0  0  0  0  0  0
  190.3520  173.7500  136.4990 C   0  0  0  0  0  0  0  0  0  0  0  0
  193.9050  172.6840  136.3850 C   0  0  0  0  0  3  0  0  0  0  0  0
  192.2760  174.7520  137.5940 C   0  0  0  0  0  0  0  0  0  0  0  0
  189.5180  174.6860  137.0610 C   0  0  0  0  0  0  0  0  0  0  0  0
  186.9760  172.5310  136.3570 C   0  0  0  0  0  1  0  0  0  0  0  0
  188.1780  174.6450  136.5560 N   0  0  0  0  0  0  0  0  0  0  0  0
  186.2540  177.1200  134.9500 N   0  0  0  0  0  2  0  0  0  0  0  0
  187.3010  178.3550  138.5580 C   0  0  0  0  0  1  0  0  0  0  0  0
  192.6060  172.7720  136.0930 C   0  0  0  0  0  3  0  0  0  0  0  0
  191.7270  173.7540  136.7570 C   0  0  0  0  0  0  0  0  0  0  0  0
  188.4450  177.6660  137.8170 C   0  0  2  0  0  3  0  0  0  0  0  0
  191.6800  177.6540  141.3800 C   0  0  0  0  0  2  0  0  0  0  0  0
  191.3140  177.4380  143.8170 C   0  0  0  0  0  1  0  0  0  0  0  0
  191.4900  176.6740  142.5220 C   0  0  0  0  0  2  0  0  0  0  0  0
  1  5  1  0  0  0  0
  2 16  2  0  0  0  0
  3 10  1  0  0  0  0
  3 17  1  0  0  0  0
  4  1  1  0  0  0  0
  5 11  1  0  0  0  0
  7 15  1  1  0  0  0
  7  9  1  0  0  0  0
  7 27  1  0  0  0  0
  8 11  1  0  0  0  0
  8  6  2  0  0  0  0
  9 14  1  6  0  0  0
 10 21  1  1  0  0  0
 10 22  1  0  0  0  0
 11 28  1  0  0  0  0
 12  4  1  6  0  0  0
 12  8  1  0  0  0  0
 13  2  1  0  0  0  0
 17 26  2  0  0  0  0
 17 20  1  0  0  0  0
 18 13  1  0  0  0  0
 19  2  1  0  0  0  0
 19  1  2  0  0  0  0
 20  4  2  0  0  0  0
 22  9  1  0  0  0  0
 22 20  1  0  0  0  0
 23 14  1  0  0  0  0
 23 15  1  0  0  0  0
 25 18  2  0  0  0  0
 25 26  1  0  0  0  0
 26 19  1  0  0  0  0
 27 24  1  1  0  0  0
 27 12  1  0  0  0  0
 28 30  1  0  0  0  0
 30 29  1  0  0  0  0
M  END
>  <MODEL>
8

>  <REMARK>
 VINA RESULT:      -6.5      5.916      8.835
  Name = 
  2 active torsions:
  status: ('A' for Active; 'I' for Inactive)
    1  A    between atoms: N_11  and  C_28
    2  A    between atoms: C_28  and  C_30
                            x       y       z     vdW  Elec       q    Type
                         _______ _______ _______ _____ _____    ______ ____

>  <TORSDO>
F 2

$$$$
=
 OpenBabel11122410223D

 30 35  0  0  1  0  0  0  0  0999 V2000
  191.3600  176.5340  139.1870 C   0  0  0  0  0  0  0  0  0  0  0  0
  193.7840  175.9220  138.6330 C   0  0  0  0  0  0  0  0  0  0  0  0
  189.8040  174.0700  135.6540 S   0  0  0  0  0  0  0  0  0  0  0  0
  189.9780  176.4030  138.9050 C   0  0  0  0  0  0  0  0  0  0  0  0
  191.7880  177.4690  140.2850 C   0  0  0  0  0  2  0  0  0  0  0  0
  188.6620  177.3630  142.1680 O   0  0  0  0  0  0  0  0  0  0  0  0
  187.7950  177.9460  137.7400 C   0  0  1  0  0  3  0  0  0  0  0  0
  189.4650  177.2870  141.2000 C   0  0  0  0  0  0  0  0  0  0  0  0
  187.2050  176.5700  137.5970 C   0  0  1  0  0  3  0  0  0  0  0  0
  188.1330  174.6740  136.1160 C   0  0  1  0  0  3  0  0  0  0  0  0
  190.8780  177.4090  141.4200 N   0  0  0  0  0  0  0  0  0  0  0  0
  188.9350  177.0290  139.8140 C   0  0  1  0  0  3  0  0  0  0  0  0
  194.6990  174.8870  138.0440 C   0  0  0  0  0  2  0  0  0  0  0  0
  186.1790  176.7670  136.5050 C   0  0  0  0  0  2  0  0  0  0  0  0
  186.8120  178.8810  137.2230 N   0  0  0  0  0  2  0  0  0  0  0  0
  194.2860  176.8270  139.3500 O   0  0  0  0  0  0  0  0  0  0  0  0
  190.5070  174.9520  137.0400 C   0  0  0  0  0  0  0  0  0  0  0  0
  194.1470  174.2780  136.7850 C   0  0  0  0  0  3  0  0  0  0  0  0
  192.3160  175.8370  138.3990 C   0  0  0  0  0  0  0  0  0  0  0  0
  189.5820  175.6450  137.7830 C   0  0  0  0  0  0  0  0  0  0  0  0
  187.2660  173.4930  136.5120 C   0  0  0  0  0  1  0  0  0  0  0  0
  188.2560  175.6000  137.2420 N   0  0  0  0  0  0  0  0  0  0  0  0
  186.1110  178.1970  136.2100 N   0  0  0  0  0  2  0  0  0  0  0  0
  187.0070  178.6280  140.0380 C   0  0  0  0  0  1  0  0  0  0  0  0
  192.8480  174.3120  136.4830 C   0  0  0  0  0  3  0  0  0  0  0  0
  191.8730  175.0210  137.3340 C   0  0  0  0  0  0  0  0  0  0  0  0
  188.2170  178.2440  139.1900 C   0  0  2  0  0  3  0  0  0  0  0  0
  191.4120  177.6840  142.7450 C   0  0  0  0  0  2  0  0  0  0  0  0
  191.3080  176.6460  144.9890 C   0  0  0  0  0  1  0  0  0  0  0  0
  191.5760  176.3900  143.5210 C   0  0  0  0  0  2  0  0  0  0  0  0
  1  5  1  0  0  0  0
  2 16  2  0  0  0  0
  3 10  1  0  0  0  0
  3 17  1  0  0  0  0
  4  1  1  0  0  0  0
  5 11  1  0  0  0  0
  7 15  1  1  0  0  0
  7 27  1  0  0  0  0
  8 11  1  0  0  0  0
  8  6  2  0  0  0  0
  9 14  1  6  0  0  0
  9  7  1  0  0  0  0
 10 21  1  1  0  0  0
 10 22  1  0  0  0  0
 11 28  1  0  0  0  0
 12  4  1  6  0  0  0
 12  8  1  0  0  0  0
 13  2  1  0  0  0  0
 17 26  2  0  0  0  0
 17 20  1  0  0  0  0
 18 13  1  0  0  0  0
 19  2  1  0  0  0  0
 19  1  2  0  0  0  0
 20  4  2  0  0  0  0
 22  9  1  0  0  0  0
 22 20  1  0  0  0  0
 23 14  1  0  0  0  0
 23 15  1  0  0  0  0
 25 18  2  0  0  0  0
 25 26  1  0  0  0  0
 26 19  1  0  0  0  0
 27 12  1  0  0  0  0
 27 24  1  1  0  0  0
 28 30  1  0  0  0  0
 30 29  1  0  0  0  0
M  END
>  <MODEL>
9

>  <REMARK>
 VINA RESULT:      -6.4      5.258      8.355
  Name = 
  2 active torsions:
  status: ('A' for Active; 'I' for Inactive)
    1  A    between atoms: N_11  and  C_28
    2  A    between atoms: C_28  and  C_30
                            x       y       z     vdW  Elec       q    Type
                         _______ _______ _______ _____ _____    ______ ____

>  <TORSDO>
F 2

$$$$
