=
 OpenBabel11122411523D

 28 32  0  0  1  0  0  0  0  0999 V2000
  190.2200  177.1430  140.4640 C   0  0  0  0  0  0  0  0  0  0  0  0
  187.2070  178.9990  137.2390 O   0  0  0  0  0  1  0  0  0  0  0  0
  191.4670  173.4580  135.4240 O   0  0  0  0  0  0  0  0  0  0  0  0
  187.9380  178.6180  141.1440 C   0  0  0  0  0  3  0  0  0  0  0  0
  189.3670  173.5520  136.4790 N   0  0  0  0  0  0  0  0  0  0  0  0
  191.4610  176.3560  140.2140 C   0  0  0  0  0  2  0  0  0  0  0  0
  188.4460  178.2120  135.3850 C   0  0  0  0  0  1  0  0  0  0  0  0
  187.4250  177.8580  136.4670 C   0  0  1  0  0  0  0  0  0  0  0  0
  186.2840  176.1930  135.2510 C   0  0  2  0  0  3  0  0  0  0  0  0
  187.9210  176.7250  137.3770 C   0  0  1  0  0  3  0  0  0  0  0  0
  193.6290  177.0590  137.4450 O   0  0  0  0  0  0  0  0  0  0  0  0
  189.8040  175.3400  137.9830 C   0  0  1  0  0  3  0  0  0  0  0  0
  186.6310  175.1770  136.1730 O   0  0  0  0  0  0  0  0  0  0  0  0
  186.1840  177.4700  135.8810 O   0  0  0  0  0  0  0  0  0  0  0  0
  192.8090  176.4420  138.1720 C   0  0  0  0  0  0  0  0  0  0  0  0
  189.1880  177.3070  139.4960 C   0  0  0  0  0  0  0  0  0  0  0  0
  190.6840  174.0040  136.2480 C   0  0  0  0  0  0  0  0  0  0  0  0
  184.9640  175.8510  134.5930 C   0  0  0  0  0  1  0  0  0  0  0  0
  192.3240  175.0910  137.7490 C   0  0  0  0  0  2  0  0  0  0  0  0
  188.0620  178.0650  139.8700 C   0  0  0  0  0  3  0  0  0  0  0  0
  190.0860  177.7040  141.7390 C   0  0  0  0  0  3  0  0  0  0  0  0
  188.9510  178.4360  142.0800 C   0  0  0  0  0  3  0  0  0  0  0  0
  192.3220  177.0520  139.3280 O   0  0  0  0  0  0  0  0  0  0  0  0
  188.6810  174.4780  137.3600 C   0  0  1  0  0  3  0  0  0  0  0  0
  191.0020  175.2300  137.0130 C   0  0  2  0  0  3  0  0  0  0  0  0
  187.9390  175.4960  136.5350 C   0  0  2  0  0  3  0  0  0  0  0  0
  188.7080  172.5000  135.7230 C   0  0  0  0  0  1  0  0  0  0  0  0
  189.2930  176.7950  138.0550 C   0  0  2  0  0  3  0  0  0  0  0  0
  1 21  1  0  0  0  0
  3 17  2  0  0  0  0
  4 22  1  0  0  0  0
  5 24  1  0  0  0  0
  6  1  1  0  0  0  0
  8  7  1  6  0  0  0
  8  2  1  0  0  0  0
  8 10  1  0  0  0  0
  9 18  1  1  0  0  0
  9 14  1  0  0  0  0
  9 13  1  0  0  0  0
 10 28  1  0  0  0  0
 11 15  2  0  0  0  0
 12 28  1  0  0  0  0
 13 26  1  0  0  0  0
 14  8  1  0  0  0  0
 15 23  1  0  0  0  0
 16 20  1  0  0  0  0
 16  1  2  0  0  0  0
 17  5  1  0  0  0  0
 17 25  1  0  0  0  0
 19 15  1  0  0  0  0
 20  4  2  0  0  0  0
 21 22  2  0  0  0  0
 23  6  1  0  0  0  0
 24 12  1  0  0  0  0
 25 19  1  0  0  0  0
 25 12  1  0  0  0  0
 26 24  1  0  0  0  0
 26 10  1  0  0  0  0
 27  5  1  0  0  0  0
 28 16  1  0  0  0  0
M  END
>  <MODEL>
1

>  <REMARK>
 VINA RESULT:      -5.9      0.000      0.000
  Name = 
  0 active torsions:
  status: ('A' for Active; 'I' for Inactive)
                            x       y       z     vdW  Elec       q    Type
                         _______ _______ _______ _____ _____    ______ ____

>  <TORSDO>
F 0

$$$$
=
 OpenBabel11122411523D

 28 32  0  0  1  0  0  0  0  0999 V2000
  179.9040  180.7110  139.3450 C   0  0  0  0  0  0  0  0  0  0  0  0
  184.6640  180.2700  139.0920 O   0  0  0  0  0  1  0  0  0  0  0  0
  180.5600  174.4430  140.2490 O   0  0  0  0  0  0  0  0  0  0  0  0
  181.5670  182.5690  138.0690 C   0  0  0  0  0  3  0  0  0  0  0  0
  181.2080  175.5470  138.2770 N   0  0  0  0  0  0  0  0  0  0  0  0
  178.9310  179.7940  140.0040 C   0  0  0  0  0  2  0  0  0  0  0  0
  184.7080  178.2530  140.3250 C   0  0  0  0  0  1  0  0  0  0  0  0
  184.4700  178.8960  138.9580 C   0  0  1  0  0  0  0  0  0  0  0  0
  185.1260  177.0470  137.6530 C   0  0  2  0  0  3  0  0  0  0  0  0
  183.0470  178.6390  138.4410 C   0  0  1  0  0  3  0  0  0  0  0  0
  179.7110  178.0710  143.0510 O   0  0  0  0  0  0  0  0  0  0  0  0
  180.8550  177.7880  138.9910 C   0  0  1  0  0  3  0  0  0  0  0  0
  183.8420  176.9040  137.0750 O   0  0  0  0  0  0  0  0  0  0  0  0
  185.4050  178.4030  138.0000 O   0  0  0  0  0  0  0  0  0  0  0  0
  179.4490  178.2520  141.8340 C   0  0  0  0  0  0  0  0  0  0  0  0
  181.2200  180.3180  138.9690 C   0  0  0  0  0  0  0  0  0  0  0  0
  180.7750  175.5140  139.6200 C   0  0  0  0  0  0  0  0  0  0  0  0
  186.1760  176.5490  136.6830 C   0  0  0  0  0  1  0  0  0  0  0  0
  179.3580  177.0730  140.9180 C   0  0  0  0  0  2  0  0  0  0  0  0
  182.0310  181.2820  138.3400 C   0  0  0  0  0  3  0  0  0  0  0  0
  179.4480  182.0050  139.0690 C   0  0  0  0  0  3  0  0  0  0  0  0
  180.2730  182.9310  138.4320 C   0  0  0  0  0  3  0  0  0  0  0  0
  179.3070  179.5520  141.3490 O   0  0  0  0  0  0  0  0  0  0  0  0
  181.5130  176.9140  137.8960 C   0  0  1  0  0  3  0  0  0  0  0  0
  180.6910  176.8650  140.2190 C   0  0  2  0  0  3  0  0  0  0  0  0
  182.9760  177.1830  138.1320 C   0  0  2  0  0  3  0  0  0  0  0  0
  181.5780  174.3780  137.4960 C   0  0  0  0  0  1  0  0  0  0  0  0
  181.8210  178.9500  139.3080 C   0  0  2  0  0  3  0  0  0  0  0  0
  1  6  1  0  0  0  0
  4 20  2  0  0  0  0
  4 22  1  0  0  0  0
  5 17  1  0  0  0  0
  6 23  1  0  0  0  0
  8  2  1  0  0  0  0
  8  7  1  1  0  0  0
  9 18  1  6  0  0  0
  9 14  1  0  0  0  0
 10  8  1  0  0  0  0
 10 28  1  0  0  0  0
 12 28  1  0  0  0  0
 12 25  1  0  0  0  0
 13  9  1  0  0  0  0
 13 26  1  0  0  0  0
 14  8  1  0  0  0  0
 15 11  2  0  0  0  0
 16 28  1  0  0  0  0
 16  1  2  0  0  0  0
 17 25  1  0  0  0  0
 17  3  2  0  0  0  0
 19 15  1  0  0  0  0
 20 16  1  0  0  0  0
 21  1  1  0  0  0  0
 22 21  2  0  0  0  0
 23 15  1  0  0  0  0
 24 26  1  0  0  0  0
 24  5  1  0  0  0  0
 24 12  1  0  0  0  0
 25 19  1  0  0  0  0
 26 10  1  0  0  0  0
 27  5  1  0  0  0  0
M  END
>  <MODEL>
2

>  <REMARK>
 VINA RESULT:      -5.8      6.653      9.212
  Name = 
  0 active torsions:
  status: ('A' for Active; 'I' for Inactive)
                            x       y       z     vdW  Elec       q    Type
                         _______ _______ _______ _____ _____    ______ ____

>  <TORSDO>
F 0

$$$$
=
 OpenBabel11122411523D

 28 32  0  0  1  0  0  0  0  0999 V2000
  186.6220  173.9020  136.1300 C   0  0  0  0  0  0  0  0  0  0  0  0
  191.1790  173.3920  134.7510 O   0  0  0  0  0  1  0  0  0  0  0  0
  189.1180  179.3590  138.2560 O   0  0  0  0  0  0  0  0  0  0  0  0
  187.8100  171.4230  135.5900 C   0  0  0  0  0  3  0  0  0  0  0  0
  189.7910  177.2370  139.0170 N   0  0  0  0  0  0  0  0  0  0  0  0
  185.8900  175.1640  136.4310 C   0  0  0  0  0  2  0  0  0  0  0  0
  191.6140  175.7160  134.7590 C   0  0  0  0  0  1  0  0  0  0  0  0
  191.4930  174.4480  135.6050 C   0  0  1  0  0  0  0  0  0  0  0  0
  193.0110  175.0830  137.2910 C   0  0  2  0  0  3  0  0  0  0  0  0
  190.3970  174.5710  136.6730 C   0  0  1  0  0  3  0  0  0  0  0  0
  186.4850  178.1860  134.5940 O   0  0  0  0  0  0  0  0  0  0  0  0
  188.5530  175.9030  137.4870 C   0  0  1  0  0  3  0  0  0  0  0  0
  192.0180  175.0590  138.3000 O   0  0  0  0  0  0  0  0  0  0  0  0
  192.7320  174.1500  136.2470 O   0  0  0  0  0  0  0  0  0  0  0  0
  186.4630  177.3790  135.5580 C   0  0  0  0  0  0  0  0  0  0  0  0
  188.0430  173.8020  136.1220 C   0  0  0  0  0  0  0  0  0  0  0  0
  189.0990  178.1030  138.1420 C   0  0  0  0  0  0  0  0  0  0  0  0
  194.3590  174.7650  137.9020 C   0  0  0  0  0  1  0  0  0  0  0  0
  186.9840  177.8120  136.8910 C   0  0  0  0  0  2  0  0  0  0  0  0
  188.6040  172.5430  135.8350 C   0  0  0  0  0  3  0  0  0  0  0  0
  185.8350  172.7710  135.8820 C   0  0  0  0  0  3  0  0  0  0  0  0
  186.4240  171.5370  135.6150 C   0  0  0  0  0  3  0  0  0  0  0  0
  186.0070  176.0770  135.3520 O   0  0  0  0  0  0  0  0  0  0  0  0
  189.6980  175.8740  138.5280 C   0  0  1  0  0  3  0  0  0  0  0  0
  188.4330  177.3760  137.0390 C   0  0  2  0  0  3  0  0  0  0  0  0
  190.8910  175.5730  137.6600 C   0  0  2  0  0  3  0  0  0  0  0  0
  190.7000  177.6720  140.0650 C   0  0  0  0  0  1  0  0  0  0  0  0
  188.9740  175.0060  136.3030 C   0  0  2  0  0  3  0  0  0  0  0  0
  1  6  1  0  0  0  0
  2  8  1  0  0  0  0
  4 22  2  0  0  0  0
  4 20  1  0  0  0  0
  5 27  1  0  0  0  0
  8  7  1  6  0  0  0
  8 14  1  0  0  0  0
  8 10  1  0  0  0  0
  9 18  1  1  0  0  0
  9 13  1  0  0  0  0
 10 26  1  0  0  0  0
 11 15  2  0  0  0  0
 12 24  1  0  0  0  0
 14  9  1  0  0  0  0
 15 19  1  0  0  0  0
 16  1  1  0  0  0  0
 16 28  1  0  0  0  0
 17  3  2  0  0  0  0
 17  5  1  0  0  0  0
 19 25  1  0  0  0  0
 20 16  2  0  0  0  0
 21  1  2  0  0  0  0
 22 21  1  0  0  0  0
 23 15  1  0  0  0  0
 23  6  1  0  0  0  0
 24  5  1  0  0  0  0
 25 12  1  0  0  0  0
 25 17  1  0  0  0  0
 26 13  1  0  0  0  0
 26 24  1  0  0  0  0
 28 10  1  0  0  0  0
 28 12  1  0  0  0  0
M  END
>  <MODEL>
3

>  <REMARK>
 VINA RESULT:      -5.7      1.815      6.386
  Name = 
  0 active torsions:
  status: ('A' for Active; 'I' for Inactive)
                            x       y       z     vdW  Elec       q    Type
                         _______ _______ _______ _____ _____    ______ ____

>  <TORSDO>
F 0

$$$$
=
 OpenBabel11122411523D

 28 32  0  0  1  0  0  0  0  0999 V2000
  181.5580  178.7570  142.6160 C   0  0  0  0  0  0  0  0  0  0  0  0
  179.9930  181.9550  139.4140 O   0  0  0  0  0  1  0  0  0  0  0  0
  185.8330  177.9630  137.9660 O   0  0  0  0  0  0  0  0  0  0  0  0
  178.9310  179.7310  142.5530 C   0  0  0  0  0  3  0  0  0  0  0  0
  183.5340  177.5440  137.7040 N   0  0  0  0  0  0  0  0  0  0  0  0
  182.9270  178.1840  142.7460 C   0  0  0  0  0  2  0  0  0  0  0  0
  182.0920  182.1560  138.3440 C   0  0  0  0  0  1  0  0  0  0  0  0
  180.8130  181.3280  138.4770 C   0  0  1  0  0  0  0  0  0  0  0  0
  180.8040  180.4640  136.2850 C   0  0  2  0  0  3  0  0  0  0  0  0
  181.1030  179.8940  138.9430 C   0  0  1  0  0  3  0  0  0  0  0  0
  185.8690  180.1280  142.0940 O   0  0  0  0  0  0  0  0  0  0  0  0
  182.7790  178.3810  139.7980 C   0  0  1  0  0  3  0  0  0  0  0  0
  180.9320  179.1270  136.7310 O   0  0  0  0  0  0  0  0  0  0  0  0
  180.1150  181.2780  137.2340 O   0  0  0  0  0  0  0  0  0  0  0  0
  184.9890  179.2400  141.9550 C   0  0  0  0  0  0  0  0  0  0  0  0
  181.0760  179.3740  141.4260 C   0  0  0  0  0  0  0  0  0  0  0  0
  184.6530  178.0460  138.4030 C   0  0  0  0  0  0  0  0  0  0  0  0
  180.0600  180.4880  134.9660 C   0  0  0  0  0  1  0  0  0  0  0  0
  185.1020  178.2640  140.8270 C   0  0  0  0  0  2  0  0  0  0  0  0
  179.7550  179.8610  141.4350 C   0  0  0  0  0  3  0  0  0  0  0  0
  180.7230  178.6320  143.7320 C   0  0  0  0  0  3  0  0  0  0  0  0
  179.4150  179.1140  143.7030 C   0  0  0  0  0  3  0  0  0  0  0  0
  183.8950  179.2170  142.8190 O   0  0  0  0  0  0  0  0  0  0  0  0
  182.3160  177.9320  138.3910 C   0  0  1  0  0  3  0  0  0  0  0  0
  184.2720  178.7480  139.6480 C   0  0  2  0  0  3  0  0  0  0  0  0
  181.8070  179.2250  137.8130 C   0  0  2  0  0  3  0  0  0  0  0  0
  183.5750  176.9920  136.3600 C   0  0  0  0  0  1  0  0  0  0  0  0
  181.9490  179.6220  140.1910 C   0  0  2  0  0  3  0  0  0  0  0  0
  1  6  1  0  0  0  0
  1 21  1  0  0  0  0
  3 17  2  0  0  0  0
  4 22  1  0  0  0  0
  5 24  1  0  0  0  0
  5 17  1  0  0  0  0
  6 23  1  0  0  0  0
  8  7  1  6  0  0  0
  8 10  1  0  0  0  0
  8  2  1  0  0  0  0
  9 18  1  6  0  0  0
  9 13  1  0  0  0  0
  9 14  1  0  0  0  0
 10 28  1  0  0  0  0
 12 28  1  0  0  0  0
 13 26  1  0  0  0  0
 14  8  1  0  0  0  0
 15 11  2  0  0  0  0
 15 23  1  0  0  0  0
 16 20  1  0  0  0  0
 16  1  2  0  0  0  0
 17 25  1  0  0  0  0
 19 15  1  0  0  0  0
 20  4  2  0  0  0  0
 22 21  2  0  0  0  0
 24 12  1  0  0  0  0
 25 12  1  0  0  0  0
 25 19  1  0  0  0  0
 26 24  1  0  0  0  0
 26 10  1  0  0  0  0
 27  5  1  0  0  0  0
 28 16  1  0  0  0  0
M  END
>  <MODEL>
4

>  <REMARK>
 VINA RESULT:      -5.4      6.281      8.189
  Name = 
  0 active torsions:
  status: ('A' for Active; 'I' for Inactive)
                            x       y       z     vdW  Elec       q    Type
                         _______ _______ _______ _____ _____    ______ ____

>  <TORSDO>
F 0

$$$$
=
 OpenBabel11122411523D

 28 32  0  0  1  0  0  0  0  0999 V2000
  190.1610  177.0290  141.7220 C   0  0  0  0  0  0  0  0  0  0  0  0
  187.2760  178.9940  138.4450 O   0  0  0  0  0  1  0  0  0  0  0  0
  193.0380  175.1790  136.3530 O   0  0  0  0  0  0  0  0  0  0  0  0
  187.5020  177.7480  142.2300 C   0  0  0  0  0  3  0  0  0  0  0  0
  190.8550  174.5380  136.9460 N   0  0  0  0  0  0  0  0  0  0  0  0
  191.5850  176.6210  141.5640 C   0  0  0  0  0  2  0  0  0  0  0  0
  188.9330  179.0140  136.7580 C   0  0  0  0  0  1  0  0  0  0  0  0
  187.8910  178.1750  137.4990 C   0  0  1  0  0  0  0  0  0  0  0  0
  187.4090  176.6920  135.7320 C   0  0  2  0  0  3  0  0  0  0  0  0
  188.5240  176.9720  138.2140 C   0  0  1  0  0  3  0  0  0  0  0  0
  193.8790  178.4830  139.5310 O   0  0  0  0  0  0  0  0  0  0  0  0
  190.5910  175.9100  138.8690 C   0  0  1  0  0  3  0  0  0  0  0  0
  187.8670  175.5640  136.4540 O   0  0  0  0  0  0  0  0  0  0  0  0
  186.8910  177.7030  136.5980 O   0  0  0  0  0  0  0  0  0  0  0  0
  193.1490  177.5340  139.9160 C   0  0  0  0  0  0  0  0  0  0  0  0
  189.2750  177.2230  140.6240 C   0  0  0  0  0  0  0  0  0  0  0  0
  192.0300  175.3050  137.0990 C   0  0  0  0  0  0  0  0  0  0  0  0
  186.3330  176.2650  134.7570 C   0  0  0  0  0  1  0  0  0  0  0  0
  193.0960  176.2750  139.1100 C   0  0  0  0  0  2  0  0  0  0  0  0
  187.9490  177.5950  140.9170 C   0  0  0  0  0  3  0  0  0  0  0  0
  189.7020  177.1870  143.0350 C   0  0  0  0  0  3  0  0  0  0  0  0
  188.3790  177.5430  143.2900 C   0  0  0  0  0  3  0  0  0  0  0  0
  192.3580  177.6950  141.0530 O   0  0  0  0  0  0  0  0  0  0  0  0
  189.8320  175.0270  137.8510 C   0  0  1  0  0  3  0  0  0  0  0  0
  191.9050  176.3200  138.1680 C   0  0  2  0  0  3  0  0  0  0  0  0
  188.9820  176.0460  137.1400 C   0  0  2  0  0  3  0  0  0  0  0  0
  190.6070  173.6110  135.8530 C   0  0  0  0  0  1  0  0  0  0  0  0
  189.7180  177.1490  139.1590 C   0  0  2  0  0  3  0  0  0  0  0  0
  1 21  1  0  0  0  0
  3 17  2  0  0  0  0
  4 22  1  0  0  0  0
  5 17  1  0  0  0  0
  5 24  1  0  0  0  0
  6  1  1  0  0  0  0
  8  7  1  6  0  0  0
  8 10  1  0  0  0  0
  8  2  1  0  0  0  0
  9 18  1  6  0  0  0
  9 13  1  0  0  0  0
  9 14  1  0  0  0  0
 10 28  1  0  0  0  0
 11 15  2  0  0  0  0
 12 28  1  0  0  0  0
 13 26  1  0  0  0  0
 14  8  1  0  0  0  0
 15 23  1  0  0  0  0
 16 20  1  0  0  0  0
 16  1  2  0  0  0  0
 17 25  1  0  0  0  0
 19 15  1  0  0  0  0
 20  4  2  0  0  0  0
 21 22  2  0  0  0  0
 23  6  1  0  0  0  0
 24 12  1  0  0  0  0
 25 12  1  0  0  0  0
 25 19  1  0  0  0  0
 26 24  1  0  0  0  0
 26 10  1  0  0  0  0
 27  5  1  0  0  0  0
 28 16  1  0  0  0  0
M  END
>  <MODEL>
5

>  <REMARK>
 VINA RESULT:      -5.3      1.347      1.618
  Name = 
  0 active torsions:
  status: ('A' for Active; 'I' for Inactive)
                            x       y       z     vdW  Elec       q    Type
                         _______ _______ _______ _____ _____    ______ ____

>  <TORSDO>
F 0

$$$$
=
 OpenBabel11122411523D

 28 32  0  0  1  0  0  0  0  0999 V2000
  181.5510  178.5300  135.4100 C   0  0  0  0  0  0  0  0  0  0  0  0
  181.4770  178.9470  140.1790 O   0  0  0  0  0  1  0  0  0  0  0  0
  186.4330  174.7670  137.0000 O   0  0  0  0  0  0  0  0  0  0  0  0
  180.3730  180.6840  136.7600 C   0  0  0  0  0  3  0  0  0  0  0  0
  186.3710  177.0750  137.4470 N   0  0  0  0  0  0  0  0  0  0  0  0
  182.1360  177.4300  134.5940 C   0  0  0  0  0  2  0  0  0  0  0  0
  182.6070  176.9010  140.5400 C   0  0  0  0  0  1  0  0  0  0  0  0
  182.7520  178.3820  140.1880 C   0  0  1  0  0  0  0  0  0  0  0  0
  184.9080  178.6800  141.0900 C   0  0  2  0  0  3  0  0  0  0  0  0
  183.4000  178.5860  138.8110 C   0  0  1  0  0  3  0  0  0  0  0  0
  182.0320  174.0090  135.6670 O   0  0  0  0  0  0  0  0  0  0  0  0
  184.1310  177.5060  136.7780 C   0  0  1  0  0  3  0  0  0  0  0  0
  185.4720  179.0040  139.8330 O   0  0  0  0  0  0  0  0  0  0  0  0
  183.5340  179.0590  141.1700 O   0  0  0  0  0  0  0  0  0  0  0  0
  182.5050  175.1340  135.3620 C   0  0  0  0  0  0  0  0  0  0  0  0
  181.9140  178.7810  136.7630 C   0  0  0  0  0  0  0  0  0  0  0  0
  185.7920  175.8520  137.0450 C   0  0  0  0  0  0  0  0  0  0  0  0
  185.6870  179.3750  142.1870 C   0  0  0  0  0  1  0  0  0  0  0  0
  183.9820  175.3540  135.4330 C   0  0  0  0  0  2  0  0  0  0  0  0
  181.2930  179.8650  137.4130 C   0  0  0  0  0  3  0  0  0  0  0  0
  180.6250  179.3580  134.7640 C   0  0  0  0  0  3  0  0  0  0  0  0
  180.0390  180.4310  135.4320 C   0  0  0  0  0  3  0  0  0  0  0  0
  181.6380  176.1730  135.0220 O   0  0  0  0  0  0  0  0  0  0  0  0
  185.3420  178.0940  137.5400 C   0  0  1  0  0  3  0  0  0  0  0  0
  184.3440  175.9760  136.7710 C   0  0  2  0  0  3  0  0  0  0  0  0
  184.8170  178.1450  138.9510 C   0  0  2  0  0  3  0  0  0  0  0  0
  187.7180  177.2210  137.9740 C   0  0  0  0  0  1  0  0  0  0  0  0
  182.8560  177.8760  137.5660 C   0  0  2  0  0  3  0  0  0  0  0  0
  1 16  1  0  0  0  0
  2  8  1  0  0  0  0
  3 17  2  0  0  0  0
  4 20  1  0  0  0  0
  5 24  1  0  0  0  0
  5 27  1  0  0  0  0
  6 23  1  0  0  0  0
  6  1  1  0  0  0  0
  8  7  1  1  0  0  0
  8 14  1  0  0  0  0
  9 14  1  0  0  0  0
  9 18  1  1  0  0  0
 10 26  1  0  0  0  0
 10  8  1  0  0  0  0
 12 24  1  0  0  0  0
 12 28  1  0  0  0  0
 13  9  1  0  0  0  0
 15 19  1  0  0  0  0
 15 11  2  0  0  0  0
 16 20  2  0  0  0  0
 16 28  1  0  0  0  0
 17  5  1  0  0  0  0
 19 25  1  0  0  0  0
 21  1  2  0  0  0  0
 21 22  1  0  0  0  0
 22  4  2  0  0  0  0
 23 15  1  0  0  0  0
 24 26  1  0  0  0  0
 25 12  1  0  0  0  0
 25 17  1  0  0  0  0
 26 13  1  0  0  0  0
 28 10  1  0  0  0  0
M  END
>  <MODEL>
6

>  <REMARK>
 VINA RESULT:      -5.3      4.326      7.989
  Name = 
  0 active torsions:
  status: ('A' for Active; 'I' for Inactive)
                            x       y       z     vdW  Elec       q    Type
                         _______ _______ _______ _____ _____    ______ ____

>  <TORSDO>
F 0

$$$$
=
 OpenBabel11122411523D

 28 32  0  0  1  0  0  0  0  0999 V2000
  180.2850  181.0940  136.9130 C   0  0  0  0  0  0  0  0  0  0  0  0
  179.9760  179.5930  141.4490 O   0  0  0  0  0  1  0  0  0  0  0  0
  184.5820  176.3960  136.9000 O   0  0  0  0  0  0  0  0  0  0  0  0
  179.2920  182.6720  139.0040 C   0  0  0  0  0  3  0  0  0  0  0  0
  184.7670  178.3240  138.2330 N   0  0  0  0  0  0  0  0  0  0  0  0
  180.7830  180.3390  135.7290 C   0  0  0  0  0  2  0  0  0  0  0  0
  180.8300  177.4420  140.9690 C   0  0  0  0  0  1  0  0  0  0  0  0
  181.1710  178.9070  141.2410 C   0  0  1  0  0  0  0  0  0  0  0  0
  183.2900  178.5340  142.2030 C   0  0  2  0  0  3  0  0  0  0  0  0
  181.9210  179.5510  140.0660 C   0  0  1  0  0  3  0  0  0  0  0  0
  180.2090  176.8200  135.3420 O   0  0  0  0  0  0  0  0  0  0  0  0
  182.6380  179.2790  137.7760 C   0  0  1  0  0  3  0  0  0  0  0  0
  183.9620  179.2520  141.1850 O   0  0  0  0  0  0  0  0  0  0  0  0
  181.9680  179.0290  142.4180 O   0  0  0  0  0  0  0  0  0  0  0  0
  180.8300  177.9000  135.5170 C   0  0  0  0  0  0  0  0  0  0  0  0
  180.5940  180.7370  138.2570 C   0  0  0  0  0  0  0  0  0  0  0  0
  184.0730  177.4490  137.3700 C   0  0  0  0  0  0  0  0  0  0  0  0
  184.0790  178.6280  143.4920 C   0  0  0  0  0  1  0  0  0  0  0  0
  182.3160  177.8750  135.6800 C   0  0  0  0  0  2  0  0  0  0  0  0
  180.0680  181.5470  139.2820 C   0  0  0  0  0  3  0  0  0  0  0  0
  179.5050  182.2250  136.6460 C   0  0  0  0  0  3  0  0  0  0  0  0
  179.0110  183.0130  137.6840 C   0  0  0  0  0  3  0  0  0  0  0  0
  180.1150  179.0940  135.6140 O   0  0  0  0  0  0  0  0  0  0  0  0
  183.8630  179.3500  138.7190 C   0  0  1  0  0  3  0  0  0  0  0  0
  182.6680  177.8630  137.1580 C   0  0  2  0  0  3  0  0  0  0  0  0
  183.2640  178.9070  140.0280 C   0  0  2  0  0  3  0  0  0  0  0  0
  186.0880  178.0690  138.7840 C   0  0  0  0  0  1  0  0  0  0  0  0
  181.3710  179.4720  138.6360 C   0  0  2  0  0  3  0  0  0  0  0  0
  1 16  1  0  0  0  0
  3 17  2  0  0  0  0
  4 20  1  0  0  0  0
  5 24  1  0  0  0  0
  5 27  1  0  0  0  0
  6  1  1  0  0  0  0
  8  7  1  6  0  0  0
  8  2  1  0  0  0  0
  8 14  1  0  0  0  0
  9 14  1  0  0  0  0
  9 18  1  1  0  0  0
 10  8  1  0  0  0  0
 11 15  2  0  0  0  0
 12 28  1  0  0  0  0
 12 24  1  0  0  0  0
 13  9  1  0  0  0  0
 15 23  1  0  0  0  0
 15 19  1  0  0  0  0
 16 28  1  0  0  0  0
 16 20  2  0  0  0  0
 17  5  1  0  0  0  0
 19 25  1  0  0  0  0
 21  1  2  0  0  0  0
 21 22  1  0  0  0  0
 22  4  2  0  0  0  0
 23  6  1  0  0  0  0
 24 26  1  0  0  0  0
 25 17  1  0  0  0  0
 25 12  1  0  0  0  0
 26 10  1  0  0  0  0
 26 13  1  0  0  0  0
 28 10  1  0  0  0  0
M  END
>  <MODEL>
7

>  <REMARK>
 VINA RESULT:      -5.2      6.344      9.457
  Name = 
  0 active torsions:
  status: ('A' for Active; 'I' for Inactive)
                            x       y       z     vdW  Elec       q    Type
                         _______ _______ _______ _____ _____    ______ ____

>  <TORSDO>
F 0

$$$$
=
 OpenBabel11122411523D

 28 32  0  0  1  0  0  0  0  0999 V2000
  182.5670  173.5930  136.8380 C   0  0  0  0  0  0  0  0  0  0  0  0
  186.6880  175.2550  135.0560 O   0  0  0  0  0  1  0  0  0  0  0  0
  181.7750  179.8540  137.6730 O   0  0  0  0  0  0  0  0  0  0  0  0
  184.8920  172.0470  136.6090 C   0  0  0  0  0  3  0  0  0  0  0  0
  183.4780  178.6090  138.7120 N   0  0  0  0  0  0  0  0  0  0  0  0
  181.2760  174.3190  136.9940 C   0  0  0  0  0  2  0  0  0  0  0  0
  185.8170  177.4060  134.6070 C   0  0  0  0  0  1  0  0  0  0  0  0
  186.3940  176.4710  135.6700 C   0  0  1  0  0  0  0  0  0  0  0  0
  187.3460  178.1410  137.0340 C   0  0  2  0  0  3  0  0  0  0  0  0
  185.4050  176.2270  136.8190 C   0  0  1  0  0  3  0  0  0  0  0  0
  180.1600  176.7440  134.5990 O   0  0  0  0  0  0  0  0  0  0  0  0
  183.1380  176.5390  137.5920 C   0  0  1  0  0  3  0  0  0  0  0  0
  186.5220  177.8150  138.1380 O   0  0  0  0  0  0  0  0  0  0  0  0
  187.6030  177.0050  136.2090 O   0  0  0  0  0  0  0  0  0  0  0  0
  180.5760  176.2670  135.6860 C   0  0  0  0  0  0  0  0  0  0  0  0
  183.8220  174.2480  136.6850 C   0  0  0  0  0  0  0  0  0  0  0  0
  182.4290  178.7810  137.7840 C   0  0  0  0  0  0  0  0  0  0  0  0
  188.6570  178.7090  137.5330 C   0  0  0  0  0  1  0  0  0  0  0  0
  180.7900  177.1770  136.8540 C   0  0  0  0  0  2  0  0  0  0  0  0
  184.9670  173.4390  136.5610 C   0  0  0  0  0  3  0  0  0  0  0  0
  182.5030  172.1950  136.8840 C   0  0  0  0  0  3  0  0  0  0  0  0
  183.6590  171.4240  136.7720 C   0  0  0  0  0  3  0  0  0  0  0  0
  180.8840  174.9090  135.7660 O   0  0  0  0  0  0  0  0  0  0  0  0
  184.1250  177.3300  138.4840 C   0  0  1  0  0  3  0  0  0  0  0  0
  182.2480  177.6010  136.9100 C   0  0  2  0  0  3  0  0  0  0  0  0
  185.2920  177.5200  137.5510 C   0  0  2  0  0  3  0  0  0  0  0  0
  184.0190  179.6610  139.5560 C   0  0  0  0  0  1  0  0  0  0  0  0
  183.9680  175.7670  136.5440 C   0  0  2  0  0  3  0  0  0  0  0  0
  1 21  1  0  0  0  0
  1  6  1  0  0  0  0
  2  8  1  0  0  0  0
  3 17  2  0  0  0  0
  4 22  1  0  0  0  0
  5 27  1  0  0  0  0
  8  7  1  6  0  0  0
  8 14  1  0  0  0  0
  8 10  1  0  0  0  0
  9 18  1  1  0  0  0
  9 13  1  0  0  0  0
 10 26  1  0  0  0  0
 11 15  2  0  0  0  0
 12 24  1  0  0  0  0
 14  9  1  0  0  0  0
 15 23  1  0  0  0  0
 15 19  1  0  0  0  0
 16  1  2  0  0  0  0
 17  5  1  0  0  0  0
 19 25  1  0  0  0  0
 20  4  2  0  0  0  0
 20 16  1  0  0  0  0
 22 21  2  0  0  0  0
 23  6  1  0  0  0  0
 24  5  1  0  0  0  0
 25 12  1  0  0  0  0
 25 17  1  0  0  0  0
 26 13  1  0  0  0  0
 26 24  1  0  0  0  0
 28 16  1  0  0  0  0
 28 10  1  0  0  0  0
 28 12  1  0  0  0  0
M  END
>  <MODEL>
8

>  <REMARK>
 VINA RESULT:      -5.1      3.992      8.216
  Name = 
  0 active torsions:
  status: ('A' for Active; 'I' for Inactive)
                            x       y       z     vdW  Elec       q    Type
                         _______ _______ _______ _____ _____    ______ ____

>  <TORSDO>
F 0

$$$$
=
 OpenBabel11122411523D

 28 32  0  0  1  0  0  0  0  0999 V2000
  181.0780  179.1970  136.5510 C   0  0  0  0  0  0  0  0  0  0  0  0
  182.9000  179.7910  140.9390 O   0  0  0  0  0  1  0  0  0  0  0  0
  184.9800  174.1790  136.9000 O   0  0  0  0  0  0  0  0  0  0  0  0
  181.1190  181.6560  137.8920 C   0  0  0  0  0  3  0  0  0  0  0  0
  185.7190  176.4100  136.9970 N   0  0  0  0  0  0  0  0  0  0  0  0
  180.9940  177.9410  135.7550 C   0  0  0  0  0  2  0  0  0  0  0  0
  183.4810  177.5130  141.1850 C   0  0  0  0  0  1  0  0  0  0  0  0
  183.8810  178.8640  140.5920 C   0  0  1  0  0  0  0  0  0  0  0  0
  186.2120  178.5190  140.6430 C   0  0  2  0  0  3  0  0  0  0  0  0
  183.9990  178.8080  139.0620 C   0  0  1  0  0  3  0  0  0  0  0  0
  180.3720  174.7590  137.2880 O   0  0  0  0  0  0  0  0  0  0  0  0
  183.5980  177.4820  137.0830 C   0  0  1  0  0  3  0  0  0  0  0  0
  186.3320  178.6080  139.2360 O   0  0  0  0  0  0  0  0  0  0  0  0
  185.1250  179.3040  141.1350 O   0  0  0  0  0  0  0  0  0  0  0  0
  180.9840  175.6730  136.6780 C   0  0  0  0  0  0  0  0  0  0  0  0
  181.9720  179.3740  137.6450 C   0  0  0  0  0  0  0  0  0  0  0  0
  184.7230  175.4090  137.0020 C   0  0  0  0  0  0  0  0  0  0  0  0
  187.5000  178.9820  141.2900 C   0  0  0  0  0  1  0  0  0  0  0  0
  182.3810  175.4310  136.2030 C   0  0  0  0  0  2  0  0  0  0  0  0
  181.9570  180.6190  138.3020 C   0  0  0  0  0  3  0  0  0  0  0  0
  180.2410  180.2440  136.1490 C   0  0  0  0  0  3  0  0  0  0  0  0
  180.2610  181.4690  136.8130 C   0  0  0  0  0  3  0  0  0  0  0  0
  180.3700  176.9140  136.5070 O   0  0  0  0  0  0  0  0  0  0  0  0
  185.1170  177.6980  137.2880 C   0  0  1  0  0  3  0  0  0  0  0  0
  183.3690  175.9610  137.2280 C   0  0  2  0  0  3  0  0  0  0  0  0
  185.1890  177.9600  138.7690 C   0  0  2  0  0  3  0  0  0  0  0  0
  187.1500  176.1550  137.0010 C   0  0  0  0  0  1  0  0  0  0  0  0
  182.8600  178.2540  138.1980 C   0  0  2  0  0  3  0  0  0  0  0  0
  1 16  1  0  0  0  0
  3 17  2  0  0  0  0
  4 20  1  0  0  0  0
  5 27  1  0  0  0  0
  5 17  1  0  0  0  0
  5 24  1  0  0  0  0
  6 23  1  0  0  0  0
  6  1  1  0  0  0  0
  8  2  1  0  0  0  0
  8 14  1  0  0  0  0
  8  7  1  1  0  0  0
  9 14  1  0  0  0  0
  9 18  1  1  0  0  0
 10  8  1  0  0  0  0
 12 25  1  0  0  0  0
 12 24  1  0  0  0  0
 12 28  1  0  0  0  0
 13  9  1  0  0  0  0
 15 11  2  0  0  0  0
 16 28  1  0  0  0  0
 16 20  2  0  0  0  0
 17 25  1  0  0  0  0
 19 15  1  0  0  0  0
 19 25  1  0  0  0  0
 21  1  2  0  0  0  0
 21 22  1  0  0  0  0
 22  4  2  0  0  0  0
 23 15  1  0  0  0  0
 24 26  1  0  0  0  0
 26 10  1  0  0  0  0
 26 13  1  0  0  0  0
 28 10  1  0  0  0  0
M  END
>  <MODEL>
9

>  <REMARK>
 VINA RESULT:      -5.0      4.611      8.093
  Name = 
  0 active torsions:
  status: ('A' for Active; 'I' for Inactive)
                            x       y       z     vdW  Elec       q    Type
                         _______ _______ _______ _____ _____    ______ ____

>  <TORSDO>
F 0

$$$$
