=
 OpenBabel11122412183D

 34 40  0  0  1  0  0  0  0  0999 V2000
  185.9000  178.6200  139.2100 C   0  0  2  0  0  3  0  0  0  0  0  0
  188.2360  178.2270  140.2270 C   0  0  0  0  0  3  0  0  0  0  0  0
  180.5260  176.0080  139.5660 C   0  0  0  0  0  2  0  0  0  0  0  0
  183.4020  178.3450  138.6510 C   0  0  0  0  0  0  0  0  0  0  0  0
  181.7110  178.7750  140.4170 C   0  0  0  0  0  0  0  0  0  0  0  0
  179.9500  177.4370  141.5610 C   0  0  0  0  0  2  0  0  0  0  0  0
  179.4400  176.4050  140.5580 C   0  0  0  0  0  2  0  0  0  0  0  0
  179.8140  177.9060  138.0530 C   0  0  0  0  0  2  0  0  0  0  0  0
  186.4490  178.5780  141.6390 C   0  0  0  0  0  0  0  0  0  0  0  0
  186.7130  178.1660  144.6770 C   0  0  0  0  0  2  0  0  0  0  0  0
  182.6930  178.8500  141.3270 C   0  0  0  0  0  3  0  0  0  0  0  0
  181.0430  178.8060  137.9510 C   0  0  0  0  0  2  0  0  0  0  0  0
  185.1800  178.8470  141.9910 C   0  0  0  0  0  0  0  0  0  0  0  0
  188.7640  178.2600  141.6020 N   0  0  0  0  0  0  0  0  0  0  0  0
  182.0280  178.5790  139.0150 N   0  0  0  0  0  0  0  0  0  0  0  0
  180.1520  176.4200  138.1440 C   0  0  0  0  0  2  0  0  0  0  0  0
  187.5170  177.6050  143.5880 N   0  0  0  0  0  0  0  0  0  0  0  0
  184.4550  178.5610  139.6610 C   0  0  0  0  0  0  0  0  0  0  0  0
  180.2960  178.7760  140.9080 C   0  0  0  0  0  2  0  0  0  0  0  0
  184.1200  178.7700  140.9490 C   0  0  0  0  0  0  0  0  0  0  0  0
  185.1390  177.4640  137.1510 C   0  0  0  0  0  3  0  0  0  0  0  0
  185.2230  178.0860  144.3670 C   0  0  0  0  0  2  0  0  0  0  0  0
  183.7380  177.8270  137.4600 C   0  0  0  0  0  3  0  0  0  0  0  0
  184.8260  179.1980  143.4060 C   0  0  0  0  0  2  0  0  0  0  0  0
  187.6490  178.6010  142.5070 C   0  0  2  0  0  3  0  0  0  0  0  0
  186.1400  177.7790  137.9830 C   0  0  0  0  0  3  0  0  0  0  0  0
  186.7920  178.2660  140.3120 N   0  0  0  0  0  0  0  0  0  0  0  0
  188.8230  177.2230  144.1510 C   0  0  0  0  0  2  0  0  0  0  0  0
  188.8470  177.2310  145.6830 C   0  0  0  0  0  2  0  0  0  0  0  0
  191.7060  176.2670  147.4740 C   0  0  0  0  0  2  0  0  0  0  0  0
  191.1230  176.9070  145.2470 C   0  0  0  0  0  2  0  0  0  0  0  0
  190.1830  177.5580  146.1530 N   0  0  0  0  0  0  0  0  0  0  0  0
  191.9540  175.9160  146.0350 C   0  0  0  0  0  2  0  0  0  0  0  0
  190.3500  176.9230  147.4550 C   0  0  0  0  0  2  0  0  0  0  0  0
  1 26  1  6  0  0  0
  1 18  1  0  0  0  0
  1 27  1  0  0  0  0
  2 27  1  0  0  0  0
  2 14  2  0  0  0  0
  3  7  1  0  0  0  0
  4 15  1  0  0  0  0
  4 18  1  0  0  0  0
  5 19  1  0  0  0  0
  5 11  2  0  0  0  0
  7  6  1  0  0  0  0
  8 16  1  0  0  0  0
  9 13  2  0  0  0  0
  9 25  1  0  0  0  0
 12  8  1  0  0  0  0
 12 15  1  0  0  0  0
 13 24  1  0  0  0  0
 15  5  1  0  0  0  0
 16  3  1  0  0  0  0
 17 28  1  0  0  0  0
 17 10  1  0  0  0  0
 18 20  2  0  0  0  0
 19  6  1  0  0  0  0
 20 11  1  0  0  0  0
 20 13  1  0  0  0  0
 21 23  1  0  0  0  0
 21 26  2  0  0  0  0
 22 10  1  0  0  0  0
 23  4  2  0  0  0  0
 24 22  1  0  0  0  0
 25 14  1  6  0  0  0
 25 17  1  0  0  0  0
 27  9  1  0  0  0  0
 28 29  1  0  0  0  0
 29 32  1  0  0  0  0
 31 33  1  0  0  0  0
 31 32  1  0  0  0  0
 32 34  1  0  0  0  0
 33 30  1  0  0  0  0
 34 30  1  0  0  0  0
M  END
>  <MODEL>
1

>  <REMARK>
 VINA RESULT:      -8.7      0.000      0.000
  Name = 
  3 active torsions:
  status: ('A' for Active; 'I' for Inactive)
    1  A    between atoms: N_17  and  C_28
    2  A    between atoms: C_28  and  C_29
    3  A    between atoms: C_29  and  N_32
                            x       y       z     vdW  Elec       q    Type
                         _______ _______ _______ _____ _____    ______ ____

>  <TORSDO>
F 3

$$$$
=
 OpenBabel11122412183D

 34 40  0  0  1  0  0  0  0  0999 V2000
  186.1690  178.2240  138.0390 C   0  0  2  0  0  3  0  0  0  0  0  0
  188.5640  177.8170  138.9040 C   0  0  0  0  0  3  0  0  0  0  0  0
  180.7490  175.8880  139.0350 C   0  0  0  0  0  2  0  0  0  0  0  0
  183.6260  178.0120  137.7000 C   0  0  0  0  0  0  0  0  0  0  0  0
  182.1000  178.6630  139.5460 C   0  0  0  0  0  0  0  0  0  0  0  0
  180.3880  177.5050  140.9360 C   0  0  0  0  0  2  0  0  0  0  0  0
  179.7610  176.4160  140.0690 C   0  0  0  0  0  2  0  0  0  0  0  0
  179.9880  177.6820  137.4210 C   0  0  0  0  0  2  0  0  0  0  0  0
  186.9100  178.3630  140.4130 C   0  0  0  0  0  0  0  0  0  0  0  0
  187.4020  178.1980  143.4450 C   0  0  0  0  0  2  0  0  0  0  0  0
  183.1540  178.7720  140.3680 C   0  0  0  0  0  3  0  0  0  0  0  0
  181.2370  178.5150  137.1460 C   0  0  0  0  0  2  0  0  0  0  0  0
  185.6850  178.7170  140.8370 C   0  0  0  0  0  0  0  0  0  0  0  0
  189.2010  177.9430  140.2250 N   0  0  0  0  0  0  0  0  0  0  0  0
  182.2960  178.3360  138.1470 N   0  0  0  0  0  0  0  0  0  0  0  0
  180.2770  176.1950  137.6160 C   0  0  0  0  0  2  0  0  0  0  0  0
  188.0950  177.5130  142.3520 N   0  0  0  0  0  0  0  0  0  0  0  0
  184.7650  178.2660  138.6030 C   0  0  0  0  0  0  0  0  0  0  0  0
  180.7300  178.7680  140.1420 C   0  0  0  0  0  2  0  0  0  0  0  0
  184.5430  178.5990  139.8900 C   0  0  0  0  0  0  0  0  0  0  0  0
  185.2030  176.9320  136.1540 C   0  0  0  0  0  3  0  0  0  0  0  0
  185.8910  178.1580  143.2590 C   0  0  0  0  0  2  0  0  0  0  0  0
  183.8460  177.3810  136.5370 C   0  0  0  0  0  3  0  0  0  0  0  0
  185.4590  179.2010  142.2380 C   0  0  0  0  0  2  0  0  0  0  0  0
  188.1760  178.4070  141.1810 C   0  0  2  0  0  3  0  0  0  0  0  0
  186.2790  177.2730  136.8750 C   0  0  0  0  0  3  0  0  0  0  0  0
  187.1340  177.9260  139.0950 N   0  0  0  0  0  0  0  0  0  0  0  0
  189.4270  177.1230  142.8440 C   0  0  0  0  0  2  0  0  0  0  0  0
  189.7880  177.7660  144.1870 C   0  0  0  0  0  2  0  0  0  0  0  0
  191.3060  176.7600  147.1850 C   0  0  0  0  0  2  0  0  0  0  0  0
  189.1030  177.0560  146.3100 C   0  0  0  0  0  2  0  0  0  0  0  0
  189.9830  176.7330  145.1910 N   0  0  0  0  0  0  0  0  0  0  0  0
  189.9500  177.2950  147.5430 C   0  0  0  0  0  2  0  0  0  0  0  0
  191.3500  176.8620  145.6830 C   0  0  0  0  0  2  0  0  0  0  0  0
  1 26  1  6  0  0  0
  1 18  1  0  0  0  0
  1 27  1  0  0  0  0
  2 27  1  0  0  0  0
  2 14  2  0  0  0  0
  3  7  1  0  0  0  0
  4 15  1  0  0  0  0
  4 18  1  0  0  0  0
  5 19  1  0  0  0  0
  5 11  2  0  0  0  0
  7  6  1  0  0  0  0
  8 16  1  0  0  0  0
  9 13  2  0  0  0  0
  9 25  1  0  0  0  0
 12  8  1  0  0  0  0
 12 15  1  0  0  0  0
 13 24  1  0  0  0  0
 15  5  1  0  0  0  0
 16  3  1  0  0  0  0
 17 28  1  0  0  0  0
 17 10  1  0  0  0  0
 18 20  2  0  0  0  0
 19  6  1  0  0  0  0
 20 11  1  0  0  0  0
 20 13  1  0  0  0  0
 21 23  1  0  0  0  0
 21 26  2  0  0  0  0
 22 10  1  0  0  0  0
 23  4  2  0  0  0  0
 24 22  1  0  0  0  0
 25 14  1  6  0  0  0
 25 17  1  0  0  0  0
 27  9  1  0  0  0  0
 28 29  1  0  0  0  0
 29 32  1  0  0  0  0
 30 33  1  0  0  0  0
 31 33  1  0  0  0  0
 32 34  1  0  0  0  0
 32 31  1  0  0  0  0
 34 30  1  0  0  0  0
M  END
>  <MODEL>
2

>  <REMARK>
 VINA RESULT:      -8.2      0.985      1.324
  Name = 
  3 active torsions:
  status: ('A' for Active; 'I' for Inactive)
    1  A    between atoms: N_17  and  C_28
    2  A    between atoms: C_28  and  C_29
    3  A    between atoms: C_29  and  N_32
                            x       y       z     vdW  Elec       q    Type
                         _______ _______ _______ _____ _____    ______ ____

>  <TORSDO>
F 3

$$$$
=
 OpenBabel11122412183D

 34 40  0  0  1  0  0  0  0  0999 V2000
  190.3380  177.5520  138.8040 C   0  0  2  0  0  3  0  0  0  0  0  0
  191.7230  177.2850  140.9630 C   0  0  0  0  0  3  0  0  0  0  0  0
  185.4850  174.9800  136.4270 C   0  0  0  0  0  2  0  0  0  0  0  0
  188.5310  177.2060  137.0040 C   0  0  0  0  0  0  0  0  0  0  0  0
  186.1820  177.8300  137.5110 C   0  0  0  0  0  0  0  0  0  0  0  0
  184.0050  176.6260  137.6340 C   0  0  0  0  0  2  0  0  0  0  0  0
  184.0600  175.4850  136.6220 C   0  0  0  0  0  2  0  0  0  0  0  0
  185.8200  176.6900  134.5940 C   0  0  0  0  0  2  0  0  0  0  0  0
  189.4800  177.7900  141.1300 C   0  0  0  0  0  0  0  0  0  0  0  0
  188.0310  177.7300  143.8440 C   0  0  0  0  0  2  0  0  0  0  0  0
  186.5160  178.0120  138.7970 C   0  0  0  0  0  3  0  0  0  0  0  0
  186.9600  177.5760  135.0900 C   0  0  0  0  0  2  0  0  0  0  0  0
  188.2410  178.0940  140.7060 C   0  0  0  0  0  0  0  0  0  0  0  0
  191.4220  177.4780  142.3920 N   0  0  0  0  0  0  0  0  0  0  0  0
  187.1960  177.4760  136.5360 N   0  0  0  0  0  0  0  0  0  0  0  0
  185.9650  175.2250  134.9990 C   0  0  0  0  0  2  0  0  0  0  0  0
  189.2610  177.0510  143.4310 N   0  0  0  0  0  0  0  0  0  0  0  0
  188.8800  177.5400  138.3980 C   0  0  0  0  0  0  0  0  0  0  0  0
  184.7300  177.8830  137.1480 C   0  0  0  0  0  2  0  0  0  0  0  0
  187.9130  177.8950  139.2670 C   0  0  0  0  0  0  0  0  0  0  0  0
  190.7470  176.1640  136.7890 C   0  0  0  0  0  3  0  0  0  0  0  0
  186.9450  177.6100  142.7810 C   0  0  0  0  0  2  0  0  0  0  0  0
  189.4270  176.5560  136.2460 C   0  0  0  0  0  3  0  0  0  0  0  0
  187.1990  178.6030  141.6560 C   0  0  0  0  0  2  0  0  0  0  0  0
  190.0170  177.9160  142.5050 C   0  0  2  0  0  3  0  0  0  0  0  0
  191.1540  176.5760  137.9960 C   0  0  0  0  0  3  0  0  0  0  0  0
  190.4680  177.3290  140.2430 N   0  0  0  0  0  0  0  0  0  0  0  0
  190.0280  176.7400  144.6480 C   0  0  0  0  0  2  0  0  0  0  0  0
  189.8420  177.7760  145.7610 C   0  0  0  0  0  2  0  0  0  0  0  0
  188.3040  178.1640  148.8910 C   0  0  0  0  0  2  0  0  0  0  0  0
  187.7470  177.3530  146.7140 C   0  0  0  0  0  2  0  0  0  0  0  0
  189.1820  177.1630  146.9010 N   0  0  0  0  0  0  0  0  0  0  0  0
  187.2100  178.1810  147.8630 C   0  0  0  0  0  2  0  0  0  0  0  0
  189.5540  177.9320  148.0820 C   0  0  0  0  0  2  0  0  0  0  0  0
  1 26  1  6  0  0  0
  1 27  1  0  0  0  0
  2 14  2  0  0  0  0
  3  7  1  0  0  0  0
  4 18  1  0  0  0  0
  5 11  2  0  0  0  0
  7  6  1  0  0  0  0
  8 16  1  0  0  0  0
  8 12  1  0  0  0  0
 11 20  1  0  0  0  0
 12 15  1  0  0  0  0
 13  9  2  0  0  0  0
 13 24  1  0  0  0  0
 14 25  1  0  0  0  0
 15  4  1  0  0  0  0
 15  5  1  0  0  0  0
 16  3  1  0  0  0  0
 17 10  1  0  0  0  0
 17 28  1  0  0  0  0
 18  1  1  0  0  0  0
 18 20  2  0  0  0  0
 19  5  1  0  0  0  0
 19  6  1  0  0  0  0
 20 13  1  0  0  0  0
 21 26  2  0  0  0  0
 22 10  1  0  0  0  0
 23 21  1  0  0  0  0
 23  4  2  0  0  0  0
 24 22  1  0  0  0  0
 25  9  1  6  0  0  0
 25 17  1  0  0  0  0
 27  2  1  0  0  0  0
 27  9  1  0  0  0  0
 28 29  1  0  0  0  0
 29 32  1  0  0  0  0
 31 32  1  0  0  0  0
 31 33  1  0  0  0  0
 32 34  1  0  0  0  0
 33 30  1  0  0  0  0
 34 30  1  0  0  0  0
M  END
>  <MODEL>
3

>  <REMARK>
 VINA RESULT:      -8.2      3.048      4.554
  Name = 
  3 active torsions:
  status: ('A' for Active; 'I' for Inactive)
    1  A    between atoms: N_17  and  C_28
    2  A    between atoms: C_28  and  C_29
    3  A    between atoms: C_29  and  N_32
                            x       y       z     vdW  Elec       q    Type
                         _______ _______ _______ _____ _____    ______ ____

>  <TORSDO>
F 3

$$$$
=
 OpenBabel11122412183D

 34 40  0  0  1  0  0  0  0  0999 V2000
  186.9870  177.9730  137.6650 C   0  0  2  0  0  3  0  0  0  0  0  0
  188.8170  178.0230  139.4810 C   0  0  0  0  0  3  0  0  0  0  0  0
  182.0130  174.8130  136.6170 C   0  0  0  0  0  2  0  0  0  0  0  0
  184.8810  177.3160  136.3380 C   0  0  0  0  0  0  0  0  0  0  0  0
  182.6440  177.8000  137.2990 C   0  0  0  0  0  0  0  0  0  0  0  0
  180.6700  176.4480  137.9900 C   0  0  0  0  0  2  0  0  0  0  0  0
  180.6190  175.2220  137.0810 C   0  0  0  0  0  2  0  0  0  0  0  0
  181.7840  176.3620  134.6290 C   0  0  0  0  0  2  0  0  0  0  0  0
  186.6220  178.3650  140.0980 C   0  0  0  0  0  0  0  0  0  0  0  0
  185.7940  178.4520  143.0600 C   0  0  0  0  0  2  0  0  0  0  0  0
  183.2240  178.1300  138.4620 C   0  0  0  0  0  3  0  0  0  0  0  0
  182.9120  177.3770  134.7930 C   0  0  0  0  0  2  0  0  0  0  0  0
  185.2980  178.5290  139.9340 C   0  0  0  0  0  0  0  0  0  0  0  0
  188.8090  178.3270  140.9220 N   0  0  0  0  0  0  0  0  0  0  0  0
  183.4570  177.4350  136.1550 N   0  0  0  0  0  0  0  0  0  0  0  0
  182.1530  174.9580  135.1030 C   0  0  0  0  0  2  0  0  0  0  0  0
  186.9690  177.8340  142.4400 N   0  0  0  0  0  0  0  0  0  0  0  0
  185.4830  177.8080  137.5910 C   0  0  0  0  0  0  0  0  0  0  0  0
  181.1500  177.7050  137.2610 C   0  0  0  0  0  2  0  0  0  0  0  0
  184.6940  178.1680  138.6220 C   0  0  0  0  0  0  0  0  0  0  0  0
  187.0910  176.4350  135.7210 C   0  0  0  0  0  3  0  0  0  0  0  0
  184.5250  178.1470  142.2740 C   0  0  0  0  0  2  0  0  0  0  0  0
  185.6540  176.6690  135.4540 C   0  0  0  0  0  3  0  0  0  0  0  0
  184.4370  179.0440  141.0480 C   0  0  0  0  0  2  0  0  0  0  0  0
  187.4240  178.6630  141.3070 C   0  0  2  0  0  3  0  0  0  0  0  0
  187.7040  176.9910  136.7740 C   0  0  0  0  0  3  0  0  0  0  0  0
  187.4400  177.9000  139.0520 N   0  0  0  0  0  0  0  0  0  0  0  0
  188.0030  177.7020  143.4790 C   0  0  0  0  0  2  0  0  0  0  0  0
  187.4460  177.2500  144.8330 C   0  0  0  0  0  2  0  0  0  0  0  0
  187.9620  177.8070  148.2580 C   0  0  0  0  0  2  0  0  0  0  0  0
  189.2610  177.6330  146.2600 C   0  0  0  0  0  2  0  0  0  0  0  0
  187.9380  178.1230  145.8850 N   0  0  0  0  0  0  0  0  0  0  0  0
  189.2320  177.2170  147.7160 C   0  0  0  0  0  2  0  0  0  0  0  0
  187.0760  177.9290  147.0460 C   0  0  0  0  0  2  0  0  0  0  0  0
  1 26  1  6  0  0  0
  1 27  1  0  0  0  0
  2 14  2  0  0  0  0
  3  7  1  0  0  0  0
  4 18  1  0  0  0  0
  5 11  2  0  0  0  0
  7  6  1  0  0  0  0
  8 12  1  0  0  0  0
  8 16  1  0  0  0  0
 11 20  1  0  0  0  0
 12 15  1  0  0  0  0
 13  9  2  0  0  0  0
 13 24  1  0  0  0  0
 14 25  1  0  0  0  0
 15  4  1  0  0  0  0
 15  5  1  0  0  0  0
 16  3  1  0  0  0  0
 17 10  1  0  0  0  0
 17 28  1  0  0  0  0
 18  1  1  0  0  0  0
 18 20  2  0  0  0  0
 19  5  1  0  0  0  0
 19  6  1  0  0  0  0
 20 13  1  0  0  0  0
 21 26  2  0  0  0  0
 22 10  1  0  0  0  0
 23 21  1  0  0  0  0
 23  4  2  0  0  0  0
 24 22  1  0  0  0  0
 25  9  1  6  0  0  0
 25 17  1  0  0  0  0
 27  2  1  0  0  0  0
 27  9  1  0  0  0  0
 28 29  1  0  0  0  0
 29 32  1  0  0  0  0
 31 33  1  0  0  0  0
 32 31  1  0  0  0  0
 32 34  1  0  0  0  0
 33 30  1  0  0  0  0
 34 30  1  0  0  0  0
M  END
>  <MODEL>
4

>  <REMARK>
 VINA RESULT:      -8.0      1.847      2.795
  Name = 
  3 active torsions:
  status: ('A' for Active; 'I' for Inactive)
    1  A    between atoms: N_17  and  C_28
    2  A    between atoms: C_28  and  C_29
    3  A    between atoms: C_29  and  N_32
                            x       y       z     vdW  Elec       q    Type
                         _______ _______ _______ _____ _____    ______ ____

>  <TORSDO>
F 3

$$$$
=
 OpenBabel11122412183D

 34 40  0  0  1  0  0  0  0  0999 V2000
  189.6600  176.9380  137.1380 C   0  0  2  0  0  3  0  0  0  0  0  0
  191.7060  176.7450  138.6950 C   0  0  0  0  0  3  0  0  0  0  0  0
  184.0980  174.7320  137.0020 C   0  0  0  0  0  2  0  0  0  0  0  0
  187.3040  176.6200  136.1500 C   0  0  0  0  0  0  0  0  0  0  0  0
  185.3500  177.5780  137.3450 C   0  0  0  0  0  0  0  0  0  0  0  0
  183.2820  176.6700  138.3930 C   0  0  0  0  0  2  0  0  0  0  0  0
  182.8810  175.4250  137.6040 C   0  0  0  0  0  2  0  0  0  0  0  0
  183.8760  176.1760  134.9360 C   0  0  0  0  0  2  0  0  0  0  0  0
  189.7200  177.5350  139.5560 C   0  0  0  0  0  0  0  0  0  0  0  0
  189.3470  177.9510  142.5810 C   0  0  0  0  0  2  0  0  0  0  0  0
  186.1390  177.8580  138.3930 C   0  0  0  0  0  3  0  0  0  0  0  0
  185.1810  176.9650  134.8700 C   0  0  0  0  0  2  0  0  0  0  0  0
  188.4380  177.9390  139.5490 C   0  0  0  0  0  0  0  0  0  0  0  0
  191.9570  177.1290  140.0950 N   0  0  0  0  0  0  0  0  0  0  0  0
  185.9140  176.9970  136.1410 N   0  0  0  0  0  0  0  0  0  0  0  0
  184.0480  174.7580  135.4760 C   0  0  0  0  0  2  0  0  0  0  0  0
  190.2910  177.0860  141.8700 N   0  0  0  0  0  0  0  0  0  0  0  0
  188.1570  177.0600  137.2710 C   0  0  0  0  0  0  0  0  0  0  0  0
  183.8730  177.7670  137.5060 C   0  0  0  0  0  2  0  0  0  0  0  0
  187.5990  177.6240  138.3600 C   0  0  0  0  0  0  0  0  0  0  0  0
  189.2080  175.2980  135.3330 C   0  0  0  0  0  3  0  0  0  0  0  0
  187.9460  177.8490  141.9930 C   0  0  0  0  0  2  0  0  0  0  0  0
  187.8150  175.7860  135.2320 C   0  0  0  0  0  3  0  0  0  0  0  0
  187.8500  178.6730  140.7170 C   0  0  0  0  0  2  0  0  0  0  0  0
  190.7240  177.7450  140.6230 C   0  0  2  0  0  3  0  0  0  0  0  0
  190.0540  175.7880  136.2480 C   0  0  0  0  0  3  0  0  0  0  0  0
  190.2830  176.8620  138.4570 N   0  0  0  0  0  0  0  0  0  0  0  0
  191.4210  176.8200  142.7770 C   0  0  0  0  0  2  0  0  0  0  0  0
  191.0130  176.0640  144.0450 C   0  0  0  0  0  2  0  0  0  0  0  0
  190.2230  176.9570  147.3450 C   0  0  0  0  0  2  0  0  0  0  0  0
  192.0550  176.0090  146.1400 C   0  0  0  0  0  2  0  0  0  0  0  0
  191.3170  176.8660  145.2180 N   0  0  0  0  0  0  0  0  0  0  0  0
  191.2620  175.8750  147.4230 C   0  0  0  0  0  2  0  0  0  0  0  0
  190.0500  177.1840  145.8660 C   0  0  0  0  0  2  0  0  0  0  0  0
  1 26  1  6  0  0  0
  1 18  1  0  0  0  0
  1 27  1  0  0  0  0
  2 14  2  0  0  0  0
  3  7  1  0  0  0  0
  4 18  1  0  0  0  0
  5 19  1  0  0  0  0
  5 11  2  0  0  0  0
  7  6  1  0  0  0  0
  8 16  1  0  0  0  0
 12  8  1  0  0  0  0
 12 15  1  0  0  0  0
 13  9  2  0  0  0  0
 13 24  1  0  0  0  0
 14 25  1  0  0  0  0
 15  4  1  0  0  0  0
 15  5  1  0  0  0  0
 16  3  1  0  0  0  0
 17 10  1  0  0  0  0
 17 28  1  0  0  0  0
 18 20  2  0  0  0  0
 19  6  1  0  0  0  0
 20 11  1  0  0  0  0
 20 13  1  0  0  0  0
 21 26  2  0  0  0  0
 22 10  1  0  0  0  0
 23 21  1  0  0  0  0
 23  4  2  0  0  0  0
 24 22  1  0  0  0  0
 25  9  1  6  0  0  0
 25 17  1  0  0  0  0
 27  2  1  0  0  0  0
 27  9  1  0  0  0  0
 28 29  1  0  0  0  0
 29 32  1  0  0  0  0
 30 33  1  0  0  0  0
 31 33  1  0  0  0  0
 32 34  1  0  0  0  0
 32 31  1  0  0  0  0
 34 30  1  0  0  0  0
M  END
>  <MODEL>
5

>  <REMARK>
 VINA RESULT:      -7.8      2.771      4.141
  Name = 
  3 active torsions:
  status: ('A' for Active; 'I' for Inactive)
    1  A    between atoms: N_17  and  C_28
    2  A    between atoms: C_28  and  C_29
    3  A    between atoms: C_29  and  N_32
                            x       y       z     vdW  Elec       q    Type
                         _______ _______ _______ _____ _____    ______ ____

>  <TORSDO>
F 3

$$$$
=
 OpenBabel11122412183D

 34 40  0  0  1  0  0  0  0  0999 V2000
  188.2340  178.4210  140.5940 C   0  0  2  0  0  3  0  0  0  0  0  0
  186.2820  178.9700  142.1880 C   0  0  0  0  0  3  0  0  0  0  0  0
  189.7730  173.8560  137.0430 C   0  0  0  0  0  2  0  0  0  0  0  0
  189.7410  177.1820  138.9150 C   0  0  0  0  0  0  0  0  0  0  0  0
  188.9380  176.8370  136.5920 C   0  0  0  0  0  0  0  0  0  0  0  0
  188.4500  174.8660  135.1490 C   0  0  0  0  0  2  0  0  0  0  0  0
  189.4030  173.7500  135.5680 C   0  0  0  0  0  2  0  0  0  0  0  0
  191.7160  175.3550  136.4280 C   0  0  0  0  0  2  0  0  0  0  0  0
  185.8240  178.5250  139.9730 C   0  0  0  0  0  0  0  0  0  0  0  0
  182.9330  178.1560  138.9870 C   0  0  0  0  0  2  0  0  0  0  0  0
  187.7230  177.2710  136.9560 C   0  0  0  0  0  3  0  0  0  0  0  0
  191.4290  176.6760  137.1370 C   0  0  0  0  0  2  0  0  0  0  0  0
  186.0830  178.2490  138.6840 C   0  0  0  0  0  0  0  0  0  0  0  0
  184.8360  179.1680  141.9910 N   0  0  0  0  0  0  0  0  0  0  0  0
  190.0280  176.8310  137.5480 N   0  0  0  0  0  0  0  0  0  0  0  0
  191.2650  174.1290  137.2180 C   0  0  0  0  0  2  0  0  0  0  0  0
  183.4830  178.0020  140.3360 N   0  0  0  0  0  0  0  0  0  0  0  0
  188.4280  177.7710  139.2410 C   0  0  0  0  0  0  0  0  0  0  0  0
  189.0940  176.2520  135.2220 C   0  0  0  0  0  2  0  0  0  0  0  0
  187.4490  177.7860  138.3150 C   0  0  0  0  0  0  0  0  0  0  0  0
  190.2180  177.1240  141.3260 C   0  0  0  0  0  3  0  0  0  0  0  0
  183.8240  177.4930  137.9440 C   0  0  0  0  0  2  0  0  0  0  0  0
  190.5860  176.8820  139.9130 C   0  0  0  0  0  3  0  0  0  0  0  0
  185.0200  178.3810  137.6340 C   0  0  0  0  0  2  0  0  0  0  0  0
  184.5470  179.0010  140.5530 C   0  0  2  0  0  3  0  0  0  0  0  0
  189.1020  177.7880  141.6510 C   0  0  0  0  0  3  0  0  0  0  0  0
  186.8190  178.4210  140.9610 N   0  0  0  0  0  0  0  0  0  0  0  0
  182.3720  178.1600  141.2900 C   0  0  0  0  0  2  0  0  0  0  0  0
  181.3080  179.1560  140.8190 C   0  0  0  0  0  2  0  0  0  0  0  0
  178.9350  179.1370  143.4030 C   0  0  0  0  0  2  0  0  0  0  0  0
  181.3090  179.2280  143.1580 C   0  0  0  0  0  2  0  0  0  0  0  0
  180.7200  179.8280  141.9660 N   0  0  0  0  0  0  0  0  0  0  0  0
  180.2080  178.5870  143.9770 C   0  0  0  0  0  2  0  0  0  0  0  0
  179.3020  179.4900  141.9850 C   0  0  0  0  0  2  0  0  0  0  0  0
  1 27  1  0  0  0  0
  1 26  1  1  0  0  0
  3 16  1  0  0  0  0
  4 18  1  0  0  0  0
  4 23  2  0  0  0  0
  5 11  2  0  0  0  0
  5 15  1  0  0  0  0
  6 19  1  0  0  0  0
  6  7  1  0  0  0  0
  7  3  1  0  0  0  0
  8 12  1  0  0  0  0
  8 16  1  0  0  0  0
  9 27  1  0  0  0  0
 10 17  1  0  0  0  0
 11 20  1  0  0  0  0
 12 15  1  0  0  0  0
 13  9  2  0  0  0  0
 14  2  2  0  0  0  0
 15  4  1  0  0  0  0
 17 25  1  0  0  0  0
 17 28  1  0  0  0  0
 18  1  1  0  0  0  0
 19  5  1  0  0  0  0
 20 13  1  0  0  0  0
 20 18  2  0  0  0  0
 21 26  2  0  0  0  0
 22 10  1  0  0  0  0
 23 21  1  0  0  0  0
 24 22  1  0  0  0  0
 24 13  1  0  0  0  0
 25  9  1  6  0  0  0
 25 14  1  0  0  0  0
 27  2  1  0  0  0  0
 29 28  1  0  0  0  0
 29 32  1  0  0  0  0
 30 33  1  0  0  0  0
 31 33  1  0  0  0  0
 32 34  1  0  0  0  0
 32 31  1  0  0  0  0
 34 30  1  0  0  0  0
M  END
>  <MODEL>
6

>  <REMARK>
 VINA RESULT:      -7.5      2.998      8.229
  Name = 
  3 active torsions:
  status: ('A' for Active; 'I' for Inactive)
    1  A    between atoms: N_17  and  C_28
    2  A    between atoms: C_28  and  C_29
    3  A    between atoms: C_29  and  N_32
                            x       y       z     vdW  Elec       q    Type
                         _______ _______ _______ _____ _____    ______ ____

>  <TORSDO>
F 3

$$$$
=
 OpenBabel11122412183D

 34 40  0  0  1  0  0  0  0  0999 V2000
  184.8890  178.8730  144.5420 C   0  0  2  0  0  3  0  0  0  0  0  0
  182.3360  178.6770  144.2380 C   0  0  0  0  0  3  0  0  0  0  0  0
  189.6970  175.6750  142.9640 C   0  0  0  0  0  2  0  0  0  0  0  0
  187.4100  178.3610  144.4210 C   0  0  0  0  0  0  0  0  0  0  0  0
  188.5700  178.5000  142.2310 C   0  0  0  0  0  0  0  0  0  0  0  0
  189.8160  176.9130  140.7700 C   0  0  0  0  0  2  0  0  0  0  0  0
  190.4930  175.8930  141.6820 C   0  0  0  0  0  2  0  0  0  0  0  0
  190.9680  177.5710  144.0540 C   0  0  0  0  0  2  0  0  0  0  0  0
  183.6810  178.7470  142.3680 C   0  0  0  0  0  0  0  0  0  0  0  0
  182.5420  178.1880  139.5640 C   0  0  0  0  0  2  0  0  0  0  0  0
  187.3830  178.6270  141.6190 C   0  0  0  0  0  3  0  0  0  0  0  0
  189.9010  178.6030  144.4090 C   0  0  0  0  0  2  0  0  0  0  0  0
  184.8190  178.8550  141.6610 C   0  0  0  0  0  0  0  0  0  0  0  0
  181.4510  178.6860  143.0620 N   0  0  0  0  0  0  0  0  0  0  0  0
  188.6420  178.4230  143.6770 N   0  0  0  0  0  0  0  0  0  0  0  0
  190.4890  176.1270  144.1880 C   0  0  0  0  0  2  0  0  0  0  0  0
  182.0290  177.7830  140.8750 N   0  0  0  0  0  0  0  0  0  0  0  0
  186.1390  178.6300  143.7210 C   0  0  0  0  0  0  0  0  0  0  0  0
  189.7850  178.3180  141.3750 C   0  0  0  0  0  2  0  0  0  0  0  0
  186.1170  178.7260  142.3780 C   0  0  0  0  0  0  0  0  0  0  0  0
  186.0910  177.7640  146.4070 C   0  0  0  0  0  3  0  0  0  0  0  0
  184.0460  177.9650  139.4620 C   0  0  0  0  0  2  0  0  0  0  0  0
  187.3760  177.9540  145.6990 C   0  0  0  0  0  3  0  0  0  0  0  0
  184.7920  179.0810  140.1780 C   0  0  0  0  0  2  0  0  0  0  0  0
  182.2930  178.8490  141.8610 C   0  0  2  0  0  3  0  0  0  0  0  0
  184.9290  178.1370  145.8560 C   0  0  0  0  0  3  0  0  0  0  0  0
  183.6970  178.5540  143.7600 N   0  0  0  0  0  0  0  0  0  0  0  0
  180.5890  177.5120  140.7250 C   0  0  0  0  0  2  0  0  0  0  0  0
  180.1780  177.2120  139.2800 C   0  0  0  0  0  2  0  0  0  0  0  0
  179.5730  173.7610  139.1050 C   0  0  0  0  0  2  0  0  0  0  0  0
  179.1650  175.5730  140.6080 C   0  0  0  0  0  2  0  0  0  0  0  0
  179.2160  176.1230  139.2570 N   0  0  0  0  0  0  0  0  0  0  0  0
  179.6050  174.1240  140.5620 C   0  0  0  0  0  2  0  0  0  0  0  0
  179.7660  175.0780  138.4010 C   0  0  0  0  0  2  0  0  0  0  0  0
  1 26  1  1  0  0  0
  3 16  1  0  0  0  0
  4 23  2  0  0  0  0
  5 15  1  0  0  0  0
  6 19  1  0  0  0  0
  6  7  1  0  0  0  0
  7  3  1  0  0  0  0
  8 16  1  0  0  0  0
  8 12  1  0  0  0  0
  9 27  1  0  0  0  0
 10 17  1  0  0  0  0
 11  5  2  0  0  0  0
 11 20  1  0  0  0  0
 13  9  2  0  0  0  0
 13 20  1  0  0  0  0
 14  2  2  0  0  0  0
 15 12  1  0  0  0  0
 15  4  1  0  0  0  0
 17 25  1  0  0  0  0
 18  4  1  0  0  0  0
 18  1  1  0  0  0  0
 19  5  1  0  0  0  0
 20 18  2  0  0  0  0
 22 10  1  0  0  0  0
 22 24  1  0  0  0  0
 23 21  1  0  0  0  0
 24 13  1  0  0  0  0
 25  9  1  1  0  0  0
 25 14  1  0  0  0  0
 26 21  2  0  0  0  0
 27  2  1  0  0  0  0
 27  1  1  0  0  0  0
 28 17  1  0  0  0  0
 29 28  1  0  0  0  0
 30 33  1  0  0  0  0
 32 29  1  0  0  0  0
 32 31  1  0  0  0  0
 33 31  1  0  0  0  0
 34 30  1  0  0  0  0
 34 32  1  0  0  0  0
M  END
>  <MODEL>
7

>  <REMARK>
 VINA RESULT:      -7.4      1.919      8.957
  Name = 
  3 active torsions:
  status: ('A' for Active; 'I' for Inactive)
    1  A    between atoms: N_17  and  C_28
    2  A    between atoms: C_28  and  C_29
    3  A    between atoms: C_29  and  N_32
                            x       y       z     vdW  Elec       q    Type
                         _______ _______ _______ _____ _____    ______ ____

>  <TORSDO>
F 3

$$$$
=
 OpenBabel11122412183D

 34 40  0  0  1  0  0  0  0  0999 V2000
  184.8460  178.8970  144.2770 C   0  0  2  0  0  3  0  0  0  0  0  0
  182.3150  178.7020  143.8230 C   0  0  0  0  0  3  0  0  0  0  0  0
  189.7240  175.6450  143.0710 C   0  0  0  0  0  2  0  0  0  0  0  0
  187.3670  178.3730  144.3210 C   0  0  0  0  0  0  0  0  0  0  0  0
  188.6580  178.4550  142.2030 C   0  0  0  0  0  0  0  0  0  0  0  0
  189.9820  176.8290  140.8600 C   0  0  0  0  0  2  0  0  0  0  0  0
  190.5980  175.8290  141.8350 C   0  0  0  0  0  2  0  0  0  0  0  0
  190.9370  177.5620  144.1910 C   0  0  0  0  0  2  0  0  0  0  0  0
  183.7710  178.7230  142.0370 C   0  0  0  0  0  0  0  0  0  0  0  0
  182.8020  178.1000  139.1830 C   0  0  0  0  0  2  0  0  0  0  0  0
  187.5110  178.5720  141.5180 C   0  0  0  0  0  3  0  0  0  0  0  0
  189.8550  178.6070  144.4550 C   0  0  0  0  0  2  0  0  0  0  0  0
  184.9510  178.8100  141.3980 C   0  0  0  0  0  0  0  0  0  0  0  0
  181.5030  178.6860  142.5950 N   0  0  0  0  0  0  0  0  0  0  0  0
  188.6420  178.4130  143.6530 N   0  0  0  0  0  0  0  0  0  0  0  0
  190.4430  176.1240  144.3300 C   0  0  0  0  0  2  0  0  0  0  0  0
  182.2080  177.7290  140.4700 N   0  0  0  0  0  0  0  0  0  0  0  0
  186.1420  178.6300  143.5400 C   0  0  0  0  0  0  0  0  0  0  0  0
  189.9230  178.2490  141.4270 C   0  0  0  0  0  2  0  0  0  0  0  0
  186.2020  178.6930  142.1950 C   0  0  0  0  0  0  0  0  0  0  0  0
  185.9270  177.8290  146.2380 C   0  0  0  0  0  3  0  0  0  0  0  0
  184.3080  177.8700  139.1780 C   0  0  0  0  0  2  0  0  0  0  0  0
  187.2530  177.9970  145.6040 C   0  0  0  0  0  3  0  0  0  0  0  0
  185.0150  179.0000  139.9120 C   0  0  0  0  0  2  0  0  0  0  0  0
  182.4170  178.8170  141.4440 C   0  0  2  0  0  3  0  0  0  0  0  0
  184.8020  178.1920  145.6080 C   0  0  0  0  0  3  0  0  0  0  0  0
  183.7020  178.5630  143.4310 N   0  0  0  0  0  0  0  0  0  0  0  0
  180.7790  177.4600  140.2390 C   0  0  0  0  0  2  0  0  0  0  0  0
  180.3290  177.7680  138.8070 C   0  0  0  0  0  2  0  0  0  0  0  0
  178.9310  180.5130  140.4860 C   0  0  0  0  0  2  0  0  0  0  0  0
  180.0770  180.0650  138.4380 C   0  0  0  0  0  2  0  0  0  0  0  0
  179.3610  178.8510  138.8170 N   0  0  0  0  0  0  0  0  0  0  0  0
  180.0010  181.0540  139.5830 C   0  0  0  0  0  2  0  0  0  0  0  0
  178.9310  179.0340  140.1980 C   0  0  0  0  0  2  0  0  0  0  0  0
  1 26  1  1  0  0  0
  3 16  1  0  0  0  0
  4 23  2  0  0  0  0
  5 15  1  0  0  0  0
  6 19  1  0  0  0  0
  6  7  1  0  0  0  0
  7  3  1  0  0  0  0
  8 16  1  0  0  0  0
  8 12  1  0  0  0  0
  9 27  1  0  0  0  0
 10 17  1  0  0  0  0
 11 20  1  0  0  0  0
 11  5  2  0  0  0  0
 13  9  2  0  0  0  0
 13 20  1  0  0  0  0
 14  2  2  0  0  0  0
 15  4  1  0  0  0  0
 15 12  1  0  0  0  0
 17 25  1  0  0  0  0
 18  1  1  0  0  0  0
 18  4  1  0  0  0  0
 19  5  1  0  0  0  0
 20 18  2  0  0  0  0
 22 10  1  0  0  0  0
 22 24  1  0  0  0  0
 23 21  1  0  0  0  0
 24 13  1  0  0  0  0
 25  9  1  1  0  0  0
 25 14  1  0  0  0  0
 26 21  2  0  0  0  0
 27  2  1  0  0  0  0
 27  1  1  0  0  0  0
 28 17  1  0  0  0  0
 29 32  1  0  0  0  0
 29 28  1  0  0  0  0
 31 32  1  0  0  0  0
 31 33  1  0  0  0  0
 32 34  1  0  0  0  0
 33 30  1  0  0  0  0
 34 30  1  0  0  0  0
M  END
>  <MODEL>
8

>  <REMARK>
 VINA RESULT:      -7.2      1.834      9.019
  Name = 
  3 active torsions:
  status: ('A' for Active; 'I' for Inactive)
    1  A    between atoms: N_17  and  C_28
    2  A    between atoms: C_28  and  C_29
    3  A    between atoms: C_29  and  N_32
                            x       y       z     vdW  Elec       q    Type
                         _______ _______ _______ _____ _____    ______ ____

>  <TORSDO>
F 3

$$$$
=
 OpenBabel11122412183D

 34 40  0  0  1  0  0  0  0  0999 V2000
  191.1130  176.1850  138.2140 C   0  0  2  0  0  3  0  0  0  0  0  0
  192.4080  176.8890  140.3300 C   0  0  0  0  0  3  0  0  0  0  0  0
  186.3730  172.7440  136.9820 C   0  0  0  0  0  2  0  0  0  0  0  0
  189.3830  175.0700  136.6680 C   0  0  0  0  0  0  0  0  0  0  0  0
  187.0130  175.8000  136.7780 C   0  0  0  0  0  0  0  0  0  0  0  0
  184.8380  174.7150  137.3230 C   0  0  0  0  0  2  0  0  0  0  0  0
  184.9390  173.2540  136.8930 C   0  0  0  0  0  2  0  0  0  0  0  0
  186.7770  173.5230  134.6090 C   0  0  0  0  0  2  0  0  0  0  0  0
  190.1580  177.3680  140.1870 C   0  0  0  0  0  0  0  0  0  0  0  0
  188.5980  178.4330  142.6160 C   0  0  0  0  0  2  0  0  0  0  0  0
  187.2930  176.5170  137.8760 C   0  0  0  0  0  3  0  0  0  0  0  0
  187.8910  174.5610  134.7230 C   0  0  0  0  0  2  0  0  0  0  0  0
  188.9370  177.4370  139.6300 C   0  0  0  0  0  0  0  0  0  0  0  0
  192.0480  177.6620  141.5310 N   0  0  0  0  0  0  0  0  0  0  0  0
  188.0670  175.0880  136.0820 N   0  0  0  0  0  0  0  0  0  0  0  0
  186.9120  172.3720  135.6030 C   0  0  0  0  0  2  0  0  0  0  0  0
  189.8480  177.6690  142.5750 N   0  0  0  0  0  0  0  0  0  0  0  0
  189.6730  175.9710  137.8000 C   0  0  0  0  0  0  0  0  0  0  0  0
  185.5770  175.6620  136.3750 C   0  0  0  0  0  2  0  0  0  0  0  0
  188.6700  176.6400  138.4020 C   0  0  0  0  0  0  0  0  0  0  0  0
  191.6110  174.0840  136.9940 C   0  0  0  0  0  3  0  0  0  0  0  0
  187.5580  177.8510  141.6670 C   0  0  0  0  0  2  0  0  0  0  0  0
  190.3120  174.1800  136.2900 C   0  0  0  0  0  3  0  0  0  0  0  0
  187.8540  178.2780  140.2370 C   0  0  0  0  0  2  0  0  0  0  0  0
  190.6380  178.0770  141.3970 C   0  0  2  0  0  3  0  0  0  0  0  0
  191.9660  174.9770  137.9260 C   0  0  0  0  0  3  0  0  0  0  0  0
  191.1840  176.5960  139.6150 N   0  0  0  0  0  0  0  0  0  0  0  0
  190.5650  177.9200  143.8360 C   0  0  0  0  0  2  0  0  0  0  0  0
  189.6570  177.8700  145.0680 C   0  0  0  0  0  2  0  0  0  0  0  0
  192.0710  175.9490  146.7380 C   0  0  0  0  0  2  0  0  0  0  0  0
  190.0640  177.1370  147.2530 C   0  0  0  0  0  2  0  0  0  0  0  0
  189.9710  176.6960  145.8650 N   0  0  0  0  0  0  0  0  0  0  0  0
  191.4670  176.8700  147.7580 C   0  0  0  0  0  2  0  0  0  0  0  0
  191.3060  176.2550  145.4770 C   0  0  0  0  0  2  0  0  0  0  0  0
  1 26  1  1  0  0  0
  1 27  1  0  0  0  0
  2 14  2  0  0  0  0
  4 18  1  0  0  0  0
  5 11  2  0  0  0  0
  7  3  1  0  0  0  0
  7  6  1  0  0  0  0
  8 12  1  0  0  0  0
  8 16  1  0  0  0  0
 11 20  1  0  0  0  0
 12 15  1  0  0  0  0
 13  9  2  0  0  0  0
 13 24  1  0  0  0  0
 15  4  1  0  0  0  0
 15  5  1  0  0  0  0
 16  3  1  0  0  0  0
 17 10  1  0  0  0  0
 17 28  1  0  0  0  0
 18  1  1  0  0  0  0
 18 20  2  0  0  0  0
 19  5  1  0  0  0  0
 19  6  1  0  0  0  0
 20 13  1  0  0  0  0
 21 26  2  0  0  0  0
 22 10  1  0  0  0  0
 23  4  2  0  0  0  0
 23 21  1  0  0  0  0
 24 22  1  0  0  0  0
 25  9  1  6  0  0  0
 25 14  1  0  0  0  0
 25 17  1  0  0  0  0
 27  9  1  0  0  0  0
 27  2  1  0  0  0  0
 28 29  1  0  0  0  0
 29 32  1  0  0  0  0
 30 33  1  0  0  0  0
 31 33  1  0  0  0  0
 32 31  1  0  0  0  0
 34 32  1  0  0  0  0
 34 30  1  0  0  0  0
M  END
>  <MODEL>
9

>  <REMARK>
 VINA RESULT:      -7.1      3.886      5.582
  Name = 
  3 active torsions:
  status: ('A' for Active; 'I' for Inactive)
    1  A    between atoms: N_17  and  C_28
    2  A    between atoms: C_28  and  C_29
    3  A    between atoms: C_29  and  N_32
                            x       y       z     vdW  Elec       q    Type
                         _______ _______ _______ _____ _____    ______ ____

>  <TORSDO>
F 3

$$$$
