=
 OpenBabel11122411463D

 37 44  0  0  1  0  0  0  0  0999 V2000
  185.9620  179.1910  146.0040 C   0  0  0  0  0  0  0  0  0  0  0  0
  186.9170  177.3840  142.8540 C   0  0  1  0  0  3  0  0  0  0  0  0
  189.7370  175.6540  142.8330 O   0  0  0  0  0  0  0  0  0  0  0  0
  184.8740  178.0980  144.3040 C   0  0  2  0  0  3  0  0  0  0  0  0
  188.3380  177.5030  143.4010 C   0  0  2  0  0  3  0  0  0  0  0  0
  186.0840  177.1720  144.1230 C   0  0  2  0  0  3  0  0  0  0  0  0
  189.4370  176.9780  142.4760 C   0  0  2  0  0  3  0  0  0  0  0  0
  184.1520  178.2440  142.9750 C   0  0  0  0  0  2  0  0  0  0  0  0
  187.0740  177.2790  145.2810 C   0  0  2  0  0  3  0  0  0  0  0  0
  185.2620  178.4250  146.9330 F   0  0  0  0  0  0  0  0  0  0  0  0
  187.1520  178.5960  140.6450 C   0  0  0  0  0  2  0  0  0  0  0  0
  185.0360  178.8620  141.8850 C   0  0  0  0  0  2  0  0  0  0  0  0
  187.2210  178.6230  145.7140 O   0  0  0  0  0  0  0  0  0  0  0  0
  191.4620  176.8250  144.0290 O   0  0  0  0  0  0  0  0  0  0  0  0
  190.9010  175.5850  143.6510 C   0  0  1  0  0  3  0  0  0  0  0  0
  186.5490  178.6440  142.0490 C   0  0  1  0  0  3  0  0  0  0  0  0
  188.3300  176.8030  144.6880 N   0  0  2  0  0  0  0  0  0  0  0  0
  185.2290  179.3640  144.8110 O   0  0  0  0  0  0  0  0  0  0  0  0
  189.1520  177.1250  140.9690 C   0  0  1  0  0  3  0  0  0  0  0  0
  186.1730  180.4360  146.5630 F   0  0  0  0  0  0  0  0  0  0  0  0
  190.7320  176.1590  145.0360 C   0  0  2  0  0  3  0  0  0  0  0  0
  189.5640  177.0900  145.4510 C   0  0  2  0  0  3  0  0  0  0  0  0
  188.6740  178.5360  140.6380 C   0  0  0  0  0  2  0  0  0  0  0  0
  191.5690  177.6410  140.4420 C   0  0  0  0  0  2  0  0  0  0  0  0
  190.3600  176.7770  140.0930 C   0  0  2  0  0  3  0  0  0  0  0  0
  190.0410  176.8370  138.5930 C   0  0  0  0  0  2  0  0  0  0  0  0
  191.1640  176.4210  136.5300 O   0  0  0  0  0  0  0  0  0  0  0  0
  192.5660  177.0000  138.2950 N   0  0  0  0  0  2  0  0  0  0  0  0
  191.2750  176.7060  137.7500 C   0  0  0  0  0  0  0  0  0  0  0  0
  192.7960  177.0840  139.7330 C   0  0  0  0  0  2  0  0  0  0  0  0
  189.3620  176.9110  146.9630 C   0  0  1  0  0  3  0  0  0  0  0  0
  190.6510  177.1450  147.6900 N   0  0  0  0  0  0  0  0  0  0  0  0
  189.5220  178.1130  147.6250 C   0  0  2  0  0  3  0  0  0  0  0  0
  192.4190  175.5980  147.8000 N   0  0  0  0  0  2  0  0  0  0  0  0
  191.9490  176.7550  148.1240 C   0  0  0  0  0  3  0  0  0  0  0  0
  188.7710  178.0900  148.9400 C   0  0  0  0  0  2  0  0  0  0  0  0
  187.5330  177.5060  148.7550 F   0  0  0  0  0  0  0  0  0  0  0  0
  1 20  1  0  0  0  0
  1 10  1  0  0  0  0
  2  5  1  0  0  0  0
  2  6  1  0  0  0  0
  3 15  1  0  0  0  0
  4 18  1  0  0  0  0
  5 17  1  0  0  0  0
  6  4  1  0  0  0  0
  6  9  1  0  0  0  0
  7  3  1  0  0  0  0
  7  5  1  0  0  0  0
  8  4  1  0  0  0  0
  9 13  1  0  0  0  0
 11 16  1  0  0  0  0
 12 16  1  0  0  0  0
 12  8  1  0  0  0  0
 13  1  1  0  0  0  0
 14 21  1  0  0  0  0
 15 14  1  0  0  0  0
 15 21  1  0  0  0  0
 16  2  1  0  0  0  0
 17  9  1  0  0  0  0
 17 22  1  0  0  0  0
 18  1  1  0  0  0  0
 19  7  1  0  0  0  0
 21 22  1  0  0  0  0
 22 31  1  0  0  0  0
 23 11  1  0  0  0  0
 23 19  1  0  0  0  0
 25 24  1  0  0  0  0
 25 19  1  0  0  0  0
 26 25  1  0  0  0  0
 27 29  2  0  0  0  0
 28 30  1  0  0  0  0
 29 28  1  0  0  0  0
 29 26  1  0  0  0  0
 30 24  1  0  0  0  0
 31 33  1  0  0  0  0
 31 32  1  0  0  0  0
 32 35  1  0  0  0  0
 33 32  1  0  0  0  0
 33 36  1  0  0  0  0
 34 35  2  0  0  0  0
 37 36  1  0  0  0  0
M  END
>  <MODEL>
1

>  <REMARK>
 VINA RESULT:     -10.0      0.000      0.000
  Name = 
  3 active torsions:
  status: ('A' for Active; 'I' for Inactive)
    1  A    between atoms: C_1  and  C_27
    2  A    between atoms: C_8  and  C_12
    3  A    between atoms: C_23  and  C_30
                            x       y       z     vdW  Elec       q    Type
                         _______ _______ _______ _____ _____    ______ ____

>  <TORSDO>
F 3

$$$$
=
 OpenBabel11122411463D

 37 44  0  0  1  0  0  0  0  0999 V2000
  182.8520  177.9750  140.6790 C   0  0  0  0  0  0  0  0  0  0  0  0
  185.7020  178.8540  142.9620 C   0  0  1  0  0  3  0  0  0  0  0  0
  188.7640  178.8750  141.7090 O   0  0  0  0  0  0  0  0  0  0  0  0
  183.2000  179.3780  142.4630 C   0  0  2  0  0  3  0  0  0  0  0  0
  186.5390  178.0480  141.9710 C   0  0  2  0  0  3  0  0  0  0  0  0
  184.6700  179.5340  142.0560 C   0  0  2  0  0  3  0  0  0  0  0  0
  188.0120  177.8790  142.3510 C   0  0  2  0  0  3  0  0  0  0  0  0
  183.0750  179.5530  143.9680 C   0  0  0  0  0  2  0  0  0  0  0  0
  184.9440  178.9950  140.6530 C   0  0  2  0  0  3  0  0  0  0  0  0
  182.3290  179.0420  139.9540 F   0  0  0  0  0  0  0  0  0  0  0  0
  186.1340  177.5750  145.1030 C   0  0  0  0  0  2  0  0  0  0  0  0
  183.8770  178.5090  144.7530 C   0  0  0  0  0  2  0  0  0  0  0  0
  184.2260  177.7940  140.4110 O   0  0  0  0  0  0  0  0  0  0  0  0
  189.0680  177.0480  140.1760 O   0  0  0  0  0  0  0  0  0  0  0  0
  189.3910  178.3770  140.5310 C   0  0  1  0  0  3  0  0  0  0  0  0
  185.1000  177.9220  144.0310 C   0  0  1  0  0  3  0  0  0  0  0  0
  186.3850  178.7200  140.6780 N   0  0  2  0  0  0  0  0  0  0  0  0
  182.6530  178.1400  142.0670 O   0  0  0  0  0  0  0  0  0  0  0  0
  188.2960  177.8180  143.8640 C   0  0  1  0  0  3  0  0  0  0  0  0
  182.1850  176.8320  140.2840 F   0  0  0  0  0  0  0  0  0  0  0  0
  188.4420  178.0500  139.4040 C   0  0  2  0  0  3  0  0  0  0  0  0
  186.9110  177.8800  139.5820 C   0  0  2  0  0  3  0  0  0  0  0  0
  187.3520  176.8410  144.5590 C   0  0  0  0  0  2  0  0  0  0  0  0
  190.1740  176.1800  143.4460 C   0  0  0  0  0  2  0  0  0  0  0  0
  189.7460  177.4430  144.1880 C   0  0  2  0  0  3  0  0  0  0  0  0
  190.0050  177.3240  145.6960 C   0  0  0  0  0  2  0  0  0  0  0  0
  191.8480  176.8790  147.1420 O   0  0  0  0  0  0  0  0  0  0  0  0
  192.0550  175.9790  145.0070 N   0  0  0  0  0  2  0  0  0  0  0  0
  191.3590  176.7520  145.9900 C   0  0  0  0  0  0  0  0  0  0  0  0
  191.6790  176.0040  143.5970 C   0  0  0  0  0  2  0  0  0  0  0  0
  186.2620  178.2200  138.2320 C   0  0  1  0  0  3  0  0  0  0  0  0
  186.9940  177.5360  137.1180 N   0  0  0  0  0  0  0  0  0  0  0  0
  185.6830  177.0990  137.6710 C   0  0  2  0  0  3  0  0  0  0  0  0
  189.0550  178.2530  136.2410 N   0  0  0  0  0  2  0  0  0  0  0  0
  188.0850  177.4020  136.2140 C   0  0  0  0  0  3  0  0  0  0  0  0
  184.5800  177.5030  136.7150 C   0  0  0  0  0  2  0  0  0  0  0  0
  183.5900  178.1710  137.4080 F   0  0  0  0  0  0  0  0  0  0  0  0
  1 18  1  0  0  0  0
  2 16  1  0  0  0  0
  3  7  1  0  0  0  0
  4  8  1  0  0  0  0
  5  7  1  0  0  0  0
  5  2  1  0  0  0  0
  6  4  1  0  0  0  0
  6  2  1  0  0  0  0
  7 19  1  0  0  0  0
  8 12  1  0  0  0  0
  9 17  1  0  0  0  0
  9  6  1  0  0  0  0
 10  1  1  0  0  0  0
 13  9  1  0  0  0  0
 13  1  1  0  0  0  0
 14 15  1  0  0  0  0
 15  3  1  0  0  0  0
 16 12  1  0  0  0  0
 16 11  1  0  0  0  0
 17  5  1  0  0  0  0
 18  4  1  0  0  0  0
 19 25  1  0  0  0  0
 19 23  1  0  0  0  0
 20  1  1  0  0  0  0
 21 22  1  0  0  0  0
 21 14  1  0  0  0  0
 21 15  1  0  0  0  0
 22 17  1  0  0  0  0
 23 11  1  0  0  0  0
 24 30  1  0  0  0  0
 24 25  1  0  0  0  0
 25 26  1  0  0  0  0
 26 29  1  0  0  0  0
 28 29  1  0  0  0  0
 29 27  2  0  0  0  0
 30 28  1  0  0  0  0
 31 22  1  0  0  0  0
 32 33  1  0  0  0  0
 32 31  1  0  0  0  0
 33 31  1  0  0  0  0
 35 34  2  0  0  0  0
 35 32  1  0  0  0  0
 36 37  1  0  0  0  0
 36 33  1  0  0  0  0
M  END
>  <MODEL>
2

>  <REMARK>
 VINA RESULT:      -9.0      3.469      6.947
  Name = 
  3 active torsions:
  status: ('A' for Active; 'I' for Inactive)
    1  A    between atoms: C_1  and  C_27
    2  A    between atoms: C_8  and  C_12
    3  A    between atoms: C_23  and  C_30
                            x       y       z     vdW  Elec       q    Type
                         _______ _______ _______ _____ _____    ______ ____

>  <TORSDO>
F 3

$$$$
=
 OpenBabel11122411463D

 37 44  0  0  1  0  0  0  0  0999 V2000
  190.2870  176.4750  138.3400 C   0  0  0  0  0  0  0  0  0  0  0  0
  187.0910  178.3090  137.6170 C   0  0  1  0  0  3  0  0  0  0  0  0
  185.3650  179.5150  140.1690 O   0  0  0  0  0  0  0  0  0  0  0  0
  189.4850  177.8610  136.6950 C   0  0  2  0  0  3  0  0  0  0  0  0
  186.7180  177.9040  139.0420 C   0  0  2  0  0  3  0  0  0  0  0  0
  188.5970  178.5710  137.7240 C   0  0  2  0  0  3  0  0  0  0  0  0
  185.3060  178.2940  139.4810 C   0  0  2  0  0  3  0  0  0  0  0  0
  188.8280  177.9400  135.3270 C   0  0  0  0  0  2  0  0  0  0  0  0
  188.9710  178.2090  139.1600 C   0  0  2  0  0  3  0  0  0  0  0  0
  191.4150  177.2820  138.4580 F   0  0  0  0  0  0  0  0  0  0  0  0
  185.2090  177.2370  136.3080 C   0  0  0  0  0  2  0  0  0  0  0  0
  187.4560  177.2570  135.2890 C   0  0  0  0  0  2  0  0  0  0  0  0
  189.2960  176.8320  139.2790 O   0  0  0  0  0  0  0  0  0  0  0  0
  185.3900  177.9770  142.0160 O   0  0  0  0  0  0  0  0  0  0  0  0
  185.3540  179.3210  141.5800 C   0  0  1  0  0  3  0  0  0  0  0  0
  186.7030  177.1940  136.6280 C   0  0  1  0  0  3  0  0  0  0  0  0
  187.7400  178.4990  139.9060 N   0  0  2  0  0  0  0  0  0  0  0  0
  189.7480  176.5190  137.0360 O   0  0  0  0  0  0  0  0  0  0  0  0
  184.2500  178.3080  138.3580 C   0  0  1  0  0  3  0  0  0  0  0  0
  190.6740  175.1750  138.6000 F   0  0  0  0  0  0  0  0  0  0  0  0
  186.6040  178.6870  142.1380 C   0  0  2  0  0  3  0  0  0  0  0  0
  187.6590  177.9470  141.2750 C   0  0  2  0  0  3  0  0  0  0  0  0
  184.3190  177.0300  137.5260 C   0  0  0  0  0  2  0  0  0  0  0  0
  182.4670  177.4550  139.9320 C   0  0  0  0  0  2  0  0  0  0  0  0
  182.8220  178.5010  138.8790 C   0  0  2  0  0  3  0  0  0  0  0  0
  181.7810  178.5420  137.7530 C   0  0  0  0  0  2  0  0  0  0  0  0
  179.4260  178.8550  137.5340 O   0  0  0  0  0  0  0  0  0  0  0  0
  180.1020  178.0130  139.5950 N   0  0  0  0  0  2  0  0  0  0  0  0
  180.3780  178.5150  138.2830 C   0  0  0  0  0  0  0  0  0  0  0  0
  181.1530  177.8460  140.5940 C   0  0  0  0  0  2  0  0  0  0  0  0
  188.9990  178.0490  142.0190 C   0  0  1  0  0  3  0  0  0  0  0  0
  188.9450  177.2650  143.2950 N   0  0  0  0  0  0  0  0  0  0  0  0
  189.6360  176.8240  142.0520 C   0  0  2  0  0  3  0  0  0  0  0  0
  187.8660  177.9860  145.2570 N   0  0  0  0  0  2  0  0  0  0  0  0
  188.5530  177.0780  144.6500 C   0  0  0  0  0  3  0  0  0  0  0  0
  191.1290  177.0140  142.2190 C   0  0  0  0  0  2  0  0  0  0  0  0
  191.6130  177.7950  141.1870 F   0  0  0  0  0  0  0  0  0  0  0  0
  1 10  1  0  0  0  0
  1 20  1  0  0  0  0
  1 13  1  0  0  0  0
  2  6  1  0  0  0  0
  2  5  1  0  0  0  0
  3 15  1  0  0  0  0
  4 18  1  0  0  0  0
  4  6  1  0  0  0  0
  5  7  1  0  0  0  0
  5 17  1  0  0  0  0
  6  9  1  0  0  0  0
  7  3  1  0  0  0  0
  8  4  1  0  0  0  0
  9 13  1  0  0  0  0
  9 17  1  0  0  0  0
 11 16  1  0  0  0  0
 11 23  1  0  0  0  0
 12  8  1  0  0  0  0
 12 16  1  0  0  0  0
 14 21  1  0  0  0  0
 15 14  1  0  0  0  0
 15 21  1  0  0  0  0
 16  2  1  0  0  0  0
 17 22  1  0  0  0  0
 18  1  1  0  0  0  0
 19 25  1  0  0  0  0
 19  7  1  0  0  0  0
 22 31  1  0  0  0  0
 22 21  1  0  0  0  0
 23 19  1  0  0  0  0
 24 30  1  0  0  0  0
 25 24  1  0  0  0  0
 26 29  1  0  0  0  0
 26 25  1  0  0  0  0
 27 29  2  0  0  0  0
 28 30  1  0  0  0  0
 29 28  1  0  0  0  0
 31 33  1  0  0  0  0
 31 32  1  0  0  0  0
 32 35  1  0  0  0  0
 33 36  1  0  0  0  0
 33 32  1  0  0  0  0
 35 34  2  0  0  0  0
 37 36  1  0  0  0  0
M  END
>  <MODEL>
3

>  <REMARK>
 VINA RESULT:      -8.5      4.598      7.708
  Name = 
  3 active torsions:
  status: ('A' for Active; 'I' for Inactive)
    1  A    between atoms: C_1  and  C_27
    2  A    between atoms: C_8  and  C_12
    3  A    between atoms: C_23  and  C_30
                            x       y       z     vdW  Elec       q    Type
                         _______ _______ _______ _____ _____    ______ ____

>  <TORSDO>
F 3

$$$$
=
 OpenBabel11122411463D

 37 44  0  0  1  0  0  0  0  0999 V2000
  190.0630  178.0720  143.8560 C   0  0  0  0  0  0  0  0  0  0  0  0
  186.3530  177.5890  144.1780 C   0  0  1  0  0  3  0  0  0  0  0  0
  184.5370  177.5130  141.4140 O   0  0  0  0  0  0  0  0  0  0  0  0
  188.6370  176.9200  145.2380 C   0  0  2  0  0  3  0  0  0  0  0  0
  186.3010  178.2900  142.8230 C   0  0  2  0  0  3  0  0  0  0  0  0
  187.6410  176.7640  144.0820 C   0  0  2  0  0  3  0  0  0  0  0  0
  184.8950  178.5570  142.2820 C   0  0  2  0  0  3  0  0  0  0  0  0
  187.8780  176.9340  146.5540 C   0  0  0  0  0  2  0  0  0  0  0  0
  188.2570  177.1290  142.7330 C   0  0  2  0  0  3  0  0  0  0  0  0
  190.7940  176.9040  143.6510 F   0  0  0  0  0  0  0  0  0  0  0  0
  184.9260  179.1440  145.5760 C   0  0  0  0  0  2  0  0  0  0  0  0
  186.8840  178.0960  146.6520 C   0  0  0  0  0  2  0  0  0  0  0  0
  189.1030  178.2640  142.8400 O   0  0  0  0  0  0  0  0  0  0  0  0
  185.3300  179.1390  139.8310 O   0  0  0  0  0  0  0  0  0  0  0  0
  184.7320  177.8780  140.0510 C   0  0  1  0  0  3  0  0  0  0  0  0
  186.3410  178.6280  145.3160 C   0  0  1  0  0  3  0  0  0  0  0  0
  187.0850  177.4540  141.9100 N   0  0  2  0  0  0  0  0  0  0  0  0
  189.4320  178.0780  145.1180 O   0  0  0  0  0  0  0  0  0  0  0  0
  183.8190  178.8190  143.3530 C   0  0  1  0  0  3  0  0  0  0  0  0
  190.9480  179.1310  143.8140 F   0  0  0  0  0  0  0  0  0  0  0  0
  186.1760  178.0260  139.6400 C   0  0  2  0  0  3  0  0  0  0  0  0
  187.3520  178.1650  140.6420 C   0  0  2  0  0  3  0  0  0  0  0  0
  184.3030  179.8440  144.3750 C   0  0  0  0  0  2  0  0  0  0  0  0
  181.3380  179.0820  143.7490 C   0  0  0  0  0  2  0  0  0  0  0  0
  182.4830  179.2820  142.7620 C   0  0  2  0  0  3  0  0  0  0  0  0
  182.1770  178.6300  141.4060 C   0  0  0  0  0  2  0  0  0  0  0  0
  180.4770  178.7380  139.7380 O   0  0  0  0  0  0  0  0  0  0  0  0
  179.7690  179.3140  141.8780 N   0  0  0  0  0  2  0  0  0  0  0  0
  180.7820  178.9230  140.9440 C   0  0  0  0  0  0  0  0  0  0  0  0
  180.0980  179.7880  143.2190 C   0  0  0  0  0  2  0  0  0  0  0  0
  188.6080  177.6340  139.9360 C   0  0  1  0  0  3  0  0  0  0  0  0
  189.1060  178.6360  138.9390 N   0  0  0  0  0  0  0  0  0  0  0  0
  189.7160  178.3870  140.2740 C   0  0  2  0  0  3  0  0  0  0  0  0
  188.1430  179.0030  136.8250 N   0  0  0  0  0  2  0  0  0  0  0  0
  189.0550  179.3080  137.6860 C   0  0  0  0  0  3  0  0  0  0  0  0
  190.9780  177.5690  140.0990 C   0  0  0  0  0  2  0  0  0  0  0  0
  191.8720  177.8780  141.1060 F   0  0  0  0  0  0  0  0  0  0  0  0
  1 18  1  0  0  0  0
  2 16  1  0  0  0  0
  3  7  1  0  0  0  0
  4  8  1  0  0  0  0
  5  2  1  0  0  0  0
  6  2  1  0  0  0  0
  6  4  1  0  0  0  0
  7  5  1  0  0  0  0
  7 19  1  0  0  0  0
  8 12  1  0  0  0  0
  9 13  1  0  0  0  0
  9  6  1  0  0  0  0
 10  1  1  0  0  0  0
 13  1  1  0  0  0  0
 14 15  1  0  0  0  0
 15  3  1  0  0  0  0
 16 11  1  0  0  0  0
 16 12  1  0  0  0  0
 17  9  1  0  0  0  0
 17  5  1  0  0  0  0
 18  4  1  0  0  0  0
 19 23  1  0  0  0  0
 20  1  1  0  0  0  0
 21 14  1  0  0  0  0
 21 15  1  0  0  0  0
 21 22  1  0  0  0  0
 22 17  1  0  0  0  0
 23 11  1  0  0  0  0
 25 19  1  0  0  0  0
 25 24  1  0  0  0  0
 26 25  1  0  0  0  0
 27 29  2  0  0  0  0
 28 30  1  0  0  0  0
 29 26  1  0  0  0  0
 29 28  1  0  0  0  0
 30 24  1  0  0  0  0
 31 33  1  0  0  0  0
 31 22  1  0  0  0  0
 32 31  1  0  0  0  0
 32 33  1  0  0  0  0
 34 35  2  0  0  0  0
 35 32  1  0  0  0  0
 36 33  1  0  0  0  0
 36 37  1  0  0  0  0
M  END
>  <MODEL>
4

>  <REMARK>
 VINA RESULT:      -8.2      3.560      7.535
  Name = 
  3 active torsions:
  status: ('A' for Active; 'I' for Inactive)
    1  A    between atoms: C_1  and  C_27
    2  A    between atoms: C_8  and  C_12
    3  A    between atoms: C_23  and  C_30
                            x       y       z     vdW  Elec       q    Type
                         _______ _______ _______ _____ _____    ______ ____

>  <TORSDO>
F 3

$$$$
=
 OpenBabel11122411463D

 37 44  0  0  1  0  0  0  0  0999 V2000
  183.4270  177.2640  137.1000 C   0  0  0  0  0  0  0  0  0  0  0  0
  184.0270  179.2070  140.2570 C   0  0  1  0  0  3  0  0  0  0  0  0
  187.1250  179.4270  141.3960 O   0  0  0  0  0  0  0  0  0  0  0  0
  182.5550  179.1320  138.1090 C   0  0  2  0  0  3  0  0  0  0  0  0
  185.2680  178.3250  140.3790 C   0  0  2  0  0  3  0  0  0  0  0  0
  183.9190  179.4280  138.7440 C   0  0  2  0  0  3  0  0  0  0  0  0
  186.0840  178.5240  141.6580 C   0  0  2  0  0  3  0  0  0  0  0  0
  181.4560  179.6800  139.0060 C   0  0  0  0  0  2  0  0  0  0  0  0
  185.0380  178.5890  138.1300 C   0  0  2  0  0  3  0  0  0  0  0  0
  183.5920  177.9880  135.9220 F   0  0  0  0  0  0  0  0  0  0  0  0
  182.8270  178.6450  142.4130 C   0  0  0  0  0  2  0  0  0  0  0  0
  181.4560  179.0410  140.3990 C   0  0  0  0  0  2  0  0  0  0  0  0
  184.6080  177.2610  137.8720 O   0  0  0  0  0  0  0  0  0  0  0  0
  188.2840  177.3390  141.1180 O   0  0  0  0  0  0  0  0  0  0  0  0
  188.3550  178.7500  141.1540 C   0  0  1  0  0  3  0  0  0  0  0  0
  182.8110  178.5060  140.8900 C   0  0  1  0  0  3  0  0  0  0  0  0
  186.0660  178.5880  139.1790 N   0  0  2  0  0  0  0  0  0  0  0  0
  182.3520  177.7580  137.8700 O   0  0  0  0  0  0  0  0  0  0  0  0
  185.2670  178.9210  142.9020 C   0  0  1  0  0  3  0  0  0  0  0  0
  183.1410  175.9590  136.7510 F   0  0  0  0  0  0  0  0  0  0  0  0
  188.4020  177.9720  139.8630 C   0  0  2  0  0  3  0  0  0  0  0  0
  187.1470  177.5910  139.0350 C   0  0  2  0  0  3  0  0  0  0  0  0
  184.0490  178.0170  143.0690 C   0  0  0  0  0  2  0  0  0  0  0  0
  186.8060  177.5710  144.3830 C   0  0  0  0  0  2  0  0  0  0  0  0
  186.0930  178.9070  144.1930 C   0  0  2  0  0  3  0  0  0  0  0  0
  185.2670  179.2850  145.4300 C   0  0  0  0  0  2  0  0  0  0  0  0
  185.6280  179.6030  147.7660 O   0  0  0  0  0  0  0  0  0  0  0  0
  187.1370  178.1580  146.7410 N   0  0  0  0  0  2  0  0  0  0  0  0
  186.0260  179.0610  146.7030 C   0  0  0  0  0  0  0  0  0  0  0  0
  187.8030  177.7010  145.5260 C   0  0  0  0  0  2  0  0  0  0  0  0
  187.6010  177.4370  137.5760 C   0  0  1  0  0  3  0  0  0  0  0  0
  188.6620  176.3850  137.4710 N   0  0  0  0  0  0  0  0  0  0  0  0
  187.2380  176.2010  137.0770 C   0  0  2  0  0  3  0  0  0  0  0  0
  190.9130  176.6970  138.0770 N   0  0  0  0  0  2  0  0  0  0  0  0
  189.9970  175.9130  137.6170 C   0  0  0  0  0  3  0  0  0  0  0  0
  187.1280  176.2580  135.5680 C   0  0  0  0  0  2  0  0  0  0  0  0
  186.3620  177.3470  135.2010 F   0  0  0  0  0  0  0  0  0  0  0  0
  1 18  1  0  0  0  0
  1 13  1  0  0  0  0
  2  5  1  0  0  0  0
  2 16  1  0  0  0  0
  3  7  1  0  0  0  0
  4  6  1  0  0  0  0
  4  8  1  0  0  0  0
  5  7  1  0  0  0  0
  6  2  1  0  0  0  0
  7 19  1  0  0  0  0
  8 12  1  0  0  0  0
  9  6  1  0  0  0  0
  9 17  1  0  0  0  0
 10  1  1  0  0  0  0
 11 23  1  0  0  0  0
 12 16  1  0  0  0  0
 13  9  1  0  0  0  0
 14 15  1  0  0  0  0
 15  3  1  0  0  0  0
 16 11  1  0  0  0  0
 17  5  1  0  0  0  0
 18  4  1  0  0  0  0
 19 23  1  0  0  0  0
 19 25  1  0  0  0  0
 20  1  1  0  0  0  0
 21 14  1  0  0  0  0
 21 15  1  0  0  0  0
 22 17  1  0  0  0  0
 22 21  1  0  0  0  0
 24 30  1  0  0  0  0
 25 24  1  0  0  0  0
 25 26  1  0  0  0  0
 26 29  1  0  0  0  0
 29 28  1  0  0  0  0
 29 27  2  0  0  0  0
 30 28  1  0  0  0  0
 31 22  1  0  0  0  0
 32 31  1  0  0  0  0
 32 35  1  0  0  0  0
 33 32  1  0  0  0  0
 33 31  1  0  0  0  0
 35 34  2  0  0  0  0
 36 33  1  0  0  0  0
 37 36  1  0  0  0  0
M  END
>  <MODEL>
5

>  <REMARK>
 VINA RESULT:      -8.1      4.499      8.174
  Name = 
  3 active torsions:
  status: ('A' for Active; 'I' for Inactive)
    1  A    between atoms: C_1  and  C_27
    2  A    between atoms: C_8  and  C_12
    3  A    between atoms: C_23  and  C_30
                            x       y       z     vdW  Elec       q    Type
                         _______ _______ _______ _____ _____    ______ ____

>  <TORSDO>
F 3

$$$$
=
 OpenBabel11122411463D

 37 44  0  0  1  0  0  0  0  0999 V2000
  185.9820  177.0710  137.8720 C   0  0  0  0  0  0  0  0  0  0  0  0
  186.6780  178.6460  141.2090 C   0  0  1  0  0  3  0  0  0  0  0  0
  189.8020  178.6950  142.2980 O   0  0  0  0  0  0  0  0  0  0  0  0
  185.1610  178.8290  139.1000 C   0  0  2  0  0  3  0  0  0  0  0  0
  187.9060  177.7380  141.2070 C   0  0  2  0  0  3  0  0  0  0  0  0
  186.5430  179.0340  139.7330 C   0  0  2  0  0  3  0  0  0  0  0  0
  188.7510  177.7840  142.4820 C   0  0  2  0  0  3  0  0  0  0  0  0
  184.0900  179.2910  140.0750 C   0  0  0  0  0  2  0  0  0  0  0  0
  187.6350  178.2520  139.0060 C   0  0  2  0  0  3  0  0  0  0  0  0
  186.1350  177.9180  136.7780 F   0  0  0  0  0  0  0  0  0  0  0  0
  185.5120  177.8680  143.3170 C   0  0  0  0  0  2  0  0  0  0  0  0
  184.1080  178.5030  141.3900 C   0  0  0  0  0  2  0  0  0  0  0  0
  187.1780  176.9660  138.6140 O   0  0  0  0  0  0  0  0  0  0  0  0
  190.9200  176.6340  141.7670 O   0  0  0  0  0  0  0  0  0  0  0  0
  191.0150  178.0310  141.9560 C   0  0  1  0  0  3  0  0  0  0  0  0
  185.4630  177.8980  141.7890 C   0  0  1  0  0  3  0  0  0  0  0  0
  188.6840  178.1210  140.0260 N   0  0  2  0  0  0  0  0  0  0  0  0
  184.9310  177.4930  138.7160 O   0  0  0  0  0  0  0  0  0  0  0  0
  187.9660  178.0540  143.7800 C   0  0  1  0  0  3  0  0  0  0  0  0
  185.6660  175.8170  137.3890 F   0  0  0  0  0  0  0  0  0  0  0  0
  191.0220  177.3990  140.5860 C   0  0  2  0  0  3  0  0  0  0  0  0
  189.7450  177.1290  139.7500 C   0  0  2  0  0  3  0  0  0  0  0  0
  186.7370  177.1540  143.8730 C   0  0  0  0  0  2  0  0  0  0  0  0
  189.7860  176.7140  144.9100 C   0  0  0  0  0  2  0  0  0  0  0  0
  188.8180  177.8860  145.0420 C   0  0  2  0  0  3  0  0  0  0  0  0
  187.9710  177.7740  146.3180 C   0  0  0  0  0  2  0  0  0  0  0  0
  188.3340  177.5690  148.6660 O   0  0  0  0  0  0  0  0  0  0  0  0
  190.0670  176.7540  147.3460 N   0  0  0  0  0  2  0  0  0  0  0  0
  188.7990  177.3970  147.5100 C   0  0  0  0  0  0  0  0  0  0  0  0
  190.7720  176.7530  146.0680 C   0  0  0  0  0  2  0  0  0  0  0  0
  190.1660  177.1310  138.2730 C   0  0  1  0  0  3  0  0  0  0  0  0
  191.3380  176.2200  138.0670 N   0  0  0  0  0  0  0  0  0  0  0  0
  189.9330  175.8980  137.6950 C   0  0  2  0  0  3  0  0  0  0  0  0
  193.5560  176.7530  138.6410 N   0  0  0  0  0  2  0  0  0  0  0  0
  192.7230  175.9000  138.1470 C   0  0  0  0  0  3  0  0  0  0  0  0
  189.7690  176.0450  136.1970 C   0  0  0  0  0  2  0  0  0  0  0  0
  188.9700  177.1380  135.9250 F   0  0  0  0  0  0  0  0  0  0  0  0
  1 13  1  0  0  0  0
  1 18  1  0  0  0  0
  2 16  1  0  0  0  0
  3  7  1  0  0  0  0
  4  6  1  0  0  0  0
  4  8  1  0  0  0  0
  5  2  1  0  0  0  0
  5  7  1  0  0  0  0
  6  2  1  0  0  0  0
  7 19  1  0  0  0  0
  8 12  1  0  0  0  0
  9  6  1  0  0  0  0
  9 17  1  0  0  0  0
 10  1  1  0  0  0  0
 11 23  1  0  0  0  0
 12 16  1  0  0  0  0
 13  9  1  0  0  0  0
 14 15  1  0  0  0  0
 15  3  1  0  0  0  0
 16 11  1  0  0  0  0
 17  5  1  0  0  0  0
 18  4  1  0  0  0  0
 19 23  1  0  0  0  0
 19 25  1  0  0  0  0
 20  1  1  0  0  0  0
 21 14  1  0  0  0  0
 21 15  1  0  0  0  0
 22 17  1  0  0  0  0
 22 21  1  0  0  0  0
 24 25  1  0  0  0  0
 24 30  1  0  0  0  0
 25 26  1  0  0  0  0
 26 29  1  0  0  0  0
 28 29  1  0  0  0  0
 29 27  2  0  0  0  0
 30 28  1  0  0  0  0
 31 22  1  0  0  0  0
 32 35  1  0  0  0  0
 32 31  1  0  0  0  0
 33 32  1  0  0  0  0
 33 31  1  0  0  0  0
 35 34  2  0  0  0  0
 36 33  1  0  0  0  0
 37 36  1  0  0  0  0
M  END
>  <MODEL>
6

>  <REMARK>
 VINA RESULT:      -8.1      3.657      7.223
  Name = 
  3 active torsions:
  status: ('A' for Active; 'I' for Inactive)
    1  A    between atoms: C_1  and  C_27
    2  A    between atoms: C_8  and  C_12
    3  A    between atoms: C_23  and  C_30
                            x       y       z     vdW  Elec       q    Type
                         _______ _______ _______ _____ _____    ______ ____

>  <TORSDO>
F 3

$$$$
=
 OpenBabel11122411463D

 37 44  0  0  1  0  0  0  0  0999 V2000
  189.9480  176.7990  141.5140 C   0  0  0  0  0  0  0  0  0  0  0  0
  187.5250  178.1770  138.9970 C   0  0  1  0  0  3  0  0  0  0  0  0
  184.6680  179.4310  140.0960 O   0  0  0  0  0  0  0  0  0  0  0  0
  190.0650  177.9130  139.5100 C   0  0  2  0  0  3  0  0  0  0  0  0
  186.4810  177.8770  140.0700 C   0  0  2  0  0  3  0  0  0  0  0  0
  188.7400  178.6180  139.8220 C   0  0  2  0  0  3  0  0  0  0  0  0
  185.0320  178.1470  139.6600 C   0  0  2  0  0  3  0  0  0  0  0  0
  190.2190  177.7790  138.0040 C   0  0  0  0  0  2  0  0  0  0  0  0
  188.3220  178.4470  141.2820 C   0  0  2  0  0  3  0  0  0  0  0  0
  190.8100  177.7370  142.0760 F   0  0  0  0  0  0  0  0  0  0  0  0
  186.6570  176.7720  137.0790 C   0  0  0  0  0  2  0  0  0  0  0  0
  189.1020  176.9450  137.3670 C   0  0  0  0  0  2  0  0  0  0  0  0
  188.5980  177.1350  141.7490 O   0  0  0  0  0  0  0  0  0  0  0  0
  183.7910  178.0990  141.8950 O   0  0  0  0  0  0  0  0  0  0  0  0
  183.9280  179.3790  141.3120 C   0  0  1  0  0  3  0  0  0  0  0  0
  187.7630  176.9310  138.1230 C   0  0  1  0  0  3  0  0  0  0  0  0
  186.8710  178.6690  141.2400 N   0  0  2  0  0  0  0  0  0  0  0  0
  190.1700  176.6500  140.1280 O   0  0  0  0  0  0  0  0  0  0  0  0
  184.7210  177.9290  138.1670 C   0  0  1  0  0  3  0  0  0  0  0  0
  190.1990  175.5840  142.1210 F   0  0  0  0  0  0  0  0  0  0  0  0
  184.7280  178.9500  142.5180 C   0  0  2  0  0  3  0  0  0  0  0  0
  186.1100  178.2520  142.4360 C   0  0  2  0  0  3  0  0  0  0  0  0
  185.2710  176.5900  137.6840 C   0  0  0  0  0  2  0  0  0  0  0  0
  182.4030  177.1480  138.8020 C   0  0  0  0  0  2  0  0  0  0  0  0
  183.2240  178.0100  137.8470 C   0  0  2  0  0  3  0  0  0  0  0  0
  182.9130  177.6800  136.3810 C   0  0  0  0  0  2  0  0  0  0  0  0
  181.0020  177.6000  134.9560 O   0  0  0  0  0  0  0  0  0  0  0  0
  180.5380  177.2810  137.2140 N   0  0  0  0  0  2  0  0  0  0  0  0
  181.4390  177.5540  136.1350 C   0  0  0  0  0  0  0  0  0  0  0  0
  180.9270  177.4650  138.6080 C   0  0  0  0  0  2  0  0  0  0  0  0
  186.8560  178.5790  143.7380 C   0  0  1  0  0  3  0  0  0  0  0  0
  186.1100  178.0300  144.9160 N   0  0  0  0  0  0  0  0  0  0  0  0
  187.3390  177.4280  144.3290 C   0  0  2  0  0  3  0  0  0  0  0  0
  184.1810  179.0040  145.8440 N   0  0  0  0  0  2  0  0  0  0  0  0
  185.0550  178.0550  145.8710 C   0  0  0  0  0  3  0  0  0  0  0  0
  188.5230  177.7520  145.2160 C   0  0  0  0  0  2  0  0  0  0  0  0
  189.4780  176.7620  145.0920 F   0  0  0  0  0  0  0  0  0  0  0  0
  1 13  1  0  0  0  0
  1 10  1  0  0  0  0
  1 20  1  0  0  0  0
  2  6  1  0  0  0  0
  2  5  1  0  0  0  0
  3 15  1  0  0  0  0
  4  6  1  0  0  0  0
  4 18  1  0  0  0  0
  5 17  1  0  0  0  0
  6  9  1  0  0  0  0
  7  5  1  0  0  0  0
  7  3  1  0  0  0  0
  8  4  1  0  0  0  0
  9 13  1  0  0  0  0
 11 23  1  0  0  0  0
 11 16  1  0  0  0  0
 12  8  1  0  0  0  0
 12 16  1  0  0  0  0
 14 21  1  0  0  0  0
 15 14  1  0  0  0  0
 15 21  1  0  0  0  0
 16  2  1  0  0  0  0
 17  9  1  0  0  0  0
 17 22  1  0  0  0  0
 18  1  1  0  0  0  0
 19  7  1  0  0  0  0
 22 21  1  0  0  0  0
 22 31  1  0  0  0  0
 23 19  1  0  0  0  0
 25 19  1  0  0  0  0
 25 24  1  0  0  0  0
 26 25  1  0  0  0  0
 27 29  2  0  0  0  0
 28 30  1  0  0  0  0
 29 26  1  0  0  0  0
 29 28  1  0  0  0  0
 30 24  1  0  0  0  0
 31 33  1  0  0  0  0
 31 32  1  0  0  0  0
 32 35  1  0  0  0  0
 33 32  1  0  0  0  0
 33 36  1  0  0  0  0
 34 35  2  0  0  0  0
 37 36  1  0  0  0  0
M  END
>  <MODEL>
7

>  <REMARK>
 VINA RESULT:      -7.5      4.252      6.931
  Name = 
  3 active torsions:
  status: ('A' for Active; 'I' for Inactive)
    1  A    between atoms: C_1  and  C_27
    2  A    between atoms: C_8  and  C_12
    3  A    between atoms: C_23  and  C_30
                            x       y       z     vdW  Elec       q    Type
                         _______ _______ _______ _____ _____    ______ ____

>  <TORSDO>
F 3

$$$$
=
 OpenBabel11122411463D

 37 44  0  0  1  0  0  0  0  0999 V2000
  188.7460  179.0070  137.6400 C   0  0  0  0  0  0  0  0  0  0  0  0
  188.8060  177.0760  140.8600 C   0  0  1  0  0  3  0  0  0  0  0  0
  186.1070  177.1320  142.7720 O   0  0  0  0  0  0  0  0  0  0  0  0
  189.6670  177.0470  138.4020 C   0  0  2  0  0  3  0  0  0  0  0  0
  187.7320  178.0700  141.2960 C   0  0  2  0  0  3  0  0  0  0  0  0
  188.4940  176.8710  139.3730 C   0  0  2  0  0  3  0  0  0  0  0  0
  187.2630  177.9270  142.7450 C   0  0  2  0  0  3  0  0  0  0  0  0
  190.9040  176.3820  138.9840 C   0  0  0  0  0  2  0  0  0  0  0  0
  187.3390  177.8230  139.0670 C   0  0  2  0  0  3  0  0  0  0  0  0
  188.2100  178.3220  136.5530 F   0  0  0  0  0  0  0  0  0  0  0  0
  190.5770  177.4830  142.6220 C   0  0  0  0  0  2  0  0  0  0  0  0
  191.3290  176.9930  140.3230 C   0  0  0  0  0  2  0  0  0  0  0  0
  187.8140  179.1090  138.6950 O   0  0  0  0  0  0  0  0  0  0  0  0
  185.1240  179.3250  142.7910 O   0  0  0  0  0  0  0  0  0  0  0  0
  184.9290  177.9270  142.8550 C   0  0  1  0  0  3  0  0  0  0  0  0
  190.2080  177.6460  141.1480 C   0  0  1  0  0  3  0  0  0  0  0  0
  186.6270  177.9040  140.3480 N   0  0  2  0  0  0  0  0  0  0  0  0
  189.9310  178.4000  138.1060 O   0  0  0  0  0  0  0  0  0  0  0  0
  188.3350  177.4320  143.7350 C   0  0  1  0  0  3  0  0  0  0  0  0
  189.0560  180.2850  137.2180 F   0  0  0  0  0  0  0  0  0  0  0  0
  184.6220  178.7290  141.6150 C   0  0  2  0  0  3  0  0  0  0  0  0
  185.6470  179.0030  140.4850 C   0  0  2  0  0  3  0  0  0  0  0  0
  189.6360  178.2130  143.5700 C   0  0  0  0  0  2  0  0  0  0  0  0
  186.7980  178.5610  145.3940 C   0  0  0  0  0  2  0  0  0  0  0  0
  187.8800  177.5030  145.1970 C   0  0  2  0  0  3  0  0  0  0  0  0
  189.0480  177.7050  146.1720 C   0  0  0  0  0  2  0  0  0  0  0  0
  189.3740  177.8640  148.5290 O   0  0  0  0  0  0  0  0  0  0  0  0
  187.2530  178.4850  147.8020 N   0  0  0  0  0  2  0  0  0  0  0  0
  188.5740  177.9850  147.5660 C   0  0  0  0  0  0  0  0  0  0  0  0
  186.2070  178.4100  146.7880 C   0  0  0  0  0  2  0  0  0  0  0  0
  184.8450  179.2240  139.1940 C   0  0  1  0  0  3  0  0  0  0  0  0
  183.9420  178.0560  138.9380 N   0  0  0  0  0  0  0  0  0  0  0  0
  183.5000  179.3740  139.4720 C   0  0  2  0  0  3  0  0  0  0  0  0
  184.6520  175.9870  138.0730 N   0  0  0  0  0  2  0  0  0  0  0  0
  183.6860  176.7240  138.5090 C   0  0  0  0  0  3  0  0  0  0  0  0
  182.8210  180.1560  138.3680 C   0  0  0  0  0  2  0  0  0  0  0  0
  182.7580  181.4900  138.7180 F   0  0  0  0  0  0  0  0  0  0  0  0
  1 18  1  0  0  0  0
  1 13  1  0  0  0  0
  2 16  1  0  0  0  0
  2  5  1  0  0  0  0
  3 15  1  0  0  0  0
  4  8  1  0  0  0  0
  4  6  1  0  0  0  0
  5  7  1  0  0  0  0
  6  2  1  0  0  0  0
  7  3  1  0  0  0  0
  7 19  1  0  0  0  0
  8 12  1  0  0  0  0
  9  6  1  0  0  0  0
  9 17  1  0  0  0  0
 10  1  1  0  0  0  0
 11 23  1  0  0  0  0
 12 16  1  0  0  0  0
 13  9  1  0  0  0  0
 14 15  1  0  0  0  0
 16 11  1  0  0  0  0
 17 22  1  0  0  0  0
 17  5  1  0  0  0  0
 18  4  1  0  0  0  0
 19 25  1  0  0  0  0
 20  1  1  0  0  0  0
 21 14  1  0  0  0  0
 21 15  1  0  0  0  0
 22 21  1  0  0  0  0
 23 19  1  0  0  0  0
 24 30  1  0  0  0  0
 25 24  1  0  0  0  0
 25 26  1  0  0  0  0
 26 29  1  0  0  0  0
 29 28  1  0  0  0  0
 29 27  2  0  0  0  0
 30 28  1  0  0  0  0
 31 33  1  0  0  0  0
 31 22  1  0  0  0  0
 32 31  1  0  0  0  0
 32 33  1  0  0  0  0
 34 35  2  0  0  0  0
 35 32  1  0  0  0  0
 36 37  1  0  0  0  0
 36 33  1  0  0  0  0
M  END
>  <MODEL>
8

>  <REMARK>
 VINA RESULT:      -7.3      3.921      8.171
  Name = 
  3 active torsions:
  status: ('A' for Active; 'I' for Inactive)
    1  A    between atoms: C_1  and  C_27
    2  A    between atoms: C_8  and  C_12
    3  A    between atoms: C_23  and  C_30
                            x       y       z     vdW  Elec       q    Type
                         _______ _______ _______ _____ _____    ______ ____

>  <TORSDO>
F 3

$$$$
=
 OpenBabel11122411463D

 37 44  0  0  1  0  0  0  0  0999 V2000
  190.8120  175.6980  138.2130 C   0  0  0  0  0  0  0  0  0  0  0  0
  188.0560  178.2480  138.2230 C   0  0  1  0  0  3  0  0  0  0  0  0
  186.9070  179.3020  141.1410 O   0  0  0  0  0  0  0  0  0  0  0  0
  190.1850  177.4920  136.9270 C   0  0  2  0  0  3  0  0  0  0  0  0
  187.7440  177.6770  139.6050 C   0  0  2  0  0  3  0  0  0  0  0  0
  189.5860  178.1720  138.1640 C   0  0  2  0  0  3  0  0  0  0  0  0
  186.5060  178.2630  140.2860 C   0  0  2  0  0  3  0  0  0  0  0  0
  189.4300  177.9500  135.6890 C   0  0  0  0  0  2  0  0  0  0  0  0
  190.0080  177.4880  139.4630 C   0  0  2  0  0  3  0  0  0  0  0  0
  192.0990  176.2220  138.3000 F   0  0  0  0  0  0  0  0  0  0  0  0
  185.8610  177.8380  137.0310 C   0  0  0  0  0  2  0  0  0  0  0  0
  187.9430  177.5810  135.7320 C   0  0  0  0  0  2  0  0  0  0  0  0
  190.0260  176.0750  139.3220 O   0  0  0  0  0  0  0  0  0  0  0  0
  186.7680  177.4840  142.7070 O   0  0  0  0  0  0  0  0  0  0  0  0
  186.9910  178.8620  142.4930 C   0  0  1  0  0  3  0  0  0  0  0  0
  187.3310  177.4330  137.1350 C   0  0  1  0  0  3  0  0  0  0  0  0
  188.9540  177.8850  140.4050 N   0  0  2  0  0  0  0  0  0  0  0  0
  190.1710  176.0860  137.0170 O   0  0  0  0  0  0  0  0  0  0  0  0
  185.3760  178.6960  139.3330 C   0  0  1  0  0  3  0  0  0  0  0  0
  190.9210  174.3210  138.2140 F   0  0  0  0  0  0  0  0  0  0  0  0
  188.1160  177.8950  142.7710 C   0  0  2  0  0  3  0  0  0  0  0  0
  188.8860  177.1230  141.6700 C   0  0  2  0  0  3  0  0  0  0  0  0
  185.0720  177.6020  138.3120 C   0  0  0  0  0  2  0  0  0  0  0  0
  183.6980  178.0270  141.1010 C   0  0  0  0  0  2  0  0  0  0  0  0
  184.0860  179.0800  140.0660 C   0  0  2  0  0  3  0  0  0  0  0  0
  182.9260  179.3800  139.1080 C   0  0  0  0  0  2  0  0  0  0  0  0
  180.6550  180.0940  139.2520 O   0  0  0  0  0  0  0  0  0  0  0  0
  181.4440  178.9930  141.1430 N   0  0  0  0  0  2  0  0  0  0  0  0
  181.6250  179.5440  139.8340 C   0  0  0  0  0  0  0  0  0  0  0  0
  182.5740  178.5770  141.9680 C   0  0  0  0  0  2  0  0  0  0  0  0
  190.2810  176.8130  142.2320 C   0  0  1  0  0  3  0  0  0  0  0  0
  190.4690  177.4870  143.5570 N   0  0  0  0  0  0  0  0  0  0  0  0
  190.1900  176.0360  143.3710 C   0  0  2  0  0  3  0  0  0  0  0  0
  190.9310  179.7760  143.8330 N   0  0  0  0  0  2  0  0  0  0  0  0
  190.7250  178.6230  144.3740 C   0  0  0  0  0  3  0  0  0  0  0  0
  191.4690  175.2530  143.5750 C   0  0  0  0  0  2  0  0  0  0  0  0
  192.0410  175.6090  144.7810 F   0  0  0  0  0  0  0  0  0  0  0  0
  1 20  1  0  0  0  0
  1 10  1  0  0  0  0
  1 13  1  0  0  0  0
  2  5  1  0  0  0  0
  3 15  1  0  0  0  0
  4 18  1  0  0  0  0
  4  6  1  0  0  0  0
  5  7  1  0  0  0  0
  5 17  1  0  0  0  0
  6  2  1  0  0  0  0
  6  9  1  0  0  0  0
  7  3  1  0  0  0  0
  8 12  1  0  0  0  0
  8  4  1  0  0  0  0
  9 17  1  0  0  0  0
 11 16  1  0  0  0  0
 11 23  1  0  0  0  0
 12 16  1  0  0  0  0
 13  9  1  0  0  0  0
 14 21  1  0  0  0  0
 15 14  1  0  0  0  0
 15 21  1  0  0  0  0
 16  2  1  0  0  0  0
 17 22  1  0  0  0  0
 18  1  1  0  0  0  0
 19 25  1  0  0  0  0
 19  7  1  0  0  0  0
 22 31  1  0  0  0  0
 22 21  1  0  0  0  0
 23 19  1  0  0  0  0
 24 30  1  0  0  0  0
 25 24  1  0  0  0  0
 26 29  1  0  0  0  0
 26 25  1  0  0  0  0
 27 29  2  0  0  0  0
 28 30  1  0  0  0  0
 29 28  1  0  0  0  0
 31 33  1  0  0  0  0
 31 32  1  0  0  0  0
 32 35  1  0  0  0  0
 33 32  1  0  0  0  0
 33 36  1  0  0  0  0
 34 35  2  0  0  0  0
 36 37  1  0  0  0  0
M  END
>  <MODEL>
9

>  <REMARK>
 VINA RESULT:      -7.2      4.055      7.196
  Name = 
  3 active torsions:
  status: ('A' for Active; 'I' for Inactive)
    1  A    between atoms: C_1  and  C_27
    2  A    between atoms: C_8  and  C_12
    3  A    between atoms: C_23  and  C_30
                            x       y       z     vdW  Elec       q    Type
                         _______ _______ _______ _____ _____    ______ ____

>  <TORSDO>
F 3

$$$$
