=
 OpenBabel11122411363D

 37 42  0  0  1  0  0  0  0  0999 V2000
  187.2290  177.9540  143.2060 C   0  0  0  0  0  0  0  0  0  0  0  0
  183.2230  178.7060  142.4380 C   0  0  0  0  0  0  0  0  0  0  0  0
  181.6890  176.9050  140.0390 C   0  0  0  0  0  2  0  0  0  0  0  0
  184.9480  178.6340  144.1220 C   0  0  0  0  0  0  0  0  0  0  0  0
  183.2180  178.6490  141.0520 C   0  0  0  0  0  0  0  0  0  0  0  0
  184.0400  175.4250  137.6070 C   0  0  0  0  0  0  0  0  0  0  0  0
  184.5240  178.6830  142.8140 C   0  0  0  0  0  0  0  0  0  0  0  0
  181.9990  178.3950  140.1990 C   0  0  2  0  0  3  0  0  0  0  0  0
  183.9580  178.6580  145.1220 C   0  0  0  0  0  3  0  0  0  0  0  0
  184.7570  175.7720  136.4170 N   0  0  0  0  0  2  0  0  0  0  0  0
  185.2970  178.5710  141.7090 C   0  0  0  0  0  0  0  0  0  0  0  0
  187.0740  176.4430  143.2560 C   0  0  0  0  0  1  0  0  0  0  0  0
  180.7660  178.7230  142.9900 C   0  0  0  0  0  2  0  0  0  0  0  0
  182.5850  178.6940  144.7540 C   0  0  0  0  0  3  0  0  0  0  0  0
  186.7920  178.4650  141.8030 C   0  0  0  0  0  2  0  0  0  0  0  0
  183.6170  176.4490  138.5170 N   0  0  0  0  0  0  0  0  0  0  0  0
  182.9440  176.0680  139.7630 C   0  0  0  0  0  2  0  0  0  0  0  0
  182.2040  178.7120  143.3920 C   0  0  0  0  0  0  0  0  0  0  0  0
  184.5100  178.5320  140.6080 N   0  0  0  0  0  0  0  0  0  0  0  0
  186.4320  178.5890  144.3840 C   0  0  0  0  0  2  0  0  0  0  0  0
  180.7310  179.2200  140.4900 C   0  0  1  0  0  3  0  0  0  0  0  0
  188.6950  178.2800  143.3930 C   0  0  0  0  0  1  0  0  0  0  0  0
  183.9830  177.8420  138.2450 C   0  0  0  0  0  2  0  0  0  0  0  0
  183.7760  174.2150  137.8500 O   0  0  0  0  0  0  0  0  0  0  0  0
  185.0190  178.3730  139.2390 C   0  0  0  0  0  2  0  0  0  0  0  0
  180.5420  179.7730  141.9100 C   0  0  0  0  0  2  0  0  0  0  0  0
  181.2420  180.2120  138.2550 C   0  0  0  0  0  3  0  0  0  0  0  0
  180.5990  180.3200  139.4910 C   0  0  0  0  0  0  0  0  0  0  0  0
  179.8670  181.4320  139.7810 N   0  0  0  0  0  0  0  0  0  0  0  0
  178.9310  183.6490  139.2480 C   0  0  0  0  0  1  0  0  0  0  0  0
  180.3660  182.3810  137.6470 C   0  0  0  0  0  3  0  0  0  0  0  0
  179.7390  182.4530  138.8930 C   0  0  0  0  0  0  0  0  0  0  0  0
  181.1230  181.2500  137.3300 C   0  0  0  0  0  3  0  0  0  0  0  0
  186.3460  175.3650  134.5990 C   0  0  0  0  0  1  0  0  0  0  0  0
  185.2450  174.7780  135.4690 C   0  0  2  0  0  3  0  0  0  0  0  0
  183.9300  172.7360  134.7530 C   0  0  0  0  0  1  0  0  0  0  0  0
  184.0990  174.2420  134.6160 C   0  0  0  0  0  2  0  0  0  0  0  0
  1 12  1  0  0  0  0
  1 22  1  0  0  0  0
  1 20  1  0  0  0  0
  2  7  1  0  0  0  0
  2 18  1  0  0  0  0
  4 20  1  0  0  0  0
  4  9  2  0  0  0  0
  5  2  2  0  0  0  0
  6 24  2  0  0  0  0
  6 16  1  0  0  0  0
  7  4  1  0  0  0  0
  8  3  1  1  0  0  0
  8 21  1  0  0  0  0
  8  5  1  0  0  0  0
 10  6  1  0  0  0  0
 11 15  1  0  0  0  0
 11  7  2  0  0  0  0
 13 18  1  0  0  0  0
 14  9  1  0  0  0  0
 15  1  1  0  0  0  0
 16 17  1  0  0  0  0
 17  3  1  0  0  0  0
 18 14  2  0  0  0  0
 19  5  1  0  0  0  0
 19 11  1  0  0  0  0
 21 28  1  6  0  0  0
 21 26  1  0  0  0  0
 23 16  1  0  0  0  0
 23 25  1  0  0  0  0
 25 19  1  0  0  0  0
 26 13  1  0  0  0  0
 27 28  1  0  0  0  0
 28 29  2  0  0  0  0
 31 32  2  0  0  0  0
 32 30  1  0  0  0  0
 32 29  1  0  0  0  0
 33 31  1  0  0  0  0
 33 27  2  0  0  0  0
 35 34  1  6  0  0  0
 35 10  1  0  0  0  0
 37 36  1  0  0  0  0
 37 35  1  0  0  0  0
M  END
>  <MODEL>
1

>  <REMARK>
 VINA RESULT:      -7.6      0.000      0.000
  Name = 
  3 active torsions:
  status: ('A' for Active; 'I' for Inactive)
    1  A    between atoms: C_4  and  N_12
    2  A    between atoms: C_4  and  C_37
    3  A    between atoms: C_23  and  C_30
                            x       y       z     vdW  Elec       q    Type
                         _______ _______ _______ _____ _____    ______ ____

>  <TORSDO>
F 3

$$$$
=
 OpenBabel11122411363D

 37 42  0  0  1  0  0  0  0  0999 V2000
  186.9120  178.0920  143.1710 C   0  0  0  0  0  0  0  0  0  0  0  0
  182.9910  178.7850  142.0090 C   0  0  0  0  0  0  0  0  0  0  0  0
  181.6840  176.8660  139.5670 C   0  0  0  0  0  2  0  0  0  0  0  0
  184.5570  178.8010  143.8440 C   0  0  0  0  0  0  0  0  0  0  0  0
  183.1120  178.6640  140.6330 C   0  0  0  0  0  0  0  0  0  0  0  0
  184.2490  175.2880  137.4310 C   0  0  0  0  0  0  0  0  0  0  0  0
  184.2530  178.7870  142.5020 C   0  0  0  0  0  0  0  0  0  0  0  0
  181.9760  178.3630  139.6860 C   0  0  2  0  0  3  0  0  0  0  0  0
  183.4790  178.8650  144.7480 C   0  0  0  0  0  3  0  0  0  0  0  0
  185.0700  175.5840  136.2960 N   0  0  0  0  0  2  0  0  0  0  0  0
  185.1230  178.6290  141.4790 C   0  0  0  0  0  0  0  0  0  0  0  0
  186.7560  176.5840  143.2770 C   0  0  0  0  0  1  0  0  0  0  0  0
  180.4940  178.8140  142.3350 C   0  0  0  0  0  2  0  0  0  0  0  0
  182.1450  178.8760  144.2560 C   0  0  0  0  0  3  0  0  0  0  0  0
  186.6040  178.5360  141.7130 C   0  0  0  0  0  2  0  0  0  0  0  0
  183.7430  176.3520  138.2500 N   0  0  0  0  0  0  0  0  0  0  0  0
  182.9610  176.0250  139.4460 C   0  0  0  0  0  2  0  0  0  0  0  0
  181.8900  178.8300  142.8660 C   0  0  0  0  0  0  0  0  0  0  0  0
  184.4390  178.5340  140.3140 N   0  0  0  0  0  0  0  0  0  0  0  0
  186.0100  178.7770  144.2420 C   0  0  0  0  0  2  0  0  0  0  0  0
  180.6850  179.1940  139.8220 C   0  0  1  0  0  3  0  0  0  0  0  0
  188.3540  178.4350  143.4750 C   0  0  0  0  0  1  0  0  0  0  0  0
  184.1310  177.7320  137.9470 C   0  0  0  0  0  2  0  0  0  0  0  0
  183.9650  174.0890  137.7040 O   0  0  0  0  0  0  0  0  0  0  0  0
  185.0710  178.3150  139.0050 C   0  0  0  0  0  2  0  0  0  0  0  0
  180.3680  179.8100  141.1910 C   0  0  0  0  0  2  0  0  0  0  0  0
  180.4920  181.5860  139.1290 C   0  0  0  0  0  3  0  0  0  0  0  0
  180.6430  180.2460  138.7650 C   0  0  0  0  0  0  0  0  0  0  0  0
  180.7390  179.9060  137.4490 N   0  0  0  0  0  0  0  0  0  0  0  0
  180.8030  180.4310  135.0410 C   0  0  0  0  0  1  0  0  0  0  0  0
  180.5450  182.1940  136.7910 C   0  0  0  0  0  3  0  0  0  0  0  0
  180.6940  180.8430  136.4650 C   0  0  0  0  0  0  0  0  0  0  0  0
  180.4430  182.5630  138.1330 C   0  0  0  0  0  3  0  0  0  0  0  0
  184.5500  173.6650  134.8680 C   0  0  0  0  0  1  0  0  0  0  0  0
  185.6440  174.5510  135.4440 C   0  0  2  0  0  3  0  0  0  0  0  0
  187.7840  174.5820  136.7980 C   0  0  0  0  0  1  0  0  0  0  0  0
  186.6680  173.7250  136.2170 C   0  0  0  0  0  2  0  0  0  0  0  0
  1 12  1  0  0  0  0
  1 22  1  0  0  0  0
  1 20  1  0  0  0  0
  2  7  1  0  0  0  0
  2 18  1  0  0  0  0
  4 20  1  0  0  0  0
  4  9  2  0  0  0  0
  5  2  2  0  0  0  0
  6 24  2  0  0  0  0
  6 16  1  0  0  0  0
  7  4  1  0  0  0  0
  8  3  1  1  0  0  0
  8 21  1  0  0  0  0
  8  5  1  0  0  0  0
 10  6  1  0  0  0  0
 11 15  1  0  0  0  0
 11  7  2  0  0  0  0
 13 18  1  0  0  0  0
 14  9  1  0  0  0  0
 15  1  1  0  0  0  0
 16 17  1  0  0  0  0
 17  3  1  0  0  0  0
 18 14  2  0  0  0  0
 19  5  1  0  0  0  0
 19 11  1  0  0  0  0
 21 28  1  6  0  0  0
 21 26  1  0  0  0  0
 23 16  1  0  0  0  0
 23 25  1  0  0  0  0
 25 19  1  0  0  0  0
 26 13  1  0  0  0  0
 28 27  1  0  0  0  0
 29 28  2  0  0  0  0
 30 32  1  0  0  0  0
 31 33  1  0  0  0  0
 32 31  2  0  0  0  0
 32 29  1  0  0  0  0
 33 27  2  0  0  0  0
 35 34  1  1  0  0  0
 35 37  1  0  0  0  0
 35 10  1  0  0  0  0
 37 36  1  0  0  0  0
M  END
>  <MODEL>
2

>  <REMARK>
 VINA RESULT:      -7.1      0.991      1.651
  Name = 
  3 active torsions:
  status: ('A' for Active; 'I' for Inactive)
    1  A    between atoms: C_4  and  N_12
    2  A    between atoms: C_4  and  C_37
    3  A    between atoms: C_23  and  C_30
                            x       y       z     vdW  Elec       q    Type
                         _______ _______ _______ _____ _____    ______ ____

>  <TORSDO>
F 3

$$$$
=
 OpenBabel11122411363D

 37 42  0  0  1  0  0  0  0  0999 V2000
  180.6650  183.0710  136.7820 C   0  0  0  0  0  0  0  0  0  0  0  0
  180.1640  180.1580  139.6910 C   0  0  0  0  0  0  0  0  0  0  0  0
  182.8210  178.2650  140.5330 C   0  0  0  0  0  2  0  0  0  0  0  0
  179.4970  182.3470  138.9310 C   0  0  0  0  0  0  0  0  0  0  0  0
  180.8920  179.1170  139.1340 C   0  0  0  0  0  0  0  0  0  0  0  0
  185.4320  178.1850  137.9240 C   0  0  0  0  0  0  0  0  0  0  0  0
  180.0720  181.1120  138.7350 C   0  0  0  0  0  0  0  0  0  0  0  0
  181.4640  177.9500  139.9000 C   0  0  2  0  0  3  0  0  0  0  0  0
  178.9310  182.6020  140.1940 C   0  0  0  0  0  3  0  0  0  0  0  0
  185.7540  177.4990  136.7090 N   0  0  0  0  0  2  0  0  0  0  0  0
  180.7540  180.7030  137.6410 C   0  0  0  0  0  0  0  0  0  0  0  0
  181.9460  183.6340  137.3760 C   0  0  0  0  0  1  0  0  0  0  0  0
  179.7410  179.3300  142.0320 C   0  0  0  0  0  2  0  0  0  0  0  0
  179.0030  181.6120  141.2120 C   0  0  0  0  0  3  0  0  0  0  0  0
  180.8830  181.5730  136.4240 C   0  0  0  0  0  2  0  0  0  0  0  0
  184.0710  178.2580  138.3710 N   0  0  0  0  0  0  0  0  0  0  0  0
  183.7540  179.0230  139.5810 C   0  0  0  0  0  2  0  0  0  0  0  0
  179.6340  180.3690  140.9650 C   0  0  0  0  0  0  0  0  0  0  0  0
  181.2840  179.4780  137.8700 N   0  0  0  0  0  0  0  0  0  0  0  0
  179.4900  183.3160  137.7760 C   0  0  0  0  0  2  0  0  0  0  0  0
  180.5330  177.2020  140.8740 C   0  0  1  0  0  3  0  0  0  0  0  0
  180.3710  183.8260  135.5040 C   0  0  0  0  0  1  0  0  0  0  0  0
  183.0140  177.6790  137.5370 C   0  0  0  0  0  2  0  0  0  0  0  0
  186.3510  178.7190  138.6050 O   0  0  0  0  0  0  0  0  0  0  0  0
  182.1220  178.7520  136.9060 C   0  0  0  0  0  2  0  0  0  0  0  0
  179.3460  177.9720  141.4690 C   0  0  0  0  0  2  0  0  0  0  0  0
  179.3900  174.9870  141.0310 C   0  0  0  0  0  3  0  0  0  0  0  0
  180.0590  175.9330  140.2500 C   0  0  0  0  0  0  0  0  0  0  0  0
  180.2850  175.6860  138.9300 N   0  0  0  0  0  0  0  0  0  0  0  0
  180.1380  174.3030  136.8950 C   0  0  0  0  0  1  0  0  0  0  0  0
  179.1990  173.5650  139.0860 C   0  0  0  0  0  3  0  0  0  0  0  0
  179.8720  174.5330  138.3380 C   0  0  0  0  0  0  0  0  0  0  0  0
  178.9580  173.7970  140.4420 C   0  0  0  0  0  3  0  0  0  0  0  0
  187.1610  177.9430  134.7560 C   0  0  0  0  0  1  0  0  0  0  0  0
  187.1100  177.4170  136.1820 C   0  0  2  0  0  3  0  0  0  0  0  0
  186.5620  175.0050  136.7270 C   0  0  0  0  0  1  0  0  0  0  0  0
  187.6290  175.9840  136.2570 C   0  0  0  0  0  2  0  0  0  0  0  0
  1 12  1  0  0  0  0
  1 20  1  0  0  0  0
  2 18  1  0  0  0  0
  4  9  2  0  0  0  0
  5  2  2  0  0  0  0
  5  8  1  0  0  0  0
  6 16  1  0  0  0  0
  6 24  2  0  0  0  0
  7  4  1  0  0  0  0
  7  2  1  0  0  0  0
  8  3  1  1  0  0  0
  8 21  1  0  0  0  0
  9 14  1  0  0  0  0
 10  6  1  0  0  0  0
 11 19  1  0  0  0  0
 11  7  2  0  0  0  0
 15  1  1  0  0  0  0
 15 11  1  0  0  0  0
 16 17  1  0  0  0  0
 17  3  1  0  0  0  0
 18 14  2  0  0  0  0
 18 13  1  0  0  0  0
 19  5  1  0  0  0  0
 20  4  1  0  0  0  0
 21 28  1  6  0  0  0
 21 26  1  0  0  0  0
 22  1  1  0  0  0  0
 23 16  1  0  0  0  0
 25 23  1  0  0  0  0
 25 19  1  0  0  0  0
 26 13  1  0  0  0  0
 28 27  2  0  0  0  0
 29 28  1  0  0  0  0
 30 32  1  0  0  0  0
 31 33  2  0  0  0  0
 32 29  2  0  0  0  0
 32 31  1  0  0  0  0
 33 27  1  0  0  0  0
 35 34  1  6  0  0  0
 35 37  1  0  0  0  0
 35 10  1  0  0  0  0
 37 36  1  0  0  0  0
M  END
>  <MODEL>
3

>  <REMARK>
 VINA RESULT:      -6.6      3.000      6.211
  Name = 
  3 active torsions:
  status: ('A' for Active; 'I' for Inactive)
    1  A    between atoms: C_4  and  N_12
    2  A    between atoms: C_4  and  C_37
    3  A    between atoms: C_23  and  C_30
                            x       y       z     vdW  Elec       q    Type
                         _______ _______ _______ _____ _____    ______ ____

>  <TORSDO>
F 3

$$$$
=
 OpenBabel11122411363D

 37 42  0  0  1  0  0  0  0  0999 V2000
  183.4570  173.9020  136.6960 C   0  0  0  0  0  0  0  0  0  0  0  0
  181.9820  177.7570  137.0970 C   0  0  0  0  0  0  0  0  0  0  0  0
  183.8750  180.0350  138.7030 C   0  0  0  0  0  2  0  0  0  0  0  0
  182.0660  175.7930  135.7000 C   0  0  0  0  0  0  0  0  0  0  0  0
  182.3540  178.0340  138.4040 C   0  0  0  0  0  0  0  0  0  0  0  0
  186.3890  178.5160  140.9400 C   0  0  0  0  0  0  0  0  0  0  0  0
  182.2220  176.4380  136.9050 C   0  0  0  0  0  0  0  0  0  0  0  0
  182.5050  179.4170  138.9880 C   0  0  2  0  0  3  0  0  0  0  0  0
  181.5790  176.5540  134.6200 C   0  0  0  0  0  3  0  0  0  0  0  0
  186.5050  177.9830  142.2640 N   0  0  0  0  0  2  0  0  0  0  0  0
  182.7650  175.9240  138.0320 C   0  0  0  0  0  0  0  0  0  0  0  0
  184.8350  174.3340  136.2240 C   0  0  0  0  0  1  0  0  0  0  0  0
  181.2590  180.0150  136.2480 C   0  0  0  0  0  2  0  0  0  0  0  0
  181.3070  177.9380  134.7980 C   0  0  0  0  0  3  0  0  0  0  0  0
  183.1950  174.4870  138.1130 C   0  0  0  0  0  2  0  0  0  0  0  0
  185.1110  178.5540  140.2890 N   0  0  0  0  0  0  0  0  0  0  0  0
  185.0250  179.0410  138.9090 C   0  0  0  0  0  2  0  0  0  0  0  0
  181.5150  178.5570  136.0530 C   0  0  0  0  0  0  0  0  0  0  0  0
  182.8720  176.8960  138.9690 N   0  0  0  0  0  0  0  0  0  0  0  0
  182.3970  174.3240  135.6350 C   0  0  0  0  0  2  0  0  0  0  0  0
  181.3600  180.4240  138.7630 C   0  0  1  0  0  3  0  0  0  0  0  0
  183.4500  172.3920  136.7990 C   0  0  0  0  0  1  0  0  0  0  0  0
  183.9460  177.9820  140.9700 C   0  0  0  0  0  2  0  0  0  0  0  0
  187.4120  178.9600  140.3510 O   0  0  0  0  0  0  0  0  0  0  0  0
  183.4580  176.6950  140.3010 C   0  0  0  0  0  2  0  0  0  0  0  0
  180.4660  180.2310  137.5300 C   0  0  0  0  0  2  0  0  0  0  0  0
  179.7040  181.6420  140.1810 C   0  0  0  0  0  3  0  0  0  0  0  0
  180.5220  180.5250  139.9920 C   0  0  0  0  0  0  0  0  0  0  0  0
  180.5590  179.5430  140.9360 N   0  0  0  0  0  0  0  0  0  0  0  0
  179.8810  178.5220  143.0740 C   0  0  0  0  0  1  0  0  0  0  0  0
  178.9820  180.7160  142.2930 C   0  0  0  0  0  3  0  0  0  0  0  0
  179.8120  179.6150  142.0700 C   0  0  0  0  0  0  0  0  0  0  0  0
  178.9310  181.7340  141.3390 C   0  0  0  0  0  3  0  0  0  0  0  0
  188.4170  176.5260  142.7270 C   0  0  0  0  0  1  0  0  0  0  0  0
  187.7770  177.8840  142.9680 C   0  0  2  0  0  3  0  0  0  0  0  0
  186.1330  177.9990  144.8910 C   0  0  0  0  0  1  0  0  0  0  0  0
  187.5860  178.1430  144.4600 C   0  0  0  0  0  2  0  0  0  0  0  0
  1 22  1  0  0  0  0
  1 15  1  0  0  0  0
  2  5  2  0  0  0  0
  3 17  1  0  0  0  0
  4  7  1  0  0  0  0
  5 19  1  0  0  0  0
  5  8  1  0  0  0  0
  6 10  1  0  0  0  0
  7  2  1  0  0  0  0
  7 11  2  0  0  0  0
  8  3  1  6  0  0  0
  9 14  1  0  0  0  0
  9  4  2  0  0  0  0
 10 35  1  0  0  0  0
 11 15  1  0  0  0  0
 11 19  1  0  0  0  0
 12  1  1  0  0  0  0
 13 26  1  0  0  0  0
 14 18  2  0  0  0  0
 16  6  1  0  0  0  0
 16 23  1  0  0  0  0
 17 16  1  0  0  0  0
 18 13  1  0  0  0  0
 18  2  1  0  0  0  0
 19 25  1  0  0  0  0
 20  4  1  0  0  0  0
 20  1  1  0  0  0  0
 21  8  1  0  0  0  0
 21 28  1  1  0  0  0
 24  6  2  0  0  0  0
 25 23  1  0  0  0  0
 26 21  1  0  0  0  0
 27 33  1  0  0  0  0
 28 27  2  0  0  0  0
 28 29  1  0  0  0  0
 29 32  2  0  0  0  0
 32 31  1  0  0  0  0
 32 30  1  0  0  0  0
 33 31  2  0  0  0  0
 35 34  1  1  0  0  0
 35 37  1  0  0  0  0
 37 36  1  0  0  0  0
M  END
>  <MODEL>
4

>  <REMARK>
 VINA RESULT:      -5.8      2.101      6.652
  Name = 
  3 active torsions:
  status: ('A' for Active; 'I' for Inactive)
    1  A    between atoms: C_4  and  N_12
    2  A    between atoms: C_4  and  C_37
    3  A    between atoms: C_23  and  C_30
                            x       y       z     vdW  Elec       q    Type
                         _______ _______ _______ _____ _____    ______ ____

>  <TORSDO>
F 3

$$$$
=
 OpenBabel11122411363D

 37 42  0  0  1  0  0  0  0  0999 V2000
  180.6370  182.7840  137.4660 C   0  0  0  0  0  0  0  0  0  0  0  0
  180.8000  178.6610  137.0480 C   0  0  0  0  0  0  0  0  0  0  0  0
  181.1070  176.7820  139.8270 C   0  0  0  0  0  2  0  0  0  0  0  0
  179.8830  180.7160  136.1790 C   0  0  0  0  0  0  0  0  0  0  0  0
  181.7930  178.3540  137.9660 C   0  0  0  0  0  0  0  0  0  0  0  0
  182.4950  178.6470  142.6950 C   0  0  0  0  0  0  0  0  0  0  0  0
  180.7930  180.0110  136.9330 C   0  0  0  0  0  0  0  0  0  0  0  0
  181.9970  177.0010  138.6020 C   0  0  2  0  0  3  0  0  0  0  0  0
  178.9370  179.9720  135.4480 C   0  0  0  0  0  3  0  0  0  0  0  0
  183.7570  179.0540  143.2370 N   0  0  0  0  0  2  0  0  0  0  0  0
  181.7130  180.5270  137.7790 C   0  0  0  0  0  0  0  0  0  0  0  0
  179.6110  182.7640  138.5870 C   0  0  0  0  0  1  0  0  0  0  0  0
  179.8590  176.3930  136.4860 C   0  0  0  0  0  2  0  0  0  0  0  0
  178.9310  178.5540  135.5420 C   0  0  0  0  0  3  0  0  0  0  0  0
  181.9060  182.0090  137.9230 C   0  0  0  0  0  2  0  0  0  0  0  0
  182.3730  178.3560  141.2960 N   0  0  0  0  0  0  0  0  0  0  0  0
  181.0590  178.0070  140.7480 C   0  0  0  0  0  2  0  0  0  0  0  0
  179.8710  177.8810  136.3570 C   0  0  0  0  0  0  0  0  0  0  0  0
  182.3330  179.5210  138.4420 N   0  0  0  0  0  0  0  0  0  0  0  0
  179.9870  182.2200  136.1680 C   0  0  0  0  0  2  0  0  0  0  0  0
  182.0230  175.7670  137.6800 C   0  0  1  0  0  3  0  0  0  0  0  0
  181.0260  184.2250  137.2150 C   0  0  0  0  0  1  0  0  0  0  0  0
  183.5370  178.5420  140.4240 C   0  0  0  0  0  2  0  0  0  0  0  0
  181.4920  178.5390  143.4530 O   0  0  0  0  0  0  0  0  0  0  0  0
  183.3620  179.7260  139.4700 C   0  0  0  0  0  2  0  0  0  0  0  0
  181.2760  175.8540  136.3420 C   0  0  0  0  0  2  0  0  0  0  0  0
  183.7780  173.9900  137.6350 C   0  0  0  0  0  3  0  0  0  0  0  0
  183.4320  175.3320  137.4520 C   0  0  0  0  0  0  0  0  0  0  0  0
  184.3820  176.2340  137.0800 N   0  0  0  0  0  0  0  0  0  0  0  0
  186.6800  176.8820  136.4690 C   0  0  0  0  0  1  0  0  0  0  0  0
  186.0590  174.5340  137.0470 C   0  0  0  0  0  3  0  0  0  0  0  0
  185.6740  175.8660  136.8750 C   0  0  0  0  0  0  0  0  0  0  0  0
  185.1010  173.5930  137.4300 C   0  0  0  0  0  3  0  0  0  0  0  0
  184.9320  180.5410  144.7860 C   0  0  0  0  0  1  0  0  0  0  0  0
  183.9410  179.3970  144.6410 C   0  0  2  0  0  3  0  0  0  0  0  0
  185.4850  178.5110  146.4420 C   0  0  0  0  0  1  0  0  0  0  0  0
  184.3920  178.1760  145.4370 C   0  0  0  0  0  2  0  0  0  0  0  0
  1 15  1  0  0  0  0
  1 12  1  0  0  0  0
  2  5  2  0  0  0  0
  3 17  1  0  0  0  0
  4  7  1  0  0  0  0
  5 19  1  0  0  0  0
  5  8  1  0  0  0  0
  6 10  1  0  0  0  0
  6 24  2  0  0  0  0
  7  2  1  0  0  0  0
  7 11  2  0  0  0  0
  8  3  1  1  0  0  0
  9 14  1  0  0  0  0
  9  4  2  0  0  0  0
 10 35  1  0  0  0  0
 11 15  1  0  0  0  0
 11 19  1  0  0  0  0
 14 18  2  0  0  0  0
 16  6  1  0  0  0  0
 17 16  1  0  0  0  0
 18 13  1  0  0  0  0
 18  2  1  0  0  0  0
 19 25  1  0  0  0  0
 20  4  1  0  0  0  0
 20  1  1  0  0  0  0
 21 28  1  6  0  0  0
 21  8  1  0  0  0  0
 22  1  1  0  0  0  0
 23 16  1  0  0  0  0
 25 23  1  0  0  0  0
 26 13  1  0  0  0  0
 26 21  1  0  0  0  0
 28 27  1  0  0  0  0
 29 28  2  0  0  0  0
 30 32  1  0  0  0  0
 31 33  1  0  0  0  0
 32 31  2  0  0  0  0
 32 29  1  0  0  0  0
 33 27  2  0  0  0  0
 35 34  1  6  0  0  0
 35 37  1  0  0  0  0
 37 36  1  0  0  0  0
M  END
>  <MODEL>
5

>  <REMARK>
 VINA RESULT:      -5.8      2.409      8.024
  Name = 
  3 active torsions:
  status: ('A' for Active; 'I' for Inactive)
    1  A    between atoms: C_4  and  N_12
    2  A    between atoms: C_4  and  C_37
    3  A    between atoms: C_23  and  C_30
                            x       y       z     vdW  Elec       q    Type
                         _______ _______ _______ _____ _____    ______ ____

>  <TORSDO>
F 3

$$$$
=
 OpenBabel11122411363D

 37 42  0  0  1  0  0  0  0  0999 V2000
  183.1610  171.1940  135.9870 C   0  0  0  0  0  0  0  0  0  0  0  0
  180.9170  174.6230  136.6210 C   0  0  0  0  0  0  0  0  0  0  0  0
  182.3290  177.6070  135.9480 C   0  0  0  0  0  2  0  0  0  0  0  0
  180.8650  172.3020  135.9670 C   0  0  0  0  0  0  0  0  0  0  0  0
  181.8750  175.4490  137.1900 C   0  0  0  0  0  0  0  0  0  0  0  0
  186.0190  177.4970  135.9380 C   0  0  0  0  0  0  0  0  0  0  0  0
  181.4700  173.3890  136.5560 C   0  0  0  0  0  0  0  0  0  0  0  0
  181.8070  176.9560  137.2300 C   0  0  2  0  0  3  0  0  0  0  0  0
  179.5690  172.4890  135.4480 C   0  0  0  0  0  3  0  0  0  0  0  0
  187.1250  177.5580  136.8460 N   0  0  0  0  0  2  0  0  0  0  0  0
  182.7380  173.4520  137.0230 C   0  0  0  0  0  0  0  0  0  0  0  0
  183.6450  171.6040  134.6050 C   0  0  0  0  0  1  0  0  0  0  0  0
  179.0270  176.2220  136.1590 C   0  0  0  0  0  2  0  0  0  0  0  0
  178.9610  173.7720  135.5150 C   0  0  0  0  0  3  0  0  0  0  0  0
  183.6360  172.2480  137.0270 C   0  0  0  0  0  2  0  0  0  0  0  0
  184.7280  177.0810  136.4030 N   0  0  0  0  0  0  0  0  0  0  0  0
  183.6260  176.9610  135.4440 C   0  0  0  0  0  2  0  0  0  0  0  0
  179.6420  174.8630  136.1050 C   0  0  0  0  0  0  0  0  0  0  0  0
  183.0170  174.7210  137.4060 N   0  0  0  0  0  0  0  0  0  0  0  0
  181.6160  170.9960  135.9500 C   0  0  0  0  0  2  0  0  0  0  0  0
  180.4970  177.6060  137.7150 C   0  0  1  0  0  3  0  0  0  0  0  0
  183.8020  169.8670  136.3310 C   0  0  0  0  0  1  0  0  0  0  0  0
  184.5730  176.6600  137.7990 C   0  0  0  0  0  2  0  0  0  0  0  0
  186.1830  177.8180  134.7290 O   0  0  0  0  0  0  0  0  0  0  0  0
  184.3210  175.1560  137.9250 C   0  0  0  0  0  2  0  0  0  0  0  0
  179.1960  176.8080  137.5540 C   0  0  0  0  0  2  0  0  0  0  0  0
  179.5150  178.4350  139.8570 C   0  0  0  0  0  3  0  0  0  0  0  0
  180.6470  178.0610  139.1280 C   0  0  0  0  0  0  0  0  0  0  0  0
  181.8790  178.1270  139.7050 N   0  0  0  0  0  0  0  0  0  0  0  0
  183.4070  178.6030  141.5790 C   0  0  0  0  0  1  0  0  0  0  0  0
  180.9380  178.9270  141.7480 C   0  0  0  0  0  3  0  0  0  0  0  0
  182.0450  178.5470  140.9870 C   0  0  0  0  0  0  0  0  0  0  0  0
  179.6650  178.8690  141.1750 C   0  0  0  0  0  3  0  0  0  0  0  0
  189.3650  176.7140  136.3350 C   0  0  0  0  0  1  0  0  0  0  0  0
  188.4690  177.9390  136.4320 C   0  0  2  0  0  3  0  0  0  0  0  0
  189.2270  178.4210  138.8000 C   0  0  0  0  0  1  0  0  0  0  0  0
  189.0540  178.9710  137.3920 C   0  0  0  0  0  2  0  0  0  0  0  0
  1 22  1  0  0  0  0
  1 15  1  0  0  0  0
  2  5  2  0  0  0  0
  4  7  1  0  0  0  0
  5  8  1  0  0  0  0
  5 19  1  0  0  0  0
  6 16  1  0  0  0  0
  6 10  1  0  0  0  0
  7  2  1  0  0  0  0
  7 11  2  0  0  0  0
  8  3  1  6  0  0  0
  8 21  1  0  0  0  0
  9 14  1  0  0  0  0
  9  4  2  0  0  0  0
 11 15  1  0  0  0  0
 11 19  1  0  0  0  0
 12  1  1  0  0  0  0
 13 26  1  0  0  0  0
 14 18  2  0  0  0  0
 16 23  1  0  0  0  0
 17  3  1  0  0  0  0
 17 16  1  0  0  0  0
 18 13  1  0  0  0  0
 18  2  1  0  0  0  0
 19 25  1  0  0  0  0
 20  4  1  0  0  0  0
 20  1  1  0  0  0  0
 21 28  1  1  0  0  0
 23 25  1  0  0  0  0
 24  6  2  0  0  0  0
 26 21  1  0  0  0  0
 27 33  1  0  0  0  0
 28 29  1  0  0  0  0
 28 27  2  0  0  0  0
 29 32  2  0  0  0  0
 32 30  1  0  0  0  0
 32 31  1  0  0  0  0
 33 31  2  0  0  0  0
 35 34  1  1  0  0  0
 35 10  1  0  0  0  0
 35 37  1  0  0  0  0
 37 36  1  0  0  0  0
M  END
>  <MODEL>
6

>  <REMARK>
 VINA RESULT:      -5.7      3.027      7.054
  Name = 
  3 active torsions:
  status: ('A' for Active; 'I' for Inactive)
    1  A    between atoms: C_4  and  N_12
    2  A    between atoms: C_4  and  C_37
    3  A    between atoms: C_23  and  C_30
                            x       y       z     vdW  Elec       q    Type
                         _______ _______ _______ _____ _____    ______ ____

>  <TORSDO>
F 3

$$$$
=
 OpenBabel11122411363D

 37 42  0  0  1  0  0  0  0  0999 V2000
  180.9750  172.9440  136.0140 C   0  0  0  0  0  0  0  0  0  0  0  0
  182.0810  176.6840  137.4220 C   0  0  0  0  0  0  0  0  0  0  0  0
  185.1570  177.8320  136.6670 C   0  0  0  0  0  2  0  0  0  0  0  0
  180.2630  175.3160  136.6220 C   0  0  0  0  0  0  0  0  0  0  0  0
  183.3880  176.4300  137.8110 C   0  0  0  0  0  0  0  0  0  0  0  0
  187.5320  175.1480  135.7800 C   0  0  0  0  0  0  0  0  0  0  0  0
  181.5300  175.4810  137.1330 C   0  0  0  0  0  0  0  0  0  0  0  0
  184.4610  177.4770  137.9820 C   0  0  2  0  0  3  0  0  0  0  0  0
  179.4860  176.4750  136.4390 C   0  0  0  0  0  3  0  0  0  0  0  0
  188.4060  174.2000  136.4040 N   0  0  0  0  0  2  0  0  0  0  0  0
  182.4690  174.5210  137.2920 C   0  0  0  0  0  0  0  0  0  0  0  0
  181.4570  173.1870  134.5940 C   0  0  0  0  0  1  0  0  0  0  0  0
  181.9570  179.1970  137.5430 C   0  0  0  0  0  2  0  0  0  0  0  0
  180.0360  177.7490  136.7460 C   0  0  0  0  0  3  0  0  0  0  0  0
  182.1770  173.0780  136.9920 C   0  0  0  0  0  2  0  0  0  0  0  0
  186.4120  175.6790  136.5030 N   0  0  0  0  0  0  0  0  0  0  0  0
  185.4910  176.5950  135.8240 C   0  0  0  0  0  2  0  0  0  0  0  0
  181.3570  177.8640  137.2410 C   0  0  0  0  0  0  0  0  0  0  0  0
  183.6320  175.0860  137.6950 N   0  0  0  0  0  0  0  0  0  0  0  0
  179.7960  173.9140  136.3270 C   0  0  0  0  0  2  0  0  0  0  0  0
  184.1200  178.7310  138.8100 C   0  0  1  0  0  3  0  0  0  0  0  0
  180.4560  171.5240  136.0940 C   0  0  0  0  0  1  0  0  0  0  0  0
  186.1420  175.1920  137.8580 C   0  0  0  0  0  2  0  0  0  0  0  0
  187.7530  175.5190  134.5940 O   0  0  0  0  0  0  0  0  0  0  0  0
  184.8750  174.3360  137.9240 C   0  0  0  0  0  2  0  0  0  0  0  0
  182.6470  179.1540  138.9000 C   0  0  0  0  0  2  0  0  0  0  0  0
  183.8540  178.4560  141.2790 C   0  0  0  0  0  3  0  0  0  0  0  0
  184.7010  178.6110  140.1790 C   0  0  0  0  0  0  0  0  0  0  0  0
  186.0500  178.6630  140.3620 N   0  0  0  0  0  0  0  0  0  0  0  0
  188.0830  178.6260  141.7560 C   0  0  0  0  0  1  0  0  0  0  0  0
  185.7920  178.4090  142.7230 C   0  0  0  0  0  3  0  0  0  0  0  0
  186.6060  178.5650  141.5990 C   0  0  0  0  0  0  0  0  0  0  0  0
  184.4060  178.3550  142.5570 C   0  0  0  0  0  3  0  0  0  0  0  0
  189.2130  172.1710  135.2970 C   0  0  0  0  0  1  0  0  0  0  0  0
  189.5390  173.5970  135.7150 C   0  0  2  0  0  3  0  0  0  0  0  0
  191.9900  172.9950  135.9240 C   0  0  0  0  0  1  0  0  0  0  0  0
  190.7850  173.6380  136.5950 C   0  0  0  0  0  2  0  0  0  0  0  0
  1 22  1  0  0  0  0
  1 20  1  0  0  0  0
  1 15  1  0  0  0  0
  2  5  2  0  0  0  0
  4  7  1  0  0  0  0
  5  8  1  0  0  0  0
  6 10  1  0  0  0  0
  6 16  1  0  0  0  0
  7 11  2  0  0  0  0
  7  2  1  0  0  0  0
  8  3  1  6  0  0  0
  8 21  1  0  0  0  0
  9  4  2  0  0  0  0
  9 14  1  0  0  0  0
 11 19  1  0  0  0  0
 12  1  1  0  0  0  0
 13 26  1  0  0  0  0
 14 18  2  0  0  0  0
 15 11  1  0  0  0  0
 16 23  1  0  0  0  0
 17 16  1  0  0  0  0
 17  3  1  0  0  0  0
 18  2  1  0  0  0  0
 18 13  1  0  0  0  0
 19  5  1  0  0  0  0
 19 25  1  0  0  0  0
 20  4  1  0  0  0  0
 21 26  1  0  0  0  0
 21 28  1  1  0  0  0
 23 25  1  0  0  0  0
 24  6  2  0  0  0  0
 27 33  1  0  0  0  0
 28 29  1  0  0  0  0
 28 27  2  0  0  0  0
 29 32  2  0  0  0  0
 32 30  1  0  0  0  0
 32 31  1  0  0  0  0
 33 31  2  0  0  0  0
 35 34  1  1  0  0  0
 35 10  1  0  0  0  0
 35 37  1  0  0  0  0
 36 37  1  0  0  0  0
M  END
>  <MODEL>
7

>  <REMARK>
 VINA RESULT:      -5.0      2.878      7.031
  Name = 
  3 active torsions:
  status: ('A' for Active; 'I' for Inactive)
    1  A    between atoms: C_4  and  N_12
    2  A    between atoms: C_4  and  C_37
    3  A    between atoms: C_23  and  C_30
                            x       y       z     vdW  Elec       q    Type
                         _______ _______ _______ _____ _____    ______ ____

>  <TORSDO>
F 3

$$$$
