=
 OpenBabel11122410213D

 30 35  0  0  1  0  0  0  0  0999 V2000
  185.4300  178.1720  142.4800 C   0  0  0  0  0  0  0  0  0  0  0  0
  186.3460  178.2040  144.8170 C   0  0  0  0  0  0  0  0  0  0  0  0
  181.4640  178.9530  143.8410 C   0  0  0  0  0  2  0  0  0  0  0  0
  184.3120  178.3120  141.6240 C   0  0  0  0  0  0  0  0  0  0  0  0
  186.7410  177.7550  141.8720 C   0  0  0  0  0  2  0  0  0  0  0  0
  186.1420  178.9050  138.4630 O   0  0  0  0  0  0  0  0  0  0  0  0
  182.5980  176.7440  139.8170 C   0  0  1  0  0  3  0  0  0  0  0  0
  185.9050  178.5950  139.6630 C   0  0  0  0  0  0  0  0  0  0  0  0
  181.4700  177.3120  140.6770 C   0  0  2  0  0  3  0  0  0  0  0  0
  180.8030  178.9510  142.4500 C   0  0  1  0  0  3  0  0  0  0  0  0
  186.9870  178.4010  140.5830 N   0  0  0  0  0  0  0  0  0  0  0  0
  184.4820  178.5200  140.1370 C   0  0  1  0  0  3  0  0  0  0  0  0
  186.1200  178.3770  146.1860 C   0  0  0  0  0  3  0  0  0  0  0  0
  180.3160  177.5690  139.7350 C   0  0  0  0  0  2  0  0  0  0  0  0
  181.8730  175.9580  138.7350 C   0  0  0  0  0  2  0  0  0  0  0  0
  187.6450  177.9340  144.4060 O   0  0  0  0  0  1  0  0  0  0  0  0
  182.8940  178.6920  143.5330 C   0  0  0  0  0  0  0  0  0  0  0  0
  184.8450  178.6610  146.6710 C   0  0  0  0  0  3  0  0  0  0  0  0
  185.2700  178.3140  143.8960 C   0  0  0  0  0  0  0  0  0  0  0  0
  183.0530  178.4980  142.1950 C   0  0  0  0  0  0  0  0  0  0  0  0
  180.3820  180.3610  142.0830 C   0  0  0  0  0  1  0  0  0  0  0  0
  181.8140  178.4750  141.5000 N   0  0  0  0  0  0  0  0  0  0  0  0
  180.4430  176.4900  138.6730 C   0  0  0  0  0  2  0  0  0  0  0  0
  182.8430  178.7830  138.2710 C   0  0  0  0  0  1  0  0  0  0  0  0
  183.7750  178.7740  145.7870 C   0  0  0  0  0  3  0  0  0  0  0  0
  183.9730  178.6050  144.4140 C   0  0  0  0  0  0  0  0  0  0  0  0
  183.5470  177.7780  139.1750 C   0  0  2  0  0  3  0  0  0  0  0  0
  188.3550  178.6930  140.1500 C   0  0  0  0  0  2  0  0  0  0  0  0
  190.2040  177.5240  139.8550 C   0  0  0  0  0  1  0  0  0  0  0  0
  189.2840  177.9030  140.8310 O   0  0  0  0  0  0  0  0  0  0  0  0
  1 19  1  0  0  0  0
  2 13  1  0  0  0  0
  4 20  1  0  0  0  0
  4  1  2  0  0  0  0
  5  1  1  0  0  0  0
  6  8  2  0  0  0  0
  7 15  1  6  0  0  0
  7  9  1  0  0  0  0
  8 11  1  0  0  0  0
  9 14  1  6  0  0  0
  9 22  1  0  0  0  0
 10 21  1  6  0  0  0
 10  3  1  0  0  0  0
 11  5  1  0  0  0  0
 12  8  1  6  0  0  0
 12  4  1  0  0  0  0
 13 18  2  0  0  0  0
 16  2  1  0  0  0  0
 17  3  1  0  0  0  0
 17 26  1  0  0  0  0
 19 26  1  0  0  0  0
 19  2  2  0  0  0  0
 20 17  2  0  0  0  0
 22 20  1  0  0  0  0
 22 10  1  0  0  0  0
 23 15  1  0  0  0  0
 23 14  1  0  0  0  0
 25 18  1  0  0  0  0
 26 25  2  0  0  0  0
 27 24  1  1  0  0  0
 27  7  1  0  0  0  0
 27 12  1  0  0  0  0
 28 11  1  0  0  0  0
 28 30  1  0  0  0  0
 29 30  1  0  0  0  0
M  END
>  <MODEL>
1

>  <REMARK>
 VINA RESULT:      -8.4      0.000      0.000
  Name = 
  2 active torsions:
  status: ('A' for Active; 'I' for Inactive)
    1  A    between atoms: N_11  and  C_28
    2  A    between atoms: C_28  and  O_30
                            x       y       z     vdW  Elec       q    Type
                         _______ _______ _______ _____ _____    ______ ____

>  <TORSDO>
F 2

$$$$
=
 OpenBabel11122410213D

 30 35  0  0  1  0  0  0  0  0999 V2000
  189.0890  177.3560  139.5640 C   0  0  0  0  0  0  0  0  0  0  0  0
  190.8360  176.6300  137.9150 C   0  0  0  0  0  0  0  0  0  0  0  0
  191.9820  177.8860  142.6530 C   0  0  0  0  0  2  0  0  0  0  0  0
  188.7800  177.8060  140.8710 C   0  0  0  0  0  0  0  0  0  0  0  0
  187.9500  177.0780  138.6230 C   0  0  0  0  0  2  0  0  0  0  0  0
  185.4450  179.2390  140.1570 O   0  0  0  0  0  0  0  0  0  0  0  0
  187.3950  176.9510  143.3230 C   0  0  1  0  0  3  0  0  0  0  0  0
  186.5180  178.5920  140.0170 C   0  0  0  0  0  0  0  0  0  0  0  0
  188.7300  177.2870  143.9850 C   0  0  2  0  0  3  0  0  0  0  0  0
  190.9900  178.3410  143.7400 C   0  0  1  0  0  3  0  0  0  0  0  0
  186.8830  178.0730  138.7310 N   0  0  0  0  0  0  0  0  0  0  0  0
  187.4490  178.4470  141.1860 C   0  0  1  0  0  3  0  0  0  0  0  0
  192.1840  176.3890  137.6310 C   0  0  0  0  0  3  0  0  0  0  0  0
  188.3890  177.8760  145.3350 C   0  0  0  0  0  2  0  0  0  0  0  0
  186.4940  176.5680  144.4870 C   0  0  0  0  0  2  0  0  0  0  0  0
  189.9160  176.4330  136.8940 O   0  0  0  0  0  1  0  0  0  0  0  0
  191.1070  177.6590  141.4750 C   0  0  0  0  0  0  0  0  0  0  0  0
  193.1650  176.5770  138.6020 C   0  0  0  0  0  3  0  0  0  0  0  0
  190.4460  177.0690  139.2090 C   0  0  0  0  0  0  0  0  0  0  0  0
  189.8060  177.8730  141.8130 C   0  0  0  0  0  0  0  0  0  0  0  0
  191.1940  179.8150  144.0320 C   0  0  0  0  0  1  0  0  0  0  0  0
  189.6430  178.1250  143.2020 N   0  0  0  0  0  0  0  0  0  0  0  0
  187.1120  177.1650  145.7490 C   0  0  0  0  0  2  0  0  0  0  0  0
  186.4690  179.3480  143.2990 C   0  0  0  0  0  1  0  0  0  0  0  0
  192.8070  177.0070  139.8770 C   0  0  0  0  0  3  0  0  0  0  0  0
  191.4660  177.2540  140.1890 C   0  0  0  0  0  0  0  0  0  0  0  0
  186.7440  178.0810  142.4980 C   0  0  2  0  0  3  0  0  0  0  0  0
  186.0660  178.4130  137.5650 C   0  0  0  0  0  2  0  0  0  0  0  0
  184.3340  177.0530  137.4010 C   0  0  0  0  0  1  0  0  0  0  0  0
  185.6190  177.2650  136.9040 O   0  0  0  0  0  0  0  0  0  0  0  0
  1  4  1  0  0  0  0
  2 19  1  0  0  0  0
  3 10  1  0  0  0  0
  4 12  1  0  0  0  0
  4 20  2  0  0  0  0
  5 11  1  0  0  0  0
  5  1  1  0  0  0  0
  7  9  1  0  0  0  0
  7 15  1  1  0  0  0
  8  6  2  0  0  0  0
  9 14  1  1  0  0  0
 10 21  1  6  0  0  0
 11  8  1  0  0  0  0
 12  8  1  6  0  0  0
 12 27  1  0  0  0  0
 13  2  2  0  0  0  0
 13 18  1  0  0  0  0
 14 23  1  0  0  0  0
 15 23  1  0  0  0  0
 16  2  1  0  0  0  0
 17 20  1  0  0  0  0
 17  3  1  0  0  0  0
 18 25  2  0  0  0  0
 19  1  2  0  0  0  0
 19 26  1  0  0  0  0
 20 22  1  0  0  0  0
 22 10  1  0  0  0  0
 22  9  1  0  0  0  0
 25 26  1  0  0  0  0
 26 17  2  0  0  0  0
 27 24  1  1  0  0  0
 27  7  1  0  0  0  0
 28 11  1  0  0  0  0
 30 29  1  0  0  0  0
 30 28  1  0  0  0  0
M  END
>  <MODEL>
2

>  <REMARK>
 VINA RESULT:      -7.5      3.401      7.564
  Name = 
  2 active torsions:
  status: ('A' for Active; 'I' for Inactive)
    1  A    between atoms: N_11  and  C_28
    2  A    between atoms: C_28  and  O_30
                            x       y       z     vdW  Elec       q    Type
                         _______ _______ _______ _____ _____    ______ ____

>  <TORSDO>
F 2

$$$$
=
 OpenBabel11122410213D

 30 35  0  0  1  0  0  0  0  0999 V2000
  187.8820  177.4590  142.7010 C   0  0  0  0  0  0  0  0  0  0  0  0
  189.3580  176.7780  144.6140 C   0  0  0  0  0  0  0  0  0  0  0  0
  184.8260  178.8500  145.3310 C   0  0  0  0  0  2  0  0  0  0  0  0
  186.6660  178.0380  142.2670 C   0  0  0  0  0  0  0  0  0  0  0  0
  188.8040  176.8820  141.6620 C   0  0  0  0  0  2  0  0  0  0  0  0
  187.6750  178.8370  138.7980 O   0  0  0  0  0  0  0  0  0  0  0  0
  184.1540  177.3400  140.9010 C   0  0  1  0  0  3  0  0  0  0  0  0
  187.6880  178.3450  139.9590 C   0  0  0  0  0  0  0  0  0  0  0  0
  183.5110  177.9630  142.1390 C   0  0  2  0  0  3  0  0  0  0  0  0
  183.8470  179.3000  144.2310 C   0  0  1  0  0  3  0  0  0  0  0  0
  188.8730  177.7100  140.4580 N   0  0  0  0  0  0  0  0  0  0  0  0
  186.4850  178.5100  140.8430 C   0  0  1  0  0  3  0  0  0  0  0  0
  189.5660  176.7060  145.9950 C   0  0  0  0  0  3  0  0  0  0  0  0
  182.2730  178.6790  141.6500 C   0  0  0  0  0  2  0  0  0  0  0  0
  182.9710  176.9950  140.0090 C   0  0  0  0  0  2  0  0  0  0  0  0
  190.3640  176.3020  143.7830 O   0  0  0  0  0  1  0  0  0  0  0  0
  185.9830  178.3300  144.5570 C   0  0  0  0  0  0  0  0  0  0  0  0
  188.6060  177.1740  146.8890 C   0  0  0  0  0  3  0  0  0  0  0  0
  188.1540  177.3320  144.1010 C   0  0  0  0  0  0  0  0  0  0  0  0
  185.7150  178.3920  143.2240 C   0  0  0  0  0  0  0  0  0  0  0  0
  183.7690  180.8140  144.2050 C   0  0  0  0  0  1  0  0  0  0  0  0
  184.3840  178.8100  142.9580 N   0  0  0  0  0  0  0  0  0  0  0  0
  181.7940  177.8500  140.4710 C   0  0  0  0  0  2  0  0  0  0  0  0
  184.5560  179.5420  139.6390 C   0  0  0  0  0  1  0  0  0  0  0  0
  187.4190  177.7220  146.4100 C   0  0  0  0  0  3  0  0  0  0  0  0
  187.1850  177.8050  145.0340 C   0  0  0  0  0  0  0  0  0  0  0  0
  185.1540  178.2310  140.1350 C   0  0  2  0  0  3  0  0  0  0  0  0
  190.0980  177.7550  139.6590 C   0  0  0  0  0  2  0  0  0  0  0  0
  190.3290  176.0570  138.2670 C   0  0  0  0  0  1  0  0  0  0  0  0
  190.6790  176.4890  139.5460 O   0  0  0  0  0  0  0  0  0  0  0  0
  1 19  1  0  0  0  0
  2 13  1  0  0  0  0
  4  1  2  0  0  0  0
  4 20  1  0  0  0  0
  5  1  1  0  0  0  0
  6  8  2  0  0  0  0
  7 15  1  6  0  0  0
  7  9  1  0  0  0  0
  8 11  1  0  0  0  0
  9 14  1  6  0  0  0
  9 22  1  0  0  0  0
 10 21  1  6  0  0  0
 10  3  1  0  0  0  0
 11  5  1  0  0  0  0
 12  8  1  6  0  0  0
 12  4  1  0  0  0  0
 13 18  2  0  0  0  0
 15 23  1  0  0  0  0
 16  2  1  0  0  0  0
 17 26  1  0  0  0  0
 17  3  1  0  0  0  0
 19  2  2  0  0  0  0
 19 26  1  0  0  0  0
 20 17  2  0  0  0  0
 22 20  1  0  0  0  0
 22 10  1  0  0  0  0
 23 14  1  0  0  0  0
 25 18  1  0  0  0  0
 26 25  2  0  0  0  0
 27 24  1  1  0  0  0
 27 12  1  0  0  0  0
 27  7  1  0  0  0  0
 28 11  1  0  0  0  0
 29 30  1  0  0  0  0
 30 28  1  0  0  0  0
M  END
>  <MODEL>
3

>  <REMARK>
 VINA RESULT:      -7.5      1.825      2.852
  Name = 
  2 active torsions:
  status: ('A' for Active; 'I' for Inactive)
    1  A    between atoms: N_11  and  C_28
    2  A    between atoms: C_28  and  O_30
                            x       y       z     vdW  Elec       q    Type
                         _______ _______ _______ _____ _____    ______ ____

>  <TORSDO>
F 2

$$$$
=
 OpenBabel11122410213D

 30 35  0  0  1  0  0  0  0  0999 V2000
  188.4860  177.5200  141.4090 C   0  0  0  0  0  0  0  0  0  0  0  0
  186.6690  178.1850  143.0080 C   0  0  0  0  0  0  0  0  0  0  0  0
  186.0720  178.4430  138.0160 C   0  0  0  0  0  2  0  0  0  0  0  0
  188.9200  177.3880  140.0680 C   0  0  0  0  0  0  0  0  0  0  0  0
  189.3930  177.0220  142.5000 C   0  0  0  0  0  2  0  0  0  0  0  0
  192.5620  177.2420  140.7080 O   0  0  0  0  0  0  0  0  0  0  0  0
  189.6380  175.3390  138.0820 C   0  0  1  0  0  3  0  0  0  0  0  0
  191.3160  177.2360  140.9050 C   0  0  0  0  0  0  0  0  0  0  0  0
  188.5970  176.0550  137.2230 C   0  0  2  0  0  3  0  0  0  0  0  0
  187.1190  178.0590  136.9530 C   0  0  1  0  0  3  0  0  0  0  0  0
  190.7990  177.3310  142.2390 N   0  0  0  0  0  0  0  0  0  0  0  0
  190.3830  177.2200  139.7290 C   0  0  1  0  0  3  0  0  0  0  0  0
  185.3800  178.6900  143.2090 C   0  0  0  0  0  3  0  0  0  0  0  0
  189.1240  176.0130  135.8080 C   0  0  0  0  0  2  0  0  0  0  0  0
  190.2050  174.2720  137.1570 C   0  0  0  0  0  2  0  0  0  0  0  0
  187.4250  177.8780  144.1320 O   0  0  0  0  0  1  0  0  0  0  0  0
  186.7810  178.1770  139.2940 C   0  0  0  0  0  0  0  0  0  0  0  0
  184.5690  179.0300  142.1290 C   0  0  0  0  0  3  0  0  0  0  0  0
  187.1700  178.0100  141.6900 C   0  0  0  0  0  0  0  0  0  0  0  0
  188.0130  177.6570  139.0430 C   0  0  0  0  0  0  0  0  0  0  0  0
  187.6270  179.3100  136.2620 C   0  0  0  0  0  1  0  0  0  0  0  0
  188.2220  177.4030  137.6610 N   0  0  0  0  0  0  0  0  0  0  0  0
  189.8950  174.7060  135.7260 C   0  0  0  0  0  2  0  0  0  0  0  0
  191.5910  176.9270  137.5630 C   0  0  0  0  0  1  0  0  0  0  0  0
  185.0380  178.8670  140.8280 C   0  0  0  0  0  3  0  0  0  0  0  0
  186.3220  178.3640  140.5990 C   0  0  0  0  0  0  0  0  0  0  0  0
  190.7790  176.2170  138.6390 C   0  0  2  0  0  3  0  0  0  0  0  0
  191.7240  177.5630  143.3500 C   0  0  0  0  0  2  0  0  0  0  0  0
  191.5380  177.0610  145.4910 C   0  0  0  0  0  1  0  0  0  0  0  0
  191.7360  176.4840  144.2380 O   0  0  0  0  0  0  0  0  0  0  0  0
  1 19  1  0  0  0  0
  1  5  1  0  0  0  0
  2 13  1  0  0  0  0
  2 16  1  0  0  0  0
  3 17  1  0  0  0  0
  4  1  2  0  0  0  0
  6  8  2  0  0  0  0
  7 15  1  6  0  0  0
  7 27  1  0  0  0  0
  8 11  1  0  0  0  0
  9 14  1  6  0  0  0
  9 22  1  0  0  0  0
  9  7  1  0  0  0  0
 10 21  1  1  0  0  0
 10 22  1  0  0  0  0
 10  3  1  0  0  0  0
 11  5  1  0  0  0  0
 11 28  1  0  0  0  0
 12  4  1  1  0  0  0
 12  8  1  0  0  0  0
 17 26  1  0  0  0  0
 18 13  2  0  0  0  0
 19  2  2  0  0  0  0
 20 17  2  0  0  0  0
 20  4  1  0  0  0  0
 22 20  1  0  0  0  0
 23 14  1  0  0  0  0
 23 15  1  0  0  0  0
 25 18  1  0  0  0  0
 26 25  2  0  0  0  0
 26 19  1  0  0  0  0
 27 24  1  6  0  0  0
 27 12  1  0  0  0  0
 28 30  1  0  0  0  0
 30 29  1  0  0  0  0
M  END
>  <MODEL>
4

>  <REMARK>
 VINA RESULT:      -7.3      3.340      6.352
  Name = 
  2 active torsions:
  status: ('A' for Active; 'I' for Inactive)
    1  A    between atoms: N_11  and  C_28
    2  A    between atoms: C_28  and  O_30
                            x       y       z     vdW  Elec       q    Type
                         _______ _______ _______ _____ _____    ______ ____

>  <TORSDO>
F 2

$$$$
=
 OpenBabel11122410213D

 30 35  0  0  1  0  0  0  0  0999 V2000
  186.2940  178.1420  141.9530 C   0  0  0  0  0  0  0  0  0  0  0  0
  185.6550  178.2700  144.3770 C   0  0  0  0  0  0  0  0  0  0  0  0
  182.3630  179.2030  140.6840 C   0  0  0  0  0  2  0  0  0  0  0  0
  185.9110  178.2860  140.5980 C   0  0  0  0  0  0  0  0  0  0  0  0
  187.6750  177.6230  142.2470 C   0  0  0  0  0  2  0  0  0  0  0  0
  189.2920  178.5930  139.1260 O   0  0  0  0  0  0  0  0  0  0  0  0
  185.4790  176.7000  138.1570 C   0  0  1  0  0  3  0  0  0  0  0  0
  188.3700  178.3690  139.9570 C   0  0  0  0  0  0  0  0  0  0  0  0
  184.1080  177.3750  138.1700 C   0  0  2  0  0  3  0  0  0  0  0  0
  182.6520  179.1500  139.1720 C   0  0  1  0  0  3  0  0  0  0  0  0
  188.6820  178.1770  141.3430 N   0  0  0  0  0  0  0  0  0  0  0  0
  186.9400  178.3940  139.4970 C   0  0  1  0  0  3  0  0  0  0  0  0
  184.6790  178.5370  145.3420 C   0  0  0  0  0  3  0  0  0  0  0  0
  183.7560  177.6320  136.7230 C   0  0  0  0  0  2  0  0  0  0  0  0
  185.4740  175.8860  136.8710 C   0  0  0  0  0  2  0  0  0  0  0  0
  186.9210  177.9110  144.8200 O   0  0  0  0  0  1  0  0  0  0  0  0
  183.6740  178.8520  141.2880 C   0  0  0  0  0  0  0  0  0  0  0  0
  183.3900  178.9140  144.9720 C   0  0  0  0  0  3  0  0  0  0  0  0
  185.3420  178.3780  142.9950 C   0  0  0  0  0  0  0  0  0  0  0  0
  184.5760  178.5700  140.3080 C   0  0  0  0  0  0  0  0  0  0  0  0
  182.6370  180.5550  138.6000 C   0  0  0  0  0  1  0  0  0  0  0  0
  183.9880  178.5660  139.0150 N   0  0  0  0  0  0  0  0  0  0  0  0
  184.4010  176.4850  135.9640 C   0  0  0  0  0  2  0  0  0  0  0  0
  186.7430  178.6260  137.0190 C   0  0  0  0  0  1  0  0  0  0  0  0
  183.0600  179.0270  143.6240 C   0  0  0  0  0  3  0  0  0  0  0  0
  184.0160  178.7650  142.6380 C   0  0  0  0  0  0  0  0  0  0  0  0
  186.7000  177.6430  138.1830 C   0  0  2  0  0  3  0  0  0  0  0  0
  190.0600  178.3730  141.7990 C   0  0  0  0  0  2  0  0  0  0  0  0
  191.4390  178.0590  143.4930 C   0  0  0  0  0  1  0  0  0  0  0  0
  190.1310  178.4370  143.1930 O   0  0  0  0  0  0  0  0  0  0  0  0
  1  5  1  0  0  0  0
  1 19  1  0  0  0  0
  2 16  1  0  0  0  0
  2 13  1  0  0  0  0
  3 17  1  0  0  0  0
  4  1  2  0  0  0  0
  6  8  2  0  0  0  0
  7 15  1  6  0  0  0
  7  9  1  0  0  0  0
  7 27  1  0  0  0  0
  8 11  1  0  0  0  0
  9 14  1  6  0  0  0
  9 22  1  0  0  0  0
 10 21  1  1  0  0  0
 10  3  1  0  0  0  0
 11 28  1  0  0  0  0
 11  5  1  0  0  0  0
 12  8  1  1  0  0  0
 12  4  1  0  0  0  0
 17 26  1  0  0  0  0
 18 13  2  0  0  0  0
 19  2  2  0  0  0  0
 20  4  1  0  0  0  0
 20 17  2  0  0  0  0
 22 10  1  0  0  0  0
 22 20  1  0  0  0  0
 23 14  1  0  0  0  0
 23 15  1  0  0  0  0
 25 18  1  0  0  0  0
 26 19  1  0  0  0  0
 26 25  2  0  0  0  0
 27 24  1  6  0  0  0
 27 12  1  0  0  0  0
 28 30  1  0  0  0  0
 30 29  1  0  0  0  0
M  END
>  <MODEL>
5

>  <REMARK>
 VINA RESULT:      -7.1      1.908      2.917
  Name = 
  2 active torsions:
  status: ('A' for Active; 'I' for Inactive)
    1  A    between atoms: N_11  and  C_28
    2  A    between atoms: C_28  and  O_30
                            x       y       z     vdW  Elec       q    Type
                         _______ _______ _______ _____ _____    ______ ____

>  <TORSDO>
F 2

$$$$
=
 OpenBabel11122410213D

 30 35  0  0  1  0  0  0  0  0999 V2000
  187.3250  178.2090  140.3280 C   0  0  0  0  0  0  0  0  0  0  0  0
  185.1780  179.0060  139.3020 C   0  0  0  0  0  0  0  0  0  0  0  0
  185.6600  178.2430  144.2540 C   0  0  0  0  0  2  0  0  0  0  0  0
  188.0330  177.8240  141.4920 C   0  0  0  0  0  0  0  0  0  0  0  0
  188.0830  178.2840  139.0300 C   0  0  0  0  0  2  0  0  0  0  0  0
  190.7800  175.9700  139.8470 O   0  0  0  0  0  0  0  0  0  0  0  0
  190.2520  178.6930  143.2180 C   0  0  1  0  0  3  0  0  0  0  0  0
  189.7820  176.7240  140.0110 C   0  0  0  0  0  0  0  0  0  0  0  0
  189.2100  178.5630  144.3280 C   0  0  2  0  0  3  0  0  0  0  0  0
  186.9290  177.7590  144.9810 C   0  0  1  0  0  3  0  0  0  0  0  0
  189.0350  177.1850  138.8780 N   0  0  0  0  0  0  0  0  0  0  0  0
  189.3330  177.0600  141.4040 C   0  0  1  0  0  3  0  0  0  0  0  0
  183.8400  179.3780  139.4690 C   0  0  0  0  0  3  0  0  0  0  0  0
  189.9510  178.0390  145.5360 C   0  0  0  0  0  2  0  0  0  0  0  0
  191.5310  179.0550  143.9580 C   0  0  0  0  0  2  0  0  0  0  0  0
  185.6970  179.0210  138.0130 O   0  0  0  0  0  1  0  0  0  0  0  0
  186.0840  178.2800  142.8310 C   0  0  0  0  0  0  0  0  0  0  0  0
  183.2490  179.3760  140.7300 C   0  0  0  0  0  3  0  0  0  0  0  0
  185.9580  178.6220  140.4250 C   0  0  0  0  0  0  0  0  0  0  0  0
  187.3990  177.9440  142.7290 C   0  0  0  0  0  0  0  0  0  0  0  0
  186.7200  176.3430  145.4840 C   0  0  0  0  0  1  0  0  0  0  0  0
  188.0160  177.7790  143.9980 N   0  0  0  0  0  0  0  0  0  0  0  0
  191.3460  178.6280  145.4120 C   0  0  0  0  0  2  0  0  0  0  0  0
  190.9130  176.2110  143.1420 C   0  0  0  0  0  1  0  0  0  0  0  0
  183.9930  179.0030  141.8460 C   0  0  0  0  0  3  0  0  0  0  0  0
  185.3330  178.6280  141.7080 C   0  0  0  0  0  0  0  0  0  0  0  0
  190.4790  177.4380  142.3490 C   0  0  2  0  0  3  0  0  0  0  0  0
  189.3630  176.6680  137.5470 C   0  0  0  0  0  2  0  0  0  0  0  0
  187.8520  175.2150  136.8570 C   0  0  0  0  0  1  0  0  0  0  0  0
  188.2210  176.5550  136.7490 O   0  0  0  0  0  0  0  0  0  0  0  0
  1 19  2  0  0  0  0
  1  4  1  0  0  0  0
  2 13  2  0  0  0  0
  2 19  1  0  0  0  0
  3 10  1  0  0  0  0
  4 20  2  0  0  0  0
  5  1  1  0  0  0  0
  6  8  2  0  0  0  0
  7 15  1  1  0  0  0
  7  9  1  0  0  0  0
  9 14  1  1  0  0  0
 10 21  1  6  0  0  0
 11  5  1  0  0  0  0
 11  8  1  0  0  0  0
 12  8  1  6  0  0  0
 12  4  1  0  0  0  0
 12 27  1  0  0  0  0
 13 18  1  0  0  0  0
 15 23  1  0  0  0  0
 16  2  1  0  0  0  0
 17  3  1  0  0  0  0
 18 25  2  0  0  0  0
 19 26  1  0  0  0  0
 20 17  1  0  0  0  0
 20 22  1  0  0  0  0
 22  9  1  0  0  0  0
 22 10  1  0  0  0  0
 23 14  1  0  0  0  0
 26 25  1  0  0  0  0
 26 17  2  0  0  0  0
 27 24  1  1  0  0  0
 27  7  1  0  0  0  0
 28 11  1  0  0  0  0
 30 29  1  0  0  0  0
 30 28  1  0  0  0  0
M  END
>  <MODEL>
6

>  <REMARK>
 VINA RESULT:      -7.0      2.756      6.611
  Name = 
  2 active torsions:
  status: ('A' for Active; 'I' for Inactive)
    1  A    between atoms: N_11  and  C_28
    2  A    between atoms: C_28  and  O_30
                            x       y       z     vdW  Elec       q    Type
                         _______ _______ _______ _____ _____    ______ ____

>  <TORSDO>
F 2

$$$$
=
 OpenBabel11122410213D

 30 35  0  0  1  0  0  0  0  0999 V2000
  185.5600  178.6570  140.4000 C   0  0  0  0  0  0  0  0  0  0  0  0
  188.0380  178.4080  140.0820 C   0  0  0  0  0  0  0  0  0  0  0  0
  184.7410  177.2540  136.4570 C   0  0  0  0  0  2  0  0  0  0  0  0
  184.2580  178.5110  139.8660 C   0  0  0  0  0  0  0  0  0  0  0  0
  185.7040  179.2990  141.7530 C   0  0  0  0  0  2  0  0  0  0  0  0
  182.3750  178.5670  143.0510 O   0  0  0  0  0  0  0  0  0  0  0  0
  181.9470  180.1080  138.9890 C   0  0  1  0  0  3  0  0  0  0  0  0
  183.3200  178.6800  142.2230 C   0  0  0  0  0  0  0  0  0  0  0  0
  182.1020  179.3040  137.6990 C   0  0  2  0  0  3  0  0  0  0  0  0
  183.2080  177.3720  136.5490 C   0  0  1  0  0  3  0  0  0  0  0  0
  184.6640  178.8670  142.6870 N   0  0  0  0  0  0  0  0  0  0  0  0
  183.0370  178.5290  140.7560 C   0  0  1  0  0  3  0  0  0  0  0  0
  189.1040  178.0250  139.2630 C   0  0  0  0  0  3  0  0  0  0  0  0
  180.7000  179.0500  137.1950 C   0  0  0  0  0  2  0  0  0  0  0  0
  180.7020  180.9490  138.7490 C   0  0  0  0  0  2  0  0  0  0  0  0
  188.3370  178.8770  141.3550 O   0  0  0  0  0  1  0  0  0  0  0  0
  185.1930  177.7150  137.7950 C   0  0  0  0  0  0  0  0  0  0  0  0
  188.8790  177.5350  137.9780 C   0  0  0  0  0  3  0  0  0  0  0  0
  186.7010  178.3050  139.6110 C   0  0  0  0  0  0  0  0  0  0  0  0
  184.1220  178.1070  138.5380 C   0  0  0  0  0  0  0  0  0  0  0  0
  182.5910  175.9870  136.5940 C   0  0  0  0  0  1  0  0  0  0  0  0
  182.9110  178.0860  137.7950 N   0  0  0  0  0  0  0  0  0  0  0  0
  179.9110  180.2720  137.6310 C   0  0  0  0  0  2  0  0  0  0  0  0
  180.5940  178.3410  140.2750 C   0  0  0  0  0  1  0  0  0  0  0  0
  187.5790  177.4240  137.4940 C   0  0  0  0  0  3  0  0  0  0  0  0
  186.4940  177.8010  138.2920 C   0  0  0  0  0  0  0  0  0  0  0  0
  181.7900  179.2860  140.2850 C   0  0  2  0  0  3  0  0  0  0  0  0
  184.9420  178.7940  144.1220 C   0  0  0  0  0  2  0  0  0  0  0  0
  186.3810  178.1860  145.6810 C   0  0  0  0  0  1  0  0  0  0  0  0
  185.9380  177.8550  144.4010 O   0  0  0  0  0  0  0  0  0  0  0  0
  1  5  1  0  0  0  0
  2 16  1  0  0  0  0
  3 10  1  0  0  0  0
  3 17  1  0  0  0  0
  4  1  1  0  0  0  0
  5 11  1  0  0  0  0
  7 15  1  6  0  0  0
  7 27  1  0  0  0  0
  8 11  1  0  0  0  0
  8  6  2  0  0  0  0
  9 14  1  1  0  0  0
  9 22  1  0  0  0  0
  9  7  1  0  0  0  0
 10 21  1  1  0  0  0
 10 22  1  0  0  0  0
 11 28  1  0  0  0  0
 12  4  1  6  0  0  0
 12  8  1  0  0  0  0
 13  2  2  0  0  0  0
 14 23  1  0  0  0  0
 17 26  2  0  0  0  0
 17 20  1  0  0  0  0
 18 13  1  0  0  0  0
 19  2  1  0  0  0  0
 19  1  2  0  0  0  0
 20  4  2  0  0  0  0
 22 20  1  0  0  0  0
 23 15  1  0  0  0  0
 25 18  2  0  0  0  0
 25 26  1  0  0  0  0
 26 19  1  0  0  0  0
 27 24  1  6  0  0  0
 27 12  1  0  0  0  0
 28 30  1  0  0  0  0
 30 29  1  0  0  0  0
M  END
>  <MODEL>
7

>  <REMARK>
 VINA RESULT:      -6.9      2.204      5.277
  Name = 
  2 active torsions:
  status: ('A' for Active; 'I' for Inactive)
    1  A    between atoms: N_11  and  C_28
    2  A    between atoms: C_28  and  O_30
                            x       y       z     vdW  Elec       q    Type
                         _______ _______ _______ _____ _____    ______ ____

>  <TORSDO>
F 2

$$$$
=
 OpenBabel11122410213D

 30 35  0  0  1  0  0  0  0  0999 V2000
  186.8440  178.0660  143.4600 C   0  0  0  0  0  0  0  0  0  0  0  0
  186.1790  178.1460  141.0410 C   0  0  0  0  0  0  0  0  0  0  0  0
  190.9930  178.3210  142.5040 C   0  0  0  0  0  2  0  0  0  0  0  0
  187.8790  178.0930  144.4250 C   0  0  0  0  0  0  0  0  0  0  0  0
  185.4370  177.8290  143.9360 C   0  0  0  0  0  2  0  0  0  0  0  0
  185.8280  178.9910  147.3700 O   0  0  0  0  0  0  0  0  0  0  0  0
  189.1950  176.3780  146.4220 C   0  0  1  0  0  3  0  0  0  0  0  0
  186.1450  178.6220  146.2070 C   0  0  0  0  0  0  0  0  0  0  0  0
  190.4660  176.7800  145.6750 C   0  0  2  0  0  3  0  0  0  0  0  0
  191.5050  178.2770  143.9560 C   0  0  1  0  0  3  0  0  0  0  0  0
  185.1450  178.5360  145.1830 N   0  0  0  0  0  0  0  0  0  0  0  0
  187.5870  178.3600  145.8830 C   0  0  1  0  0  3  0  0  0  0  0  0
  186.5620  178.2530  139.7000 C   0  0  0  0  0  3  0  0  0  0  0  0
  191.5410  176.9210  146.7270 C   0  0  0  0  0  2  0  0  0  0  0  0
  189.7040  175.5390  147.5850 C   0  0  0  0  0  2  0  0  0  0  0  0
  184.8220  178.0480  141.3200 O   0  0  0  0  0  1  0  0  0  0  0  0
  189.5180  178.2450  142.6670 C   0  0  0  0  0  0  0  0  0  0  0  0
  187.9040  178.3660  139.3450 C   0  0  0  0  0  3  0  0  0  0  0  0
  187.1620  178.1500  142.0670 C   0  0  0  0  0  0  0  0  0  0  0  0
  189.2030  178.1090  143.9840 C   0  0  0  0  0  0  0  0  0  0  0  0
  192.0590  179.6350  144.3430 C   0  0  0  0  0  1  0  0  0  0  0  0
  190.3530  177.9530  144.8030 N   0  0  0  0  0  0  0  0  0  0  0  0
  191.1760  175.8940  147.7860 C   0  0  0  0  0  2  0  0  0  0  0  0
  189.0500  178.4730  147.9040 C   0  0  0  0  0  1  0  0  0  0  0  0
  188.8850  178.3720  140.3330 C   0  0  0  0  0  3  0  0  0  0  0  0
  188.5310  178.2660  141.6810 C   0  0  0  0  0  0  0  0  0  0  0  0
  188.3210  177.5360  146.9470 C   0  0  2  0  0  3  0  0  0  0  0  0
  183.7870  179.0040  145.4680 C   0  0  0  0  0  2  0  0  0  0  0  0
  182.3820  179.3780  143.8080 C   0  0  0  0  0  1  0  0  0  0  0  0
  182.8480  178.3700  144.6510 O   0  0  0  0  0  0  0  0  0  0  0  0
  1  5  1  0  0  0  0
  1  4  1  0  0  0  0
  2 16  1  0  0  0  0
  2 19  1  0  0  0  0
  3 17  1  0  0  0  0
  3 10  1  0  0  0  0
  5 11  1  0  0  0  0
  7 27  1  0  0  0  0
  7 15  1  1  0  0  0
  8  6  2  0  0  0  0
  9  7  1  0  0  0  0
  9 14  1  1  0  0  0
 10 21  1  1  0  0  0
 10 22  1  0  0  0  0
 11 28  1  0  0  0  0
 11  8  1  0  0  0  0
 12  4  1  6  0  0  0
 12  8  1  0  0  0  0
 12 27  1  0  0  0  0
 13  2  2  0  0  0  0
 14 23  1  0  0  0  0
 15 23  1  0  0  0  0
 17 20  1  0  0  0  0
 18 13  1  0  0  0  0
 18 25  2  0  0  0  0
 19  1  2  0  0  0  0
 20  4  2  0  0  0  0
 20 22  1  0  0  0  0
 22  9  1  0  0  0  0
 25 26  1  0  0  0  0
 26 19  1  0  0  0  0
 26 17  2  0  0  0  0
 27 24  1  6  0  0  0
 29 30  1  0  0  0  0
 30 28  1  0  0  0  0
M  END
>  <MODEL>
8

>  <REMARK>
 VINA RESULT:      -6.5      3.303      8.322
  Name = 
  2 active torsions:
  status: ('A' for Active; 'I' for Inactive)
    1  A    between atoms: N_11  and  C_28
    2  A    between atoms: C_28  and  O_30
                            x       y       z     vdW  Elec       q    Type
                         _______ _______ _______ _____ _____    ______ ____

>  <TORSDO>
F 2

$$$$
=
 OpenBabel11122410213D

 30 35  0  0  1  0  0  0  0  0999 V2000
  191.8410  175.6220  137.9730 C   0  0  0  0  0  0  0  0  0  0  0  0
  194.0790  174.4930  137.8410 C   0  0  0  0  0  0  0  0  0  0  0  0
  190.0930  172.8540  135.2400 C   0  0  0  0  0  2  0  0  0  0  0  0
  190.4840  175.6550  137.5710 C   0  0  0  0  0  0  0  0  0  0  0  0
  192.3540  176.7470  138.8300 C   0  0  0  0  0  2  0  0  0  0  0  0
  189.1830  177.7990  140.2920 O   0  0  0  0  0  0  0  0  0  0  0  0
  188.5980  177.2760  135.9970 C   0  0  1  0  0  3  0  0  0  0  0  0
  189.9890  177.2050  139.5250 C   0  0  0  0  0  0  0  0  0  0  0  0
  188.3330  175.9540  135.2780 C   0  0  2  0  0  3  0  0  0  0  0  0
  188.6830  173.4730  135.2490 C   0  0  1  0  0  3  0  0  0  0  0  0
  191.3850  177.1590  139.8460 N   0  0  0  0  0  0  0  0  0  0  0  0
  189.4610  176.4730  138.3240 C   0  0  1  0  0  3  0  0  0  0  0  0
  194.8650  173.4570  137.3300 C   0  0  0  0  0  3  0  0  0  0  0  0
  186.8570  175.9430  134.9550 C   0  0  0  0  0  2  0  0  0  0  0  0
  187.6110  178.2430  135.3610 C   0  0  0  0  0  2  0  0  0  0  0  0
  194.6800  175.3890  138.7160 O   0  0  0  0  0  1  0  0  0  0  0  0
  190.8470  173.7260  136.1770 C   0  0  0  0  0  0  0  0  0  0  0  0
  194.3270  172.5140  136.4560 C   0  0  0  0  0  3  0  0  0  0  0  0
  192.7110  174.6020  137.4720 C   0  0  0  0  0  0  0  0  0  0  0  0
  190.0480  174.7350  136.6170 C   0  0  0  0  0  0  0  0  0  0  0  0
  187.7230  172.5460  135.9690 C   0  0  0  0  0  1  0  0  0  0  0  0
  188.7810  174.7440  135.9730 N   0  0  0  0  0  0  0  0  0  0  0  0
  186.5080  177.4030  134.7200 C   0  0  0  0  0  2  0  0  0  0  0  0
  187.0170  176.8530  137.9790 C   0  0  0  0  0  1  0  0  0  0  0  0
  192.9890  172.6000  136.0800 C   0  0  0  0  0  3  0  0  0  0  0  0
  192.1810  173.6270  136.5760 C   0  0  0  0  0  0  0  0  0  0  0  0
  188.4150  177.2630  137.5290 C   0  0  2  0  0  3  0  0  0  0  0  0
  191.8420  177.6920  141.1310 C   0  0  0  0  0  2  0  0  0  0  0  0
  191.6050  177.5650  143.3220 C   0  0  0  0  0  1  0  0  0  0  0  0
  191.6200  176.7820  142.1680 O   0  0  0  0  0  0  0  0  0  0  0  0
  1  5  1  0  0  0  0
  2 16  1  0  0  0  0
  3 10  1  0  0  0  0
  3 17  1  0  0  0  0
  4  1  1  0  0  0  0
  5 11  1  0  0  0  0
  7 15  1  6  0  0  0
  7 27  1  0  0  0  0
  8 11  1  0  0  0  0
  8  6  2  0  0  0  0
  9 14  1  1  0  0  0
  9 22  1  0  0  0  0
  9  7  1  0  0  0  0
 10 21  1  1  0  0  0
 10 22  1  0  0  0  0
 11 28  1  0  0  0  0
 12  4  1  6  0  0  0
 12  8  1  0  0  0  0
 13  2  2  0  0  0  0
 17 26  2  0  0  0  0
 17 20  1  0  0  0  0
 18 13  1  0  0  0  0
 19  2  1  0  0  0  0
 19  1  2  0  0  0  0
 20  4  2  0  0  0  0
 22 20  1  0  0  0  0
 23 14  1  0  0  0  0
 23 15  1  0  0  0  0
 25 18  2  0  0  0  0
 25 26  1  0  0  0  0
 26 19  1  0  0  0  0
 27 24  1  6  0  0  0
 27 12  1  0  0  0  0
 28 30  1  0  0  0  0
 30 29  1  0  0  0  0
M  END
>  <MODEL>
9

>  <REMARK>
 VINA RESULT:      -6.2      5.882      9.231
  Name = 
  2 active torsions:
  status: ('A' for Active; 'I' for Inactive)
    1  A    between atoms: N_11  and  C_28
    2  A    between atoms: C_28  and  O_30
                            x       y       z     vdW  Elec       q    Type
                         _______ _______ _______ _____ _____    ______ ____

>  <TORSDO>
F 2

$$$$
