=
 OpenBabel11122410443D

 32 37  0  0  1  0  0  0  0  0999 V2000
  179.7020  180.0110  142.6530 C   0  0  0  0  0  2  0  0  0  0  0  0
  184.8560  178.2690  143.9870 C   0  0  0  0  0  0  0  0  0  0  0  0
  188.1770  178.5690  140.5500 C   0  0  0  0  0  2  0  0  0  0  0  0
  189.1660  178.0200  141.5810 C   0  0  0  0  0  2  0  0  0  0  0  0
  185.9880  178.4570  146.3230 C   0  0  0  0  0  0  0  0  0  0  0  0
  187.1670  178.2220  147.1420 C   0  0  0  0  0  0  0  0  0  0  0  0
  182.4650  178.7040  143.7080 C   0  0  0  0  0  0  0  0  0  0  0  0
  183.8480  178.2250  141.7740 C   0  0  0  0  0  2  0  0  0  0  0  0
  189.2310  177.5910  147.5810 N   0  0  0  0  0  0  0  0  0  0  0  0
  181.4600  178.7160  141.3570 C   0  0  0  0  0  2  0  0  0  0  0  0
  186.8580  178.9660  141.2150 C   0  0  0  0  0  2  0  0  0  0  0  0
  184.9700  178.0860  142.5970 C   0  0  0  0  0  0  0  0  0  0  0  0
  186.2850  177.7630  141.9640 C   0  0  0  0  0  0  0  0  0  0  0  0
  187.2040  177.5930  144.3390 C   0  0  0  0  0  0  0  0  0  0  0  0
  188.6840  178.0480  148.7260 C   0  0  0  0  0  3  0  0  0  0  0  0
  179.9070  178.9220  143.7050 C   0  0  0  0  0  2  0  0  0  0  0  0
  182.5980  178.5370  142.3110 C   0  0  0  0  0  0  0  0  0  0  0  0
  187.3720  178.4610  148.4910 C   0  0  0  0  0  3  0  0  0  0  0  0
  181.2160  179.0230  144.3400 N   0  0  0  0  0  2  0  0  0  0  0  0
  180.7990  180.0710  141.5880 C   0  0  1  0  0  3  0  0  0  0  0  0
  188.5420  176.8490  142.3400 C   0  0  0  0  0  2  0  0  0  0  0  0
  187.2770  177.2810  142.9290 N   0  0  0  0  0  0  0  0  0  0  0  0
  188.4480  177.3160  145.1830 C   0  0  0  0  0  2  0  0  0  0  0  0
  183.5940  178.5740  144.5190 C   0  0  0  0  0  3  0  0  0  0  0  0
  184.9630  178.9710  146.8440 O   0  0  0  0  0  0  0  0  0  0  0  0
  190.5820  177.0770  147.4340 C   0  0  0  0  0  1  0  0  0  0  0  0
  186.0480  178.0950  144.8700 C   0  0  0  0  0  0  0  0  0  0  0  0
  188.3040  177.7000  146.6210 C   0  0  0  0  0  0  0  0  0  0  0  0
  180.2380  180.5680  140.3430 N   0  0  0  0  0  2  0  0  0  0  0  0
  181.0790  180.0790  139.2610 C   0  0  0  0  0  3  0  0  0  0  0  0
  180.2130  179.5030  138.1580 C   0  0  0  0  0  1  0  0  0  0  0  0
  181.8980  181.2250  138.7050 C   0  0  0  0  0  1  0  0  0  0  0  0
  1 16  1  0  0  0  0
  2 24  2  0  0  0  0
  2 27  1  0  0  0  0
  3 11  1  0  0  0  0
  3  4  1  0  0  0  0
  4 21  1  0  0  0  0
  5 25  2  0  0  0  0
  5  6  1  0  0  0  0
  6 18  1  0  0  0  0
  7 19  1  0  0  0  0
  7 24  1  0  0  0  0
  8 17  1  0  0  0  0
  8 12  1  0  0  0  0
  9 15  1  0  0  0  0
 10 20  1  0  0  0  0
 10 17  1  0  0  0  0
 11 13  1  0  0  0  0
 12  2  1  0  0  0  0
 13 12  2  0  0  0  0
 13 22  1  0  0  0  0
 14 27  2  0  0  0  0
 14 23  1  0  0  0  0
 16 19  1  0  0  0  0
 17  7  2  0  0  0  0
 18 15  2  0  0  0  0
 20 29  1  6  0  0  0
 20  1  1  0  0  0  0
 21 22  1  0  0  0  0
 22 14  1  0  0  0  0
 23 28  1  0  0  0  0
 26  9  1  0  0  0  0
 27  5  1  0  0  0  0
 28  6  2  0  0  0  0
 28  9  1  0  0  0  0
 30 29  1  0  0  0  0
 31 30  1  0  0  0  0
 32 30  1  0  0  0  0
M  END
>  <MODEL>
1

>  <REMARK>
 VINA RESULT:     -10.5      0.000      0.000
  Name = 
  2 active torsions:
  status: ('A' for Active; 'I' for Inactive)
    1  A    between atoms: C_20  and  N_29
    2  A    between atoms: N_29  and  C_30
                            x       y       z     vdW  Elec       q    Type
                         _______ _______ _______ _____ _____    ______ ____

>  <TORSDO>
F 2

$$$$
=
 OpenBabel11122410443D

 32 37  0  0  1  0  0  0  0  0999 V2000
  188.8480  176.7360  136.5560 C   0  0  0  0  0  2  0  0  0  0  0  0
  187.5790  177.9520  141.8750 C   0  0  0  0  0  0  0  0  0  0  0  0
  182.9350  178.5100  142.8980 C   0  0  0  0  0  2  0  0  0  0  0  0
  183.3730  178.7440  144.3460 C   0  0  0  0  0  2  0  0  0  0  0  0
  188.8520  177.1240  143.9890 C   0  0  0  0  0  0  0  0  0  0  0  0
  188.9480  177.1080  145.4410 C   0  0  0  0  0  0  0  0  0  0  0  0
  188.5270  177.6570  139.6390 C   0  0  0  0  0  0  0  0  0  0  0  0
  186.3100  178.6050  139.9060 C   0  0  0  0  0  2  0  0  0  0  0  0
  188.3470  177.5560  147.5120 N   0  0  0  0  0  0  0  0  0  0  0  0
  187.1320  178.2930  137.5940 C   0  0  0  0  0  2  0  0  0  0  0  0
  184.0950  177.9780  142.0550 C   0  0  0  0  0  2  0  0  0  0  0  0
  186.4190  178.4970  141.2960 C   0  0  0  0  0  0  0  0  0  0  0  0
  185.2720  178.9490  142.1400 C   0  0  0  0  0  0  0  0  0  0  0  0
  186.7670  178.4610  144.1500 C   0  0  0  0  0  0  0  0  0  0  0  0
  189.4790  176.8220  147.5570 C   0  0  0  0  0  3  0  0  0  0  0  0
  189.8360  177.5010  137.4360 C   0  0  0  0  0  2  0  0  0  0  0  0
  187.3470  178.1870  139.0700 C   0  0  0  0  0  0  0  0  0  0  0  0
  189.8930  176.5140  146.2610 C   0  0  0  0  0  3  0  0  0  0  0  0
  189.6400  177.2070  138.8510 N   0  0  0  0  0  2  0  0  0  0  0  0
  187.3800  176.9390  136.9370 C   0  0  1  0  0  3  0  0  0  0  0  0
  184.5780  179.6820  144.3880 C   0  0  0  0  0  2  0  0  0  0  0  0
  185.6400  179.1350  143.5460 N   0  0  0  0  0  0  0  0  0  0  0  0
  186.8570  178.4770  145.6760 C   0  0  0  0  0  2  0  0  0  0  0  0
  188.6200  177.5420  141.0280 C   0  0  0  0  0  3  0  0  0  0  0  0
  189.7130  176.5110  143.3030 O   0  0  0  0  0  0  0  0  0  0  0  0
  187.6210  178.0620  148.6630 C   0  0  0  0  0  1  0  0  0  0  0  0
  187.7070  177.8590  143.3610 C   0  0  0  0  0  0  0  0  0  0  0  0
  188.0290  177.7260  146.2220 C   0  0  0  0  0  0  0  0  0  0  0  0
  186.5500  176.8040  135.7500 N   0  0  0  0  0  2  0  0  0  0  0  0
  185.1620  176.8600  136.1820 C   0  0  0  0  0  3  0  0  0  0  0  0
  184.2640  177.1210  134.9880 C   0  0  0  0  0  1  0  0  0  0  0  0
  184.7790  175.5400  136.8160 C   0  0  0  0  0  1  0  0  0  0  0  0
  1 20  1  0  0  0  0
  1 16  1  0  0  0  0
  2 27  1  0  0  0  0
  3  4  1  0  0  0  0
  4 21  1  0  0  0  0
  5  6  1  0  0  0  0
  6 28  2  0  0  0  0
  6 18  1  0  0  0  0
  7 24  1  0  0  0  0
  8 12  1  0  0  0  0
  9 15  1  0  0  0  0
  9 26  1  0  0  0  0
 10 17  1  0  0  0  0
 11 13  1  0  0  0  0
 11  3  1  0  0  0  0
 12  2  1  0  0  0  0
 12 13  2  0  0  0  0
 13 22  1  0  0  0  0
 14 23  1  0  0  0  0
 16 19  1  0  0  0  0
 17  7  2  0  0  0  0
 17  8  1  0  0  0  0
 18 15  2  0  0  0  0
 19  7  1  0  0  0  0
 20 29  1  6  0  0  0
 20 10  1  0  0  0  0
 22 14  1  0  0  0  0
 22 21  1  0  0  0  0
 23 28  1  0  0  0  0
 24  2  2  0  0  0  0
 25  5  2  0  0  0  0
 27  5  1  0  0  0  0
 27 14  2  0  0  0  0
 28  9  1  0  0  0  0
 29 30  1  0  0  0  0
 30 32  1  0  0  0  0
 31 30  1  0  0  0  0
M  END
>  <MODEL>
2

>  <REMARK>
 VINA RESULT:      -8.9      3.071      5.763
  Name = 
  2 active torsions:
  status: ('A' for Active; 'I' for Inactive)
    1  A    between atoms: C_20  and  N_29
    2  A    between atoms: N_29  and  C_30
                            x       y       z     vdW  Elec       q    Type
                         _______ _______ _______ _____ _____    ______ ____

>  <TORSDO>
F 2

$$$$
=
 OpenBabel11122410443D

 32 37  0  0  1  0  0  0  0  0999 V2000
  188.4450  176.8480  148.4680 C   0  0  0  0  0  2  0  0  0  0  0  0
  186.7790  178.1820  143.2890 C   0  0  1  0  0  3  0  0  0  0  0  0
  189.5790  176.7170  139.6920 C   0  0  0  0  0  2  0  0  0  0  0  0
  188.5520  177.3520  138.7510 C   0  0  0  0  0  2  0  0  0  0  0  0
  184.3170  178.3740  142.4660 C   0  0  0  0  0  0  0  0  0  0  0  0
  183.4040  178.6340  141.3630 C   0  0  0  0  0  0  0  0  0  0  0  0
  187.2980  177.9990  145.6730 C   0  0  0  0  0  0  0  0  0  0  0  0
  189.0730  177.8620  144.0270 C   0  0  0  0  0  3  0  0  0  0  0  0
  182.8160  179.0820  139.2880 N   0  0  0  0  0  0  0  0  0  0  0  0
  189.7140  177.5940  146.4010 C   0  0  0  0  0  2  0  0  0  0  0  0
  189.0400  176.6450  141.1220 C   0  0  0  0  0  2  0  0  0  0  0  0
  188.1460  178.0380  142.9950 C   0  0  0  0  0  0  0  0  0  0  0  0
  188.6390  178.0460  141.5840 C   0  0  0  0  0  0  0  0  0  0  0  0
  186.2430  178.6190  140.9190 C   0  0  0  0  0  0  0  0  0  0  0  0
  181.6910  178.9620  140.0230 C   0  0  0  0  0  3  0  0  0  0  0  0
  187.6170  178.1080  148.2180 C   0  0  0  0  0  2  0  0  0  0  0  0
  188.6660  177.8350  145.3610 C   0  0  0  0  0  0  0  0  0  0  0  0
  182.0200  178.6750  141.3470 C   0  0  0  0  0  3  0  0  0  0  0  0
  186.7960  177.9870  147.0190 N   0  0  0  0  0  2  0  0  0  0  0  0
  189.3090  176.4180  147.2820 C   0  0  1  0  0  3  0  0  0  0  0  0
  188.1420  178.7290  139.2700 C   0  0  0  0  0  2  0  0  0  0  0  0
  187.6620  178.6000  140.6440 N   0  0  0  0  0  0  0  0  0  0  0  0
  185.3060  178.9170  139.7490 C   0  0  0  0  0  2  0  0  0  0  0  0
  186.3790  178.1630  144.6350 C   0  0  0  0  0  3  0  0  0  0  0  0
  183.8520  178.1200  143.6090 O   0  0  0  0  0  0  0  0  0  0  0  0
  182.8720  179.3780  137.8670 C   0  0  0  0  0  1  0  0  0  0  0  0
  185.7900  178.3950  142.1900 C   0  0  0  0  0  0  0  0  0  0  0  0
  183.8550  178.8810  140.1090 C   0  0  0  0  0  0  0  0  0  0  0  0
  190.4940  175.7330  147.7710 N   0  0  0  0  0  2  0  0  0  0  0  0
  191.6500  176.3820  147.1720 C   0  0  0  0  0  3  0  0  0  0  0  0
  192.8060  176.3780  148.1530 C   0  0  0  0  0  1  0  0  0  0  0  0
  192.0550  175.6330  145.9200 C   0  0  0  0  0  1  0  0  0  0  0  0
  2 24  1  1  0  0  0
  3 11  1  0  0  0  0
  4 21  1  0  0  0  0
  4  3  1  0  0  0  0
  5 25  2  0  0  0  0
  6  5  1  0  0  0  0
  7 19  1  0  0  0  0
  8 17  2  0  0  0  0
  9 15  1  0  0  0  0
  9 28  1  0  0  0  0
 10 20  1  0  0  0  0
 11 13  1  0  0  0  0
 12  2  1  0  0  0  0
 12  8  1  0  0  0  0
 13 12  2  0  0  0  0
 14 27  2  0  0  0  0
 15 18  2  0  0  0  0
 16  1  1  0  0  0  0
 17  7  1  0  0  0  0
 17 10  1  0  0  0  0
 18  6  1  0  0  0  0
 19 16  1  0  0  0  0
 20 29  1  1  0  0  0
 20  1  1  0  0  0  0
 21 22  1  0  0  0  0
 22 14  1  0  0  0  0
 22 13  1  0  0  0  0
 23 28  1  0  0  0  0
 23 14  1  0  0  0  0
 24  7  2  0  0  0  0
 26  9  1  0  0  0  0
 27  5  1  0  0  0  0
 27  2  1  0  0  0  0
 28  6  2  0  0  0  0
 30 29  1  0  0  0  0
 30 31  1  0  0  0  0
 32 30  1  0  0  0  0
M  END
>  <MODEL>
3

>  <REMARK>
 VINA RESULT:      -8.0      2.006      8.174
  Name = 
  2 active torsions:
  status: ('A' for Active; 'I' for Inactive)
    1  A    between atoms: C_20  and  N_29
    2  A    between atoms: N_29  and  C_30
                            x       y       z     vdW  Elec       q    Type
                         _______ _______ _______ _____ _____    ______ ____

>  <TORSDO>
F 2

$$$$
=
 OpenBabel11122410443D

 32 37  0  0  1  0  0  0  0  0999 V2000
  192.7290  175.7900  137.8030 C   0  0  0  0  0  2  0  0  0  0  0  0
  188.0660  177.8140  140.1570 C   0  0  0  0  0  0  0  0  0  0  0  0
  184.0640  177.5700  137.5410 C   0  0  0  0  0  2  0  0  0  0  0  0
  183.3470  178.1960  138.7400 C   0  0  0  0  0  2  0  0  0  0  0  0
  187.4680  177.7490  142.6890 C   0  0  0  0  0  0  0  0  0  0  0  0
  186.5070  178.0650  143.7360 C   0  0  0  0  0  0  0  0  0  0  0  0
  190.3190  177.2580  139.3820 C   0  0  0  0  0  0  0  0  0  0  0  0
  188.5660  177.7430  137.7780 C   0  0  0  0  0  2  0  0  0  0  0  0
  184.6170  178.8060  144.5880 N   0  0  0  0  0  0  0  0  0  0  0  0
  190.7830  177.1270  136.8710 C   0  0  0  0  0  2  0  0  0  0  0  0
  185.4790  177.1310  137.9180 C   0  0  0  0  0  2  0  0  0  0  0  0
  187.6580  177.9610  138.8190 C   0  0  0  0  0  0  0  0  0  0  0  0
  186.2500  178.3270  138.4760 C   0  0  0  0  0  0  0  0  0  0  0  0
  185.8820  178.6110  140.9850 C   0  0  0  0  0  0  0  0  0  0  0  0
  185.3830  178.3580  145.6040 C   0  0  0  0  0  3  0  0  0  0  0  0
  192.8040  176.9180  138.8300 C   0  0  0  0  0  2  0  0  0  0  0  0
  189.8890  177.3880  138.0420 C   0  0  0  0  0  0  0  0  0  0  0  0
  186.5930  177.8760  145.1040 C   0  0  0  0  0  3  0  0  0  0  0  0
  191.6630  176.8980  139.7390 N   0  0  0  0  0  2  0  0  0  0  0  0
  191.4240  175.7500  137.0060 C   0  0  1  0  0  3  0  0  0  0  0  0
  184.1690  179.3570  139.2970 C   0  0  0  0  0  2  0  0  0  0  0  0
  185.5140  178.8830  139.6140 N   0  0  0  0  0  0  0  0  0  0  0  0
  184.8650  178.9720  142.0680 C   0  0  0  0  0  2  0  0  0  0  0  0
  189.4020  177.4650  140.4140 C   0  0  0  0  0  3  0  0  0  0  0  0
  188.5610  177.2030  142.9940 O   0  0  0  0  0  0  0  0  0  0  0  0
  183.2880  179.3790  144.7180 C   0  0  0  0  0  1  0  0  0  0  0  0
  187.1050  178.0700  141.2710 C   0  0  0  0  0  0  0  0  0  0  0  0
  185.3060  178.6240  143.4540 C   0  0  0  0  0  0  0  0  0  0  0  0
  191.6780  175.1900  135.6890 N   0  0  0  0  0  2  0  0  0  0  0  0
  191.0280  173.8900  135.6360 C   0  0  0  0  0  3  0  0  0  0  0  0
  192.0710  172.7920  135.7200 C   0  0  0  0  0  1  0  0  0  0  0  0
  190.0700  173.7580  136.8000 C   0  0  0  0  0  1  0  0  0  0  0  0
  1 16  1  0  0  0  0
  2 24  2  0  0  0  0
  2 27  1  0  0  0  0
  3 11  1  0  0  0  0
  3  4  1  0  0  0  0
  4 21  1  0  0  0  0
  5 25  2  0  0  0  0
  5  6  1  0  0  0  0
  6 18  1  0  0  0  0
  7 19  1  0  0  0  0
  7 24  1  0  0  0  0
  8 17  1  0  0  0  0
  8 12  1  0  0  0  0
  9 26  1  0  0  0  0
  9 15  1  0  0  0  0
 10 20  1  0  0  0  0
 10 17  1  0  0  0  0
 11 13  1  0  0  0  0
 12  2  1  0  0  0  0
 13 12  2  0  0  0  0
 13 22  1  0  0  0  0
 14 27  2  0  0  0  0
 14 23  1  0  0  0  0
 16 19  1  0  0  0  0
 17  7  2  0  0  0  0
 18 15  2  0  0  0  0
 20 29  1  6  0  0  0
 20  1  1  0  0  0  0
 21 22  1  0  0  0  0
 22 14  1  0  0  0  0
 23 28  1  0  0  0  0
 27  5  1  0  0  0  0
 28  6  2  0  0  0  0
 28  9  1  0  0  0  0
 30 29  1  0  0  0  0
 30 31  1  0  0  0  0
 30 32  1  0  0  0  0
M  END
>  <MODEL>
4

>  <REMARK>
 VINA RESULT:      -7.9      4.097      8.208
  Name = 
  2 active torsions:
  status: ('A' for Active; 'I' for Inactive)
    1  A    between atoms: C_20  and  N_29
    2  A    between atoms: N_29  and  C_30
                            x       y       z     vdW  Elec       q    Type
                         _______ _______ _______ _____ _____    ______ ____

>  <TORSDO>
F 2

$$$$
=
 OpenBabel11122410443D

 32 37  0  0  1  0  0  0  0  0999 V2000
  181.3020  178.7000  139.2700 C   0  0  0  0  0  2  0  0  0  0  0  0
  186.8330  178.1160  139.9350 C   0  0  1  0  0  3  0  0  0  0  0  0
  188.3520  176.9310  144.3190 C   0  0  0  0  0  2  0  0  0  0  0  0
  189.7660  176.9260  143.7310 C   0  0  0  0  0  2  0  0  0  0  0  0
  188.5130  177.2340  138.1530 C   0  0  0  0  0  0  0  0  0  0  0  0
  189.8880  176.8930  137.8200 C   0  0  0  0  0  0  0  0  0  0  0  0
  184.5350  178.6890  139.3230 C   0  0  0  0  0  0  0  0  0  0  0  0
  185.2420  178.8030  141.6400 C   0  0  0  0  0  3  0  0  0  0  0  0
  192.0430  176.6090  138.1730 N   0  0  0  0  0  0  0  0  0  0  0  0
  182.8760  179.3400  141.1560 C   0  0  0  0  0  2  0  0  0  0  0  0
  187.3000  177.0100  143.2110 C   0  0  0  0  0  2  0  0  0  0  0  0
  186.5300  178.3970  141.2790 C   0  0  0  0  0  0  0  0  0  0  0  0
  187.5590  178.2470  142.3520 C   0  0  0  0  0  0  0  0  0  0  0  0
  189.2180  177.7720  140.4720 C   0  0  0  0  0  0  0  0  0  0  0  0
  191.7840  176.2760  136.8910 C   0  0  0  0  0  3  0  0  0  0  0  0
  182.2780  179.4940  138.4020 C   0  0  0  0  0  2  0  0  0  0  0  0
  184.2390  178.9480  140.6800 C   0  0  0  0  0  0  0  0  0  0  0  0
  190.4250  176.4410  136.6260 C   0  0  0  0  0  3  0  0  0  0  0  0
  183.5620  178.8150  138.2740 N   0  0  0  0  0  2  0  0  0  0  0  0
  181.8440  178.3360  140.6530 C   0  0  1  0  0  3  0  0  0  0  0  0
  189.9720  178.1530  142.8440 C   0  0  0  0  0  2  0  0  0  0  0  0
  188.9250  178.1880  141.8250 N   0  0  0  0  0  0  0  0  0  0  0  0
  190.6730  177.4400  140.1400 C   0  0  0  0  0  2  0  0  0  0  0  0
  185.8210  178.2720  138.9750 C   0  0  0  0  0  3  0  0  0  0  0  0
  187.6130  177.1070  137.2810 O   0  0  0  0  0  0  0  0  0  0  0  0
  193.3460  176.5640  138.8120 C   0  0  0  0  0  1  0  0  0  0  0  0
  188.2160  177.7060  139.5440 C   0  0  0  0  0  0  0  0  0  0  0  0
  190.8850  176.9820  138.7330 C   0  0  0  0  0  0  0  0  0  0  0  0
  180.7410  178.2440  141.5960 N   0  0  0  0  0  2  0  0  0  0  0  0
  180.9480  179.2680  142.6080 C   0  0  0  0  0  3  0  0  0  0  0  0
  179.8120  180.2710  142.5630 C   0  0  0  0  0  1  0  0  0  0  0  0
  180.9880  178.6210  143.9760 C   0  0  0  0  0  1  0  0  0  0  0  0
  1 20  1  0  0  0  0
  2 24  1  6  0  0  0
  2 12  1  0  0  0  0
  4  3  1  0  0  0  0
  5 27  1  0  0  0  0
  6  5  1  0  0  0  0
  6 28  2  0  0  0  0
  7 17  1  0  0  0  0
  9 28  1  0  0  0  0
  9 26  1  0  0  0  0
 11  3  1  0  0  0  0
 12  8  1  0  0  0  0
 12 13  2  0  0  0  0
 13 11  1  0  0  0  0
 14 22  1  0  0  0  0
 15  9  1  0  0  0  0
 16  1  1  0  0  0  0
 17 10  1  0  0  0  0
 17  8  2  0  0  0  0
 18 15  2  0  0  0  0
 18  6  1  0  0  0  0
 19 16  1  0  0  0  0
 19  7  1  0  0  0  0
 20 10  1  0  0  0  0
 20 29  1  1  0  0  0
 21  4  1  0  0  0  0
 22 13  1  0  0  0  0
 22 21  1  0  0  0  0
 23 14  1  0  0  0  0
 24  7  2  0  0  0  0
 25  5  2  0  0  0  0
 27  2  1  0  0  0  0
 27 14  2  0  0  0  0
 28 23  1  0  0  0  0
 29 30  1  0  0  0  0
 30 32  1  0  0  0  0
 31 30  1  0  0  0  0
M  END
>  <MODEL>
5

>  <REMARK>
 VINA RESULT:      -7.9      3.273      6.172
  Name = 
  2 active torsions:
  status: ('A' for Active; 'I' for Inactive)
    1  A    between atoms: C_20  and  N_29
    2  A    between atoms: N_29  and  C_30
                            x       y       z     vdW  Elec       q    Type
                         _______ _______ _______ _____ _____    ______ ____

>  <TORSDO>
F 2

$$$$
