=
 OpenBabel11122411273D

 37 42  0  0  1  0  0  0  0  0999 V2000
  187.8590  177.5200  136.5220 C   0  0  0  0  0  0  0  0  0  0  0  0
  184.7510  177.9210  139.2860 C   0  0  0  0  0  0  0  0  0  0  0  0
  182.8750  180.0970  138.5030 C   0  0  0  0  0  1  0  0  0  0  0  0
  187.0900  178.1950  138.8640 C   0  0  0  0  0  0  0  0  0  0  0  0
  183.5060  177.6280  138.5120 C   0  0  1  0  0  3  0  0  0  0  0  0
  185.8200  177.8200  138.4630 C   0  0  0  0  0  0  0  0  0  0  0  0
  182.4050  178.6650  138.7610 C   0  0  1  0  0  3  0  0  0  0  0  0
  187.2560  178.6620  140.1360 N   0  0  0  0  0  0  0  0  0  0  0  0
  185.4680  177.5260  137.1360 N   0  0  0  0  0  0  0  0  0  0  0  0
  188.0770  176.0290  136.7100 C   0  0  0  0  0  1  0  0  0  0  0  0
  183.7030  178.7950  141.4130 C   0  0  0  0  0  2  0  0  0  0  0  0
  186.1940  178.7830  140.9960 C   0  0  0  0  0  3  0  0  0  0  0  0
  186.4100  177.7750  136.0490 C   0  0  0  0  0  2  0  0  0  0  0  0
  184.8960  178.4210  140.5840 C   0  0  0  0  0  0  0  0  0  0  0  0
  184.0070  177.5430  137.0360 C   0  0  1  0  0  3  0  0  0  0  0  0
  188.1930  178.2620  137.8400 C   0  0  0  0  0  2  0  0  0  0  0  0
  181.7880  178.4690  140.1660 C   0  0  1  0  0  3  0  0  0  0  0  0
  188.8080  178.0050  135.4470 C   0  0  0  0  0  1  0  0  0  0  0  0
  182.6230  177.9250  141.1760 O   0  0  0  0  0  0  0  0  0  0  0  0
  182.8580  175.2110  137.1910 C   0  0  0  0  0  2  0  0  0  0  0  0
  181.5100  174.8670  136.7450 N   0  0  0  0  0  0  0  0  0  0  0  0
  180.4630  176.7530  135.6660 C   0  0  0  0  0  0  0  0  0  0  0  0
  180.6580  176.0250  136.9600 C   0  0  0  0  0  2  0  0  0  0  0  0
  181.6140  177.3330  134.8920 C   0  0  1  0  0  3  0  0  0  0  0  0
  181.8380  178.6650  135.2390 O   0  0  0  0  0  1  0  0  0  0  0  0
  182.9110  176.5150  134.9190 C   0  0  0  0  0  2  0  0  0  0  0  0
  179.3290  176.9120  135.2460 O   0  0  0  0  0  0  0  0  0  0  0  0
  183.5270  176.2800  136.3060 C   0  0  1  0  0  3  0  0  0  0  0  0
  180.1460  174.4350  138.7090 C   0  0  0  0  0  1  0  0  0  0  0  0
  181.0270  173.8250  137.6350 C   0  0  0  0  0  2  0  0  0  0  0  0
  180.2340  180.4230  139.7520 C   0  0  0  0  0  3  0  0  0  0  0  0
  180.8000  179.4960  140.6380 C   0  0  0  0  0  0  0  0  0  0  0  0
  180.4210  179.5060  141.9850 C   0  0  0  0  0  3  0  0  0  0  0  0
  179.1270  180.4490  143.7520 F   0  0  0  0  0  0  0  0  0  0  0  0
  178.9310  181.3670  141.5610 C   0  0  0  0  0  3  0  0  0  0  0  0
  179.4900  180.4410  142.4470 C   0  0  0  0  0  0  0  0  0  0  0  0
  179.3030  181.3580  140.2140 C   0  0  0  0  0  3  0  0  0  0  0  0
  1 10  1  0  0  0  0
  1 16  1  0  0  0  0
  2 14  1  0  0  0  0
  4  8  2  0  0  0  0
  5  7  1  0  0  0  0
  5  2  1  1  0  0  0
  6  4  1  0  0  0  0
  6  2  2  0  0  0  0
  7  3  1  1  0  0  0
  7 17  1  0  0  0  0
  8 12  1  0  0  0  0
  9  6  1  0  0  0  0
 13  1  1  0  0  0  0
 13  9  1  0  0  0  0
 14 12  2  0  0  0  0
 14 11  1  0  0  0  0
 15  9  1  1  0  0  0
 15  5  1  0  0  0  0
 16  4  1  0  0  0  0
 17 32  1  1  0  0  0
 17 19  1  0  0  0  0
 18  1  1  0  0  0  0
 19 11  1  0  0  0  0
 21 23  1  0  0  0  0
 21 20  1  0  0  0  0
 21 30  1  0  0  0  0
 22 23  1  0  0  0  0
 24 26  1  0  0  0  0
 24 25  1  1  0  0  0
 24 22  1  0  0  0  0
 27 22  2  0  0  0  0
 28 26  1  6  0  0  0
 28 15  1  0  0  0  0
 28 20  1  0  0  0  0
 30 29  1  0  0  0  0
 31 37  2  0  0  0  0
 31 32  1  0  0  0  0
 32 33  2  0  0  0  0
 33 36  1  0  0  0  0
 35 36  2  0  0  0  0
 36 34  1  0  0  0  0
 37 35  1  0  0  0  0
M  END
>  <MODEL>
1

>  <REMARK>
 VINA RESULT:      -5.7      0.000      0.000
  Name = 
  3 active torsions:
  status: ('A' for Active; 'I' for Inactive)
    1  A    between atoms: N_4  and  C_37
    2  A    between atoms: C_21  and  C_27
    3  A    between atoms: C_23  and  C_30
                            x       y       z     vdW  Elec       q    Type
                         _______ _______ _______ _____ _____    ______ ____

>  <TORSDO>
F 3

$$$$
=
 OpenBabel11122411273D

 37 42  0  0  1  0  0  0  0  0999 V2000
  186.4340  177.5360  137.2560 C   0  0  0  0  0  0  0  0  0  0  0  0
  188.7690  178.1670  140.6640 C   0  0  0  0  0  0  0  0  0  0  0  0
  189.4670  175.5960  141.9930 C   0  0  0  0  0  1  0  0  0  0  0  0
  186.6130  178.4050  139.6530 C   0  0  0  0  0  0  0  0  0  0  0  0
  190.0630  177.4750  140.3790 C   0  0  1  0  0  3  0  0  0  0  0  0
  187.9380  178.0100  139.6070 C   0  0  0  0  0  0  0  0  0  0  0  0
  190.5290  176.6020  141.5490 C   0  0  1  0  0  3  0  0  0  0  0  0
  186.1490  178.9840  140.7990 N   0  0  0  0  0  0  0  0  0  0  0  0
  188.4890  177.2200  138.5860 N   0  0  0  0  0  0  0  0  0  0  0  0
  186.9220  178.7440  136.4760 C   0  0  0  0  0  1  0  0  0  0  0  0
  189.1170  178.6730  143.1160 C   0  0  0  0  0  2  0  0  0  0  0  0
  186.9610  179.1540  141.8920 C   0  0  0  0  0  3  0  0  0  0  0  0
  187.6280  176.6100  137.5780 C   0  0  0  0  0  2  0  0  0  0  0  0
  188.3050  178.7350  141.8550 C   0  0  0  0  0  0  0  0  0  0  0  0
  189.7760  176.7010  139.0540 C   0  0  1  0  0  3  0  0  0  0  0  0
  185.6900  178.0100  138.5310 C   0  0  0  0  0  2  0  0  0  0  0  0
  191.0540  177.4860  142.7050 C   0  0  1  0  0  3  0  0  0  0  0  0
  185.4560  176.7750  136.3870 C   0  0  0  0  0  1  0  0  0  0  0  0
  190.4930  178.7820  142.8430 O   0  0  0  0  0  0  0  0  0  0  0  0
  192.3060  176.7880  138.4450 C   0  0  0  0  0  2  0  0  0  0  0  0
  193.0570  175.8010  137.6720 N   0  0  0  0  0  0  0  0  0  0  0  0
  191.5920  174.0630  136.8610 C   0  0  0  0  0  0  0  0  0  0  0  0
  192.5060  174.4880  137.9690 C   0  0  0  0  0  2  0  0  0  0  0  0
  190.3700  174.8540  136.4840 C   0  0  1  0  0  3  0  0  0  0  0  0
  189.2410  174.3930  137.1610 O   0  0  0  0  0  1  0  0  0  0  0  0
  190.5080  176.3790  136.5840 C   0  0  0  0  0  2  0  0  0  0  0  0
  191.8290  173.0230  136.2700 O   0  0  0  0  0  0  0  0  0  0  0  0
  190.8460  176.9310  137.9770 C   0  0  1  0  0  3  0  0  0  0  0  0
  194.9390  174.3870  138.2750 C   0  0  0  0  0  1  0  0  0  0  0  0
  194.4150  175.8070  138.1890 C   0  0  0  0  0  2  0  0  0  0  0  0
  191.1820  177.4200  145.2320 C   0  0  0  0  0  3  0  0  0  0  0  0
  191.4090  176.8020  143.9940 C   0  0  0  0  0  0  0  0  0  0  0  0
  191.9530  175.5150  143.9520 C   0  0  0  0  0  3  0  0  0  0  0  0
  192.8060  173.6030  145.0940 F   0  0  0  0  0  0  0  0  0  0  0  0
  192.0530  175.4690  146.3720 C   0  0  0  0  0  3  0  0  0  0  0  0
  192.2770  174.8490  145.1380 C   0  0  0  0  0  0  0  0  0  0  0  0
  191.5060  176.7540  146.4180 C   0  0  0  0  0  3  0  0  0  0  0  0
  1 13  1  0  0  0  0
  1 16  1  0  0  0  0
  2 14  1  0  0  0  0
  4  8  2  0  0  0  0
  5  2  1  1  0  0  0
  5  7  1  0  0  0  0
  6  4  1  0  0  0  0
  6  2  2  0  0  0  0
  7  3  1  1  0  0  0
  7 17  1  0  0  0  0
  8 12  1  0  0  0  0
  9  6  1  0  0  0  0
 10  1  1  0  0  0  0
 13  9  1  0  0  0  0
 14 12  2  0  0  0  0
 14 11  1  0  0  0  0
 15  9  1  6  0  0  0
 15  5  1  0  0  0  0
 16  4  1  0  0  0  0
 17 19  1  0  0  0  0
 17 32  1  1  0  0  0
 18  1  1  0  0  0  0
 19 11  1  0  0  0  0
 21 23  1  0  0  0  0
 21 30  1  0  0  0  0
 21 20  1  0  0  0  0
 22 23  1  0  0  0  0
 24 26  1  0  0  0  0
 24 22  1  0  0  0  0
 24 25  1  1  0  0  0
 27 22  2  0  0  0  0
 28 26  1  6  0  0  0
 28 20  1  0  0  0  0
 28 15  1  0  0  0  0
 30 29  1  0  0  0  0
 31 37  1  0  0  0  0
 32 31  2  0  0  0  0
 33 32  1  0  0  0  0
 33 36  2  0  0  0  0
 34 36  1  0  0  0  0
 35 37  2  0  0  0  0
 36 35  1  0  0  0  0
M  END
>  <MODEL>
2

>  <REMARK>
 VINA RESULT:      -5.5      5.703      9.296
  Name = 
  3 active torsions:
  status: ('A' for Active; 'I' for Inactive)
    1  A    between atoms: N_4  and  C_37
    2  A    between atoms: C_21  and  C_27
    3  A    between atoms: C_23  and  C_30
                            x       y       z     vdW  Elec       q    Type
                         _______ _______ _______ _____ _____    ______ ____

>  <TORSDO>
F 3

$$$$
=
 OpenBabel11122411273D

 37 42  0  0  1  0  0  0  0  0999 V2000
  180.1660  172.0930  135.8430 C   0  0  0  0  0  0  0  0  0  0  0  0
  184.0890  173.2530  136.6980 C   0  0  0  0  0  0  0  0  0  0  0  0
  184.9100  175.5970  135.0560 C   0  0  0  0  0  1  0  0  0  0  0  0
  182.6700  171.5920  135.7230 C   0  0  0  0  0  0  0  0  0  0  0  0
  183.9720  174.6470  137.2260 C   0  0  1  0  0  3  0  0  0  0  0  0
  182.8550  172.7920  136.3850 C   0  0  0  0  0  0  0  0  0  0  0  0
  184.9840  175.6020  136.5820 C   0  0  1  0  0  3  0  0  0  0  0  0
  183.7710  170.8540  135.3980 N   0  0  0  0  0  0  0  0  0  0  0  0
  181.8430  173.7430  136.5900 N   0  0  0  0  0  0  0  0  0  0  0  0
  179.8320  171.5550  137.2230 C   0  0  0  0  0  1  0  0  0  0  0  0
  186.6000  173.1310  136.4390 C   0  0  0  0  0  2  0  0  0  0  0  0
  185.0370  171.2930  135.6940 C   0  0  0  0  0  3  0  0  0  0  0  0
  180.5430  173.5880  135.9470 C   0  0  0  0  0  2  0  0  0  0  0  0
  185.2310  172.5240  136.3510 C   0  0  0  0  0  0  0  0  0  0  0  0
  182.4750  175.0070  136.9730 C   0  0  1  0  0  3  0  0  0  0  0  0
  181.2970  171.2390  135.2150 C   0  0  0  0  0  2  0  0  0  0  0  0
  186.4060  175.3270  137.1260 C   0  0  1  0  0  3  0  0  0  0  0  0
  178.9330  171.9670  134.9740 C   0  0  0  0  0  1  0  0  0  0  0  0
  186.7020  174.0020  137.5400 O   0  0  0  0  0  0  0  0  0  0  0  0
  182.7010  176.0320  139.3560 C   0  0  0  0  0  2  0  0  0  0  0  0
  182.4970  177.4300  139.7330 N   0  0  0  0  0  0  0  0  0  0  0  0
  181.7520  178.7220  137.8370 C   0  0  0  0  0  0  0  0  0  0  0  0
  182.9390  178.2610  138.6250 C   0  0  0  0  0  2  0  0  0  0  0  0
  180.8110  177.7570  137.1680 C   0  0  1  0  0  3  0  0  0  0  0  0
  181.1900  177.5140  135.8490 O   0  0  0  0  0  1  0  0  0  0  0  0
  180.5430  176.4540  137.9310 C   0  0  0  0  0  2  0  0  0  0  0  0
  181.5630  179.9190  137.7040 O   0  0  0  0  0  0  0  0  0  0  0  0
  181.7730  175.5780  138.2140 C   0  0  1  0  0  3  0  0  0  0  0  0
  184.4330  178.7260  140.4210 C   0  0  0  0  0  1  0  0  0  0  0  0
  183.3970  177.7010  140.8410 C   0  0  0  0  0  2  0  0  0  0  0  0
  188.2840  175.5060  135.4390 C   0  0  0  0  0  3  0  0  0  0  0  0
  187.5460  176.0680  136.4900 C   0  0  0  0  0  0  0  0  0  0  0  0
  187.8570  177.3540  136.9440 C   0  0  0  0  0  3  0  0  0  0  0  0
  189.2030  179.3180  136.8010 F   0  0  0  0  0  0  0  0  0  0  0  0
  189.6410  177.5080  135.3120 C   0  0  0  0  0  3  0  0  0  0  0  0
  188.9030  178.0730  136.3580 C   0  0  0  0  0  0  0  0  0  0  0  0
  189.3300  176.2250  134.8530 C   0  0  0  0  0  3  0  0  0  0  0  0
  1 13  1  0  0  0  0
  1 10  1  0  0  0  0
  4  6  2  0  0  0  0
  5  2  1  6  0  0  0
  6  9  1  0  0  0  0
  6  2  1  0  0  0  0
  7  3  1  6  0  0  0
  7 17  1  0  0  0  0
  7  5  1  0  0  0  0
  8 12  2  0  0  0  0
  8  4  1  0  0  0  0
 11 19  1  0  0  0  0
 12 14  1  0  0  0  0
 13  9  1  0  0  0  0
 14 11  1  0  0  0  0
 14  2  2  0  0  0  0
 15  9  1  1  0  0  0
 15  5  1  0  0  0  0
 15 28  1  0  0  0  0
 16  4  1  0  0  0  0
 16  1  1  0  0  0  0
 17 32  1  6  0  0  0
 17 19  1  0  0  0  0
 18  1  1  0  0  0  0
 20 21  1  0  0  0  0
 21 30  1  0  0  0  0
 22 23  1  0  0  0  0
 23 21  1  0  0  0  0
 24 25  1  6  0  0  0
 24 22  1  0  0  0  0
 24 26  1  0  0  0  0
 27 22  2  0  0  0  0
 28 26  1  6  0  0  0
 28 20  1  0  0  0  0
 29 30  1  0  0  0  0
 31 32  1  0  0  0  0
 32 33  2  0  0  0  0
 35 36  2  0  0  0  0
 36 34  1  0  0  0  0
 36 33  1  0  0  0  0
 37 35  1  0  0  0  0
 37 31  2  0  0  0  0
M  END
>  <MODEL>
3

>  <REMARK>
 VINA RESULT:      -5.4      3.264      7.599
  Name = 
  3 active torsions:
  status: ('A' for Active; 'I' for Inactive)
    1  A    between atoms: N_4  and  C_37
    2  A    between atoms: C_21  and  C_27
    3  A    between atoms: C_23  and  C_30
                            x       y       z     vdW  Elec       q    Type
                         _______ _______ _______ _____ _____    ______ ____

>  <TORSDO>
F 3

$$$$
=
 OpenBabel11122411273D

 37 42  0  0  1  0  0  0  0  0999 V2000
  188.0900  178.0310  137.7060 C   0  0  0  0  0  0  0  0  0  0  0  0
  184.7690  176.0600  136.1100 C   0  0  0  0  0  0  0  0  0  0  0  0
  183.4550  174.3250  138.1410 C   0  0  0  0  0  1  0  0  0  0  0  0
  187.1530  176.2610  136.1190 C   0  0  0  0  0  0  0  0  0  0  0  0
  183.6060  176.5520  136.9110 C   0  0  1  0  0  3  0  0  0  0  0  0
  185.9020  176.6460  136.5640 C   0  0  0  0  0  0  0  0  0  0  0  0
  182.6960  175.4110  137.3790 C   0  0  1  0  0  3  0  0  0  0  0  0
  187.2320  175.2710  135.1820 N   0  0  0  0  0  0  0  0  0  0  0  0
  185.6820  177.4900  137.6640 N   0  0  0  0  0  0  0  0  0  0  0  0
  187.9990  179.2730  136.8370 C   0  0  0  0  0  1  0  0  0  0  0  0
  183.6280  174.1860  134.8550 C   0  0  0  0  0  2  0  0  0  0  0  0
  186.1050  174.6510  134.7030 C   0  0  0  0  0  3  0  0  0  0  0  0
  186.7910  177.8790  138.5290 C   0  0  0  0  0  2  0  0  0  0  0  0
  184.8300  175.0280  135.1680 C   0  0  0  0  0  0  0  0  0  0  0  0
  184.2770  177.3710  138.0580 C   0  0  1  0  0  3  0  0  0  0  0  0
  188.3760  176.7960  136.8160 C   0  0  0  0  0  2  0  0  0  0  0  0
  181.8700  174.8600  136.1920 C   0  0  1  0  0  3  0  0  0  0  0  0
  189.2480  178.2090  138.6650 C   0  0  0  0  0  1  0  0  0  0  0  0
  182.4460  174.9500  134.8980 O   0  0  0  0  0  0  0  0  0  0  0  0
  182.2990  178.9930  137.5700 C   0  0  0  0  0  2  0  0  0  0  0  0
  181.2760  179.4380  138.5140 N   0  0  0  0  0  0  0  0  0  0  0  0
  181.7220  178.5730  140.7210 C   0  0  0  0  0  0  0  0  0  0  0  0
  181.0040  178.3410  139.4280 C   0  0  0  0  0  2  0  0  0  0  0  0
  183.2190  178.6970  140.7950 C   0  0  1  0  0  3  0  0  0  0  0  0
  183.8160  177.4640  141.0540 O   0  0  0  0  0  1  0  0  0  0  0  0
  183.8850  179.4130  139.6130 C   0  0  0  0  0  2  0  0  0  0  0  0
  181.0730  178.6280  141.7530 O   0  0  0  0  0  0  0  0  0  0  0  0
  183.6710  178.7710  138.2340 C   0  0  1  0  0  3  0  0  0  0  0  0
  180.3930  180.3460  136.4400 C   0  0  0  0  0  1  0  0  0  0  0  0
  180.0610  179.6500  137.7460 C   0  0  0  0  0  2  0  0  0  0  0  0
  179.9150  173.6750  137.2770 C   0  0  0  0  0  3  0  0  0  0  0  0
  181.0360  173.6350  136.4380 C   0  0  0  0  0  0  0  0  0  0  0  0
  181.3770  172.4410  135.7930 C   0  0  0  0  0  3  0  0  0  0  0  0
  180.9420  170.1360  135.3680 F   0  0  0  0  0  0  0  0  0  0  0  0
  179.4910  171.3330  136.8340 C   0  0  0  0  0  3  0  0  0  0  0  0
  180.6070  171.2910  135.9920 C   0  0  0  0  0  0  0  0  0  0  0  0
  179.1450  172.5250  137.4760 C   0  0  0  0  0  3  0  0  0  0  0  0
  1 13  1  0  0  0  0
  1 18  1  0  0  0  0
  2  6  1  0  0  0  0
  4  6  2  0  0  0  0
  4 16  1  0  0  0  0
  5  2  1  6  0  0  0
  5  7  1  0  0  0  0
  5 15  1  0  0  0  0
  6  9  1  0  0  0  0
  7  3  1  6  0  0  0
  8  4  1  0  0  0  0
  9 13  1  0  0  0  0
 10  1  1  0  0  0  0
 11 19  1  0  0  0  0
 11 14  1  0  0  0  0
 12 14  1  0  0  0  0
 12  8  2  0  0  0  0
 14  2  2  0  0  0  0
 15  9  1  6  0  0  0
 15 28  1  0  0  0  0
 16  1  1  0  0  0  0
 17 32  1  1  0  0  0
 17  7  1  0  0  0  0
 19 17  1  0  0  0  0
 20 21  1  0  0  0  0
 21 23  1  0  0  0  0
 22 24  1  0  0  0  0
 22 27  2  0  0  0  0
 23 22  1  0  0  0  0
 24 25  1  6  0  0  0
 26 24  1  0  0  0  0
 28 20  1  1  0  0  0
 28 26  1  0  0  0  0
 29 30  1  0  0  0  0
 30 21  1  0  0  0  0
 31 37  1  0  0  0  0
 32 31  2  0  0  0  0
 33 36  2  0  0  0  0
 33 32  1  0  0  0  0
 34 36  1  0  0  0  0
 35 37  2  0  0  0  0
 36 35  1  0  0  0  0
M  END
>  <MODEL>
4

>  <REMARK>
 VINA RESULT:      -5.2      3.055      6.198
  Name = 
  3 active torsions:
  status: ('A' for Active; 'I' for Inactive)
    1  A    between atoms: N_4  and  C_37
    2  A    between atoms: C_21  and  C_27
    3  A    between atoms: C_23  and  C_30
                            x       y       z     vdW  Elec       q    Type
                         _______ _______ _______ _____ _____    ______ ____

>  <TORSDO>
F 3

$$$$
=
 OpenBabel11122411273D

 37 42  0  0  1  0  0  0  0  0999 V2000
  181.7190  178.5010  136.7870 C   0  0  0  0  0  0  0  0  0  0  0  0
  184.2000  175.1860  137.3520 C   0  0  0  0  0  0  0  0  0  0  0  0
  185.6270  174.4570  134.8430 C   0  0  0  0  0  1  0  0  0  0  0  0
  181.9510  175.9930  137.2180 C   0  0  0  0  0  0  0  0  0  0  0  0
  185.5810  175.6860  137.0740 C   0  0  1  0  0  3  0  0  0  0  0  0
  183.3180  176.2000  137.1860 C   0  0  0  0  0  0  0  0  0  0  0  0
  186.3660  174.7500  136.1480 C   0  0  1  0  0  3  0  0  0  0  0  0
  181.4920  174.7260  137.4410 N   0  0  0  0  0  0  0  0  0  0  0  0
  183.9240  177.3930  136.7620 N   0  0  0  0  0  0  0  0  0  0  0  0
  181.8200  179.0460  138.2010 C   0  0  0  0  0  1  0  0  0  0  0  0
  184.6860  172.7090  137.4710 C   0  0  0  0  0  2  0  0  0  0  0  0
  182.3570  173.6740  137.6070 C   0  0  0  0  0  3  0  0  0  0  0  0
  183.1260  178.4500  136.1500 C   0  0  0  0  0  2  0  0  0  0  0  0
  183.7500  173.8780  137.5560 C   0  0  0  0  0  0  0  0  0  0  0  0
  185.3410  177.1210  136.5100 C   0  0  1  0  0  3  0  0  0  0  0  0
  181.0300  177.1140  136.8150 C   0  0  0  0  0  2  0  0  0  0  0  0
  186.7910  173.4720  136.9090 C   0  0  1  0  0  3  0  0  0  0  0  0
  180.8580  179.4460  135.9770 C   0  0  0  0  0  1  0  0  0  0  0  0
  185.9600  173.0370  137.9730 O   0  0  0  0  0  0  0  0  0  0  0  0
  186.6440  177.8720  138.6360 C   0  0  0  0  0  2  0  0  0  0  0  0
  188.0940  177.9120  138.8070 N   0  0  0  0  0  0  0  0  0  0  0  0
  189.2100  177.3120  136.7540 C   0  0  0  0  0  0  0  0  0  0  0  0
  188.6650  176.8070  138.0540 C   0  0  0  0  0  2  0  0  0  0  0  0
  188.3420  177.9920  135.7310 C   0  0  1  0  0  3  0  0  0  0  0  0
  187.8470  177.0790  134.8010 O   0  0  0  0  0  1  0  0  0  0  0  0
  187.2310  178.8880  136.2940 C   0  0  0  0  0  2  0  0  0  0  0  0
  190.3900  177.1340  136.5020 O   0  0  0  0  0  0  0  0  0  0  0  0
  186.2010  178.1920  137.1960 C   0  0  1  0  0  3  0  0  0  0  0  0
  187.5810  178.6080  141.0770 C   0  0  0  0  0  1  0  0  0  0  0  0
  188.3590  177.6390  140.2090 C   0  0  0  0  0  2  0  0  0  0  0  0
  186.7200  171.2320  135.7340 C   0  0  0  0  0  3  0  0  0  0  0  0
  187.4370  172.3750  136.1130 C   0  0  0  0  0  0  0  0  0  0  0  0
  188.7740  172.5140  135.7240 C   0  0  0  0  0  3  0  0  0  0  0  0
  190.6890  171.6520  134.5960 F   0  0  0  0  0  0  0  0  0  0  0  0
  188.6770  170.3730  134.5950 C   0  0  0  0  0  3  0  0  0  0  0  0
  189.3940  171.5150  134.9680 C   0  0  0  0  0  0  0  0  0  0  0  0
  187.3400  170.2320  134.9780 C   0  0  0  0  0  3  0  0  0  0  0  0
  1 16  1  0  0  0  0
  1 10  1  0  0  0  0
  2 14  1  0  0  0  0
  4  8  2  0  0  0  0
  5  2  1  6  0  0  0
  6  4  1  0  0  0  0
  6  2  2  0  0  0  0
  7  3  1  6  0  0  0
  7 17  1  0  0  0  0
  7  5  1  0  0  0  0
  8 12  1  0  0  0  0
  9  6  1  0  0  0  0
 11 14  1  0  0  0  0
 11 19  1  0  0  0  0
 13  9  1  0  0  0  0
 13  1  1  0  0  0  0
 14 12  2  0  0  0  0
 15  9  1  1  0  0  0
 15  5  1  0  0  0  0
 15 28  1  0  0  0  0
 16  4  1  0  0  0  0
 17 32  1  6  0  0  0
 17 19  1  0  0  0  0
 18  1  1  0  0  0  0
 20 21  1  0  0  0  0
 21 30  1  0  0  0  0
 22 23  1  0  0  0  0
 23 21  1  0  0  0  0
 24 25  1  1  0  0  0
 24 26  1  0  0  0  0
 24 22  1  0  0  0  0
 27 22  2  0  0  0  0
 28 26  1  6  0  0  0
 28 20  1  0  0  0  0
 30 29  1  0  0  0  0
 31 32  1  0  0  0  0
 33 32  2  0  0  0  0
 34 36  1  0  0  0  0
 35 36  2  0  0  0  0
 35 37  1  0  0  0  0
 36 33  1  0  0  0  0
 37 31  2  0  0  0  0
M  END
>  <MODEL>
5

>  <REMARK>
 VINA RESULT:      -4.8      4.326      8.588
  Name = 
  3 active torsions:
  status: ('A' for Active; 'I' for Inactive)
    1  A    between atoms: N_4  and  C_37
    2  A    between atoms: C_21  and  C_27
    3  A    between atoms: C_23  and  C_30
                            x       y       z     vdW  Elec       q    Type
                         _______ _______ _______ _____ _____    ______ ____

>  <TORSDO>
F 3

$$$$
=
 OpenBabel11122411273D

 37 42  0  0  1  0  0  0  0  0999 V2000
  179.7570  176.4440  135.7110 C   0  0  0  0  0  0  0  0  0  0  0  0
  181.9260  178.4280  138.6810 C   0  0  0  0  0  0  0  0  0  0  0  0
  183.0500  176.5150  140.6660 C   0  0  0  0  0  1  0  0  0  0  0  0
  179.7680  177.9950  137.7430 C   0  0  0  0  0  0  0  0  0  0  0  0
  183.3220  177.9090  138.5510 C   0  0  1  0  0  3  0  0  0  0  0  0
  181.1410  177.8310  137.7540 C   0  0  0  0  0  0  0  0  0  0  0  0
  183.9250  177.5080  139.9020 C   0  0  1  0  0  3  0  0  0  0  0  0
  179.2040  178.7990  138.6910 N   0  0  0  0  0  0  0  0  0  0  0  0
  181.8270  176.8800  136.9820 N   0  0  0  0  0  0  0  0  0  0  0  0
  180.0330  177.4340  134.5940 C   0  0  0  0  0  1  0  0  0  0  0  0
  182.1660  179.6810  140.8630 C   0  0  0  0  0  2  0  0  0  0  0  0
  179.9670  179.4150  139.6500 C   0  0  0  0  0  3  0  0  0  0  0  0
  181.0910  175.8660  136.2330 C   0  0  0  0  0  2  0  0  0  0  0  0
  181.3640  179.2350  139.6760 C   0  0  0  0  0  0  0  0  0  0  0  0
  183.1820  176.7450  137.5220 C   0  0  1  0  0  3  0  0  0  0  0  0
  178.9350  177.1390  136.8260 C   0  0  0  0  0  2  0  0  0  0  0  0
  184.2820  178.7680  140.7270 C   0  0  1  0  0  3  0  0  0  0  0  0
  178.9310  175.3090  135.1450 C   0  0  0  0  0  1  0  0  0  0  0  0
  183.5050  179.9340  140.5080 O   0  0  0  0  0  0  0  0  0  0  0  0
  185.4640  177.6590  136.6640 C   0  0  0  0  0  2  0  0  0  0  0  0
  186.7010  176.9020  136.4830 N   0  0  0  0  0  0  0  0  0  0  0  0
  186.3430  174.5630  136.9570 C   0  0  0  0  0  0  0  0  0  0  0  0
  186.7590  175.8860  137.5220 C   0  0  0  0  0  2  0  0  0  0  0  0
  184.9810  174.3410  136.3570 C   0  0  1  0  0  3  0  0  0  0  0  0
  184.0830  173.8560  137.3070 O   0  0  0  0  0  1  0  0  0  0  0  0
  184.3980  175.5260  135.5780 C   0  0  0  0  0  2  0  0  0  0  0  0
  187.1210  173.6270  137.0180 O   0  0  0  0  0  0  0  0  0  0  0  0
  184.2030  176.8230  136.3770 C   0  0  1  0  0  3  0  0  0  0  0  0
  187.8520  178.1540  138.2180 C   0  0  0  0  0  1  0  0  0  0  0  0
  187.7970  177.8200  136.7400 C   0  0  0  0  0  2  0  0  0  0  0  0
  186.0290  178.0830  142.4260 C   0  0  0  0  0  3  0  0  0  0  0  0
  184.7420  178.5610  142.1420 C   0  0  0  0  0  0  0  0  0  0  0  0
  183.8730  178.8780  143.1910 C   0  0  0  0  0  3  0  0  0  0  0  0
  183.4380  179.0160  145.5320 F   0  0  0  0  0  0  0  0  0  0  0  0
  185.5660  178.2300  144.7990 C   0  0  0  0  0  3  0  0  0  0  0  0
  184.2830  178.7110  144.5180 C   0  0  0  0  0  0  0  0  0  0  0  0
  186.4380  177.9160  143.7520 C   0  0  0  0  0  3  0  0  0  0  0  0
  1 13  1  0  0  0  0
  1 16  1  0  0  0  0
  2 14  1  0  0  0  0
  4  6  1  0  0  0  0
  4  8  2  0  0  0  0
  5  2  1  1  0  0  0
  5  7  1  0  0  0  0
  6  2  2  0  0  0  0
  7  3  1  1  0  0  0
  7 17  1  0  0  0  0
  8 12  1  0  0  0  0
  9  6  1  0  0  0  0
 10  1  1  0  0  0  0
 12 14  2  0  0  0  0
 13  9  1  0  0  0  0
 14 11  1  0  0  0  0
 15  9  1  6  0  0  0
 15  5  1  0  0  0  0
 16  4  1  0  0  0  0
 17 32  1  1  0  0  0
 18  1  1  0  0  0  0
 19 17  1  0  0  0  0
 19 11  1  0  0  0  0
 21 20  1  0  0  0  0
 21 30  1  0  0  0  0
 21 23  1  0  0  0  0
 22 27  2  0  0  0  0
 22 23  1  0  0  0  0
 24 22  1  0  0  0  0
 24 25  1  1  0  0  0
 26 24  1  0  0  0  0
 28 26  1  1  0  0  0
 28 20  1  0  0  0  0
 28 15  1  0  0  0  0
 30 29  1  0  0  0  0
 31 37  1  0  0  0  0
 32 31  2  0  0  0  0
 32 33  1  0  0  0  0
 33 36  2  0  0  0  0
 36 35  1  0  0  0  0
 36 34  1  0  0  0  0
 37 35  2  0  0  0  0
M  END
>  <MODEL>
6

>  <REMARK>
 VINA RESULT:      -4.8      2.553      5.904
  Name = 
  3 active torsions:
  status: ('A' for Active; 'I' for Inactive)
    1  A    between atoms: N_4  and  C_37
    2  A    between atoms: C_21  and  C_27
    3  A    between atoms: C_23  and  C_30
                            x       y       z     vdW  Elec       q    Type
                         _______ _______ _______ _____ _____    ______ ____

>  <TORSDO>
F 3

$$$$
=
 OpenBabel11122411273D

 37 42  0  0  1  0  0  0  0  0999 V2000
  188.0760  178.0040  142.5130 C   0  0  0  0  0  0  0  0  0  0  0  0
  184.1850  178.2440  141.0090 C   0  0  0  0  0  0  0  0  0  0  0  0
  183.8990  180.5030  139.0910 C   0  0  0  0  0  1  0  0  0  0  0  0
  185.6040  178.5110  142.9170 C   0  0  0  0  0  0  0  0  0  0  0  0
  184.3270  178.0310  139.5360 C   0  0  1  0  0  3  0  0  0  0  0  0
  185.4080  178.1890  141.5860 C   0  0  0  0  0  0  0  0  0  0  0  0
  183.5430  179.0640  138.7190 C   0  0  1  0  0  3  0  0  0  0  0  0
  184.5200  178.8770  143.6620 N   0  0  0  0  0  0  0  0  0  0  0  0
  186.4460  178.0020  140.6600 N   0  0  0  0  0  0  0  0  0  0  0  0
  188.0980  176.5000  142.7200 C   0  0  0  0  0  1  0  0  0  0  0  0
  181.7650  178.9710  141.0780 C   0  0  0  0  0  2  0  0  0  0  0  0
  183.2670  178.9510  143.1090 C   0  0  0  0  0  3  0  0  0  0  0  0
  187.8240  178.3180  141.0210 C   0  0  0  0  0  2  0  0  0  0  0  0
  183.0660  178.6410  141.7490 C   0  0  0  0  0  0  0  0  0  0  0  0
  185.8710  178.0500  139.3140 C   0  0  1  0  0  3  0  0  0  0  0  0
  187.0100  178.6380  143.4410 C   0  0  0  0  0  2  0  0  0  0  0  0
  182.0260  178.7710  138.7930 C   0  0  1  0  0  3  0  0  0  0  0  0
  189.4330  178.5540  142.8970 C   0  0  0  0  0  1  0  0  0  0  0  0
  181.5390  178.1380  139.9660 O   0  0  0  0  0  0  0  0  0  0  0  0
  185.3350  176.1760  137.5870 C   0  0  0  0  0  2  0  0  0  0  0  0
  185.7450  176.1320  136.1850 N   0  0  0  0  0  0  0  0  0  0  0  0
  187.1620  178.0110  135.6540 C   0  0  0  0  0  0  0  0  0  0  0  0
  185.7570  177.4950  135.6790 C   0  0  0  0  0  2  0  0  0  0  0  0
  188.0000  178.1150  136.8990 C   0  0  1  0  0  3  0  0  0  0  0  0
  187.8880  179.3780  137.4790 O   0  0  0  0  0  1  0  0  0  0  0  0
  187.8000  176.9970  137.9300 C   0  0  0  0  0  2  0  0  0  0  0  0
  187.6300  178.3910  134.5940 O   0  0  0  0  0  0  0  0  0  0  0  0
  186.3780  176.8540  138.4950 C   0  0  1  0  0  3  0  0  0  0  0  0
  183.3480  176.0390  135.7970 C   0  0  0  0  0  1  0  0  0  0  0  0
  184.6970  175.4310  135.4630 C   0  0  0  0  0  2  0  0  0  0  0  0
  180.1760  180.4910  138.9540 C   0  0  0  0  0  3  0  0  0  0  0  0
  181.0960  179.7750  138.1750 C   0  0  0  0  0  0  0  0  0  0  0  0
  181.1710  180.0140  136.7990 C   0  0  0  0  0  3  0  0  0  0  0  0
  180.4020  181.1820  134.8680 F   0  0  0  0  0  0  0  0  0  0  0  0
  179.4080  181.6650  136.9800 C   0  0  0  0  0  3  0  0  0  0  0  0
  180.3280  180.9550  136.2010 C   0  0  0  0  0  0  0  0  0  0  0  0
  179.3330  181.4320  138.3560 C   0  0  0  0  0  3  0  0  0  0  0  0
  1 10  1  0  0  0  0
  1 18  1  0  0  0  0
  1 16  1  0  0  0  0
  2  6  2  0  0  0  0
  2 14  1  0  0  0  0
  4 16  1  0  0  0  0
  4  8  2  0  0  0  0
  5  2  1  1  0  0  0
  6  4  1  0  0  0  0
  7 17  1  0  0  0  0
  7  3  1  1  0  0  0
  7  5  1  0  0  0  0
  9 13  1  0  0  0  0
  9  6  1  0  0  0  0
 11 14  1  0  0  0  0
 12  8  1  0  0  0  0
 13  1  1  0  0  0  0
 14 12  2  0  0  0  0
 15  5  1  0  0  0  0
 15  9  1  1  0  0  0
 17 32  1  1  0  0  0
 17 19  1  0  0  0  0
 19 11  1  0  0  0  0
 21 20  1  0  0  0  0
 22 23  1  0  0  0  0
 22 24  1  0  0  0  0
 23 21  1  0  0  0  0
 24 25  1  1  0  0  0
 24 26  1  0  0  0  0
 26 28  1  0  0  0  0
 27 22  2  0  0  0  0
 28 20  1  6  0  0  0
 28 15  1  0  0  0  0
 30 29  1  0  0  0  0
 30 21  1  0  0  0  0
 32 31  2  0  0  0  0
 33 32  1  0  0  0  0
 34 36  1  0  0  0  0
 35 37  2  0  0  0  0
 36 33  2  0  0  0  0
 36 35  1  0  0  0  0
 37 31  1  0  0  0  0
M  END
>  <MODEL>
7

>  <REMARK>
 VINA RESULT:      -4.1      2.793      4.725
  Name = 
  3 active torsions:
  status: ('A' for Active; 'I' for Inactive)
    1  A    between atoms: N_4  and  C_37
    2  A    between atoms: C_21  and  C_27
    3  A    between atoms: C_23  and  C_30
                            x       y       z     vdW  Elec       q    Type
                         _______ _______ _______ _____ _____    ______ ____

>  <TORSDO>
F 3

$$$$
=
 OpenBabel11122411273D

 37 42  0  0  1  0  0  0  0  0999 V2000
  193.6800  176.2270  135.8190 C   0  0  0  0  0  0  0  0  0  0  0  0
  191.1380  176.4000  139.1300 C   0  0  0  0  0  0  0  0  0  0  0  0
  189.0250  178.4660  138.7710 C   0  0  0  0  0  1  0  0  0  0  0  0
  193.3340  176.8220  138.2800 C   0  0  0  0  0  0  0  0  0  0  0  0
  189.7870  176.0410  138.5990 C   0  0  1  0  0  3  0  0  0  0  0  0
  192.0350  176.3760  138.1170 C   0  0  0  0  0  0  0  0  0  0  0  0
  188.6960  177.0060  139.0770 C   0  0  1  0  0  3  0  0  0  0  0  0
  193.7120  177.2810  139.5090 N   0  0  0  0  0  0  0  0  0  0  0  0
  191.4540  176.0790  136.8740 N   0  0  0  0  0  0  0  0  0  0  0  0
  194.0170  174.7500  135.9250 C   0  0  0  0  0  1  0  0  0  0  0  0
  190.4660  177.1790  141.4390 C   0  0  0  0  0  2  0  0  0  0  0  0
  192.8280  177.3260  140.5570 C   0  0  0  0  0  3  0  0  0  0  0  0
  192.1560  176.4000  135.6350 C   0  0  0  0  0  2  0  0  0  0  0  0
  191.4980  176.8900  140.3900 C   0  0  0  0  0  0  0  0  0  0  0  0
  190.0030  176.0070  137.0530 C   0  0  1  0  0  3  0  0  0  0  0  0
  194.2160  176.9710  137.0690 C   0  0  0  0  0  2  0  0  0  0  0  0
  188.3700  176.7530  140.5690 C   0  0  1  0  0  3  0  0  0  0  0  0
  194.3780  176.7840  134.5960 C   0  0  0  0  0  1  0  0  0  0  0  0
  189.4120  176.2470  141.3890 O   0  0  0  0  0  0  0  0  0  0  0  0
  188.5440  173.8610  137.2760 C   0  0  0  0  0  2  0  0  0  0  0  0
  187.2380  173.6210  136.6670 N   0  0  0  0  0  0  0  0  0  0  0  0
  186.6110  175.4670  135.2460 C   0  0  0  0  0  0  0  0  0  0  0  0
  186.5250  174.8880  136.6240 C   0  0  0  0  0  2  0  0  0  0  0  0
  187.9260  175.8080  134.6000 C   0  0  1  0  0  3  0  0  0  0  0  0
  188.2730  177.1390  134.8340 O   0  0  0  0  0  1  0  0  0  0  0  0
  189.0860  174.8560  134.9140 C   0  0  0  0  0  2  0  0  0  0  0  0
  185.5780  175.7010  134.6410 O   0  0  0  0  0  0  0  0  0  0  0  0
  189.4660  174.7270  136.3970 C   0  0  1  0  0  3  0  0  0  0  0  0
  185.0470  173.1870  137.6230 C   0  0  0  0  0  1  0  0  0  0  0  0
  186.5020  172.7620  137.5780 C   0  0  0  0  0  2  0  0  0  0  0  0
  186.5990  178.5600  140.5020 C   0  0  0  0  0  3  0  0  0  0  0  0
  187.4320  177.7110  141.2450 C   0  0  0  0  0  0  0  0  0  0  0  0
  187.3750  177.7330  142.6420 C   0  0  0  0  0  3  0  0  0  0  0  0
  186.4470  178.6250  144.6500 F   0  0  0  0  0  0  0  0  0  0  0  0
  185.6710  179.4530  142.5530 C   0  0  0  0  0  3  0  0  0  0  0  0
  186.4980  178.6040  143.2960 C   0  0  0  0  0  0  0  0  0  0  0  0
  185.7220  179.4300  141.1560 C   0  0  0  0  0  3  0  0  0  0  0  0
  1 10  1  0  0  0  0
  1 16  1  0  0  0  0
  2 14  1  0  0  0  0
  4  8  2  0  0  0  0
  5  7  1  0  0  0  0
  5  2  1  1  0  0  0
  6  4  1  0  0  0  0
  6  2  2  0  0  0  0
  7  3  1  1  0  0  0
  7 17  1  0  0  0  0
  8 12  1  0  0  0  0
  9  6  1  0  0  0  0
 13  1  1  0  0  0  0
 13  9  1  0  0  0  0
 14 12  2  0  0  0  0
 14 11  1  0  0  0  0
 15  9  1  1  0  0  0
 15  5  1  0  0  0  0
 16  4  1  0  0  0  0
 17 32  1  1  0  0  0
 17 19  1  0  0  0  0
 18  1  1  0  0  0  0
 19 11  1  0  0  0  0
 21 20  1  0  0  0  0
 21 30  1  0  0  0  0
 22 23  1  0  0  0  0
 23 21  1  0  0  0  0
 24 25  1  1  0  0  0
 24 26  1  0  0  0  0
 24 22  1  0  0  0  0
 27 22  2  0  0  0  0
 28 26  1  6  0  0  0
 28 15  1  0  0  0  0
 28 20  1  0  0  0  0
 30 29  1  0  0  0  0
 31 37  2  0  0  0  0
 31 32  1  0  0  0  0
 32 33  2  0  0  0  0
 33 36  1  0  0  0  0
 35 36  2  0  0  0  0
 36 34  1  0  0  0  0
 37 35  1  0  0  0  0
M  END
>  <MODEL>
8

>  <REMARK>
 VINA RESULT:      -4.1      4.575      6.462
  Name = 
  3 active torsions:
  status: ('A' for Active; 'I' for Inactive)
    1  A    between atoms: N_4  and  C_37
    2  A    between atoms: C_21  and  C_27
    3  A    between atoms: C_23  and  C_30
                            x       y       z     vdW  Elec       q    Type
                         _______ _______ _______ _____ _____    ______ ____

>  <TORSDO>
F 3

$$$$
=
 OpenBabel11122411273D

 37 42  0  0  1  0  0  0  0  0999 V2000
  183.8000  174.2080  135.7240 C   0  0  0  0  0  0  0  0  0  0  0  0
  187.8780  173.6260  136.4190 C   0  0  0  0  0  0  0  0  0  0  0  0
  189.5400  175.2900  134.5940 C   0  0  0  0  0  1  0  0  0  0  0  0
  185.8420  172.6770  135.5970 C   0  0  0  0  0  0  0  0  0  0  0  0
  188.3920  174.9640  136.8450 C   0  0  1  0  0  3  0  0  0  0  0  0
  186.5530  173.7190  136.1640 C   0  0  0  0  0  0  0  0  0  0  0  0
  189.6820  175.3540  136.1140 C   0  0  1  0  0  3  0  0  0  0  0  0
  186.5070  171.5210  135.3080 N   0  0  0  0  0  0  0  0  0  0  0  0
  186.0530  175.0220  136.3170 N   0  0  0  0  0  0  0  0  0  0  0  0
  183.3340  173.9480  137.1460 C   0  0  0  0  0  1  0  0  0  0  0  0
  190.0830  172.4260  136.1250 C   0  0  0  0  0  2  0  0  0  0  0  0
  187.8530  171.3930  135.5470 C   0  0  0  0  0  3  0  0  0  0  0  0
  184.7810  175.4010  135.7100 C   0  0  0  0  0  2  0  0  0  0  0  0
  188.5830  172.4590  136.1070 C   0  0  0  0  0  0  0  0  0  0  0  0
  187.1800  175.9150  136.5930 C   0  0  1  0  0  3  0  0  0  0  0  0
  184.4270  172.9170  135.1410 C   0  0  0  0  0  2  0  0  0  0  0  0
  190.8760  174.5290  136.6510 C   0  0  1  0  0  3  0  0  0  0  0  0
  182.5900  174.5710  134.8900 C   0  0  0  0  0  1  0  0  0  0  0  0
  190.5990  173.2330  137.1570 O   0  0  0  0  0  0  0  0  0  0  0  0
  187.7280  176.5920  139.0470 C   0  0  0  0  0  2  0  0  0  0  0  0
  188.3870  177.8180  139.4930 N   0  0  0  0  0  0  0  0  0  0  0  0
  188.8090  179.2840  137.6240 C   0  0  0  0  0  0  0  0  0  0  0  0
  189.3650  178.1910  138.4840 C   0  0  0  0  0  2  0  0  0  0  0  0
  187.5540  179.1060  136.8140 C   0  0  1  0  0  3  0  0  0  0  0  0
  187.8440  178.6730  135.5210 O   0  0  0  0  0  1  0  0  0  0  0  0
  186.4590  178.2520  137.4660 C   0  0  0  0  0  2  0  0  0  0  0  0
  189.4140  180.3400  137.5510 O   0  0  0  0  0  0  0  0  0  0  0  0
  186.8490  176.8040  137.8010 C   0  0  1  0  0  3  0  0  0  0  0  0
  190.5620  177.1190  140.3210 C   0  0  0  0  0  1  0  0  0  0  0  0
  189.1360  177.4790  140.6910 C   0  0  0  0  0  2  0  0  0  0  0  0
  192.7960  173.5800  135.3030 C   0  0  0  0  0  3  0  0  0  0  0  0
  192.1910  174.6720  135.9420 C   0  0  0  0  0  0  0  0  0  0  0  0
  192.8070  175.9270  135.8990 C   0  0  0  0  0  3  0  0  0  0  0  0
  194.6190  177.3070  135.1940 F   0  0  0  0  0  0  0  0  0  0  0  0
  194.6280  174.9990  134.5980 C   0  0  0  0  0  3  0  0  0  0  0  0
  194.0240  176.0910  135.2310 C   0  0  0  0  0  0  0  0  0  0  0  0
  194.0130  173.7440  134.6350 C   0  0  0  0  0  3  0  0  0  0  0  0
  1 10  1  0  0  0  0
  4  6  2  0  0  0  0
  5  2  1  6  0  0  0
  6  9  1  0  0  0  0
  6  2  1  0  0  0  0
  7  3  1  6  0  0  0
  7 17  1  0  0  0  0
  7  5  1  0  0  0  0
  8 12  2  0  0  0  0
  8  4  1  0  0  0  0
 11 19  1  0  0  0  0
 12 14  1  0  0  0  0
 13  1  1  0  0  0  0
 13  9  1  0  0  0  0
 14 11  1  0  0  0  0
 14  2  2  0  0  0  0
 15  9  1  1  0  0  0
 15  5  1  0  0  0  0
 15 28  1  0  0  0  0
 16  4  1  0  0  0  0
 16  1  1  0  0  0  0
 17 32  1  6  0  0  0
 17 19  1  0  0  0  0
 18  1  1  0  0  0  0
 20 21  1  0  0  0  0
 21 30  1  0  0  0  0
 22 23  1  0  0  0  0
 23 21  1  0  0  0  0
 24 25  1  6  0  0  0
 24 26  1  0  0  0  0
 24 22  1  0  0  0  0
 27 22  2  0  0  0  0
 28 26  1  6  0  0  0
 28 20  1  0  0  0  0
 29 30  1  0  0  0  0
 31 32  1  0  0  0  0
 33 32  2  0  0  0  0
 34 36  1  0  0  0  0
 35 37  1  0  0  0  0
 35 36  2  0  0  0  0
 36 33  1  0  0  0  0
 37 31  2  0  0  0  0
M  END
>  <MODEL>
9

>  <REMARK>
 VINA RESULT:      -3.8      5.480      9.823
  Name = 
  3 active torsions:
  status: ('A' for Active; 'I' for Inactive)
    1  A    between atoms: N_4  and  C_37
    2  A    between atoms: C_21  and  C_27
    3  A    between atoms: C_23  and  C_30
                            x       y       z     vdW  Elec       q    Type
                         _______ _______ _______ _____ _____    ______ ____

>  <TORSDO>
F 3

$$$$
