=
 OpenBabel11122411013D

 31 36  0  0  1  0  0  0  0  0999 V2000
  191.6730  176.7180  138.6180 C   0  0  0  0  0  0  0  0  0  0  0  0
  188.5640  177.0900  136.4600 C   0  0  2  0  0  3  0  0  0  0  0  0
  188.1660  175.6730  135.9820 C   0  0  1  0  0  3  0  0  0  0  0  0
  187.9800  173.2140  136.3260 C   0  0  1  0  0  3  0  0  0  0  0  0
  189.4890  177.1170  137.6460 C   0  0  0  0  0  0  0  0  0  0  0  0
  191.1970  177.1370  139.8630 C   0  0  0  0  0  3  0  0  0  0  0  0
  188.2400  174.5550  137.0220 C   0  0  0  0  0  2  0  0  0  0  0  0
  186.7180  177.8450  138.0010 C   0  0  2  0  0  3  0  0  0  0  0  0
  192.9930  176.3110  138.4810 O   0  0  0  0  0  1  0  0  0  0  0  0
  186.6040  176.8210  134.5940 O   0  0  0  0  0  0  0  0  0  0  0  0
  187.9970  172.1890  137.2690 O   0  0  0  0  0  1  0  0  0  0  0  0
  187.6910  177.9760  139.0410 O   0  0  0  0  0  0  0  0  0  0  0  0
  187.3650  178.0540  136.6220 C   0  0  2  0  0  3  0  0  0  0  0  0
  190.8210  176.7080  137.5090 C   0  0  0  0  0  3  0  0  0  0  0  0
  186.6320  173.2160  135.5930 C   0  0  0  0  0  2  0  0  0  0  0  0
  189.0110  177.5370  138.8990 C   0  0  0  0  0  0  0  0  0  0  0  0
  189.8680  177.5490  140.0030 C   0  0  0  0  0  3  0  0  0  0  0  0
  186.3230  177.8830  135.4830 C   0  0  0  0  0  2  0  0  0  0  0  0
  186.7600  175.6830  135.3920 C   0  0  1  0  0  3  0  0  0  0  0  0
  186.5290  174.3940  134.6190 C   0  0  0  0  0  2  0  0  0  0  0  0
  185.3010  178.8800  139.6220 O   0  0  0  0  0  0  0  0  0  0  0  0
  184.4180  178.1350  138.8200 C   0  0  2  0  0  3  0  0  0  0  0  0
  185.5880  178.8360  138.2450 C   0  0  2  0  0  3  0  0  0  0  0  0
  180.9880  177.6170  139.6790 C   0  0  1  0  0  3  0  0  0  0  0  0
  182.4670  179.2330  139.7950 O   0  0  0  0  0  0  0  0  0  0  0  0
  182.8170  177.8110  136.4640 O   0  0  0  0  0  1  0  0  0  0  0  0
  180.3800  176.4570  140.4380 C   0  0  0  0  0  1  0  0  0  0  0  0
  182.1360  178.0710  140.3540 O   0  0  0  0  0  0  0  0  0  0  0  0
  182.1650  178.2830  137.6040 C   0  0  2  0  0  3  0  0  0  0  0  0
  183.1440  178.9520  138.5820 C   0  0  2  0  0  3  0  0  0  0  0  0
  181.3990  177.1540  138.2870 C   0  0  0  0  0  2  0  0  0  0  0  0
  1  6  1  0  0  0  0
  2 13  1  0  0  0  0
  2  5  1  1  0  0  0
  3  2  1  0  0  0  0
  3  7  1  1  0  0  0
  4  7  1  0  0  0  0
  4 11  1  1  0  0  0
  5 16  2  0  0  0  0
  6 17  2  0  0  0  0
  8 23  1  0  0  0  0
  8 12  1  1  0  0  0
  9  1  1  0  0  0  0
 10 19  1  0  0  0  0
 10 18  1  0  0  0  0
 13 18  1  6  0  0  0
 13  8  1  0  0  0  0
 14  5  1  0  0  0  0
 14  1  2  0  0  0  0
 15  4  1  0  0  0  0
 16 12  1  0  0  0  0
 16 17  1  0  0  0  0
 19 20  1  6  0  0  0
 19  3  1  0  0  0  0
 20 15  1  0  0  0  0
 22 21  1  1  0  0  0
 23 22  1  0  0  0  0
 23 21  1  1  0  0  0
 24 28  1  0  0  0  0
 24 27  1  1  0  0  0
 25 28  1  0  0  0  0
 29 26  1  6  0  0  0
 29 31  1  0  0  0  0
 29 30  1  0  0  0  0
 30 22  1  0  0  0  0
 30 25  1  1  0  0  0
 31 24  1  0  0  0  0
M  END
>  <MODEL>
1

>  <REMARK>
 VINA RESULT:      -6.0      0.000      0.000
  Name = 
  2 active torsions:
  status: ('A' for Active; 'I' for Inactive)
    1  A    between atoms: C_5  and  C_30
    2  A    between atoms: C_10  and  C_16
                            x       y       z     vdW  Elec       q    Type
                         _______ _______ _______ _____ _____    ______ ____

>  <TORSDO>
F 2

$$$$
=
 OpenBabel11122411013D

 31 36  0  0  1  0  0  0  0  0999 V2000
  183.9700  178.7640  143.3440 C   0  0  0  0  0  0  0  0  0  0  0  0
  182.8090  177.4200  139.9810 C   0  0  2  0  0  3  0  0  0  0  0  0
  181.4990  178.1620  139.6190 C   0  0  1  0  0  3  0  0  0  0  0  0
  180.0490  180.1850  139.6340 C   0  0  1  0  0  3  0  0  0  0  0  0
  183.6410  178.0930  141.0390 C   0  0  0  0  0  0  0  0  0  0  0  0
  185.1760  179.3770  142.9950 C   0  0  0  0  0  3  0  0  0  0  0  0
  181.4680  179.6660  139.8890 C   0  0  0  0  0  2  0  0  0  0  0  0
  184.5200  178.1720  138.2890 C   0  0  2  0  0  3  0  0  0  0  0  0
  183.5330  178.7910  144.6610 O   0  0  0  0  0  1  0  0  0  0  0  0
  181.3640  176.5890  137.8320 O   0  0  0  0  0  0  0  0  0  0  0  0
  180.0150  181.5630  139.8290 O   0  0  0  0  0  1  0  0  0  0  0  0
  185.3170  178.6650  139.3690 O   0  0  0  0  0  0  0  0  0  0  0  0
  183.6460  176.9940  138.7510 C   0  0  2  0  0  3  0  0  0  0  0  0
  183.2030  178.1210  142.3680 C   0  0  0  0  0  3  0  0  0  0  0  0
  179.5810  179.8560  138.2090 C   0  0  0  0  0  2  0  0  0  0  0  0
  184.8540  178.7120  140.6880 C   0  0  0  0  0  0  0  0  0  0  0  0
  185.6190  179.3480  141.6690 C   0  0  0  0  0  3  0  0  0  0  0  0
  182.7530  176.4720  137.5930 C   0  0  0  0  0  2  0  0  0  0  0  0
  181.1420  177.9320  138.1550 C   0  0  1  0  0  3  0  0  0  0  0  0
  179.7020  178.3580  137.9150 C   0  0  0  0  0  2  0  0  0  0  0  0
  185.8670  176.4500  137.3280 O   0  0  0  0  0  0  0  0  0  0  0  0
  186.7860  177.4670  137.6460 C   0  0  2  0  0  3  0  0  0  0  0  0
  185.4310  177.7740  137.1360 C   0  0  2  0  0  3  0  0  0  0  0  0
  190.1630  176.3530  137.2920 C   0  0  1  0  0  3  0  0  0  0  0  0
  188.3080  176.3180  136.1210 O   0  0  0  0  0  0  0  0  0  0  0  0
  188.5750  179.6960  137.4460 O   0  0  0  0  0  1  0  0  0  0  0  0
  190.9980  175.5750  138.2850 C   0  0  0  0  0  1  0  0  0  0  0  0
  188.8920  175.7610  137.1790 O   0  0  0  0  0  0  0  0  0  0  0  0
  189.0000  178.4990  136.8680 C   0  0  2  0  0  3  0  0  0  0  0  0
  187.8140  177.5860  136.5180 C   0  0  2  0  0  3  0  0  0  0  0  0
  189.9850  177.7830  137.7870 C   0  0  0  0  0  2  0  0  0  0  0  0
  1  9  1  0  0  0  0
  2  5  1  1  0  0  0
  3  7  1  6  0  0  0
  3  2  1  0  0  0  0
  4 11  1  6  0  0  0
  4  7  1  0  0  0  0
  5 14  1  0  0  0  0
  6  1  1  0  0  0  0
  8 13  1  0  0  0  0
  8 12  1  1  0  0  0
 10 19  1  0  0  0  0
 12 16  1  0  0  0  0
 13 18  1  6  0  0  0
 13  2  1  0  0  0  0
 14  1  2  0  0  0  0
 15  4  1  0  0  0  0
 16  5  2  0  0  0  0
 16 17  1  0  0  0  0
 17  6  2  0  0  0  0
 18 10  1  0  0  0  0
 19 20  1  1  0  0  0
 19  3  1  0  0  0  0
 20 15  1  0  0  0  0
 22 21  1  6  0  0  0
 23 21  1  1  0  0  0
 23 22  1  0  0  0  0
 23  8  1  0  0  0  0
 24 31  1  0  0  0  0
 24 27  1  1  0  0  0
 25 28  1  0  0  0  0
 28 24  1  0  0  0  0
 29 26  1  1  0  0  0
 29 31  1  0  0  0  0
 30 25  1  1  0  0  0
 30 29  1  0  0  0  0
 30 22  1  0  0  0  0
M  END
>  <MODEL>
2

>  <REMARK>
 VINA RESULT:      -5.9      2.444      7.532
  Name = 
  2 active torsions:
  status: ('A' for Active; 'I' for Inactive)
    1  A    between atoms: C_5  and  C_30
    2  A    between atoms: C_10  and  C_16
                            x       y       z     vdW  Elec       q    Type
                         _______ _______ _______ _____ _____    ______ ____

>  <TORSDO>
F 2

$$$$
=
 OpenBabel11122411013D

 31 36  0  0  1  0  0  0  0  0999 V2000
  186.1720  178.1980  138.3870 C   0  0  0  0  0  0  0  0  0  0  0  0
  189.8960  177.8270  139.0600 C   0  0  2  0  0  3  0  0  0  0  0  0
  190.0600  177.5090  140.5670 C   0  0  1  0  0  3  0  0  0  0  0  0
  189.2830  176.4530  142.6820 C   0  0  1  0  0  3  0  0  0  0  0  0
  188.5150  177.5900  138.5150 C   0  0  0  0  0  0  0  0  0  0  0  0
  185.9390  177.1250  137.5230 C   0  0  0  0  0  3  0  0  0  0  0  0
  189.0760  176.5040  141.1640 C   0  0  0  0  0  2  0  0  0  0  0  0
  190.6350  175.7530  137.8310 C   0  0  2  0  0  3  0  0  0  0  0  0
  185.1260  179.0320  138.7550 O   0  0  0  0  0  1  0  0  0  0  0  0
  192.3890  177.8090  140.1490 O   0  0  0  0  0  0  0  0  0  0  0  0
  188.4250  175.5060  143.2370 O   0  0  0  0  0  1  0  0  0  0  0  0
  189.3320  175.6810  137.2480 O   0  0  0  0  0  0  0  0  0  0  0  0
  190.9990  177.2090  138.1680 C   0  0  2  0  0  3  0  0  0  0  0  0
  187.4580  178.4320  138.8830 C   0  0  0  0  0  3  0  0  0  0  0  0
  190.7340  176.1020  143.0380 C   0  0  0  0  0  2  0  0  0  0  0  0
  188.2790  176.5100  137.6460 C   0  0  0  0  0  0  0  0  0  0  0  0
  186.9920  176.2830  137.1510 C   0  0  0  0  0  3  0  0  0  0  0  0
  192.4010  177.2960  138.8320 C   0  0  0  0  0  2  0  0  0  0  0  0
  191.4750  177.0230  140.8600 C   0  0  1  0  0  3  0  0  0  0  0  0
  191.7200  177.0590  142.3600 C   0  0  0  0  0  2  0  0  0  0  0  0
  191.5300  173.7290  136.9340 O   0  0  0  0  0  0  0  0  0  0  0  0
  192.6070  174.2980  137.6370 C   0  0  2  0  0  3  0  0  0  0  0  0
  191.6470  175.1300  136.8790 C   0  0  2  0  0  3  0  0  0  0  0  0
  195.0020  171.6530  137.4470 C   0  0  1  0  0  3  0  0  0  0  0  0
  193.8600  172.9140  136.0630 O   0  0  0  0  0  0  0  0  0  0  0  0
  195.1600  175.1670  138.6070 O   0  0  0  0  0  1  0  0  0  0  0  0
  194.9980  170.3340  138.1900 C   0  0  0  0  0  1  0  0  0  0  0  0
  193.7260  171.8940  136.9080 O   0  0  0  0  0  0  0  0  0  0  0  0
  195.1640  174.1130  137.6930 C   0  0  2  0  0  3  0  0  0  0  0  0
  193.8930  174.1060  136.8280 C   0  0  2  0  0  3  0  0  0  0  0  0
  195.3360  172.7800  138.4160 C   0  0  0  0  0  2  0  0  0  0  0  0
  1  9  1  0  0  0  0
  1 14  1  0  0  0  0
  2  5  1  6  0  0  0
  2  3  1  0  0  0  0
  3 19  1  0  0  0  0
  3  7  1  6  0  0  0
  4 15  1  0  0  0  0
  4 11  1  6  0  0  0
  5 14  2  0  0  0  0
  6  1  2  0  0  0  0
  7  4  1  0  0  0  0
  8 12  1  6  0  0  0
  8 13  1  0  0  0  0
 10 19  1  0  0  0  0
 12 16  1  0  0  0  0
 13 18  1  1  0  0  0
 13  2  1  0  0  0  0
 16  5  1  0  0  0  0
 17  6  1  0  0  0  0
 17 16  2  0  0  0  0
 18 10  1  0  0  0  0
 19 20  1  1  0  0  0
 20 15  1  0  0  0  0
 22 21  1  6  0  0  0
 23 21  1  6  0  0  0
 23 22  1  0  0  0  0
 23  8  1  0  0  0  0
 24 27  1  1  0  0  0
 24 31  1  0  0  0  0
 25 28  1  0  0  0  0
 28 24  1  0  0  0  0
 29 31  1  0  0  0  0
 29 26  1  1  0  0  0
 30 25  1  1  0  0  0
 30 22  1  0  0  0  0
 30 29  1  0  0  0  0
M  END
>  <MODEL>
3

>  <REMARK>
 VINA RESULT:      -5.9      3.153      8.975
  Name = 
  2 active torsions:
  status: ('A' for Active; 'I' for Inactive)
    1  A    between atoms: C_5  and  C_30
    2  A    between atoms: C_10  and  C_16
                            x       y       z     vdW  Elec       q    Type
                         _______ _______ _______ _____ _____    ______ ____

>  <TORSDO>
F 2

$$$$
=
 OpenBabel11122411013D

 31 36  0  0  1  0  0  0  0  0999 V2000
  191.3350  177.4410  140.5190 C   0  0  0  0  0  0  0  0  0  0  0  0
  189.1330  177.8180  137.4420 C   0  0  2  0  0  3  0  0  0  0  0  0
  189.2250  176.4920  136.6480 C   0  0  1  0  0  3  0  0  0  0  0  0
  189.4520  174.0160  136.5340 C   0  0  1  0  0  3  0  0  0  0  0  0
  189.5760  177.7230  138.8760 C   0  0  0  0  0  0  0  0  0  0  0  0
  190.3900  177.5150  141.5460 C   0  0  0  0  0  3  0  0  0  0  0  0
  189.1750  175.2010  137.4650 C   0  0  0  0  0  2  0  0  0  0  0  0
  186.7600  177.9590  138.2810 C   0  0  2  0  0  3  0  0  0  0  0  0
  192.6780  177.2640  140.8230 O   0  0  0  0  0  1  0  0  0  0  0  0
  188.0200  177.6750  134.9640 O   0  0  0  0  0  0  0  0  0  0  0  0
  189.3630  172.8270  137.2540 O   0  0  0  0  0  1  0  0  0  0  0  0
  187.2750  178.0030  139.6150 O   0  0  0  0  0  0  0  0  0  0  0  0
  187.7770  178.5460  137.2870 C   0  0  2  0  0  3  0  0  0  0  0  0
  190.9300  177.5460  139.1850 C   0  0  0  0  0  3  0  0  0  0  0  0
  188.4610  173.9820  135.3610 C   0  0  0  0  0  2  0  0  0  0  0  0
  188.6260  177.7960  139.9090 C   0  0  0  0  0  0  0  0  0  0  0  0
  189.0370  177.6950  141.2410 C   0  0  0  0  0  3  0  0  0  0  0  0
  187.2400  178.4740  135.8310 C   0  0  0  0  0  2  0  0  0  0  0  0
  188.1320  176.4270  135.5870 C   0  0  1  0  0  3  0  0  0  0  0  0
  188.4490  175.3120  134.6030 C   0  0  0  0  0  2  0  0  0  0  0  0
  184.8730  178.7360  139.5210 O   0  0  0  0  0  0  0  0  0  0  0  0
  184.3310  177.7990  138.6230 C   0  0  2  0  0  3  0  0  0  0  0  0
  185.4340  178.7050  138.2310 C   0  0  2  0  0  3  0  0  0  0  0  0
  180.9550  176.6650  138.9220 C   0  0  1  0  0  3  0  0  0  0  0  0
  182.0620  178.5470  139.1300 O   0  0  0  0  0  0  0  0  0  0  0  0
  183.2940  177.0110  136.0710 O   0  0  0  0  0  1  0  0  0  0  0  0
  180.4390  175.4580  139.6750 C   0  0  0  0  0  1  0  0  0  0  0  0
  181.8510  177.3810  139.7360 O   0  0  0  0  0  0  0  0  0  0  0  0
  182.3610  177.4170  137.0260 C   0  0  2  0  0  3  0  0  0  0  0  0
  182.9970  178.3290  138.0880 C   0  0  2  0  0  3  0  0  0  0  0  0
  181.7010  176.2050  137.6760 C   0  0  0  0  0  2  0  0  0  0  0  0
  1  9  1  0  0  0  0
  1  6  1  0  0  0  0
  2  5  1  1  0  0  0
  3  2  1  0  0  0  0
  3  7  1  1  0  0  0
  4 11  1  1  0  0  0
  4  7  1  0  0  0  0
  5 14  1  0  0  0  0
  5 16  2  0  0  0  0
  8 12  1  1  0  0  0
 10 19  1  0  0  0  0
 10 18  1  0  0  0  0
 12 16  1  0  0  0  0
 13 18  1  6  0  0  0
 13  2  1  0  0  0  0
 13  8  1  0  0  0  0
 14  1  2  0  0  0  0
 15  4  1  0  0  0  0
 16 17  1  0  0  0  0
 17  6  2  0  0  0  0
 19 20  1  6  0  0  0
 19  3  1  0  0  0  0
 20 15  1  0  0  0  0
 22 21  1  1  0  0  0
 23  8  1  0  0  0  0
 23 22  1  0  0  0  0
 23 21  1  1  0  0  0
 24 27  1  1  0  0  0
 24 28  1  0  0  0  0
 25 28  1  0  0  0  0
 29 26  1  6  0  0  0
 29 31  1  0  0  0  0
 29 30  1  0  0  0  0
 30 22  1  0  0  0  0
 30 25  1  1  0  0  0
 31 24  1  0  0  0  0
M  END
>  <MODEL>
4

>  <REMARK>
 VINA RESULT:      -5.8      1.229      1.394
  Name = 
  2 active torsions:
  status: ('A' for Active; 'I' for Inactive)
    1  A    between atoms: C_5  and  C_30
    2  A    between atoms: C_10  and  C_16
                            x       y       z     vdW  Elec       q    Type
                         _______ _______ _______ _____ _____    ______ ____

>  <TORSDO>
F 2

$$$$
=
 OpenBabel11122411013D

 31 36  0  0  1  0  0  0  0  0999 V2000
  179.7570  179.2940  142.0550 C   0  0  0  0  0  0  0  0  0  0  0  0
  182.8970  179.0350  139.9270 C   0  0  2  0  0  3  0  0  0  0  0  0
  184.1080  179.0590  140.8910 C   0  0  1  0  0  3  0  0  0  0  0  0
  185.1920  178.5120  143.0640 C   0  0  1  0  0  3  0  0  0  0  0  0
  181.5830  178.7000  140.5760 C   0  0  0  0  0  0  0  0  0  0  0  0
  179.1530  178.0580  141.8090 C   0  0  0  0  0  3  0  0  0  0  0  0
  183.9830  178.2260  142.1660 C   0  0  0  0  0  2  0  0  0  0  0  0
  182.8730  176.7300  138.9060 C   0  0  2  0  0  3  0  0  0  0  0  0
  179.1520  180.2030  142.9120 O   0  0  0  0  0  1  0  0  0  0  0  0
  185.4090  179.2280  138.8990 O   0  0  0  0  0  0  0  0  0  0  0  0
  185.1170  177.7240  144.2100 O   0  0  0  0  0  1  0  0  0  0  0  0
  181.5620  176.5450  139.4460 O   0  0  0  0  0  0  0  0  0  0  0  0
  183.1450  178.2190  138.6350 C   0  0  2  0  0  3  0  0  0  0  0  0
  180.9710  179.6160  141.4390 C   0  0  0  0  0  3  0  0  0  0  0  0
  186.5120  178.2320  142.3320 C   0  0  0  0  0  2  0  0  0  0  0  0
  180.9760  177.4560  140.3300 C   0  0  0  0  0  0  0  0  0  0  0  0
  179.7610  177.1410  140.9450 C   0  0  0  0  0  3  0  0  0  0  0  0
  184.5780  178.4340  138.0770 C   0  0  0  0  0  2  0  0  0  0  0  0
  185.3790  178.6330  140.1650 C   0  0  1  0  0  3  0  0  0  0  0  0
  186.5890  179.0000  141.0090 C   0  0  0  0  0  2  0  0  0  0  0  0
  182.9510  174.5310  137.9750 O   0  0  0  0  0  0  0  0  0  0  0  0
  184.2310  175.0560  137.7220 C   0  0  2  0  0  3  0  0  0  0  0  0
  183.0150  175.8960  137.6390 C   0  0  2  0  0  3  0  0  0  0  0  0
  186.8290  172.9150  136.5250 C   0  0  1  0  0  3  0  0  0  0  0  0
  184.6870  173.2270  136.1710 O   0  0  0  0  0  0  0  0  0  0  0  0
  186.1710  176.5480  136.2300 O   0  0  0  0  0  1  0  0  0  0  0  0
  187.8340  172.1230  137.3350 C   0  0  0  0  0  1  0  0  0  0  0  0
  185.5420  172.7300  137.0620 O   0  0  0  0  0  0  0  0  0  0  0  0
  186.0570  175.1910  135.9260 C   0  0  2  0  0  3  0  0  0  0  0  0
  184.6780  174.6360  136.3180 C   0  0  2  0  0  3  0  0  0  0  0  0
  187.1730  174.3970  136.5970 C   0  0  0  0  0  2  0  0  0  0  0  0
  1  9  1  0  0  0  0
  2  5  1  1  0  0  0
  2  3  1  0  0  0  0
  3  7  1  1  0  0  0
  4 11  1  1  0  0  0
  5 14  1  0  0  0  0
  6  1  1  0  0  0  0
  7  4  1  0  0  0  0
  8 12  1  6  0  0  0
 10 19  1  0  0  0  0
 12 16  1  0  0  0  0
 13 18  1  1  0  0  0
 13  8  1  0  0  0  0
 13  2  1  0  0  0  0
 14  1  2  0  0  0  0
 15  4  1  0  0  0  0
 16  5  2  0  0  0  0
 16 17  1  0  0  0  0
 17  6  2  0  0  0  0
 18 10  1  0  0  0  0
 19  3  1  0  0  0  0
 19 20  1  1  0  0  0
 20 15  1  0  0  0  0
 22 21  1  1  0  0  0
 23 22  1  0  0  0  0
 23 21  1  1  0  0  0
 23  8  1  0  0  0  0
 24 31  1  0  0  0  0
 24 28  1  0  0  0  0
 24 27  1  1  0  0  0
 25 28  1  0  0  0  0
 29 26  1  1  0  0  0
 29 30  1  0  0  0  0
 29 31  1  0  0  0  0
 30 25  1  1  0  0  0
 30 22  1  0  0  0  0
M  END
>  <MODEL>
5

>  <REMARK>
 VINA RESULT:      -5.6      2.887      7.884
  Name = 
  2 active torsions:
  status: ('A' for Active; 'I' for Inactive)
    1  A    between atoms: C_5  and  C_30
    2  A    between atoms: C_10  and  C_16
                            x       y       z     vdW  Elec       q    Type
                         _______ _______ _______ _____ _____    ______ ____

>  <TORSDO>
F 2

$$$$
=
 OpenBabel11122411013D

 31 36  0  0  1  0  0  0  0  0999 V2000
  182.2680  171.3430  135.8390 C   0  0  0  0  0  0  0  0  0  0  0  0
  183.3250  174.9720  135.4230 C   0  0  2  0  0  3  0  0  0  0  0  0
  182.4600  175.8160  136.3900 C   0  0  1  0  0  3  0  0  0  0  0  0
  181.2330  176.1210  138.5350 C   0  0  1  0  0  3  0  0  0  0  0  0
  183.3650  173.5020  135.7350 C   0  0  0  0  0  0  0  0  0  0  0  0
  183.4370  170.7720  136.3490 C   0  0  0  0  0  3  0  0  0  0  0  0
  182.2450  175.2430  137.7910 C   0  0  0  0  0  2  0  0  0  0  0  0
  185.6860  175.1270  136.2930 C   0  0  2  0  0  3  0  0  0  0  0  0
  181.1420  170.5570  135.6370 O   0  0  0  0  0  1  0  0  0  0  0  0
  183.4310  177.6870  135.2750 O   0  0  0  0  0  0  0  0  0  0  0  0
  181.0620  175.6390  139.8300 O   0  0  0  0  0  1  0  0  0  0  0  0
  185.6890  173.7040  136.4300 O   0  0  0  0  0  0  0  0  0  0  0  0
  184.7320  175.5630  135.1680 C   0  0  2  0  0  3  0  0  0  0  0  0
  182.2310  172.7070  135.5310 C   0  0  0  0  0  3  0  0  0  0  0  0
  181.6950  177.5840  138.5870 C   0  0  0  0  0  2  0  0  0  0  0  0
  184.5410  172.9260  136.2500 C   0  0  0  0  0  0  0  0  0  0  0  0
  184.5730  171.5620  136.5520 C   0  0  0  0  0  3  0  0  0  0  0  0
  184.6980  177.1100  135.0310 C   0  0  0  0  0  2  0  0  0  0  0  0
  183.0320  177.2220  136.5330 C   0  0  1  0  0  3  0  0  0  0  0  0
  181.9970  178.1240  137.1860 C   0  0  0  0  0  2  0  0  0  0  0  0
  188.0060  174.7930  136.7510 O   0  0  0  0  0  0  0  0  0  0  0  0
  187.7250  176.0530  137.3080 C   0  0  2  0  0  3  0  0  0  0  0  0
  187.1080  175.6090  136.0380 C   0  0  2  0  0  3  0  0  0  0  0  0
  190.2820  177.4630  139.3680 C   0  0  1  0  0  3  0  0  0  0  0  0
  190.1320  176.4440  137.4310 O   0  0  0  0  0  0  0  0  0  0  0  0
  187.4490  178.9010  137.4640 O   0  0  0  0  0  1  0  0  0  0  0  0
  190.5110  177.2510  140.8490 C   0  0  0  0  0  1  0  0  0  0  0  0
  190.0660  176.2220  138.7420 O   0  0  0  0  0  0  0  0  0  0  0  0
  188.7280  178.3850  137.6730 C   0  0  2  0  0  3  0  0  0  0  0  0
  188.8940  177.0010  137.0240 C   0  0  2  0  0  3  0  0  0  0  0  0
  189.0430  178.3270  139.1650 C   0  0  0  0  0  2  0  0  0  0  0  0
  1  6  1  0  0  0  0
  2  5  1  1  0  0  0
  2  3  1  0  0  0  0
  3 19  1  0  0  0  0
  3  7  1  1  0  0  0
  4 15  1  0  0  0  0
  4 11  1  1  0  0  0
  5 16  2  0  0  0  0
  6 17  2  0  0  0  0
  7  4  1  0  0  0  0
  8 12  1  6  0  0  0
  9  1  1  0  0  0  0
 10 19  1  0  0  0  0
 13 18  1  1  0  0  0
 13  2  1  0  0  0  0
 13  8  1  0  0  0  0
 14  5  1  0  0  0  0
 14  1  2  0  0  0  0
 16 12  1  0  0  0  0
 16 17  1  0  0  0  0
 18 10  1  0  0  0  0
 19 20  1  6  0  0  0
 20 15  1  0  0  0  0
 22 21  1  6  0  0  0
 23  8  1  0  0  0  0
 23 21  1  1  0  0  0
 23 22  1  0  0  0  0
 24 27  1  1  0  0  0
 25 28  1  0  0  0  0
 28 24  1  0  0  0  0
 29 26  1  1  0  0  0
 29 31  1  0  0  0  0
 30 22  1  0  0  0  0
 30 25  1  1  0  0  0
 30 29  1  0  0  0  0
 31 24  1  0  0  0  0
M  END
>  <MODEL>
6

>  <REMARK>
 VINA RESULT:      -5.6      2.697      7.332
  Name = 
  2 active torsions:
  status: ('A' for Active; 'I' for Inactive)
    1  A    between atoms: C_5  and  C_30
    2  A    between atoms: C_10  and  C_16
                            x       y       z     vdW  Elec       q    Type
                         _______ _______ _______ _____ _____    ______ ____

>  <TORSDO>
F 2

$$$$
=
 OpenBabel11122411013D

 31 36  0  0  1  0  0  0  0  0999 V2000
  179.8500  179.2760  142.5190 C   0  0  0  0  0  0  0  0  0  0  0  0
  182.8640  179.1370  140.2030 C   0  0  2  0  0  3  0  0  0  0  0  0
  184.1260  179.0790  141.0970 C   0  0  1  0  0  3  0  0  0  0  0  0
  185.3200  178.3640  143.1610 C   0  0  1  0  0  3  0  0  0  0  0  0
  181.5820  178.7710  140.9010 C   0  0  0  0  0  0  0  0  0  0  0  0
  179.2150  178.0690  142.2190 C   0  0  0  0  0  3  0  0  0  0  0  0
  184.0600  178.1560  142.3140 C   0  0  0  0  0  2  0  0  0  0  0  0
  182.7480  176.9130  139.0230 C   0  0  2  0  0  3  0  0  0  0  0  0
  179.3080  180.1280  143.4710 O   0  0  0  0  0  1  0  0  0  0  0  0
  185.3170  179.3770  139.0530 O   0  0  0  0  0  0  0  0  0  0  0  0
  185.2970  177.4950  144.2500 O   0  0  0  0  0  1  0  0  0  0  0  0
  181.4660  176.7040  139.6220 O   0  0  0  0  0  0  0  0  0  0  0  0
  183.0260  178.4150  138.8450 C   0  0  2  0  0  3  0  0  0  0  0  0
  181.0320  179.6290  141.8600 C   0  0  0  0  0  3  0  0  0  0  0  0
  186.5930  178.1220  142.3380 C   0  0  0  0  0  2  0  0  0  0  0  0
  180.9430  177.5550  140.6000 C   0  0  0  0  0  0  0  0  0  0  0  0
  179.7600  177.2100  141.2580 C   0  0  0  0  0  3  0  0  0  0  0  0
  184.4300  178.6530  138.2230 C   0  0  0  0  0  2  0  0  0  0  0  0
  185.3480  178.6910  140.2720 C   0  0  1  0  0  3  0  0  0  0  0  0
  186.6090  178.9830  141.0710 C   0  0  0  0  0  2  0  0  0  0  0  0
  182.3120  174.8660  137.8710 O   0  0  0  0  0  0  0  0  0  0  0  0
  183.7100  175.0050  137.8070 C   0  0  2  0  0  3  0  0  0  0  0  0
  182.8060  176.1710  137.6940 C   0  0  2  0  0  3  0  0  0  0  0  0
  183.8430  171.8500  136.1320 C   0  0  1  0  0  3  0  0  0  0  0  0
  183.1820  173.8960  135.6960 O   0  0  0  0  0  0  0  0  0  0  0  0
  186.4250  174.2300  137.3130 O   0  0  0  0  0  1  0  0  0  0  0  0
  183.3900  170.5010  136.6460 C   0  0  0  0  0  1  0  0  0  0  0  0
  182.8480  172.8100  136.3900 O   0  0  0  0  0  0  0  0  0  0  0  0
  185.4580  173.7010  136.4570 C   0  0  2  0  0  3  0  0  0  0  0  0
  184.1940  174.5760  136.4180 C   0  0  2  0  0  3  0  0  0  0  0  0
  185.1160  172.2690  136.8580 C   0  0  0  0  0  2  0  0  0  0  0  0
  1  9  1  0  0  0  0
  2  5  1  1  0  0  0
  2  3  1  0  0  0  0
  3  7  1  1  0  0  0
  4 11  1  1  0  0  0
  5 14  1  0  0  0  0
  6  1  1  0  0  0  0
  7  4  1  0  0  0  0
  8 12  1  6  0  0  0
 10 19  1  0  0  0  0
 12 16  1  0  0  0  0
 13 18  1  1  0  0  0
 13  8  1  0  0  0  0
 13  2  1  0  0  0  0
 14  1  2  0  0  0  0
 15  4  1  0  0  0  0
 16  5  2  0  0  0  0
 16 17  1  0  0  0  0
 17  6  2  0  0  0  0
 18 10  1  0  0  0  0
 19 20  1  1  0  0  0
 19  3  1  0  0  0  0
 20 15  1  0  0  0  0
 22 21  1  6  0  0  0
 23 22  1  0  0  0  0
 23 21  1  1  0  0  0
 23  8  1  0  0  0  0
 24 28  1  0  0  0  0
 24 27  1  1  0  0  0
 24 31  1  0  0  0  0
 25 28  1  0  0  0  0
 29 31  1  0  0  0  0
 29 26  1  1  0  0  0
 30 25  1  1  0  0  0
 30 29  1  0  0  0  0
 30 22  1  0  0  0  0
M  END
>  <MODEL>
7

>  <REMARK>
 VINA RESULT:      -5.2      3.350      7.845
  Name = 
  2 active torsions:
  status: ('A' for Active; 'I' for Inactive)
    1  A    between atoms: C_5  and  C_30
    2  A    between atoms: C_10  and  C_16
                            x       y       z     vdW  Elec       q    Type
                         _______ _______ _______ _____ _____    ______ ____

>  <TORSDO>
F 2

$$$$
=
 OpenBabel11122411013D

 31 36  0  0  1  0  0  0  0  0999 V2000
  190.9290  177.1280  141.1400 C   0  0  0  0  0  0  0  0  0  0  0  0
  190.0200  175.4460  137.8530 C   0  0  2  0  0  3  0  0  0  0  0  0
  188.8390  176.2400  137.2430 C   0  0  1  0  0  3  0  0  0  0  0  0
  187.6070  178.3630  136.8270 C   0  0  1  0  0  3  0  0  0  0  0  0
  190.7920  176.1820  138.9130 C   0  0  0  0  0  0  0  0  0  0  0  0
  192.2220  177.5830  140.8690 C   0  0  0  0  0  3  0  0  0  0  0  0
  188.9300  177.7640  137.3170 C   0  0  0  0  0  2  0  0  0  0  0  0
  191.9750  175.8140  136.3050 C   0  0  2  0  0  3  0  0  0  0  0  0
  190.3530  177.3700  142.3800 O   0  0  0  0  0  1  0  0  0  0  0  0
  188.7470  174.4580  135.6610 O   0  0  0  0  0  0  0  0  0  0  0  0
  187.6910  179.7530  136.8430 O   0  0  0  0  0  1  0  0  0  0  0  0
  192.6920  176.3780  137.4050 O   0  0  0  0  0  0  0  0  0  0  0  0
  190.9410  174.7880  136.7980 C   0  0  2  0  0  3  0  0  0  0  0  0
  190.2140  176.4270  140.1640 C   0  0  0  0  0  3  0  0  0  0  0  0
  187.2700  177.8850  135.4070 C   0  0  0  0  0  2  0  0  0  0  0  0
  192.0930  176.6420  138.6410 C   0  0  0  0  0  0  0  0  0  0  0  0
  192.8040  177.3380  139.6220 C   0  0  0  0  0  3  0  0  0  0  0  0
  190.1340  174.1920  135.6120 C   0  0  0  0  0  2  0  0  0  0  0  0
  188.6260  175.8460  135.7860 C   0  0  1  0  0  3  0  0  0  0  0  0
  187.2720  176.3560  135.3190 C   0  0  0  0  0  2  0  0  0  0  0  0
  193.4390  173.9770  135.8700 O   0  0  0  0  0  0  0  0  0  0  0  0
  194.2980  175.0870  135.9620 C   0  0  2  0  0  3  0  0  0  0  0  0
  192.9640  175.1870  135.3310 C   0  0  2  0  0  3  0  0  0  0  0  0
  197.7060  174.0120  136.0360 C   0  0  1  0  0  3  0  0  0  0  0  0
  195.9170  173.6620  134.8160 O   0  0  0  0  0  0  0  0  0  0  0  0
  196.0630  177.2590  135.3430 O   0  0  0  0  0  1  0  0  0  0  0  0
  198.4990  173.5040  137.2200 C   0  0  0  0  0  1  0  0  0  0  0  0
  196.4520  173.3760  136.0010 O   0  0  0  0  0  0  0  0  0  0  0  0
  196.5360  175.9730  135.0760 C   0  0  2  0  0  3  0  0  0  0  0  0
  195.3840  174.9730  134.8880 C   0  0  2  0  0  3  0  0  0  0  0  0
  197.4810  175.5120  136.1810 C   0  0  0  0  0  2  0  0  0  0  0  0
  1  9  1  0  0  0  0
  2  5  1  6  0  0  0
  3  7  1  6  0  0  0
  3  2  1  0  0  0  0
  4 11  1  6  0  0  0
  4  7  1  0  0  0  0
  5 14  1  0  0  0  0
  6  1  1  0  0  0  0
  8 13  1  0  0  0  0
  8 12  1  1  0  0  0
 10 19  1  0  0  0  0
 12 16  1  0  0  0  0
 13 18  1  6  0  0  0
 13  2  1  0  0  0  0
 14  1  2  0  0  0  0
 15  4  1  0  0  0  0
 16  5  2  0  0  0  0
 16 17  1  0  0  0  0
 17  6  2  0  0  0  0
 18 10  1  0  0  0  0
 19 20  1  1  0  0  0
 19  3  1  0  0  0  0
 20 15  1  0  0  0  0
 22 21  1  1  0  0  0
 23 21  1  1  0  0  0
 23 22  1  0  0  0  0
 23  8  1  0  0  0  0
 24 31  1  0  0  0  0
 24 27  1  1  0  0  0
 25 28  1  0  0  0  0
 28 24  1  0  0  0  0
 29 26  1  1  0  0  0
 29 31  1  0  0  0  0
 30 25  1  1  0  0  0
 30 29  1  0  0  0  0
 30 22  1  0  0  0  0
M  END
>  <MODEL>
8

>  <REMARK>
 VINA RESULT:      -5.2      3.724      9.155
  Name = 
  2 active torsions:
  status: ('A' for Active; 'I' for Inactive)
    1  A    between atoms: C_5  and  C_30
    2  A    between atoms: C_10  and  C_16
                            x       y       z     vdW  Elec       q    Type
                         _______ _______ _______ _____ _____    ______ ____

>  <TORSDO>
F 2

$$$$
=
 OpenBabel11122411013D

 31 36  0  0  1  0  0  0  0  0999 V2000
  181.7800  178.8830  142.1670 C   0  0  0  0  0  0  0  0  0  0  0  0
  181.2400  178.0750  138.4900 C   0  0  2  0  0  3  0  0  0  0  0  0
  180.7760  179.3790  137.7980 C   0  0  1  0  0  3  0  0  0  0  0  0
  180.8010  181.8550  137.5440 C   0  0  1  0  0  3  0  0  0  0  0  0
  181.9050  178.2740  139.8240 C   0  0  0  0  0  0  0  0  0  0  0  0
  183.1550  178.6750  142.2960 C   0  0  0  0  0  3  0  0  0  0  0  0
  181.5080  180.6610  138.1950 C   0  0  0  0  0  2  0  0  0  0  0  0
  183.5160  177.5570  137.5370 C   0  0  2  0  0  3  0  0  0  0  0  0
  181.0330  179.2890  143.2640 O   0  0  0  0  0  1  0  0  0  0  0  0
  180.3760  177.9740  135.9130 O   0  0  0  0  0  0  0  0  0  0  0  0
  181.4840  183.0280  137.8580 O   0  0  0  0  0  1  0  0  0  0  0  0
  184.0460  177.6290  138.8630 O   0  0  0  0  0  0  0  0  0  0  0  0
  182.0390  177.1270  137.5650 C   0  0  2  0  0  3  0  0  0  0  0  0
  181.1540  178.6820  140.9320 C   0  0  0  0  0  3  0  0  0  0  0  0
  180.7250  181.6970  136.0190 C   0  0  0  0  0  2  0  0  0  0  0  0
  183.2900  178.0660  139.9550 C   0  0  0  0  0  0  0  0  0  0  0  0
  183.9090  178.2640  141.1920 C   0  0  0  0  0  3  0  0  0  0  0  0
  181.4450  177.0760  136.1300 C   0  0  0  0  0  2  0  0  0  0  0  0
  180.8530  179.2370  136.2810 C   0  0  1  0  0  3  0  0  0  0  0  0
  180.0740  180.3670  135.6290 C   0  0  0  0  0  2  0  0  0  0  0  0
  185.0860  175.7570  137.5760 O   0  0  0  0  0  0  0  0  0  0  0  0
  185.7980  176.8210  136.9940 C   0  0  2  0  0  3  0  0  0  0  0  0
  184.3630  176.5980  136.7100 C   0  0  2  0  0  3  0  0  0  0  0  0
  189.3250  176.5340  136.4970 C   0  0  1  0  0  3  0  0  0  0  0  0
  187.5440  175.2720  136.2780 O   0  0  0  0  0  0  0  0  0  0  0  0
  186.6590  178.4890  134.8280 O   0  0  0  0  0  1  0  0  0  0  0  0
  190.4370  176.9290  137.4460 C   0  0  0  0  0  1  0  0  0  0  0  0
  188.3460  175.8060  137.1970 O   0  0  0  0  0  0  0  0  0  0  0  0
  187.4510  177.3760  135.1130 C   0  0  2  0  0  3  0  0  0  0  0  0
  186.6530  176.2830  135.8420 C   0  0  2  0  0  3  0  0  0  0  0  0
  188.6760  177.7880  135.9250 C   0  0  0  0  0  2  0  0  0  0  0  0
  1  6  1  0  0  0  0
  1  9  1  0  0  0  0
  2  5  1  1  0  0  0
  3  7  1  1  0  0  0
  3  2  1  0  0  0  0
  4 11  1  6  0  0  0
  4  7  1  0  0  0  0
  5 16  2  0  0  0  0
  5 14  1  0  0  0  0
  8 13  1  0  0  0  0
  8 12  1  1  0  0  0
 10 18  1  0  0  0  0
 10 19  1  0  0  0  0
 12 16  1  0  0  0  0
 13 18  1  6  0  0  0
 13  2  1  0  0  0  0
 14  1  2  0  0  0  0
 15  4  1  0  0  0  0
 16 17  1  0  0  0  0
 17  6  2  0  0  0  0
 19 20  1  6  0  0  0
 19  3  1  0  0  0  0
 20 15  1  0  0  0  0
 22 21  1  1  0  0  0
 23 22  1  0  0  0  0
 23  8  1  0  0  0  0
 23 21  1  1  0  0  0
 24 28  1  0  0  0  0
 24 27  1  1  0  0  0
 25 28  1  0  0  0  0
 29 26  1  1  0  0  0
 29 30  1  0  0  0  0
 29 31  1  0  0  0  0
 30 25  1  1  0  0  0
 30 22  1  0  0  0  0
 31 24  1  0  0  0  0
M  END
>  <MODEL>
9

>  <REMARK>
 VINA RESULT:      -5.1      2.416      7.893
  Name = 
  2 active torsions:
  status: ('A' for Active; 'I' for Inactive)
    1  A    between atoms: C_5  and  C_30
    2  A    between atoms: C_10  and  C_16
                            x       y       z     vdW  Elec       q    Type
                         _______ _______ _______ _____ _____    ______ ____

>  <TORSDO>
F 2

$$$$
