=
 OpenBabel11122410243D

 30 35  0  0  1  0  0  0  0  0999 V2000
  189.4080  177.1630  143.5260 C   0  0  0  0  0  0  0  0  0  0  0  0
  191.2270  176.2350  144.9040 C   0  0  0  0  0  0  0  0  0  0  0  0
  187.1450  178.0670  146.9340 N   0  0  0  0  0  2  0  0  0  0  0  0
  188.1570  177.8390  143.4790 C   0  0  0  0  0  0  0  0  0  0  0  0
  190.0010  176.6730  142.2260 C   0  0  0  0  0  2  0  0  0  0  0  0
  188.1210  178.6960  139.8740 O   0  0  0  0  0  0  0  0  0  0  0  0
  185.2940  177.7640  142.5840 C   0  0  1  0  0  3  0  0  0  0  0  0
  188.5030  178.2590  140.9950 C   0  0  0  0  0  0  0  0  0  0  0  0
  185.0460  177.8960  144.0810 C   0  0  2  0  0  3  0  0  0  0  0  0
  185.9580  178.6510  146.3020 C   0  0  1  0  0  3  0  0  0  0  0  0
  189.7480  177.5640  141.1000 N   0  0  0  0  0  0  0  0  0  0  0  0
  187.7230  178.5810  142.2310 C   0  0  1  0  0  3  0  0  0  0  0  0
  191.8700  175.9960  146.2440 C   0  0  0  0  0  2  0  0  0  0  0  0
  183.7940  178.7050  144.1430 C   0  0  0  0  0  2  0  0  0  0  0  0
  184.0500  177.8300  141.9280 O   0  0  0  0  0  0  0  0  0  0  0  0
  191.9880  175.8950  143.7920 O   0  0  0  0  0  1  0  0  0  0  0  0
  188.0270  177.7310  145.8770 C   0  0  0  0  0  0  0  0  0  0  0  0
  190.9500  176.1150  147.3260 O   0  0  0  0  0  0  0  0  0  0  0  0
  189.9980  176.8170  144.7950 C   0  0  0  0  0  0  0  0  0  0  0  0
  187.4750  178.0400  144.6810 C   0  0  0  0  0  0  0  0  0  0  0  0
  185.8660  180.1230  146.6590 C   0  0  0  0  0  1  0  0  0  0  0  0
  186.1380  178.5020  144.8490 N   0  0  0  0  0  0  0  0  0  0  0  0
  183.1060  178.3310  142.8510 C   0  0  0  0  0  2  0  0  0  0  0  0
  185.8730  180.1130  142.3690 O   0  0  0  0  0  1  0  0  0  0  0  0
  189.7280  176.7690  147.1900 C   0  0  0  0  0  3  0  0  0  0  0  0
  189.2720  177.1200  145.9860 C   0  0  0  0  0  0  0  0  0  0  0  0
  186.2300  178.8190  141.9840 C   0  0  2  0  0  3  0  0  0  0  0  0
  190.5720  177.4970  140.0240 O   0  0  0  0  0  0  0  0  0  0  0  0
  192.8550  177.1370  139.4630 C   0  0  0  0  0  1  0  0  0  0  0  0
  191.8680  177.5060  140.5490 C   0  0  0  0  0  2  0  0  0  0  0  0
  1 19  1  0  0  0  0
  2 13  1  0  0  0  0
  4  1  2  0  0  0  0
  4 20  1  0  0  0  0
  5  1  1  0  0  0  0
  6  8  2  0  0  0  0
  7 15  1  6  0  0  0
  7  9  1  0  0  0  0
  8 11  1  0  0  0  0
  9 14  1  6  0  0  0
  9 22  1  0  0  0  0
 10 21  1  6  0  0  0
 10  3  1  0  0  0  0
 11  5  1  0  0  0  0
 12  8  1  6  0  0  0
 12  4  1  0  0  0  0
 13 18  1  0  0  0  0
 15 23  1  0  0  0  0
 16  2  1  0  0  0  0
 17 26  1  0  0  0  0
 17  3  1  0  0  0  0
 19  2  2  0  0  0  0
 19 26  1  0  0  0  0
 20 22  1  0  0  0  0
 20 17  2  0  0  0  0
 22 10  1  0  0  0  0
 23 14  1  0  0  0  0
 25 18  1  0  0  0  0
 26 25  2  0  0  0  0
 27 12  1  0  0  0  0
 27 24  1  1  0  0  0
 27  7  1  0  0  0  0
 28 30  1  0  0  0  0
 28 11  1  0  0  0  0
 29 30  1  0  0  0  0
M  END
>  <MODEL>
1

>  <REMARK>
 VINA RESULT:      -8.7      0.000      0.000
  Name = 
  2 active torsions:
  status: ('A' for Active; 'I' for Inactive)
    1  A    between atoms: N_11  and  O_28
    2  A    between atoms: O_28  and  C_30
                            x       y       z     vdW  Elec       q    Type
                         _______ _______ _______ _____ _____    ______ ____

>  <TORSDO>
F 2

$$$$
=
 OpenBabel11122410243D

 30 35  0  0  1  0  0  0  0  0999 V2000
  185.6450  178.3160  142.7610 C   0  0  0  0  0  0  0  0  0  0  0  0
  186.3100  178.3840  145.1320 C   0  0  0  0  0  0  0  0  0  0  0  0
  181.6120  178.8420  143.7670 N   0  0  0  0  0  2  0  0  0  0  0  0
  184.6090  178.4510  141.7970 C   0  0  0  0  0  0  0  0  0  0  0  0
  187.0110  177.8810  142.2830 C   0  0  0  0  0  2  0  0  0  0  0  0
  186.7060  178.6280  138.7460 O   0  0  0  0  0  0  0  0  0  0  0  0
  183.0550  177.1540  139.5820 C   0  0  1  0  0  3  0  0  0  0  0  0
  186.3640  178.5580  139.9590 C   0  0  0  0  0  0  0  0  0  0  0  0
  181.8920  177.4250  140.5280 C   0  0  2  0  0  3  0  0  0  0  0  0
  181.0140  178.8210  142.4280 C   0  0  1  0  0  3  0  0  0  0  0  0
  187.3630  178.4130  140.9720 N   0  0  0  0  0  0  0  0  0  0  0  0
  184.9330  178.7590  140.3480 C   0  0  1  0  0  3  0  0  0  0  0  0
  185.9850  178.6290  146.5820 C   0  0  0  0  0  2  0  0  0  0  0  0
  180.7590  177.6990  139.5960 C   0  0  0  0  0  2  0  0  0  0  0  0
  182.5290  176.6360  138.3820 O   0  0  0  0  0  0  0  0  0  0  0  0
  187.6520  178.1790  144.8330 O   0  0  0  0  0  1  0  0  0  0  0  0
  183.0090  178.6970  143.5730 C   0  0  0  0  0  0  0  0  0  0  0  0
  184.5870  178.5670  146.8520 O   0  0  0  0  0  0  0  0  0  0  0  0
  185.3480  178.4310  144.1670 C   0  0  0  0  0  0  0  0  0  0  0  0
  183.2970  178.5730  142.2570 C   0  0  0  0  0  0  0  0  0  0  0  0
  180.4300  180.1870  142.1140 C   0  0  0  0  0  1  0  0  0  0  0  0
  182.1010  178.5170  141.4850 N   0  0  0  0  0  0  0  0  0  0  0  0
  181.1400  176.8860  138.3810 C   0  0  0  0  0  2  0  0  0  0  0  0
  183.1640  179.4770  138.8840 O   0  0  0  0  0  1  0  0  0  0  0  0
  183.6330  178.6780  145.8430 C   0  0  0  0  0  3  0  0  0  0  0  0
  183.9890  178.6280  144.5580 C   0  0  0  0  0  0  0  0  0  0  0  0
  183.9290  178.3700  139.2590 C   0  0  2  0  0  3  0  0  0  0  0  0
  188.6760  178.4870  140.6350 O   0  0  0  0  0  0  0  0  0  0  0  0
  190.5550  177.0300  140.6550 C   0  0  0  0  0  1  0  0  0  0  0  0
  189.3060  177.4840  141.3780 C   0  0  0  0  0  2  0  0  0  0  0  0
  1 19  1  0  0  0  0
  2 13  1  0  0  0  0
  4 20  1  0  0  0  0
  4  1  2  0  0  0  0
  5  1  1  0  0  0  0
  6  8  2  0  0  0  0
  7 15  1  6  0  0  0
  7  9  1  0  0  0  0
  8 11  1  0  0  0  0
  9 14  1  6  0  0  0
  9 22  1  0  0  0  0
 10 21  1  6  0  0  0
 10  3  1  0  0  0  0
 11  5  1  0  0  0  0
 12  8  1  6  0  0  0
 12  4  1  0  0  0  0
 13 18  1  0  0  0  0
 16  2  1  0  0  0  0
 17  3  1  0  0  0  0
 17 26  1  0  0  0  0
 19 26  1  0  0  0  0
 19  2  2  0  0  0  0
 20 17  2  0  0  0  0
 22 20  1  0  0  0  0
 22 10  1  0  0  0  0
 23 15  1  0  0  0  0
 23 14  1  0  0  0  0
 25 18  1  0  0  0  0
 26 25  2  0  0  0  0
 27 24  1  1  0  0  0
 27  7  1  0  0  0  0
 27 12  1  0  0  0  0
 28 11  1  0  0  0  0
 28 30  1  0  0  0  0
 29 30  1  0  0  0  0
M  END
>  <MODEL>
2

>  <REMARK>
 VINA RESULT:      -8.5      2.941      4.784
  Name = 
  2 active torsions:
  status: ('A' for Active; 'I' for Inactive)
    1  A    between atoms: N_11  and  O_28
    2  A    between atoms: O_28  and  C_30
                            x       y       z     vdW  Elec       q    Type
                         _______ _______ _______ _____ _____    ______ ____

>  <TORSDO>
F 2

$$$$
=
 OpenBabel11122410243D

 30 35  0  0  1  0  0  0  0  0999 V2000
  187.8100  177.6210  142.7080 C   0  0  0  0  0  0  0  0  0  0  0  0
  189.0930  177.0820  144.7410 C   0  0  0  0  0  0  0  0  0  0  0  0
  184.3770  178.4450  144.9630 N   0  0  0  0  0  2  0  0  0  0  0  0
  186.5970  178.0990  142.1410 C   0  0  0  0  0  0  0  0  0  0  0  0
  188.8870  177.1240  141.7710 C   0  0  0  0  0  2  0  0  0  0  0  0
  187.7830  178.6570  138.6740 O   0  0  0  0  0  0  0  0  0  0  0  0
  184.2840  177.5320  140.3150 C   0  0  1  0  0  3  0  0  0  0  0  0
  187.7760  178.3700  139.9030 C   0  0  0  0  0  0  0  0  0  0  0  0
  183.4940  177.7430  141.6010 C   0  0  2  0  0  3  0  0  0  0  0  0
  183.4460  178.7950  143.8860 C   0  0  1  0  0  3  0  0  0  0  0  0
  188.9650  177.8770  140.5250 N   0  0  0  0  0  0  0  0  0  0  0  0
  186.5690  178.6690  140.7370 C   0  0  1  0  0  3  0  0  0  0  0  0
  189.2260  177.0470  146.2410 C   0  0  0  0  0  2  0  0  0  0  0  0
  182.2250  178.3610  141.1170 C   0  0  0  0  0  2  0  0  0  0  0  0
  183.3640  177.3630  139.2620 O   0  0  0  0  0  0  0  0  0  0  0  0
  190.2390  176.7720  144.0190 O   0  0  0  0  0  1  0  0  0  0  0  0
  185.6150  178.1610  144.3340 C   0  0  0  0  0  0  0  0  0  0  0  0
  187.9670  177.1130  146.9070 O   0  0  0  0  0  0  0  0  0  0  0  0
  187.9320  177.4660  144.1350 C   0  0  0  0  0  0  0  0  0  0  0  0
  185.5060  178.2910  142.9910 C   0  0  0  0  0  0  0  0  0  0  0  0
  183.0700  180.2620  144.0000 C   0  0  0  0  0  1  0  0  0  0  0  0
  184.1580  178.5620  142.6200 N   0  0  0  0  0  0  0  0  0  0  0  0
  182.1000  177.7890  139.7240 C   0  0  0  0  0  2  0  0  0  0  0  0
  184.6390  179.9160  140.0220 O   0  0  0  0  0  1  0  0  0  0  0  0
  186.8150  177.5660  146.2700 C   0  0  0  0  0  3  0  0  0  0  0  0
  186.7940  177.7510  144.9480 C   0  0  0  0  0  0  0  0  0  0  0  0
  185.2520  178.6640  139.9540 C   0  0  2  0  0  3  0  0  0  0  0  0
  190.1270  177.8480  139.8240 O   0  0  0  0  0  0  0  0  0  0  0  0
  192.4310  177.4620  140.2700 C   0  0  0  0  0  1  0  0  0  0  0  0
  191.0030  177.0760  140.5910 C   0  0  0  0  0  2  0  0  0  0  0  0
  1 19  1  0  0  0  0
  2 13  1  0  0  0  0
  4  1  2  0  0  0  0
  4 20  1  0  0  0  0
  5  1  1  0  0  0  0
  6  8  2  0  0  0  0
  7 15  1  6  0  0  0
  7  9  1  0  0  0  0
  8 11  1  0  0  0  0
  9 14  1  6  0  0  0
  9 22  1  0  0  0  0
 10 21  1  1  0  0  0
 10  3  1  0  0  0  0
 11  5  1  0  0  0  0
 12  8  1  6  0  0  0
 12  4  1  0  0  0  0
 13 18  1  0  0  0  0
 15 23  1  0  0  0  0
 16  2  1  0  0  0  0
 17 26  1  0  0  0  0
 17  3  1  0  0  0  0
 19  2  2  0  0  0  0
 19 26  1  0  0  0  0
 20 17  2  0  0  0  0
 22 20  1  0  0  0  0
 22 10  1  0  0  0  0
 23 14  1  0  0  0  0
 25 18  1  0  0  0  0
 26 25  2  0  0  0  0
 27 24  1  1  0  0  0
 27  7  1  0  0  0  0
 27 12  1  0  0  0  0
 28 11  1  0  0  0  0
 28 30  1  0  0  0  0
 29 30  1  0  0  0  0
M  END
>  <MODEL>
3

>  <REMARK>
 VINA RESULT:      -8.4      1.711      2.517
  Name = 
  2 active torsions:
  status: ('A' for Active; 'I' for Inactive)
    1  A    between atoms: N_11  and  O_28
    2  A    between atoms: O_28  and  C_30
                            x       y       z     vdW  Elec       q    Type
                         _______ _______ _______ _____ _____    ______ ____

>  <TORSDO>
F 2

$$$$
=
 OpenBabel11122410243D

 30 35  0  0  1  0  0  0  0  0999 V2000
  185.9130  178.3070  143.0060 C   0  0  0  0  0  0  0  0  0  0  0  0
  185.3980  178.4610  140.6020 C   0  0  0  0  0  0  0  0  0  0  0  0
  190.0270  178.1800  142.2270 N   0  0  0  0  0  2  0  0  0  0  0  0
  186.9030  178.2840  144.0270 C   0  0  0  0  0  0  0  0  0  0  0  0
  184.4710  178.0970  143.4070 C   0  0  0  0  0  2  0  0  0  0  0  0
  184.6960  178.8130  146.9570 O   0  0  0  0  0  0  0  0  0  0  0  0
  188.1070  176.7720  146.3220 C   0  0  1  0  0  3  0  0  0  0  0  0
  185.0880  178.6800  145.7650 C   0  0  0  0  0  0  0  0  0  0  0  0
  189.3490  176.8500  145.4430 C   0  0  2  0  0  3  0  0  0  0  0  0
  190.5410  178.0750  143.5960 C   0  0  1  0  0  3  0  0  0  0  0  0
  184.1370  178.6880  144.6980 N   0  0  0  0  0  0  0  0  0  0  0  0
  186.5530  178.6490  145.4550 C   0  0  1  0  0  3  0  0  0  0  0  0
  185.8370  178.6410  139.1730 C   0  0  0  0  0  2  0  0  0  0  0  0
  190.4580  176.9470  146.4370 C   0  0  0  0  0  2  0  0  0  0  0  0
  188.4780  176.1870  147.5490 O   0  0  0  0  0  0  0  0  0  0  0  0
  184.0270  178.4740  140.8260 O   0  0  0  0  0  1  0  0  0  0  0  0
  188.6170  178.2590  142.3420 C   0  0  0  0  0  0  0  0  0  0  0  0
  187.2210  178.3570  138.9810 O   0  0  0  0  0  0  0  0  0  0  0  0
  186.3020  178.3630  141.6200 C   0  0  0  0  0  0  0  0  0  0  0  0
  188.2410  178.1930  143.6400 C   0  0  0  0  0  0  0  0  0  0  0  0
  191.3150  179.3330  143.9440 C   0  0  0  0  0  1  0  0  0  0  0  0
  189.3680  177.9530  144.4780 N   0  0  0  0  0  0  0  0  0  0  0  0
  189.8870  176.2140  147.6280 C   0  0  0  0  0  2  0  0  0  0  0  0
  188.3300  179.0890  147.0160 O   0  0  0  0  0  1  0  0  0  0  0  0
  188.1240  178.3220  140.0410 C   0  0  0  0  0  3  0  0  0  0  0  0
  187.6940  178.3390  141.3040 C   0  0  0  0  0  0  0  0  0  0  0  0
  187.4210  178.1150  146.5980 C   0  0  2  0  0  3  0  0  0  0  0  0
  182.8360  178.9720  144.9620 O   0  0  0  0  0  0  0  0  0  0  0  0
  180.7470  178.6690  143.8650 C   0  0  0  0  0  1  0  0  0  0  0  0
  182.2090  179.0290  143.7130 C   0  0  0  0  0  2  0  0  0  0  0  0
  1  5  1  0  0  0  0
  1  4  2  0  0  0  0
  2 16  1  0  0  0  0
  2 19  2  0  0  0  0
  3 17  1  0  0  0  0
  3 10  1  0  0  0  0
  5 11  1  0  0  0  0
  7 27  1  0  0  0  0
  7 15  1  1  0  0  0
  8  6  2  0  0  0  0
  9  7  1  0  0  0  0
  9 14  1  1  0  0  0
 10 21  1  1  0  0  0
 10 22  1  0  0  0  0
 11 28  1  0  0  0  0
 11  8  1  0  0  0  0
 12  4  1  6  0  0  0
 12  8  1  0  0  0  0
 12 27  1  0  0  0  0
 13  2  1  0  0  0  0
 14 23  1  0  0  0  0
 15 23  1  0  0  0  0
 17 20  2  0  0  0  0
 18 13  1  0  0  0  0
 18 25  1  0  0  0  0
 19  1  1  0  0  0  0
 20  4  1  0  0  0  0
 20 22  1  0  0  0  0
 22  9  1  0  0  0  0
 25 26  2  0  0  0  0
 26 19  1  0  0  0  0
 26 17  1  0  0  0  0
 27 24  1  6  0  0  0
 30 29  1  0  0  0  0
 30 28  1  0  0  0  0
M  END
>  <MODEL>
4

>  <REMARK>
 VINA RESULT:      -7.9      2.137      6.805
  Name = 
  2 active torsions:
  status: ('A' for Active; 'I' for Inactive)
    1  A    between atoms: N_11  and  O_28
    2  A    between atoms: O_28  and  C_30
                            x       y       z     vdW  Elec       q    Type
                         _______ _______ _______ _____ _____    ______ ____

>  <TORSDO>
F 2

$$$$
=
 OpenBabel11122410243D

 30 35  0  0  1  0  0  0  0  0999 V2000
  188.0260  177.6070  142.3490 C   0  0  0  0  0  0  0  0  0  0  0  0
  185.8300  178.2490  143.2620 C   0  0  0  0  0  0  0  0  0  0  0  0
  186.8400  178.6600  138.4710 N   0  0  0  0  0  2  0  0  0  0  0  0
  188.8940  177.5560  141.2240 C   0  0  0  0  0  0  0  0  0  0  0  0
  188.4910  176.9670  143.6360 C   0  0  0  0  0  2  0  0  0  0  0  0
  192.0550  176.7770  142.9930 O   0  0  0  0  0  0  0  0  0  0  0  0
  190.5290  175.8330  139.3900 C   0  0  1  0  0  3  0  0  0  0  0  0
  190.8430  177.0520  142.7780 C   0  0  0  0  0  0  0  0  0  0  0  0
  189.5900  176.4250  138.3460 C   0  0  2  0  0  3  0  0  0  0  0  0
  188.0640  178.3300  137.7340 C   0  0  1  0  0  3  0  0  0  0  0  0
  189.9230  177.1090  143.8710 N   0  0  0  0  0  0  0  0  0  0  0  0
  190.3950  177.4480  141.4060 C   0  0  1  0  0  3  0  0  0  0  0  0
  184.4760  178.8900  143.1030 C   0  0  0  0  0  2  0  0  0  0  0  0
  190.4560  176.5230  137.1340 C   0  0  0  0  0  2  0  0  0  0  0  0
  191.4940  175.0560  138.7190 O   0  0  0  0  0  0  0  0  0  0  0  0
  186.1830  177.8800  144.5540 O   0  0  0  0  0  1  0  0  0  0  0  0
  187.1120  178.3710  139.8310 C   0  0  0  0  0  0  0  0  0  0  0  0
  184.0750  178.9990  141.7390 O   0  0  0  0  0  0  0  0  0  0  0  0
  186.6820  178.1090  142.2060 C   0  0  0  0  0  0  0  0  0  0  0  0
  188.3670  177.8860  139.9740 C   0  0  0  0  0  0  0  0  0  0  0  0
  188.6800  179.6020  137.1810 C   0  0  0  0  0  1  0  0  0  0  0  0
  188.9850  177.7120  138.7020 N   0  0  0  0  0  0  0  0  0  0  0  0
  191.4370  175.3940  137.3490 C   0  0  0  0  0  2  0  0  0  0  0  0
  191.8330  177.8780  139.5250 O   0  0  0  0  0  1  0  0  0  0  0  0
  184.9860  178.9070  140.6900 C   0  0  0  0  0  3  0  0  0  0  0  0
  186.2370  178.4960  140.9070 C   0  0  0  0  0  0  0  0  0  0  0  0
  191.2450  176.8580  140.2770 C   0  0  2  0  0  3  0  0  0  0  0  0
  190.3840  177.0000  145.1430 O   0  0  0  0  0  0  0  0  0  0  0  0
  189.4350  177.0610  147.3230 C   0  0  0  0  0  1  0  0  0  0  0  0
  189.4440  177.6660  145.9350 C   0  0  0  0  0  2  0  0  0  0  0  0
  1  5  1  0  0  0  0
  2 16  1  0  0  0  0
  3 17  1  0  0  0  0
  4  1  2  0  0  0  0
  5 11  1  0  0  0  0
  7 15  1  6  0  0  0
  7 27  1  0  0  0  0
  8  6  2  0  0  0  0
  8 11  1  0  0  0  0
  9 14  1  6  0  0  0
  9 22  1  0  0  0  0
  9  7  1  0  0  0  0
 10 21  1  1  0  0  0
 10  3  1  0  0  0  0
 10 22  1  0  0  0  0
 11 28  1  0  0  0  0
 12  4  1  6  0  0  0
 12  8  1  0  0  0  0
 13  2  1  0  0  0  0
 14 23  1  0  0  0  0
 17 20  2  0  0  0  0
 17 26  1  0  0  0  0
 18 13  1  0  0  0  0
 19  1  1  0  0  0  0
 19  2  2  0  0  0  0
 20  4  1  0  0  0  0
 22 20  1  0  0  0  0
 23 15  1  0  0  0  0
 25 26  2  0  0  0  0
 25 18  1  0  0  0  0
 26 19  1  0  0  0  0
 27 24  1  6  0  0  0
 27 12  1  0  0  0  0
 28 30  1  0  0  0  0
 30 29  1  0  0  0  0
M  END
>  <MODEL>
5

>  <REMARK>
 VINA RESULT:      -7.8      2.191      6.774
  Name = 
  2 active torsions:
  status: ('A' for Active; 'I' for Inactive)
    1  A    between atoms: N_11  and  O_28
    2  A    between atoms: O_28  and  C_30
                            x       y       z     vdW  Elec       q    Type
                         _______ _______ _______ _____ _____    ______ ____

>  <TORSDO>
F 2

$$$$
=
 OpenBabel11122410243D

 30 35  0  0  1  0  0  0  0  0999 V2000
  187.0020  178.0270  142.1190 C   0  0  0  0  0  0  0  0  0  0  0  0
  186.2640  178.2190  144.4620 C   0  0  0  0  0  0  0  0  0  0  0  0
  183.1820  179.0300  140.7210 N   0  0  0  0  0  2  0  0  0  0  0  0
  186.6900  178.1860  140.7410 C   0  0  0  0  0  0  0  0  0  0  0  0
  188.3380  177.4210  142.4810 C   0  0  0  0  0  2  0  0  0  0  0  0
  190.1160  177.9070  139.3570 O   0  0  0  0  0  0  0  0  0  0  0  0
  186.4500  176.8740  138.0530 C   0  0  1  0  0  3  0  0  0  0  0  0
  189.1610  177.9690  140.1790 C   0  0  0  0  0  0  0  0  0  0  0  0
  185.0050  177.3360  138.1950 C   0  0  2  0  0  3  0  0  0  0  0  0
  183.4160  178.9610  139.2750 C   0  0  1  0  0  3  0  0  0  0  0  0
  189.4140  177.8070  141.5770 N   0  0  0  0  0  0  0  0  0  0  0  0
  187.7890  178.3420  139.7100 C   0  0  1  0  0  3  0  0  0  0  0  0
  185.2330  178.6110  145.4870 C   0  0  0  0  0  2  0  0  0  0  0  0
  184.6130  177.6450  136.7880 C   0  0  0  0  0  2  0  0  0  0  0  0
  186.6060  176.3170  136.7690 O   0  0  0  0  0  0  0  0  0  0  0  0
  187.5110  177.8590  144.9560 O   0  0  0  0  0  1  0  0  0  0  0  0
  184.4250  178.7310  141.3330 C   0  0  0  0  0  0  0  0  0  0  0  0
  183.9200  178.7110  144.9400 O   0  0  0  0  0  0  0  0  0  0  0  0
  186.0020  178.2840  143.1240 C   0  0  0  0  0  0  0  0  0  0  0  0
  185.3680  178.4740  140.3970 C   0  0  0  0  0  0  0  0  0  0  0  0
  183.2800  180.3480  138.6730 C   0  0  0  0  0  1  0  0  0  0  0  0
  184.7940  178.4740  139.0940 N   0  0  0  0  0  0  0  0  0  0  0  0
  185.4890  176.7030  135.9960 C   0  0  0  0  0  2  0  0  0  0  0  0
  187.2180  179.1120  137.5030 O   0  0  0  0  0  1  0  0  0  0  0  0
  183.6970  178.8340  143.5700 C   0  0  0  0  0  3  0  0  0  0  0  0
  184.6890  178.6450  142.6970 C   0  0  0  0  0  0  0  0  0  0  0  0
  187.5050  177.9680  138.2510 C   0  0  2  0  0  3  0  0  0  0  0  0
  190.6940  177.7240  142.0210 O   0  0  0  0  0  0  0  0  0  0  0  0
  191.2780  179.1260  143.8510 C   0  0  0  0  0  1  0  0  0  0  0  0
  190.6110  177.8400  143.4120 C   0  0  0  0  0  2  0  0  0  0  0  0
  1  5  1  0  0  0  0
  1 19  1  0  0  0  0
  2 16  1  0  0  0  0
  2 13  1  0  0  0  0
  3 17  1  0  0  0  0
  4  1  2  0  0  0  0
  6  8  2  0  0  0  0
  7 15  1  6  0  0  0
  7  9  1  0  0  0  0
  7 27  1  0  0  0  0
  8 11  1  0  0  0  0
  9 14  1  6  0  0  0
  9 22  1  0  0  0  0
 10 21  1  1  0  0  0
 10  3  1  0  0  0  0
 11 28  1  0  0  0  0
 11  5  1  0  0  0  0
 12  8  1  1  0  0  0
 12  4  1  0  0  0  0
 17 26  1  0  0  0  0
 18 13  1  0  0  0  0
 19  2  2  0  0  0  0
 20  4  1  0  0  0  0
 20 17  2  0  0  0  0
 22 10  1  0  0  0  0
 22 20  1  0  0  0  0
 23 15  1  0  0  0  0
 23 14  1  0  0  0  0
 25 18  1  0  0  0  0
 26 19  1  0  0  0  0
 26 25  2  0  0  0  0
 27 24  1  6  0  0  0
 27 12  1  0  0  0  0
 28 30  1  0  0  0  0
 30 29  1  0  0  0  0
M  END
>  <MODEL>
6

>  <REMARK>
 VINA RESULT:      -7.7      3.065      5.390
  Name = 
  2 active torsions:
  status: ('A' for Active; 'I' for Inactive)
    1  A    between atoms: N_11  and  O_28
    2  A    between atoms: O_28  and  C_30
                            x       y       z     vdW  Elec       q    Type
                         _______ _______ _______ _____ _____    ______ ____

>  <TORSDO>
F 2

$$$$
=
 OpenBabel11122410243D

 30 35  0  0  1  0  0  0  0  0999 V2000
  186.1390  178.4570  142.5770 C   0  0  0  0  0  0  0  0  0  0  0  0
  183.7890  178.9370  143.1400 C   0  0  0  0  0  0  0  0  0  0  0  0
  187.1040  177.8960  146.6150 N   0  0  0  0  0  2  0  0  0  0  0  0
  187.4260  178.0540  143.0250 C   0  0  0  0  0  0  0  0  0  0  0  0
  185.9850  178.8690  141.1310 C   0  0  0  0  0  2  0  0  0  0  0  0
  188.9760  177.3720  139.7290 O   0  0  0  0  0  0  0  0  0  0  0  0
  190.3360  178.7490  143.2590 C   0  0  1  0  0  3  0  0  0  0  0  0
  188.1240  177.6750  140.6090 C   0  0  0  0  0  0  0  0  0  0  0  0
  190.0300  178.6090  144.7440 C   0  0  2  0  0  3  0  0  0  0  0  0
  188.5330  177.5930  146.4930 C   0  0  1  0  0  3  0  0  0  0  0  0
  186.8160  178.0960  140.2160 N   0  0  0  0  0  0  0  0  0  0  0  0
  188.4360  177.4680  142.0590 C   0  0  1  0  0  3  0  0  0  0  0  0
  182.6590  178.9840  144.1350 C   0  0  0  0  0  2  0  0  0  0  0  0
  191.3070  178.0710  145.2990 C   0  0  0  0  0  2  0  0  0  0  0  0
  191.7210  178.9660  143.1160 O   0  0  0  0  0  0  0  0  0  0  0  0
  183.4440  179.1600  141.8130 O   0  0  0  0  0  1  0  0  0  0  0  0
  186.6300  178.0870  145.2930 C   0  0  0  0  0  0  0  0  0  0  0  0
  183.1130  179.0110  145.4850 O   0  0  0  0  0  0  0  0  0  0  0  0
  185.0610  178.6240  143.5200 C   0  0  0  0  0  0  0  0  0  0  0  0
  187.6380  177.9470  144.4010 C   0  0  0  0  0  0  0  0  0  0  0  0
  188.7840  176.1570  146.9150 C   0  0  0  0  0  1  0  0  0  0  0  0
  188.8800  177.7610  145.0730 N   0  0  0  0  0  0  0  0  0  0  0  0
  192.3340  178.6310  144.3430 C   0  0  0  0  0  2  0  0  0  0  0  0
  190.3740  176.3430  142.9350 O   0  0  0  0  0  1  0  0  0  0  0  0
  184.4040  178.6270  145.8400 C   0  0  0  0  0  3  0  0  0  0  0  0
  185.3370  178.4260  144.9060 C   0  0  0  0  0  0  0  0  0  0  0  0
  189.9280  177.5510  142.3940 C   0  0  2  0  0  3  0  0  0  0  0  0
  186.4560  178.0380  138.9090 O   0  0  0  0  0  0  0  0  0  0  0  0
  184.2860  177.7880  137.9690 C   0  0  0  0  0  1  0  0  0  0  0  0
  185.1900  178.6270  138.8460 C   0  0  0  0  0  2  0  0  0  0  0  0
  1  4  2  0  0  0  0
  1 19  1  0  0  0  0
  2 19  2  0  0  0  0
  2 13  1  0  0  0  0
  4 20  1  0  0  0  0
  5  1  1  0  0  0  0
  6  8  2  0  0  0  0
  7 15  1  1  0  0  0
  7  9  1  0  0  0  0
  9 22  1  0  0  0  0
  9 14  1  1  0  0  0
 10  3  1  0  0  0  0
 10 21  1  6  0  0  0
 11  8  1  0  0  0  0
 11  5  1  0  0  0  0
 12  8  1  6  0  0  0
 12 27  1  0  0  0  0
 12  4  1  0  0  0  0
 13 18  1  0  0  0  0
 15 23  1  0  0  0  0
 16  2  1  0  0  0  0
 17  3  1  0  0  0  0
 18 25  1  0  0  0  0
 19 26  1  0  0  0  0
 20 22  1  0  0  0  0
 20 17  2  0  0  0  0
 22 10  1  0  0  0  0
 23 14  1  0  0  0  0
 26 17  1  0  0  0  0
 26 25  2  0  0  0  0
 27 24  1  1  0  0  0
 27  7  1  0  0  0  0
 28 11  1  0  0  0  0
 29 30  1  0  0  0  0
 30 28  1  0  0  0  0
M  END
>  <MODEL>
7

>  <REMARK>
 VINA RESULT:      -7.6      1.985      5.636
  Name = 
  2 active torsions:
  status: ('A' for Active; 'I' for Inactive)
    1  A    between atoms: N_11  and  O_28
    2  A    between atoms: O_28  and  C_30
                            x       y       z     vdW  Elec       q    Type
                         _______ _______ _______ _____ _____    ______ ____

>  <TORSDO>
F 2

$$$$
=
 OpenBabel11122410243D

 30 35  0  0  1  0  0  0  0  0999 V2000
  187.6700  178.1340  139.9840 C   0  0  0  0  0  0  0  0  0  0  0  0
  185.5760  178.9930  139.0100 C   0  0  0  0  0  0  0  0  0  0  0  0
  186.0590  178.2810  143.8480 N   0  0  0  0  0  2  0  0  0  0  0  0
  188.3630  177.6790  141.1390 C   0  0  0  0  0  0  0  0  0  0  0  0
  188.4450  178.2640  138.6930 C   0  0  0  0  0  2  0  0  0  0  0  0
  191.3060  176.1720  139.4650 O   0  0  0  0  0  0  0  0  0  0  0  0
  190.7090  178.0560  142.9720 C   0  0  1  0  0  3  0  0  0  0  0  0
  190.1960  176.7440  139.6430 C   0  0  0  0  0  0  0  0  0  0  0  0
  189.6010  178.2530  143.9990 C   0  0  2  0  0  3  0  0  0  0  0  0
  187.2060  177.7930  144.6190 C   0  0  1  0  0  3  0  0  0  0  0  0
  189.4590  177.2300  138.5190 N   0  0  0  0  0  0  0  0  0  0  0  0
  189.5880  176.7960  141.0100 C   0  0  1  0  0  3  0  0  0  0  0  0
  184.1240  179.3710  139.1400 C   0  0  0  0  0  2  0  0  0  0  0  0
  190.1970  177.6890  145.2460 C   0  0  0  0  0  2  0  0  0  0  0  0
  191.9420  178.0730  143.6510 O   0  0  0  0  0  0  0  0  0  0  0  0
  186.0920  178.9850  137.7200 O   0  0  0  0  0  1  0  0  0  0  0  0
  186.4610  178.2590  142.4900 C   0  0  0  0  0  0  0  0  0  0  0  0
  183.7360  179.6140  140.4900 O   0  0  0  0  0  0  0  0  0  0  0  0
  186.3150  178.6130  140.0920 C   0  0  0  0  0  0  0  0  0  0  0  0
  187.7380  177.8250  142.3780 C   0  0  0  0  0  0  0  0  0  0  0  0
  186.8650  176.4500  145.2400 C   0  0  0  0  0  1  0  0  0  0  0  0
  188.3160  177.6310  143.6660 N   0  0  0  0  0  0  0  0  0  0  0  0
  191.6740  177.9210  145.0290 C   0  0  0  0  0  2  0  0  0  0  0  0
  190.4080  175.6460  142.9580 O   0  0  0  0  0  1  0  0  0  0  0  0
  184.4890  179.1580  141.5700 C   0  0  0  0  0  3  0  0  0  0  0  0
  185.7160  178.6650  141.3870 C   0  0  0  0  0  0  0  0  0  0  0  0
  190.6120  176.7660  142.1500 C   0  0  2  0  0  3  0  0  0  0  0  0
  189.8920  176.9540  137.2620 O   0  0  0  0  0  0  0  0  0  0  0  0
  188.5580  175.0470  136.7740 C   0  0  0  0  0  1  0  0  0  0  0  0
  188.7560  176.5320  136.5640 C   0  0  0  0  0  2  0  0  0  0  0  0
  1 19  1  0  0  0  0
  1  4  2  0  0  0  0
  2 13  1  0  0  0  0
  2 19  2  0  0  0  0
  3 10  1  0  0  0  0
  4 20  1  0  0  0  0
  5  1  1  0  0  0  0
  6  8  2  0  0  0  0
  7 15  1  1  0  0  0
  7  9  1  0  0  0  0
  9 14  1  1  0  0  0
 10 21  1  6  0  0  0
 11  5  1  0  0  0  0
 11  8  1  0  0  0  0
 12  8  1  6  0  0  0
 12  4  1  0  0  0  0
 12 27  1  0  0  0  0
 13 18  1  0  0  0  0
 15 23  1  0  0  0  0
 16  2  1  0  0  0  0
 17  3  1  0  0  0  0
 18 25  1  0  0  0  0
 19 26  1  0  0  0  0
 20 17  2  0  0  0  0
 20 22  1  0  0  0  0
 22  9  1  0  0  0  0
 22 10  1  0  0  0  0
 23 14  1  0  0  0  0
 26 25  2  0  0  0  0
 26 17  1  0  0  0  0
 27 24  1  1  0  0  0
 27  7  1  0  0  0  0
 28 11  1  0  0  0  0
 30 29  1  0  0  0  0
 30 28  1  0  0  0  0
M  END
>  <MODEL>
8

>  <REMARK>
 VINA RESULT:      -7.5      2.274      5.865
  Name = 
  2 active torsions:
  status: ('A' for Active; 'I' for Inactive)
    1  A    between atoms: N_11  and  O_28
    2  A    between atoms: O_28  and  C_30
                            x       y       z     vdW  Elec       q    Type
                         _______ _______ _______ _____ _____    ______ ____

>  <TORSDO>
F 2

$$$$
=
 OpenBabel11122410243D

 30 35  0  0  1  0  0  0  0  0999 V2000
  189.5390  177.2620  139.1630 C   0  0  0  0  0  0  0  0  0  0  0  0
  191.4360  176.6330  137.7220 C   0  0  0  0  0  0  0  0  0  0  0  0
  192.0550  177.6430  142.4910 N   0  0  0  0  0  2  0  0  0  0  0  0
  189.0900  177.7040  140.4370 C   0  0  0  0  0  0  0  0  0  0  0  0
  188.5000  176.9240  138.1190 C   0  0  0  0  0  2  0  0  0  0  0  0
  185.6280  178.6470  139.5120 O   0  0  0  0  0  0  0  0  0  0  0  0
  187.3560  177.1440  142.8220 C   0  0  1  0  0  3  0  0  0  0  0  0
  186.8230  178.2530  139.4230 C   0  0  0  0  0  0  0  0  0  0  0  0
  188.6990  177.1850  143.5400 C   0  0  2  0  0  3  0  0  0  0  0  0
  191.0720  178.0240  143.5090 C   0  0  1  0  0  3  0  0  0  0  0  0
  187.3270  177.7890  138.1680 N   0  0  0  0  0  0  0  0  0  0  0  0
  187.7490  178.3930  140.5910 C   0  0  1  0  0  3  0  0  0  0  0  0
  192.9160  176.4730  137.4920 C   0  0  0  0  0  2  0  0  0  0  0  0
  188.3490  177.7540  144.8740 C   0  0  0  0  0  2  0  0  0  0  0  0
  186.3460  177.0060  143.7940 O   0  0  0  0  0  0  0  0  0  0  0  0
  190.6230  176.4680  136.6070 O   0  0  0  0  0  1  0  0  0  0  0  0
  191.3320  177.5030  141.2800 C   0  0  0  0  0  0  0  0  0  0  0  0
  193.6570  176.3930  138.7070 O   0  0  0  0  0  0  0  0  0  0  0  0
  190.9370  176.9880  138.9410 C   0  0  0  0  0  0  0  0  0  0  0  0
  190.0160  177.7430  141.4820 C   0  0  0  0  0  0  0  0  0  0  0  0
  191.3420  179.4450  143.9690 C   0  0  0  0  0  1  0  0  0  0  0  0
  189.7500  177.9540  142.8650 N   0  0  0  0  0  0  0  0  0  0  0  0
  186.9180  177.3020  145.0510 C   0  0  0  0  0  2  0  0  0  0  0  0
  187.2660  179.5630  142.6370 O   0  0  0  0  0  1  0  0  0  0  0  0
  193.1320  176.8210  139.9240 C   0  0  0  0  0  3  0  0  0  0  0  0
  191.8360  177.1210  140.0410 C   0  0  0  0  0  0  0  0  0  0  0  0
  187.0460  178.3670  141.9520 C   0  0  2  0  0  3  0  0  0  0  0  0
  186.5600  177.9030  137.0540 O   0  0  0  0  0  0  0  0  0  0  0  0
  186.8130  177.8790  134.6890 C   0  0  0  0  0  1  0  0  0  0  0  0
  187.4510  178.2100  136.0210 C   0  0  0  0  0  2  0  0  0  0  0  0
  1  4  2  0  0  0  0
  2 19  2  0  0  0  0
  3 10  1  0  0  0  0
  4 12  1  0  0  0  0
  4 20  1  0  0  0  0
  5 11  1  0  0  0  0
  5  1  1  0  0  0  0
  7  9  1  0  0  0  0
  7 15  1  1  0  0  0
  8  6  2  0  0  0  0
  9 14  1  1  0  0  0
 10 21  1  6  0  0  0
 11  8  1  0  0  0  0
 12  8  1  6  0  0  0
 12 27  1  0  0  0  0
 13  2  1  0  0  0  0
 13 18  1  0  0  0  0
 14 23  1  0  0  0  0
 15 23  1  0  0  0  0
 16  2  1  0  0  0  0
 17 20  2  0  0  0  0
 17  3  1  0  0  0  0
 18 25  1  0  0  0  0
 19  1  1  0  0  0  0
 19 26  1  0  0  0  0
 20 22  1  0  0  0  0
 22 10  1  0  0  0  0
 22  9  1  0  0  0  0
 25 26  2  0  0  0  0
 26 17  1  0  0  0  0
 27 24  1  1  0  0  0
 27  7  1  0  0  0  0
 28 11  1  0  0  0  0
 29 30  1  0  0  0  0
 30 28  1  0  0  0  0
M  END
>  <MODEL>
9

>  <REMARK>
 VINA RESULT:      -7.3      2.771      5.372
  Name = 
  2 active torsions:
  status: ('A' for Active; 'I' for Inactive)
    1  A    between atoms: N_11  and  O_28
    2  A    between atoms: O_28  and  C_30
                            x       y       z     vdW  Elec       q    Type
                         _______ _______ _______ _____ _____    ______ ____

>  <TORSDO>
F 2

$$$$
