=
 OpenBabel11122410313D

 30 35  0  0  1  0  0  0  0  0999 V2000
  185.9660  178.2880  142.0400 C   0  0  0  0  0  0  0  0  0  0  0  0
  183.5670  178.9410  142.3540 C   0  0  0  0  0  0  0  0  0  0  0  0
  186.4250  177.7570  146.1890 N   0  0  0  0  0  2  0  0  0  0  0  0
  187.2160  177.8870  142.6050 C   0  0  0  0  0  0  0  0  0  0  0  0
  185.8870  178.4340  140.6550 C   0  0  0  0  0  3  0  0  0  0  0  0
  189.2040  177.6400  139.6770 O   0  0  0  0  0  0  0  0  0  0  0  0
  190.1860  178.3260  143.3340 C   0  0  1  0  0  3  0  0  0  0  0  0
  188.2030  177.8360  140.4230 C   0  0  0  0  0  0  0  0  0  0  0  0
  189.6070  178.2150  144.7470 C   0  0  2  0  0  3  0  0  0  0  0  0
  187.7790  177.3300  146.2150 C   0  0  0  0  0  0  0  0  0  0  0  0
  186.9870  178.2110  139.8440 C   0  0  0  0  0  0  0  0  0  0  0  0
  188.3140  177.6880  141.7830 N   0  0  0  0  0  0  0  0  0  0  0  0
  182.4910  179.1720  143.2160 C   0  0  0  0  0  3  0  0  0  0  0  0
  190.6860  177.7920  145.6320 N   0  0  0  0  0  2  0  0  0  0  0  0
  191.6790  178.1730  143.4940 C   0  0  0  0  0  2  0  0  0  0  0  0
  183.3520  179.1180  141.0270 F   0  0  0  0  0  0  0  0  0  0  0  0
  186.1730  177.9750  144.8080 C   0  0  0  0  0  0  0  0  0  0  0  0
  182.6360  179.0090  144.5920 C   0  0  0  0  0  3  0  0  0  0  0  0
  184.8280  178.5360  142.8700 C   0  0  0  0  0  0  0  0  0  0  0  0
  187.2720  177.7280  144.0090 C   0  0  0  0  0  0  0  0  0  0  0  0
  188.3590  177.0020  147.2840 O   0  0  0  0  0  0  0  0  0  0  0  0
  188.4150  177.2630  144.8610 C   0  0  1  0  0  3  0  0  0  0  0  0
  191.9130  178.2230  144.9840 C   0  0  0  0  0  2  0  0  0  0  0  0
  189.7670  175.8510  142.6440 C   0  0  0  0  0  1  0  0  0  0  0  0
  183.8610  178.6120  145.1190 C   0  0  0  0  0  3  0  0  0  0  0  0
  184.9520  178.3770  144.2750 C   0  0  0  0  0  0  0  0  0  0  0  0
  189.6480  177.3310  142.2920 C   0  0  2  0  0  3  0  0  0  0  0  0
  186.8390  178.3610  138.3640 C   0  0  0  0  0  2  0  0  0  0  0  0
  185.2000  176.9230  137.1950 C   0  0  0  0  0  1  0  0  0  0  0  0
  185.3830  178.2120  137.9680 C   0  0  0  0  0  2  0  0  0  0  0  0
  1  4  2  0  0  0  0
  1 19  1  0  0  0  0
  2 19  2  0  0  0  0
  2 13  1  0  0  0  0
  3 10  1  0  0  0  0
  4 20  1  0  0  0  0
  5  1  1  0  0  0  0
  6  8  2  0  0  0  0
  7 15  1  1  0  0  0
  7  9  1  0  0  0  0
  8 12  1  0  0  0  0
  9 22  1  0  0  0  0
  9 14  1  1  0  0  0
 10 21  2  0  0  0  0
 11  8  1  0  0  0  0
 11  5  2  0  0  0  0
 12 27  1  0  0  0  0
 12  4  1  0  0  0  0
 13 18  2  0  0  0  0
 15 23  1  0  0  0  0
 16  2  1  0  0  0  0
 17  3  1  0  0  0  0
 18 25  1  0  0  0  0
 19 26  1  0  0  0  0
 20 17  2  0  0  0  0
 22 20  1  6  0  0  0
 22 10  1  0  0  0  0
 23 14  1  0  0  0  0
 26 17  1  0  0  0  0
 26 25  2  0  0  0  0
 27 24  1  1  0  0  0
 27  7  1  0  0  0  0
 28 11  1  0  0  0  0
 29 30  1  0  0  0  0
 30 28  1  0  0  0  0
M  END
>  <MODEL>
1

>  <REMARK>
 VINA RESULT:      -9.8      0.000      0.000
  Name = 
  2 active torsions:
  status: ('A' for Active; 'I' for Inactive)
    1  A    between atoms: C_11  and  C_28
    2  A    between atoms: C_28  and  C_30
                            x       y       z     vdW  Elec       q    Type
                         _______ _______ _______ _____ _____    ______ ____

>  <TORSDO>
F 2

$$$$
=
 OpenBabel11122410313D

 30 35  0  0  1  0  0  0  0  0999 V2000
  186.1480  178.3670  142.6190 C   0  0  0  0  0  0  0  0  0  0  0  0
  186.9240  178.2050  144.9970 C   0  0  0  0  0  0  0  0  0  0  0  0
  182.1690  178.8690  143.8900 N   0  0  0  0  0  2  0  0  0  0  0  0
  185.0810  178.5240  141.6810 C   0  0  0  0  0  0  0  0  0  0  0  0
  187.4420  178.2150  142.1230 C   0  0  0  0  0  3  0  0  0  0  0  0
  186.8700  178.3240  138.6240 O   0  0  0  0  0  0  0  0  0  0  0  0
  183.1980  177.5210  139.4470 C   0  0  1  0  0  3  0  0  0  0  0  0
  186.6320  178.3410  139.8650 C   0  0  0  0  0  0  0  0  0  0  0  0
  182.1570  177.7690  140.5440 C   0  0  2  0  0  3  0  0  0  0  0  0
  181.5420  179.0220  142.6250 C   0  0  0  0  0  0  0  0  0  0  0  0
  187.6950  178.2030  140.7610 C   0  0  0  0  0  0  0  0  0  0  0  0
  185.3460  178.4880  140.3210 N   0  0  0  0  0  0  0  0  0  0  0  0
  186.6160  178.2060  146.3600 C   0  0  0  0  0  3  0  0  0  0  0  0
  180.8720  177.9860  139.8900 N   0  0  0  0  0  2  0  0  0  0  0  0
  182.4110  177.3800  138.1670 C   0  0  0  0  0  2  0  0  0  0  0  0
  188.2260  178.0510  144.6510 F   0  0  0  0  0  0  0  0  0  0  0  0
  183.5380  178.6810  143.5630 C   0  0  0  0  0  0  0  0  0  0  0  0
  185.3000  178.3610  146.7910 C   0  0  0  0  0  3  0  0  0  0  0  0
  185.8960  178.3630  144.0270 C   0  0  0  0  0  0  0  0  0  0  0  0
  183.7770  178.6930  142.2030 C   0  0  0  0  0  0  0  0  0  0  0  0
  180.3090  179.2470  142.5080 O   0  0  0  0  0  0  0  0  0  0  0  0
  182.4930  178.9380  141.4700 C   0  0  1  0  0  3  0  0  0  0  0  0
  180.9690  177.3100  138.6060 C   0  0  0  0  0  2  0  0  0  0  0  0
  183.8270  180.0180  139.0640 C   0  0  0  0  0  1  0  0  0  0  0  0
  184.2780  178.5170  145.8590 C   0  0  0  0  0  3  0  0  0  0  0  0
  184.5630  178.5180  144.4890 C   0  0  0  0  0  0  0  0  0  0  0  0
  184.2980  178.5840  139.2930 C   0  0  2  0  0  3  0  0  0  0  0  0
  189.1050  178.0600  140.2870 C   0  0  0  0  0  2  0  0  0  0  0  0
  191.3210  177.4090  141.1760 C   0  0  0  0  0  1  0  0  0  0  0  0
  189.8480  177.0600  141.1530 C   0  0  0  0  0  2  0  0  0  0  0  0
  1 19  1  0  0  0  0
  2 13  1  0  0  0  0
  4 20  1  0  0  0  0
  4  1  2  0  0  0  0
  5  1  1  0  0  0  0
  6  8  2  0  0  0  0
  7 15  1  6  0  0  0
  7  9  1  0  0  0  0
  8 12  1  0  0  0  0
  8 11  1  0  0  0  0
  9 14  1  6  0  0  0
  9 22  1  0  0  0  0
 10  3  1  0  0  0  0
 11  5  2  0  0  0  0
 12  4  1  0  0  0  0
 13 18  2  0  0  0  0
 15 23  1  0  0  0  0
 16  2  1  0  0  0  0
 17  3  1  0  0  0  0
 17 26  1  0  0  0  0
 19 26  1  0  0  0  0
 19  2  2  0  0  0  0
 20 17  2  0  0  0  0
 21 10  2  0  0  0  0
 22 20  1  1  0  0  0
 22 10  1  0  0  0  0
 23 14  1  0  0  0  0
 25 18  1  0  0  0  0
 26 25  2  0  0  0  0
 27 24  1  1  0  0  0
 27  7  1  0  0  0  0
 27 12  1  0  0  0  0
 28 11  1  0  0  0  0
 28 30  1  0  0  0  0
 30 29  1  0  0  0  0
M  END
>  <MODEL>
2

>  <REMARK>
 VINA RESULT:      -9.5      3.194      6.118
  Name = 
  2 active torsions:
  status: ('A' for Active; 'I' for Inactive)
    1  A    between atoms: C_11  and  C_28
    2  A    between atoms: C_28  and  C_30
                            x       y       z     vdW  Elec       q    Type
                         _______ _______ _______ _____ _____    ______ ____

>  <TORSDO>
F 2

$$$$
=
 OpenBabel11122410313D

 30 35  0  0  1  0  0  0  0  0999 V2000
  189.3290  177.2650  143.5420 C   0  0  0  0  0  0  0  0  0  0  0  0
  191.2620  176.2980  144.8100 C   0  0  0  0  0  0  0  0  0  0  0  0
  187.3270  178.1330  147.1390 N   0  0  0  0  0  2  0  0  0  0  0  0
  188.0380  177.8780  143.5450 C   0  0  0  0  0  0  0  0  0  0  0  0
  189.9350  177.0180  142.3100 C   0  0  0  0  0  3  0  0  0  0  0  0
  187.4660  178.2120  140.0600 O   0  0  0  0  0  0  0  0  0  0  0  0
  184.9980  177.9190  142.9980 C   0  0  1  0  0  3  0  0  0  0  0  0
  188.0360  177.9240  141.1510 C   0  0  0  0  0  0  0  0  0  0  0  0
  184.9670  178.0400  144.5250 C   0  0  2  0  0  3  0  0  0  0  0  0
  186.1630  178.7500  146.6090 C   0  0  0  0  0  0  0  0  0  0  0  0
  189.3060  177.3410  141.1190 C   0  0  0  0  0  0  0  0  0  0  0  0
  187.4110  178.1770  142.3460 N   0  0  0  0  0  0  0  0  0  0  0  0
  191.8480  175.9740  146.0360 C   0  0  0  0  0  3  0  0  0  0  0  0
  183.7050  178.6710  144.8900 N   0  0  0  0  0  2  0  0  0  0  0  0
  183.6120  178.2940  142.5340 C   0  0  0  0  0  2  0  0  0  0  0  0
  191.9620  176.0040  143.6860 F   0  0  0  0  0  0  0  0  0  0  0  0
  188.0760  177.7890  145.9820 C   0  0  0  0  0  0  0  0  0  0  0  0
  191.1890  176.2470  147.2330 C   0  0  0  0  0  3  0  0  0  0  0  0
  189.9810  176.9130  144.7640 C   0  0  0  0  0  0  0  0  0  0  0  0
  187.4460  178.1370  144.8040 C   0  0  0  0  0  0  0  0  0  0  0  0
  185.2620  179.2280  147.3460 O   0  0  0  0  0  0  0  0  0  0  0  0
  186.1460  178.8170  145.1130 C   0  0  1  0  0  3  0  0  0  0  0  0
  182.7920  178.3780  143.7980 C   0  0  0  0  0  2  0  0  0  0  0  0
  186.0440  180.2570  142.5340 C   0  0  0  0  0  1  0  0  0  0  0  0
  189.9340  176.8490  147.2120 C   0  0  0  0  0  3  0  0  0  0  0  0
  189.3280  177.1820  145.9960 C   0  0  0  0  0  0  0  0  0  0  0  0
  186.0600  178.7540  142.2640 C   0  0  2  0  0  3  0  0  0  0  0  0
  190.0120  177.0730  139.8300 C   0  0  0  0  0  2  0  0  0  0  0  0
  192.2150  176.6970  138.7690 C   0  0  0  0  0  1  0  0  0  0  0  0
  191.5130  177.1530  140.0310 C   0  0  0  0  0  2  0  0  0  0  0  0
  1  4  2  0  0  0  0
  1 19  1  0  0  0  0
  2 13  1  0  0  0  0
  4 20  1  0  0  0  0
  5  1  1  0  0  0  0
  6  8  2  0  0  0  0
  7 15  1  6  0  0  0
  7  9  1  0  0  0  0
  8 12  1  0  0  0  0
  9 14  1  6  0  0  0
  9 22  1  0  0  0  0
 10  3  1  0  0  0  0
 10 21  2  0  0  0  0
 11  8  1  0  0  0  0
 11  5  2  0  0  0  0
 12  4  1  0  0  0  0
 13 18  2  0  0  0  0
 15 23  1  0  0  0  0
 16  2  1  0  0  0  0
 17 26  1  0  0  0  0
 17  3  1  0  0  0  0
 19  2  2  0  0  0  0
 19 26  1  0  0  0  0
 20 17  2  0  0  0  0
 22 20  1  6  0  0  0
 22 10  1  0  0  0  0
 23 14  1  0  0  0  0
 25 18  1  0  0  0  0
 26 25  2  0  0  0  0
 27 12  1  0  0  0  0
 27 24  1  1  0  0  0
 27  7  1  0  0  0  0
 28 30  1  0  0  0  0
 28 11  1  0  0  0  0
 29 30  1  0  0  0  0
M  END
>  <MODEL>
3

>  <REMARK>
 VINA RESULT:      -9.3      2.639      5.624
  Name = 
  2 active torsions:
  status: ('A' for Active; 'I' for Inactive)
    1  A    between atoms: C_11  and  C_28
    2  A    between atoms: C_28  and  C_30
                            x       y       z     vdW  Elec       q    Type
                         _______ _______ _______ _____ _____    ______ ____

>  <TORSDO>
F 2

$$$$
=
 OpenBabel11122410313D

 30 35  0  0  1  0  0  0  0  0999 V2000
  187.6330  177.6830  143.0130 C   0  0  0  0  0  0  0  0  0  0  0  0
  186.4300  177.8860  145.2030 C   0  0  0  0  0  0  0  0  0  0  0  0
  184.3380  179.3320  140.9830 N   0  0  0  0  0  2  0  0  0  0  0  0
  187.6460  177.8610  141.5950 C   0  0  0  0  0  0  0  0  0  0  0  0
  188.7660  177.1390  143.6180 C   0  0  0  0  0  3  0  0  0  0  0  0
  190.8640  176.5900  140.8100 O   0  0  0  0  0  0  0  0  0  0  0  0
  187.6660  176.8330  138.6820 C   0  0  1  0  0  3  0  0  0  0  0  0
  189.8530  176.9360  141.4840 C   0  0  0  0  0  0  0  0  0  0  0  0
  186.3100  177.5440  138.6750 C   0  0  2  0  0  3  0  0  0  0  0  0
  184.8610  179.3340  139.6630 C   0  0  0  0  0  0  0  0  0  0  0  0
  189.8730  176.7670  142.8720 C   0  0  0  0  0  0  0  0  0  0  0  0
  188.7510  177.4650  140.8590 N   0  0  0  0  0  0  0  0  0  0  0  0
  185.2840  178.2590  145.9090 C   0  0  0  0  0  3  0  0  0  0  0  0
  186.0030  177.8920  137.2930 N   0  0  0  0  0  2  0  0  0  0  0  0
  188.0040  176.5890  137.2320 C   0  0  0  0  0  2  0  0  0  0  0  0
  187.4630  177.3710  145.9150 F   0  0  0  0  0  0  0  0  0  0  0  0
  185.3900  178.7740  141.7560 C   0  0  0  0  0  0  0  0  0  0  0  0
  184.1830  178.7960  145.2450 C   0  0  0  0  0  3  0  0  0  0  0  0
  186.4910  178.0490  143.7920 C   0  0  0  0  0  0  0  0  0  0  0  0
  186.4950  178.4290  141.0020 C   0  0  0  0  0  0  0  0  0  0  0  0
  184.2170  179.7980  138.6850 O   0  0  0  0  0  0  0  0  0  0  0  0
  186.2520  178.7860  139.5660 C   0  0  1  0  0  3  0  0  0  0  0  0
  186.7450  176.9430  136.4780 C   0  0  0  0  0  2  0  0  0  0  0  0
  189.1260  178.9760  138.9090 C   0  0  0  0  0  1  0  0  0  0  0  0
  184.2200  178.9650  143.8640 C   0  0  0  0  0  3  0  0  0  0  0  0
  185.3570  178.5970  143.1360 C   0  0  0  0  0  0  0  0  0  0  0  0
  188.8200  177.5610  139.3920 C   0  0  2  0  0  3  0  0  0  0  0  0
  191.0670  176.2100  143.5750 C   0  0  0  0  0  2  0  0  0  0  0  0
  191.6610  176.4320  145.9670 C   0  0  0  0  0  1  0  0  0  0  0  0
  191.5350  177.1710  144.6520 C   0  0  0  0  0  2  0  0  0  0  0  0
  1  5  1  0  0  0  0
  1 19  1  0  0  0  0
  2 13  1  0  0  0  0
  2 16  1  0  0  0  0
  3 17  1  0  0  0  0
  4  1  2  0  0  0  0
  6  8  2  0  0  0  0
  7 15  1  6  0  0  0
  7 27  1  0  0  0  0
  8 11  1  0  0  0  0
  9 14  1  6  0  0  0
  9  7  1  0  0  0  0
  9 22  1  0  0  0  0
 10  3  1  0  0  0  0
 11 28  1  0  0  0  0
 11  5  2  0  0  0  0
 12  8  1  0  0  0  0
 12  4  1  0  0  0  0
 17 26  1  0  0  0  0
 18 13  2  0  0  0  0
 19  2  2  0  0  0  0
 20  4  1  0  0  0  0
 20 17  2  0  0  0  0
 21 10  2  0  0  0  0
 22 10  1  1  0  0  0
 22 20  1  0  0  0  0
 23 15  1  0  0  0  0
 23 14  1  0  0  0  0
 25 18  1  0  0  0  0
 26 19  1  0  0  0  0
 26 25  2  0  0  0  0
 27 24  1  1  0  0  0
 27 12  1  0  0  0  0
 28 30  1  0  0  0  0
 30 29  1  0  0  0  0
M  END
>  <MODEL>
4

>  <REMARK>
 VINA RESULT:      -9.2      2.558      5.765
  Name = 
  2 active torsions:
  status: ('A' for Active; 'I' for Inactive)
    1  A    between atoms: C_11  and  C_28
    2  A    between atoms: C_28  and  C_30
                            x       y       z     vdW  Elec       q    Type
                         _______ _______ _______ _____ _____    ______ ____

>  <TORSDO>
F 2

$$$$
=
 OpenBabel11122410313D

 30 35  0  0  1  0  0  0  0  0999 V2000
  186.5350  177.9510  144.8150 C   0  0  0  0  0  0  0  0  0  0  0  0
  184.0940  178.3480  145.2210 C   0  0  0  0  0  0  0  0  0  0  0  0
  186.0720  178.9040  140.7430 N   0  0  0  0  0  2  0  0  0  0  0  0
  187.6420  177.9140  143.9120 C   0  0  0  0  0  0  0  0  0  0  0  0
  186.7670  177.6320  146.1520 C   0  0  0  0  0  3  0  0  0  0  0  0
  190.2380  176.9010  146.1070 O   0  0  0  0  0  0  0  0  0  0  0  0
  189.8470  176.4680  142.3030 C   0  0  1  0  0  3  0  0  0  0  0  0
  189.0910  177.2310  145.6920 C   0  0  0  0  0  0  0  0  0  0  0  0
  189.0210  177.0170  141.1350 C   0  0  2  0  0  3  0  0  0  0  0  0
  187.4210  178.7650  140.3220 C   0  0  0  0  0  0  0  0  0  0  0  0
  188.0290  177.2760  146.6000 C   0  0  0  0  0  0  0  0  0  0  0  0
  188.8940  177.5350  144.3690 N   0  0  0  0  0  0  0  0  0  0  0  0
  182.8370  178.6950  144.7180 C   0  0  0  0  0  3  0  0  0  0  0  0
  189.9050  177.1160  139.9800 N   0  0  0  0  0  2  0  0  0  0  0  0
  191.1670  176.0470  141.7030 C   0  0  0  0  0  2  0  0  0  0  0  0
  184.1800  178.0630  146.5440 F   0  0  0  0  0  0  0  0  0  0  0  0
  186.1220  178.5880  142.1270 C   0  0  0  0  0  0  0  0  0  0  0  0
  182.6710  179.0020  143.3700 C   0  0  0  0  0  3  0  0  0  0  0  0
  185.2250  178.3020  144.3610 C   0  0  0  0  0  0  0  0  0  0  0  0
  187.3900  178.2570  142.5620 C   0  0  0  0  0  0  0  0  0  0  0  0
  187.7840  179.0030  139.1390 O   0  0  0  0  0  0  0  0  0  0  0  0
  188.3560  178.3640  141.4210 C   0  0  1  0  0  3  0  0  0  0  0  0
  190.9600  176.1430  140.2110 C   0  0  0  0  0  2  0  0  0  0  0  0
  190.7040  178.7680  143.1700 C   0  0  0  0  0  1  0  0  0  0  0  0
  183.7650  178.9640  142.5090 C   0  0  0  0  0  3  0  0  0  0  0  0
  185.0320  178.6180  142.9900 C   0  0  0  0  0  0  0  0  0  0  0  0
  190.0700  177.4160  143.4920 C   0  0  2  0  0  3  0  0  0  0  0  0
  188.2240  176.9660  148.0480 C   0  0  0  0  0  2  0  0  0  0  0  0
  189.8560  178.6280  148.8820 C   0  0  0  0  0  1  0  0  0  0  0  0
  188.3910  178.2490  148.8390 C   0  0  0  0  0  2  0  0  0  0  0  0
  1  5  1  0  0  0  0
  2 16  1  0  0  0  0
  3 17  1  0  0  0  0
  4 12  1  0  0  0  0
  4  1  2  0  0  0  0
  5 11  2  0  0  0  0
  7 15  1  6  0  0  0
  7 27  1  0  0  0  0
  8  6  2  0  0  0  0
  8 11  1  0  0  0  0
  9 14  1  6  0  0  0
  9 22  1  0  0  0  0
  9  7  1  0  0  0  0
 10  3  1  0  0  0  0
 11 28  1  0  0  0  0
 12  8  1  0  0  0  0
 13  2  1  0  0  0  0
 14 23  1  0  0  0  0
 17 20  2  0  0  0  0
 17 26  1  0  0  0  0
 18 13  2  0  0  0  0
 19  1  1  0  0  0  0
 19  2  2  0  0  0  0
 20  4  1  0  0  0  0
 21 10  2  0  0  0  0
 22 10  1  6  0  0  0
 22 20  1  0  0  0  0
 23 15  1  0  0  0  0
 25 26  2  0  0  0  0
 25 18  1  0  0  0  0
 26 19  1  0  0  0  0
 27 24  1  6  0  0  0
 27 12  1  0  0  0  0
 28 30  1  0  0  0  0
 30 29  1  0  0  0  0
M  END
>  <MODEL>
5

>  <REMARK>
 VINA RESULT:      -9.1      1.927      5.391
  Name = 
  2 active torsions:
  status: ('A' for Active; 'I' for Inactive)
    1  A    between atoms: C_11  and  C_28
    2  A    between atoms: C_28  and  C_30
                            x       y       z     vdW  Elec       q    Type
                         _______ _______ _______ _____ _____    ______ ____

>  <TORSDO>
F 2

$$$$
=
 OpenBabel11122410313D

 30 35  0  0  1  0  0  0  0  0999 V2000
  187.0910  178.1770  140.6490 C   0  0  0  0  0  0  0  0  0  0  0  0
  184.8150  178.9350  139.9230 C   0  0  0  0  0  0  0  0  0  0  0  0
  185.7690  177.8280  144.6280 N   0  0  0  0  0  2  0  0  0  0  0  0
  187.9730  177.7560  141.6920 C   0  0  0  0  0  0  0  0  0  0  0  0
  187.5980  178.2600  139.3530 C   0  0  0  0  0  3  0  0  0  0  0  0
  190.9750  177.2940  139.8580 O   0  0  0  0  0  0  0  0  0  0  0  0
  190.3980  178.1160  143.5720 C   0  0  1  0  0  3  0  0  0  0  0  0
  189.7680  177.5640  140.1170 C   0  0  0  0  0  0  0  0  0  0  0  0
  189.2820  178.0950  144.6220 C   0  0  2  0  0  3  0  0  0  0  0  0
  186.9670  177.3510  145.2250 C   0  0  0  0  0  0  0  0  0  0  0  0
  188.9220  177.9560  139.0760 C   0  0  0  0  0  0  0  0  0  0  0  0
  189.3000  177.4770  141.4040 N   0  0  0  0  0  0  0  0  0  0  0  0
  183.4950  179.2470  140.2550 C   0  0  0  0  0  3  0  0  0  0  0  0
  189.8750  177.6740  145.8850 N   0  0  0  0  0  2  0  0  0  0  0  0
  191.6810  177.9140  144.3410 C   0  0  0  0  0  2  0  0  0  0  0  0
  185.1770  179.0570  138.6210 F   0  0  0  0  0  0  0  0  0  0  0  0
  186.1210  177.9890  143.2620 C   0  0  0  0  0  0  0  0  0  0  0  0
  183.0500  179.1450  141.5710 C   0  0  0  0  0  3  0  0  0  0  0  0
  185.7280  178.5070  140.9260 C   0  0  0  0  0  0  0  0  0  0  0  0
  187.4370  177.6620  142.9970 C   0  0  0  0  0  0  0  0  0  0  0  0
  187.0360  177.0530  146.4460 O   0  0  0  0  0  0  0  0  0  0  0  0
  188.1000  177.1950  144.2580 C   0  0  1  0  0  3  0  0  0  0  0  0
  191.2830  178.0270  145.7920 C   0  0  0  0  0  2  0  0  0  0  0  0
  190.1660  175.6290  142.8410 C   0  0  0  0  0  1  0  0  0  0  0  0
  183.9250  178.7280  142.5700 C   0  0  0  0  0  3  0  0  0  0  0  0
  185.2520  178.4110  142.2600 C   0  0  0  0  0  0  0  0  0  0  0  0
  190.2840  177.0940  142.4290 C   0  0  2  0  0  3  0  0  0  0  0  0
  189.4050  178.0410  137.6650 C   0  0  0  0  0  2  0  0  0  0  0  0
  188.0000  177.5860  135.6800 C   0  0  0  0  0  1  0  0  0  0  0  0
  188.3100  178.5900  136.7700 C   0  0  0  0  0  2  0  0  0  0  0  0
  1 19  2  0  0  0  0
  1  4  1  0  0  0  0
  2 13  2  0  0  0  0
  2 19  1  0  0  0  0
  3 10  1  0  0  0  0
  4 20  2  0  0  0  0
  5  1  1  0  0  0  0
  6  8  2  0  0  0  0
  7 15  1  1  0  0  0
  7  9  1  0  0  0  0
  8 12  1  0  0  0  0
  9 14  1  1  0  0  0
 10 21  2  0  0  0  0
 11  5  2  0  0  0  0
 11  8  1  0  0  0  0
 12  4  1  0  0  0  0
 12 27  1  0  0  0  0
 13 18  1  0  0  0  0
 15 23  1  0  0  0  0
 16  2  1  0  0  0  0
 17  3  1  0  0  0  0
 18 25  2  0  0  0  0
 19 26  1  0  0  0  0
 20 17  1  0  0  0  0
 22 20  1  6  0  0  0
 22  9  1  0  0  0  0
 22 10  1  0  0  0  0
 23 14  1  0  0  0  0
 26 25  1  0  0  0  0
 26 17  2  0  0  0  0
 27 24  1  1  0  0  0
 27  7  1  0  0  0  0
 28 11  1  0  0  0  0
 29 30  1  0  0  0  0
 30 28  1  0  0  0  0
M  END
>  <MODEL>
6

>  <REMARK>
 VINA RESULT:      -9.0      1.465      1.950
  Name = 
  2 active torsions:
  status: ('A' for Active; 'I' for Inactive)
    1  A    between atoms: C_11  and  C_28
    2  A    between atoms: C_28  and  C_30
                            x       y       z     vdW  Elec       q    Type
                         _______ _______ _______ _____ _____    ______ ____

>  <TORSDO>
F 2

$$$$
=
 OpenBabel11122410313D

 30 35  0  0  1  0  0  0  0  0999 V2000
  187.9650  177.8080  145.1670 C   0  0  0  0  0  0  0  0  0  0  0  0
  185.8530  178.0570  146.4930 C   0  0  0  0  0  0  0  0  0  0  0  0
  185.8940  178.6490  141.6020 N   0  0  0  0  0  2  0  0  0  0  0  0
  188.6340  177.8240  143.9040 C   0  0  0  0  0  0  0  0  0  0  0  0
  188.7190  177.5310  146.3060 C   0  0  0  0  0  3  0  0  0  0  0  0
  191.9400  177.0210  144.9090 O   0  0  0  0  0  0  0  0  0  0  0  0
  190.1310  176.4890  141.5540 C   0  0  1  0  0  3  0  0  0  0  0  0
  190.7030  177.2700  144.9750 C   0  0  0  0  0  0  0  0  0  0  0  0
  188.8810  176.9610  140.8040 C   0  0  2  0  0  3  0  0  0  0  0  0
  186.9790  178.5880  140.6880 C   0  0  0  0  0  0  0  0  0  0  0  0
  190.0760  177.2650  146.2250 C   0  0  0  0  0  0  0  0  0  0  0  0
  189.9870  177.5350  143.8350 N   0  0  0  0  0  0  0  0  0  0  0  0
  184.4800  178.3140  146.5220 C   0  0  0  0  0  3  0  0  0  0  0  0
  189.2380  177.0940  139.3970 N   0  0  0  0  0  2  0  0  0  0  0  0
  191.1380  176.1410  140.4850 C   0  0  0  0  0  2  0  0  0  0  0  0
  186.4650  177.8040  147.6770 F   0  0  0  0  0  0  0  0  0  0  0  0
  186.4990  178.3640  142.8550 C   0  0  0  0  0  0  0  0  0  0  0  0
  183.7830  178.5830  145.3460 C   0  0  0  0  0  3  0  0  0  0  0  0
  186.5610  178.0660  145.2610 C   0  0  0  0  0  0  0  0  0  0  0  0
  187.8550  178.1230  142.7610 C   0  0  0  0  0  0  0  0  0  0  0  0
  186.8370  178.8250  139.4600 O   0  0  0  0  0  0  0  0  0  0  0  0
  188.2920  178.2690  141.3350 C   0  0  1  0  0  3  0  0  0  0  0  0
  190.3610  176.1950  139.1920 C   0  0  0  0  0  2  0  0  0  0  0  0
  191.1030  178.8550  142.0350 C   0  0  0  0  0  1  0  0  0  0  0  0
  184.4560  178.5980  144.1280 C   0  0  0  0  0  3  0  0  0  0  0  0
  185.8300  178.3420  144.0750 C   0  0  0  0  0  0  0  0  0  0  0  0
  190.7350  177.4730  142.5690 C   0  0  2  0  0  3  0  0  0  0  0  0
  190.8390  176.9970  147.4820 C   0  0  0  0  0  2  0  0  0  0  0  0
  192.8130  175.6590  148.1400 C   0  0  0  0  0  1  0  0  0  0  0  0
  191.4820  175.6250  147.4190 C   0  0  0  0  0  2  0  0  0  0  0  0
  1 19  1  0  0  0  0
  1  5  1  0  0  0  0
  2 13  1  0  0  0  0
  2 16  1  0  0  0  0
  3 17  1  0  0  0  0
  4  1  2  0  0  0  0
  6  8  2  0  0  0  0
  7 15  1  6  0  0  0
  7 27  1  0  0  0  0
  8 11  1  0  0  0  0
  9 14  1  6  0  0  0
  9 22  1  0  0  0  0
  9  7  1  0  0  0  0
 10  3  1  0  0  0  0
 11  5  2  0  0  0  0
 11 28  1  0  0  0  0
 12  4  1  0  0  0  0
 12  8  1  0  0  0  0
 17 26  1  0  0  0  0
 18 13  2  0  0  0  0
 19  2  2  0  0  0  0
 20 17  2  0  0  0  0
 20  4  1  0  0  0  0
 21 10  2  0  0  0  0
 22 10  1  6  0  0  0
 22 20  1  0  0  0  0
 23 14  1  0  0  0  0
 23 15  1  0  0  0  0
 25 18  1  0  0  0  0
 26 25  2  0  0  0  0
 26 19  1  0  0  0  0
 27 24  1  6  0  0  0
 27 12  1  0  0  0  0
 30 28  1  0  0  0  0
 30 29  1  0  0  0  0
M  END
>  <MODEL>
7

>  <REMARK>
 VINA RESULT:      -8.6      2.440      5.696
  Name = 
  2 active torsions:
  status: ('A' for Active; 'I' for Inactive)
    1  A    between atoms: C_11  and  C_28
    2  A    between atoms: C_28  and  C_30
                            x       y       z     vdW  Elec       q    Type
                         _______ _______ _______ _____ _____    ______ ____

>  <TORSDO>
F 2

$$$$
=
 OpenBabel11122410313D

 30 35  0  0  1  0  0  0  0  0999 V2000
  186.4920  178.3240  141.8890 C   0  0  0  0  0  0  0  0  0  0  0  0
  185.0500  178.5970  139.8580 C   0  0  0  0  0  0  0  0  0  0  0  0
  189.8730  177.6620  139.4750 N   0  0  0  0  0  2  0  0  0  0  0  0
  187.7760  178.0690  142.4620 C   0  0  0  0  0  0  0  0  0  0  0  0
  185.4190  178.5450  142.7540 C   0  0  0  0  0  3  0  0  0  0  0  0
  186.9860  178.1980  145.9180 O   0  0  0  0  0  0  0  0  0  0  0  0
  189.8030  176.3600  144.0480 C   0  0  1  0  0  3  0  0  0  0  0  0
  186.8460  178.2370  144.6630 C   0  0  0  0  0  0  0  0  0  0  0  0
  190.5020  176.3560  142.6860 C   0  0  2  0  0  3  0  0  0  0  0  0
  190.8530  177.5130  140.4910 C   0  0  0  0  0  0  0  0  0  0  0  0
  185.5820  178.5060  144.1290 C   0  0  0  0  0  0  0  0  0  0  0  0
  187.9200  178.0120  143.8390 N   0  0  0  0  0  0  0  0  0  0  0  0
  184.9330  178.6080  138.4650 C   0  0  0  0  0  3  0  0  0  0  0  0
  191.9200  176.1120  142.9200 N   0  0  0  0  0  2  0  0  0  0  0  0
  190.8380  175.8820  145.0370 C   0  0  0  0  0  2  0  0  0  0  0  0
  183.9270  178.8290  140.5810 F   0  0  0  0  0  0  0  0  0  0  0  0
  188.6730  177.8840  140.2010 C   0  0  0  0  0  0  0  0  0  0  0  0
  186.0440  178.3790  137.6570 C   0  0  0  0  0  3  0  0  0  0  0  0
  186.3090  178.3520  140.4720 C   0  0  0  0  0  0  0  0  0  0  0  0
  188.8550  177.8640  141.5700 C   0  0  0  0  0  0  0  0  0  0  0  0
  192.0720  177.3350  140.2280 O   0  0  0  0  0  0  0  0  0  0  0  0
  190.3040  177.6400  141.8790 C   0  0  1  0  0  3  0  0  0  0  0  0
  191.9890  175.4020  144.1870 C   0  0  0  0  0  2  0  0  0  0  0  0
  190.1450  178.8910  144.5520 C   0  0  0  0  0  1  0  0  0  0  0  0
  187.2870  178.1370  138.2360 C   0  0  0  0  0  3  0  0  0  0  0  0
  187.4270  178.1200  139.6280 C   0  0  0  0  0  0  0  0  0  0  0  0
  189.1950  177.6960  144.5040 C   0  0  2  0  0  3  0  0  0  0  0  0
  184.4020  178.7710  145.0060 C   0  0  0  0  0  2  0  0  0  0  0  0
  182.0960  178.7120  144.1120 C   0  0  0  0  0  1  0  0  0  0  0  0
  183.3490  179.5520  144.2430 C   0  0  0  0  0  2  0  0  0  0  0  0
  1  4  1  0  0  0  0
  1  5  1  0  0  0  0
  2 19  1  0  0  0  0
  2 16  1  0  0  0  0
  3 17  1  0  0  0  0
  3 10  1  0  0  0  0
  4 12  1  0  0  0  0
  5 11  2  0  0  0  0
  7 27  1  0  0  0  0
  7 15  1  1  0  0  0
  8  6  2  0  0  0  0
  9 14  1  1  0  0  0
  9  7  1  0  0  0  0
 11  8  1  0  0  0  0
 11 28  1  0  0  0  0
 12 27  1  0  0  0  0
 12  8  1  0  0  0  0
 13  2  2  0  0  0  0
 14 23  1  0  0  0  0
 17 20  1  0  0  0  0
 18 25  2  0  0  0  0
 18 13  1  0  0  0  0
 19  1  2  0  0  0  0
 20 22  1  0  0  0  0
 20  4  2  0  0  0  0
 21 10  2  0  0  0  0
 22 10  1  6  0  0  0
 22  9  1  0  0  0  0
 23 15  1  0  0  0  0
 25 26  1  0  0  0  0
 26 17  2  0  0  0  0
 26 19  1  0  0  0  0
 27 24  1  6  0  0  0
 29 30  1  0  0  0  0
 30 28  1  0  0  0  0
M  END
>  <MODEL>
8

>  <REMARK>
 VINA RESULT:      -8.6      1.540      4.882
  Name = 
  2 active torsions:
  status: ('A' for Active; 'I' for Inactive)
    1  A    between atoms: C_11  and  C_28
    2  A    between atoms: C_28  and  C_30
                            x       y       z     vdW  Elec       q    Type
                         _______ _______ _______ _____ _____    ______ ____

>  <TORSDO>
F 2

$$$$
=
 OpenBabel11122410313D

 30 35  0  0  1  0  0  0  0  0999 V2000
  187.1470  178.2040  141.9430 C   0  0  0  0  0  0  0  0  0  0  0  0
  186.1960  178.4120  144.2520 C   0  0  0  0  0  0  0  0  0  0  0  0
  183.3740  178.9920  140.2560 N   0  0  0  0  0  2  0  0  0  0  0  0
  186.9560  178.2310  140.5260 C   0  0  0  0  0  0  0  0  0  0  0  0
  188.4290  177.9470  142.4280 C   0  0  0  0  0  3  0  0  0  0  0  0
  190.2440  177.5020  139.4130 O   0  0  0  0  0  0  0  0  0  0  0  0
  186.8320  176.9230  137.7310 C   0  0  1  0  0  3  0  0  0  0  0  0
  189.2720  177.7240  140.1890 C   0  0  0  0  0  0  0  0  0  0  0  0
  185.3710  177.3660  137.8520 C   0  0  2  0  0  3  0  0  0  0  0  0
  183.7260  178.9510  138.8810 C   0  0  0  0  0  0  0  0  0  0  0  0
  189.4900  177.7100  141.5700 C   0  0  0  0  0  0  0  0  0  0  0  0
  188.0220  177.9710  139.6800 N   0  0  0  0  0  0  0  0  0  0  0  0
  185.0920  178.6390  145.0760 C   0  0  0  0  0  3  0  0  0  0  0  0
  184.8400  177.5030  136.5010 N   0  0  0  0  0  2  0  0  0  0  0  0
  187.0360  176.5930  136.2720 C   0  0  0  0  0  2  0  0  0  0  0  0
  187.3880  178.1750  144.8560 F   0  0  0  0  0  0  0  0  0  0  0  0
  184.6000  178.7230  140.9200 C   0  0  0  0  0  0  0  0  0  0  0  0
  183.8350  178.8900  144.5280 C   0  0  0  0  0  3  0  0  0  0  0  0
  186.0560  178.4330  142.8380 C   0  0  0  0  0  0  0  0  0  0  0  0
  185.6530  178.5110  140.0530 C   0  0  0  0  0  0  0  0  0  0  0  0
  182.8910  179.1820  137.9670 O   0  0  0  0  0  0  0  0  0  0  0  0
  185.1760  178.6620  138.6390 C   0  0  1  0  0  3  0  0  0  0  0  0
  185.6510  176.6270  135.6720 C   0  0  0  0  0  2  0  0  0  0  0  0
  187.8570  179.3100  137.5810 C   0  0  0  0  0  1  0  0  0  0  0  0
  183.6740  178.9160  143.1460 C   0  0  0  0  0  3  0  0  0  0  0  0
  184.7660  178.6900  142.3010 C   0  0  0  0  0  0  0  0  0  0  0  0
  187.8950  177.9220  138.2150 C   0  0  2  0  0  3  0  0  0  0  0  0
  190.8460  177.4610  142.1460 C   0  0  0  0  0  2  0  0  0  0  0  0
  191.4960  179.0030  143.9690 C   0  0  0  0  0  1  0  0  0  0  0  0
  190.8250  177.6840  143.6460 C   0  0  0  0  0  2  0  0  0  0  0  0
  1  5  1  0  0  0  0
  1 19  1  0  0  0  0
  2 16  1  0  0  0  0
  2 13  1  0  0  0  0
  3 17  1  0  0  0  0
  4  1  2  0  0  0  0
  6  8  2  0  0  0  0
  7 15  1  6  0  0  0
  7  9  1  0  0  0  0
  7 27  1  0  0  0  0
  8 11  1  0  0  0  0
  9 14  1  6  0  0  0
  9 22  1  0  0  0  0
 10  3  1  0  0  0  0
 11 28  1  0  0  0  0
 11  5  2  0  0  0  0
 12  8  1  0  0  0  0
 12  4  1  0  0  0  0
 17 26  1  0  0  0  0
 18 13  2  0  0  0  0
 19  2  2  0  0  0  0
 20  4  1  0  0  0  0
 20 17  2  0  0  0  0
 21 10  2  0  0  0  0
 22 10  1  1  0  0  0
 22 20  1  0  0  0  0
 23 15  1  0  0  0  0
 23 14  1  0  0  0  0
 25 18  1  0  0  0  0
 26 19  1  0  0  0  0
 26 25  2  0  0  0  0
 27 24  1  1  0  0  0
 27 12  1  0  0  0  0
 28 30  1  0  0  0  0
 30 29  1  0  0  0  0
M  END
>  <MODEL>
9

>  <REMARK>
 VINA RESULT:      -8.4      2.765      6.062
  Name = 
  2 active torsions:
  status: ('A' for Active; 'I' for Inactive)
    1  A    between atoms: C_11  and  C_28
    2  A    between atoms: C_28  and  C_30
                            x       y       z     vdW  Elec       q    Type
                         _______ _______ _______ _____ _____    ______ ____

>  <TORSDO>
F 2

$$$$
