=
 OpenBabel11122412003D

 28 32  0  0  1  0  0  0  0  0999 V2000
  189.4900  177.8790  137.7820 C   0  0  0  0  0  0  0  0  0  0  0  0
  193.2820  176.0280  134.8240 O   0  0  0  0  0  0  0  0  0  0  0  0
  187.3940  173.7380  137.2690 C   0  0  0  0  0  1  0  0  0  0  0  0
  189.8510  176.8080  140.3440 C   0  0  0  0  0  3  0  0  0  0  0  0
  189.5450  173.1510  136.1950 C   0  0  2  0  0  3  0  0  0  0  0  0
  189.2830  178.3730  136.4940 O   0  0  0  0  0  0  0  0  0  0  0  0
  194.1450  177.1280  136.8440 O   0  0  0  0  0  0  0  0  0  0  0  0
  193.6130  175.8420  136.2780 S   0  0  0  0  0  0  0  0  0  0  0  0
  194.2290  173.3490  137.1190 C   0  0  2  0  0  3  0  0  0  0  0  0
  192.2000  175.3460  137.1720 N   0  0  2  0  0  0  0  0  0  0  0  0
  185.9400  177.5030  135.0650 C   0  0  0  0  0  1  0  0  0  0  0  0
  190.1860  175.4360  135.7970 C   0  0  1  0  0  3  0  0  0  0  0  0
  192.9080  172.9950  136.4490 C   0  0  0  0  0  2  0  0  0  0  0  0
  194.8430  174.5650  136.4400 C   0  0  0  0  0  2  0  0  0  0  0  0
  187.2090  177.2700  135.8560 C   0  0  1  0  0  3  0  0  0  0  0  0
  190.3900  176.8170  137.9730 C   0  0  0  0  0  0  0  0  0  0  0  0
  188.3280  174.0430  136.1130 C   0  0  2  0  0  3  0  0  0  0  0  0
  195.1840  172.1800  137.0050 C   0  0  0  0  0  1  0  0  0  0  0  0
  188.0330  176.1780  135.1850 C   0  0  0  0  0  2  0  0  0  0  0  0
  190.5550  176.2790  139.2590 C   0  0  0  0  0  3  0  0  0  0  0  0
  188.7760  178.3990  138.8720 C   0  0  0  0  0  3  0  0  0  0  0  0
  188.9620  177.8670  140.1500 C   0  0  0  0  0  3  0  0  0  0  0  0
  187.9810  178.5870  135.9620 C   0  0  0  0  0  2  0  0  0  0  0  0
  190.7040  174.0190  135.7840 C   0  0  1  0  0  3  0  0  0  0  0  0
  188.7750  175.4270  136.1910 N   0  0  2  0  0  0  0  0  0  0  0  0
  191.7840  173.9690  136.8440 C   0  0  2  0  0  3  0  0  0  0  0  0
  189.4110  172.0870  135.3030 O   0  0  0  0  0  1  0  0  0  0  0  0
  191.0920  176.2120  136.7740 C   0  0  1  0  0  3  0  0  0  0  0  0
  1 16  2  0  0  0  0
  1 21  1  0  0  0  0
  2  8  2  0  0  0  0
  5 27  1  6  0  0  0
  6  1  1  0  0  0  0
  8 14  1  0  0  0  0
  8  7  2  0  0  0  0
  9 18  1  6  0  0  0
 10  8  1  6  0  0  0
 11 15  1  0  0  0  0
 12 25  1  0  0  0  0
 12 28  1  0  0  0  0
 13 26  1  0  0  0  0
 13  9  1  0  0  0  0
 14  9  1  0  0  0  0
 15 23  1  0  0  0  0
 16 20  1  0  0  0  0
 17 25  1  0  0  0  0
 17  5  1  0  0  0  0
 17  3  1  0  0  0  0
 19 15  1  0  0  0  0
 19 25  1  0  0  0  0
 20  4  2  0  0  0  0
 21 22  2  0  0  0  0
 22  4  1  0  0  0  0
 23  6  1  0  0  0  0
 24 12  1  0  0  0  0
 24  5  1  0  0  0  0
 24 26  1  0  0  0  0
 26 10  1  0  0  0  0
 28 10  1  0  0  0  0
 28 16  1  0  0  0  0
M  END
>  <MODEL>
1

>  <REMARK>
 VINA RESULT:      -6.1      0.000      0.000
  Name = 
  0 active torsions:
  status: ('A' for Active; 'I' for Inactive)
                            x       y       z     vdW  Elec       q    Type
                         _______ _______ _______ _____ _____    ______ ____

>  <TORSDO>
F 0

$$$$
=
 OpenBabel11122412003D

 28 32  0  0  1  0  0  0  0  0999 V2000
  179.3800  176.8730  138.3500 C   0  0  0  0  0  0  0  0  0  0  0  0
  180.1770  180.4950  141.9280 O   0  0  0  0  0  0  0  0  0  0  0  0
  183.9030  177.2870  137.2680 C   0  0  0  0  0  1  0  0  0  0  0  0
  180.3700  174.4670  139.3840 C   0  0  0  0  0  3  0  0  0  0  0  0
  183.9180  178.7190  139.2860 C   0  0  2  0  0  3  0  0  0  0  0  0
  178.9310  178.0820  137.8170 O   0  0  0  0  0  0  0  0  0  0  0  0
  178.9310  178.5770  142.8240 O   0  0  0  0  0  0  0  0  0  0  0  0
  180.2990  179.1250  142.5330 S   0  0  0  0  0  0  0  0  0  0  0  0
  182.5730  178.5380  143.8680 C   0  0  2  0  0  3  0  0  0  0  0  0
  181.1460  178.0490  141.4530 N   0  0  2  0  0  0  0  0  0  0  0  0
  180.5830  179.0120  134.5950 C   0  0  0  0  0  1  0  0  0  0  0  0
  181.5390  179.0810  139.2770 C   0  0  1  0  0  3  0  0  0  0  0  0
  183.2340  179.0100  142.5800 C   0  0  0  0  0  2  0  0  0  0  0  0
  181.2320  179.2330  144.0460 C   0  0  0  0  0  2  0  0  0  0  0  0
  180.5050  178.4460  135.9960 C   0  0  1  0  0  3  0  0  0  0  0  0
  180.1860  176.8890  139.5000 C   0  0  0  0  0  0  0  0  0  0  0  0
  183.3560  178.5560  137.8930 C   0  0  2  0  0  3  0  0  0  0  0  0
  183.4660  178.8690  145.0460 C   0  0  0  0  0  1  0  0  0  0  0  0
  181.3460  179.3010  136.9370 C   0  0  0  0  0  2  0  0  0  0  0  0
  180.6880  175.6780  140.0040 C   0  0  0  0  0  3  0  0  0  0  0  0
  179.0730  175.6560  137.7240 C   0  0  0  0  0  3  0  0  0  0  0  0
  179.5630  174.4560  138.2450 C   0  0  0  0  0  3  0  0  0  0  0  0
  179.0400  178.3880  136.4310 C   0  0  0  0  0  2  0  0  0  0  0  0
  182.7810  179.2580  140.1140 C   0  0  1  0  0  3  0  0  0  0  0  0
  181.9050  178.4700  137.9970 N   0  0  2  0  0  0  0  0  0  0  0  0
  182.5780  178.3870  141.3360 C   0  0  2  0  0  3  0  0  0  0  0  0
  184.9660  179.6390  139.2670 O   0  0  0  0  0  1  0  0  0  0  0  0
  180.5780  178.2160  140.1170 C   0  0  1  0  0  3  0  0  0  0  0  0
  1 16  1  0  0  0  0
  2  8  2  0  0  0  0
  3 17  1  0  0  0  0
  4 20  1  0  0  0  0
  5 27  1  6  0  0  0
  5 24  1  0  0  0  0
  6  1  1  0  0  0  0
  8  7  2  0  0  0  0
  8 14  1  0  0  0  0
  9 14  1  0  0  0  0
  9 18  1  1  0  0  0
 10  8  1  1  0  0  0
 11 15  1  0  0  0  0
 12 24  1  0  0  0  0
 12 28  1  0  0  0  0
 13  9  1  0  0  0  0
 15 23  1  0  0  0  0
 15 19  1  0  0  0  0
 16 20  2  0  0  0  0
 16 28  1  0  0  0  0
 17 25  1  0  0  0  0
 17  5  1  0  0  0  0
 19 25  1  0  0  0  0
 21 22  1  0  0  0  0
 21  1  2  0  0  0  0
 22  4  2  0  0  0  0
 23  6  1  0  0  0  0
 24 26  1  0  0  0  0
 25 12  1  0  0  0  0
 26 10  1  0  0  0  0
 26 13  1  0  0  0  0
 28 10  1  0  0  0  0
M  END
>  <MODEL>
2

>  <REMARK>
 VINA RESULT:      -6.0      8.110     11.126
  Name = 
  0 active torsions:
  status: ('A' for Active; 'I' for Inactive)
                            x       y       z     vdW  Elec       q    Type
                         _______ _______ _______ _____ _____    ______ ____

>  <TORSDO>
F 0

$$$$
=
 OpenBabel11122412003D

 28 32  0  0  1  0  0  0  0  0999 V2000
  180.9420  176.3820  136.6180 C   0  0  0  0  0  0  0  0  0  0  0  0
  185.7120  174.6560  137.5260 O   0  0  0  0  0  0  0  0  0  0  0  0
  182.0840  180.1450  139.1360 C   0  0  0  0  0  1  0  0  0  0  0  0
  181.1370  178.3050  134.5940 C   0  0  0  0  0  3  0  0  0  0  0  0
  184.3340  179.1200  139.0430 C   0  0  2  0  0  3  0  0  0  0  0  0
  180.8530  175.4580  137.6610 O   0  0  0  0  0  0  0  0  0  0  0  0
  185.1000  174.4610  135.1550 O   0  0  0  0  0  0  0  0  0  0  0  0
  185.6570  175.3770  136.2070 S   0  0  0  0  0  0  0  0  0  0  0  0
  187.4010  177.4010  135.8070 C   0  0  2  0  0  3  0  0  0  0  0  0
  184.6660  176.8060  136.3290 N   0  0  2  0  0  0  0  0  0  0  0  0
  179.3290  176.8490  140.7790 C   0  0  0  0  0  1  0  0  0  0  0  0
  183.5180  176.9270  138.4790 C   0  0  1  0  0  3  0  0  0  0  0  0
  186.8360  177.9050  137.1270 C   0  0  0  0  0  2  0  0  0  0  0  0
  187.3010  175.8830  135.7480 C   0  0  0  0  0  2  0  0  0  0  0  0
  180.1820  176.8680  139.5290 C   0  0  1  0  0  3  0  0  0  0  0  0
  182.2030  176.8840  136.2540 C   0  0  0  0  0  0  0  0  0  0  0  0
  182.9130  178.9360  139.5240 C   0  0  2  0  0  3  0  0  0  0  0  0
  188.8550  177.8080  135.6900 C   0  0  0  0  0  1  0  0  0  0  0  0
  181.6510  176.9970  139.9170 C   0  0  0  0  0  2  0  0  0  0  0  0
  182.2890  177.8570  135.2460 C   0  0  0  0  0  3  0  0  0  0  0  0
  179.7880  176.8430  135.9690 C   0  0  0  0  0  3  0  0  0  0  0  0
  179.8870  177.7980  134.9560 C   0  0  0  0  0  3  0  0  0  0  0  0
  179.9130  175.5970  138.7210 C   0  0  0  0  0  2  0  0  0  0  0  0
  184.7730  177.7600  138.5660 C   0  0  1  0  0  3  0  0  0  0  0  0
  182.3720  177.7410  138.8910 N   0  0  2  0  0  0  0  0  0  0  0  0
  185.2980  177.8570  137.1500 C   0  0  2  0  0  3  0  0  0  0  0  0
  185.1410  179.5320  140.1020 O   0  0  0  0  0  1  0  0  0  0  0  0
  183.4310  176.4380  137.0190 C   0  0  1  0  0  3  0  0  0  0  0  0
  1  6  1  0  0  0  0
  3 17  1  0  0  0  0
  4 22  2  0  0  0  0
  4 20  1  0  0  0  0
  5 17  1  0  0  0  0
  5 27  1  1  0  0  0
  6 23  1  0  0  0  0
  7  8  2  0  0  0  0
  8  2  2  0  0  0  0
  9 18  1  1  0  0  0
  9 13  1  0  0  0  0
 10  8  1  1  0  0  0
 10 28  1  0  0  0  0
 10 26  1  0  0  0  0
 12 24  1  0  0  0  0
 12 25  1  0  0  0  0
 13 26  1  0  0  0  0
 14  9  1  0  0  0  0
 14  8  1  0  0  0  0
 15 19  1  0  0  0  0
 15 11  1  0  0  0  0
 16  1  1  0  0  0  0
 16 28  1  0  0  0  0
 20 16  2  0  0  0  0
 21  1  2  0  0  0  0
 22 21  1  0  0  0  0
 23 15  1  0  0  0  0
 24  5  1  0  0  0  0
 25 17  1  0  0  0  0
 25 19  1  0  0  0  0
 26 24  1  0  0  0  0
 28 12  1  0  0  0  0
M  END
>  <MODEL>
3

>  <REMARK>
 VINA RESULT:      -5.0      5.422      8.531
  Name = 
  0 active torsions:
  status: ('A' for Active; 'I' for Inactive)
                            x       y       z     vdW  Elec       q    Type
                         _______ _______ _______ _____ _____    ______ ____

>  <TORSDO>
F 0

$$$$
=
 OpenBabel11122412003D

 28 32  0  0  1  0  0  0  0  0999 V2000
  187.8410  177.1630  137.4950 C   0  0  0  0  0  0  0  0  0  0  0  0
  185.6780  172.6250  138.6280 O   0  0  0  0  0  0  0  0  0  0  0  0
  190.6550  174.8260  134.5940 C   0  0  0  0  0  1  0  0  0  0  0  0
  186.8040  177.9710  135.0230 C   0  0  0  0  0  3  0  0  0  0  0  0
  189.1410  172.9520  135.1600 C   0  0  2  0  0  3  0  0  0  0  0  0
  188.3920  176.7360  138.7030 O   0  0  0  0  0  0  0  0  0  0  0  0
  183.9960  174.3520  138.1560 O   0  0  0  0  0  0  0  0  0  0  0  0
  184.9010  173.3200  137.5450 S   0  0  0  0  0  0  0  0  0  0  0  0
  184.4660  171.9700  135.2460 C   0  0  2  0  0  3  0  0  0  0  0  0
  185.9800  174.0830  136.4070 N   0  0  2  0  0  0  0  0  0  0  0  0
  192.1200  176.4510  138.6380 C   0  0  0  0  0  1  0  0  0  0  0  0
  188.2990  173.9890  137.1620 C   0  0  1  0  0  3  0  0  0  0  0  0
  185.9760  171.7830  135.2840 C   0  0  0  0  0  2  0  0  0  0  0  0
  183.9270  172.1210  136.6610 C   0  0  0  0  0  2  0  0  0  0  0  0
  190.7150  176.3440  138.0870 C   0  0  1  0  0  3  0  0  0  0  0  0
  187.1240  176.2470  136.7070 C   0  0  0  0  0  0  0  0  0  0  0  0
  190.1410  173.9410  135.7130 C   0  0  2  0  0  3  0  0  0  0  0  0
  183.8220  170.7640  134.5940 C   0  0  0  0  0  1  0  0  0  0  0  0
  190.3710  174.8770  137.8530 C   0  0  0  0  0  2  0  0  0  0  0  0
  186.6180  176.6580  135.4640 C   0  0  0  0  0  3  0  0  0  0  0  0
  188.0340  178.4770  137.0430 C   0  0  0  0  0  3  0  0  0  0  0  0
  187.5110  178.8800  135.8130 C   0  0  0  0  0  3  0  0  0  0  0  0
  189.7420  177.0110  139.0610 C   0  0  0  0  0  2  0  0  0  0  0  0
  188.0660  172.8430  136.2090 C   0  0  1  0  0  3  0  0  0  0  0  0
  189.4660  174.7540  136.7160 N   0  0  2  0  0  0  0  0  0  0  0  0
  186.7110  173.1000  135.5840 C   0  0  2  0  0  3  0  0  0  0  0  0
  189.7540  171.7120  134.9810 O   0  0  0  0  0  1  0  0  0  0  0  0
  186.9940  174.8100  137.1690 C   0  0  1  0  0  3  0  0  0  0  0  0
  1  6  1  0  0  0  0
  3 17  1  0  0  0  0
  4 20  2  0  0  0  0
  4 22  1  0  0  0  0
  5 27  1  1  0  0  0
  5 17  1  0  0  0  0
  5 24  1  0  0  0  0
  6 23  1  0  0  0  0
  8  7  2  0  0  0  0
  8  2  2  0  0  0  0
  9 18  1  1  0  0  0
  9 13  1  0  0  0  0
  9 14  1  0  0  0  0
 10 28  1  0  0  0  0
 10  8  1  1  0  0  0
 12 28  1  0  0  0  0
 13 26  1  0  0  0  0
 14  8  1  0  0  0  0
 15 11  1  0  0  0  0
 15 23  1  0  0  0  0
 16 28  1  0  0  0  0
 16  1  2  0  0  0  0
 17 25  1  0  0  0  0
 19 15  1  0  0  0  0
 20 16  1  0  0  0  0
 21  1  1  0  0  0  0
 22 21  2  0  0  0  0
 24 12  1  0  0  0  0
 25 12  1  0  0  0  0
 25 19  1  0  0  0  0
 26 24  1  0  0  0  0
 26 10  1  0  0  0  0
M  END
>  <MODEL>
4

>  <REMARK>
 VINA RESULT:      -4.6      3.094      6.100
  Name = 
  0 active torsions:
  status: ('A' for Active; 'I' for Inactive)
                            x       y       z     vdW  Elec       q    Type
                         _______ _______ _______ _____ _____    ______ ____

>  <TORSDO>
F 0

$$$$
=
 OpenBabel11122412003D

 28 32  0  0  1  0  0  0  0  0999 V2000
  182.6490  177.4640  136.0800 C   0  0  0  0  0  0  0  0  0  0  0  0
  183.5960  177.3360  141.1440 O   0  0  0  0  0  0  0  0  0  0  0  0
  179.0010  174.6780  136.9360 C   0  0  0  0  0  1  0  0  0  0  0  0
  180.5370  179.2590  135.6860 C   0  0  0  0  0  3  0  0  0  0  0  0
  179.6050  175.1560  139.2870 C   0  0  2  0  0  3  0  0  0  0  0  0
  183.6690  176.5330  136.2830 O   0  0  0  0  0  0  0  0  0  0  0  0
  183.6680  179.6240  140.2530 O   0  0  0  0  0  0  0  0  0  0  0  0
  182.7740  178.5450  140.7950 S   0  0  0  0  0  0  0  0  0  0  0  0
  180.4480  178.9110  142.1200 C   0  0  2  0  0  3  0  0  0  0  0  0
  181.5570  178.1410  139.6130 N   0  0  2  0  0  0  0  0  0  0  0  0
  182.8670  173.1150  134.9960 C   0  0  0  0  0  1  0  0  0  0  0  0
  181.8430  175.8710  138.7650 C   0  0  1  0  0  3  0  0  0  0  0  0
  180.1770  177.4830  141.6660 C   0  0  0  0  0  2  0  0  0  0  0  0
  181.9470  179.1340  142.2570 C   0  0  0  0  0  2  0  0  0  0  0  0
  182.5810  174.4470  135.6560 C   0  0  1  0  0  3  0  0  0  0  0  0
  181.9030  177.9140  137.1820 C   0  0  0  0  0  0  0  0  0  0  0  0
  180.0780  174.5340  137.9930 C   0  0  2  0  0  3  0  0  0  0  0  0
  179.7840  179.1510  143.4590 C   0  0  0  0  0  1  0  0  0  0  0  0
  182.2350  174.2230  137.1240 C   0  0  0  0  0  2  0  0  0  0  0  0
  180.8380  178.8050  136.9720 C   0  0  0  0  0  3  0  0  0  0  0  0
  182.3360  177.9130  134.7890 C   0  0  0  0  0  3  0  0  0  0  0  0
  181.2860  178.8130  134.5950 C   0  0  0  0  0  3  0  0  0  0  0  0
  183.7970  175.3600  135.4870 C   0  0  0  0  0  2  0  0  0  0  0  0
  180.8160  175.8360  139.8690 C   0  0  1  0  0  3  0  0  0  0  0  0
  181.2840  175.2340  137.5700 N   0  0  2  0  0  0  0  0  0  0  0  0
  180.4940  177.2840  140.1740 C   0  0  2  0  0  3  0  0  0  0  0  0
  179.1600  174.1590  140.1550 O   0  0  0  0  0  1  0  0  0  0  0  0
  182.1980  177.3570  138.5590 C   0  0  1  0  0  3  0  0  0  0  0  0
  1  6  1  0  0  0  0
  1 16  1  0  0  0  0
  3 17  1  0  0  0  0
  4 20  1  0  0  0  0
  5 24  1  0  0  0  0
  5 27  1  1  0  0  0
  7  8  2  0  0  0  0
  8  2  2  0  0  0  0
  8 14  1  0  0  0  0
  9 14  1  0  0  0  0
  9 18  1  1  0  0  0
 10 26  1  0  0  0  0
 10  8  1  1  0  0  0
 11 15  1  0  0  0  0
 12 24  1  0  0  0  0
 13  9  1  0  0  0  0
 15 19  1  0  0  0  0
 16 28  1  0  0  0  0
 17  5  1  0  0  0  0
 19 25  1  0  0  0  0
 20 16  2  0  0  0  0
 21  1  2  0  0  0  0
 22 21  1  0  0  0  0
 22  4  2  0  0  0  0
 23 15  1  0  0  0  0
 23  6  1  0  0  0  0
 24 26  1  0  0  0  0
 25 17  1  0  0  0  0
 25 12  1  0  0  0  0
 26 13  1  0  0  0  0
 28 12  1  0  0  0  0
 28 10  1  0  0  0  0
M  END
>  <MODEL>
5

>  <REMARK>
 VINA RESULT:      -4.6      7.937     10.473
  Name = 
  0 active torsions:
  status: ('A' for Active; 'I' for Inactive)
                            x       y       z     vdW  Elec       q    Type
                         _______ _______ _______ _____ _____    ______ ____

>  <TORSDO>
F 0

$$$$
=
 OpenBabel11122412003D

 28 32  0  0  1  0  0  0  0  0999 V2000
  185.5390  174.9920  136.7220 C   0  0  0  0  0  0  0  0  0  0  0  0
  183.0700  177.5510  140.4520 O   0  0  0  0  0  0  0  0  0  0  0  0
  181.4030  174.5850  134.5940 C   0  0  0  0  0  1  0  0  0  0  0  0
  185.8860  176.7780  134.5940 C   0  0  0  0  0  3  0  0  0  0  0  0
  180.6910  176.1210  136.3990 C   0  0  2  0  0  3  0  0  0  0  0  0
  185.3220  174.0900  137.7640 O   0  0  0  0  0  0  0  0  0  0  0  0
  185.1120  178.7130  139.7370 O   0  0  0  0  0  0  0  0  0  0  0  0
  183.6510  178.5120  139.4530 S   0  0  0  0  0  0  0  0  0  0  0  0
  181.9810  180.3050  138.3140 C   0  0  2  0  0  3  0  0  0  0  0  0
  183.4440  177.9100  137.8290 N   0  0  2  0  0  0  0  0  0  0  0  0
  183.4020  171.0470  136.7470 C   0  0  0  0  0  1  0  0  0  0  0  0
  182.5740  175.6310  137.8160 C   0  0  1  0  0  3  0  0  0  0  0  0
  181.1640  179.0620  137.9900 C   0  0  0  0  0  2  0  0  0  0  0  0
  182.8000  180.0710  139.5750 C   0  0  0  0  0  2  0  0  0  0  0  0
  183.7620  172.5170  136.7540 C   0  0  1  0  0  3  0  0  0  0  0  0
  184.8400  176.2100  136.7150 C   0  0  0  0  0  0  0  0  0  0  0  0
  181.2490  174.7500  136.0940 C   0  0  2  0  0  3  0  0  0  0  0  0
  181.0510  181.4790  138.5340 C   0  0  0  0  0  1  0  0  0  0  0  0
  182.6140  173.3180  137.3570 C   0  0  0  0  0  2  0  0  0  0  0  0
  185.0120  177.0940  135.6370 C   0  0  0  0  0  3  0  0  0  0  0  0
  186.4070  174.6730  135.6670 C   0  0  0  0  0  3  0  0  0  0  0  0
  186.5830  175.5670  134.6100 C   0  0  0  0  0  3  0  0  0  0  0  0
  185.0650  172.7090  137.5330 C   0  0  0  0  0  2  0  0  0  0  0  0
  181.4150  176.5800  137.6380 C   0  0  1  0  0  3  0  0  0  0  0  0
  182.5510  174.6370  136.7400 N   0  0  2  0  0  0  0  0  0  0  0  0
  182.0330  177.9400  137.3960 C   0  0  2  0  0  3  0  0  0  0  0  0
  179.3240  176.0270  136.6580 O   0  0  0  0  0  1  0  0  0  0  0  0
  183.8440  176.5050  137.8170 C   0  0  1  0  0  3  0  0  0  0  0  0
  1  6  1  0  0  0  0
  3 17  1  0  0  0  0
  4 22  2  0  0  0  0
  4 20  1  0  0  0  0
  5 27  1  1  0  0  0
  5 24  1  0  0  0  0
  8 14  1  0  0  0  0
  8  7  2  0  0  0  0
  8  2  2  0  0  0  0
  9 18  1  1  0  0  0
  9 14  1  0  0  0  0
 10  8  1  1  0  0  0
 11 15  1  0  0  0  0
 12 28  1  0  0  0  0
 13  9  1  0  0  0  0
 15 19  1  0  0  0  0
 15 23  1  0  0  0  0
 16  1  1  0  0  0  0
 16 28  1  0  0  0  0
 17  5  1  0  0  0  0
 17 25  1  0  0  0  0
 20 16  2  0  0  0  0
 21  1  2  0  0  0  0
 22 21  1  0  0  0  0
 23  6  1  0  0  0  0
 24 12  1  0  0  0  0
 25 19  1  0  0  0  0
 25 12  1  0  0  0  0
 26 24  1  0  0  0  0
 26 10  1  0  0  0  0
 26 13  1  0  0  0  0
 28 10  1  0  0  0  0
M  END
>  <MODEL>
6

>  <REMARK>
 VINA RESULT:      -4.6      6.049      9.214
  Name = 
  0 active torsions:
  status: ('A' for Active; 'I' for Inactive)
                            x       y       z     vdW  Elec       q    Type
                         _______ _______ _______ _____ _____    ______ ____

>  <TORSDO>
F 0

$$$$
=
 OpenBabel11122412003D

 28 32  0  0  1  0  0  0  0  0999 V2000
  182.3020  178.6490  138.0260 C   0  0  0  0  0  0  0  0  0  0  0  0
  186.4300  177.9320  135.0250 O   0  0  0  0  0  0  0  0  0  0  0  0
  181.4930  174.0710  137.5940 C   0  0  0  0  0  1  0  0  0  0  0  0
  182.9920  177.7680  140.5930 C   0  0  0  0  0  3  0  0  0  0  0  0
  183.7070  174.1160  136.4910 C   0  0  2  0  0  3  0  0  0  0  0  0
  181.9450  179.0420  136.7350 O   0  0  0  0  0  0  0  0  0  0  0  0
  186.9630  179.2660  137.0180 O   0  0  0  0  0  0  0  0  0  0  0  0
  186.8200  177.8720  136.4760 S   0  0  0  0  0  0  0  0  0  0  0  0
  188.1440  175.6790  137.3330 C   0  0  2  0  0  3  0  0  0  0  0  0
  185.6230  177.0020  137.3980 N   0  0  2  0  0  0  0  0  0  0  0  0
  178.9800  177.2170  135.3720 C   0  0  0  0  0  1  0  0  0  0  0  0
  183.6530  176.4820  136.0560 C   0  0  1  0  0  3  0  0  0  0  0  0
  186.9740  174.9470  136.6900 C   0  0  0  0  0  2  0  0  0  0  0  0
  188.3690  177.0100  136.6310 C   0  0  0  0  0  2  0  0  0  0  0  0
  180.2720  177.3750  136.1450 C   0  0  1  0  0  3  0  0  0  0  0  0
  183.4740  177.8970  138.2130 C   0  0  0  0  0  0  0  0  0  0  0  0
  182.2830  174.6150  136.4190 C   0  0  2  0  0  3  0  0  0  0  0  0
  189.3950  174.8350  137.2160 C   0  0  0  0  0  1  0  0  0  0  0  0
  181.3690  176.5580  135.4720 C   0  0  0  0  0  2  0  0  0  0  0  0
  183.8050  177.4500  139.5020 C   0  0  0  0  0  3  0  0  0  0  0  0
  181.4820  178.9560  139.1220 C   0  0  0  0  0  3  0  0  0  0  0  0
  181.8310  178.5210  140.4020 C   0  0  0  0  0  3  0  0  0  0  0  0
  180.6290  178.8600  136.2230 C   0  0  0  0  0  2  0  0  0  0  0  0
  184.5590  175.2770  136.0500 C   0  0  1  0  0  3  0  0  0  0  0  0
  182.3100  176.0710  136.4740 N   0  0  2  0  0  0  0  0  0  0  0  0
  185.6210  175.5580  137.0920 C   0  0  2  0  0  3  0  0  0  0  0  0
  183.8770  173.0460  135.6130 O   0  0  0  0  0  1  0  0  0  0  0  0
  184.3060  177.5030  137.0100 C   0  0  1  0  0  3  0  0  0  0  0  0
  1 16  2  0  0  0  0
  1 21  1  0  0  0  0
  2  8  2  0  0  0  0
  5 27  1  6  0  0  0
  6  1  1  0  0  0  0
  8 14  1  0  0  0  0
  8  7  2  0  0  0  0
  9 18  1  6  0  0  0
 10  8  1  6  0  0  0
 11 15  1  0  0  0  0
 12 25  1  0  0  0  0
 12 28  1  0  0  0  0
 13 26  1  0  0  0  0
 13  9  1  0  0  0  0
 14  9  1  0  0  0  0
 15 23  1  0  0  0  0
 16 20  1  0  0  0  0
 17 25  1  0  0  0  0
 17  5  1  0  0  0  0
 17  3  1  0  0  0  0
 19 15  1  0  0  0  0
 19 25  1  0  0  0  0
 20  4  2  0  0  0  0
 21 22  2  0  0  0  0
 22  4  1  0  0  0  0
 23  6  1  0  0  0  0
 24 12  1  0  0  0  0
 24  5  1  0  0  0  0
 24 26  1  0  0  0  0
 26 10  1  0  0  0  0
 28 10  1  0  0  0  0
 28 16  1  0  0  0  0
M  END
>  <MODEL>
7

>  <REMARK>
 VINA RESULT:      -4.4      4.786      6.754
  Name = 
  0 active torsions:
  status: ('A' for Active; 'I' for Inactive)
                            x       y       z     vdW  Elec       q    Type
                         _______ _______ _______ _____ _____    ______ ____

>  <TORSDO>
F 0

$$$$
=
 OpenBabel11122412003D

 28 32  0  0  1  0  0  0  0  0999 V2000
  185.7700  174.9300  135.8880 C   0  0  0  0  0  0  0  0  0  0  0  0
  181.6480  178.0180  135.7330 O   0  0  0  0  0  0  0  0  0  0  0  0
  187.2270  177.4580  139.5330 C   0  0  0  0  0  1  0  0  0  0  0  0
  185.3500  173.1050  137.9710 C   0  0  0  0  0  3  0  0  0  0  0  0
  184.9770  178.4650  139.3160 C   0  0  2  0  0  3  0  0  0  0  0  0
  185.9990  175.8700  134.8830 O   0  0  0  0  0  0  0  0  0  0  0  0
  181.0240  175.6460  135.5970 O   0  0  0  0  0  0  0  0  0  0  0  0
  181.3450  176.7790  136.5290 S   0  0  0  0  0  0  0  0  0  0  0  0
  180.4070  177.0980  139.0420 C   0  0  2  0  0  3  0  0  0  0  0  0
  182.7030  176.3480  137.5350 N   0  0  2  0  0  0  0  0  0  0  0  0
  189.1290  177.8570  135.3660 C   0  0  0  0  0  1  0  0  0  0  0  0
  184.6580  177.7250  137.0480 C   0  0  1  0  0  3  0  0  0  0  0  0
  181.6380  177.9810  139.1940 C   0  0  0  0  0  2  0  0  0  0  0  0
  179.9500  177.0910  137.5910 C   0  0  0  0  0  2  0  0  0  0  0  0
  187.8690  177.1360  135.7930 C   0  0  1  0  0  3  0  0  0  0  0  0
  184.7330  175.1520  136.8100 C   0  0  0  0  0  0  0  0  0  0  0  0
  186.3070  178.2550  138.6290 C   0  0  2  0  0  3  0  0  0  0  0  0
  179.2890  177.6340  139.9130 C   0  0  0  0  0  1  0  0  0  0  0  0
  186.8720  178.1430  136.3540 C   0  0  0  0  0  2  0  0  0  0  0  0
  184.5380  174.2370  137.8580 C   0  0  0  0  0  3  0  0  0  0  0  0
  186.5900  173.7980  136.0120 C   0  0  0  0  0  3  0  0  0  0  0  0
  186.3750  172.8870  137.0480 C   0  0  0  0  0  3  0  0  0  0  0  0
  187.3000  176.3730  134.5960 C   0  0  0  0  0  2  0  0  0  0  0  0
  183.9410  178.3250  138.2320 C   0  0  1  0  0  3  0  0  0  0  0  0
  186.0660  177.5170  137.3950 N   0  0  2  0  0  0  0  0  0  0  0  0
  182.9030  177.3020  138.6440 C   0  0  2  0  0  3  0  0  0  0  0  0
  184.9240  179.7490  139.8570 O   0  0  0  0  0  1  0  0  0  0  0  0
  183.9100  176.4190  136.7140 C   0  0  1  0  0  3  0  0  0  0  0  0
  1 21  2  0  0  0  0
  1 16  1  0  0  0  0
  2  8  2  0  0  0  0
  5 27  1  6  0  0  0
  6  1  1  0  0  0  0
  7  8  2  0  0  0  0
  8 14  1  0  0  0  0
  9 13  1  0  0  0  0
  9 18  1  1  0  0  0
 10  8  1  6  0  0  0
 10 26  1  0  0  0  0
 11 15  1  0  0  0  0
 12 25  1  0  0  0  0
 12 24  1  0  0  0  0
 14  9  1  0  0  0  0
 15 19  1  0  0  0  0
 16 20  2  0  0  0  0
 17  5  1  0  0  0  0
 17  3  1  0  0  0  0
 19 25  1  0  0  0  0
 20  4  1  0  0  0  0
 21 22  1  0  0  0  0
 22  4  2  0  0  0  0
 23  6  1  0  0  0  0
 23 15  1  0  0  0  0
 24 26  1  0  0  0  0
 24  5  1  0  0  0  0
 25 17  1  0  0  0  0
 26 13  1  0  0  0  0
 28 16  1  0  0  0  0
 28 12  1  0  0  0  0
 28 10  1  0  0  0  0
M  END
>  <MODEL>
8

>  <REMARK>
 VINA RESULT:      -4.3      5.009      8.828
  Name = 
  0 active torsions:
  status: ('A' for Active; 'I' for Inactive)
                            x       y       z     vdW  Elec       q    Type
                         _______ _______ _______ _____ _____    ______ ____

>  <TORSDO>
F 0

$$$$
=
 OpenBabel11122412003D

 28 32  0  0  1  0  0  0  0  0999 V2000
  182.1700  179.2740  138.8000 C   0  0  0  0  0  0  0  0  0  0  0  0
  186.1040  177.9310  135.7540 O   0  0  0  0  0  0  0  0  0  0  0  0
  179.8070  175.7170  136.9100 C   0  0  0  0  0  1  0  0  0  0  0  0
  182.1490  177.4800  140.9500 C   0  0  0  0  0  3  0  0  0  0  0  0
  182.0090  175.2230  135.8940 C   0  0  2  0  0  3  0  0  0  0  0  0
  182.1530  180.1360  137.7030 O   0  0  0  0  0  0  0  0  0  0  0  0
  186.8230  178.3020  138.0740 O   0  0  0  0  0  0  0  0  0  0  0  0
  186.2520  177.3000  137.1110 S   0  0  0  0  0  0  0  0  0  0  0  0
  186.5590  174.6180  137.2230 C   0  0  2  0  0  3  0  0  0  0  0  0
  184.7110  176.7330  137.6960 N   0  0  2  0  0  0  0  0  0  0  0  0
  178.9310  180.0950  135.8060 C   0  0  0  0  0  1  0  0  0  0  0  0
  182.8800  177.4390  136.2460 C   0  0  1  0  0  3  0  0  0  0  0  0
  185.2970  174.6230  136.3710 C   0  0  0  0  0  2  0  0  0  0  0  0
  187.3450  175.9000  136.9890 C   0  0  0  0  0  2  0  0  0  0  0  0
  180.0790  179.5040  136.5960 C   0  0  1  0  0  3  0  0  0  0  0  0
  182.9520  178.1080  138.7420 C   0  0  0  0  0  0  0  0  0  0  0  0
  180.8880  176.2330  135.9790 C   0  0  2  0  0  3  0  0  0  0  0  0
  187.4200  173.4300  136.8480 C   0  0  0  0  0  1  0  0  0  0  0  0
  180.8800  178.5630  135.7030 C   0  0  0  0  0  2  0  0  0  0  0  0
  182.9250  177.2090  139.8200 C   0  0  0  0  0  3  0  0  0  0  0  0
  181.3840  179.5370  139.9310 C   0  0  0  0  0  3  0  0  0  0  0  0
  181.3790  178.6440  141.0050 C   0  0  0  0  0  3  0  0  0  0  0  0
  180.9410  180.6390  137.1510 C   0  0  0  0  0  2  0  0  0  0  0  0
  183.2760  176.0360  135.8570 C   0  0  1  0  0  3  0  0  0  0  0  0
  181.4380  177.4770  136.5000 N   0  0  2  0  0  0  0  0  0  0  0  0
  184.2220  175.5630  136.9410 C   0  0  2  0  0  3  0  0  0  0  0  0
  181.8880  174.4820  134.7200 O   0  0  0  0  0  1  0  0  0  0  0  0
  183.7310  177.7950  137.4810 C   0  0  1  0  0  3  0  0  0  0  0  0
  1 21  1  0  0  0  0
  2  8  2  0  0  0  0
  4 22  1  0  0  0  0
  5 27  1  6  0  0  0
  5 17  1  0  0  0  0
  6  1  1  0  0  0  0
  8  7  2  0  0  0  0
  9 18  1  6  0  0  0
 10  8  1  6  0  0  0
 11 15  1  0  0  0  0
 12 25  1  0  0  0  0
 12 28  1  0  0  0  0
 13 26  1  0  0  0  0
 13  9  1  0  0  0  0
 14  8  1  0  0  0  0
 14  9  1  0  0  0  0
 15 23  1  0  0  0  0
 16  1  2  0  0  0  0
 16 20  1  0  0  0  0
 17 25  1  0  0  0  0
 17  3  1  0  0  0  0
 19 25  1  0  0  0  0
 19 15  1  0  0  0  0
 20  4  2  0  0  0  0
 21 22  2  0  0  0  0
 23  6  1  0  0  0  0
 24  5  1  0  0  0  0
 24 12  1  0  0  0  0
 24 26  1  0  0  0  0
 26 10  1  0  0  0  0
 28 10  1  0  0  0  0
 28 16  1  0  0  0  0
M  END
>  <MODEL>
9

>  <REMARK>
 VINA RESULT:      -4.2      5.417      7.645
  Name = 
  0 active torsions:
  status: ('A' for Active; 'I' for Inactive)
                            x       y       z     vdW  Elec       q    Type
                         _______ _______ _______ _____ _____    ______ ____

>  <TORSDO>
F 0

$$$$
