=
 OpenBabel11122411253D

 37 43  0  0  1  0  0  0  0  0999 V2000
  181.2210  179.5810  140.1110 C   0  0  0  0  0  2  0  0  0  0  0  0
  185.5590  178.7290  142.9640 C   0  0  0  0  0  0  0  0  0  0  0  0
  184.6520  178.3640  138.7460 C   0  0  1  0  0  3  0  0  0  0  0  0
  179.7230  179.8710  140.1830 C   0  0  2  0  0  3  0  0  0  0  0  0
  182.0700  175.5290  138.8090 O   0  0  0  0  0  0  0  0  0  0  0  0
  186.3850  178.3460  140.6030 C   0  0  1  0  0  3  0  0  0  0  0  0
  183.2830  177.6990  138.9250 C   0  0  1  0  0  3  0  0  0  0  0  0
  179.5400  178.1120  138.2760 C   0  0  0  0  0  0  0  0  0  0  0  0
  185.0330  178.8920  140.1270 C   0  0  2  0  0  3  0  0  0  0  0  0
  183.1960  176.2590  138.3560 C   0  0  2  0  0  3  0  0  0  0  0  0
  187.4120  178.6830  139.6230 N   0  0  0  0  0  2  0  0  0  0  0  0
  178.9320  179.2910  139.0000 C   0  0  0  0  0  2  0  0  0  0  0  0
  183.9280  178.6550  141.0750 N   0  0  2  0  0  0  0  0  0  0  0  0
  185.1210  180.0750  143.5080 C   0  0  0  0  0  1  0  0  0  0  0  0
  185.5240  177.0830  136.6820 C   0  0  0  0  0  2  0  0  0  0  0  0
  187.1700  178.0090  138.3340 C   0  0  0  0  0  2  0  0  0  0  0  0
  184.3550  178.0140  142.3290 C   0  0  0  0  0  2  0  0  0  0  0  0
  180.2910  177.0860  138.9520 N   0  0  0  0  0  0  0  0  0  0  0  0
  180.9090  176.0150  138.1730 C   0  0  0  0  0  2  0  0  0  0  0  0
  185.7480  177.4430  138.1530 C   0  0  1  0  0  3  0  0  0  0  0  0
  182.9800  177.7560  140.4260 C   0  0  1  0  0  3  0  0  0  0  0  0
  186.7070  178.9410  141.9650 C   0  0  0  0  0  2  0  0  0  0  0  0
  183.3900  176.1800  136.8220 C   0  0  1  0  0  3  0  0  0  0  0  0
  186.0670  177.8860  144.1150 C   0  0  0  0  0  1  0  0  0  0  0  0
  180.5170  177.1350  140.3920 C   0  0  0  0  0  2  0  0  0  0  0  0
  179.3520  178.0300  137.0330 O   0  0  0  0  0  0  0  0  0  0  0  0
  181.5460  178.2150  140.7320 C   0  0  2  0  0  3  0  0  0  0  0  0
  184.1810  177.2190  136.2730 O   0  0  0  0  0  0  0  0  0  0  0  0
  183.1510  174.3730  135.1060 C   0  0  0  0  0  3  0  0  0  0  0  0
  183.7310  174.8100  136.3020 C   0  0  0  0  0  0  0  0  0  0  0  0
  184.6360  173.9800  136.9790 C   0  0  0  0  0  3  0  0  0  0  0  0
  185.8220  171.9180  137.1250 F   0  0  0  0  0  0  0  0  0  0  0  0
  184.3630  172.2820  135.2750 C   0  0  0  0  0  3  0  0  0  0  0  0
  184.9490  172.7170  136.4670 C   0  0  0  0  0  0  0  0  0  0  0  0
  183.4660  173.1090  134.5940 C   0  0  0  0  0  3  0  0  0  0  0  0
  179.6640  181.9660  138.9450 N   0  0  0  0  0  1  0  0  0  0  0  0
  179.4790  181.3670  140.2560 C   0  0  0  0  0  2  0  0  0  0  0  0
  1  4  1  0  0  0  0
  1 27  1  0  0  0  0
  2 14  1  0  0  0  0
  2 24  1  0  0  0  0
  3  7  1  0  0  0  0
  3  9  1  0  0  0  0
  4 37  1  0  0  0  0
  6 22  1  0  0  0  0
  7 21  1  0  0  0  0
  8 18  1  0  0  0  0
  8 12  1  0  0  0  0
  9  6  1  0  0  0  0
  9 13  1  0  0  0  0
 10  5  1  0  0  0  0
 10  7  1  0  0  0  0
 11  6  1  0  0  0  0
 12  4  1  0  0  0  0
 13 17  1  0  0  0  0
 15 20  1  0  0  0  0
 16 11  1  0  0  0  0
 17  2  1  0  0  0  0
 18 25  1  0  0  0  0
 19  5  1  0  0  0  0
 19 18  1  0  0  0  0
 20 16  1  0  0  0  0
 20  3  1  0  0  0  0
 21 27  1  0  0  0  0
 21 13  1  0  0  0  0
 22  2  1  0  0  0  0
 23 10  1  0  0  0  0
 25 27  1  0  0  0  0
 26  8  2  0  0  0  0
 28 15  1  0  0  0  0
 28 23  1  0  0  0  0
 29 30  1  0  0  0  0
 30 23  1  0  0  0  0
 30 31  2  0  0  0  0
 33 34  2  0  0  0  0
 34 31  1  0  0  0  0
 34 32  1  0  0  0  0
 35 29  2  0  0  0  0
 35 33  1  0  0  0  0
 36 37  1  0  0  0  0
M  END
>  <MODEL>
1

>  <REMARK>
 VINA RESULT:      -6.6      0.000      0.000
  Name = 
  2 active torsions:
  status: ('A' for Active; 'I' for Inactive)
    1  A    between atoms: C_4  and  C_37
    2  A    between atoms: C_23  and  C_30
                            x       y       z     vdW  Elec       q    Type
                         _______ _______ _______ _____ _____    ______ ____

>  <TORSDO>
F 2

$$$$
=
 OpenBabel11122411253D

 37 43  0  0  1  0  0  0  0  0999 V2000
  182.5580  174.1830  136.9450 C   0  0  0  0  0  2  0  0  0  0  0  0
  186.5840  177.3280  135.6860 C   0  0  0  0  0  0  0  0  0  0  0  0
  183.8040  177.2350  139.0050 C   0  0  1  0  0  3  0  0  0  0  0  0
  181.6500  173.0640  136.4380 C   0  0  2  0  0  3  0  0  0  0  0  0
  180.5070  178.0000  137.2020 O   0  0  0  0  0  0  0  0  0  0  0  0
  185.9070  178.2060  137.9610 C   0  0  1  0  0  3  0  0  0  0  0  0
  182.5510  176.9590  138.1670 C   0  0  1  0  0  3  0  0  0  0  0  0
  179.7430  174.4420  137.5480 C   0  0  0  0  0  0  0  0  0  0  0  0
  184.9840  176.9850  138.0680 C   0  0  2  0  0  3  0  0  0  0  0  0
  181.4910  178.0900  138.2160 C   0  0  2  0  0  3  0  0  0  0  0  0
  186.3760  178.5740  139.2920 N   0  0  0  0  0  2  0  0  0  0  0  0
  180.2360  173.1070  137.0390 C   0  0  0  0  0  2  0  0  0  0  0  0
  184.4940  176.4920  136.7680 N   0  0  2  0  0  0  0  0  0  0  0  0
  187.2030  175.9640  135.4470 C   0  0  0  0  0  1  0  0  0  0  0  0
  182.8370  178.8550  140.7660 C   0  0  0  0  0  2  0  0  0  0  0  0
  185.2640  179.0200  140.1520 C   0  0  0  0  0  2  0  0  0  0  0  0
  185.0520  177.2170  135.6150 C   0  0  0  0  0  2  0  0  0  0  0  0
  180.0750  175.6890  136.9080 N   0  0  0  0  0  0  0  0  0  0  0  0
  179.6190  176.9450  137.5010 C   0  0  0  0  0  2  0  0  0  0  0  0
  183.8580  178.6450  139.6440 C   0  0  1  0  0  3  0  0  0  0  0  0
  183.0480  176.6820  136.7440 C   0  0  1  0  0  3  0  0  0  0  0  0
  187.0700  177.8680  137.0400 C   0  0  0  0  0  2  0  0  0  0  0  0
  180.8890  178.3210  139.6240 C   0  0  1  0  0  3  0  0  0  0  0  0
  187.0500  178.2670  134.5940 C   0  0  0  0  0  1  0  0  0  0  0  0
  180.9240  175.7330  135.7230 C   0  0  0  0  0  2  0  0  0  0  0  0
  178.9940  174.4410  138.5600 O   0  0  0  0  0  0  0  0  0  0  0  0
  182.3800  175.4560  136.1030 C   0  0  2  0  0  3  0  0  0  0  0  0
  181.7430  177.9680  140.6960 O   0  0  0  0  0  0  0  0  0  0  0  0
  179.5680  179.9290  141.0170 C   0  0  0  0  0  3  0  0  0  0  0  0
  180.1980  179.6460  139.8000 C   0  0  0  0  0  0  0  0  0  0  0  0
  180.1980  180.6080  138.7790 C   0  0  0  0  0  3  0  0  0  0  0  0
  179.5640  182.7630  137.9840 F   0  0  0  0  0  0  0  0  0  0  0  0
  178.9310  182.1140  140.1880 C   0  0  0  0  0  3  0  0  0  0  0  0
  179.5630  181.8380  138.9730 C   0  0  0  0  0  0  0  0  0  0  0  0
  178.9340  181.1610  141.2110 C   0  0  0  0  0  3  0  0  0  0  0  0
  183.6360  171.8760  137.1940 N   0  0  0  0  0  1  0  0  0  0  0  0
  182.2700  171.7090  136.7300 C   0  0  0  0  0  2  0  0  0  0  0  0
  2 22  1  0  0  0  0
  3 20  1  0  0  0  0
  4 37  1  0  0  0  0
  4  1  1  0  0  0  0
  4 12  1  0  0  0  0
  5 19  1  0  0  0  0
  5 10  1  0  0  0  0
  6  9  1  0  0  0  0
  6 11  1  0  0  0  0
  7 10  1  0  0  0  0
  7  3  1  0  0  0  0
  8 26  2  0  0  0  0
  9  3  1  0  0  0  0
 10 23  1  0  0  0  0
 11 16  1  0  0  0  0
 12  8  1  0  0  0  0
 13  9  1  0  0  0  0
 14  2  1  0  0  0  0
 17  2  1  0  0  0  0
 17 13  1  0  0  0  0
 18 19  1  0  0  0  0
 18  8  1  0  0  0  0
 20 16  1  0  0  0  0
 20 15  1  0  0  0  0
 21 13  1  0  0  0  0
 21  7  1  0  0  0  0
 22  6  1  0  0  0  0
 23 30  1  0  0  0  0
 23 28  1  0  0  0  0
 24  2  1  0  0  0  0
 25 27  1  0  0  0  0
 25 18  1  0  0  0  0
 27 21  1  0  0  0  0
 27  1  1  0  0  0  0
 28 15  1  0  0  0  0
 29 35  1  0  0  0  0
 30 29  2  0  0  0  0
 31 34  2  0  0  0  0
 31 30  1  0  0  0  0
 32 34  1  0  0  0  0
 33 35  2  0  0  0  0
 34 33  1  0  0  0  0
 37 36  1  0  0  0  0
M  END
>  <MODEL>
2

>  <REMARK>
 VINA RESULT:      -5.7      3.065      6.764
  Name = 
  2 active torsions:
  status: ('A' for Active; 'I' for Inactive)
    1  A    between atoms: C_4  and  C_37
    2  A    between atoms: C_23  and  C_30
                            x       y       z     vdW  Elec       q    Type
                         _______ _______ _______ _____ _____    ______ ____

>  <TORSDO>
F 2

$$$$
=
 OpenBabel11122411253D

 37 43  0  0  1  0  0  0  0  0999 V2000
  184.8100  178.2550  142.1540 C   0  0  0  0  0  2  0  0  0  0  0  0
  181.5790  180.4890  138.6540 C   0  0  0  0  0  0  0  0  0  0  0  0
  184.1910  177.0390  138.5130 C   0  0  1  0  0  3  0  0  0  0  0  0
  185.4710  178.4250  143.5200 C   0  0  2  0  0  3  0  0  0  0  0  0
  187.6200  178.7190  138.8780 O   0  0  0  0  0  0  0  0  0  0  0  0
  182.3710  178.4300  137.4150 C   0  0  1  0  0  3  0  0  0  0  0  0
  185.3780  177.6970  139.2270 C   0  0  1  0  0  3  0  0  0  0  0  0
  187.5990  177.5190  142.3310 C   0  0  0  0  0  0  0  0  0  0  0  0
  183.0100  177.9790  138.7350 C   0  0  2  0  0  3  0  0  0  0  0  0
  186.6520  177.8280  138.3540 C   0  0  2  0  0  3  0  0  0  0  0  0
  181.9580  177.2560  136.6550 N   0  0  0  0  0  2  0  0  0  0  0  0
  186.8470  177.7460  143.6210 C   0  0  0  0  0  2  0  0  0  0  0  0
  183.4150  179.0940  139.6120 N   0  0  2  0  0  0  0  0  0  0  0  0
  180.6900  180.4580  139.8820 C   0  0  0  0  0  1  0  0  0  0  0  0
  185.4380  175.6250  136.7500 C   0  0  0  0  0  2  0  0  0  0  0  0
  183.1170  176.4390  136.2500 C   0  0  0  0  0  2  0  0  0  0  0  0
  183.0540  180.4200  139.0840 C   0  0  0  0  0  2  0  0  0  0  0  0
  187.5570  178.4480  141.2300 N   0  0  0  0  0  0  0  0  0  0  0  0
  188.2550  178.1230  139.9880 C   0  0  0  0  0  2  0  0  0  0  0  0
  184.4230  176.7420  137.0100 C   0  0  1  0  0  3  0  0  0  0  0  0
  184.8690  179.0530  139.7280 C   0  0  1  0  0  3  0  0  0  0  0  0
  181.1860  179.3330  137.7210 C   0  0  0  0  0  2  0  0  0  0  0  0
  187.2550  176.4680  137.9200 C   0  0  1  0  0  3  0  0  0  0  0  0
  181.3510  181.7980  137.9270 C   0  0  0  0  0  1  0  0  0  0  0  0
  186.7660  179.6710  141.3000 C   0  0  0  0  0  2  0  0  0  0  0  0
  188.3050  176.4790  142.2410 O   0  0  0  0  0  0  0  0  0  0  0  0
  185.2760  179.3470  141.1800 C   0  0  2  0  0  3  0  0  0  0  0  0
  186.3190  175.4100  137.8300 O   0  0  0  0  0  0  0  0  0  0  0  0
  187.9600  177.4680  135.7360 C   0  0  0  0  0  3  0  0  0  0  0  0
  188.2080  176.5460  136.7580 C   0  0  0  0  0  0  0  0  0  0  0  0
  189.3490  175.7330  136.6990 C   0  0  0  0  0  3  0  0  0  0  0  0
  191.3290  175.0480  135.5620 F   0  0  0  0  0  0  0  0  0  0  0  0
  189.9740  176.7540  134.5940 C   0  0  0  0  0  3  0  0  0  0  0  0
  190.2290  175.8360  135.6170 C   0  0  0  0  0  0  0  0  0  0  0  0
  188.8410  177.5710  134.6540 C   0  0  0  0  0  3  0  0  0  0  0  0
  184.1130  178.9620  145.4680 N   0  0  0  0  0  1  0  0  0  0  0  0
  184.5700  177.8800  144.6130 C   0  0  0  0  0  2  0  0  0  0  0  0
  1  4  1  0  0  0  0
  2 17  1  0  0  0  0
  2 14  1  0  0  0  0
  3  9  1  0  0  0  0
  3  7  1  0  0  0  0
  4 12  1  0  0  0  0
  4 37  1  0  0  0  0
  5 19  1  0  0  0  0
  6 22  1  0  0  0  0
  6  9  1  0  0  0  0
  7 21  1  0  0  0  0
  8 12  1  0  0  0  0
  9 13  1  0  0  0  0
 10  5  1  0  0  0  0
 10  7  1  0  0  0  0
 11  6  1  0  0  0  0
 13 21  1  0  0  0  0
 15 20  1  0  0  0  0
 15 28  1  0  0  0  0
 16 11  1  0  0  0  0
 16 20  1  0  0  0  0
 17 13  1  0  0  0  0
 18 25  1  0  0  0  0
 18  8  1  0  0  0  0
 19 18  1  0  0  0  0
 20  3  1  0  0  0  0
 21 27  1  0  0  0  0
 22  2  1  0  0  0  0
 23 10  1  0  0  0  0
 24  2  1  0  0  0  0
 26  8  2  0  0  0  0
 27 25  1  0  0  0  0
 27  1  1  0  0  0  0
 28 23  1  0  0  0  0
 29 30  1  0  0  0  0
 30 23  1  0  0  0  0
 31 30  2  0  0  0  0
 32 34  1  0  0  0  0
 33 35  1  0  0  0  0
 33 34  2  0  0  0  0
 34 31  1  0  0  0  0
 35 29  2  0  0  0  0
 37 36  1  0  0  0  0
M  END
>  <MODEL>
3

>  <REMARK>
 VINA RESULT:      -5.4      2.816      5.996
  Name = 
  2 active torsions:
  status: ('A' for Active; 'I' for Inactive)
    1  A    between atoms: C_4  and  C_37
    2  A    between atoms: C_23  and  C_30
                            x       y       z     vdW  Elec       q    Type
                         _______ _______ _______ _____ _____    ______ ____

>  <TORSDO>
F 2

$$$$
=
 OpenBabel11122411253D

 37 43  0  0  1  0  0  0  0  0999 V2000
  187.3240  177.3760  140.3460 C   0  0  0  0  0  2  0  0  0  0  0  0
  184.6250  177.0660  135.8390 C   0  0  0  0  0  0  0  0  0  0  0  0
  187.9050  174.7830  137.5080 C   0  0  1  0  0  3  0  0  0  0  0  0
  187.5740  178.2300  141.5870 C   0  0  2  0  0  3  0  0  0  0  0  0
  190.6680  177.4410  137.5800 O   0  0  0  0  0  0  0  0  0  0  0  0
  186.1410  175.0440  135.6980 C   0  0  1  0  0  3  0  0  0  0  0  0
  188.7000  175.9860  138.0280 C   0  0  1  0  0  3  0  0  0  0  0  0
  190.0770  177.6480  141.1810 C   0  0  0  0  0  0  0  0  0  0  0  0
  186.5230  175.3290  137.1570 C   0  0  2  0  0  3  0  0  0  0  0  0
  190.0860  176.1700  137.3570 C   0  0  2  0  0  3  0  0  0  0  0  0
  186.2030  173.6070  135.4560 N   0  0  0  0  0  2  0  0  0  0  0  0
  189.0000  178.0910  142.1440 C   0  0  0  0  0  2  0  0  0  0  0  0
  186.4390  176.7540  137.5270 N   0  0  2  0  0  0  0  0  0  0  0  0
  183.4950  177.2170  136.8380 C   0  0  0  0  0  1  0  0  0  0  0  0
  189.8300  173.2750  136.6840 C   0  0  0  0  0  2  0  0  0  0  0  0
  187.5800  173.0960  135.5880 C   0  0  0  0  0  2  0  0  0  0  0  0
  185.9270  177.6140  136.4480 C   0  0  0  0  0  2  0  0  0  0  0  0
  190.0960  178.0470  139.7970 N   0  0  0  0  0  0  0  0  0  0  0  0
  191.1300  177.5190  138.9100 C   0  0  0  0  0  2  0  0  0  0  0  0
  188.5570  174.0410  136.3150 C   0  0  1  0  0  3  0  0  0  0  0  0
  187.7900  177.2050  137.8400 C   0  0  1  0  0  3  0  0  0  0  0  0
  184.7450  175.5880  135.4370 C   0  0  0  0  0  2  0  0  0  0  0  0
  191.0670  175.0010  137.6190 C   0  0  1  0  0  3  0  0  0  0  0  0
  184.2920  177.8790  134.6060 C   0  0  0  0  0  1  0  0  0  0  0  0
  189.0560  178.9050  139.2400 C   0  0  0  0  0  2  0  0  0  0  0  0
  191.0000  176.9180  141.6310 O   0  0  0  0  0  0  0  0  0  0  0  0
  187.7530  178.1210  139.0730 C   0  0  2  0  0  3  0  0  0  0  0  0
  190.4460  173.7520  137.8600 O   0  0  0  0  0  0  0  0  0  0  0  0
  192.2100  175.7180  135.5100 C   0  0  0  0  0  3  0  0  0  0  0  0
  192.2320  174.9350  136.6690 C   0  0  0  0  0  0  0  0  0  0  0  0
  193.3450  174.1260  136.9390 C   0  0  0  0  0  3  0  0  0  0  0  0
  195.4950  173.3100  136.3120 F   0  0  0  0  0  0  0  0  0  0  0  0
  194.3940  174.8730  134.8890 C   0  0  0  0  0  3  0  0  0  0  0  0
  194.4230  174.0940  136.0490 C   0  0  0  0  0  0  0  0  0  0  0  0
  193.2890  175.6860  134.6190 C   0  0  0  0  0  3  0  0  0  0  0  0
  187.2460  177.1360  143.7380 N   0  0  0  0  0  1  0  0  0  0  0  0
  186.5810  177.8760  142.6790 C   0  0  0  0  0  2  0  0  0  0  0  0
  1  4  1  0  0  0  0
  2 17  1  0  0  0  0
  2 14  1  0  0  0  0
  3  7  1  0  0  0  0
  4 12  1  0  0  0  0
  4 37  1  0  0  0  0
  5 19  1  0  0  0  0
  6  9  1  0  0  0  0
  8 26  2  0  0  0  0
  8 12  1  0  0  0  0
  9  3  1  0  0  0  0
  9 13  1  0  0  0  0
 10  5  1  0  0  0  0
 10 23  1  0  0  0  0
 10  7  1  0  0  0  0
 11 16  1  0  0  0  0
 11  6  1  0  0  0  0
 13 21  1  0  0  0  0
 15 28  1  0  0  0  0
 16 20  1  0  0  0  0
 17 13  1  0  0  0  0
 18  8  1  0  0  0  0
 19 18  1  0  0  0  0
 20 15  1  0  0  0  0
 20  3  1  0  0  0  0
 21  7  1  0  0  0  0
 21 27  1  0  0  0  0
 22  6  1  0  0  0  0
 22  2  1  0  0  0  0
 23 28  1  0  0  0  0
 24  2  1  0  0  0  0
 25 18  1  0  0  0  0
 27 25  1  0  0  0  0
 27  1  1  0  0  0  0
 29 30  1  0  0  0  0
 30 31  2  0  0  0  0
 30 23  1  0  0  0  0
 33 34  2  0  0  0  0
 34 32  1  0  0  0  0
 34 31  1  0  0  0  0
 35 33  1  0  0  0  0
 35 29  2  0  0  0  0
 37 36  1  0  0  0  0
M  END
>  <MODEL>
4

>  <REMARK>
 VINA RESULT:      -4.8      4.813      8.167
  Name = 
  2 active torsions:
  status: ('A' for Active; 'I' for Inactive)
    1  A    between atoms: C_4  and  C_37
    2  A    between atoms: C_23  and  C_30
                            x       y       z     vdW  Elec       q    Type
                         _______ _______ _______ _____ _____    ______ ____

>  <TORSDO>
F 2

$$$$
=
 OpenBabel11122411253D

 37 43  0  0  1  0  0  0  0  0999 V2000
  187.0710  176.0170  135.6920 C   0  0  0  0  0  2  0  0  0  0  0  0
  183.8780  171.8440  135.9720 C   0  0  0  0  0  0  0  0  0  0  0  0
  183.1910  176.0880  135.4550 C   0  0  1  0  0  3  0  0  0  0  0  0
  188.5090  176.4960  135.8800 C   0  0  2  0  0  3  0  0  0  0  0  0
  184.4250  177.4320  138.8280 O   0  0  0  0  0  0  0  0  0  0  0  0
  182.2620  173.7230  135.4600 C   0  0  1  0  0  3  0  0  0  0  0  0
  184.2000  176.5520  136.5120 C   0  0  1  0  0  3  0  0  0  0  0  0
  187.4150  178.5470  137.0460 C   0  0  0  0  0  0  0  0  0  0  0  0
  183.4930  174.6090  135.2250 C   0  0  2  0  0  3  0  0  0  0  0  0
  183.5650  177.3030  137.7110 C   0  0  2  0  0  3  0  0  0  0  0  0
  181.1760  174.1670  134.5940 N   0  0  0  0  0  2  0  0  0  0  0  0
  188.6090  177.9620  136.3300 C   0  0  0  0  0  2  0  0  0  0  0  0
  184.6740  174.2110  136.0140 N   0  0  2  0  0  0  0  0  0  0  0  0
  184.9290  171.3340  135.0060 C   0  0  0  0  0  1  0  0  0  0  0  0
  181.3000  177.8030  135.8350 C   0  0  0  0  0  2  0  0  0  0  0  0
  180.7290  175.5280  134.9430 C   0  0  0  0  0  2  0  0  0  0  0  0
  184.4650  172.9920  136.8120 C   0  0  0  0  0  2  0  0  0  0  0  0
  186.5970  177.7810  137.9510 N   0  0  0  0  0  0  0  0  0  0  0  0
  185.4150  178.3970  138.5500 C   0  0  0  0  0  2  0  0  0  0  0  0
  181.7060  176.3270  135.8280 C   0  0  1  0  0  3  0  0  0  0  0  0
  184.9640  175.2960  136.9450 C   0  0  1  0  0  3  0  0  0  0  0  0
  182.6340  172.2750  135.1800 C   0  0  0  0  0  2  0  0  0  0  0  0
  182.8770  178.6340  137.3210 C   0  0  1  0  0  3  0  0  0  0  0  0
  183.4920  170.7150  136.9050 C   0  0  0  0  0  1  0  0  0  0  0  0
  186.8770  176.3750  138.2210 C   0  0  0  0  0  2  0  0  0  0  0  0
  187.1520  179.7630  136.8480 O   0  0  0  0  0  0  0  0  0  0  0  0
  186.4830  175.5140  137.0190 C   0  0  2  0  0  3  0  0  0  0  0  0
  182.3930  178.6810  135.9910 O   0  0  0  0  0  0  0  0  0  0  0  0
  181.5510  180.5160  138.3060 C   0  0  0  0  0  3  0  0  0  0  0  0
  181.9100  179.1650  138.3450 C   0  0  0  0  0  0  0  0  0  0  0  0
  181.3460  178.3240  139.3150 C   0  0  0  0  0  3  0  0  0  0  0  0
  179.8960  178.0220  141.1820 F   0  0  0  0  0  0  0  0  0  0  0  0
  180.0850  180.1880  140.2070 C   0  0  0  0  0  3  0  0  0  0  0  0
  180.4370  178.8360  140.2460 C   0  0  0  0  0  0  0  0  0  0  0  0
  180.6410  181.0280  139.2370 C   0  0  0  0  0  3  0  0  0  0  0  0
  190.7200  176.4200  134.8630 N   0  0  0  0  0  1  0  0  0  0  0  0
  189.2960  176.3190  134.5940 C   0  0  0  0  0  2  0  0  0  0  0  0
  1  4  1  0  0  0  0
  1 27  1  0  0  0  0
  2 17  1  0  0  0  0
  2 24  1  0  0  0  0
  3 20  1  0  0  0  0
  3  7  1  0  0  0  0
  4 12  1  0  0  0  0
  7 21  1  0  0  0  0
  7 10  1  0  0  0  0
  8 18  1  0  0  0  0
  9  3  1  0  0  0  0
  9  6  1  0  0  0  0
  9 13  1  0  0  0  0
 10  5  1  0  0  0  0
 11 16  1  0  0  0  0
 11  6  1  0  0  0  0
 12  8  1  0  0  0  0
 13 17  1  0  0  0  0
 13 21  1  0  0  0  0
 14  2  1  0  0  0  0
 15 28  1  0  0  0  0
 16 20  1  0  0  0  0
 18 25  1  0  0  0  0
 18 19  1  0  0  0  0
 19  5  1  0  0  0  0
 20 15  1  0  0  0  0
 21 27  1  0  0  0  0
 22  6  1  0  0  0  0
 22  2  1  0  0  0  0
 23 10  1  0  0  0  0
 23 30  1  0  0  0  0
 26  8  2  0  0  0  0
 27 25  1  0  0  0  0
 28 23  1  0  0  0  0
 29 30  2  0  0  0  0
 29 35  1  0  0  0  0
 30 31  1  0  0  0  0
 31 34  2  0  0  0  0
 33 34  1  0  0  0  0
 34 32  1  0  0  0  0
 35 33  2  0  0  0  0
 37 36  1  0  0  0  0
 37  4  1  0  0  0  0
M  END
>  <MODEL>
5

>  <REMARK>
 VINA RESULT:      -4.3      3.242      7.866
  Name = 
  2 active torsions:
  status: ('A' for Active; 'I' for Inactive)
    1  A    between atoms: C_4  and  C_37
    2  A    between atoms: C_23  and  C_30
                            x       y       z     vdW  Elec       q    Type
                         _______ _______ _______ _____ _____    ______ ____

>  <TORSDO>
F 2

$$$$
=
 OpenBabel11122411253D

 37 43  0  0  1  0  0  0  0  0999 V2000
  188.5140  176.8870  140.5850 C   0  0  0  0  0  2  0  0  0  0  0  0
  186.3300  177.1590  135.8060 C   0  0  0  0  0  0  0  0  0  0  0  0
  189.5270  174.7690  137.4850 C   0  0  1  0  0  3  0  0  0  0  0  0
  188.5880  177.5530  141.9570 C   0  0  2  0  0  3  0  0  0  0  0  0
  192.1250  177.4830  138.2520 O   0  0  0  0  0  0  0  0  0  0  0  0
  187.9540  175.2360  135.5450 C   0  0  1  0  0  3  0  0  0  0  0  0
  190.1990  175.9090  138.2600 C   0  0  1  0  0  3  0  0  0  0  0  0
  191.1450  177.1280  141.7550 C   0  0  0  0  0  0  0  0  0  0  0  0
  188.1640  175.3130  137.0630 C   0  0  2  0  0  3  0  0  0  0  0  0
  191.6370  176.2400  137.7830 C   0  0  2  0  0  3  0  0  0  0  0  0
  188.1160  173.8550  135.1060 N   0  0  0  0  0  2  0  0  0  0  0  0
  189.9520  177.3830  142.6450 C   0  0  0  0  0  2  0  0  0  0  0  0
  187.9670  176.6620  137.6250 N   0  0  2  0  0  0  0  0  0  0  0  0
  185.0930  177.1190  136.6820 C   0  0  0  0  0  1  0  0  0  0  0  0
  191.6040  173.4710  136.6740 C   0  0  0  0  0  2  0  0  0  0  0  0
  189.4950  173.3790  135.3170 C   0  0  0  0  0  2  0  0  0  0  0  0
  187.5290  177.6550  136.6310 C   0  0  0  0  0  2  0  0  0  0  0  0
  191.2910  177.7300  140.4550 N   0  0  0  0  0  0  0  0  0  0  0  0
  192.4390  177.3780  139.6230 C   0  0  0  0  0  2  0  0  0  0  0  0
  190.3400  174.2380  136.2780 C   0  0  1  0  0  3  0  0  0  0  0  0
  189.2530  177.1090  138.1490 C   0  0  1  0  0  3  0  0  0  0  0  0
  186.5670  175.7630  135.2100 C   0  0  0  0  0  2  0  0  0  0  0  0
  192.6440  175.0800  137.9820 C   0  0  1  0  0  3  0  0  0  0  0  0
  186.0870  178.1350  134.6740 C   0  0  0  0  0  1  0  0  0  0  0  0
  190.2730  178.6250  139.9140 C   0  0  0  0  0  2  0  0  0  0  0  0
  192.0520  176.3720  142.1960 O   0  0  0  0  0  0  0  0  0  0  0  0
  189.0380  177.8280  139.4900 C   0  0  2  0  0  3  0  0  0  0  0  0
  192.0660  173.7880  137.9680 O   0  0  0  0  0  0  0  0  0  0  0  0
  193.9140  176.0280  136.0430 C   0  0  0  0  0  3  0  0  0  0  0  0
  193.9050  175.1980  137.1700 C   0  0  0  0  0  0  0  0  0  0  0  0
  195.0730  174.5150  137.5380 C   0  0  0  0  0  3  0  0  0  0  0  0
  197.3620  173.9910  137.1330 F   0  0  0  0  0  0  0  0  0  0  0  0
  196.2400  175.4790  135.6480 C   0  0  0  0  0  3  0  0  0  0  0  0
  196.2370  174.6530  136.7760 C   0  0  0  0  0  0  0  0  0  0  0  0
  195.0790  176.1670  135.2820 C   0  0  0  0  0  3  0  0  0  0  0  0
  188.0450  176.7530  144.1920 N   0  0  0  0  0  1  0  0  0  0  0  0
  187.5030  177.0050  142.8670 C   0  0  0  0  0  2  0  0  0  0  0  0
  1  4  1  0  0  0  0
  2 17  1  0  0  0  0
  2 14  1  0  0  0  0
  3  7  1  0  0  0  0
  4 12  1  0  0  0  0
  4 37  1  0  0  0  0
  5 19  1  0  0  0  0
  6  9  1  0  0  0  0
  8 26  2  0  0  0  0
  8 12  1  0  0  0  0
  9  3  1  0  0  0  0
  9 13  1  0  0  0  0
 10 23  1  0  0  0  0
 10  5  1  0  0  0  0
 10  7  1  0  0  0  0
 11 16  1  0  0  0  0
 11  6  1  0  0  0  0
 13 21  1  0  0  0  0
 15 28  1  0  0  0  0
 16 20  1  0  0  0  0
 17 13  1  0  0  0  0
 18  8  1  0  0  0  0
 19 18  1  0  0  0  0
 20 15  1  0  0  0  0
 20  3  1  0  0  0  0
 21  7  1  0  0  0  0
 21 27  1  0  0  0  0
 22  6  1  0  0  0  0
 22  2  1  0  0  0  0
 24  2  1  0  0  0  0
 25 18  1  0  0  0  0
 27 25  1  0  0  0  0
 27  1  1  0  0  0  0
 28 23  1  0  0  0  0
 29 30  1  0  0  0  0
 30 31  2  0  0  0  0
 30 23  1  0  0  0  0
 33 34  2  0  0  0  0
 34 32  1  0  0  0  0
 34 31  1  0  0  0  0
 35 33  1  0  0  0  0
 35 29  2  0  0  0  0
 37 36  1  0  0  0  0
M  END
>  <MODEL>
6

>  <REMARK>
 VINA RESULT:      -4.2      5.818      9.292
  Name = 
  2 active torsions:
  status: ('A' for Active; 'I' for Inactive)
    1  A    between atoms: C_4  and  C_37
    2  A    between atoms: C_23  and  C_30
                            x       y       z     vdW  Elec       q    Type
                         _______ _______ _______ _____ _____    ______ ____

>  <TORSDO>
F 2

$$$$
=
 OpenBabel11122411253D

 37 43  0  0  1  0  0  0  0  0999 V2000
  190.9220  176.4250  136.4030 C   0  0  0  0  0  2  0  0  0  0  0  0
  185.9710  174.6750  136.0620 C   0  0  0  0  0  0  0  0  0  0  0  0
  187.8610  177.8340  138.3430 C   0  0  1  0  0  3  0  0  0  0  0  0
  192.3710  176.1360  136.0180 C   0  0  2  0  0  3  0  0  0  0  0  0
  190.1640  175.7910  140.6290 O   0  0  0  0  0  0  0  0  0  0  0  0
  185.7270  176.6850  137.5810 C   0  0  1  0  0  3  0  0  0  0  0  0
  189.1000  177.0290  138.7510 C   0  0  1  0  0  3  0  0  0  0  0  0
  192.9060  176.8570  138.4590 C   0  0  0  0  0  0  0  0  0  0  0  0
  187.1870  177.0160  137.2440 C   0  0  2  0  0  3  0  0  0  0  0  0
  189.2320  176.7980  140.2790 C   0  0  2  0  0  3  0  0  0  0  0  0
  184.9960  177.9230  137.8210 N   0  0  0  0  0  2  0  0  0  0  0  0
  193.3900  176.6620  137.0410 C   0  0  0  0  0  2  0  0  0  0  0  0
  188.0090  175.8320  136.9260 N   0  0  2  0  0  0  0  0  0  0  0  0
  186.3460  174.7540  134.5960 C   0  0  0  0  0  1  0  0  0  0  0  0
  187.4440  179.1740  140.5080 C   0  0  0  0  0  2  0  0  0  0  0  0
  185.5040  178.6280  139.0130 C   0  0  0  0  0  2  0  0  0  0  0  0
  187.2470  174.5730  136.9150 C   0  0  0  0  0  2  0  0  0  0  0  0
  191.9490  175.9800  139.0820 N   0  0  0  0  0  0  0  0  0  0  0  0
  191.4750  176.2760  140.4330 C   0  0  0  0  0  2  0  0  0  0  0  0
  186.8890  178.1610  139.5030 C   0  0  1  0  0  3  0  0  0  0  0  0
  189.0280  175.7160  137.9630 C   0  0  1  0  0  3  0  0  0  0  0  0
  185.1190  175.9000  136.4290 C   0  0  0  0  0  2  0  0  0  0  0  0
  189.4160  178.1020  141.0940 C   0  0  1  0  0  3  0  0  0  0  0  0
  185.1450  173.4250  136.2820 C   0  0  0  0  0  1  0  0  0  0  0  0
  191.3800  174.8440  138.3650 C   0  0  0  0  0  2  0  0  0  0  0  0
  193.3880  177.8190  139.1140 O   0  0  0  0  0  0  0  0  0  0  0  0
  190.3690  175.3270  137.3230 C   0  0  2  0  0  3  0  0  0  0  0  0
  188.8520  179.2550  140.4980 O   0  0  0  0  0  0  0  0  0  0  0  0
  190.1060  178.3520  143.4880 C   0  0  0  0  0  3  0  0  0  0  0  0
  189.1280  177.9670  142.5650 C   0  0  0  0  0  0  0  0  0  0  0  0
  187.8910  177.4910  143.0230 C   0  0  0  0  0  3  0  0  0  0  0  0
  186.4460  176.9290  144.8330 F   0  0  0  0  0  0  0  0  0  0  0  0
  188.6230  177.7710  145.3130 C   0  0  0  0  0  3  0  0  0  0  0  0
  187.6410  177.3910  144.3950 C   0  0  0  0  0  0  0  0  0  0  0  0
  189.8550  178.2530  144.8610 C   0  0  0  0  0  3  0  0  0  0  0  0
  194.0820  177.1210  134.5940 N   0  0  0  0  0  1  0  0  0  0  0  0
  192.6840  176.7320  134.6570 C   0  0  0  0  0  2  0  0  0  0  0  0
  1 27  1  0  0  0  0
  2 24  1  0  0  0  0
  2 22  1  0  0  0  0
  2 17  1  0  0  0  0
  3  7  1  0  0  0  0
  3 20  1  0  0  0  0
  4  1  1  0  0  0  0
  4 12  1  0  0  0  0
  6 11  1  0  0  0  0
  7 10  1  0  0  0  0
  8 18  1  0  0  0  0
  8 26  2  0  0  0  0
  9  6  1  0  0  0  0
  9  3  1  0  0  0  0
 10  5  1  0  0  0  0
 10 23  1  0  0  0  0
 11 16  1  0  0  0  0
 12  8  1  0  0  0  0
 13  9  1  0  0  0  0
 13 21  1  0  0  0  0
 14  2  1  0  0  0  0
 16 20  1  0  0  0  0
 17 13  1  0  0  0  0
 18 19  1  0  0  0  0
 19  5  1  0  0  0  0
 20 15  1  0  0  0  0
 21  7  1  0  0  0  0
 22  6  1  0  0  0  0
 23 30  1  0  0  0  0
 25 18  1  0  0  0  0
 27 21  1  0  0  0  0
 27 25  1  0  0  0  0
 28 15  1  0  0  0  0
 28 23  1  0  0  0  0
 29 35  1  0  0  0  0
 30 31  1  0  0  0  0
 30 29  2  0  0  0  0
 31 34  2  0  0  0  0
 34 32  1  0  0  0  0
 34 33  1  0  0  0  0
 35 33  2  0  0  0  0
 36 37  1  0  0  0  0
 37  4  1  0  0  0  0
M  END
>  <MODEL>
7

>  <REMARK>
 VINA RESULT:      -4.0      4.557      9.585
  Name = 
  2 active torsions:
  status: ('A' for Active; 'I' for Inactive)
    1  A    between atoms: C_4  and  C_37
    2  A    between atoms: C_23  and  C_30
                            x       y       z     vdW  Elec       q    Type
                         _______ _______ _______ _____ _____    ______ ____

>  <TORSDO>
F 2

$$$$
=
 OpenBabel11122411253D

 37 43  0  0  1  0  0  0  0  0999 V2000
  184.2170  178.1630  143.6840 C   0  0  0  0  0  2  0  0  0  0  0  0
  179.5970  179.9810  141.9410 C   0  0  0  0  0  0  0  0  0  0  0  0
  182.3560  176.9790  140.4820 C   0  0  1  0  0  3  0  0  0  0  0  0
  185.3410  178.3910  144.6930 C   0  0  2  0  0  3  0  0  0  0  0  0
  185.3970  179.1530  139.6270 O   0  0  0  0  0  0  0  0  0  0  0  0
  180.0860  178.1060  140.3130 C   0  0  1  0  0  3  0  0  0  0  0  0
  183.6330  177.7890  140.7320 C   0  0  1  0  0  3  0  0  0  0  0  0
  186.9130  177.8600  142.6910 C   0  0  0  0  0  0  0  0  0  0  0  0
  181.2510  177.7190  141.2320 C   0  0  2  0  0  3  0  0  0  0  0  0
  184.4240  178.1410  139.4450 C   0  0  2  0  0  3  0  0  0  0  0  0
  179.5580  176.9060  139.6730 N   0  0  0  0  0  2  0  0  0  0  0  0
  186.7170  177.9290  144.1870 C   0  0  0  0  0  2  0  0  0  0  0  0
  181.8260  178.8560  141.9760 N   0  0  2  0  0  0  0  0  0  0  0  0
  179.2850  179.7750  143.4100 C   0  0  0  0  0  1  0  0  0  0  0  0
  182.9640  175.8280  138.2540 C   0  0  0  0  0  2  0  0  0  0  0  0
  180.5540  176.2900  138.7760 C   0  0  0  0  0  2  0  0  0  0  0  0
  181.1160  180.1250  141.7520 C   0  0  0  0  0  2  0  0  0  0  0  0
  186.3150  178.8040  141.7820 N   0  0  0  0  0  0  0  0  0  0  0  0
  186.4930  178.6280  140.3420 C   0  0  0  0  0  2  0  0  0  0  0  0
  182.0040  176.7670  138.9890 C   0  0  1  0  0  3  0  0  0  0  0  0
  183.1970  179.0350  141.5100 C   0  0  1  0  0  3  0  0  0  0  0  0
  179.0160  178.8070  141.1370 C   0  0  0  0  0  2  0  0  0  0  0  0
  184.9730  176.9040  138.6910 C   0  0  1  0  0  3  0  0  0  0  0  0
  178.9310  181.2600  141.4810 C   0  0  0  0  0  1  0  0  0  0  0  0
  185.4670  179.8890  142.2640 C   0  0  0  0  0  2  0  0  0  0  0  0
  187.6520  176.9450  142.2400 O   0  0  0  0  0  0  0  0  0  0  0  0
  184.1090  179.3440  142.7080 C   0  0  2  0  0  3  0  0  0  0  0  0
  184.2240  175.7180  138.8800 O   0  0  0  0  0  0  0  0  0  0  0  0
  184.3600  177.3040  136.2970 C   0  0  0  0  0  3  0  0  0  0  0  0
  185.3630  177.1630  137.2610 C   0  0  0  0  0  0  0  0  0  0  0  0
  186.7090  177.2920  136.8870 C   0  0  0  0  0  3  0  0  0  0  0  0
  188.3460  177.6710  135.1970 F   0  0  0  0  0  0  0  0  0  0  0  0
  186.0400  177.6830  134.5940 C   0  0  0  0  0  3  0  0  0  0  0  0
  187.0460  177.5490  135.5550 C   0  0  0  0  0  0  0  0  0  0  0  0
  184.6970  177.5620  134.9640 C   0  0  0  0  0  3  0  0  0  0  0  0
  184.6260  178.6460  147.0060 N   0  0  0  0  0  1  0  0  0  0  0  0
  185.0300  177.6810  145.9980 C   0  0  0  0  0  2  0  0  0  0  0  0
  1  4  1  0  0  0  0
  2 14  1  0  0  0  0
  3  7  1  0  0  0  0
  3  9  1  0  0  0  0
  4 37  1  0  0  0  0
  5 19  1  0  0  0  0
  6 22  1  0  0  0  0
  6  9  1  0  0  0  0
  7 21  1  0  0  0  0
  8 12  1  0  0  0  0
  9 13  1  0  0  0  0
 10  5  1  0  0  0  0
 10  7  1  0  0  0  0
 11  6  1  0  0  0  0
 12  4  1  0  0  0  0
 15 28  1  0  0  0  0
 15 20  1  0  0  0  0
 16 20  1  0  0  0  0
 16 11  1  0  0  0  0
 17  2  1  0  0  0  0
 17 13  1  0  0  0  0
 18 25  1  0  0  0  0
 18  8  1  0  0  0  0
 19 18  1  0  0  0  0
 20  3  1  0  0  0  0
 21 13  1  0  0  0  0
 21 27  1  0  0  0  0
 22  2  1  0  0  0  0
 23 28  1  0  0  0  0
 23 10  1  0  0  0  0
 24  2  1  0  0  0  0
 25 27  1  0  0  0  0
 26  8  2  0  0  0  0
 27  1  1  0  0  0  0
 29 30  1  0  0  0  0
 30 23  1  0  0  0  0
 31 30  2  0  0  0  0
 32 34  1  0  0  0  0
 33 35  1  0  0  0  0
 33 34  2  0  0  0  0
 34 31  1  0  0  0  0
 35 29  2  0  0  0  0
 37 36  1  0  0  0  0
M  END
>  <MODEL>
8

>  <REMARK>
 VINA RESULT:      -3.7      2.592      5.915
  Name = 
  2 active torsions:
  status: ('A' for Active; 'I' for Inactive)
    1  A    between atoms: C_4  and  C_37
    2  A    between atoms: C_23  and  C_30
                            x       y       z     vdW  Elec       q    Type
                         _______ _______ _______ _____ _____    ______ ____

>  <TORSDO>
F 2

$$$$
=
 OpenBabel11122411253D

 37 43  0  0  1  0  0  0  0  0999 V2000
  182.8000  179.1360  138.1960 C   0  0  0  0  0  2  0  0  0  0  0  0
  185.9940  178.4830  142.3270 C   0  0  0  0  0  0  0  0  0  0  0  0
  186.5610  178.1600  138.0460 C   0  0  1  0  0  3  0  0  0  0  0  0
  181.3470  179.3330  137.7680 C   0  0  2  0  0  3  0  0  0  0  0  0
  184.2920  175.1740  137.2440 O   0  0  0  0  0  0  0  0  0  0  0  0
  187.5780  178.2050  140.3730 C   0  0  1  0  0  3  0  0  0  0  0  0
  185.2550  177.4090  137.7590 C   0  0  1  0  0  3  0  0  0  0  0  0
  181.9200  177.6110  135.9050 C   0  0  0  0  0  0  0  0  0  0  0  0
  186.4270  178.6780  139.4760 C   0  0  2  0  0  3  0  0  0  0  0  0
  185.4550  175.9800  137.1920 C   0  0  2  0  0  3  0  0  0  0  0  0
  188.8480  178.6250  139.7900 N   0  0  0  0  0  2  0  0  0  0  0  0
  181.0320  178.7340  136.3880 C   0  0  0  0  0  2  0  0  0  0  0  0
  185.0880  178.3540  140.0030 N   0  0  2  0  0  0  0  0  0  0  0  0
  185.3150  179.7870  142.6960 C   0  0  0  0  0  1  0  0  0  0  0  0
  188.1470  176.9810  136.3860 C   0  0  0  0  0  2  0  0  0  0  0  0
  189.0900  177.9670  138.4930 C   0  0  0  0  0  2  0  0  0  0  0  0
  185.1170  177.7110  141.3270 C   0  0  0  0  0  2  0  0  0  0  0  0
  182.4690  176.6160  136.7910 N   0  0  0  0  0  0  0  0  0  0  0  0
  183.3780  175.6030  136.2590 C   0  0  0  0  0  2  0  0  0  0  0  0
  187.8480  177.3210  137.8490 C   0  0  1  0  0  3  0  0  0  0  0  0
  184.4690  177.4140  139.0750 C   0  0  1  0  0  3  0  0  0  0  0  0
  187.3920  178.7870  141.7660 C   0  0  0  0  0  2  0  0  0  0  0  0
  186.1510  175.9490  135.8090 C   0  0  1  0  0  3  0  0  0  0  0  0
  186.1450  177.6470  143.5800 C   0  0  0  0  0  1  0  0  0  0  0  0
  182.2020  176.6460  138.2250 C   0  0  0  0  0  2  0  0  0  0  0  0
  182.1600  177.5450  134.6700 O   0  0  0  0  0  0  0  0  0  0  0  0
  182.9890  177.7780  138.8880 C   0  0  2  0  0  3  0  0  0  0  0  0
  187.0090  177.0460  135.5550 O   0  0  0  0  0  0  0  0  0  0  0  0
  188.1140  174.5010  135.2440 C   0  0  0  0  0  3  0  0  0  0  0  0
  186.7320  174.6140  135.4290 C   0  0  0  0  0  0  0  0  0  0  0  0
  185.9180  173.4810  135.2860 C   0  0  0  0  0  3  0  0  0  0  0  0
  185.6940  171.1570  134.8090 F   0  0  0  0  0  0  0  0  0  0  0  0
  187.8640  172.1410  134.7590 C   0  0  0  0  0  3  0  0  0  0  0  0
  186.4830  172.2470  134.9490 C   0  0  0  0  0  0  0  0  0  0  0  0
  188.6790  173.2660  134.9080 C   0  0  0  0  0  3  0  0  0  0  0  0
  179.5800  180.9880  138.0250 N   0  0  0  0  0  1  0  0  0  0  0  0
  180.9960  180.8100  137.7570 C   0  0  0  0  0  2  0  0  0  0  0  0
  1 27  1  0  0  0  0
  2 14  1  0  0  0  0
  2 24  1  0  0  0  0
  3  9  1  0  0  0  0
  4  1  1  0  0  0  0
  6 22  1  0  0  0  0
  7  3  1  0  0  0  0
  7 21  1  0  0  0  0
  8 12  1  0  0  0  0
  8 18  1  0  0  0  0
  9 13  1  0  0  0  0
  9  6  1  0  0  0  0
 10  5  1  0  0  0  0
 10  7  1  0  0  0  0
 11  6  1  0  0  0  0
 12  4  1  0  0  0  0
 13 17  1  0  0  0  0
 15 20  1  0  0  0  0
 16 11  1  0  0  0  0
 17  2  1  0  0  0  0
 18 25  1  0  0  0  0
 19 18  1  0  0  0  0
 19  5  1  0  0  0  0
 20  3  1  0  0  0  0
 20 16  1  0  0  0  0
 21 13  1  0  0  0  0
 22  2  1  0  0  0  0
 23 10  1  0  0  0  0
 25 27  1  0  0  0  0
 26  8  2  0  0  0  0
 27 21  1  0  0  0  0
 28 23  1  0  0  0  0
 28 15  1  0  0  0  0
 29 30  1  0  0  0  0
 30 23  1  0  0  0  0
 31 30  2  0  0  0  0
 32 34  1  0  0  0  0
 33 35  1  0  0  0  0
 33 34  2  0  0  0  0
 34 31  1  0  0  0  0
 35 29  2  0  0  0  0
 37  4  1  0  0  0  0
 37 36  1  0  0  0  0
M  END
>  <MODEL>
9

>  <REMARK>
 VINA RESULT:      -3.6      2.026      2.642
  Name = 
  2 active torsions:
  status: ('A' for Active; 'I' for Inactive)
    1  A    between atoms: C_4  and  C_37
    2  A    between atoms: C_23  and  C_30
                            x       y       z     vdW  Elec       q    Type
                         _______ _______ _______ _____ _____    ______ ____

>  <TORSDO>
F 2

$$$$
