=
 OpenBabel11122411323D

 37 44  0  0  1  0  0  0  0  0999 V2000
  192.8110  175.0110  138.1830 C   0  0  0  0  0  2  0  0  0  0  0  0
  191.0540  177.4470  142.3370 S   0  0  0  0  0  0  0  0  0  0  0  0
  188.5520  177.3530  138.8220 C   0  0  0  0  0  0  0  0  0  0  0  0
  194.3030  175.1710  137.8740 C   0  0  2  0  0  3  0  0  0  0  0  0
  189.7920  176.0980  135.4470 C   0  0  0  0  0  2  0  0  0  0  0  0
  188.5650  177.5110  141.2480 C   0  0  0  0  0  0  0  0  0  0  0  0
  189.4860  176.9870  137.7030 C   0  0  2  0  0  3  0  0  0  0  0  0
  193.4850  174.9290  135.5020 C   0  0  0  0  0  0  0  0  0  0  0  0
  189.1030  177.0300  140.0490 C   0  0  0  0  0  0  0  0  0  0  0  0
  188.8830  176.1670  136.6110 N   0  0  1  0  0  0  0  0  0  0  0  0
  187.3860  178.2610  141.2030 C   0  0  0  0  0  3  0  0  0  0  0  0
  194.5970  175.3990  136.3880 C   0  0  0  0  0  2  0  0  0  0  0  0
  190.4160  176.3470  139.9520 C   0  0  2  0  0  3  0  0  0  0  0  0
  191.7420  176.4080  143.1740 O   0  0  0  0  0  0  0  0  0  0  0  0
  186.7230  178.6030  137.4960 C   0  0  0  0  0  2  0  0  0  0  0  0
  186.8020  178.5730  139.9670 C   0  0  0  0  0  3  0  0  0  0  0  0
  191.4840  177.2120  140.6150 C   0  0  0  0  0  2  0  0  0  0  0  0
  192.3490  175.8550  135.1970 C   0  0  1  0  0  3  0  0  0  0  0  0
  191.1110  175.4690  135.8480 C   0  0  1  0  0  3  0  0  0  0  0  0
  187.3910  178.1590  138.7630 C   0  0  0  0  0  0  0  0  0  0  0  0
  190.5790  176.1630  138.4420 C   0  0  2  0  0  3  0  0  0  0  0  0
  189.2770  177.2880  142.5490 C   0  0  0  0  0  2  0  0  0  0  0  0
  187.6280  176.7030  136.0620 C   0  0  2  0  0  3  0  0  0  0  0  0
  191.4900  178.8150  142.7780 O   0  0  0  0  0  0  0  0  0  0  0  0
  191.8880  176.6060  136.3960 N   0  0  1  0  0  0  0  0  0  0  0  0
  193.5120  173.8060  135.0280 O   0  0  0  0  0  0  0  0  0  0  0  0
  191.9990  176.2640  137.8360 C   0  0  2  0  0  3  0  0  0  0  0  0
  187.4400  178.2210  136.2050 C   0  0  0  0  0  2  0  0  0  0  0  0
  185.0390  176.3260  135.9890 C   0  0  0  0  0  2  0  0  0  0  0  0
  186.4260  175.8640  136.3940 C   0  0  0  0  0  0  0  0  0  0  0  0
  186.6170  174.7340  137.0810 C   0  0  0  0  0  3  0  0  0  0  0  0
  185.6840  172.8230  138.1040 O   0  0  0  0  0  0  0  0  0  0  0  0
  184.1380  174.2240  136.9910 C   0  0  0  0  0  3  0  0  0  0  0  0
  185.4890  173.8690  137.4350 C   0  0  0  0  0  0  0  0  0  0  0  0
  183.9310  175.3520  136.3120 C   0  0  0  0  0  3  0  0  0  0  0  0
  196.1810  174.3520  139.2980 C   0  0  0  0  0  1  0  0  0  0  0  0
  195.0620  173.9450  138.3520 C   0  0  0  0  0  2  0  0  0  0  0  0
  2 22  1  0  0  0  0
  2 24  2  0  0  0  0
  2 14  2  0  0  0  0
  3  9  1  0  0  0  0
  4  1  1  0  0  0  0
  4 37  1  6  0  0  0
  6 22  1  0  0  0  0
  7 21  1  0  0  0  0
  7  3  1  1  0  0  0
  8 12  1  0  0  0  0
  9  6  2  0  0  0  0
 10  5  1  6  0  0  0
 10  7  1  0  0  0  0
 11  6  1  0  0  0  0
 12  4  1  0  0  0  0
 13  9  1  0  0  0  0
 13 17  1  6  0  0  0
 15 20  1  0  0  0  0
 16 11  2  0  0  0  0
 17  2  1  0  0  0  0
 18  8  1  1  0  0  0
 18 19  1  0  0  0  0
 18 25  1  0  0  0  0
 19  5  1  6  0  0  0
 19 25  1  0  0  0  0
 20  3  2  0  0  0  0
 20 16  1  0  0  0  0
 21 13  1  0  0  0  0
 23 28  1  0  0  0  0
 23 30  1  0  0  0  0
 23 10  1  0  0  0  0
 25 27  1  0  0  0  0
 26  8  2  0  0  0  0
 27  1  1  0  0  0  0
 27 21  1  0  0  0  0
 28 15  1  0  0  0  0
 29 35  1  0  0  0  0
 29 30  1  0  0  0  0
 30 31  2  0  0  0  0
 31 34  1  0  0  0  0
 33 34  1  0  0  0  0
 34 32  2  0  0  0  0
 35 33  2  0  0  0  0
 37 36  1  0  0  0  0
M  END
>  <MODEL>
1

>  <REMARK>
 VINA RESULT:      -7.5      0.000      0.000
  Name = 
  2 active torsions:
  status: ('A' for Active; 'I' for Inactive)
    1  A    between atoms: C_4  and  C_37
    2  A    between atoms: C_23  and  C_30
                            x       y       z     vdW  Elec       q    Type
                         _______ _______ _______ _____ _____    ______ ____

>  <TORSDO>
F 2

$$$$
=
 OpenBabel11122411323D

 37 44  0  0  1  0  0  0  0  0999 V2000
  188.6450  177.2870  142.1850 C   0  0  0  0  0  2  0  0  0  0  0  0
  184.6520  178.9150  139.4140 S   0  0  0  0  0  0  0  0  0  0  0  0
  188.0010  177.1690  137.3270 C   0  0  0  0  0  0  0  0  0  0  0  0
  189.0480  178.1540  143.3820 C   0  0  2  0  0  3  0  0  0  0  0  0
  191.3040  176.3670  139.0450 C   0  0  0  0  0  2  0  0  0  0  0  0
  185.6060  177.5750  137.2500 C   0  0  0  0  0  0  0  0  0  0  0  0
  189.1300  177.2130  138.3190 C   0  0  2  0  0  3  0  0  0  0  0  0
  191.3380  177.2700  142.8120 C   0  0  0  0  0  0  0  0  0  0  0  0
  186.7800  177.3100  137.9630 C   0  0  0  0  0  0  0  0  0  0  0  0
  190.1050  176.0870  138.2280 N   0  0  1  0  0  0  0  0  0  0  0  0
  185.6580  177.6040  135.8550 C   0  0  0  0  0  3  0  0  0  0  0  0
  190.5630  178.3370  143.5200 C   0  0  0  0  0  2  0  0  0  0  0  0
  186.8830  177.3910  139.4400 C   0  0  2  0  0  3  0  0  0  0  0  0
  183.7580  178.4740  140.5360 O   0  0  0  0  0  0  0  0  0  0  0  0
  189.3390  177.1510  135.1190 C   0  0  0  0  0  2  0  0  0  0  0  0
  186.8840  177.4360  135.1960 C   0  0  0  0  0  3  0  0  0  0  0  0
  186.3640  178.7470  139.9080 C   0  0  0  0  0  2  0  0  0  0  0  0
  191.6680  177.4430  141.3630 C   0  0  1  0  0  3  0  0  0  0  0  0
  190.9180  176.5520  140.4990 C   0  0  1  0  0  3  0  0  0  0  0  0
  188.0740  177.2530  135.9180 C   0  0  0  0  0  0  0  0  0  0  0  0
  188.3760  177.1530  139.6780 C   0  0  2  0  0  3  0  0  0  0  0  0
  184.3300  177.8910  137.9720 C   0  0  0  0  0  2  0  0  0  0  0  0
  190.6340  175.8400  136.8770 C   0  0  2  0  0  3  0  0  0  0  0  0
  184.3670  180.3520  139.0810 O   0  0  0  0  0  0  0  0  0  0  0  0
  190.5220  177.9770  140.5770 N   0  0  1  0  0  0  0  0  0  0  0  0
  191.7040  176.2760  143.4150 O   0  0  0  0  0  0  0  0  0  0  0  0
  189.0650  177.9000  140.8440 C   0  0  2  0  0  3  0  0  0  0  0  0
  190.6250  177.0530  135.9330 C   0  0  0  0  0  2  0  0  0  0  0  0
  190.8350  173.9840  135.0420 C   0  0  0  0  0  2  0  0  0  0  0  0
  190.1580  174.5460  136.2790 C   0  0  0  0  0  0  0  0  0  0  0  0
  189.1120  173.9370  136.8440 C   0  0  0  0  0  3  0  0  0  0  0  0
  187.6000  172.1260  136.8410 O   0  0  0  0  0  0  0  0  0  0  0  0
  189.2730  172.0410  135.1730 C   0  0  0  0  0  3  0  0  0  0  0  0
  188.6010  172.6710  136.3120 C   0  0  0  0  0  0  0  0  0  0  0  0
  190.3130  172.6400  134.5940 C   0  0  0  0  0  3  0  0  0  0  0  0
  186.9770  177.5370  144.6300 C   0  0  0  0  0  1  0  0  0  0  0  0
  188.4970  177.5510  144.6640 C   0  0  0  0  0  2  0  0  0  0  0  0
  1  4  1  0  0  0  0
  2 17  1  0  0  0  0
  2 14  2  0  0  0  0
  3  9  1  0  0  0  0
  4 12  1  0  0  0  0
  4 37  1  1  0  0  0
  6  9  2  0  0  0  0
  6 22  1  0  0  0  0
  7  3  1  6  0  0  0
  7 21  1  0  0  0  0
  8 26  2  0  0  0  0
  8 12  1  0  0  0  0
  9 13  1  0  0  0  0
 10  7  1  0  0  0  0
 10  5  1  1  0  0  0
 11  6  1  0  0  0  0
 13 21  1  0  0  0  0
 13 17  1  6  0  0  0
 15 20  1  0  0  0  0
 15 28  1  0  0  0  0
 16 11  2  0  0  0  0
 16 20  1  0  0  0  0
 18  8  1  1  0  0  0
 19  5  1  6  0  0  0
 19 25  1  0  0  0  0
 19 18  1  0  0  0  0
 20  3  2  0  0  0  0
 21 27  1  0  0  0  0
 22  2  1  0  0  0  0
 23 10  1  0  0  0  0
 24  2  2  0  0  0  0
 25 27  1  0  0  0  0
 25 18  1  0  0  0  0
 27  1  1  0  0  0  0
 28 23  1  0  0  0  0
 29 30  1  0  0  0  0
 30 31  2  0  0  0  0
 30 23  1  0  0  0  0
 33 34  1  0  0  0  0
 34 32  2  0  0  0  0
 34 31  1  0  0  0  0
 35 29  1  0  0  0  0
 35 33  2  0  0  0  0
 36 37  1  0  0  0  0
M  END
>  <MODEL>
2

>  <REMARK>
 VINA RESULT:      -7.4      2.761      5.845
  Name = 
  2 active torsions:
  status: ('A' for Active; 'I' for Inactive)
    1  A    between atoms: C_4  and  C_37
    2  A    between atoms: C_23  and  C_30
                            x       y       z     vdW  Elec       q    Type
                         _______ _______ _______ _____ _____    ______ ____

>  <TORSDO>
F 2

$$$$
=
 OpenBabel11122411323D

 37 44  0  0  1  0  0  0  0  0999 V2000
  188.8600  177.0350  142.1020 C   0  0  0  0  0  2  0  0  0  0  0  0
  185.5040  178.6610  145.6180 S   0  0  0  0  0  0  0  0  0  0  0  0
  184.2980  178.7160  141.4750 C   0  0  0  0  0  0  0  0  0  0  0  0
  190.3260  177.4210  142.3230 C   0  0  2  0  0  3  0  0  0  0  0  0
  186.7320  178.0820  138.6160 C   0  0  0  0  0  2  0  0  0  0  0  0
  183.5140  178.5540  143.7700 C   0  0  0  0  0  0  0  0  0  0  0  0
  185.5850  178.6200  140.7050 C   0  0  2  0  0  3  0  0  0  0  0  0
  190.3540  177.3920  139.8030 C   0  0  0  0  0  0  0  0  0  0  0  0
  184.4750  178.3060  142.7850 C   0  0  0  0  0  0  0  0  0  0  0  0
  185.5020  177.8830  139.4110 N   0  0  1  0  0  0  0  0  0  0  0  0
  182.3050  179.1470  143.3970 C   0  0  0  0  0  3  0  0  0  0  0  0
  191.0360  177.8780  141.0440 C   0  0  0  0  0  2  0  0  0  0  0  0
  185.8440  177.8130  143.0750 C   0  0  2  0  0  3  0  0  0  0  0  0
  186.0490  177.6160  146.5480 O   0  0  0  0  0  0  0  0  0  0  0  0
  182.8080  179.8890  139.7230 C   0  0  0  0  0  2  0  0  0  0  0  0
  182.1010  179.5430  142.0670 C   0  0  0  0  0  3  0  0  0  0  0  0
  186.4900  178.7110  144.1250 C   0  0  0  0  0  2  0  0  0  0  0  0
  189.2400  178.1980  139.2140 C   0  0  1  0  0  3  0  0  0  0  0  0
  187.9400  177.5780  139.3800 C   0  0  1  0  0  3  0  0  0  0  0  0
  183.1020  179.3690  141.0990 C   0  0  0  0  0  0  0  0  0  0  0  0
  186.5050  177.8520  141.6960 C   0  0  2  0  0  3  0  0  0  0  0  0
  183.8020  178.2530  145.2110 C   0  0  0  0  0  2  0  0  0  0  0  0
  184.4170  178.3230  138.5210 C   0  0  2  0  0  3  0  0  0  0  0  0
  185.5490  180.0040  146.2910 O   0  0  0  0  0  0  0  0  0  0  0  0
  188.3060  178.7210  140.2480 N   0  0  1  0  0  0  0  0  0  0  0  0
  190.7120  176.3530  139.2740 O   0  0  0  0  0  0  0  0  0  0  0  0
  188.0080  178.2100  141.6090 C   0  0  2  0  0  3  0  0  0  0  0  0
  183.9490  179.7730  138.7190 C   0  0  0  0  0  2  0  0  0  0  0  0
  183.0540  176.2990  139.4690 C   0  0  0  0  0  2  0  0  0  0  0  0
  183.3250  177.3030  138.3630 C   0  0  0  0  0  0  0  0  0  0  0  0
  182.6380  177.2860  137.2170 C   0  0  0  0  0  3  0  0  0  0  0  0
  180.9410  176.3020  135.9060 O   0  0  0  0  0  0  0  0  0  0  0  0
  181.1990  175.3850  138.0710 C   0  0  0  0  0  3  0  0  0  0  0  0
  181.5600  176.3190  137.0000 C   0  0  0  0  0  0  0  0  0  0  0  0
  181.8800  175.3840  139.2160 C   0  0  0  0  0  3  0  0  0  0  0  0
  191.3110  176.4720  144.4100 C   0  0  0  0  0  1  0  0  0  0  0  0
  191.0820  176.2480  142.9230 C   0  0  0  0  0  2  0  0  0  0  0  0
  1  4  1  0  0  0  0
  2 24  2  0  0  0  0
  2 14  2  0  0  0  0
  3  9  1  0  0  0  0
  4 37  1  6  0  0  0
  6 22  1  0  0  0  0
  7  3  1  1  0  0  0
  7 21  1  0  0  0  0
  8 12  1  0  0  0  0
  9 13  1  0  0  0  0
  9  6  2  0  0  0  0
 10  5  1  6  0  0  0
 10  7  1  0  0  0  0
 11  6  1  0  0  0  0
 12  4  1  0  0  0  0
 13 17  1  1  0  0  0
 15 20  1  0  0  0  0
 16 11  2  0  0  0  0
 17  2  1  0  0  0  0
 18 19  1  0  0  0  0
 18  8  1  1  0  0  0
 18 25  1  0  0  0  0
 19  5  1  6  0  0  0
 19 25  1  0  0  0  0
 20  3  2  0  0  0  0
 20 16  1  0  0  0  0
 21 13  1  0  0  0  0
 22  2  1  0  0  0  0
 23 28  1  0  0  0  0
 23 10  1  0  0  0  0
 25 27  1  0  0  0  0
 26  8  2  0  0  0  0
 27 21  1  0  0  0  0
 27  1  1  0  0  0  0
 28 15  1  0  0  0  0
 30 23  1  0  0  0  0
 30 29  1  0  0  0  0
 31 30  2  0  0  0  0
 32 34  2  0  0  0  0
 33 35  2  0  0  0  0
 34 31  1  0  0  0  0
 34 33  1  0  0  0  0
 35 29  1  0  0  0  0
 37 36  1  0  0  0  0
M  END
>  <MODEL>
3

>  <REMARK>
 VINA RESULT:      -7.2      3.887      5.524
  Name = 
  2 active torsions:
  status: ('A' for Active; 'I' for Inactive)
    1  A    between atoms: C_4  and  C_37
    2  A    between atoms: C_23  and  C_30
                            x       y       z     vdW  Elec       q    Type
                         _______ _______ _______ _____ _____    ______ ____

>  <TORSDO>
F 2

$$$$
=
 OpenBabel11122411323D

 37 44  0  0  1  0  0  0  0  0999 V2000
  188.7420  177.1280  144.6150 C   0  0  0  0  0  2  0  0  0  0  0  0
  184.1410  179.0600  143.4450 S   0  0  0  0  0  0  0  0  0  0  0  0
  186.8760  178.2160  140.2150 C   0  0  0  0  0  0  0  0  0  0  0  0
  189.4220  177.6880  145.8700 C   0  0  2  0  0  3  0  0  0  0  0  0
  190.5240  177.2910  140.7980 C   0  0  0  0  0  2  0  0  0  0  0  0
  184.5330  178.4150  140.8340 C   0  0  0  0  0  0  0  0  0  0  0  0
  188.2200  178.1010  140.8780 C   0  0  2  0  0  3  0  0  0  0  0  0
  191.5060  177.1870  144.5440 C   0  0  0  0  0  0  0  0  0  0  0  0
  185.8560  178.0800  141.1410 C   0  0  0  0  0  0  0  0  0  0  0  0
  189.1610  177.1280  140.2500 N   0  0  1  0  0  0  0  0  0  0  0  0
  184.2250  178.8090  139.5300 C   0  0  0  0  0  3  0  0  0  0  0  0
  190.9180  177.9620  145.6820 C   0  0  0  0  0  2  0  0  0  0  0  0
  186.3330  177.7830  142.5140 C   0  0  2  0  0  3  0  0  0  0  0  0
  183.5740  178.2660  144.5860 O   0  0  0  0  0  0  0  0  0  0  0  0
  187.6030  178.8890  137.8310 C   0  0  0  0  0  2  0  0  0  0  0  0
  185.2440  178.9260  138.5740 C   0  0  0  0  0  3  0  0  0  0  0  0
  185.9260  178.9210  143.4450 C   0  0  0  0  0  2  0  0  0  0  0  0
  191.4490  177.7580  143.1610 C   0  0  1  0  0  3  0  0  0  0  0  0
  190.5200  177.0580  142.2950 C   0  0  1  0  0  3  0  0  0  0  0  0
  186.5830  178.6690  138.9080 C   0  0  0  0  0  0  0  0  0  0  0  0
  187.8420  177.6250  142.3100 C   0  0  2  0  0  3  0  0  0  0  0  0
  183.4800  178.4200  141.9010 C   0  0  0  0  0  2  0  0  0  0  0  0
  189.3300  177.2870  138.7970 C   0  0  2  0  0  3  0  0  0  0  0  0
  183.7520  180.5030  143.5970 O   0  0  0  0  0  0  0  0  0  0  0  0
  190.1300  178.3740  142.8530 N   0  0  1  0  0  0  0  0  0  0  0  0
  192.0340  176.1060  144.7450 O   0  0  0  0  0  0  0  0  0  0  0  0
  188.7920  178.1020  143.4330 C   0  0  2  0  0  3  0  0  0  0  0  0
  189.0560  178.6960  138.2520 C   0  0  0  0  0  2  0  0  0  0  0  0
  187.2520  176.1140  137.7210 C   0  0  0  0  0  2  0  0  0  0  0  0
  188.7420  176.1550  138.0020 C   0  0  0  0  0  0  0  0  0  0  0  0
  189.5600  175.1810  137.5920 C   0  0  0  0  0  3  0  0  0  0  0  0
  189.8310  173.1310  136.4550 O   0  0  0  0  0  0  0  0  0  0  0  0
  187.6360  174.0090  136.4360 C   0  0  0  0  0  3  0  0  0  0  0  0
  189.0520  174.0510  136.8110 C   0  0  0  0  0  0  0  0  0  0  0  0
  186.8060  174.9680  136.8440 C   0  0  0  0  0  3  0  0  0  0  0  0
  188.3400  177.3530  148.0930 C   0  0  0  0  0  1  0  0  0  0  0  0
  189.2300  176.7270  147.0310 C   0  0  0  0  0  2  0  0  0  0  0  0
  1  4  1  0  0  0  0
  2 17  1  0  0  0  0
  2 24  2  0  0  0  0
  2 14  2  0  0  0  0
  3  9  1  0  0  0  0
  4 37  1  1  0  0  0
  6  9  2  0  0  0  0
  6 22  1  0  0  0  0
  7  3  1  6  0  0  0
  7 21  1  0  0  0  0
  8 26  2  0  0  0  0
  8 12  1  0  0  0  0
  9 13  1  0  0  0  0
 10  5  1  1  0  0  0
 10  7  1  0  0  0  0
 11  6  1  0  0  0  0
 12  4  1  0  0  0  0
 13 17  1  1  0  0  0
 15 28  1  0  0  0  0
 15 20  1  0  0  0  0
 16 20  1  0  0  0  0
 16 11  2  0  0  0  0
 18  8  1  1  0  0  0
 19  5  1  6  0  0  0
 19 25  1  0  0  0  0
 19 18  1  0  0  0  0
 20  3  2  0  0  0  0
 21 13  1  0  0  0  0
 21 27  1  0  0  0  0
 22  2  1  0  0  0  0
 23 10  1  0  0  0  0
 25 18  1  0  0  0  0
 25 27  1  0  0  0  0
 27  1  1  0  0  0  0
 28 23  1  0  0  0  0
 29 30  1  0  0  0  0
 30 23  1  0  0  0  0
 31 30  2  0  0  0  0
 32 34  2  0  0  0  0
 33 34  1  0  0  0  0
 33 35  2  0  0  0  0
 34 31  1  0  0  0  0
 35 29  1  0  0  0  0
 37 36  1  0  0  0  0
M  END
>  <MODEL>
4

>  <REMARK>
 VINA RESULT:      -6.9      3.391      6.260
  Name = 
  2 active torsions:
  status: ('A' for Active; 'I' for Inactive)
    1  A    between atoms: C_4  and  C_37
    2  A    between atoms: C_23  and  C_30
                            x       y       z     vdW  Elec       q    Type
                         _______ _______ _______ _____ _____    ______ ____

>  <TORSDO>
F 2

$$$$
=
 OpenBabel11122411323D

 37 44  0  0  1  0  0  0  0  0999 V2000
  188.7680  177.0700  144.6260 C   0  0  0  0  0  2  0  0  0  0  0  0
  184.1900  179.0540  143.4510 S   0  0  0  0  0  0  0  0  0  0  0  0
  186.9180  178.1780  140.2240 C   0  0  0  0  0  0  0  0  0  0  0  0
  189.4530  177.6220  145.8810 C   0  0  2  0  0  3  0  0  0  0  0  0
  190.5540  177.2120  140.8100 C   0  0  0  0  0  2  0  0  0  0  0  0
  184.5770  178.4040  140.8410 C   0  0  0  0  0  0  0  0  0  0  0  0
  188.2590  178.0480  140.8880 C   0  0  2  0  0  3  0  0  0  0  0  0
  191.5320  177.0970  144.5570 C   0  0  0  0  0  0  0  0  0  0  0  0
  185.8960  178.0540  141.1490 C   0  0  0  0  0  0  0  0  0  0  0  0
  189.1900  177.0640  140.2610 N   0  0  1  0  0  0  0  0  0  0  0  0
  184.2740  178.8020  139.5360 C   0  0  0  0  0  3  0  0  0  0  0  0
  190.9520  177.8790  145.6940 C   0  0  0  0  0  2  0  0  0  0  0  0
  186.3680  177.7520  142.5230 C   0  0  2  0  0  3  0  0  0  0  0  0
  183.6130  178.2670  144.5920 O   0  0  0  0  0  0  0  0  0  0  0  0
  187.6540  178.8420  137.8400 C   0  0  0  0  0  2  0  0  0  0  0  0
  185.2950  178.9070  138.5810 C   0  0  0  0  0  3  0  0  0  0  0  0
  185.9730  178.8950  143.4530 C   0  0  0  0  0  2  0  0  0  0  0  0
  191.4830  177.6680  143.1740 C   0  0  1  0  0  3  0  0  0  0  0  0
  190.5460  176.9790  142.3070 C   0  0  1  0  0  3  0  0  0  0  0  0
  186.6310  178.6340  138.9170 C   0  0  0  0  0  0  0  0  0  0  0  0
  187.8750  177.5760  142.3200 C   0  0  2  0  0  3  0  0  0  0  0  0
  183.5230  178.4220  141.9070 C   0  0  0  0  0  2  0  0  0  0  0  0
  189.3620  177.2210  138.8080 C   0  0  2  0  0  3  0  0  0  0  0  0
  183.8170  180.5020  143.6030 O   0  0  0  0  0  0  0  0  0  0  0  0
  190.1720  178.2990  142.8640 N   0  0  1  0  0  0  0  0  0  0  0  0
  192.0470  176.0110  144.7590 O   0  0  0  0  0  0  0  0  0  0  0  0
  188.8300  178.0430  143.4430 C   0  0  2  0  0  3  0  0  0  0  0  0
  189.1040  178.6330  138.2620 C   0  0  0  0  0  2  0  0  0  0  0  0
  189.6600  175.1350  137.2540 C   0  0  0  0  0  2  0  0  0  0  0  0
  188.7620  176.0950  138.0130 C   0  0  0  0  0  0  0  0  0  0  0  0
  187.4300  175.9940  137.9680 C   0  0  0  0  0  3  0  0  0  0  0  0
  185.5290  174.8550  137.1620 O   0  0  0  0  0  0  0  0  0  0  0  0
  187.6050  173.9140  136.5360 C   0  0  0  0  0  3  0  0  0  0  0  0
  186.7830  174.9190  137.2140 C   0  0  0  0  0  0  0  0  0  0  0  0
  188.9340  174.0050  136.5650 C   0  0  0  0  0  3  0  0  0  0  0  0
  188.3060  177.2710  148.0690 C   0  0  0  0  0  1  0  0  0  0  0  0
  189.2490  176.6640  147.0420 C   0  0  0  0  0  2  0  0  0  0  0  0
  1  4  1  0  0  0  0
  2 17  1  0  0  0  0
  2 24  2  0  0  0  0
  2 14  2  0  0  0  0
  3  9  1  0  0  0  0
  4 37  1  1  0  0  0
  6  9  2  0  0  0  0
  6 22  1  0  0  0  0
  7  3  1  6  0  0  0
  7 21  1  0  0  0  0
  8 26  2  0  0  0  0
  8 12  1  0  0  0  0
  9 13  1  0  0  0  0
 10  5  1  1  0  0  0
 10  7  1  0  0  0  0
 11  6  1  0  0  0  0
 12  4  1  0  0  0  0
 13 17  1  1  0  0  0
 15 28  1  0  0  0  0
 15 20  1  0  0  0  0
 16 20  1  0  0  0  0
 16 11  2  0  0  0  0
 18  8  1  1  0  0  0
 19  5  1  6  0  0  0
 19 25  1  0  0  0  0
 19 18  1  0  0  0  0
 20  3  2  0  0  0  0
 21 13  1  0  0  0  0
 21 27  1  0  0  0  0
 22  2  1  0  0  0  0
 23 10  1  0  0  0  0
 25 18  1  0  0  0  0
 25 27  1  0  0  0  0
 27  1  1  0  0  0  0
 28 23  1  0  0  0  0
 29 30  1  0  0  0  0
 30 23  1  0  0  0  0
 31 30  2  0  0  0  0
 32 34  2  0  0  0  0
 33 35  2  0  0  0  0
 33 34  1  0  0  0  0
 34 31  1  0  0  0  0
 35 29  1  0  0  0  0
 37 36  1  0  0  0  0
M  END
>  <MODEL>
5

>  <REMARK>
 VINA RESULT:      -6.8      3.338      6.248
  Name = 
  2 active torsions:
  status: ('A' for Active; 'I' for Inactive)
    1  A    between atoms: C_4  and  C_37
    2  A    between atoms: C_23  and  C_30
                            x       y       z     vdW  Elec       q    Type
                         _______ _______ _______ _____ _____    ______ ____

>  <TORSDO>
F 2

$$$$
=
 OpenBabel11122411323D

 37 44  0  0  1  0  0  0  0  0999 V2000
  187.4380  177.7100  140.1250 C   0  0  0  0  0  2  0  0  0  0  0  0
  184.8340  179.4330  144.1910 S   0  0  0  0  0  0  0  0  0  0  0  0
  182.6280  178.5260  140.5950 C   0  0  0  0  0  0  0  0  0  0  0  0
  188.8060  178.3500  139.8650 C   0  0  2  0  0  3  0  0  0  0  0  0
  184.3300  177.7490  137.2780 C   0  0  0  0  0  2  0  0  0  0  0  0
  182.5020  178.6780  143.0180 C   0  0  0  0  0  0  0  0  0  0  0  0
  183.6690  178.4860  139.5120 C   0  0  2  0  0  3  0  0  0  0  0  0
  188.1970  177.8550  137.4700 C   0  0  0  0  0  0  0  0  0  0  0  0
  183.2100  178.4010  141.8440 C   0  0  0  0  0  0  0  0  0  0  0  0
  183.4070  177.5160  138.4090 N   0  0  1  0  0  0  0  0  0  0  0  0
  181.1450  178.9990  142.9250 C   0  0  0  0  0  3  0  0  0  0  0  0
  189.0610  178.6640  138.3880 C   0  0  0  0  0  2  0  0  0  0  0  0
  184.6770  178.1860  141.7980 C   0  0  2  0  0  3  0  0  0  0  0  0
  185.7940  178.6760  145.0620 O   0  0  0  0  0  0  0  0  0  0  0  0
  180.5380  179.1080  139.1940 C   0  0  0  0  0  2  0  0  0  0  0  0
  180.5350  179.1040  141.6670 C   0  0  0  0  0  3  0  0  0  0  0  0
  185.3780  179.3520  142.4870 C   0  0  0  0  0  2  0  0  0  0  0  0
  186.8320  178.3570  137.1170 C   0  0  1  0  0  3  0  0  0  0  0  0
  185.7670  177.5870  137.7300 C   0  0  1  0  0  3  0  0  0  0  0  0
  181.2700  178.9060  140.4870 C   0  0  0  0  0  0  0  0  0  0  0  0
  184.9450  178.0670  140.2960 C   0  0  2  0  0  3  0  0  0  0  0  0
  183.2010  178.6990  144.3440 C   0  0  0  0  0  2  0  0  0  0  0  0
  182.0660  177.6110  137.8120 C   0  0  2  0  0  3  0  0  0  0  0  0
  184.7820  180.8680  144.6310 O   0  0  0  0  0  0  0  0  0  0  0  0
  186.1080  178.9150  138.2910 N   0  0  1  0  0  0  0  0  0  0  0  0
  188.6070  176.8030  137.0100 O   0  0  0  0  0  0  0  0  0  0  0  0
  186.2730  178.6280  139.7380 C   0  0  2  0  0  3  0  0  0  0  0  0
  181.3860  178.9830  137.9320 C   0  0  0  0  0  2  0  0  0  0  0  0
  181.1890  175.8160  139.5040 C   0  0  0  0  0  2  0  0  0  0  0  0
  181.1950  176.4240  138.1130 C   0  0  0  0  0  0  0  0  0  0  0  0
  180.4670  175.9070  137.1190 C   0  0  0  0  0  3  0  0  0  0  0  0
  178.9370  174.2640  136.3930 O   0  0  0  0  0  0  0  0  0  0  0  0
  179.4850  174.1830  138.6920 C   0  0  0  0  0  3  0  0  0  0  0  0
  179.5950  174.7520  137.3460 C   0  0  0  0  0  0  0  0  0  0  0  0
  180.2110  174.6820  139.6920 C   0  0  0  0  0  3  0  0  0  0  0  0
  189.6560  177.0820  141.8390 C   0  0  0  0  0  1  0  0  0  0  0  0
  189.9070  177.4400  140.3830 C   0  0  0  0  0  2  0  0  0  0  0  0
  2 22  1  0  0  0  0
  2 24  2  0  0  0  0
  2 14  2  0  0  0  0
  3  9  1  0  0  0  0
  4  1  1  0  0  0  0
  4 37  1  6  0  0  0
  6 22  1  0  0  0  0
  7 21  1  0  0  0  0
  7  3  1  1  0  0  0
  8 12  1  0  0  0  0
  9  6  2  0  0  0  0
 10  5  1  6  0  0  0
 10  7  1  0  0  0  0
 11  6  1  0  0  0  0
 12  4  1  0  0  0  0
 13  9  1  0  0  0  0
 13 17  1  6  0  0  0
 15 20  1  0  0  0  0
 16 11  2  0  0  0  0
 17  2  1  0  0  0  0
 18  8  1  1  0  0  0
 18 19  1  0  0  0  0
 18 25  1  0  0  0  0
 19  5  1  6  0  0  0
 19 25  1  0  0  0  0
 20  3  2  0  0  0  0
 20 16  1  0  0  0  0
 21 13  1  0  0  0  0
 23 28  1  0  0  0  0
 23 30  1  0  0  0  0
 23 10  1  0  0  0  0
 25 27  1  0  0  0  0
 26  8  2  0  0  0  0
 27  1  1  0  0  0  0
 27 21  1  0  0  0  0
 28 15  1  0  0  0  0
 29 35  1  0  0  0  0
 30 29  1  0  0  0  0
 31 34  1  0  0  0  0
 31 30  2  0  0  0  0
 32 34  2  0  0  0  0
 33 35  2  0  0  0  0
 34 33  1  0  0  0  0
 37 36  1  0  0  0  0
M  END
>  <MODEL>
6

>  <REMARK>
 VINA RESULT:      -6.7      4.320      6.332
  Name = 
  2 active torsions:
  status: ('A' for Active; 'I' for Inactive)
    1  A    between atoms: C_4  and  C_37
    2  A    between atoms: C_23  and  C_30
                            x       y       z     vdW  Elec       q    Type
                         _______ _______ _______ _____ _____    ______ ____

>  <TORSDO>
F 2

$$$$
=
 OpenBabel11122411323D

 37 44  0  0  1  0  0  0  0  0999 V2000
  183.8020  178.0920  141.5030 C   0  0  0  0  0  2  0  0  0  0  0  0
  181.6750  178.1830  136.8390 S   0  0  0  0  0  0  0  0  0  0  0  0
  185.9660  177.8120  137.1130 C   0  0  0  0  0  0  0  0  0  0  0  0
  183.1960  179.0300  142.5510 C   0  0  2  0  0  3  0  0  0  0  0  0
  187.8640  178.2520  140.3860 C   0  0  0  0  0  2  0  0  0  0  0  0
  184.0120  177.3140  135.7560 C   0  0  0  0  0  0  0  0  0  0  0  0
  186.2950  178.2530  138.5120 C   0  0  2  0  0  3  0  0  0  0  0  0
  185.5680  179.0530  143.4010 C   0  0  0  0  0  0  0  0  0  0  0  0
  184.6260  177.4890  137.0010 C   0  0  0  0  0  0  0  0  0  0  0  0
  187.4600  177.5640  139.1410 N   0  0  1  0  0  0  0  0  0  0  0  0
  184.7980  177.3800  134.6030 C   0  0  0  0  0  3  0  0  0  0  0  0
  184.2440  179.7530  143.4020 C   0  0  0  0  0  2  0  0  0  0  0  0
  183.8810  177.5810  138.2800 C   0  0  2  0  0  3  0  0  0  0  0  0
  180.5100  177.4300  137.4120 O   0  0  0  0  0  0  0  0  0  0  0  0
  188.2100  178.3160  135.9390 C   0  0  0  0  0  2  0  0  0  0  0  0
  186.1640  177.6810  134.7040 C   0  0  0  0  0  3  0  0  0  0  0  0
  182.7970  178.6470  138.1560 C   0  0  0  0  0  2  0  0  0  0  0  0
  186.5550  179.3540  142.3170 C   0  0  1  0  0  3  0  0  0  0  0  0
  186.7180  178.2620  141.3770 C   0  0  1  0  0  3  0  0  0  0  0  0
  186.7590  177.9370  135.9490 C   0  0  0  0  0  0  0  0  0  0  0  0
  184.9910  177.9030  139.2830 C   0  0  2  0  0  3  0  0  0  0  0  0
  182.5270  177.1320  135.6560 C   0  0  0  0  0  2  0  0  0  0  0  0
  188.6800  177.5460  138.3210 C   0  0  2  0  0  3  0  0  0  0  0  0
  181.1810  179.4200  136.1460 O   0  0  0  0  0  0  0  0  0  0  0  0
  185.9190  179.4430  140.9750 N   0  0  1  0  0  0  0  0  0  0  0  0
  185.8400  178.2530  144.2800 O   0  0  0  0  0  0  0  0  0  0  0  0
  184.6620  178.8340  140.4730 C   0  0  2  0  0  3  0  0  0  0  0  0
  188.8030  178.6830  137.2950 C   0  0  0  0  0  2  0  0  0  0  0  0
  187.9500  175.2050  137.4030 C   0  0  0  0  0  2  0  0  0  0  0  0
  189.0410  176.1750  137.8190 C   0  0  0  0  0  0  0  0  0  0  0  0
  190.3320  175.8340  137.7890 C   0  0  0  0  0  3  0  0  0  0  0  0
  191.9680  174.2020  137.3120 O   0  0  0  0  0  0  0  0  0  0  0  0
  189.7440  173.5730  136.8130 C   0  0  0  0  0  3  0  0  0  0  0  0
  190.7500  174.5150  137.3090 C   0  0  0  0  0  0  0  0  0  0  0  0
  188.4510  173.8960  136.8430 C   0  0  0  0  0  3  0  0  0  0  0  0
  180.9180  178.9520  143.5680 C   0  0  0  0  0  1  0  0  0  0  0  0
  182.2620  178.2500  143.4620 C   0  0  0  0  0  2  0  0  0  0  0  0
  1  4  1  0  0  0  0
  2 14  2  0  0  0  0
  2 17  1  0  0  0  0
  4 12  1  0  0  0  0
  4 37  1  1  0  0  0
  6  9  2  0  0  0  0
  7  3  1  6  0  0  0
  7 10  1  0  0  0  0
  7 21  1  0  0  0  0
  8 12  1  0  0  0  0
  8 26  2  0  0  0  0
  9  3  1  0  0  0  0
  9 13  1  0  0  0  0
 10  5  1  1  0  0  0
 11 16  2  0  0  0  0
 11  6  1  0  0  0  0
 13 17  1  6  0  0  0
 13 21  1  0  0  0  0
 15 20  1  0  0  0  0
 15 28  1  0  0  0  0
 16 20  1  0  0  0  0
 18  8  1  1  0  0  0
 19  5  1  6  0  0  0
 19 18  1  0  0  0  0
 20  3  2  0  0  0  0
 21 27  1  0  0  0  0
 22  6  1  0  0  0  0
 22  2  1  0  0  0  0
 23 10  1  0  0  0  0
 24  2  2  0  0  0  0
 25 19  1  0  0  0  0
 25 18  1  0  0  0  0
 27 25  1  0  0  0  0
 27  1  1  0  0  0  0
 28 23  1  0  0  0  0
 29 30  1  0  0  0  0
 30 23  1  0  0  0  0
 31 30  2  0  0  0  0
 33 35  2  0  0  0  0
 33 34  1  0  0  0  0
 34 32  2  0  0  0  0
 34 31  1  0  0  0  0
 35 29  1  0  0  0  0
 37 36  1  0  0  0  0
M  END
>  <MODEL>
7

>  <REMARK>
 VINA RESULT:      -6.7      3.825      8.397
  Name = 
  2 active torsions:
  status: ('A' for Active; 'I' for Inactive)
    1  A    between atoms: C_4  and  C_37
    2  A    between atoms: C_23  and  C_30
                            x       y       z     vdW  Elec       q    Type
                         _______ _______ _______ _____ _____    ______ ____

>  <TORSDO>
F 2

$$$$
=
 OpenBabel11122411323D

 37 44  0  0  1  0  0  0  0  0999 V2000
  189.0720  177.0670  142.4530 C   0  0  0  0  0  2  0  0  0  0  0  0
  185.6000  178.6770  145.8640 S   0  0  0  0  0  0  0  0  0  0  0  0
  184.4870  178.6270  141.6960 C   0  0  0  0  0  0  0  0  0  0  0  0
  190.5230  177.4920  142.6990 C   0  0  2  0  0  3  0  0  0  0  0  0
  186.9990  178.0000  138.9030 C   0  0  0  0  0  2  0  0  0  0  0  0
  183.6550  178.4880  143.9760 C   0  0  0  0  0  0  0  0  0  0  0  0
  185.7920  178.5480  140.9560 C   0  0  2  0  0  3  0  0  0  0  0  0
  190.6080  177.4180  140.1810 C   0  0  0  0  0  0  0  0  0  0  0  0
  184.6440  178.2460  143.0160 C   0  0  0  0  0  0  0  0  0  0  0  0
  185.7560  177.7850  139.6740 N   0  0  1  0  0  0  0  0  0  0  0  0
  182.4420  179.0450  143.5650 C   0  0  0  0  0  3  0  0  0  0  0  0
  191.2500  177.9430  141.4280 C   0  0  0  0  0  2  0  0  0  0  0  0
  186.0170  177.7910  143.3460 C   0  0  2  0  0  3  0  0  0  0  0  0
  186.1490  177.6620  146.8250 O   0  0  0  0  0  0  0  0  0  0  0  0
  183.0080  179.7310  139.8890 C   0  0  0  0  0  2  0  0  0  0  0  0
  182.2580  179.4120  142.2240 C   0  0  0  0  0  3  0  0  0  0  0  0
  186.6190  178.7230  144.3920 C   0  0  0  0  0  2  0  0  0  0  0  0
  189.4890  178.1870  139.5530 C   0  0  1  0  0  3  0  0  0  0  0  0
  188.2000  177.5390  139.7030 C   0  0  1  0  0  3  0  0  0  0  0  0
  183.2840  179.2440  141.2810 C   0  0  0  0  0  0  0  0  0  0  0  0
  186.7080  177.8200  141.9810 C   0  0  2  0  0  3  0  0  0  0  0  0
  183.9180  178.2200  145.4280 C   0  0  0  0  0  2  0  0  0  0  0  0
  184.6810  178.1830  138.7520 C   0  0  2  0  0  3  0  0  0  0  0  0
  185.5990  180.0320  146.5130 O   0  0  0  0  0  0  0  0  0  0  0  0
  188.5200  178.7060  140.5570 N   0  0  1  0  0  0  0  0  0  0  0  0
  191.0030  176.3790  139.6800 O   0  0  0  0  0  0  0  0  0  0  0  0
  188.2030  178.2120  141.9200 C   0  0  2  0  0  3  0  0  0  0  0  0
  184.1750  179.6250  138.9130 C   0  0  0  0  0  2  0  0  0  0  0  0
  183.7390  176.0880  137.4960 C   0  0  0  0  0  2  0  0  0  0  0  0
  183.6170  177.1340  138.5900 C   0  0  0  0  0  0  0  0  0  0  0  0
  182.5590  177.1770  139.4040 C   0  0  0  0  0  3  0  0  0  0  0  0
  180.4880  176.2540  140.0570 O   0  0  0  0  0  0  0  0  0  0  0  0
  181.6010  175.0990  138.3200 C   0  0  0  0  0  3  0  0  0  0  0  0
  181.4890  176.1820  139.3000 C   0  0  0  0  0  0  0  0  0  0  0  0
  182.6460  175.0470  137.4950 C   0  0  0  0  0  3  0  0  0  0  0  0
  191.2880  176.4900  144.8520 C   0  0  0  0  0  1  0  0  0  0  0  0
  191.2930  176.3490  143.3380 C   0  0  0  0  0  2  0  0  0  0  0  0
  1  4  1  0  0  0  0
  2 24  2  0  0  0  0
  2 14  2  0  0  0  0
  3  9  1  0  0  0  0
  4 37  1  6  0  0  0
  6 22  1  0  0  0  0
  7  3  1  1  0  0  0
  7 21  1  0  0  0  0
  8 12  1  0  0  0  0
  9 13  1  0  0  0  0
  9  6  2  0  0  0  0
 10  5  1  6  0  0  0
 10  7  1  0  0  0  0
 11  6  1  0  0  0  0
 12  4  1  0  0  0  0
 13 17  1  1  0  0  0
 15 20  1  0  0  0  0
 16 11  2  0  0  0  0
 17  2  1  0  0  0  0
 18 19  1  0  0  0  0
 18  8  1  1  0  0  0
 18 25  1  0  0  0  0
 19  5  1  6  0  0  0
 19 25  1  0  0  0  0
 20  3  2  0  0  0  0
 20 16  1  0  0  0  0
 21 13  1  0  0  0  0
 22  2  1  0  0  0  0
 23 28  1  0  0  0  0
 23 10  1  0  0  0  0
 25 27  1  0  0  0  0
 26  8  2  0  0  0  0
 27 21  1  0  0  0  0
 27  1  1  0  0  0  0
 28 15  1  0  0  0  0
 29 30  1  0  0  0  0
 30 23  1  0  0  0  0
 30 31  2  0  0  0  0
 33 34  1  0  0  0  0
 34 31  1  0  0  0  0
 34 32  2  0  0  0  0
 35 29  1  0  0  0  0
 35 33  2  0  0  0  0
 37 36  1  0  0  0  0
M  END
>  <MODEL>
8

>  <REMARK>
 VINA RESULT:      -5.8      3.846      5.536
  Name = 
  2 active torsions:
  status: ('A' for Active; 'I' for Inactive)
    1  A    between atoms: C_4  and  C_37
    2  A    between atoms: C_23  and  C_30
                            x       y       z     vdW  Elec       q    Type
                         _______ _______ _______ _____ _____    ______ ____

>  <TORSDO>
F 2

$$$$
=
 OpenBabel11122411323D

 37 44  0  0  1  0  0  0  0  0999 V2000
  184.4430  178.0950  141.6890 C   0  0  0  0  0  2  0  0  0  0  0  0
  180.4760  178.5440  138.4740 S   0  0  0  0  0  0  0  0  0  0  0  0
  184.3220  177.4880  136.8260 C   0  0  0  0  0  0  0  0  0  0  0  0
  184.5190  179.1140  142.8310 C   0  0  2  0  0  3  0  0  0  0  0  0
  187.5360  177.6050  138.8670 C   0  0  0  0  0  2  0  0  0  0  0  0
  181.9160  177.3160  136.5240 C   0  0  0  0  0  0  0  0  0  0  0  0
  185.3080  177.8650  137.8960 C   0  0  2  0  0  3  0  0  0  0  0  0
  186.9940  178.7530  142.5260 C   0  0  0  0  0  0  0  0  0  0  0  0
  183.0450  177.3840  137.3480 C   0  0  0  0  0  0  0  0  0  0  0  0
  186.5180  176.9950  137.9850 N   0  0  1  0  0  0  0  0  0  0  0  0
  182.0970  177.2580  135.1390 C   0  0  0  0  0  3  0  0  0  0  0  0
  185.9310  179.6560  143.0710 C   0  0  0  0  0  2  0  0  0  0  0  0
  182.9810  177.5900  138.8150 C   0  0  2  0  0  3  0  0  0  0  0  0
  179.6000  177.9860  139.5580 O   0  0  0  0  0  0  0  0  0  0  0  0
  185.8390  177.6300  134.7420 C   0  0  0  0  0  2  0  0  0  0  0  0
  183.3880  177.3360  134.5980 C   0  0  0  0  0  3  0  0  0  0  0  0
  182.1250  178.8170  139.1150 C   0  0  0  0  0  2  0  0  0  0  0  0
  187.4170  178.8960  141.0980 C   0  0  1  0  0  3  0  0  0  0  0  0
  186.9770  177.7950  140.2620 C   0  0  1  0  0  3  0  0  0  0  0  0
  184.5120  177.4880  135.4250 C   0  0  0  0  0  0  0  0  0  0  0  0
  184.4580  177.7260  139.1910 C   0  0  2  0  0  3  0  0  0  0  0  0
  180.5380  177.3750  137.1100 C   0  0  0  0  0  2  0  0  0  0  0  0
  187.2180  176.7850  136.7090 C   0  0  2  0  0  3  0  0  0  0  0  0
  179.9060  179.8470  137.9900 O   0  0  0  0  0  0  0  0  0  0  0  0
  186.2630  179.0910  140.1790 N   0  0  1  0  0  0  0  0  0  0  0  0
  187.5160  177.9170  143.2450 O   0  0  0  0  0  0  0  0  0  0  0  0
  184.8420  178.6930  140.3360 C   0  0  2  0  0  3  0  0  0  0  0  0
  187.0270  177.8920  135.6610 C   0  0  0  0  0  2  0  0  0  0  0  0
  187.9030  174.9470  134.9750 C   0  0  0  0  0  2  0  0  0  0  0  0
  187.1100  175.3770  136.1960 C   0  0  0  0  0  0  0  0  0  0  0  0
  186.2750  174.5400  136.8190 C   0  0  0  0  0  3  0  0  0  0  0  0
  185.3160  172.3890  136.9540 O   0  0  0  0  0  0  0  0  0  0  0  0
  186.9340  172.6640  135.2520 C   0  0  0  0  0  3  0  0  0  0  0  0
  186.1250  173.1540  136.3710 C   0  0  0  0  0  0  0  0  0  0  0  0
  187.7660  173.4880  134.6150 C   0  0  0  0  0  3  0  0  0  0  0  0
  184.7770  179.0110  145.3100 C   0  0  0  0  0  1  0  0  0  0  0  0
  183.9960  178.4900  144.1140 C   0  0  0  0  0  2  0  0  0  0  0  0
  1  4  1  0  0  0  0
  2 17  1  0  0  0  0
  2 14  2  0  0  0  0
  3  9  1  0  0  0  0
  4 12  1  0  0  0  0
  4 37  1  1  0  0  0
  6 22  1  0  0  0  0
  6  9  2  0  0  0  0
  7  3  1  6  0  0  0
  7 10  1  0  0  0  0
  7 21  1  0  0  0  0
  8 12  1  0  0  0  0
  8 26  2  0  0  0  0
  9 13  1  0  0  0  0
 10  5  1  1  0  0  0
 11  6  1  0  0  0  0
 13 17  1  6  0  0  0
 13 21  1  0  0  0  0
 15 20  1  0  0  0  0
 15 28  1  0  0  0  0
 16 11  2  0  0  0  0
 16 20  1  0  0  0  0
 18  8  1  1  0  0  0
 19  5  1  6  0  0  0
 19 18  1  0  0  0  0
 20  3  2  0  0  0  0
 21 27  1  0  0  0  0
 22  2  1  0  0  0  0
 23 10  1  0  0  0  0
 24  2  2  0  0  0  0
 25 19  1  0  0  0  0
 25 27  1  0  0  0  0
 25 18  1  0  0  0  0
 27  1  1  0  0  0  0
 28 23  1  0  0  0  0
 29 30  1  0  0  0  0
 30 23  1  0  0  0  0
 30 31  2  0  0  0  0
 33 34  1  0  0  0  0
 34 31  1  0  0  0  0
 34 32  2  0  0  0  0
 35 29  1  0  0  0  0
 35 33  2  0  0  0  0
 37 36  1  0  0  0  0
M  END
>  <MODEL>
9

>  <REMARK>
 VINA RESULT:      -5.4      4.450      7.875
  Name = 
  2 active torsions:
  status: ('A' for Active; 'I' for Inactive)
    1  A    between atoms: C_4  and  C_37
    2  A    between atoms: C_23  and  C_30
                            x       y       z     vdW  Elec       q    Type
                         _______ _______ _______ _____ _____    ______ ____

>  <TORSDO>
F 2

$$$$
