=
 OpenBabel11122410343D

 30 35  0  0  1  0  0  0  0  0999 V2000
  187.1220  177.6570  142.5820 C   0  0  2  0  0  3  0  0  0  0  0  0
  185.1520  179.2460  142.2500 C   0  0  0  0  0  0  0  0  0  0  0  0
  186.1630  177.6310  146.6610 O   0  0  0  0  0  0  0  0  0  0  0  0
  188.1130  177.3260  143.7120 C   0  0  2  0  0  3  0  0  0  0  0  0
  187.8070  178.4410  141.6250 O   0  0  0  0  0  0  0  0  0  0  0  0
  190.9660  177.1940  141.6520 O   0  0  0  0  0  0  0  0  0  0  0  0
  190.7350  177.2000  145.1300 C   0  0  1  0  0  3  0  0  0  0  0  0
  189.7710  177.1090  141.8970 C   0  0  0  0  0  0  0  0  0  0  0  0
  189.6250  177.7840  146.0310 C   0  0  2  0  0  3  0  0  0  0  0  0
  187.4120  177.4250  147.1980 C   0  0  0  0  0  0  0  0  0  0  0  0
  188.7170  177.6100  140.9370 C   0  0  2  0  0  3  0  0  0  0  0  0
  189.2480  176.4600  143.1520 C   0  0  1  0  0  3  0  0  0  0  0  0
  184.0260  179.9130  142.7380 C   0  0  0  0  0  3  0  0  0  0  0  0
  190.3230  178.0860  147.3450 C   0  0  0  0  0  2  0  0  0  0  0  0
  191.8660  176.7610  146.0510 C   0  0  0  0  0  2  0  0  0  0  0  0
  185.4940  179.4220  140.9130 O   0  0  0  0  0  1  0  0  0  0  0  0
  186.0840  177.1620  145.3280 C   0  0  2  0  0  3  0  0  0  0  0  0
  183.6120  179.7270  144.0530 C   0  0  0  0  0  3  0  0  0  0  0  0
  185.9090  178.4030  143.0990 C   0  0  0  0  0  0  0  0  0  0  0  0
  187.5050  176.6780  144.9610 C   0  0  2  0  0  3  0  0  0  0  0  0
  187.6650  177.6490  148.4110 O   0  0  0  0  0  0  0  0  0  0  0  0
  188.3880  176.8550  146.2320 C   0  0  1  0  0  3  0  0  0  0  0  0
  191.4300  177.0660  147.4680 C   0  0  0  0  0  2  0  0  0  0  0  0
  191.3790  175.3960  143.6290 O   0  0  0  0  0  1  0  0  0  0  0  0
  184.3150  178.8570  144.8840 C   0  0  0  0  0  3  0  0  0  0  0  0
  185.4590  178.1920  144.4240 C   0  0  0  0  0  0  0  0  0  0  0  0
  190.2900  176.0500  144.2120 C   0  0  1  0  0  3  0  0  0  0  0  0
  189.3210  178.3690  139.7640 C   0  0  0  0  0  2  0  0  0  0  0  0
  188.6620  179.3660  137.7100 O   0  0  0  0  0  1  0  0  0  0  0  0
  188.4010  178.2940  138.5610 C   0  0  0  0  0  2  0  0  0  0  0  0
  1  5  1  6  0  0  0
  1 19  1  0  0  0  0
  1  4  1  0  0  0  0
  2 13  2  0  0  0  0
  2 19  1  0  0  0  0
  3 10  1  0  0  0  0
  4 20  1  0  0  0  0
  6  8  2  0  0  0  0
  7  9  1  0  0  0  0
  7 15  1  0  0  0  0
  8 12  1  0  0  0  0
  9 22  1  0  0  0  0
  9 14  1  0  0  0  0
 10 21  2  0  0  0  0
 11  5  1  0  0  0  0
 11  8  1  0  0  0  0
 12  4  1  0  0  0  0
 12 27  1  0  0  0  0
 13 18  1  0  0  0  0
 14 23  1  0  0  0  0
 15 23  1  0  0  0  0
 16  2  1  0  0  0  0
 17  3  1  0  0  0  0
 18 25  2  0  0  0  0
 19 26  2  0  0  0  0
 20 17  1  0  0  0  0
 20 22  1  0  0  0  0
 22 10  1  0  0  0  0
 24 27  1  0  0  0  0
 26 25  1  0  0  0  0
 26 17  1  0  0  0  0
 27  7  1  0  0  0  0
 28 11  1  0  0  0  0
 29 30  1  0  0  0  0
 30 28  1  0  0  0  0
M  END
>  <MODEL>
1

>  <REMARK>
 VINA RESULT:      -9.4      0.000      0.000
  Name = 
  2 active torsions:
  status: ('A' for Active; 'I' for Inactive)
    1  A    between atoms: C_11  and  C_28
    2  A    between atoms: C_28  and  C_30
                            x       y       z     vdW  Elec       q    Type
                         _______ _______ _______ _____ _____    ______ ____

>  <TORSDO>
F 2

$$$$
=
 OpenBabel11122410343D

 30 35  0  0  1  0  0  0  0  0999 V2000
  183.4330  179.0320  141.5080 C   0  0  2  0  0  3  0  0  0  0  0  0
  182.4660  178.1770  139.3070 C   0  0  0  0  0  0  0  0  0  0  0  0
  187.2260  178.1530  139.9600 O   0  0  0  0  0  0  0  0  0  0  0  0
  184.6850  178.7580  142.3610 C   0  0  2  0  0  3  0  0  0  0  0  0
  182.3360  178.4000  142.1390 O   0  0  0  0  0  0  0  0  0  0  0  0
  183.0020  178.7150  145.4540 O   0  0  0  0  0  0  0  0  0  0  0  0
  186.2730  177.7870  144.6920 C   0  0  1  0  0  3  0  0  0  0  0  0
  183.1660  179.0380  144.2850 C   0  0  0  0  0  0  0  0  0  0  0  0
  186.8560  177.2830  143.3520 C   0  0  2  0  0  3  0  0  0  0  0  0
  187.8980  177.8640  141.1250 C   0  0  0  0  0  0  0  0  0  0  0  0
  182.0170  179.1230  143.3080 C   0  0  2  0  0  3  0  0  0  0  0  0
  184.5150  179.4190  143.7350 C   0  0  1  0  0  3  0  0  0  0  0  0
  182.6300  177.7180  137.9980 C   0  0  0  0  0  3  0  0  0  0  0  0
  188.0610  176.4500  143.7520 C   0  0  0  0  0  2  0  0  0  0  0  0
  187.3730  177.6340  145.7360 C   0  0  0  0  0  2  0  0  0  0  0  0
  181.1720  178.3030  139.8030 O   0  0  0  0  0  1  0  0  0  0  0  0
  186.1050  178.9840  140.1960 C   0  0  2  0  0  3  0  0  0  0  0  0
  183.9000  177.6260  137.4380 C   0  0  0  0  0  3  0  0  0  0  0  0
  183.5940  178.5160  140.0930 C   0  0  0  0  0  0  0  0  0  0  0  0
  186.0210  179.1620  141.7280 C   0  0  2  0  0  3  0  0  0  0  0  0
  188.9960  177.2480  141.1290 O   0  0  0  0  0  0  0  0  0  0  0  0
  187.2390  178.4070  142.3410 C   0  0  1  0  0  3  0  0  0  0  0  0
  188.5830  177.0660  145.0280 C   0  0  0  0  0  2  0  0  0  0  0  0
  185.4680  179.7070  145.9510 O   0  0  0  0  0  1  0  0  0  0  0  0
  185.0140  178.0090  138.1810 C   0  0  0  0  0  3  0  0  0  0  0  0
  184.8780  178.4530  139.5030 C   0  0  0  0  0  0  0  0  0  0  0  0
  185.7300  179.2240  144.6650 C   0  0  1  0  0  3  0  0  0  0  0  0
  180.7170  178.5970  143.9000 C   0  0  0  0  0  2  0  0  0  0  0  0
  180.0590  180.6540  142.9090 O   0  0  0  0  0  1  0  0  0  0  0  0
  179.5640  179.5060  143.5240 C   0  0  0  0  0  2  0  0  0  0  0  0
  1 19  1  6  0  0  0
  1  5  1  0  0  0  0
  1  4  1  0  0  0  0
  2 16  1  0  0  0  0
  2 19  1  0  0  0  0
  3 17  1  0  0  0  0
  3 10  1  0  0  0  0
  4 12  1  0  0  0  0
  5 11  1  0  0  0  0
  7 15  1  0  0  0  0
  8  6  2  0  0  0  0
  9 14  1  0  0  0  0
  9  7  1  0  0  0  0
 10 21  2  0  0  0  0
 10 22  1  0  0  0  0
 11 28  1  0  0  0  0
 11  8  1  0  0  0  0
 12  8  1  0  0  0  0
 12 27  1  0  0  0  0
 13  2  2  0  0  0  0
 14 23  1  0  0  0  0
 17 20  1  0  0  0  0
 18 13  1  0  0  0  0
 18 25  2  0  0  0  0
 20 22  1  0  0  0  0
 20  4  1  0  0  0  0
 22  9  1  0  0  0  0
 23 15  1  0  0  0  0
 25 26  1  0  0  0  0
 26 19  2  0  0  0  0
 26 17  1  0  0  0  0
 27  7  1  0  0  0  0
 27 24  1  0  0  0  0
 29 30  1  0  0  0  0
 30 28  1  0  0  0  0
M  END
>  <MODEL>
2

>  <REMARK>
 VINA RESULT:      -9.3      2.799      6.235
  Name = 
  2 active torsions:
  status: ('A' for Active; 'I' for Inactive)
    1  A    between atoms: C_11  and  C_28
    2  A    between atoms: C_28  and  C_30
                            x       y       z     vdW  Elec       q    Type
                         _______ _______ _______ _____ _____    ______ ____

>  <TORSDO>
F 2

$$$$
=
 OpenBabel11122410343D

 30 35  0  0  1  0  0  0  0  0999 V2000
  187.0210  178.4480  142.9060 C   0  0  2  0  0  3  0  0  0  0  0  0
  187.3230  177.7100  145.3300 C   0  0  0  0  0  0  0  0  0  0  0  0
  182.9830  179.1060  143.8110 O   0  0  0  0  0  0  0  0  0  0  0  0
  185.8810  178.4520  141.8720 C   0  0  2  0  0  3  0  0  0  0  0  0
  187.9080  177.4010  142.5640 O   0  0  0  0  0  0  0  0  0  0  0  0
  187.8530  177.3530  139.1690 O   0  0  0  0  0  0  0  0  0  0  0  0
  184.3900  177.6650  139.4100 C   0  0  1  0  0  3  0  0  0  0  0  0
  187.6520  177.9020  140.2430 C   0  0  0  0  0  0  0  0  0  0  0  0
  183.4930  177.6080  140.6660 C   0  0  2  0  0  3  0  0  0  0  0  0
  182.4200  178.8580  142.5820 C   0  0  0  0  0  0  0  0  0  0  0  0
  188.6140  177.7770  141.4010 C   0  0  2  0  0  3  0  0  0  0  0  0
  186.4540  178.7830  140.4880 C   0  0  1  0  0  3  0  0  0  0  0  0
  186.8330  177.5550  146.6290 C   0  0  0  0  0  3  0  0  0  0  0  0
  182.1410  177.1510  140.1450 C   0  0  0  0  0  2  0  0  0  0  0  0
  183.4600  177.7010  138.2040 C   0  0  0  0  0  2  0  0  0  0  0  0
  188.6350  177.3300  145.0720 O   0  0  0  0  0  1  0  0  0  0  0  0
  184.3430  179.4820  143.6960 C   0  0  2  0  0  3  0  0  0  0  0  0
  185.5440  177.9710  146.9500 C   0  0  0  0  0  3  0  0  0  0  0  0
  186.5000  178.2560  144.3150 C   0  0  0  0  0  0  0  0  0  0  0  0
  184.6920  179.3630  142.1960 C   0  0  2  0  0  3  0  0  0  0  0  0
  181.1880  178.6340  142.4420 O   0  0  0  0  0  0  0  0  0  0  0  0
  183.3850  178.9480  141.4560 C   0  0  1  0  0  3  0  0  0  0  0  0
  182.0430  177.6790  138.7330 C   0  0  0  0  0  2  0  0  0  0  0  0
  185.9720  178.9860  138.1150 O   0  0  0  0  0  1  0  0  0  0  0  0
  184.7440  178.5610  145.9750 C   0  0  0  0  0  3  0  0  0  0  0  0
  185.2040  178.7090  144.6600 C   0  0  0  0  0  0  0  0  0  0  0  0
  185.3870  178.8350  139.3760 C   0  0  1  0  0  3  0  0  0  0  0  0
  189.7210  176.7700  141.1240 C   0  0  0  0  0  2  0  0  0  0  0  0
  190.3770  175.2630  142.8400 O   0  0  0  0  0  1  0  0  0  0  0  0
  190.5630  176.5600  142.3670 C   0  0  0  0  0  2  0  0  0  0  0  0
  1  5  1  6  0  0  0
  1 19  1  0  0  0  0
  2 13  1  0  0  0  0
  4 20  1  0  0  0  0
  4  1  1  0  0  0  0
  6  8  2  0  0  0  0
  7  9  1  0  0  0  0
  8 12  1  0  0  0  0
  8 11  1  0  0  0  0
  9 22  1  0  0  0  0
 10  3  1  0  0  0  0
 11  5  1  0  0  0  0
 12  4  1  0  0  0  0
 13 18  2  0  0  0  0
 14  9  1  0  0  0  0
 15 23  1  0  0  0  0
 15  7  1  0  0  0  0
 16  2  1  0  0  0  0
 17  3  1  0  0  0  0
 17 26  1  0  0  0  0
 19 26  1  0  0  0  0
 19  2  2  0  0  0  0
 20 17  1  0  0  0  0
 21 10  2  0  0  0  0
 22 20  1  0  0  0  0
 22 10  1  0  0  0  0
 23 14  1  0  0  0  0
 24 27  1  0  0  0  0
 25 18  1  0  0  0  0
 26 25  2  0  0  0  0
 27  7  1  0  0  0  0
 27 12  1  0  0  0  0
 28 11  1  0  0  0  0
 28 30  1  0  0  0  0
 30 29  1  0  0  0  0
M  END
>  <MODEL>
3

>  <REMARK>
 VINA RESULT:      -8.6      2.460      6.173
  Name = 
  2 active torsions:
  status: ('A' for Active; 'I' for Inactive)
    1  A    between atoms: C_11  and  C_28
    2  A    between atoms: C_28  and  C_30
                            x       y       z     vdW  Elec       q    Type
                         _______ _______ _______ _____ _____    ______ ____

>  <TORSDO>
F 2

$$$$
=
 OpenBabel11122410343D

 30 35  0  0  1  0  0  0  0  0999 V2000
  188.4270  177.3290  142.5480 C   0  0  2  0  0  3  0  0  0  0  0  0
  187.2360  178.4960  140.6150 C   0  0  0  0  0  0  0  0  0  0  0  0
  184.9730  177.9940  144.8240 O   0  0  0  0  0  0  0  0  0  0  0  0
  188.3900  177.3920  144.0850 C   0  0  2  0  0  3  0  0  0  0  0  0
  189.5980  177.9950  142.1180 O   0  0  0  0  0  0  0  0  0  0  0  0
  191.8820  177.2780  144.5260 O   0  0  0  0  0  0  0  0  0  0  0  0
  189.3710  177.9610  146.8450 C   0  0  1  0  0  3  0  0  0  0  0  0
  190.8310  177.0630  143.9380 C   0  0  0  0  0  0  0  0  0  0  0  0
  187.9590  178.5410  146.6080 C   0  0  2  0  0  3  0  0  0  0  0  0
  185.5290  178.0950  146.0770 C   0  0  0  0  0  0  0  0  0  0  0  0
  190.7120  177.1900  142.4370 C   0  0  2  0  0  3  0  0  0  0  0  0
  189.5840  176.6130  144.6520 C   0  0  1  0  0  3  0  0  0  0  0  0
  186.0930  179.0690  140.0540 C   0  0  0  0  0  3  0  0  0  0  0  0
  187.5990  179.2090  147.9230 C   0  0  0  0  0  2  0  0  0  0  0  0
  189.5750  177.8980  148.3530 C   0  0  0  0  0  2  0  0  0  0  0  0
  188.3930  178.4440  139.8450 O   0  0  0  0  0  1  0  0  0  0  0  0
  185.7990  177.2550  143.9440 C   0  0  2  0  0  3  0  0  0  0  0  0
  184.8970  179.0960  140.7640 C   0  0  0  0  0  3  0  0  0  0  0  0
  187.2020  177.9710  141.9300 C   0  0  0  0  0  0  0  0  0  0  0  0
  187.0830  176.9290  144.7380 C   0  0  2  0  0  3  0  0  0  0  0  0
  184.9060  178.6000  147.0480 O   0  0  0  0  0  0  0  0  0  0  0  0
  186.8860  177.4960  146.1760 C   0  0  1  0  0  3  0  0  0  0  0  0
  188.3080  178.4170  148.9960 C   0  0  0  0  0  2  0  0  0  0  0  0
  190.8100  176.0070  146.6600 O   0  0  0  0  0  1  0  0  0  0  0  0
  184.8340  178.5330  142.0370 C   0  0  0  0  0  3  0  0  0  0  0  0
  185.9720  177.9710  142.6300 C   0  0  0  0  0  0  0  0  0  0  0  0
  189.6290  176.5930  146.1930 C   0  0  1  0  0  3  0  0  0  0  0  0
  191.9680  177.7750  141.8070 C   0  0  0  0  0  2  0  0  0  0  0  0
  193.3540  177.3230  139.9300 O   0  0  0  0  0  1  0  0  0  0  0  0
  192.0240  177.4290  140.3320 C   0  0  0  0  0  2  0  0  0  0  0  0
  1 19  1  6  0  0  0
  1  4  1  0  0  0  0
  2 19  1  0  0  0  0
  3 10  1  0  0  0  0
  4 12  1  0  0  0  0
  4 20  1  0  0  0  0
  5 11  1  0  0  0  0
  5  1  1  0  0  0  0
  7 15  1  0  0  0  0
  8  6  2  0  0  0  0
  8 12  1  0  0  0  0
  9  7  1  0  0  0  0
  9 14  1  0  0  0  0
 10 22  1  0  0  0  0
 10 21  2  0  0  0  0
 11  8  1  0  0  0  0
 12 27  1  0  0  0  0
 13  2  2  0  0  0  0
 13 18  1  0  0  0  0
 14 23  1  0  0  0  0
 15 23  1  0  0  0  0
 16  2  1  0  0  0  0
 17 20  1  0  0  0  0
 17  3  1  0  0  0  0
 18 25  2  0  0  0  0
 19 26  2  0  0  0  0
 20 22  1  0  0  0  0
 22  9  1  0  0  0  0
 25 26  1  0  0  0  0
 26 17  1  0  0  0  0
 27 24  1  0  0  0  0
 27  7  1  0  0  0  0
 28 11  1  0  0  0  0
 29 30  1  0  0  0  0
 30 28  1  0  0  0  0
M  END
>  <MODEL>
4

>  <REMARK>
 VINA RESULT:      -8.5      1.750      2.774
  Name = 
  2 active torsions:
  status: ('A' for Active; 'I' for Inactive)
    1  A    between atoms: C_11  and  C_28
    2  A    between atoms: C_28  and  C_30
                            x       y       z     vdW  Elec       q    Type
                         _______ _______ _______ _____ _____    ______ ____

>  <TORSDO>
F 2

$$$$
=
 OpenBabel11122410343D

 30 35  0  0  1  0  0  0  0  0999 V2000
  188.8610  178.0410  143.2810 C   0  0  2  0  0  3  0  0  0  0  0  0
  186.6940  177.8240  144.6130 C   0  0  0  0  0  0  0  0  0  0  0  0
  186.4840  178.5580  139.8690 O   0  0  0  0  0  0  0  0  0  0  0  0
  189.3210  177.7530  141.8410 C   0  0  2  0  0  3  0  0  0  0  0  0
  189.3750  177.0180  144.1110 O   0  0  0  0  0  0  0  0  0  0  0  0
  192.3970  176.2920  142.7420 O   0  0  0  0  0  0  0  0  0  0  0  0
  190.8030  176.3820  139.6440 C   0  0  1  0  0  3  0  0  0  0  0  0
  191.4310  177.0270  142.8960 C   0  0  0  0  0  0  0  0  0  0  0  0
  189.2960  176.5070  139.3270 C   0  0  2  0  0  3  0  0  0  0  0  0
  187.3200  178.0280  138.9140 C   0  0  0  0  0  0  0  0  0  0  0  0
  190.7670  177.2070  144.2410 C   0  0  2  0  0  3  0  0  0  0  0  0
  190.8510  177.8450  141.7720 C   0  0  1  0  0  3  0  0  0  0  0  0
  185.3010  177.8930  144.6980 C   0  0  0  0  0  3  0  0  0  0  0  0
  189.1390  175.8550  137.9650 C   0  0  0  0  0  2  0  0  0  0  0  0
  191.5100  176.1070  138.3230 C   0  0  0  0  0  2  0  0  0  0  0  0
  187.4090  177.5010  145.7610 O   0  0  0  0  0  1  0  0  0  0  0  0
  187.2040  179.0050  141.0030 C   0  0  2  0  0  3  0  0  0  0  0  0
  184.5460  178.2660  143.5910 C   0  0  0  0  0  3  0  0  0  0  0  0
  187.3500  178.0940  143.3870 C   0  0  0  0  0  0  0  0  0  0  0  0
  188.6790  178.6180  140.7520 C   0  0  2  0  0  3  0  0  0  0  0  0
  186.9050  177.6880  137.7740 O   0  0  0  0  0  0  0  0  0  0  0  0
  188.7430  177.9660  139.3380 C   0  0  1  0  0  3  0  0  0  0  0  0
  190.4480  176.0830  137.2450 C   0  0  0  0  0  2  0  0  0  0  0  0
  192.8160  177.5350  140.3770 O   0  0  0  0  0  1  0  0  0  0  0  0
  185.1820  178.5880  142.3950 C   0  0  0  0  0  3  0  0  0  0  0  0
  186.5750  178.5060  142.2770 C   0  0  0  0  0  0  0  0  0  0  0  0
  191.4190  177.5940  140.3600 C   0  0  1  0  0  3  0  0  0  0  0  0
  191.3200  176.2520  145.2900 C   0  0  0  0  0  2  0  0  0  0  0  0
  192.0790  176.5620  147.5200 O   0  0  0  0  0  1  0  0  0  0  0  0
  190.9810  176.7480  146.6820 C   0  0  0  0  0  2  0  0  0  0  0  0
  1 19  1  6  0  0  0
  1  5  1  0  0  0  0
  2 13  1  0  0  0  0
  2 16  1  0  0  0  0
  3 17  1  0  0  0  0
  4  1  1  0  0  0  0
  5 11  1  0  0  0  0
  6  8  2  0  0  0  0
  7 27  1  0  0  0  0
  8 11  1  0  0  0  0
  9 22  1  0  0  0  0
  9  7  1  0  0  0  0
 10 22  1  0  0  0  0
 10  3  1  0  0  0  0
 11 28  1  0  0  0  0
 12  4  1  0  0  0  0
 12  8  1  0  0  0  0
 14  9  1  0  0  0  0
 15  7  1  0  0  0  0
 17 26  1  0  0  0  0
 18 13  2  0  0  0  0
 19  2  2  0  0  0  0
 20 17  1  0  0  0  0
 20  4  1  0  0  0  0
 21 10  2  0  0  0  0
 22 20  1  0  0  0  0
 23 14  1  0  0  0  0
 23 15  1  0  0  0  0
 25 18  1  0  0  0  0
 26 25  2  0  0  0  0
 26 19  1  0  0  0  0
 27 24  1  0  0  0  0
 27 12  1  0  0  0  0
 28 30  1  0  0  0  0
 30 29  1  0  0  0  0
M  END
>  <MODEL>
5

>  <REMARK>
 VINA RESULT:      -8.4      1.920      5.907
  Name = 
  2 active torsions:
  status: ('A' for Active; 'I' for Inactive)
    1  A    between atoms: C_11  and  C_28
    2  A    between atoms: C_28  and  C_30
                            x       y       z     vdW  Elec       q    Type
                         _______ _______ _______ _____ _____    ______ ____

>  <TORSDO>
F 2

$$$$
=
 OpenBabel11122410343D

 30 35  0  0  1  0  0  0  0  0999 V2000
  186.5310  178.2530  138.7300 C   0  0  2  0  0  3  0  0  0  0  0  0
  187.3390  177.0000  136.6580 C   0  0  0  0  0  0  0  0  0  0  0  0
  190.3060  177.5330  140.3980 O   0  0  0  0  0  0  0  0  0  0  0  0
  186.8310  178.2270  140.2390 C   0  0  2  0  0  3  0  0  0  0  0  0
  185.2850  177.6140  138.5270 O   0  0  0  0  0  0  0  0  0  0  0  0
  183.4710  178.4660  141.2690 O   0  0  0  0  0  0  0  0  0  0  0  0
  186.3240  177.7590  143.1420 C   0  0  1  0  0  3  0  0  0  0  0  0
  184.4110  178.6320  140.5030 C   0  0  0  0  0  0  0  0  0  0  0  0
  187.6580  177.1280  142.6840 C   0  0  2  0  0  3  0  0  0  0  0  0
  189.9720  177.4810  141.7310 C   0  0  0  0  0  0  0  0  0  0  0  0
  184.2660  178.4640  139.0080 C   0  0  2  0  0  3  0  0  0  0  0  0
  185.7740  179.0580  140.9780 C   0  0  1  0  0  3  0  0  0  0  0  0
  188.3520  176.3760  135.9260 C   0  0  0  0  0  3  0  0  0  0  0  0
  188.2210  176.4810  143.9370 C   0  0  0  0  0  2  0  0  0  0  0  0
  186.3850  177.8660  144.6600 C   0  0  0  0  0  2  0  0  0  0  0  0
  186.0680  177.0700  136.0960 O   0  0  0  0  0  1  0  0  0  0  0  0
  189.3620  178.2760  139.6510 C   0  0  2  0  0  3  0  0  0  0  0  0
  189.6510  176.3290  136.4210 C   0  0  0  0  0  3  0  0  0  0  0  0
  187.6140  177.5560  137.9300 C   0  0  0  0  0  0  0  0  0  0  0  0
  188.2430  178.6630  140.6440 C   0  0  2  0  0  3  0  0  0  0  0  0
  190.7390  176.9810  142.5960 O   0  0  0  0  0  0  0  0  0  0  0  0
  188.6700  178.1270  142.0430 C   0  0  1  0  0  3  0  0  0  0  0  0
  187.7290  177.3220  145.0920 C   0  0  0  0  0  2  0  0  0  0  0  0
  184.9300  179.7530  143.1480 O   0  0  0  0  0  1  0  0  0  0  0  0
  189.9470  176.9210  137.6460 C   0  0  0  0  0  3  0  0  0  0  0  0
  188.9450  177.5340  138.4090 C   0  0  0  0  0  0  0  0  0  0  0  0
  185.9960  179.1180  142.5030 C   0  0  1  0  0  3  0  0  0  0  0  0
  182.9050  177.9040  138.6200 C   0  0  0  0  0  2  0  0  0  0  0  0
  182.6580  175.6980  139.4700 O   0  0  0  0  0  1  0  0  0  0  0  0
  183.0110  176.4190  138.3310 C   0  0  0  0  0  2  0  0  0  0  0  0
  1 19  1  6  0  0  0
  1  4  1  0  0  0  0
  2 19  1  0  0  0  0
  3 10  1  0  0  0  0
  4 20  1  0  0  0  0
  4 12  1  0  0  0  0
  5  1  1  0  0  0  0
  5 11  1  0  0  0  0
  7 15  1  0  0  0  0
  8 12  1  0  0  0  0
  8  6  2  0  0  0  0
  9  7  1  0  0  0  0
  9 14  1  0  0  0  0
 10 22  1  0  0  0  0
 10 21  2  0  0  0  0
 11  8  1  0  0  0  0
 12 27  1  0  0  0  0
 13 18  1  0  0  0  0
 13  2  2  0  0  0  0
 14 23  1  0  0  0  0
 15 23  1  0  0  0  0
 16  2  1  0  0  0  0
 17  3  1  0  0  0  0
 17 20  1  0  0  0  0
 18 25  2  0  0  0  0
 19 26  2  0  0  0  0
 20 22  1  0  0  0  0
 22  9  1  0  0  0  0
 25 26  1  0  0  0  0
 26 17  1  0  0  0  0
 27  7  1  0  0  0  0
 27 24  1  0  0  0  0
 28 11  1  0  0  0  0
 30 28  1  0  0  0  0
 30 29  1  0  0  0  0
M  END
>  <MODEL>
6

>  <REMARK>
 VINA RESULT:      -8.4      2.526      6.217
  Name = 
  2 active torsions:
  status: ('A' for Active; 'I' for Inactive)
    1  A    between atoms: C_11  and  C_28
    2  A    between atoms: C_28  and  C_30
                            x       y       z     vdW  Elec       q    Type
                         _______ _______ _______ _____ _____    ______ ____

>  <TORSDO>
F 2

$$$$
=
 OpenBabel11122410343D

 30 35  0  0  1  0  0  0  0  0999 V2000
  187.2960  178.4280  142.8230 C   0  0  2  0  0  3  0  0  0  0  0  0
  188.2980  177.3660  144.9170 C   0  0  0  0  0  0  0  0  0  0  0  0
  183.7550  178.9290  145.0070 O   0  0  0  0  0  0  0  0  0  0  0  0
  185.8950  178.5650  142.2010 C   0  0  2  0  0  3  0  0  0  0  0  0
  187.9980  177.4430  142.0900 O   0  0  0  0  0  0  0  0  0  0  0  0
  186.9050  177.8600  138.9010 O   0  0  0  0  0  0  0  0  0  0  0  0
  183.6960  178.1140  140.2360 C   0  0  1  0  0  3  0  0  0  0  0  0
  187.0620  178.2560  140.0480 C   0  0  0  0  0  0  0  0  0  0  0  0
  183.2240  177.8790  141.6880 C   0  0  2  0  0  3  0  0  0  0  0  0
  182.8340  178.8470  143.9890 C   0  0  0  0  0  0  0  0  0  0  0  0
  188.3270  177.9790  140.8270 C   0  0  2  0  0  3  0  0  0  0  0  0
  186.0290  179.0860  140.7640 C   0  0  1  0  0  3  0  0  0  0  0  0
  188.2230  177.0310  146.2710 C   0  0  0  0  0  3  0  0  0  0  0  0
  181.7620  177.4880  141.5530 C   0  0  0  0  0  2  0  0  0  0  0  0
  182.4430  178.3080  139.3910 C   0  0  0  0  0  2  0  0  0  0  0  0
  189.4540  177.0330  144.2190 O   0  0  0  0  0  1  0  0  0  0  0  0
  185.0270  179.3250  144.5300 C   0  0  2  0  0  3  0  0  0  0  0  0
  187.1110  177.3910  147.0250 C   0  0  0  0  0  3  0  0  0  0  0  0
  187.2240  178.0410  144.2860 C   0  0  0  0  0  0  0  0  0  0  0  0
  184.8960  179.4160  142.9930 C   0  0  2  0  0  3  0  0  0  0  0  0
  181.6110  178.6370  144.2070 O   0  0  0  0  0  0  0  0  0  0  0  0
  183.4120  179.0970  142.6430 C   0  0  1  0  0  3  0  0  0  0  0  0
  181.2560  178.2040  140.3230 C   0  0  0  0  0  2  0  0  0  0  0  0
  184.8520  179.6090  138.7040 O   0  0  0  0  0  1  0  0  0  0  0  0
  186.0720  178.1030  146.4310 C   0  0  0  0  0  3  0  0  0  0  0  0
  186.1130  178.4330  145.0700 C   0  0  0  0  0  0  0  0  0  0  0  0
  184.6760  179.2830  140.0520 C   0  0  1  0  0  3  0  0  0  0  0  0
  189.2600  177.0270  140.0910 C   0  0  0  0  0  2  0  0  0  0  0  0
  191.5470  177.2220  140.7050 O   0  0  0  0  0  1  0  0  0  0  0  0
  190.5880  177.7020  139.8150 C   0  0  0  0  0  2  0  0  0  0  0  0
  1  5  1  6  0  0  0
  1 19  1  0  0  0  0
  2 13  1  0  0  0  0
  4  1  1  0  0  0  0
  4 20  1  0  0  0  0
  6  8  2  0  0  0  0
  7  9  1  0  0  0  0
  8 12  1  0  0  0  0
  8 11  1  0  0  0  0
  9 22  1  0  0  0  0
 10 21  2  0  0  0  0
 10  3  1  0  0  0  0
 11  5  1  0  0  0  0
 12  4  1  0  0  0  0
 13 18  2  0  0  0  0
 14  9  1  0  0  0  0
 15  7  1  0  0  0  0
 15 23  1  0  0  0  0
 16  2  1  0  0  0  0
 17  3  1  0  0  0  0
 17 26  1  0  0  0  0
 19  2  2  0  0  0  0
 19 26  1  0  0  0  0
 20 17  1  0  0  0  0
 22 20  1  0  0  0  0
 22 10  1  0  0  0  0
 23 14  1  0  0  0  0
 24 27  1  0  0  0  0
 25 18  1  0  0  0  0
 26 25  2  0  0  0  0
 27  7  1  0  0  0  0
 27 12  1  0  0  0  0
 28 11  1  0  0  0  0
 30 28  1  0  0  0  0
 30 29  1  0  0  0  0
M  END
>  <MODEL>
7

>  <REMARK>
 VINA RESULT:      -8.3      2.188      5.977
  Name = 
  2 active torsions:
  status: ('A' for Active; 'I' for Inactive)
    1  A    between atoms: C_11  and  C_28
    2  A    between atoms: C_28  and  C_30
                            x       y       z     vdW  Elec       q    Type
                         _______ _______ _______ _____ _____    ______ ____

>  <TORSDO>
F 2

$$$$
=
 OpenBabel11122410343D

 30 35  0  0  1  0  0  0  0  0999 V2000
  185.9880  177.7880  142.3180 C   0  0  2  0  0  3  0  0  0  0  0  0
  183.8480  178.8710  143.1890 C   0  0  0  0  0  0  0  0  0  0  0  0
  187.3130  177.6650  146.2910 O   0  0  0  0  0  0  0  0  0  0  0  0
  187.4650  177.7270  142.7470 C   0  0  2  0  0  3  0  0  0  0  0  0
  185.8930  178.6790  141.2240 O   0  0  0  0  0  0  0  0  0  0  0  0
  188.7890  178.1910  139.5160 O   0  0  0  0  0  0  0  0  0  0  0  0
  190.3990  178.2480  142.6070 C   0  0  1  0  0  3  0  0  0  0  0  0
  187.9430  177.8410  140.3280 C   0  0  0  0  0  0  0  0  0  0  0  0
  189.8230  178.5890  143.9990 C   0  0  2  0  0  3  0  0  0  0  0  0
  188.6700  177.7670  146.0920 C   0  0  0  0  0  0  0  0  0  0  0  0
  186.4670  178.0580  140.0930 C   0  0  2  0  0  3  0  0  0  0  0  0
  188.2980  177.1270  141.6060 C   0  0  1  0  0  3  0  0  0  0  0  0
  183.0270  179.2770  144.2440 C   0  0  0  0  0  3  0  0  0  0  0  0
  191.0190  179.0820  144.7940 C   0  0  0  0  0  2  0  0  0  0  0  0
  191.9070  178.1080  142.7760 C   0  0  0  0  0  2  0  0  0  0  0  0
  183.4010  179.0800  141.8890 O   0  0  0  0  0  1  0  0  0  0  0  0
  186.6560  177.1500  145.1480 C   0  0  2  0  0  3  0  0  0  0  0  0
  183.4050  179.0400  145.5620 C   0  0  0  0  0  3  0  0  0  0  0  0
  185.0930  178.2500  143.4500 C   0  0  0  0  0  0  0  0  0  0  0  0
  187.7450  176.9940  144.0630 C   0  0  2  0  0  3  0  0  0  0  0  0
  189.4620  178.0790  147.0210 O   0  0  0  0  0  0  0  0  0  0  0  0
  189.0990  177.4070  144.7150 C   0  0  1  0  0  3  0  0  0  0  0  0
  192.2160  178.3470  144.2370 C   0  0  0  0  0  2  0  0  0  0  0  0
  190.5360  176.5950  140.8260 O   0  0  0  0  0  1  0  0  0  0  0  0
  184.6010  178.3800  145.8320 C   0  0  0  0  0  3  0  0  0  0  0  0
  185.4520  177.9820  144.7920 C   0  0  0  0  0  0  0  0  0  0  0  0
  189.7970  176.9990  141.9420 C   0  0  1  0  0  3  0  0  0  0  0  0
  186.1980  178.9000  138.8530 C   0  0  0  0  0  2  0  0  0  0  0  0
  184.3140  180.3450  138.9500 O   0  0  0  0  0  1  0  0  0  0  0  0
  184.7060  179.0460  138.6320 C   0  0  0  0  0  2  0  0  0  0  0  0
  1  5  1  6  0  0  0
  1  4  1  0  0  0  0
  1 19  1  0  0  0  0
  2 19  2  0  0  0  0
  2 13  1  0  0  0  0
  4 20  1  0  0  0  0
  6  8  2  0  0  0  0
  7 15  1  0  0  0  0
  7  9  1  0  0  0  0
  8 12  1  0  0  0  0
  9 22  1  0  0  0  0
  9 14  1  0  0  0  0
 10  3  1  0  0  0  0
 10 21  2  0  0  0  0
 11  8  1  0  0  0  0
 11  5  1  0  0  0  0
 12 27  1  0  0  0  0
 12  4  1  0  0  0  0
 13 18  2  0  0  0  0
 15 23  1  0  0  0  0
 16  2  1  0  0  0  0
 17  3  1  0  0  0  0
 18 25  1  0  0  0  0
 19 26  1  0  0  0  0
 20 22  1  0  0  0  0
 20 17  1  0  0  0  0
 22 10  1  0  0  0  0
 23 14  1  0  0  0  0
 24 27  1  0  0  0  0
 26 17  1  0  0  0  0
 26 25  2  0  0  0  0
 27  7  1  0  0  0  0
 28 11  1  0  0  0  0
 30 28  1  0  0  0  0
 30 29  1  0  0  0  0
M  END
>  <MODEL>
8

>  <REMARK>
 VINA RESULT:      -8.3      1.657      2.398
  Name = 
  2 active torsions:
  status: ('A' for Active; 'I' for Inactive)
    1  A    between atoms: C_11  and  C_28
    2  A    between atoms: C_28  and  C_30
                            x       y       z     vdW  Elec       q    Type
                         _______ _______ _______ _____ _____    ______ ____

>  <TORSDO>
F 2

$$$$
=
 OpenBabel11122410343D

 30 35  0  0  1  0  0  0  0  0999 V2000
  188.0200  178.2480  140.9160 C   0  0  2  0  0  3  0  0  0  0  0  0
  188.0790  177.6080  143.3860 C   0  0  0  0  0  0  0  0  0  0  0  0
  183.8560  178.5320  141.2870 O   0  0  0  0  0  0  0  0  0  0  0  0
  187.0260  178.1120  139.7490 C   0  0  2  0  0  3  0  0  0  0  0  0
  189.0380  177.2840  140.7290 O   0  0  0  0  0  0  0  0  0  0  0  0
  189.4210  177.1380  137.3580 O   0  0  0  0  0  0  0  0  0  0  0  0
  185.9420  177.1170  137.1540 C   0  0  1  0  0  3  0  0  0  0  0  0
  189.0340  177.6940  138.3760 C   0  0  0  0  0  0  0  0  0  0  0  0
  184.9010  177.0060  138.2900 C   0  0  2  0  0  3  0  0  0  0  0  0
  183.4800  178.1960  140.0080 C   0  0  0  0  0  0  0  0  0  0  0  0
  189.8480  177.6950  139.6490 C   0  0  2  0  0  3  0  0  0  0  0  0
  187.7380  178.4600  138.4350 C   0  0  1  0  0  3  0  0  0  0  0  0
  187.4440  177.4410  144.6190 C   0  0  0  0  0  3  0  0  0  0  0  0
  183.6760  176.4050  137.6230 C   0  0  0  0  0  2  0  0  0  0  0  0
  185.1740  177.0290  135.8410 C   0  0  0  0  0  2  0  0  0  0  0  0
  189.4430  177.3510  143.3080 O   0  0  0  0  0  1  0  0  0  0  0  0
  185.1790  179.0350  141.3270 C   0  0  2  0  0  3  0  0  0  0  0  0
  186.0920  177.7370  144.7610 C   0  0  0  0  0  3  0  0  0  0  0  0
  187.3440  178.0430  142.2560 C   0  0  0  0  0  0  0  0  0  0  0  0
  185.7260  178.9110  139.8870 C   0  0  2  0  0  3  0  0  0  0  0  0
  182.3030  177.8490  139.7250 O   0  0  0  0  0  0  0  0  0  0  0  0
  184.5690  178.3500  139.0080 C   0  0  1  0  0  3  0  0  0  0  0  0
  183.7090  176.8830  136.1910 C   0  0  0  0  0  2  0  0  0  0  0  0
  187.5450  178.5500  136.0150 O   0  0  0  0  0  1  0  0  0  0  0  0
  185.3700  178.2190  143.6720 C   0  0  0  0  0  3  0  0  0  0  0  0
  185.9790  178.3760  142.4200 C   0  0  0  0  0  0  0  0  0  0  0  0
  186.8200  178.3770  137.1990 C   0  0  1  0  0  3  0  0  0  0  0  0
  191.0710  176.7940  139.5510 C   0  0  0  0  0  2  0  0  0  0  0  0
  193.4250  177.1180  139.5490 O   0  0  0  0  0  1  0  0  0  0  0  0
  192.2580  177.4440  140.2350 C   0  0  0  0  0  2  0  0  0  0  0  0
  1  5  1  6  0  0  0
  1 19  1  0  0  0  0
  2 13  1  0  0  0  0
  3 17  1  0  0  0  0
  4 20  1  0  0  0  0
  4  1  1  0  0  0  0
  6  8  2  0  0  0  0
  7 27  1  0  0  0  0
  7  9  1  0  0  0  0
  8 12  1  0  0  0  0
  8 11  1  0  0  0  0
  9 22  1  0  0  0  0
 10  3  1  0  0  0  0
 11  5  1  0  0  0  0
 12  4  1  0  0  0  0
 13 18  2  0  0  0  0
 14  9  1  0  0  0  0
 15 23  1  0  0  0  0
 15  7  1  0  0  0  0
 16  2  1  0  0  0  0
 17 26  1  0  0  0  0
 19 26  1  0  0  0  0
 19  2  2  0  0  0  0
 20 17  1  0  0  0  0
 21 10  2  0  0  0  0
 22 20  1  0  0  0  0
 22 10  1  0  0  0  0
 23 14  1  0  0  0  0
 24 27  1  0  0  0  0
 25 18  1  0  0  0  0
 26 25  2  0  0  0  0
 27 12  1  0  0  0  0
 28 11  1  0  0  0  0
 28 30  1  0  0  0  0
 29 30  1  0  0  0  0
M  END
>  <MODEL>
9

>  <REMARK>
 VINA RESULT:      -8.0      2.596      6.714
  Name = 
  2 active torsions:
  status: ('A' for Active; 'I' for Inactive)
    1  A    between atoms: C_11  and  C_28
    2  A    between atoms: C_28  and  C_30
                            x       y       z     vdW  Elec       q    Type
                         _______ _______ _______ _____ _____    ______ ____

>  <TORSDO>
F 2

$$$$
