=
 OpenBabel11122411423D

 37 43  0  0  1  0  0  0  0  0999 V2000
  187.6410  177.6630  139.8320 O   0  0  0  0  0  0  0  0  0  0  0  0
  184.4760  176.7980  136.0400 C   0  0  0  0  0  0  0  0  0  0  0  0
  188.0460  175.0470  137.5740 C   0  0  1  0  0  3  0  0  0  0  0  0
  187.5870  178.6000  140.8820 C   0  0  2  0  0  3  0  0  0  0  0  0
  190.8880  175.9350  138.7060 C   0  0  0  0  0  2  0  0  0  0  0  0
  185.5970  174.8470  137.2280 C   0  0  0  0  0  0  0  0  0  0  0  0
  188.8590  176.2210  137.0680 C   0  0  2  0  0  3  0  0  0  0  0  0
  189.3600  177.0840  142.0070 C   0  0  1  0  0  3  0  0  0  0  0  0
  186.6620  175.6000  137.5290 C   0  0  0  0  0  0  0  0  0  0  0  0
  190.4020  176.1460  137.2610 C   0  0  2  0  0  3  0  0  0  0  0  0
  185.7670  173.4440  136.9720 N   0  0  0  0  0  2  0  0  0  0  0  0
  188.7870  178.4970  141.8510 C   0  0  0  0  0  2  0  0  0  0  0  0
  186.6050  177.0840  137.4110 C   0  0  2  0  0  3  0  0  0  0  0  0
  183.4540  177.8240  136.4830 C   0  0  0  0  0  1  0  0  0  0  0  0
  189.5410  173.2750  136.5980 C   0  0  0  0  0  2  0  0  0  0  0  0
  187.0920  172.8210  137.0300 C   0  0  0  0  0  2  0  0  0  0  0  0
  185.8830  177.4370  136.1120 C   0  0  0  0  0  2  0  0  0  0  0  0
  190.5850  176.8620  141.1090 C   0  0  0  0  0  2  0  0  0  0  0  0
  190.1550  176.8520  139.6560 C   0  0  1  0  0  3  0  0  0  0  0  0
  188.1420  173.8540  136.6240 C   0  0  1  0  0  3  0  0  0  0  0  0
  188.0720  177.5250  137.4090 C   0  0  1  0  0  3  0  0  0  0  0  0
  184.2960  175.5270  136.9100 C   0  0  0  0  0  2  0  0  0  0  0  0
  191.0870  175.2040  136.3570 N   0  0  0  0  0  0  0  0  0  0  0  0
  184.1940  176.4380  134.5960 C   0  0  0  0  0  1  0  0  0  0  0  0
  189.8660  178.2290  139.0890 C   0  0  0  0  0  2  0  0  0  0  0  0
  189.7300  176.8860  143.3360 O   0  0  0  0  0  1  0  0  0  0  0  0
  188.3770  178.2330  138.7650 C   0  0  2  0  0  3  0  0  0  0  0  0
  190.3780  174.1260  135.6540 C   0  0  0  0  0  2  0  0  0  0  0  0
  192.8430  176.1800  134.9070 C   0  0  0  0  0  3  0  0  0  0  0  0
  192.4770  175.4250  136.0360 C   0  0  0  0  0  0  0  0  0  0  0  0
  193.4950  174.8900  136.8460 C   0  0  0  0  0  3  0  0  0  0  0  0
  195.8090  174.5820  137.3260 F   0  0  0  0  0  0  0  0  0  0  0  0
  195.1870  175.8550  135.4100 C   0  0  0  0  0  3  0  0  0  0  0  0
  194.8410  175.1040  136.5350 C   0  0  0  0  0  0  0  0  0  0  0  0
  194.1880  176.3930  134.5960 C   0  0  0  0  0  3  0  0  0  0  0  0
  186.2720  178.4600  141.6350 C   0  0  0  0  0  2  0  0  0  0  0  0
  185.3610  179.4360  141.2250 O   0  0  0  0  0  1  0  0  0  0  0  0
  1  4  1  0  0  0  0
  2 17  1  0  0  0  0
  2 14  1  0  0  0  0
  2 22  1  0  0  0  0
  3  9  1  6  0  0  0
  4 36  1  1  0  0  0
  4 12  1  0  0  0  0
  5 19  1  0  0  0  0
  6  9  2  0  0  0  0
  7 10  1  0  0  0  0
  7 21  1  0  0  0  0
  7  3  1  0  0  0  0
  8 26  1  0  0  0  0
 10  5  1  0  0  0  0
 11 16  1  0  0  0  0
 11  6  1  0  0  0  0
 12  8  1  0  0  0  0
 13  9  1  0  0  0  0
 15 20  1  0  0  0  0
 17 13  1  0  0  0  0
 18  8  1  0  0  0  0
 19 18  1  0  0  0  0
 20 16  1  0  0  0  0
 20  3  1  0  0  0  0
 21 13  1  0  0  0  0
 21 27  1  0  0  0  0
 22  6  1  0  0  0  0
 23 10  1  0  0  0  0
 24  2  1  0  0  0  0
 25 19  1  0  0  0  0
 27 25  1  0  0  0  0
 27  1  1  0  0  0  0
 28 23  1  0  0  0  0
 28 15  1  0  0  0  0
 29 30  1  0  0  0  0
 30 23  1  0  0  0  0
 30 31  2  0  0  0  0
 33 34  2  0  0  0  0
 34 31  1  0  0  0  0
 34 32  1  0  0  0  0
 35 29  2  0  0  0  0
 35 33  1  0  0  0  0
 37 36  1  0  0  0  0
M  END
>  <MODEL>
1

>  <REMARK>
 VINA RESULT:      -7.0      0.000      0.000
  Name = 
  2 active torsions:
  status: ('A' for Active; 'I' for Inactive)
    1  A    between atoms: C_4  and  C_36
    2  A    between atoms: N_23  and  C_30
                            x       y       z     vdW  Elec       q    Type
                         _______ _______ _______ _____ _____    ______ ____

>  <TORSDO>
F 2

$$$$
=
 OpenBabel11122411423D

 37 43  0  0  1  0  0  0  0  0999 V2000
  181.0500  179.1270  139.2460 O   0  0  0  0  0  0  0  0  0  0  0  0
  184.9320  178.5450  142.3670 C   0  0  0  0  0  0  0  0  0  0  0  0
  183.9710  177.4580  138.3600 C   0  0  1  0  0  3  0  0  0  0  0  0
  179.8450  179.8410  139.3970 C   0  0  2  0  0  3  0  0  0  0  0  0
  181.5240  176.2970  136.6840 C   0  0  0  0  0  2  0  0  0  0  0  0
  185.3420  178.8650  139.8770 C   0  0  0  0  0  0  0  0  0  0  0  0
  182.9850  176.4230  138.8590 C   0  0  2  0  0  3  0  0  0  0  0  0
  179.6780  179.6330  136.8200 C   0  0  1  0  0  3  0  0  0  0  0  0
  184.1670  178.2970  139.5770 C   0  0  2  0  0  3  0  0  0  0  0  0
  182.2850  175.5390  137.7850 C   0  0  2  0  0  3  0  0  0  0  0  0
  186.4580  178.7040  138.9860 N   0  0  0  0  0  0  0  0  0  0  0  0
  178.9310  179.7600  138.1530 C   0  0  0  0  0  2  0  0  0  0  0  0
  183.1270  178.0990  140.6240 C   0  0  2  0  0  3  0  0  0  0  0  0
  184.3740  179.4520  143.4440 C   0  0  0  0  0  1  0  0  0  0  0  0
  185.1540  175.9170  136.7610 C   0  0  0  0  0  2  0  0  0  0  0  0
  186.3330  177.9210  137.7530 C   0  0  0  0  0  2  0  0  0  0  0  0
  183.8100  177.5910  141.8930 C   0  0  0  0  0  2  0  0  0  0  0  0
  179.7650  178.1750  136.3510 C   0  0  0  0  0  2  0  0  0  0  0  0
  180.6740  177.3950  137.2800 C   0  0  1  0  0  3  0  0  0  0  0  0
  185.3020  176.8150  137.9710 C   0  0  1  0  0  3  0  0  0  0  0  0
  182.1660  177.0700  140.0200 C   0  0  1  0  0  3  0  0  0  0  0  0
  185.5410  179.4340  141.2520 C   0  0  0  0  0  2  0  0  0  0  0  0
  183.1510  174.5100  137.1810 N   0  0  0  0  0  0  0  0  0  0  0  0
  186.0380  177.7080  142.9760 C   0  0  0  0  0  1  0  0  0  0  0  0
  180.0350  177.0330  138.6070 C   0  0  0  0  0  2  0  0  0  0  0  0
  179.0140  180.3830  135.8520 O   0  0  0  0  0  1  0  0  0  0  0  0
  180.8300  177.7910  139.6630 C   0  0  2  0  0  3  0  0  0  0  0  0
  184.6180  174.5760  137.2410 C   0  0  0  0  0  2  0  0  0  0  0  0
  183.0850  172.7070  135.4830 C   0  0  0  0  0  3  0  0  0  0  0  0
  182.5470  173.3200  136.6290 C   0  0  0  0  0  0  0  0  0  0  0  0
  181.4080  172.7500  137.2250 C   0  0  0  0  0  3  0  0  0  0  0  0
  179.7270  171.0620  137.2780 F   0  0  0  0  0  0  0  0  0  0  0  0
  181.3690  171.0030  135.5520 C   0  0  0  0  0  3  0  0  0  0  0  0
  180.8230  171.5990  136.6910 C   0  0  0  0  0  0  0  0  0  0  0  0
  182.4990  171.5570  134.9480 C   0  0  0  0  0  3  0  0  0  0  0  0
  180.1430  181.2900  139.7550 C   0  0  0  0  0  2  0  0  0  0  0  0
  179.5570  181.6280  140.9770 O   0  0  0  0  0  1  0  0  0  0  0  0
  1  4  1  0  0  0  0
  1 27  1  0  0  0  0
  2 24  1  0  0  0  0
  2 14  1  0  0  0  0
  3  7  1  0  0  0  0
  3  9  1  0  0  0  0
  4 36  1  0  0  0  0
  5 19  1  0  0  0  0
  5 10  1  0  0  0  0
  6 22  1  0  0  0  0
  7 21  1  0  0  0  0
  8 12  1  0  0  0  0
  9  6  1  0  0  0  0
  9 13  1  0  0  0  0
 10  7  1  0  0  0  0
 11  6  2  0  0  0  0
 12  4  1  0  0  0  0
 13 17  1  0  0  0  0
 15 28  1  0  0  0  0
 15 20  1  0  0  0  0
 16 20  1  0  0  0  0
 16 11  1  0  0  0  0
 17  2  1  0  0  0  0
 18  8  1  0  0  0  0
 18 19  1  0  0  0  0
 19 25  1  0  0  0  0
 20  3  1  0  0  0  0
 21 13  1  0  0  0  0
 22  2  1  0  0  0  0
 23 28  1  0  0  0  0
 23 10  1  0  0  0  0
 25 27  1  0  0  0  0
 26  8  1  0  0  0  0
 27 21  1  0  0  0  0
 29 30  1  0  0  0  0
 30 23  1  0  0  0  0
 30 31  2  0  0  0  0
 33 34  2  0  0  0  0
 34 31  1  0  0  0  0
 34 32  1  0  0  0  0
 35 29  2  0  0  0  0
 35 33  1  0  0  0  0
 36 37  1  0  0  0  0
M  END
>  <MODEL>
2

>  <REMARK>
 VINA RESULT:      -6.4      5.581      9.010
  Name = 
  2 active torsions:
  status: ('A' for Active; 'I' for Inactive)
    1  A    between atoms: C_4  and  C_36
    2  A    between atoms: N_23  and  C_30
                            x       y       z     vdW  Elec       q    Type
                         _______ _______ _______ _____ _____    ______ ____

>  <TORSDO>
F 2

$$$$
=
 OpenBabel11122411423D

 37 43  0  0  1  0  0  0  0  0999 V2000
  182.9900  176.7290  138.2240 O   0  0  0  0  0  0  0  0  0  0  0  0
  184.6850  178.8190  142.4540 C   0  0  0  0  0  0  0  0  0  0  0  0
  181.2410  179.1780  139.9700 C   0  0  1  0  0  3  0  0  0  0  0  0
  183.5070  175.6760  137.4430 C   0  0  2  0  0  3  0  0  0  0  0  0
  180.4870  179.3230  136.8790 C   0  0  0  0  0  2  0  0  0  0  0  0
  182.1900  178.4350  142.1400 C   0  0  0  0  0  0  0  0  0  0  0  0
  182.0620  179.8720  138.9030 C   0  0  2  0  0  3  0  0  0  0  0  0
  181.1320  175.5920  136.4120 C   0  0  1  0  0  3  0  0  0  0  0  0
  182.3060  178.5590  140.8110 C   0  0  0  0  0  0  0  0  0  0  0  0
  181.2990  180.3810  137.6450 C   0  0  2  0  0  3  0  0  0  0  0  0
  180.9880  178.8740  142.7930 N   0  0  0  0  0  2  0  0  0  0  0  0
  182.6330  175.3440  136.2130 C   0  0  0  0  0  2  0  0  0  0  0  0
  183.6400  178.4960  140.1530 C   0  0  2  0  0  3  0  0  0  0  0  0
  185.8610  177.8770  142.6060 C   0  0  0  0  0  1  0  0  0  0  0  0
  179.3850  180.8750  139.9930 C   0  0  0  0  0  2  0  0  0  0  0  0
  179.8850  179.4620  142.0290 C   0  0  0  0  0  2  0  0  0  0  0  0
  184.6290  179.3080  140.9880 C   0  0  0  0  0  2  0  0  0  0  0  0
  180.6990  176.9510  135.8480 C   0  0  0  0  0  2  0  0  0  0  0  0
  181.2990  178.0640  136.6840 C   0  0  1  0  0  3  0  0  0  0  0  0
  180.4560  180.1850  140.8100 C   0  0  1  0  0  3  0  0  0  0  0  0
  183.4090  179.0970  138.7630 C   0  0  1  0  0  3  0  0  0  0  0  0
  183.4100  178.0850  142.9430 C   0  0  0  0  0  2  0  0  0  0  0  0
  180.4720  181.5810  137.8750 N   0  0  0  0  0  0  0  0  0  0  0  0
  184.9210  180.0220  143.3450 C   0  0  0  0  0  1  0  0  0  0  0  0
  182.7720  178.3110  136.4140 C   0  0  0  0  0  2  0  0  0  0  0  0
  180.4150  174.5840  135.7700 O   0  0  0  0  0  1  0  0  0  0  0  0
  183.4900  177.9500  137.7080 C   0  0  2  0  0  3  0  0  0  0  0  0
  180.0480  182.0030  139.2160 C   0  0  0  0  0  2  0  0  0  0  0  0
  179.2140  182.0960  135.8040 C   0  0  0  0  0  3  0  0  0  0  0  0
  180.1790  182.4540  136.7630 C   0  0  0  0  0  0  0  0  0  0  0  0
  180.8520  183.6800  136.6150 C   0  0  0  0  0  3  0  0  0  0  0  0
  181.2250  185.7020  135.4110 F   0  0  0  0  0  0  0  0  0  0  0  0
  179.6080  184.1550  134.5940 C   0  0  0  0  0  3  0  0  0  0  0  0
  180.5690  184.5250  135.5380 C   0  0  0  0  0  0  0  0  0  0  0  0
  178.9310  182.9410  134.7270 C   0  0  0  0  0  3  0  0  0  0  0  0
  183.7100  174.4410  138.3100 C   0  0  0  0  0  2  0  0  0  0  0  0
  184.6420  173.5780  137.7290 O   0  0  0  0  0  1  0  0  0  0  0  0
  2 14  1  0  0  0  0
  2 22  1  0  0  0  0
  2 24  1  0  0  0  0
  3 20  1  0  0  0  0
  3  9  1  1  0  0  0
  4  1  1  0  0  0  0
  4 36  1  1  0  0  0
  5 10  1  0  0  0  0
  6 11  1  0  0  0  0
  6 22  1  0  0  0  0
  7  3  1  0  0  0  0
  9  6  2  0  0  0  0
 10 23  1  0  0  0  0
 10  7  1  0  0  0  0
 12  8  1  0  0  0  0
 12  4  1  0  0  0  0
 13  9  1  0  0  0  0
 13 17  1  0  0  0  0
 15 20  1  0  0  0  0
 16 11  1  0  0  0  0
 17  2  1  0  0  0  0
 18  8  1  0  0  0  0
 18 19  1  0  0  0  0
 19  5  1  0  0  0  0
 20 16  1  0  0  0  0
 21  7  1  0  0  0  0
 21 13  1  0  0  0  0
 23 28  1  0  0  0  0
 25 19  1  0  0  0  0
 25 27  1  0  0  0  0
 26  8  1  0  0  0  0
 27  1  1  0  0  0  0
 27 21  1  0  0  0  0
 28 15  1  0  0  0  0
 29 30  1  0  0  0  0
 30 23  1  0  0  0  0
 31 30  2  0  0  0  0
 32 34  1  0  0  0  0
 33 35  1  0  0  0  0
 33 34  2  0  0  0  0
 34 31  1  0  0  0  0
 35 29  2  0  0  0  0
 37 36  1  0  0  0  0
M  END
>  <MODEL>
3

>  <REMARK>
 VINA RESULT:      -5.8      7.032     10.683
  Name = 
  2 active torsions:
  status: ('A' for Active; 'I' for Inactive)
    1  A    between atoms: C_4  and  C_36
    2  A    between atoms: N_23  and  C_30
                            x       y       z     vdW  Elec       q    Type
                         _______ _______ _______ _____ _____    ______ ____

>  <TORSDO>
F 2

$$$$
=
 OpenBabel11122411423D

 37 43  0  0  1  0  0  0  0  0999 V2000
  182.5650  173.1070  137.2950 O   0  0  0  0  0  0  0  0  0  0  0  0
  180.5380  177.4090  138.8850 C   0  0  0  0  0  0  0  0  0  0  0  0
  183.5350  176.2260  136.0960 C   0  0  1  0  0  3  0  0  0  0  0  0
  182.2410  171.7690  137.5930 C   0  0  2  0  0  3  0  0  0  0  0  0
  185.9740  174.1890  135.8770 C   0  0  0  0  0  2  0  0  0  0  0  0
  181.2690  177.1700  136.4600 C   0  0  0  0  0  0  0  0  0  0  0  0
  184.4700  175.8590  137.2300 C   0  0  2  0  0  3  0  0  0  0  0  0
  183.6220  171.2120  135.4740 C   0  0  1  0  0  3  0  0  0  0  0  0
  182.2220  176.2930  136.8000 C   0  0  0  0  0  0  0  0  0  0  0  0
  185.9010  175.3870  136.8400 C   0  0  2  0  0  3  0  0  0  0  0  0
  181.4850  178.0620  135.3550 N   0  0  0  0  0  2  0  0  0  0  0  0
  183.1310  170.7470  136.8500 C   0  0  0  0  0  2  0  0  0  0  0  0
  182.2180  175.6440  138.1390 C   0  0  2  0  0  3  0  0  0  0  0  0
  179.4480  176.7480  139.7020 C   0  0  0  0  0  1  0  0  0  0  0  0
  185.2170  177.6020  134.8290 C   0  0  0  0  0  2  0  0  0  0  0  0
  182.7370  178.0330  134.5940 C   0  0  0  0  0  2  0  0  0  0  0  0
  181.8810  176.7020  139.1880 C   0  0  0  0  0  2  0  0  0  0  0  0
  185.0420  171.7910  135.5410 C   0  0  0  0  0  2  0  0  0  0  0  0
  185.0230  173.0980  136.3090 C   0  0  1  0  0  3  0  0  0  0  0  0
  183.8710  177.6020  135.5220 C   0  0  1  0  0  3  0  0  0  0  0  0
  183.6360  175.0870  138.2990 C   0  0  1  0  0  3  0  0  0  0  0  0
  180.1130  177.3800  137.3940 C   0  0  0  0  0  2  0  0  0  0  0  0
  186.7940  176.4630  136.3720 N   0  0  0  0  0  0  0  0  0  0  0  0
  180.6550  178.8530  139.3260 C   0  0  0  0  0  1  0  0  0  0  0  0
  184.9160  172.9270  137.8120 C   0  0  0  0  0  2  0  0  0  0  0  0
  183.6150  170.1290  134.5970 O   0  0  0  0  0  1  0  0  0  0  0  0
  183.5710  173.5320  138.1980 C   0  0  2  0  0  3  0  0  0  0  0  0
  186.2890  177.7580  135.8970 C   0  0  0  0  0  2  0  0  0  0  0  0
  189.0540  176.2580  135.3770 C   0  0  0  0  0  3  0  0  0  0  0  0
  188.2220  176.3000  136.5110 C   0  0  0  0  0  0  0  0  0  0  0  0
  188.8120  176.1800  137.7820 C   0  0  0  0  0  3  0  0  0  0  0  0
  190.7450  175.9080  139.1480 F   0  0  0  0  0  0  0  0  0  0  0  0
  191.0050  175.9800  136.7800 C   0  0  0  0  0  3  0  0  0  0  0  0
  190.1940  176.0210  137.9160 C   0  0  0  0  0  0  0  0  0  0  0  0
  190.4350  176.0980  135.5110 C   0  0  0  0  0  3  0  0  0  0  0  0
  180.7690  171.5150  137.3000 C   0  0  0  0  0  2  0  0  0  0  0  0
  179.9670  172.4590  137.9470 O   0  0  0  0  0  1  0  0  0  0  0  0
  1  4  1  0  0  0  0
  1 27  1  0  0  0  0
  2 17  1  0  0  0  0
  2 24  1  0  0  0  0
  2 14  1  0  0  0  0
  3  9  1  1  0  0  0
  3  7  1  0  0  0  0
  4 36  1  6  0  0  0
  5 19  1  0  0  0  0
  5 10  1  0  0  0  0
  6  9  2  0  0  0  0
  6 22  1  0  0  0  0
  7 21  1  0  0  0  0
  8 18  1  0  0  0  0
  8 12  1  0  0  0  0
  9 13  1  0  0  0  0
 10  7  1  0  0  0  0
 11  6  1  0  0  0  0
 12  4  1  0  0  0  0
 13 21  1  0  0  0  0
 13 17  1  0  0  0  0
 15 20  1  0  0  0  0
 15 28  1  0  0  0  0
 16 11  1  0  0  0  0
 16 20  1  0  0  0  0
 18 19  1  0  0  0  0
 19 25  1  0  0  0  0
 20  3  1  0  0  0  0
 22  2  1  0  0  0  0
 23 30  1  0  0  0  0
 23 10  1  0  0  0  0
 25 27  1  0  0  0  0
 26  8  1  0  0  0  0
 27 21  1  0  0  0  0
 28 23  1  0  0  0  0
 29 35  2  0  0  0  0
 29 30  1  0  0  0  0
 30 31  2  0  0  0  0
 31 34  1  0  0  0  0
 33 34  2  0  0  0  0
 34 32  1  0  0  0  0
 35 33  1  0  0  0  0
 36 37  1  0  0  0  0
M  END
>  <MODEL>
4

>  <REMARK>
 VINA RESULT:      -4.4      3.864      6.676
  Name = 
  2 active torsions:
  status: ('A' for Active; 'I' for Inactive)
    1  A    between atoms: C_4  and  C_36
    2  A    between atoms: N_23  and  C_30
                            x       y       z     vdW  Elec       q    Type
                         _______ _______ _______ _____ _____    ______ ____

>  <TORSDO>
F 2

$$$$
=
 OpenBabel11122411423D

 37 43  0  0  1  0  0  0  0  0999 V2000
  184.1820  175.0780  136.6640 O   0  0  0  0  0  0  0  0  0  0  0  0
  180.4330  171.7970  136.1000 C   0  0  0  0  0  0  0  0  0  0  0  0
  180.8290  176.0050  136.6500 C   0  0  1  0  0  3  0  0  0  0  0  0
  185.5790  174.9020  136.6040 C   0  0  2  0  0  3  0  0  0  0  0  0
  182.5040  178.0730  138.4000 C   0  0  0  0  0  2  0  0  0  0  0  0
  180.2270  174.1390  135.1280 C   0  0  0  0  0  0  0  0  0  0  0  0
  181.2410  175.7940  138.0930 C   0  0  2  0  0  3  0  0  0  0  0  0
  185.6520  177.4760  136.3290 C   0  0  1  0  0  3  0  0  0  0  0  0
  181.0230  174.6400  136.0820 C   0  0  0  0  0  0  0  0  0  0  0  0
  181.4760  177.0700  138.9530 C   0  0  2  0  0  3  0  0  0  0  0  0
  179.1650  174.9450  134.5940 N   0  0  0  0  0  2  0  0  0  0  0  0
  186.3680  176.2130  136.8230 C   0  0  0  0  0  2  0  0  0  0  0  0
  181.8560  173.7420  136.9290 C   0  0  2  0  0  3  0  0  0  0  0  0
  181.3320  170.6230  135.7760 C   0  0  0  0  0  1  0  0  0  0  0  0
  179.0910  177.7540  137.1460 C   0  0  0  0  0  2  0  0  0  0  0  0
  178.9320  176.3080  135.0790 C   0  0  0  0  0  2  0  0  0  0  0  0
  181.0090  172.5360  137.3320 C   0  0  0  0  0  2  0  0  0  0  0  0
  184.9220  178.2000  137.4680 C   0  0  0  0  0  2  0  0  0  0  0  0
  183.7530  177.3580  137.9390 C   0  0  1  0  0  3  0  0  0  0  0  0
  179.3540  176.3900  136.5450 C   0  0  1  0  0  3  0  0  0  0  0  0
  182.2550  174.6090  138.1270 C   0  0  1  0  0  3  0  0  0  0  0  0
  180.2960  172.6700  134.8260 C   0  0  0  0  0  2  0  0  0  0  0  0
  180.2430  177.7790  139.3450 N   0  0  0  0  0  0  0  0  0  0  0  0
  179.0640  171.2620  136.4690 C   0  0  0  0  0  1  0  0  0  0  0  0
  184.1510  176.1820  138.8100 C   0  0  0  0  0  2  0  0  0  0  0  0
  186.5890  178.3420  135.7690 O   0  0  0  0  0  1  0  0  0  0  0  0
  183.7760  174.9380  138.0140 C   0  0  2  0  0  3  0  0  0  0  0  0
  178.9640  177.5810  138.6520 C   0  0  0  0  0  2  0  0  0  0  0  0
  179.5060  179.7840  140.5990 C   0  0  0  0  0  3  0  0  0  0  0  0
  180.2520  178.5930  140.5380 C   0  0  0  0  0  0  0  0  0  0  0  0
  181.0060  178.2130  141.6620 C   0  0  0  0  0  3  0  0  0  0  0  0
  181.7460  178.6200  143.8910 F   0  0  0  0  0  0  0  0  0  0  0  0
  180.2700  180.1820  142.8610 C   0  0  0  0  0  3  0  0  0  0  0  0
  181.0150  179.0020  142.8160 C   0  0  0  0  0  0  0  0  0  0  0  0
  179.5160  180.5730  141.7530 C   0  0  0  0  0  3  0  0  0  0  0  0
  185.9620  174.2560  135.2800 C   0  0  0  0  0  2  0  0  0  0  0  0
  184.9520  173.3980  134.8390 O   0  0  0  0  0  1  0  0  0  0  0  0
  1 27  1  0  0  0  0
  2 24  1  0  0  0  0
  2 17  1  0  0  0  0
  3  9  1  6  0  0  0
  3  7  1  0  0  0  0
  4 36  1  6  0  0  0
  4  1  1  0  0  0  0
  4 12  1  0  0  0  0
  5 10  1  0  0  0  0
  6  9  2  0  0  0  0
  7 21  1  0  0  0  0
  7 10  1  0  0  0  0
  8 12  1  0  0  0  0
  8 18  1  0  0  0  0
  9 13  1  0  0  0  0
 10 23  1  0  0  0  0
 11 16  1  0  0  0  0
 11  6  1  0  0  0  0
 13 17  1  0  0  0  0
 13 21  1  0  0  0  0
 14  2  1  0  0  0  0
 15 28  1  0  0  0  0
 16 20  1  0  0  0  0
 18 19  1  0  0  0  0
 19  5  1  0  0  0  0
 19 25  1  0  0  0  0
 20  3  1  0  0  0  0
 20 15  1  0  0  0  0
 22  6  1  0  0  0  0
 22  2  1  0  0  0  0
 23 30  1  0  0  0  0
 26  8  1  0  0  0  0
 27 21  1  0  0  0  0
 27 25  1  0  0  0  0
 28 23  1  0  0  0  0
 29 35  1  0  0  0  0
 30 29  2  0  0  0  0
 30 31  1  0  0  0  0
 31 34  2  0  0  0  0
 34 33  1  0  0  0  0
 34 32  1  0  0  0  0
 35 33  2  0  0  0  0
 37 36  1  0  0  0  0
M  END
>  <MODEL>
5

>  <REMARK>
 VINA RESULT:      -4.2      5.783      9.685
  Name = 
  2 active torsions:
  status: ('A' for Active; 'I' for Inactive)
    1  A    between atoms: C_4  and  C_36
    2  A    between atoms: N_23  and  C_30
                            x       y       z     vdW  Elec       q    Type
                         _______ _______ _______ _____ _____    ______ ____

>  <TORSDO>
F 2

$$$$
=
 OpenBabel11122411423D

 37 43  0  0  1  0  0  0  0  0999 V2000
  183.1570  174.8090  136.5270 O   0  0  0  0  0  0  0  0  0  0  0  0
  187.6900  176.7060  135.5290 C   0  0  0  0  0  0  0  0  0  0  0  0
  184.4790  177.5590  138.1980 C   0  0  1  0  0  3  0  0  0  0  0  0
  182.5060  173.6640  136.0270 C   0  0  2  0  0  3  0  0  0  0  0  0
  181.2990  177.7420  138.1830 C   0  0  0  0  0  2  0  0  0  0  0  0
  186.8010  176.7300  137.9120 C   0  0  0  0  0  0  0  0  0  0  0  0
  183.6400  178.0800  137.0490 C   0  0  2  0  0  3  0  0  0  0  0  0
  180.9510  173.9440  138.0790 C   0  0  1  0  0  3  0  0  0  0  0  0
  185.5370  176.7970  137.4740 C   0  0  0  0  0  0  0  0  0  0  0  0
  182.2460  178.6730  137.4050 C   0  0  2  0  0  3  0  0  0  0  0  0
  187.1630  177.3790  139.1420 N   0  0  0  0  0  2  0  0  0  0  0  0
  181.1020  173.4470  136.6360 C   0  0  0  0  0  2  0  0  0  0  0  0
  185.2050  176.4970  136.0540 C   0  0  2  0  0  3  0  0  0  0  0  0
  188.0990  175.5870  134.5940 C   0  0  0  0  0  1  0  0  0  0  0  0
  184.0910  179.5390  139.7000 C   0  0  0  0  0  2  0  0  0  0  0  0
  186.1710  178.1200  139.9260 C   0  0  0  0  0  2  0  0  0  0  0  0
  186.2570  177.1570  135.1630 C   0  0  0  0  0  2  0  0  0  0  0  0
  180.3180  175.3410  138.1380 C   0  0  0  0  0  2  0  0  0  0  0  0
  181.2830  176.3620  137.5700 C   0  0  1  0  0  3  0  0  0  0  0  0
  185.1260  178.7040  138.9760 C   0  0  1  0  0  3  0  0  0  0  0  0
  183.8070  177.0890  135.8540 C   0  0  1  0  0  3  0  0  0  0  0  0
  187.8610  176.2060  136.9870 C   0  0  0  0  0  2  0  0  0  0  0  0
  182.2910  179.9980  138.0510 N   0  0  0  0  0  0  0  0  0  0  0  0
  188.6250  177.8770  135.3080 C   0  0  0  0  0  1  0  0  0  0  0  0
  181.3660  176.3550  136.0550 C   0  0  0  0  0  2  0  0  0  0  0  0
  180.1480  173.0520  138.7870 O   0  0  0  0  0  1  0  0  0  0  0  0
  182.7870  175.9160  135.7250 C   0  0  2  0  0  3  0  0  0  0  0  0
  183.5030  180.5210  138.6970 C   0  0  0  0  0  2  0  0  0  0  0  0
  180.4370  181.2860  139.0700 C   0  0  0  0  0  3  0  0  0  0  0  0
  181.1520  180.8770  137.9300 C   0  0  0  0  0  0  0  0  0  0  0  0
  180.7340  181.3420  136.6710 C   0  0  0  0  0  3  0  0  0  0  0  0
  179.2420  182.6310  135.3330 F   0  0  0  0  0  0  0  0  0  0  0  0
  178.9310  182.5880  137.6950 C   0  0  0  0  0  3  0  0  0  0  0  0
  179.6300  182.1920  136.5540 C   0  0  0  0  0  0  0  0  0  0  0  0
  179.3330  182.1350  138.9530 C   0  0  0  0  0  3  0  0  0  0  0  0
  183.3810  172.4370  136.2380 C   0  0  0  0  0  2  0  0  0  0  0  0
  184.7310  172.7590  136.0780 O   0  0  0  0  0  1  0  0  0  0  0  0
  2 22  1  0  0  0  0
  3  9  1  6  0  0  0
  3 20  1  0  0  0  0
  4 36  1  1  0  0  0
  4  1  1  0  0  0  0
  4 12  1  0  0  0  0
  6 11  1  0  0  0  0
  7 10  1  0  0  0  0
  7  3  1  0  0  0  0
  8 18  1  0  0  0  0
  8 26  1  0  0  0  0
  9  6  2  0  0  0  0
 10 23  1  0  0  0  0
 10  5  1  0  0  0  0
 11 16  1  0  0  0  0
 12  8  1  0  0  0  0
 13  9  1  0  0  0  0
 14  2  1  0  0  0  0
 17  2  1  0  0  0  0
 17 13  1  0  0  0  0
 19 18  1  0  0  0  0
 19  5  1  0  0  0  0
 20 15  1  0  0  0  0
 20 16  1  0  0  0  0
 21 13  1  0  0  0  0
 21  7  1  0  0  0  0
 22  6  1  0  0  0  0
 23 28  1  0  0  0  0
 24  2  1  0  0  0  0
 25 19  1  0  0  0  0
 27 21  1  0  0  0  0
 27 25  1  0  0  0  0
 27  1  1  0  0  0  0
 28 15  1  0  0  0  0
 30 23  1  0  0  0  0
 30 29  2  0  0  0  0
 31 30  1  0  0  0  0
 32 34  1  0  0  0  0
 33 35  2  0  0  0  0
 34 31  2  0  0  0  0
 34 33  1  0  0  0  0
 35 29  1  0  0  0  0
 37 36  1  0  0  0  0
M  END
>  <MODEL>
6

>  <REMARK>
 VINA RESULT:      -4.1      5.036      9.593
  Name = 
  2 active torsions:
  status: ('A' for Active; 'I' for Inactive)
    1  A    between atoms: C_4  and  C_36
    2  A    between atoms: N_23  and  C_30
                            x       y       z     vdW  Elec       q    Type
                         _______ _______ _______ _____ _____    ______ ____

>  <TORSDO>
F 2

$$$$
