=
 OpenBabel11122412233D

 34 40  0  0  1  0  0  0  0  0999 V2000
  188.0280  177.7940  142.0740 C   0  0  0  0  0  0  0  0  0  0  0  0
  186.2350  178.5900  140.4050 C   0  0  0  0  0  3  0  0  0  0  0  0
  190.4610  177.6800  148.0940 C   0  0  0  0  0  0  0  0  0  0  0  0
  189.5790  177.0890  143.7800 C   0  0  0  0  0  0  0  0  0  0  0  0
  188.9540  177.3260  146.1260 C   0  0  0  0  0  0  0  0  0  0  0  0
  187.9850  177.5560  148.4740 C   0  0  0  0  0  1  0  0  0  0  0  0
  190.5050  178.7530  148.7530 O   0  0  0  0  0  0  0  0  0  0  0  0
  191.6210  175.8930  146.8250 C   0  0  0  0  0  2  0  0  0  0  0  0
  185.8260  178.7380  142.7250 C   0  0  0  0  0  0  0  0  0  0  0  0
  182.9130  178.7130  143.9480 C   0  0  0  0  0  2  0  0  0  0  0  0
  187.7590  177.8460  145.7210 N   0  0  0  0  0  0  0  0  0  0  0  0
  191.3210  176.4220  145.4290 C   0  0  0  0  0  2  0  0  0  0  0  0
  186.1090  178.5950  144.0330 C   0  0  0  0  0  0  0  0  0  0  0  0
  184.8470  179.2130  140.6190 C   0  0  0  0  0  3  0  0  0  0  0  0
  189.9130  176.9200  145.1400 C   0  0  0  0  0  0  0  0  0  0  0  0
  191.6660  177.0030  147.7620 N   0  0  0  0  0  2  0  0  0  0  0  0
  183.3680  178.3930  142.5280 C   0  0  2  0  0  3  0  0  0  0  0  0
  188.3390  177.6340  143.4270 C   0  0  0  0  0  0  0  0  0  0  0  0
  189.1630  177.1130  147.6090 C   0  0  2  0  0  3  0  0  0  0  0  0
  187.4260  178.0180  144.4170 C   0  0  0  0  0  0  0  0  0  0  0  0
  190.1280  176.9000  141.4760 C   0  0  0  0  0  3  0  0  0  0  0  0
  183.8600  178.1540  145.0020 C   0  0  0  0  0  2  0  0  0  0  0  0
  190.4470  176.7360  142.7900 N   0  0  0  0  0  0  0  0  0  0  0  0
  185.1260  178.9950  145.0900 C   0  0  0  0  0  2  0  0  0  0  0  0
  184.5690  179.2710  142.1350 C   0  0  1  0  0  3  0  0  0  0  0  0
  188.9240  177.4250  141.1210 N   0  0  0  0  0  0  0  0  0  0  0  0
  186.7560  178.3550  141.7320 N   0  0  0  0  0  0  0  0  0  0  0  0
  182.2730  178.6190  141.6530 O   0  0  0  0  0  0  0  0  0  0  0  0
  181.1650  179.3120  142.0880 N   0  0  0  0  0  0  0  0  0  0  0  0
  178.9310  181.6610  140.5670 N   0  0  0  0  0  2  0  0  0  0  0  0
  180.8420  180.3150  139.8830 C   0  0  0  0  0  2  0  0  0  0  0  0
  180.5040  180.0890  141.2930 C   0  0  0  0  0  0  0  0  0  0  0  0
  179.6970  181.1900  139.4070 C   0  0  0  0  0  2  0  0  0  0  0  0
  179.3170  180.8440  141.7140 C   0  0  0  0  0  2  0  0  0  0  0  0
  1 18  1  0  0  0  0
  2 14  2  0  0  0  0
  2 27  1  0  0  0  0
  3  7  2  0  0  0  0
  4 15  1  0  0  0  0
  5 19  1  0  0  0  0
  8 16  1  0  0  0  0
  9 13  2  0  0  0  0
 10 22  1  0  0  0  0
 11  5  1  0  0  0  0
 12  8  1  0  0  0  0
 13 20  1  0  0  0  0
 13 24  1  0  0  0  0
 15 12  1  0  0  0  0
 15  5  2  0  0  0  0
 16  3  1  0  0  0  0
 17 28  1  6  0  0  0
 17 10  1  0  0  0  0
 18  4  2  0  0  0  0
 18 20  1  0  0  0  0
 19  3  1  0  0  0  0
 19  6  1  1  0  0  0
 20 11  2  0  0  0  0
 21 23  2  0  0  0  0
 22 24  1  0  0  0  0
 23  4  1  0  0  0  0
 25 14  1  6  0  0  0
 25 17  1  0  0  0  0
 25  9  1  0  0  0  0
 26 21  1  0  0  0  0
 26  1  2  0  0  0  0
 27  1  1  0  0  0  0
 27  9  1  0  0  0  0
 28 29  1  0  0  0  0
 30 34  1  0  0  0  0
 31 32  1  0  0  0  0
 32 34  1  0  0  0  0
 32 29  2  0  0  0  0
 33 31  1  0  0  0  0
 33 30  1  0  0  0  0
M  END
>  <MODEL>
1

>  <REMARK>
 VINA RESULT:     -10.2      0.000      0.000
  Name = 
  2 active torsions:
  status: ('A' for Active; 'I' for Inactive)
    1  A    between atoms: C_17  and  O_28
    2  A    between atoms: O_28  and  N_29
                            x       y       z     vdW  Elec       q    Type
                         _______ _______ _______ _____ _____    ______ ____

>  <TORSDO>
F 2

$$$$
=
 OpenBabel11122412233D

 34 40  0  0  1  0  0  0  0  0999 V2000
  183.8940  178.6700  144.1760 C   0  0  0  0  0  0  0  0  0  0  0  0
  181.4930  179.0410  143.3230 C   0  0  0  0  0  3  0  0  0  0  0  0
  189.9270  176.4580  143.2310 C   0  0  0  0  0  0  0  0  0  0  0  0
  186.1980  178.3050  144.7880 C   0  0  0  0  0  0  0  0  0  0  0  0
  187.8280  177.8100  143.0420 C   0  0  0  0  0  0  0  0  0  0  0  0
  189.3270  177.4550  141.0090 C   0  0  0  0  0  1  0  0  0  0  0  0
  190.0840  175.3360  142.6810 O   0  0  0  0  0  0  0  0  0  0  0  0
  190.0020  177.8830  145.2590 C   0  0  0  0  0  2  0  0  0  0  0  0
  183.2180  178.5460  141.7900 C   0  0  0  0  0  0  0  0  0  0  0  0
  183.1160  179.4350  138.7610 C   0  0  0  0  0  2  0  0  0  0  0  0
  186.8220  177.9060  142.1220 N   0  0  0  0  0  0  0  0  0  0  0  0
  188.5140  177.8440  145.5780 C   0  0  0  0  0  2  0  0  0  0  0  0
  184.4790  178.2670  141.4090 C   0  0  0  0  0  0  0  0  0  0  0  0
  180.8920  178.9820  141.9100 C   0  0  0  0  0  3  0  0  0  0  0  0
  187.5310  178.0180  144.4290 C   0  0  0  0  0  0  0  0  0  0  0  0
  190.3780  176.6640  144.5630 N   0  0  0  0  0  2  0  0  0  0  0  0
  182.2270  179.8630  139.9250 C   0  0  2  0  0  3  0  0  0  0  0  0
  185.2090  178.3850  143.8000 C   0  0  0  0  0  0  0  0  0  0  0  0
  189.2320  177.5830  142.5270 C   0  0  2  0  0  3  0  0  0  0  0  0
  185.5350  178.1780  142.4540 C   0  0  0  0  0  0  0  0  0  0  0  0
  184.5550  178.7790  146.4390 C   0  0  0  0  0  3  0  0  0  0  0  0
  184.5820  179.3240  139.1590 C   0  0  0  0  0  2  0  0  0  0  0  0
  185.8430  178.5030  146.0890 N   0  0  0  0  0  0  0  0  0  0  0  0
  184.8270  178.0570  139.9670 C   0  0  0  0  0  2  0  0  0  0  0  0
  182.0300  178.6970  140.9090 C   0  0  1  0  0  3  0  0  0  0  0  0
  183.5880  178.8630  145.4860 N   0  0  0  0  0  0  0  0  0  0  0  0
  182.8970  178.7470  143.1520 N   0  0  0  0  0  0  0  0  0  0  0  0
  180.9810  180.2880  139.3940 O   0  0  0  0  0  0  0  0  0  0  0  0
  180.7690  181.6140  139.0900 N   0  0  0  0  0  0  0  0  0  0  0  0
  180.4520  183.4600  136.0380 N   0  0  0  0  0  2  0  0  0  0  0  0
  180.7310  181.1310  136.6950 C   0  0  0  0  0  2  0  0  0  0  0  0
  180.6530  182.0130  137.8660 C   0  0  0  0  0  0  0  0  0  0  0  0
  180.4140  182.0760  135.5510 C   0  0  0  0  0  2  0  0  0  0  0  0
  180.4240  183.4160  137.4970 C   0  0  0  0  0  2  0  0  0  0  0  0
  1 26  1  0  0  0  0
  3 16  1  0  0  0  0
  4 23  2  0  0  0  0
  5 15  2  0  0  0  0
  7  3  2  0  0  0  0
  8 12  1  0  0  0  0
  9 27  1  0  0  0  0
 10 22  1  0  0  0  0
 10 17  1  0  0  0  0
 11 20  2  0  0  0  0
 11  5  1  0  0  0  0
 13  9  2  0  0  0  0
 13 20  1  0  0  0  0
 14  2  2  0  0  0  0
 15  4  1  0  0  0  0
 15 12  1  0  0  0  0
 16  8  1  0  0  0  0
 17 28  1  6  0  0  0
 17 25  1  0  0  0  0
 18  1  2  0  0  0  0
 18  4  1  0  0  0  0
 19  6  1  6  0  0  0
 19  5  1  0  0  0  0
 19  3  1  0  0  0  0
 20 18  1  0  0  0  0
 22 24  1  0  0  0  0
 23 21  1  0  0  0  0
 24 13  1  0  0  0  0
 25  9  1  0  0  0  0
 25 14  1  1  0  0  0
 26 21  2  0  0  0  0
 27  2  1  0  0  0  0
 27  1  1  0  0  0  0
 29 28  1  0  0  0  0
 30 34  1  0  0  0  0
 31 32  1  0  0  0  0
 32 29  2  0  0  0  0
 33 30  1  0  0  0  0
 33 31  1  0  0  0  0
 34 32  1  0  0  0  0
M  END
>  <MODEL>
2

>  <REMARK>
 VINA RESULT:     -10.0      2.375      4.632
  Name = 
  2 active torsions:
  status: ('A' for Active; 'I' for Inactive)
    1  A    between atoms: C_17  and  O_28
    2  A    between atoms: O_28  and  N_29
                            x       y       z     vdW  Elec       q    Type
                         _______ _______ _______ _____ _____    ______ ____

>  <TORSDO>
F 2

$$$$
=
 OpenBabel11122412233D

 34 40  0  0  1  0  0  0  0  0999 V2000
  189.6740  177.4670  141.7540 C   0  0  0  0  0  0  0  0  0  0  0  0
  189.9770  177.7320  139.2110 C   0  0  0  0  0  3  0  0  0  0  0  0
  186.4260  178.8300  147.2100 C   0  0  0  0  0  0  0  0  0  0  0  0
  189.2050  177.2760  144.1120 C   0  0  0  0  0  0  0  0  0  0  0  0
  187.0100  177.9380  144.9450 C   0  0  0  0  0  0  0  0  0  0  0  0
  184.6030  178.5640  145.5090 C   0  0  0  0  0  1  0  0  0  0  0  0
  186.0550  180.0160  147.4180 O   0  0  0  0  0  0  0  0  0  0  0  0
  187.9310  176.9290  147.7350 C   0  0  0  0  0  2  0  0  0  0  0  0
  187.9250  178.3220  140.2150 C   0  0  0  0  0  0  0  0  0  0  0  0
  185.1850  178.2910  138.6430 C   0  0  0  0  0  2  0  0  0  0  0  0
  186.6560  178.2530  143.6640 N   0  0  0  0  0  0  0  0  0  0  0  0
  188.9010  177.1270  146.5790 C   0  0  0  0  0  2  0  0  0  0  0  0
  187.0560  178.4820  141.2310 C   0  0  0  0  0  0  0  0  0  0  0  0
  189.0310  178.2580  138.1210 C   0  0  0  0  0  3  0  0  0  0  0  0
  188.3230  177.4240  145.2030 C   0  0  0  0  0  0  0  0  0  0  0  0
  187.3470  178.2100  148.0990 N   0  0  0  0  0  2  0  0  0  0  0  0
  186.5410  177.7240  138.2350 C   0  0  2  0  0  3  0  0  0  0  0  0
  188.7860  177.6210  142.8220 C   0  0  0  0  0  0  0  0  0  0  0  0
  185.9510  178.0590  146.0180 C   0  0  2  0  0  3  0  0  0  0  0  0
  187.4950  178.1190  142.6060 C   0  0  0  0  0  0  0  0  0  0  0  0
  191.3260  176.6600  143.2340 C   0  0  0  0  0  3  0  0  0  0  0  0
  184.8740  178.0510  140.1150 C   0  0  0  0  0  2  0  0  0  0  0  0
  190.4720  176.8030  144.2860 N   0  0  0  0  0  0  0  0  0  0  0  0
  185.6710  179.0030  140.9960 C   0  0  0  0  0  2  0  0  0  0  0  0
  187.6790  178.6060  138.7760 C   0  0  1  0  0  3  0  0  0  0  0  0
  190.9270  176.9900  141.9760 N   0  0  0  0  0  0  0  0  0  0  0  0
  189.2290  177.8260  140.4430 N   0  0  0  0  0  0  0  0  0  0  0  0
  186.5830  177.6630  136.8170 O   0  0  0  0  0  0  0  0  0  0  0  0
  186.0010  176.6110  136.1460 N   0  0  0  0  0  0  0  0  0  0  0  0
  187.2540  173.6350  134.5970 N   0  0  0  0  0  2  0  0  0  0  0  0
  188.1610  175.4990  135.8770 C   0  0  0  0  0  2  0  0  0  0  0  0
  186.7070  175.6180  135.7120 C   0  0  0  0  0  0  0  0  0  0  0  0
  188.4440  174.1210  135.3060 C   0  0  0  0  0  2  0  0  0  0  0  0
  186.1280  174.4740  134.9950 C   0  0  0  0  0  2  0  0  0  0  0  0
  1 26  2  0  0  0  0
  1 18  1  0  0  0  0
  2 27  1  0  0  0  0
  3  7  2  0  0  0  0
  3 16  1  0  0  0  0
  4 23  1  0  0  0  0
  4 15  1  0  0  0  0
  5 15  2  0  0  0  0
  5 19  1  0  0  0  0
  8 16  1  0  0  0  0
  9 27  1  0  0  0  0
  9 13  2  0  0  0  0
 10 22  1  0  0  0  0
 11  5  1  0  0  0  0
 12  8  1  0  0  0  0
 13 20  1  0  0  0  0
 14  2  2  0  0  0  0
 15 12  1  0  0  0  0
 17 28  1  6  0  0  0
 17 10  1  0  0  0  0
 17 25  1  0  0  0  0
 18  4  2  0  0  0  0
 19  6  1  6  0  0  0
 19  3  1  0  0  0  0
 20 18  1  0  0  0  0
 20 11  2  0  0  0  0
 21 23  2  0  0  0  0
 22 24  1  0  0  0  0
 24 13  1  0  0  0  0
 25 14  1  6  0  0  0
 25  9  1  0  0  0  0
 26 21  1  0  0  0  0
 27  1  1  0  0  0  0
 29 28  1  0  0  0  0
 30 34  1  0  0  0  0
 30 33  1  0  0  0  0
 32 31  1  0  0  0  0
 32 29  2  0  0  0  0
 33 31  1  0  0  0  0
 34 32  1  0  0  0  0
M  END
>  <MODEL>
3

>  <REMARK>
 VINA RESULT:      -9.9      3.390      5.644
  Name = 
  2 active torsions:
  status: ('A' for Active; 'I' for Inactive)
    1  A    between atoms: C_17  and  O_28
    2  A    between atoms: O_28  and  N_29
                            x       y       z     vdW  Elec       q    Type
                         _______ _______ _______ _____ _____    ______ ____

>  <TORSDO>
F 2

$$$$
=
 OpenBabel11122412233D

 34 40  0  0  1  0  0  0  0  0999 V2000
  188.0960  177.7520  142.0520 C   0  0  0  0  0  0  0  0  0  0  0  0
  186.3420  178.5780  140.3560 C   0  0  0  0  0  3  0  0  0  0  0  0
  190.4510  177.6190  148.1020 C   0  0  0  0  0  0  0  0  0  0  0  0
  189.6090  177.0220  143.7810 C   0  0  0  0  0  0  0  0  0  0  0  0
  188.9610  177.2860  146.1180 C   0  0  0  0  0  0  0  0  0  0  0  0
  187.9690  177.5520  148.4520 C   0  0  0  0  0  1  0  0  0  0  0  0
  190.5120  178.6940  148.7560 O   0  0  0  0  0  0  0  0  0  0  0  0
  191.5850  175.7980  146.8580 C   0  0  0  0  0  2  0  0  0  0  0  0
  185.9080  178.7490  142.6700 C   0  0  0  0  0  0  0  0  0  0  0  0
  182.9810  178.7980  143.8560 C   0  0  0  0  0  2  0  0  0  0  0  0
  187.7830  177.8320  145.6950 N   0  0  0  0  0  0  0  0  0  0  0  0
  191.3150  176.3250  145.4550 C   0  0  0  0  0  2  0  0  0  0  0  0
  186.1720  178.6080  143.9820 C   0  0  0  0  0  0  0  0  0  0  0  0
  184.9660  179.2340  140.5500 C   0  0  0  0  0  3  0  0  0  0  0  0
  189.9220  176.8530  145.1460 C   0  0  0  0  0  0  0  0  0  0  0  0
  191.6450  176.9120  147.7890 N   0  0  0  0  0  2  0  0  0  0  0  0
  183.4460  178.4590  142.4440 C   0  0  2  0  0  3  0  0  0  0  0  0
  188.3870  177.5930  143.4090 C   0  0  0  0  0  0  0  0  0  0  0  0
  189.1460  177.0780  147.6050 C   0  0  2  0  0  3  0  0  0  0  0  0
  187.4710  178.0040  144.3860 C   0  0  0  0  0  0  0  0  0  0  0  0
  190.1820  176.8060  141.4850 C   0  0  0  0  0  3  0  0  0  0  0  0
  183.9020  178.2240  144.9250 C   0  0  0  0  0  2  0  0  0  0  0  0
  190.4810  176.6430  142.8040 N   0  0  0  0  0  0  0  0  0  0  0  0
  185.1850  179.0360  145.0250 C   0  0  0  0  0  2  0  0  0  0  0  0
  184.6710  179.3070  142.0620 C   0  0  1  0  0  3  0  0  0  0  0  0
  188.9940  177.3570  141.1120 N   0  0  0  0  0  0  0  0  0  0  0  0
  186.8410  178.3390  141.6900 N   0  0  0  0  0  0  0  0  0  0  0  0
  182.3670  178.7050  141.5550 O   0  0  0  0  0  0  0  0  0  0  0  0
  181.8430  177.6830  140.7940 N   0  0  0  0  0  0  0  0  0  0  0  0
  180.6730  177.4260  137.4190 N   0  0  0  0  0  2  0  0  0  0  0  0
  181.6940  179.1300  138.8300 C   0  0  0  0  0  2  0  0  0  0  0  0
  181.5320  177.8620  139.5520 C   0  0  0  0  0  0  0  0  0  0  0  0
  181.3000  178.7540  137.4130 C   0  0  0  0  0  2  0  0  0  0  0  0
  180.9730  176.8010  138.7040 C   0  0  0  0  0  2  0  0  0  0  0  0
  1 18  1  0  0  0  0
  2 14  2  0  0  0  0
  2 27  1  0  0  0  0
  3  7  2  0  0  0  0
  4 15  1  0  0  0  0
  5 19  1  0  0  0  0
  8 16  1  0  0  0  0
  9 13  2  0  0  0  0
 10 22  1  0  0  0  0
 11  5  1  0  0  0  0
 12  8  1  0  0  0  0
 13 20  1  0  0  0  0
 13 24  1  0  0  0  0
 15 12  1  0  0  0  0
 15  5  2  0  0  0  0
 16  3  1  0  0  0  0
 17 28  1  6  0  0  0
 17 10  1  0  0  0  0
 18  4  2  0  0  0  0
 18 20  1  0  0  0  0
 19  3  1  0  0  0  0
 19  6  1  1  0  0  0
 20 11  2  0  0  0  0
 21 23  2  0  0  0  0
 22 24  1  0  0  0  0
 23  4  1  0  0  0  0
 25 14  1  6  0  0  0
 25 17  1  0  0  0  0
 25  9  1  0  0  0  0
 26 21  1  0  0  0  0
 26  1  2  0  0  0  0
 27  1  1  0  0  0  0
 27  9  1  0  0  0  0
 29 28  1  0  0  0  0
 30 34  1  0  0  0  0
 31 32  1  0  0  0  0
 32 29  2  0  0  0  0
 33 30  1  0  0  0  0
 33 31  1  0  0  0  0
 34 32  1  0  0  0  0
M  END
>  <MODEL>
4

>  <REMARK>
 VINA RESULT:      -9.8      1.399      1.617
  Name = 
  2 active torsions:
  status: ('A' for Active; 'I' for Inactive)
    1  A    between atoms: C_17  and  O_28
    2  A    between atoms: O_28  and  N_29
                            x       y       z     vdW  Elec       q    Type
                         _______ _______ _______ _____ _____    ______ ____

>  <TORSDO>
F 2

$$$$
=
 OpenBabel11122412233D

 34 40  0  0  1  0  0  0  0  0999 V2000
  186.1690  178.3360  145.6430 C   0  0  0  0  0  0  0  0  0  0  0  0
  184.0480  178.7820  144.2530 C   0  0  0  0  0  3  0  0  0  0  0  0
  192.0510  175.6460  146.2340 C   0  0  0  0  0  0  0  0  0  0  0  0
  188.2480  177.8780  146.7760 C   0  0  0  0  0  0  0  0  0  0  0  0
  190.1660  177.1100  145.4780 C   0  0  0  0  0  0  0  0  0  0  0  0
  192.0300  176.4630  143.8630 C   0  0  0  0  0  1  0  0  0  0  0  0
  192.2260  174.4680  145.8230 O   0  0  0  0  0  0  0  0  0  0  0  0
  191.8120  177.2510  148.1090 C   0  0  0  0  0  2  0  0  0  0  0  0
  186.0130  178.0290  143.1840 C   0  0  0  0  0  0  0  0  0  0  0  0
  186.6390  178.6280  140.1470 C   0  0  0  0  0  2  0  0  0  0  0  0
  189.3930  177.1850  144.3550 N   0  0  0  0  0  0  0  0  0  0  0  0
  190.2920  177.3420  148.0930 C   0  0  0  0  0  2  0  0  0  0  0  0
  187.2970  177.6310  143.1150 C   0  0  0  0  0  0  0  0  0  0  0  0
  183.7610  178.6280  142.7520 C   0  0  0  0  0  3  0  0  0  0  0  0
  189.5980  177.4700  146.7450 C   0  0  0  0  0  0  0  0  0  0  0  0
  192.2220  175.9480  147.6120 N   0  0  0  0  0  2  0  0  0  0  0  0
  185.5620  179.2230  141.0470 C   0  0  2  0  0  3  0  0  0  0  0  0
  187.5050  177.9290  145.5910 C   0  0  0  0  0  0  0  0  0  0  0  0
  191.6230  176.7420  145.3070 C   0  0  2  0  0  3  0  0  0  0  0  0
  188.0930  177.5720  144.3710 C   0  0  0  0  0  0  0  0  0  0  0  0
  186.3370  178.6170  147.9800 C   0  0  0  0  0  3  0  0  0  0  0  0
  187.9700  178.4580  140.8670 C   0  0  0  0  0  2  0  0  0  0  0  0
  187.6410  178.2240  147.9470 N   0  0  0  0  0  0  0  0  0  0  0  0
  187.9270  177.2610  141.8060 C   0  0  0  0  0  2  0  0  0  0  0  0
  185.0590  178.1730  142.0520 C   0  0  1  0  0  3  0  0  0  0  0  0
  185.6070  178.6730  146.8330 N   0  0  0  0  0  0  0  0  0  0  0  0
  185.4250  178.3800  144.4210 N   0  0  0  0  0  0  0  0  0  0  0  0
  184.5000  179.6780  140.2220 O   0  0  0  0  0  0  0  0  0  0  0  0
  184.2320  179.0530  139.0240 N   0  0  0  0  0  0  0  0  0  0  0  0
  181.2920  177.6400  137.5450 N   0  0  0  0  0  2  0  0  0  0  0  0
  181.8640  178.8390  139.5880 C   0  0  0  0  0  2  0  0  0  0  0  0
  183.0360  178.6650  138.7220 C   0  0  0  0  0  0  0  0  0  0  0  0
  180.7320  178.3290  138.7140 C   0  0  0  0  0  2  0  0  0  0  0  0
  182.7050  177.9980  137.4560 C   0  0  0  0  0  2  0  0  0  0  0  0
  1 26  1  0  0  0  0
  2 27  1  0  0  0  0
  3 16  1  0  0  0  0
  4 23  2  0  0  0  0
  5 15  2  0  0  0  0
  7  3  2  0  0  0  0
  9 27  1  0  0  0  0
 10 22  1  0  0  0  0
 10 17  1  0  0  0  0
 11 20  2  0  0  0  0
 11  5  1  0  0  0  0
 12  8  1  0  0  0  0
 13  9  2  0  0  0  0
 13 20  1  0  0  0  0
 14  2  2  0  0  0  0
 15  4  1  0  0  0  0
 15 12  1  0  0  0  0
 16  8  1  0  0  0  0
 17 28  1  6  0  0  0
 17 25  1  0  0  0  0
 18  1  2  0  0  0  0
 18  4  1  0  0  0  0
 19  6  1  6  0  0  0
 19  5  1  0  0  0  0
 19  3  1  0  0  0  0
 20 18  1  0  0  0  0
 22 24  1  0  0  0  0
 23 21  1  0  0  0  0
 24 13  1  0  0  0  0
 25 14  1  1  0  0  0
 25  9  1  0  0  0  0
 26 21  2  0  0  0  0
 27  1  1  0  0  0  0
 29 28  1  0  0  0  0
 30 33  1  0  0  0  0
 32 29  2  0  0  0  0
 32 31  1  0  0  0  0
 33 31  1  0  0  0  0
 34 30  1  0  0  0  0
 34 32  1  0  0  0  0
M  END
>  <MODEL>
5

>  <REMARK>
 VINA RESULT:      -9.7      2.279      4.004
  Name = 
  2 active torsions:
  status: ('A' for Active; 'I' for Inactive)
    1  A    between atoms: C_17  and  O_28
    2  A    between atoms: O_28  and  N_29
                            x       y       z     vdW  Elec       q    Type
                         _______ _______ _______ _____ _____    ______ ____

>  <TORSDO>
F 2

$$$$
=
 OpenBabel11122412233D

 34 40  0  0  1  0  0  0  0  0999 V2000
  190.3930  177.3650  143.1670 C   0  0  0  0  0  0  0  0  0  0  0  0
  192.3510  177.1810  141.5060 C   0  0  0  0  0  3  0  0  0  0  0  0
  184.3370  179.2640  144.5440 C   0  0  0  0  0  0  0  0  0  0  0  0
  188.4400  177.5620  144.5690 C   0  0  0  0  0  0  0  0  0  0  0  0
  186.2830  178.0500  143.5400 C   0  0  0  0  0  0  0  0  0  0  0  0
  184.1520  178.4210  142.1890 C   0  0  0  0  0  1  0  0  0  0  0  0
  183.9540  180.4030  144.1630 O   0  0  0  0  0  0  0  0  0  0  0  0
  185.0330  177.7340  146.3670 C   0  0  0  0  0  2  0  0  0  0  0  0
  190.1800  177.6520  140.7110 C   0  0  0  0  0  0  0  0  0  0  0  0
  189.2420  176.9300  137.7820 C   0  0  0  0  0  2  0  0  0  0  0  0
  186.9030  178.0610  142.3230 N   0  0  0  0  0  0  0  0  0  0  0  0
  186.5360  177.8440  146.1480 C   0  0  0  0  0  2  0  0  0  0  0  0
  188.8560  177.8760  140.8140 C   0  0  0  0  0  0  0  0  0  0  0  0
  192.4140  177.3490  139.9800 C   0  0  0  0  0  3  0  0  0  0  0  0
  187.0560  177.7880  144.7190 C   0  0  0  0  0  0  0  0  0  0  0  0
  184.3910  178.9630  145.9320 N   0  0  0  0  0  2  0  0  0  0  0  0
  190.4980  176.4950  138.5300 C   0  0  2  0  0  3  0  0  0  0  0  0
  189.0200  177.5910  143.2950 C   0  0  0  0  0  0  0  0  0  0  0  0
  184.7800  178.2210  143.5660 C   0  0  2  0  0  3  0  0  0  0  0  0
  188.2330  177.8490  142.1650 C   0  0  0  0  0  0  0  0  0  0  0  0
  190.5750  177.1000  145.5050 C   0  0  0  0  0  3  0  0  0  0  0  0
  188.0070  176.9340  138.6740 C   0  0  0  0  0  2  0  0  0  0  0  0
  189.2380  177.3170  145.6470 N   0  0  0  0  0  0  0  0  0  0  0  0
  188.0150  178.1400  139.6020 C   0  0  0  0  0  2  0  0  0  0  0  0
  190.9860  177.6180  139.4620 C   0  0  1  0  0  3  0  0  0  0  0  0
  191.1480  177.1230  144.2710 N   0  0  0  0  0  0  0  0  0  0  0  0
  190.9680  177.4010  141.8570 N   0  0  0  0  0  0  0  0  0  0  0  0
  191.4930  176.1730  137.5690 O   0  0  0  0  0  0  0  0  0  0  0  0
  191.4750  174.9520  136.9310 N   0  0  0  0  0  0  0  0  0  0  0  0
  193.8750  172.3330  136.4800 N   0  0  0  0  0  2  0  0  0  0  0  0
  193.7590  174.4660  137.6510 C   0  0  0  0  0  2  0  0  0  0  0  0
  192.5000  174.1640  136.9590 C   0  0  0  0  0  0  0  0  0  0  0  0
  194.5480  173.1820  137.4700 C   0  0  0  0  0  2  0  0  0  0  0  0
  192.5240  172.8550  136.2950 C   0  0  0  0  0  2  0  0  0  0  0  0
  1 18  2  0  0  0  0
  1 26  1  0  0  0  0
  2 27  1  0  0  0  0
  3 16  1  0  0  0  0
  4 15  1  0  0  0  0
  4 23  2  0  0  0  0
  5 19  1  0  0  0  0
  5 15  2  0  0  0  0
  7  3  2  0  0  0  0
  9 13  2  0  0  0  0
  9 27  1  0  0  0  0
 10 17  1  0  0  0  0
 10 22  1  0  0  0  0
 11  5  1  0  0  0  0
 12  8  1  0  0  0  0
 13 20  1  0  0  0  0
 14  2  2  0  0  0  0
 15 12  1  0  0  0  0
 16  8  1  0  0  0  0
 17 28  1  6  0  0  0
 17 25  1  0  0  0  0
 18  4  1  0  0  0  0
 19  6  1  6  0  0  0
 19  3  1  0  0  0  0
 20 11  2  0  0  0  0
 20 18  1  0  0  0  0
 21 23  1  0  0  0  0
 22 24  1  0  0  0  0
 24 13  1  0  0  0  0
 25 14  1  1  0  0  0
 25  9  1  0  0  0  0
 26 21  2  0  0  0  0
 27  1  1  0  0  0  0
 29 32  2  0  0  0  0
 29 28  1  0  0  0  0
 30 33  1  0  0  0  0
 32 31  1  0  0  0  0
 33 31  1  0  0  0  0
 34 30  1  0  0  0  0
 34 32  1  0  0  0  0
M  END
>  <MODEL>
6

>  <REMARK>
 VINA RESULT:      -9.7      3.756      8.482
  Name = 
  2 active torsions:
  status: ('A' for Active; 'I' for Inactive)
    1  A    between atoms: C_17  and  O_28
    2  A    between atoms: O_28  and  N_29
                            x       y       z     vdW  Elec       q    Type
                         _______ _______ _______ _____ _____    ______ ____

>  <TORSDO>
F 2

$$$$
=
 OpenBabel11122412233D

 34 40  0  0  1  0  0  0  0  0999 V2000
  189.4770  177.4250  141.7350 C   0  0  0  0  0  0  0  0  0  0  0  0
  189.7090  177.6670  139.1820 C   0  0  0  0  0  3  0  0  0  0  0  0
  186.4060  178.8710  147.2720 C   0  0  0  0  0  0  0  0  0  0  0  0
  189.0730  177.2580  144.1070 C   0  0  0  0  0  0  0  0  0  0  0  0
  186.9120  177.9550  144.9980 C   0  0  0  0  0  0  0  0  0  0  0  0
  184.5300  178.6170  145.6260 C   0  0  0  0  0  1  0  0  0  0  0  0
  186.0560  180.0640  147.4800 O   0  0  0  0  0  0  0  0  0  0  0  0
  187.9000  176.9550  147.7680 C   0  0  0  0  0  2  0  0  0  0  0  0
  187.6940  178.2920  140.2400 C   0  0  0  0  0  0  0  0  0  0  0  0
  184.9100  178.2840  138.7480 C   0  0  0  0  0  2  0  0  0  0  0  0
  186.5250  178.2650  143.7250 N   0  0  0  0  0  0  0  0  0  0  0  0
  188.8390  177.1310  146.5830 C   0  0  0  0  0  2  0  0  0  0  0  0
  186.8570  178.4700  141.2800 C   0  0  0  0  0  0  0  0  0  0  0  0
  188.7390  178.1970  138.1160 C   0  0  0  0  0  3  0  0  0  0  0  0
  188.2250  177.4260  145.2220 C   0  0  0  0  0  0  0  0  0  0  0  0
  187.3440  178.2460  148.1380 N   0  0  0  0  0  2  0  0  0  0  0  0
  186.2460  177.6960  138.3060 C   0  0  2  0  0  3  0  0  0  0  0  0
  188.6220  177.5980  142.8270 C   0  0  0  0  0  0  0  0  0  0  0  0
  185.8860  178.0980  146.0990 C   0  0  2  0  0  3  0  0  0  0  0  0
  187.3310  178.1120  142.6450 C   0  0  0  0  0  0  0  0  0  0  0  0
  191.1600  176.6080  143.1730 C   0  0  0  0  0  3  0  0  0  0  0  0
  184.6390  178.0600  140.2300 C   0  0  0  0  0  2  0  0  0  0  0  0
  190.3390  176.7700  144.2480 N   0  0  0  0  0  0  0  0  0  0  0  0
  185.4730  179.0080  141.0810 C   0  0  0  0  0  2  0  0  0  0  0  0
  187.4110  178.5670  138.8070 C   0  0  1  0  0  3  0  0  0  0  0  0
  190.7290  176.9330  141.9240 N   0  0  0  0  0  0  0  0  0  0  0  0
  188.9980  177.7800  140.4340 N   0  0  0  0  0  0  0  0  0  0  0  0
  186.2470  177.6250  136.8870 O   0  0  0  0  0  0  0  0  0  0  0  0
  186.3990  176.4130  136.2510 N   0  0  0  0  0  0  0  0  0  0  0  0
  184.1490  174.1300  134.6540 N   0  0  0  0  0  2  0  0  0  0  0  0
  184.0160  176.3170  135.7180 C   0  0  0  0  0  2  0  0  0  0  0  0
  185.3910  175.8050  135.7140 C   0  0  0  0  0  0  0  0  0  0  0  0
  183.2840  175.2960  134.8660 C   0  0  0  0  0  2  0  0  0  0  0  0
  185.5080  174.5140  135.0240 C   0  0  0  0  0  2  0  0  0  0  0  0
  1 26  2  0  0  0  0
  1 18  1  0  0  0  0
  2 27  1  0  0  0  0
  3  7  2  0  0  0  0
  3 16  1  0  0  0  0
  4 23  1  0  0  0  0
  4 15  1  0  0  0  0
  5 15  2  0  0  0  0
  5 19  1  0  0  0  0
  8 16  1  0  0  0  0
  9 27  1  0  0  0  0
  9 13  2  0  0  0  0
 10 22  1  0  0  0  0
 11  5  1  0  0  0  0
 12  8  1  0  0  0  0
 13 20  1  0  0  0  0
 14  2  2  0  0  0  0
 15 12  1  0  0  0  0
 17 28  1  6  0  0  0
 17 10  1  0  0  0  0
 17 25  1  0  0  0  0
 18  4  2  0  0  0  0
 19  6  1  6  0  0  0
 19  3  1  0  0  0  0
 20 18  1  0  0  0  0
 20 11  2  0  0  0  0
 21 23  2  0  0  0  0
 22 24  1  0  0  0  0
 24 13  1  0  0  0  0
 25 14  1  6  0  0  0
 25  9  1  0  0  0  0
 26 21  1  0  0  0  0
 27  1  1  0  0  0  0
 29 28  1  0  0  0  0
 30 33  1  0  0  0  0
 30 34  1  0  0  0  0
 32 31  1  0  0  0  0
 32 29  2  0  0  0  0
 33 31  1  0  0  0  0
 34 32  1  0  0  0  0
M  END
>  <MODEL>
7

>  <REMARK>
 VINA RESULT:      -9.5      3.411      5.052
  Name = 
  2 active torsions:
  status: ('A' for Active; 'I' for Inactive)
    1  A    between atoms: C_17  and  O_28
    2  A    between atoms: O_28  and  N_29
                            x       y       z     vdW  Elec       q    Type
                         _______ _______ _______ _____ _____    ______ ____

>  <TORSDO>
F 2

$$$$
=
 OpenBabel11122412233D

 34 40  0  0  1  0  0  0  0  0999 V2000
  188.3640  177.8230  141.2040 C   0  0  0  0  0  0  0  0  0  0  0  0
  187.9640  178.1030  138.6760 C   0  0  0  0  0  3  0  0  0  0  0  0
  186.4990  178.8260  147.3440 C   0  0  0  0  0  0  0  0  0  0  0  0
  188.5460  177.5950  143.5980 C   0  0  0  0  0  0  0  0  0  0  0  0
  186.5790  177.9940  144.9840 C   0  0  0  0  0  0  0  0  0  0  0  0
  184.3430  178.3280  146.1640 C   0  0  0  0  0  1  0  0  0  0  0  0
  186.0560  179.9600  147.6680 O   0  0  0  0  0  0  0  0  0  0  0  0
  188.3030  177.1260  147.4170 C   0  0  0  0  0  2  0  0  0  0  0  0
  186.1860  178.4480  140.1890 C   0  0  0  0  0  0  0  0  0  0  0  0
  183.1570  178.0720  139.3760 C   0  0  0  0  0  2  0  0  0  0  0  0
  185.8700  178.2530  143.8460 N   0  0  0  0  0  0  0  0  0  0  0  0
  188.9110  177.4300  146.0550 C   0  0  0  0  0  2  0  0  0  0  0  0
  185.5970  178.5090  141.3980 C   0  0  0  0  0  0  0  0  0  0  0  0
  186.7130  178.5020  137.8790 C   0  0  0  0  0  3  0  0  0  0  0  0
  187.9660  177.6450  144.8820 C   0  0  0  0  0  0  0  0  0  0  0  0
  187.6860  178.3290  147.9500 N   0  0  0  0  0  2  0  0  0  0  0  0
  184.4190  177.6700  138.6180 C   0  0  2  0  0  3  0  0  0  0  0  0
  187.7700  177.8770  142.4680 C   0  0  0  0  0  0  0  0  0  0  0  0
  185.8260  177.9940  146.2960 C   0  0  2  0  0  3  0  0  0  0  0  0
  186.4170  178.2130  142.6040 C   0  0  0  0  0  0  0  0  0  0  0  0
  190.4260  177.2340  142.1890 C   0  0  0  0  0  3  0  0  0  0  0  0
  183.2690  177.8090  140.8720 C   0  0  0  0  0  2  0  0  0  0  0  0
  189.8620  177.2810  143.4280 N   0  0  0  0  0  0  0  0  0  0  0  0
  184.1470  178.8570  141.5400 C   0  0  0  0  0  2  0  0  0  0  0  0
  185.5450  178.6880  138.8690 C   0  0  1  0  0  3  0  0  0  0  0  0
  189.6790  177.5030  141.0840 N   0  0  0  0  0  0  0  0  0  0  0  0
  187.5540  178.1160  140.0610 N   0  0  0  0  0  0  0  0  0  0  0  0
  184.1000  177.6040  137.2360 O   0  0  0  0  0  0  0  0  0  0  0  0
  184.1150  176.3970  136.5740 N   0  0  0  0  0  0  0  0  0  0  0  0
  181.5770  174.1670  135.3860 N   0  0  0  0  0  2  0  0  0  0  0  0
  181.6730  176.3460  136.4720 C   0  0  0  0  0  2  0  0  0  0  0  0
  183.0170  175.8110  136.2200 C   0  0  0  0  0  0  0  0  0  0  0  0
  180.7840  175.3450  135.7570 C   0  0  0  0  0  2  0  0  0  0  0  0
  182.9860  174.5250  135.5120 C   0  0  0  0  0  2  0  0  0  0  0  0
  1 18  1  0  0  0  0
  2 27  1  0  0  0  0
  3  7  2  0  0  0  0
  3 16  1  0  0  0  0
  4 15  1  0  0  0  0
  5 19  1  0  0  0  0
  8 16  1  0  0  0  0
  9 13  2  0  0  0  0
 10 22  1  0  0  0  0
 11  5  1  0  0  0  0
 12  8  1  0  0  0  0
 13 24  1  0  0  0  0
 13 20  1  0  0  0  0
 14  2  2  0  0  0  0
 15  5  2  0  0  0  0
 15 12  1  0  0  0  0
 17 28  1  6  0  0  0
 17 25  1  0  0  0  0
 17 10  1  0  0  0  0
 18 20  1  0  0  0  0
 18  4  2  0  0  0  0
 19  6  1  6  0  0  0
 19  3  1  0  0  0  0
 20 11  2  0  0  0  0
 21 23  2  0  0  0  0
 22 24  1  0  0  0  0
 23  4  1  0  0  0  0
 25 14  1  6  0  0  0
 25  9  1  0  0  0  0
 26  1  2  0  0  0  0
 26 21  1  0  0  0  0
 27  9  1  0  0  0  0
 27  1  1  0  0  0  0
 29 28  1  0  0  0  0
 30 34  1  0  0  0  0
 30 33  1  0  0  0  0
 32 31  1  0  0  0  0
 32 29  2  0  0  0  0
 33 31  1  0  0  0  0
 34 32  1  0  0  0  0
M  END
>  <MODEL>
8

>  <REMARK>
 VINA RESULT:      -9.4      3.316      4.327
  Name = 
  2 active torsions:
  status: ('A' for Active; 'I' for Inactive)
    1  A    between atoms: C_17  and  O_28
    2  A    between atoms: O_28  and  N_29
                            x       y       z     vdW  Elec       q    Type
                         _______ _______ _______ _____ _____    ______ ____

>  <TORSDO>
F 2

$$$$
=
 OpenBabel11122412233D

 34 40  0  0  1  0  0  0  0  0999 V2000
  185.8570  178.3920  145.3980 C   0  0  0  0  0  0  0  0  0  0  0  0
  183.7900  178.7170  143.8970 C   0  0  0  0  0  3  0  0  0  0  0  0
  191.8220  175.9960  146.3230 C   0  0  0  0  0  0  0  0  0  0  0  0
  187.8950  178.0490  146.6400 C   0  0  0  0  0  0  0  0  0  0  0  0
  189.9100  177.3580  145.4520 C   0  0  0  0  0  0  0  0  0  0  0  0
  191.8820  176.7790  143.9410 C   0  0  0  0  0  1  0  0  0  0  0  0
  192.0730  174.8220  145.9400 O   0  0  0  0  0  0  0  0  0  0  0  0
  191.4130  177.6120  148.1590 C   0  0  0  0  0  2  0  0  0  0  0  0
  185.8390  178.0450  142.9400 C   0  0  0  0  0  0  0  0  0  0  0  0
  186.5890  178.6330  139.9280 C   0  0  0  0  0  2  0  0  0  0  0  0
  189.1920  177.3800  144.2900 N   0  0  0  0  0  0  0  0  0  0  0  0
  189.8930  177.6300  148.0650 C   0  0  0  0  0  2  0  0  0  0  0  0
  187.1430  177.7080  142.9400 C   0  0  0  0  0  0  0  0  0  0  0  0
  183.5870  178.5290  142.3870 C   0  0  0  0  0  3  0  0  0  0  0  0
  189.2630  177.7060  146.6820 C   0  0  0  0  0  0  0  0  0  0  0  0
  191.9090  176.3240  147.7030 N   0  0  0  0  0  2  0  0  0  0  0  0
  185.4410  179.1880  140.7650 C   0  0  2  0  0  3  0  0  0  0  0  0
  187.2110  178.0490  145.4190 C   0  0  0  0  0  0  0  0  0  0  0  0
  191.3900  177.0570  145.3590 C   0  0  2  0  0  3  0  0  0  0  0  0
  187.8760  177.7040  144.2350 C   0  0  0  0  0  0  0  0  0  0  0  0
  185.8930  178.7110  147.7360 C   0  0  0  0  0  3  0  0  0  0  0  0
  187.8890  178.5370  140.7160 C   0  0  0  0  0  2  0  0  0  0  0  0
  187.2140  178.3810  147.7740 N   0  0  0  0  0  0  0  0  0  0  0  0
  187.8550  177.3520  141.6710 C   0  0  0  0  0  2  0  0  0  0  0  0
  184.9380  178.1280  141.7600 C   0  0  1  0  0  3  0  0  0  0  0  0
  185.2200  178.7170  146.5530 N   0  0  0  0  0  0  0  0  0  0  0  0
  185.1740  178.3840  144.1400 N   0  0  0  0  0  0  0  0  0  0  0  0
  184.4010  179.5800  139.8810 O   0  0  0  0  0  0  0  0  0  0  0  0
  183.2900  178.7830  139.7150 N   0  0  0  0  0  0  0  0  0  0  0  0
  182.1600  176.5770  137.1300 N   0  0  0  0  0  2  0  0  0  0  0  0
  184.1240  177.9490  137.5740 C   0  0  0  0  0  2  0  0  0  0  0  0
  183.1500  178.0350  138.6690 C   0  0  0  0  0  0  0  0  0  0  0  0
  183.5330  176.8620  136.6950 C   0  0  0  0  0  2  0  0  0  0  0  0
  181.9840  177.1690  138.4530 C   0  0  0  0  0  2  0  0  0  0  0  0
  1 18  2  0  0  0  0
  1 26  1  0  0  0  0
  2 27  1  0  0  0  0
  3 16  1  0  0  0  0
  4 15  1  0  0  0  0
  4 23  2  0  0  0  0
  5 15  2  0  0  0  0
  7  3  2  0  0  0  0
  9 13  2  0  0  0  0
  9 27  1  0  0  0  0
 10 22  1  0  0  0  0
 10 17  1  0  0  0  0
 11  5  1  0  0  0  0
 12  8  1  0  0  0  0
 13 20  1  0  0  0  0
 14  2  2  0  0  0  0
 15 12  1  0  0  0  0
 16  8  1  0  0  0  0
 17 28  1  6  0  0  0
 17 25  1  0  0  0  0
 18  4  1  0  0  0  0
 19  6  1  6  0  0  0
 19  5  1  0  0  0  0
 19  3  1  0  0  0  0
 20 11  2  0  0  0  0
 20 18  1  0  0  0  0
 21 23  1  0  0  0  0
 22 24  1  0  0  0  0
 24 13  1  0  0  0  0
 25 14  1  1  0  0  0
 25  9  1  0  0  0  0
 26 21  2  0  0  0  0
 27  1  1  0  0  0  0
 29 28  1  0  0  0  0
 30 34  1  0  0  0  0
 31 32  1  0  0  0  0
 32 29  2  0  0  0  0
 33 30  1  0  0  0  0
 33 31  1  0  0  0  0
 34 32  1  0  0  0  0
M  END
>  <MODEL>
9

>  <REMARK>
 VINA RESULT:      -8.8      2.402      4.173
  Name = 
  2 active torsions:
  status: ('A' for Active; 'I' for Inactive)
    1  A    between atoms: C_17  and  O_28
    2  A    between atoms: O_28  and  N_29
                            x       y       z     vdW  Elec       q    Type
                         _______ _______ _______ _____ _____    ______ ____

>  <TORSDO>
F 2

$$$$
