=
 OpenBabel11122410263D

 30 35  0  0  1  0  0  0  0  0999 V2000
  189.3960  177.2220  143.6090 C   0  0  0  0  0  0  0  0  0  0  0  0
  191.3180  176.2420  144.8840 C   0  0  0  0  0  0  0  0  0  0  0  0
  187.4130  178.1560  147.2020 N   0  0  0  0  0  2  0  0  0  0  0  0
  188.1090  177.8460  143.6180 C   0  0  0  0  0  0  0  0  0  0  0  0
  190.0060  176.9610  142.3750 C   0  0  0  0  0  3  0  0  0  0  0  0
  187.4980  178.1640  139.9610 O   0  0  0  0  0  1  0  0  0  0  0  0
  185.0260  177.9190  143.0700 C   0  0  1  0  0  3  0  0  0  0  0  0
  188.1190  177.8670  141.1730 C   0  0  0  0  0  0  0  0  0  0  0  0
  185.0320  178.0640  144.6000 C   0  0  2  0  0  3  0  0  0  0  0  0
  186.2590  178.7900  146.6690 C   0  0  0  0  0  0  0  0  0  0  0  0
  189.3900  177.2880  141.1720 C   0  0  0  0  0  0  0  0  0  0  0  0
  187.4650  178.1460  142.3850 C   0  0  0  0  0  0  0  0  0  0  0  0
  191.9020  175.9230  146.1120 C   0  0  0  0  0  3  0  0  0  0  0  0
  183.7210  178.7440  144.9470 C   0  0  0  0  0  2  0  0  0  0  0  0
  183.6260  178.2700  142.5920 C   0  0  0  0  0  2  0  0  0  0  0  0
  192.0130  175.9270  143.7620 F   0  0  0  0  0  0  0  0  0  0  0  0
  188.1510  177.7790  146.0500 C   0  0  0  0  0  0  0  0  0  0  0  0
  191.2490  176.2140  147.3080 C   0  0  0  0  0  3  0  0  0  0  0  0
  190.0450  176.8700  144.8340 C   0  0  0  0  0  0  0  0  0  0  0  0
  187.5210  178.1200  144.8700 C   0  0  0  0  0  0  0  0  0  0  0  0
  185.3770  179.3070  147.4040 O   0  0  0  0  0  0  0  0  0  0  0  0
  186.2310  178.8290  145.1690 C   0  0  1  0  0  3  0  0  0  0  0  0
  182.7700  178.3700  143.8350 C   0  0  0  0  0  2  0  0  0  0  0  0
  186.0500  180.2350  142.5340 C   0  0  0  0  0  1  0  0  0  0  0  0
  190.0000  176.8300  147.2850 C   0  0  0  0  0  3  0  0  0  0  0  0
  189.3950  177.1580  146.0660 C   0  0  0  0  0  0  0  0  0  0  0  0
  186.0790  178.7290  142.2950 C   0  0  2  0  0  3  0  0  0  0  0  0
  190.0860  176.9640  139.8930 C   0  0  0  0  0  2  0  0  0  0  0  0
  192.1380  176.7010  138.8230 C   0  0  0  0  0  1  0  0  0  0  0  0
  191.5130  177.1940  140.0360 N   0  0  0  0  0  2  0  0  0  0  0  0
  1  4  1  0  0  0  0
  1 19  1  0  0  0  0
  2 13  1  0  0  0  0
  4 20  1  0  0  0  0
  5  1  2  0  0  0  0
  6  8  1  0  0  0  0
  7 15  1  6  0  0  0
  7  9  1  0  0  0  0
  8 12  1  0  0  0  0
  9 14  1  6  0  0  0
  9 22  1  0  0  0  0
 10  3  1  0  0  0  0
 10 21  2  0  0  0  0
 11  8  2  0  0  0  0
 11  5  1  0  0  0  0
 12  4  2  0  0  0  0
 13 18  2  0  0  0  0
 15 23  1  0  0  0  0
 16  2  1  0  0  0  0
 17 26  1  0  0  0  0
 17  3  1  0  0  0  0
 19  2  2  0  0  0  0
 19 26  1  0  0  0  0
 20 17  2  0  0  0  0
 22 20  1  6  0  0  0
 22 10  1  0  0  0  0
 23 14  1  0  0  0  0
 25 18  1  0  0  0  0
 26 25  2  0  0  0  0
 27 12  1  0  0  0  0
 27 24  1  1  0  0  0
 27  7  1  0  0  0  0
 28 30  1  0  0  0  0
 28 11  1  0  0  0  0
 29 30  1  0  0  0  0
M  END
>  <MODEL>
1

>  <REMARK>
 VINA RESULT:     -10.2      0.000      0.000
  Name = 
  2 active torsions:
  status: ('A' for Active; 'I' for Inactive)
    1  A    between atoms: C_11  and  C_28
    2  A    between atoms: C_28  and  N_30
                            x       y       z     vdW  Elec       q    Type
                         _______ _______ _______ _____ _____    ______ ____

>  <TORSDO>
F 2

$$$$
=
 OpenBabel11122410263D

 30 35  0  0  1  0  0  0  0  0999 V2000
  185.8820  178.3170  142.0250 C   0  0  0  0  0  0  0  0  0  0  0  0
  183.4840  178.9470  142.3940 C   0  0  0  0  0  0  0  0  0  0  0  0
  186.4360  177.7680  146.1610 N   0  0  0  0  0  2  0  0  0  0  0  0
  187.1460  177.9320  142.5700 C   0  0  0  0  0  0  0  0  0  0  0  0
  185.7650  178.4590  140.6360 C   0  0  0  0  0  3  0  0  0  0  0  0
  189.1730  177.7100  139.4560 O   0  0  0  0  0  1  0  0  0  0  0  0
  190.1670  178.4050  143.2460 C   0  0  1  0  0  3  0  0  0  0  0  0
  188.0910  177.8970  140.3140 C   0  0  0  0  0  0  0  0  0  0  0  0
  189.5920  178.2690  144.6640 C   0  0  2  0  0  3  0  0  0  0  0  0
  187.7920  177.3460  146.1550 C   0  0  0  0  0  0  0  0  0  0  0  0
  186.8440  178.2410  139.7860 C   0  0  0  0  0  0  0  0  0  0  0  0
  188.2590  177.7450  141.7010 C   0  0  0  0  0  0  0  0  0  0  0  0
  182.4250  179.1630  143.2800 C   0  0  0  0  0  3  0  0  0  0  0  0
  190.7560  177.8340  145.5340 C   0  0  0  0  0  2  0  0  0  0  0  0
  191.6800  178.3060  143.3660 C   0  0  0  0  0  2  0  0  0  0  0  0
  183.2380  179.1270  141.0720 F   0  0  0  0  0  0  0  0  0  0  0  0
  186.1530  178.0020  144.7900 C   0  0  0  0  0  0  0  0  0  0  0  0
  182.6010  178.9980  144.6520 C   0  0  0  0  0  3  0  0  0  0  0  0
  184.7600  178.5540  142.8790 C   0  0  0  0  0  0  0  0  0  0  0  0
  187.2380  177.7730  143.9680 C   0  0  0  0  0  0  0  0  0  0  0  0
  188.3910  176.9980  147.2070 O   0  0  0  0  0  0  0  0  0  0  0  0
  188.4060  177.3050  144.7870 C   0  0  1  0  0  3  0  0  0  0  0  0
  191.9900  178.3660  144.8450 C   0  0  0  0  0  2  0  0  0  0  0  0
  189.8220  175.9410  142.5310 C   0  0  0  0  0  1  0  0  0  0  0  0
  183.8420  178.6130  145.1520 C   0  0  0  0  0  3  0  0  0  0  0  0
  184.9170  178.3930  144.2840 C   0  0  0  0  0  0  0  0  0  0  0  0
  189.6450  177.4170  142.1900 C   0  0  2  0  0  3  0  0  0  0  0  0
  186.6570  178.4310  138.3180 C   0  0  0  0  0  2  0  0  0  0  0  0
  185.2980  176.9210  137.1770 C   0  0  0  0  0  1  0  0  0  0  0  0
  185.2800  178.1460  137.9550 N   0  0  0  0  0  2  0  0  0  0  0  0
  1  4  1  0  0  0  0
  1 19  1  0  0  0  0
  2 19  2  0  0  0  0
  2 13  1  0  0  0  0
  4 20  1  0  0  0  0
  5  1  2  0  0  0  0
  6  8  1  0  0  0  0
  7 15  1  1  0  0  0
  7  9  1  0  0  0  0
  8 12  1  0  0  0  0
  9 22  1  0  0  0  0
  9 14  1  1  0  0  0
 10  3  1  0  0  0  0
 10 21  2  0  0  0  0
 11  8  2  0  0  0  0
 11  5  1  0  0  0  0
 12 27  1  0  0  0  0
 12  4  2  0  0  0  0
 13 18  2  0  0  0  0
 15 23  1  0  0  0  0
 16  2  1  0  0  0  0
 17  3  1  0  0  0  0
 18 25  1  0  0  0  0
 19 26  1  0  0  0  0
 20 17  2  0  0  0  0
 22 20  1  6  0  0  0
 22 10  1  0  0  0  0
 23 14  1  0  0  0  0
 26 17  1  0  0  0  0
 26 25  2  0  0  0  0
 27 24  1  1  0  0  0
 27  7  1  0  0  0  0
 28 11  1  0  0  0  0
 29 30  1  0  0  0  0
 30 28  1  0  0  0  0
M  END
>  <MODEL>
2

>  <REMARK>
 VINA RESULT:     -10.0      2.752      5.687
  Name = 
  2 active torsions:
  status: ('A' for Active; 'I' for Inactive)
    1  A    between atoms: C_11  and  C_28
    2  A    between atoms: C_28  and  N_30
                            x       y       z     vdW  Elec       q    Type
                         _______ _______ _______ _____ _____    ______ ____

>  <TORSDO>
F 2

$$$$
=
 OpenBabel11122410263D

 30 35  0  0  1  0  0  0  0  0999 V2000
  186.2210  178.3390  142.6590 C   0  0  0  0  0  0  0  0  0  0  0  0
  187.0610  178.1500  145.0130 C   0  0  0  0  0  0  0  0  0  0  0  0
  182.2770  178.8280  144.0440 N   0  0  0  0  0  2  0  0  0  0  0  0
  185.1220  178.4990  141.7590 C   0  0  0  0  0  0  0  0  0  0  0  0
  187.5110  178.2030  142.1270 C   0  0  0  0  0  3  0  0  0  0  0  0
  186.9050  178.3210  138.4960 O   0  0  0  0  0  1  0  0  0  0  0  0
  183.1520  177.5040  139.5380 C   0  0  1  0  0  3  0  0  0  0  0  0
  186.6670  178.3390  139.8690 C   0  0  0  0  0  0  0  0  0  0  0  0
  182.1600  177.7570  140.6840 C   0  0  2  0  0  3  0  0  0  0  0  0
  181.6180  179.0020  142.7980 C   0  0  0  0  0  0  0  0  0  0  0  0
  187.7400  178.2160  140.7560 C   0  0  0  0  0  0  0  0  0  0  0  0
  185.3550  178.4760  140.3540 C   0  0  0  0  0  0  0  0  0  0  0  0
  186.7910  178.1350  146.3840 C   0  0  0  0  0  3  0  0  0  0  0  0
  180.8180  177.9880  140.0160 C   0  0  0  0  0  2  0  0  0  0  0  0
  182.3330  177.3340  138.2680 C   0  0  0  0  0  2  0  0  0  0  0  0
  188.3550  178.0010  144.6310 F   0  0  0  0  0  0  0  0  0  0  0  0
  183.6340  178.6320  143.6790 C   0  0  0  0  0  0  0  0  0  0  0  0
  185.4880  178.2820  146.8530 C   0  0  0  0  0  3  0  0  0  0  0  0
  186.0090  178.3150  144.0730 C   0  0  0  0  0  0  0  0  0  0  0  0
  183.8360  178.6560  142.3140 C   0  0  0  0  0  0  0  0  0  0  0  0
  180.3860  179.2500  142.7200 O   0  0  0  0  0  0  0  0  0  0  0  0
  182.5340  178.9170  141.6130 C   0  0  1  0  0  3  0  0  0  0  0  0
  180.8890  177.2370  138.7080 C   0  0  0  0  0  2  0  0  0  0  0  0
  183.7600  179.9820  139.1000 C   0  0  0  0  0  1  0  0  0  0  0  0
  184.4390  178.4460  145.9520 C   0  0  0  0  0  3  0  0  0  0  0  0
  184.6860  178.4620  144.5740 C   0  0  0  0  0  0  0  0  0  0  0  0
  184.2530  178.5570  139.3320 C   0  0  2  0  0  3  0  0  0  0  0  0
  189.1350  178.0460  140.2550 C   0  0  0  0  0  2  0  0  0  0  0  0
  191.1240  177.2880  141.2010 C   0  0  0  0  0  1  0  0  0  0  0  0
  189.7560  176.9050  140.9030 N   0  0  0  0  0  2  0  0  0  0  0  0
  1 19  1  0  0  0  0
  2 13  1  0  0  0  0
  4 20  1  0  0  0  0
  4  1  2  0  0  0  0
  5  1  1  0  0  0  0
  6  8  1  0  0  0  0
  7 15  1  6  0  0  0
  7  9  1  0  0  0  0
  8 12  2  0  0  0  0
  8 11  1  0  0  0  0
  9 14  1  6  0  0  0
  9 22  1  0  0  0  0
 10  3  1  0  0  0  0
 11  5  2  0  0  0  0
 12  4  1  0  0  0  0
 13 18  2  0  0  0  0
 15 23  1  0  0  0  0
 16  2  1  0  0  0  0
 17  3  1  0  0  0  0
 17 26  1  0  0  0  0
 19 26  1  0  0  0  0
 19  2  2  0  0  0  0
 20 17  2  0  0  0  0
 21 10  2  0  0  0  0
 22 20  1  1  0  0  0
 22 10  1  0  0  0  0
 23 14  1  0  0  0  0
 25 18  1  0  0  0  0
 26 25  2  0  0  0  0
 27 24  1  1  0  0  0
 27  7  1  0  0  0  0
 27 12  1  0  0  0  0
 28 11  1  0  0  0  0
 28 30  1  0  0  0  0
 30 29  1  0  0  0  0
M  END
>  <MODEL>
3

>  <REMARK>
 VINA RESULT:      -9.7      2.835      4.483
  Name = 
  2 active torsions:
  status: ('A' for Active; 'I' for Inactive)
    1  A    between atoms: C_11  and  C_28
    2  A    between atoms: C_28  and  N_30
                            x       y       z     vdW  Elec       q    Type
                         _______ _______ _______ _____ _____    ______ ____

>  <TORSDO>
F 2

$$$$
=
 OpenBabel11122410263D

 30 35  0  0  1  0  0  0  0  0999 V2000
  187.1030  178.1970  140.5310 C   0  0  0  0  0  0  0  0  0  0  0  0
  184.8570  178.9930  139.7540 C   0  0  0  0  0  0  0  0  0  0  0  0
  185.6920  177.8930  144.4850 N   0  0  0  0  0  2  0  0  0  0  0  0
  187.9500  177.7740  141.6020 C   0  0  0  0  0  0  0  0  0  0  0  0
  187.6350  178.2530  139.2360 C   0  0  0  0  0  3  0  0  0  0  0  0
  191.1330  177.2230  139.7520 O   0  0  0  0  0  1  0  0  0  0  0  0
  190.3740  178.1090  143.5570 C   0  0  1  0  0  3  0  0  0  0  0  0
  189.8010  177.5320  140.0200 C   0  0  0  0  0  0  0  0  0  0  0  0
  189.2140  178.1020  144.5640 C   0  0  2  0  0  3  0  0  0  0  0  0
  186.8660  177.3910  145.1080 C   0  0  0  0  0  0  0  0  0  0  0  0
  188.9570  177.9140  138.9740 C   0  0  0  0  0  0  0  0  0  0  0  0
  189.3140  177.4620  141.3370 C   0  0  0  0  0  0  0  0  0  0  0  0
  183.5350  179.3310  140.0570 C   0  0  0  0  0  3  0  0  0  0  0  0
  189.8220  177.6570  145.8800 C   0  0  0  0  0  2  0  0  0  0  0  0
  191.6570  177.9280  144.3510 C   0  0  0  0  0  2  0  0  0  0  0  0
  185.2470  179.0990  138.4590 F   0  0  0  0  0  0  0  0  0  0  0  0
  186.0760  178.0510  143.1280 C   0  0  0  0  0  0  0  0  0  0  0  0
  183.0610  179.2480  141.3640 C   0  0  0  0  0  3  0  0  0  0  0  0
  185.7410  178.5570  140.7770 C   0  0  0  0  0  0  0  0  0  0  0  0
  187.3910  177.7030  142.8940 C   0  0  0  0  0  0  0  0  0  0  0  0
  186.8970  177.0780  146.3270 O   0  0  0  0  0  0  0  0  0  0  0  0
  188.0230  177.2220  144.1680 C   0  0  1  0  0  3  0  0  0  0  0  0
  191.2740  178.0670  145.8080 C   0  0  0  0  0  2  0  0  0  0  0  0
  190.1810  175.6280  142.8430 C   0  0  0  0  0  1  0  0  0  0  0  0
  183.9080  178.8230  142.3840 C   0  0  0  0  0  3  0  0  0  0  0  0
  185.2360  178.4810  142.1050 C   0  0  0  0  0  0  0  0  0  0  0  0
  190.3000  177.0860  142.4110 C   0  0  2  0  0  3  0  0  0  0  0  0
  189.4660  178.0160  137.5750 C   0  0  0  0  0  2  0  0  0  0  0  0
  188.1380  177.6600  135.6950 C   0  0  0  0  0  1  0  0  0  0  0  0
  188.4590  178.6280  136.7280 N   0  0  0  0  0  2  0  0  0  0  0  0
  1 19  2  0  0  0  0
  1  4  1  0  0  0  0
  2 13  2  0  0  0  0
  2 19  1  0  0  0  0
  3 10  1  0  0  0  0
  4 20  2  0  0  0  0
  5  1  1  0  0  0  0
  6  8  1  0  0  0  0
  7 15  1  1  0  0  0
  7  9  1  0  0  0  0
  8 12  2  0  0  0  0
  9 14  1  1  0  0  0
 10 21  2  0  0  0  0
 11  5  2  0  0  0  0
 11  8  1  0  0  0  0
 12  4  1  0  0  0  0
 12 27  1  0  0  0  0
 13 18  1  0  0  0  0
 15 23  1  0  0  0  0
 16  2  1  0  0  0  0
 17  3  1  0  0  0  0
 18 25  2  0  0  0  0
 19 26  1  0  0  0  0
 20 17  1  0  0  0  0
 22 20  1  6  0  0  0
 22  9  1  0  0  0  0
 22 10  1  0  0  0  0
 23 14  1  0  0  0  0
 26 25  1  0  0  0  0
 26 17  2  0  0  0  0
 27 24  1  1  0  0  0
 27  7  1  0  0  0  0
 28 11  1  0  0  0  0
 29 30  1  0  0  0  0
 30 28  1  0  0  0  0
M  END
>  <MODEL>
4

>  <REMARK>
 VINA RESULT:      -9.2      2.683      5.729
  Name = 
  2 active torsions:
  status: ('A' for Active; 'I' for Inactive)
    1  A    between atoms: C_11  and  C_28
    2  A    between atoms: C_28  and  N_30
                            x       y       z     vdW  Elec       q    Type
                         _______ _______ _______ _____ _____    ______ ____

>  <TORSDO>
F 2

$$$$
=
 OpenBabel11122410263D

 30 35  0  0  1  0  0  0  0  0999 V2000
  187.6100  177.7140  143.0640 C   0  0  0  0  0  0  0  0  0  0  0  0
  186.4330  177.8850  145.2700 C   0  0  0  0  0  0  0  0  0  0  0  0
  184.2730  179.3520  141.0910 N   0  0  0  0  0  2  0  0  0  0  0  0
  187.5910  177.9010  141.6470 C   0  0  0  0  0  0  0  0  0  0  0  0
  188.7640  177.1840  143.6560 C   0  0  0  0  0  3  0  0  0  0  0  0
  190.9650  176.6040  140.7610 O   0  0  0  0  0  1  0  0  0  0  0  0
  187.5810  176.8820  138.6860 C   0  0  1  0  0  3  0  0  0  0  0  0
  189.8550  176.9840  141.5120 C   0  0  0  0  0  0  0  0  0  0  0  0
  186.2220  177.5980  138.7290 C   0  0  2  0  0  3  0  0  0  0  0  0
  184.7820  179.3780  139.7650 C   0  0  0  0  0  0  0  0  0  0  0  0
  189.8780  176.8350  142.9000 C   0  0  0  0  0  0  0  0  0  0  0  0
  188.7190  177.5090  140.8710 C   0  0  0  0  0  0  0  0  0  0  0  0
  185.2930  178.2420  145.9950 C   0  0  0  0  0  3  0  0  0  0  0  0
  185.9070  177.9580  137.2900 C   0  0  0  0  0  2  0  0  0  0  0  0
  187.8970  176.6100  137.2240 C   0  0  0  0  0  2  0  0  0  0  0  0
  187.4810  177.3760  145.9660 F   0  0  0  0  0  0  0  0  0  0  0  0
  185.3340  178.7880  141.8450 C   0  0  0  0  0  0  0  0  0  0  0  0
  184.1780  178.7720  145.3510 C   0  0  0  0  0  3  0  0  0  0  0  0
  186.4740  178.0580  143.8610 C   0  0  0  0  0  0  0  0  0  0  0  0
  186.4290  178.4560  141.0730 C   0  0  0  0  0  0  0  0  0  0  0  0
  184.1280  179.8640  138.8050 O   0  0  0  0  0  0  0  0  0  0  0  0
  186.1730  178.8290  139.6410 C   0  0  1  0  0  3  0  0  0  0  0  0
  186.6350  176.9330  136.4530 C   0  0  0  0  0  2  0  0  0  0  0  0
  189.0560  179.0020  138.8600 C   0  0  0  0  0  1  0  0  0  0  0  0
  184.1930  178.9510  143.9700 C   0  0  0  0  0  3  0  0  0  0  0  0
  185.3230  178.6000  143.2240 C   0  0  0  0  0  0  0  0  0  0  0  0
  188.7600  177.5950  139.3690 C   0  0  2  0  0  3  0  0  0  0  0  0
  191.0670  176.2560  143.5910 C   0  0  0  0  0  2  0  0  0  0  0  0
  191.6800  176.4370  145.8310 C   0  0  0  0  0  1  0  0  0  0  0  0
  191.5560  177.1860  144.5940 N   0  0  0  0  0  2  0  0  0  0  0  0
  1  5  1  0  0  0  0
  1 19  1  0  0  0  0
  2 16  1  0  0  0  0
  2 13  1  0  0  0  0
  3 17  1  0  0  0  0
  4  1  2  0  0  0  0
  6  8  1  0  0  0  0
  7 15  1  6  0  0  0
  7  9  1  0  0  0  0
  7 27  1  0  0  0  0
  8 11  1  0  0  0  0
  9 14  1  6  0  0  0
  9 22  1  0  0  0  0
 10  3  1  0  0  0  0
 11 28  1  0  0  0  0
 11  5  2  0  0  0  0
 12  8  2  0  0  0  0
 12  4  1  0  0  0  0
 17 26  1  0  0  0  0
 18 13  2  0  0  0  0
 19  2  2  0  0  0  0
 20  4  1  0  0  0  0
 20 17  2  0  0  0  0
 21 10  2  0  0  0  0
 22 10  1  1  0  0  0
 22 20  1  0  0  0  0
 23 15  1  0  0  0  0
 23 14  1  0  0  0  0
 25 18  1  0  0  0  0
 26 19  1  0  0  0  0
 26 25  2  0  0  0  0
 27 24  1  1  0  0  0
 27 12  1  0  0  0  0
 28 30  1  0  0  0  0
 30 29  1  0  0  0  0
M  END
>  <MODEL>
5

>  <REMARK>
 VINA RESULT:      -9.1      2.823      5.522
  Name = 
  2 active torsions:
  status: ('A' for Active; 'I' for Inactive)
    1  A    between atoms: C_11  and  C_28
    2  A    between atoms: C_28  and  N_30
                            x       y       z     vdW  Elec       q    Type
                         _______ _______ _______ _____ _____    ______ ____

>  <TORSDO>
F 2

$$$$
=
 OpenBabel11122410263D

 30 35  0  0  1  0  0  0  0  0999 V2000
  184.9970  178.5300  142.0400 C   0  0  0  0  0  0  0  0  0  0  0  0
  186.2600  178.3880  144.2000 C   0  0  0  0  0  0  0  0  0  0  0  0
  181.3680  178.9790  144.1250 N   0  0  0  0  0  2  0  0  0  0  0  0
  183.7480  178.6600  141.3570 C   0  0  0  0  0  0  0  0  0  0  0  0
  186.1680  178.4060  141.2810 C   0  0  0  0  0  3  0  0  0  0  0  0
  184.8990  178.4620  137.8230 O   0  0  0  0  0  1  0  0  0  0  0  0
  181.4180  177.6030  139.5500 C   0  0  1  0  0  3  0  0  0  0  0  0
  184.9190  178.4960  139.2160 C   0  0  0  0  0  0  0  0  0  0  0  0
  180.6510  177.8570  140.8570 C   0  0  2  0  0  3  0  0  0  0  0  0
  180.4870  179.1250  143.0210 C   0  0  0  0  0  0  0  0  0  0  0  0
  186.1390  178.4030  139.8910 C   0  0  0  0  0  0  0  0  0  0  0  0
  183.7170  178.6200  139.9340 C   0  0  0  0  0  0  0  0  0  0  0  0
  186.2480  178.3900  145.5970 C   0  0  0  0  0  3  0  0  0  0  0  0
  179.2050  178.0580  140.4460 C   0  0  0  0  0  2  0  0  0  0  0  0
  180.3820  177.4010  138.4560 C   0  0  0  0  0  2  0  0  0  0  0  0
  187.4630  178.2530  143.5870 F   0  0  0  0  0  0  0  0  0  0  0  0
  182.6380  178.7990  143.5180 C   0  0  0  0  0  0  0  0  0  0  0  0
  185.0520  178.5230  146.2980 C   0  0  0  0  0  3  0  0  0  0  0  0
  185.0500  178.5230  143.4690 C   0  0  0  0  0  0  0  0  0  0  0  0
  182.5830  178.8050  142.1390 C   0  0  0  0  0  0  0  0  0  0  0  0
  179.2570  179.3530  143.1690 O   0  0  0  0  0  0  0  0  0  0  0  0
  181.1700  179.0370  141.6880 C   0  0  1  0  0  3  0  0  0  0  0  0
  179.0460  177.2890  139.1570 C   0  0  0  0  0  2  0  0  0  0  0  0
  181.8920  180.0830  138.9790 C   0  0  0  0  0  1  0  0  0  0  0  0
  183.8520  178.6580  145.6040 C   0  0  0  0  0  3  0  0  0  0  0  0
  183.8400  178.6580  144.2050 C   0  0  0  0  0  0  0  0  0  0  0  0
  182.4440  178.6690  139.1320 C   0  0  2  0  0  3  0  0  0  0  0  0
  187.4210  178.2470  139.1420 C   0  0  0  0  0  2  0  0  0  0  0  0
  189.7130  177.9410  139.4170 C   0  0  0  0  0  1  0  0  0  0  0  0
  188.5410  178.5540  140.0140 N   0  0  0  0  0  2  0  0  0  0  0  0
  1 19  1  0  0  0  0
  2 13  1  0  0  0  0
  4  1  1  0  0  0  0
  4 20  1  0  0  0  0
  5  1  2  0  0  0  0
  6  8  1  0  0  0  0
  7 15  1  6  0  0  0
  7  9  1  0  0  0  0
  8 11  2  0  0  0  0
  8 12  1  0  0  0  0
  9 14  1  6  0  0  0
  9 22  1  0  0  0  0
 10 21  2  0  0  0  0
 10  3  1  0  0  0  0
 11  5  1  0  0  0  0
 12  4  2  0  0  0  0
 13 18  2  0  0  0  0
 15 23  1  0  0  0  0
 16  2  1  0  0  0  0
 17  3  1  0  0  0  0
 17 26  1  0  0  0  0
 19  2  2  0  0  0  0
 19 26  1  0  0  0  0
 20 17  2  0  0  0  0
 22 20  1  1  0  0  0
 22 10  1  0  0  0  0
 23 14  1  0  0  0  0
 25 18  1  0  0  0  0
 26 25  2  0  0  0  0
 27 24  1  1  0  0  0
 27  7  1  0  0  0  0
 27 12  1  0  0  0  0
 28 11  1  0  0  0  0
 28 30  1  0  0  0  0
 29 30  1  0  0  0  0
M  END
>  <MODEL>
6

>  <REMARK>
 VINA RESULT:      -8.5      3.478      5.412
  Name = 
  2 active torsions:
  status: ('A' for Active; 'I' for Inactive)
    1  A    between atoms: C_11  and  C_28
    2  A    between atoms: C_28  and  N_30
                            x       y       z     vdW  Elec       q    Type
                         _______ _______ _______ _____ _____    ______ ____

>  <TORSDO>
F 2

$$$$
=
 OpenBabel11122410263D

 30 35  0  0  1  0  0  0  0  0999 V2000
  185.7510  178.2280  143.7930 C   0  0  0  0  0  0  0  0  0  0  0  0
  183.2620  178.5220  143.7820 C   0  0  0  0  0  0  0  0  0  0  0  0
  185.8990  178.8270  139.6300 N   0  0  0  0  0  2  0  0  0  0  0  0
  186.9820  178.1730  143.0690 C   0  0  0  0  0  0  0  0  0  0  0  0
  185.7800  178.0410  145.1820 C   0  0  0  0  0  3  0  0  0  0  0  0
  189.3530  177.4410  145.8430 O   0  0  0  0  0  1  0  0  0  0  0  0
  189.5030  176.7000  141.9360 C   0  0  1  0  0  3  0  0  0  0  0  0
  188.1720  177.7120  145.1560 C   0  0  0  0  0  0  0  0  0  0  0  0
  188.8300  177.1310  140.6230 C   0  0  2  0  0  3  0  0  0  0  0  0
  187.3030  178.7360  139.4360 C   0  0  0  0  0  0  0  0  0  0  0  0
  186.9690  177.8000  145.8610 C   0  0  0  0  0  0  0  0  0  0  0  0
  188.1940  177.8900  143.7620 C   0  0  0  0  0  0  0  0  0  0  0  0
  182.0870  178.7600  143.0640 C   0  0  0  0  0  3  0  0  0  0  0  0
  189.9430  177.1810  139.5940 C   0  0  0  0  0  2  0  0  0  0  0  0
  190.9170  176.2610  141.5900 C   0  0  0  0  0  2  0  0  0  0  0  0
  183.1490  178.3510  145.1230 F   0  0  0  0  0  0  0  0  0  0  0  0
  185.7400  178.6150  141.0240 C   0  0  0  0  0  0  0  0  0  0  0  0
  182.1230  178.9460  141.6840 C   0  0  0  0  0  3  0  0  0  0  0  0
  184.5150  178.4660  143.1150 C   0  0  0  0  0  0  0  0  0  0  0  0
  186.9350  178.3850  141.6760 C   0  0  0  0  0  0  0  0  0  0  0  0
  187.8390  178.9190  138.3110 O   0  0  0  0  0  0  0  0  0  0  0  0
  188.0700  178.4600  140.6960 C   0  0  1  0  0  3  0  0  0  0  0  0
  190.9800  176.1970  140.0800 C   0  0  0  0  0  2  0  0  0  0  0  0
  190.1770  179.0700  142.7320 C   0  0  0  0  0  1  0  0  0  0  0  0
  183.3380  178.8960  141.0070 C   0  0  0  0  0  3  0  0  0  0  0  0
  184.5280  178.6580  141.7050 C   0  0  0  0  0  0  0  0  0  0  0  0
  189.5240  177.7340  143.0740 C   0  0  2  0  0  3  0  0  0  0  0  0
  186.9270  177.5890  147.3380 C   0  0  0  0  0  2  0  0  0  0  0  0
  188.4590  178.2720  148.9540 C   0  0  0  0  0  1  0  0  0  0  0  0
  187.4620  178.7550  148.0180 N   0  0  0  0  0  2  0  0  0  0  0  0
  1  5  2  0  0  0  0
  2 16  1  0  0  0  0
  3 17  1  0  0  0  0
  4 12  2  0  0  0  0
  4  1  1  0  0  0  0
  5 11  1  0  0  0  0
  7 15  1  6  0  0  0
  7 27  1  0  0  0  0
  8  6  1  0  0  0  0
  8 11  2  0  0  0  0
  9 14  1  6  0  0  0
  9 22  1  0  0  0  0
  9  7  1  0  0  0  0
 10  3  1  0  0  0  0
 11 28  1  0  0  0  0
 12  8  1  0  0  0  0
 13  2  2  0  0  0  0
 14 23  1  0  0  0  0
 17 20  2  0  0  0  0
 17 26  1  0  0  0  0
 18 13  1  0  0  0  0
 19  2  1  0  0  0  0
 19  1  1  0  0  0  0
 20  4  1  0  0  0  0
 21 10  2  0  0  0  0
 22 10  1  6  0  0  0
 22 20  1  0  0  0  0
 23 15  1  0  0  0  0
 25 18  2  0  0  0  0
 25 26  1  0  0  0  0
 26 19  2  0  0  0  0
 27 24  1  6  0  0  0
 27 12  1  0  0  0  0
 28 30  1  0  0  0  0
 30 29  1  0  0  0  0
M  END
>  <MODEL>
7

>  <REMARK>
 VINA RESULT:      -8.4      2.731      7.132
  Name = 
  2 active torsions:
  status: ('A' for Active; 'I' for Inactive)
    1  A    between atoms: C_11  and  C_28
    2  A    between atoms: C_28  and  N_30
                            x       y       z     vdW  Elec       q    Type
                         _______ _______ _______ _____ _____    ______ ____

>  <TORSDO>
F 2

$$$$
=
 OpenBabel11122410263D

 30 35  0  0  1  0  0  0  0  0999 V2000
  187.0450  178.1920  141.8320 C   0  0  0  0  0  0  0  0  0  0  0  0
  186.0750  178.3990  144.1340 C   0  0  0  0  0  0  0  0  0  0  0  0
  183.2660  178.8920  140.1140 N   0  0  0  0  0  2  0  0  0  0  0  0
  186.8520  178.1980  140.4160 C   0  0  0  0  0  0  0  0  0  0  0  0
  188.3350  177.9750  142.3330 C   0  0  0  0  0  3  0  0  0  0  0  0
  190.3210  177.4880  139.2700 O   0  0  0  0  0  1  0  0  0  0  0  0
  186.7700  176.8430  137.5930 C   0  0  1  0  0  3  0  0  0  0  0  0
  189.2330  177.7320  140.1050 C   0  0  0  0  0  0  0  0  0  0  0  0
  185.3020  177.2790  137.7260 C   0  0  2  0  0  3  0  0  0  0  0  0
  183.6290  178.8550  138.7420 C   0  0  0  0  0  0  0  0  0  0  0  0
  189.4190  177.7610  141.4890 C   0  0  0  0  0  0  0  0  0  0  0  0
  187.9570  177.9430  139.5540 C   0  0  0  0  0  0  0  0  0  0  0  0
  184.9600  178.6110  144.9500 C   0  0  0  0  0  3  0  0  0  0  0  0
  184.7830  177.3910  136.3050 C   0  0  0  0  0  2  0  0  0  0  0  0
  186.9930  176.4610  136.1390 C   0  0  0  0  0  2  0  0  0  0  0  0
  187.2670  178.1930  144.7480 F   0  0  0  0  0  0  0  0  0  0  0  0
  184.4890  178.6430  140.7900 C   0  0  0  0  0  0  0  0  0  0  0  0
  183.7030  178.8290  144.3920 C   0  0  0  0  0  3  0  0  0  0  0  0
  185.9430  178.4030  142.7200 C   0  0  0  0  0  0  0  0  0  0  0  0
  185.5500  178.4400  139.9310 C   0  0  0  0  0  0  0  0  0  0  0  0
  182.8000  179.0830  137.8220 O   0  0  0  0  0  0  0  0  0  0  0  0
  185.0860  178.5780  138.5090 C   0  0  1  0  0  3  0  0  0  0  0  0
  185.6250  176.4340  135.4950 C   0  0  0  0  0  2  0  0  0  0  0  0
  187.7810  179.2150  137.3780 C   0  0  0  0  0  1  0  0  0  0  0  0
  183.5480  178.8380  143.0090 C   0  0  0  0  0  3  0  0  0  0  0  0
  184.6490  178.6260  142.1720 C   0  0  0  0  0  0  0  0  0  0  0  0
  187.8350  177.8500  138.0570 C   0  0  2  0  0  3  0  0  0  0  0  0
  190.7630  177.5160  142.0880 C   0  0  0  0  0  2  0  0  0  0  0  0
  191.6050  178.5320  144.0080 C   0  0  0  0  0  1  0  0  0  0  0  0
  190.6680  177.5300  143.5370 N   0  0  0  0  0  2  0  0  0  0  0  0
  1  5  1  0  0  0  0
  1 19  1  0  0  0  0
  2 16  1  0  0  0  0
  2 13  1  0  0  0  0
  3 17  1  0  0  0  0
  4  1  2  0  0  0  0
  6  8  1  0  0  0  0
  7 15  1  6  0  0  0
  7  9  1  0  0  0  0
  7 27  1  0  0  0  0
  8 11  1  0  0  0  0
  9 14  1  6  0  0  0
  9 22  1  0  0  0  0
 10  3  1  0  0  0  0
 11 28  1  0  0  0  0
 11  5  2  0  0  0  0
 12  8  2  0  0  0  0
 12  4  1  0  0  0  0
 17 26  1  0  0  0  0
 18 13  2  0  0  0  0
 19  2  2  0  0  0  0
 20  4  1  0  0  0  0
 20 17  2  0  0  0  0
 21 10  2  0  0  0  0
 22 10  1  1  0  0  0
 22 20  1  0  0  0  0
 23 15  1  0  0  0  0
 23 14  1  0  0  0  0
 25 18  1  0  0  0  0
 26 19  1  0  0  0  0
 26 25  2  0  0  0  0
 27 24  1  1  0  0  0
 27 12  1  0  0  0  0
 28 30  1  0  0  0  0
 30 29  1  0  0  0  0
M  END
>  <MODEL>
8

>  <REMARK>
 VINA RESULT:      -8.3      3.490      6.095
  Name = 
  2 active torsions:
  status: ('A' for Active; 'I' for Inactive)
    1  A    between atoms: C_11  and  C_28
    2  A    between atoms: C_28  and  N_30
                            x       y       z     vdW  Elec       q    Type
                         _______ _______ _______ _____ _____    ______ ____

>  <TORSDO>
F 2

$$$$
=
 OpenBabel11122410263D

 30 35  0  0  1  0  0  0  0  0999 V2000
  188.1590  177.4990  144.0670 C   0  0  0  0  0  0  0  0  0  0  0  0
  189.2810  176.9960  146.2510 C   0  0  0  0  0  0  0  0  0  0  0  0
  184.7180  178.8510  146.0780 N   0  0  0  0  0  2  0  0  0  0  0  0
  187.0080  177.9640  143.3580 C   0  0  0  0  0  0  0  0  0  0  0  0
  189.2780  177.0850  143.3310 C   0  0  0  0  0  3  0  0  0  0  0  0
  188.1660  177.5280  139.8480 O   0  0  0  0  0  1  0  0  0  0  0  0
  184.5340  177.5850  141.4750 C   0  0  1  0  0  3  0  0  0  0  0  0
  188.1550  177.5330  141.2420 C   0  0  0  0  0  0  0  0  0  0  0  0
  183.8240  178.0100  142.7700 C   0  0  2  0  0  3  0  0  0  0  0  0
  183.9370  179.2410  144.9580 C   0  0  0  0  0  0  0  0  0  0  0  0
  189.2880  177.1120  141.9410 C   0  0  0  0  0  0  0  0  0  0  0  0
  187.0080  177.9560  141.9340 C   0  0  0  0  0  0  0  0  0  0  0  0
  189.2300  176.9780  147.6470 C   0  0  0  0  0  3  0  0  0  0  0  0
  182.4930  178.5900  142.3310 C   0  0  0  0  0  2  0  0  0  0  0  0
  183.5130  177.6800  140.3530 C   0  0  0  0  0  2  0  0  0  0  0  0
  190.4230  176.5600  145.6620 F   0  0  0  0  0  0  0  0  0  0  0  0
  185.9130  178.3540  145.4960 C   0  0  0  0  0  0  0  0  0  0  0  0
  188.0910  177.4090  148.3230 C   0  0  0  0  0  3  0  0  0  0  0  0
  188.1690  177.4560  145.4960 C   0  0  0  0  0  0  0  0  0  0  0  0
  185.9000  178.3970  144.1160 C   0  0  0  0  0  0  0  0  0  0  0  0
  182.8070  179.7810  145.0830 O   0  0  0  0  0  0  0  0  0  0  0  0
  184.6100  178.9980  143.6390 C   0  0  1  0  0  3  0  0  0  0  0  0
  182.1750  177.9110  141.0200 C   0  0  0  0  0  2  0  0  0  0  0  0
  185.6570  179.8630  140.9720 C   0  0  0  0  0  1  0  0  0  0  0  0
  186.9880  177.8650  147.6060 C   0  0  0  0  0  3  0  0  0  0  0  0
  187.0160  177.8910  146.2070 C   0  0  0  0  0  0  0  0  0  0  0  0
  185.8150  178.3510  141.1050 C   0  0  2  0  0  3  0  0  0  0  0  0
  190.5050  176.6380  141.2190 C   0  0  0  0  0  2  0  0  0  0  0  0
  192.5250  177.2600  140.2420 C   0  0  0  0  0  1  0  0  0  0  0  0
  191.2550  177.7750  140.7160 N   0  0  0  0  0  2  0  0  0  0  0  0
  1 19  1  0  0  0  0
  2 13  1  0  0  0  0
  4  1  1  0  0  0  0
  4 20  1  0  0  0  0
  5  1  2  0  0  0  0
  6  8  1  0  0  0  0
  7 15  1  6  0  0  0
  7  9  1  0  0  0  0
  8 12  1  0  0  0  0
  8 11  2  0  0  0  0
  9 14  1  6  0  0  0
  9 22  1  0  0  0  0
 10 21  2  0  0  0  0
 10  3  1  0  0  0  0
 11  5  1  0  0  0  0
 12  4  2  0  0  0  0
 13 18  2  0  0  0  0
 15 23  1  0  0  0  0
 16  2  1  0  0  0  0
 17  3  1  0  0  0  0
 17 26  1  0  0  0  0
 19 26  1  0  0  0  0
 19  2  2  0  0  0  0
 20 17  2  0  0  0  0
 22 20  1  1  0  0  0
 22 10  1  0  0  0  0
 23 14  1  0  0  0  0
 25 18  1  0  0  0  0
 26 25  2  0  0  0  0
 27 24  1  1  0  0  0
 27  7  1  0  0  0  0
 27 12  1  0  0  0  0
 28 11  1  0  0  0  0
 29 30  1  0  0  0  0
 30 28  1  0  0  0  0
M  END
>  <MODEL>
9

>  <REMARK>
 VINA RESULT:      -7.9      1.556      2.213
  Name = 
  2 active torsions:
  status: ('A' for Active; 'I' for Inactive)
    1  A    between atoms: C_11  and  C_28
    2  A    between atoms: C_28  and  N_30
                            x       y       z     vdW  Elec       q    Type
                         _______ _______ _______ _____ _____    ______ ____

>  <TORSDO>
F 2

$$$$
