=
 OpenBabel11122410463D

 32 37  0  0  1  0  0  0  0  0999 V2000
  179.5990  176.5010  138.9490 C   0  0  0  0  0  2  0  0  0  0  0  0
  183.8070  179.3110  140.8960 N   0  0  1  0  0  0  0  0  0  0  0  0
  187.8170  177.7750  138.3500 C   0  0  0  0  0  2  0  0  0  0  0  0
  188.6410  178.4810  139.4190 C   0  0  0  0  0  2  0  0  0  0  0  0
  183.7530  179.1730  143.4010 C   0  0  2  0  0  3  0  0  0  0  0  0
  184.5660  178.7810  144.6030 C   0  0  0  0  0  0  0  0  0  0  0  0
  181.8010  177.8520  140.5640 C   0  0  2  0  0  3  0  0  0  0  0  0
  183.8340  177.3230  139.4120 C   0  0  0  0  0  2  0  0  0  0  0  0
  186.2210  177.9560  145.8570 N   0  0  0  0  0  0  0  0  0  0  0  0
  182.0420  175.8740  139.2650 C   0  0  0  0  0  2  0  0  0  0  0  0
  186.4180  178.3900  138.2480 C   0  0  0  0  0  2  0  0  0  0  0  0
  184.3340  178.7560  139.6380 C   0  0  2  0  0  3  0  0  0  0  0  0
  185.8580  178.8560  139.6040 C   0  0  1  0  0  3  0  0  0  0  0  0
  185.8730  178.6050  142.1070 C   0  0  2  0  0  3  0  0  0  0  0  0
  185.2450  178.5240  146.7790 C   0  0  0  0  0  2  0  0  0  0  0  0
  179.6750  176.7180  140.3300 O   0  0  0  0  0  0  0  0  0  0  0  0
  182.3750  177.2950  139.3230 N   0  0  1  0  0  0  0  0  0  0  0  0
  184.2100  179.0110  145.9240 O   0  0  0  0  0  0  0  0  0  0  0  0
  180.2770  177.9740  140.4590 C   0  0  0  0  0  2  0  0  0  0  0  0
  180.7580  175.6290  138.4660 C   0  0  1  0  0  3  0  0  0  0  0  0
  188.0150  178.3120  140.8100 C   0  0  0  0  0  2  0  0  0  0  0  0
  186.4860  178.1180  140.7920 C   0  0  2  0  0  3  0  0  0  0  0  0
  186.3970  177.7640  143.2770 C   0  0  0  0  0  2  0  0  0  0  0  0
  182.3390  179.2700  140.8210 C   0  0  0  0  0  2  0  0  0  0  0  0
  182.4380  178.7510  143.5980 O   0  0  0  0  0  1  0  0  0  0  0  0
  187.5800  177.5810  146.2090 C   0  0  0  0  0  1  0  0  0  0  0  0
  184.3200  178.5780  142.0800 C   0  0  2  0  0  3  0  0  0  0  0  0
  185.7420  178.1980  144.5470 C   0  0  0  0  0  0  0  0  0  0  0  0
  180.3810  174.2270  138.5610 N   0  0  0  0  0  2  0  0  0  0  0  0
  180.7410  173.2630  137.5700 C   0  0  0  0  0  0  0  0  0  0  0  0
  181.3890  173.6030  136.5450 O   0  0  0  0  0  0  0  0  0  0  0  0
  180.3400  171.8420  137.7480 C   0  0  0  0  0  1  0  0  0  0  0  0
  1 16  1  0  0  0  0
  2 24  1  6  0  0  0
  2 27  1  0  0  0  0
  3  4  1  0  0  0  0
  4 21  1  0  0  0  0
  5 25  1  1  0  0  0
  5  6  1  0  0  0  0
  6 18  1  0  0  0  0
  7 19  1  6  0  0  0
  7 24  1  0  0  0  0
  9 26  1  0  0  0  0
  9 15  1  0  0  0  0
 11  3  1  0  0  0  0
 12  8  1  1  0  0  0
 12  2  1  0  0  0  0
 13 11  1  6  0  0  0
 13 12  1  0  0  0  0
 13 22  1  0  0  0  0
 14 23  1  1  0  0  0
 16 19  1  0  0  0  0
 17 10  1  1  0  0  0
 17  8  1  0  0  0  0
 17  7  1  0  0  0  0
 18 15  1  0  0  0  0
 20 29  1  1  0  0  0
 20  1  1  0  0  0  0
 20 10  1  0  0  0  0
 22 21  1  1  0  0  0
 22 14  1  0  0  0  0
 23 28  1  0  0  0  0
 27 14  1  0  0  0  0
 27  5  1  0  0  0  0
 28  6  2  0  0  0  0
 28  9  1  0  0  0  0
 30 32  1  0  0  0  0
 30 29  1  0  0  0  0
 31 30  2  0  0  0  0
M  END
>  <MODEL>
1

>  <REMARK>
 VINA RESULT:      -8.0      0.000      0.000
  Name = 
  1 active torsions:
  status: ('A' for Active; 'I' for Inactive)
    1  A    between atoms: C_20  and  N_29
                            x       y       z     vdW  Elec       q    Type
                         _______ _______ _______ _____ _____    ______ ____

>  <TORSDO>
F 1

$$$$
=
 OpenBabel11122410463D

 32 37  0  0  1  0  0  0  0  0999 V2000
  184.1970  175.5640  135.2480 C   0  0  0  0  0  2  0  0  0  0  0  0
  187.1140  178.5570  138.7010 N   0  0  1  0  0  0  0  0  0  0  0  0
  191.6670  176.5140  138.8280 C   0  0  0  0  0  2  0  0  0  0  0  0
  191.9060  177.3690  140.0650 C   0  0  0  0  0  2  0  0  0  0  0  0
  185.7830  178.8470  140.8090 C   0  0  2  0  0  3  0  0  0  0  0  0
  185.8260  178.6440  142.2970 C   0  0  0  0  0  0  0  0  0  0  0  0
  185.4080  177.1140  137.5740 C   0  0  2  0  0  3  0  0  0  0  0  0
  187.6730  176.3470  137.7230 C   0  0  0  0  0  2  0  0  0  0  0  0
  186.5160  178.0010  144.3240 N   0  0  0  0  0  0  0  0  0  0  0  0
  186.0580  174.9390  136.8630 C   0  0  0  0  0  2  0  0  0  0  0  0
  190.5890  177.1370  137.9370 C   0  0  0  0  0  2  0  0  0  0  0  0
  188.1420  177.7850  137.9840 C   0  0  2  0  0  3  0  0  0  0  0  0
  189.4730  177.8390  138.7310 C   0  0  1  0  0  3  0  0  0  0  0  0
  188.1900  178.0150  140.8880 C   0  0  2  0  0  3  0  0  0  0  0  0
  185.2760  178.7420  144.5230 C   0  0  0  0  0  2  0  0  0  0  0  0
  183.5860  176.0090  136.4260 O   0  0  0  0  0  0  0  0  0  0  0  0
  186.4680  176.3400  136.8960 N   0  0  1  0  0  0  0  0  0  0  0  0
  184.8770  179.1020  143.2000 O   0  0  0  0  0  0  0  0  0  0  0  0
  184.1710  177.2540  136.6800 C   0  0  0  0  0  2  0  0  0  0  0  0
  185.3390  174.5940  135.5550 C   0  0  1  0  0  3  0  0  0  0  0  0
  190.6470  177.4530  140.9390 C   0  0  0  0  0  2  0  0  0  0  0  0
  189.3280  177.2980  140.1570 C   0  0  2  0  0  3  0  0  0  0  0  0
  187.9540  177.3710  142.2590 C   0  0  0  0  0  2  0  0  0  0  0  0
  185.8920  178.5400  137.8830 C   0  0  0  0  0  2  0  0  0  0  0  0
  184.5130  178.4960  140.3500 O   0  0  0  0  0  1  0  0  0  0  0  0
  187.4600  177.6580  145.3740 C   0  0  0  0  0  1  0  0  0  0  0  0
  186.8730  178.0230  140.0640 C   0  0  2  0  0  3  0  0  0  0  0  0
  186.7970  178.0300  142.9360 C   0  0  0  0  0  0  0  0  0  0  0  0
  184.8150  173.2380  135.6250 N   0  0  0  0  0  2  0  0  0  0  0  0
  185.5430  172.1050  135.1460 C   0  0  0  0  0  0  0  0  0  0  0  0
  186.6750  172.2450  134.6130 O   0  0  0  0  0  0  0  0  0  0  0  0
  184.9530  170.7470  135.2750 C   0  0  0  0  0  1  0  0  0  0  0  0
  1 20  1  0  0  0  0
  1 16  1  0  0  0  0
  2 24  1  6  0  0  0
  2 27  1  0  0  0  0
  3  4  1  0  0  0  0
  4 21  1  0  0  0  0
  5 25  1  6  0  0  0
  5  6  1  0  0  0  0
  6 28  2  0  0  0  0
  6 18  1  0  0  0  0
  7 19  1  6  0  0  0
  7 24  1  0  0  0  0
  9 15  1  0  0  0  0
  9 26  1  0  0  0  0
 11  3  1  0  0  0  0
 12  8  1  1  0  0  0
 12  2  1  0  0  0  0
 12 13  1  0  0  0  0
 13 11  1  6  0  0  0
 13 22  1  0  0  0  0
 14 23  1  1  0  0  0
 16 19  1  0  0  0  0
 17 10  1  1  0  0  0
 17  7  1  0  0  0  0
 17  8  1  0  0  0  0
 18 15  1  0  0  0  0
 20 29  1  1  0  0  0
 20 10  1  0  0  0  0
 22 14  1  0  0  0  0
 22 21  1  1  0  0  0
 23 28  1  0  0  0  0
 27  5  1  0  0  0  0
 27 14  1  0  0  0  0
 28  9  1  0  0  0  0
 30 32  1  0  0  0  0
 30 29  1  0  0  0  0
 31 30  2  0  0  0  0
M  END
>  <MODEL>
2

>  <REMARK>
 VINA RESULT:      -7.8      3.150      4.133
  Name = 
  1 active torsions:
  status: ('A' for Active; 'I' for Inactive)
    1  A    between atoms: C_20  and  N_29
                            x       y       z     vdW  Elec       q    Type
                         _______ _______ _______ _____ _____    ______ ____

>  <TORSDO>
F 1

$$$$
=
 OpenBabel11122410463D

 32 37  0  0  1  0  0  0  0  0999 V2000
  187.0580  175.3000  134.9490 C   0  0  0  0  0  2  0  0  0  0  0  0
  187.9590  178.6330  139.1290 N   0  0  1  0  0  0  0  0  0  0  0  0
  192.0580  176.9340  141.4190 C   0  0  0  0  0  2  0  0  0  0  0  0
  191.6720  177.8530  142.5710 C   0  0  0  0  0  2  0  0  0  0  0  0
  185.8090  178.9070  140.3940 C   0  0  2  0  0  3  0  0  0  0  0  0
  185.1870  178.7660  141.7540 C   0  0  0  0  0  0  0  0  0  0  0  0
  187.0160  177.0250  137.4590 C   0  0  2  0  0  3  0  0  0  0  0  0
  189.0040  176.4320  138.6580 C   0  0  0  0  0  2  0  0  0  0  0  0
  184.9180  178.2560  143.9140 N   0  0  0  0  0  0  0  0  0  0  0  0
  188.0190  174.8770  137.2640 C   0  0  0  0  0  2  0  0  0  0  0  0
  191.4690  177.4420  140.0990 C   0  0  0  0  0  2  0  0  0  0  0  0
  189.2360  177.9100  139.0030 C   0  0  2  0  0  3  0  0  0  0  0  0
  190.0830  178.0910  140.2600 C   0  0  1  0  0  3  0  0  0  0  0  0
  187.9580  178.2570  141.5980 C   0  0  2  0  0  3  0  0  0  0  0  0
  183.6880  178.9120  143.4860 C   0  0  0  0  0  2  0  0  0  0  0  0
  185.9610  175.7460  135.6960 O   0  0  0  0  0  0  0  0  0  0  0  0
  188.3020  176.3050  137.3820 N   0  0  1  0  0  0  0  0  0  0  0  0
  183.9120  179.1890  142.1030 O   0  0  0  0  0  0  0  0  0  0  0  0
  186.3100  177.0400  136.1000 C   0  0  0  0  0  2  0  0  0  0  0  0
  187.9840  174.4300  135.7990 C   0  0  1  0  0  3  0  0  0  0  0  0
  190.1530  177.8790  142.7810 C   0  0  0  0  0  2  0  0  0  0  0  0
  189.3360  177.5970  141.5040 C   0  0  2  0  0  3  0  0  0  0  0  0
  187.1610  177.6530  142.7590 C   0  0  0  0  0  2  0  0  0  0  0  0
  187.2400  178.4940  137.8540 C   0  0  0  0  0  2  0  0  0  0  0  0
  184.9000  178.4470  139.4410 O   0  0  0  0  0  1  0  0  0  0  0  0
  185.3020  178.0250  145.2960 C   0  0  0  0  0  1  0  0  0  0  0  0
  187.1550  178.1360  140.2730 C   0  0  2  0  0  3  0  0  0  0  0  0
  185.7930  178.2520  142.8000 C   0  0  0  0  0  0  0  0  0  0  0  0
  187.5500  173.0430  135.7200 N   0  0  0  0  0  2  0  0  0  0  0  0
  188.4660  171.9570  135.5630 C   0  0  0  0  0  0  0  0  0  0  0  0
  189.7030  172.1670  135.4610 O   0  0  0  0  0  0  0  0  0  0  0  0
  187.9500  170.5630  135.5150 C   0  0  0  0  0  1  0  0  0  0  0  0
  1 16  1  0  0  0  0
  1 20  1  0  0  0  0
  2 24  1  6  0  0  0
  2 27  1  0  0  0  0
  3  4  1  0  0  0  0
  4 21  1  0  0  0  0
  5 25  1  6  0  0  0
  5  6  1  0  0  0  0
  6 18  1  0  0  0  0
  6 28  2  0  0  0  0
  7 19  1  6  0  0  0
  7 24  1  0  0  0  0
  9 26  1  0  0  0  0
 11  3  1  0  0  0  0
 12  8  1  1  0  0  0
 12  2  1  0  0  0  0
 12 13  1  0  0  0  0
 13 11  1  6  0  0  0
 13 22  1  0  0  0  0
 14 23  1  1  0  0  0
 15  9  1  0  0  0  0
 16 19  1  0  0  0  0
 17 10  1  1  0  0  0
 17  7  1  0  0  0  0
 17  8  1  0  0  0  0
 18 15  1  0  0  0  0
 20 29  1  1  0  0  0
 20 10  1  0  0  0  0
 22 14  1  0  0  0  0
 22 21  1  1  0  0  0
 23 28  1  0  0  0  0
 27  5  1  0  0  0  0
 27 14  1  0  0  0  0
 28  9  1  0  0  0  0
 30 29  1  0  0  0  0
 31 30  2  0  0  0  0
 32 30  1  0  0  0  0
M  END
>  <MODEL>
3

>  <REMARK>
 VINA RESULT:      -7.2      3.855      5.477
  Name = 
  1 active torsions:
  status: ('A' for Active; 'I' for Inactive)
    1  A    between atoms: C_20  and  N_29
                            x       y       z     vdW  Elec       q    Type
                         _______ _______ _______ _____ _____    ______ ____

>  <TORSDO>
F 1

$$$$
=
 OpenBabel11122410463D

 32 37  0  0  1  0  0  0  0  0999 V2000
  183.6340  175.6470  136.2030 C   0  0  0  0  0  2  0  0  0  0  0  0
  188.2920  177.9850  137.6980 N   0  0  1  0  0  0  0  0  0  0  0  0
  191.9460  175.2540  135.6690 C   0  0  0  0  0  2  0  0  0  0  0  0
  192.8870  176.0030  136.6040 C   0  0  0  0  0  2  0  0  0  0  0  0
  188.2150  178.3780  140.1760 C   0  0  2  0  0  3  0  0  0  0  0  0
  188.9410  178.1010  141.4610 C   0  0  0  0  0  0  0  0  0  0  0  0
  186.0490  176.8790  137.5930 C   0  0  2  0  0  3  0  0  0  0  0  0
  187.9480  175.7630  136.6500 C   0  0  0  0  0  2  0  0  0  0  0  0
  190.4140  177.2640  142.9190 N   0  0  0  0  0  0  0  0  0  0  0  0
  185.9190  174.6650  136.7320 C   0  0  0  0  0  2  0  0  0  0  0  0
  190.6850  176.0790  135.3930 C   0  0  0  0  0  2  0  0  0  0  0  0
  188.7060  177.0960  136.6000 C   0  0  2  0  0  3  0  0  0  0  0  0
  190.2220  176.9080  136.6040 C   0  0  1  0  0  3  0  0  0  0  0  0
  190.1910  177.1790  139.1050 C   0  0  2  0  0  3  0  0  0  0  0  0
  189.5620  178.1790  143.6690 C   0  0  0  0  0  2  0  0  0  0  0  0
  183.7500  176.1260  137.5130 O   0  0  0  0  0  0  0  0  0  0  0  0
  186.5090  175.9820  136.5130 N   0  0  1  0  0  0  0  0  0  0  0  0
  188.6340  178.6590  142.6950 O   0  0  0  0  0  0  0  0  0  0  0  0
  184.5750  177.2510  137.4080 C   0  0  0  0  0  2  0  0  0  0  0  0
  184.6110  174.4980  135.9510 C   0  0  1  0  0  3  0  0  0  0  0  0
  192.2410  176.2400  137.9750 C   0  0  0  0  0  2  0  0  0  0  0  0
  190.7020  176.3290  137.9390 C   0  0  2  0  0  3  0  0  0  0  0  0
  190.5510  176.5170  140.4390 C   0  0  0  0  0  2  0  0  0  0  0  0
  186.8410  178.1960  137.5770 C   0  0  0  0  0  2  0  0  0  0  0  0
  186.8440  178.2510  140.4040 O   0  0  0  0  0  1  0  0  0  0  0  0
  191.6800  176.7300  143.3900 C   0  0  0  0  0  1  0  0  0  0  0  0
  188.6600  177.4310  139.0240 C   0  0  2  0  0  3  0  0  0  0  0  0
  189.9880  177.3150  141.5690 C   0  0  0  0  0  0  0  0  0  0  0  0
  183.9800  173.2390  136.3140 N   0  0  0  0  0  2  0  0  0  0  0  0
  184.3430  171.9930  135.7140 C   0  0  0  0  0  0  0  0  0  0  0  0
  185.2220  171.9440  134.8140 O   0  0  0  0  0  0  0  0  0  0  0  0
  183.6700  170.7430  136.1540 C   0  0  0  0  0  1  0  0  0  0  0  0
  1 16  1  0  0  0  0
  2 24  1  1  0  0  0
  2 27  1  0  0  0  0
  3  4  1  0  0  0  0
  4 21  1  0  0  0  0
  5 25  1  1  0  0  0
  5  6  1  0  0  0  0
  6 28  2  0  0  0  0
  6 18  1  0  0  0  0
  7 19  1  6  0  0  0
  9 26  1  0  0  0  0
  9 15  1  0  0  0  0
 11  3  1  0  0  0  0
 12 13  1  0  0  0  0
 12  8  1  1  0  0  0
 12  2  1  0  0  0  0
 13 11  1  6  0  0  0
 13 22  1  0  0  0  0
 14 23  1  1  0  0  0
 17  8  1  1  0  0  0
 17 10  1  0  0  0  0
 17  7  1  0  0  0  0
 18 15  1  0  0  0  0
 19 16  1  0  0  0  0
 20  1  1  0  0  0  0
 20 29  1  1  0  0  0
 20 10  1  0  0  0  0
 22 21  1  6  0  0  0
 22 14  1  0  0  0  0
 23 28  1  0  0  0  0
 24  7  1  0  0  0  0
 27 14  1  0  0  0  0
 27  5  1  0  0  0  0
 28  9  1  0  0  0  0
 30 32  1  0  0  0  0
 30 29  1  0  0  0  0
 31 30  2  0  0  0  0
M  END
>  <MODEL>
4

>  <REMARK>
 VINA RESULT:      -7.1      4.044      5.221
  Name = 
  1 active torsions:
  status: ('A' for Active; 'I' for Inactive)
    1  A    between atoms: C_20  and  N_29
                            x       y       z     vdW  Elec       q    Type
                         _______ _______ _______ _____ _____    ______ ____

>  <TORSDO>
F 1

$$$$
=
 OpenBabel11122410463D

 32 37  0  0  1  0  0  0  0  0999 V2000
  191.3050  177.9600  143.0260 C   0  0  0  0  0  2  0  0  0  0  0  0
  189.3960  177.4140  137.9810 N   0  0  1  0  0  0  0  0  0  0  0  0
  184.4460  177.9880  138.2860 C   0  0  0  0  0  2  0  0  0  0  0  0
  184.3950  177.4180  136.8740 C   0  0  0  0  0  2  0  0  0  0  0  0
  190.3830  175.3310  136.9880 C   0  0  2  0  0  3  0  0  0  0  0  0
  190.0300  174.0230  136.3400 C   0  0  0  0  0  0  0  0  0  0  0  0
  190.5020  177.1270  140.2080 C   0  0  2  0  0  3  0  0  0  0  0  0
  188.1300  177.4510  140.1140 C   0  0  0  0  0  2  0  0  0  0  0  0
  188.8310  172.2980  135.5760 N   0  0  0  0  0  0  0  0  0  0  0  0
  189.1270  176.9890  142.1440 C   0  0  0  0  0  2  0  0  0  0  0  0
  185.8090  178.6280  138.5640 C   0  0  0  0  0  2  0  0  0  0  0  0
  188.2650  178.0260  138.6980 C   0  0  2  0  0  3  0  0  0  0  0  0
  186.9780  177.8900  137.8860 C   0  0  1  0  0  3  0  0  0  0  0  0
  187.8680  175.7340  136.9440 C   0  0  2  0  0  3  0  0  0  0  0  0
  190.2190  172.0290  135.2200 C   0  0  0  0  0  2  0  0  0  0  0  0
  191.8560  176.9660  142.2080 O   0  0  0  0  0  0  0  0  0  0  0  0
  189.3360  177.7170  140.8960 N   0  0  1  0  0  0  0  0  0  0  0  0
  190.9310  173.1460  135.7530 O   0  0  0  0  0  0  0  0  0  0  0  0
  191.8070  177.5030  140.9170 C   0  0  0  0  0  2  0  0  0  0  0  0
  189.8320  177.6750  143.3190 C   0  0  1  0  0  3  0  0  0  0  0  0
  185.4230  176.2950  136.6860 C   0  0  0  0  0  2  0  0  0  0  0  0
  186.6630  176.4200  137.5940 C   0  0  2  0  0  3  0  0  0  0  0  0
  187.6000  174.2330  136.7870 C   0  0  0  0  0  2  0  0  0  0  0  0
  190.6110  177.6630  138.7710 C   0  0  0  0  0  2  0  0  0  0  0  0
  191.4480  175.1200  137.8640 O   0  0  0  0  0  1  0  0  0  0  0  0
  187.6800  171.6030  135.0260 C   0  0  0  0  0  1  0  0  0  0  0  0
  189.1800  175.9660  137.7430 C   0  0  2  0  0  3  0  0  0  0  0  0
  188.8060  173.5600  136.2190 C   0  0  0  0  0  0  0  0  0  0  0  0
  189.7280  176.8420  144.5080 N   0  0  0  0  0  2  0  0  0  0  0  0
  189.5140  177.3840  145.8130 C   0  0  0  0  0  0  0  0  0  0  0  0
  189.4300  178.6280  145.9880 O   0  0  0  0  0  0  0  0  0  0  0  0
  189.3940  176.4670  146.9770 C   0  0  0  0  0  1  0  0  0  0  0  0
  1 20  1  0  0  0  0
  2 12  1  0  0  0  0
  2 24  1  1  0  0  0
  3 11  1  0  0  0  0
  4  3  1  0  0  0  0
  5 27  1  0  0  0  0
  5 25  1  1  0  0  0
  6  5  1  0  0  0  0
  7 24  1  6  0  0  0
  7 17  1  0  0  0  0
  7 19  1  0  0  0  0
  9 28  1  0  0  0  0
 10 20  1  0  0  0  0
 12  8  1  1  0  0  0
 13 11  1  1  0  0  0
 13 12  1  0  0  0  0
 14 23  1  1  0  0  0
 14 22  1  0  0  0  0
 14 27  1  0  0  0  0
 15  9  1  0  0  0  0
 15 18  1  0  0  0  0
 16  1  1  0  0  0  0
 17  8  1  6  0  0  0
 17 10  1  0  0  0  0
 18  6  1  0  0  0  0
 19 16  1  0  0  0  0
 20 29  1  1  0  0  0
 21  4  1  0  0  0  0
 22 21  1  6  0  0  0
 22 13  1  0  0  0  0
 26  9  1  0  0  0  0
 27  2  1  0  0  0  0
 28  6  2  0  0  0  0
 28 23  1  0  0  0  0
 29 30  1  0  0  0  0
 30 31  2  0  0  0  0
 30 32  1  0  0  0  0
M  END
>  <MODEL>
5

>  <REMARK>
 VINA RESULT:      -7.0      5.040      9.547
  Name = 
  1 active torsions:
  status: ('A' for Active; 'I' for Inactive)
    1  A    between atoms: C_20  and  N_29
                            x       y       z     vdW  Elec       q    Type
                         _______ _______ _______ _____ _____    ______ ____

>  <TORSDO>
F 1

$$$$
=
 OpenBabel11122410463D

 32 37  0  0  1  0  0  0  0  0999 V2000
  180.7180  176.5860  138.9460 C   0  0  0  0  0  2  0  0  0  0  0  0
  185.5370  179.0130  139.4780 N   0  0  1  0  0  0  0  0  0  0  0  0
  188.2750  177.5680  135.5610 C   0  0  0  0  0  2  0  0  0  0  0  0
  189.4710  178.1300  136.3180 C   0  0  0  0  0  2  0  0  0  0  0  0
  186.3550  178.6320  141.8200 C   0  0  2  0  0  3  0  0  0  0  0  0
  187.5060  178.0900  142.6190 C   0  0  0  0  0  0  0  0  0  0  0  0
  183.4400  177.6790  139.7700 C   0  0  2  0  0  3  0  0  0  0  0  0
  184.8950  177.1810  137.9330 C   0  0  0  0  0  2  0  0  0  0  0  0
  189.4300  177.0760  143.1350 N   0  0  0  0  0  0  0  0  0  0  0  0
  183.0640  175.8300  138.3220 C   0  0  0  0  0  2  0  0  0  0  0  0
  186.9790  178.2480  136.0120 C   0  0  0  0  0  2  0  0  0  0  0  0
  185.5470  178.5630  138.0760 C   0  0  2  0  0  3  0  0  0  0  0  0
  186.9650  178.6010  137.5100 C   0  0  1  0  0  3  0  0  0  0  0  0
  187.8390  178.1050  139.8160 C   0  0  2  0  0  3  0  0  0  0  0  0
  188.8850  177.5920  144.3850 C   0  0  0  0  0  2  0  0  0  0  0  0
  181.2900  176.6630  140.2220 O   0  0  0  0  0  0  0  0  0  0  0  0
  183.5000  177.2220  138.3670 N   0  0  1  0  0  0  0  0  0  0  0  0
  187.6540  178.2030  143.9940 O   0  0  0  0  0  0  0  0  0  0  0  0
  181.9900  177.8750  140.2240 C   0  0  0  0  0  2  0  0  0  0  0  0
  181.5670  175.7180  138.0160 C   0  0  1  0  0  3  0  0  0  0  0  0
  189.3610  177.8510  137.8230 C   0  0  0  0  0  2  0  0  0  0  0  0
  187.9130  177.7250  138.3350 C   0  0  2  0  0  3  0  0  0  0  0  0
  188.6760  177.1320  140.6540 C   0  0  0  0  0  2  0  0  0  0  0  0
  184.1370  179.0410  139.9270 C   0  0  0  0  0  2  0  0  0  0  0  0
  185.1660  178.2480  142.4380 O   0  0  0  0  0  1  0  0  0  0  0  0
  190.7950  176.6130  142.9500 C   0  0  0  0  0  1  0  0  0  0  0  0
  186.3770  178.1470  140.3410 C   0  0  2  0  0  3  0  0  0  0  0  0
  188.5410  177.4670  142.1040 C   0  0  0  0  0  0  0  0  0  0  0  0
  181.1440  174.3310  138.1310 N   0  0  0  0  0  2  0  0  0  0  0  0
  181.1550  173.4270  137.0240 C   0  0  0  0  0  0  0  0  0  0  0  0
  181.5130  173.8140  135.8810 O   0  0  0  0  0  0  0  0  0  0  0  0
  180.7320  172.0160  137.2240 C   0  0  0  0  0  1  0  0  0  0  0  0
  1 16  1  0  0  0  0
  2 24  1  1  0  0  0
  2 27  1  0  0  0  0
  3 11  1  0  0  0  0
  3  4  1  0  0  0  0
  4 21  1  0  0  0  0
  5 25  1  1  0  0  0
  5  6  1  0  0  0  0
  6 18  1  0  0  0  0
  7 24  1  6  0  0  0
  7 19  1  0  0  0  0
  9 15  1  0  0  0  0
 10 17  1  0  0  0  0
 12  8  1  1  0  0  0
 12  2  1  0  0  0  0
 13 11  1  6  0  0  0
 13 12  1  0  0  0  0
 13 22  1  0  0  0  0
 14 27  1  0  0  0  0
 14 23  1  1  0  0  0
 16 19  1  0  0  0  0
 17  8  1  1  0  0  0
 17  7  1  0  0  0  0
 18 15  1  0  0  0  0
 20 29  1  1  0  0  0
 20 10  1  0  0  0  0
 20  1  1  0  0  0  0
 22 21  1  6  0  0  0
 22 14  1  0  0  0  0
 23 28  1  0  0  0  0
 26  9  1  0  0  0  0
 27  5  1  0  0  0  0
 28  6  2  0  0  0  0
 28  9  1  0  0  0  0
 30 32  1  0  0  0  0
 30 29  1  0  0  0  0
 31 30  2  0  0  0  0
M  END
>  <MODEL>
6

>  <REMARK>
 VINA RESULT:      -6.9      1.987      2.706
  Name = 
  1 active torsions:
  status: ('A' for Active; 'I' for Inactive)
    1  A    between atoms: C_20  and  N_29
                            x       y       z     vdW  Elec       q    Type
                         _______ _______ _______ _____ _____    ______ ____

>  <TORSDO>
F 1

$$$$
=
 OpenBabel11122410463D

 32 37  0  0  1  0  0  0  0  0999 V2000
  191.4420  177.4840  140.1780 C   0  0  0  0  0  2  0  0  0  0  0  0
  187.1100  177.2480  136.9270 N   0  0  1  0  0  0  0  0  0  0  0  0
  183.3040  179.1770  139.5200 C   0  0  0  0  0  2  0  0  0  0  0  0
  182.4020  178.5780  138.4480 C   0  0  0  0  0  2  0  0  0  0  0  0
  186.9640  174.9300  135.9770 C   0  0  2  0  0  3  0  0  0  0  0  0
  186.0580  173.7400  135.8400 C   0  0  0  0  0  0  0  0  0  0  0  0
  189.1270  176.7730  138.3290 C   0  0  2  0  0  3  0  0  0  0  0  0
  187.1880  177.7330  139.3590 C   0  0  0  0  0  2  0  0  0  0  0  0
  184.3040  172.3780  136.0960 N   0  0  0  0  0  0  0  0  0  0  0  0
  188.9770  177.1110  140.6790 C   0  0  0  0  0  2  0  0  0  0  0  0
  184.7100  179.4290  138.9670 C   0  0  0  0  0  2  0  0  0  0  0  0
  186.6800  178.1810  137.9810 C   0  0  2  0  0  3  0  0  0  0  0  0
  185.1640  178.3670  137.9500 C   0  0  1  0  0  3  0  0  0  0  0  0
  184.9500  176.0070  137.1060 C   0  0  2  0  0  3  0  0  0  0  0  0
  185.2070  171.7200  135.1600 C   0  0  0  0  0  2  0  0  0  0  0  0
  191.2580  176.3400  139.3930 O   0  0  0  0  0  0  0  0  0  0  0  0
  188.6490  177.6930  139.3810 N   0  0  1  0  0  0  0  0  0  0  0  0
  186.3090  172.6220  135.0570 O   0  0  0  0  0  0  0  0  0  0  0  0
  190.6550  176.8080  138.2200 C   0  0  0  0  0  2  0  0  0  0  0  0
  190.3190  177.6310  141.2060 C   0  0  1  0  0  3  0  0  0  0  0  0
  182.9160  177.2070  137.9880 C   0  0  0  0  0  2  0  0  0  0  0  0
  184.4400  177.0280  138.1260 C   0  0  2  0  0  3  0  0  0  0  0  0
  184.3300  174.6320  137.3790 C   0  0  0  0  0  2  0  0  0  0  0  0
  188.5790  177.1900  136.9540 C   0  0  0  0  0  2  0  0  0  0  0  0
  188.2570  174.4740  136.2370 O   0  0  0  0  0  1  0  0  0  0  0  0
  182.9190  172.0010  136.3230 C   0  0  0  0  0  1  0  0  0  0  0  0
  186.5010  175.9060  137.0970 C   0  0  2  0  0  3  0  0  0  0  0  0
  184.8860  173.6270  136.4240 C   0  0  0  0  0  0  0  0  0  0  0  0
  190.6800  176.9160  142.4200 N   0  0  0  0  0  2  0  0  0  0  0  0
  191.1130  177.5830  143.6080 C   0  0  0  0  0  0  0  0  0  0  0  0
  191.2250  178.8370  143.6380 O   0  0  0  0  0  0  0  0  0  0  0  0
  191.4410  176.7860  144.8190 C   0  0  0  0  0  1  0  0  0  0  0  0
  1 20  1  0  0  0  0
  2 24  1  1  0  0  0
  2 27  1  0  0  0  0
  2 12  1  0  0  0  0
  4  3  1  0  0  0  0
  5 25  1  1  0  0  0
  5 27  1  0  0  0  0
  6  5  1  0  0  0  0
  6 28  2  0  0  0  0
  7 24  1  6  0  0  0
  7 17  1  0  0  0  0
  9 26  1  0  0  0  0
  9 28  1  0  0  0  0
 10 20  1  0  0  0  0
 11  3  1  0  0  0  0
 12  8  1  1  0  0  0
 13 12  1  0  0  0  0
 13 22  1  0  0  0  0
 13 11  1  1  0  0  0
 14 23  1  1  0  0  0
 14 22  1  0  0  0  0
 15  9  1  0  0  0  0
 16  1  1  0  0  0  0
 17  8  1  1  0  0  0
 17 10  1  0  0  0  0
 18 15  1  0  0  0  0
 18  6  1  0  0  0  0
 19  7  1  0  0  0  0
 19 16  1  0  0  0  0
 20 29  1  1  0  0  0
 21  4  1  0  0  0  0
 22 21  1  6  0  0  0
 27 14  1  0  0  0  0
 28 23  1  0  0  0  0
 29 30  1  0  0  0  0
 30 31  2  0  0  0  0
 30 32  1  0  0  0  0
M  END
>  <MODEL>
7

>  <REMARK>
 VINA RESULT:      -6.6      4.322      9.122
  Name = 
  1 active torsions:
  status: ('A' for Active; 'I' for Inactive)
    1  A    between atoms: C_20  and  N_29
                            x       y       z     vdW  Elec       q    Type
                         _______ _______ _______ _____ _____    ______ ____

>  <TORSDO>
F 1

$$$$
=
 OpenBabel11122410463D

 32 37  0  0  1  0  0  0  0  0999 V2000
  192.6860  177.6600  140.4490 C   0  0  0  0  0  2  0  0  0  0  0  0
  189.3540  176.4160  136.3570 N   0  0  1  0  0  0  0  0  0  0  0  0
  184.7500  177.5910  137.8910 C   0  0  0  0  0  2  0  0  0  0  0  0
  184.2560  176.7810  136.6990 C   0  0  0  0  0  2  0  0  0  0  0  0
  189.8890  174.0880  135.5870 C   0  0  2  0  0  3  0  0  0  0  0  0
  189.2900  172.7310  135.3500 C   0  0  0  0  0  0  0  0  0  0  0  0
  191.0460  176.4200  138.2010 C   0  0  2  0  0  3  0  0  0  0  0  0
  188.7730  176.9860  138.7000 C   0  0  0  0  0  2  0  0  0  0  0  0
  187.8260  171.0420  135.3230 N   0  0  0  0  0  0  0  0  0  0  0  0
  190.2950  176.7960  140.4260 C   0  0  0  0  0  2  0  0  0  0  0  0
  186.1680  178.1130  137.6410 C   0  0  0  0  0  2  0  0  0  0  0  0
  188.5180  177.2720  137.2140 C   0  0  2  0  0  3  0  0  0  0  0  0
  187.0440  177.1360  136.8370 C   0  0  1  0  0  3  0  0  0  0  0  0
  187.4980  174.7570  136.1570 C   0  0  2  0  0  3  0  0  0  0  0  0
  189.0320  170.5560  134.6630 C   0  0  0  0  0  2  0  0  0  0  0  0
  192.9160  176.4770  139.7360 O   0  0  0  0  0  0  0  0  0  0  0  0
  190.1680  177.2540  139.0450 N   0  0  1  0  0  0  0  0  0  0  0  0
  189.9300  171.6650  134.7320 O   0  0  0  0  0  0  0  0  0  0  0  0
  192.5210  176.7690  138.4270 C   0  0  0  0  0  2  0  0  0  0  0  0
  191.3500  177.6020  141.1900 C   0  0  1  0  0  3  0  0  0  0  0  0
  185.1200  175.5340  136.4730 C   0  0  0  0  0  2  0  0  0  0  0  0
  186.5760  175.6820  136.9560 C   0  0  2  0  0  3  0  0  0  0  0  0
  187.1140  173.2930  136.3970 C   0  0  0  0  0  2  0  0  0  0  0  0
  190.7590  176.6670  136.7100 C   0  0  0  0  0  2  0  0  0  0  0  0
  191.1510  173.9220  136.1590 O   0  0  0  0  0  1  0  0  0  0  0  0
  186.5280  170.3910  135.2700 C   0  0  0  0  0  1  0  0  0  0  0  0
  188.9980  174.9820  136.4960 C   0  0  2  0  0  3  0  0  0  0  0  0
  188.0610  172.3950  135.6700 C   0  0  0  0  0  0  0  0  0  0  0  0
  191.5540  177.0190  142.5080 N   0  0  0  0  0  2  0  0  0  0  0  0
  191.3090  177.7400  143.7170 C   0  0  0  0  0  0  0  0  0  0  0  0
  190.9250  178.9390  143.6850 O   0  0  0  0  0  0  0  0  0  0  0  0
  191.5170  177.0690  145.0270 C   0  0  0  0  0  1  0  0  0  0  0  0
  1 20  1  0  0  0  0
  2 27  1  0  0  0  0
  2 24  1  1  0  0  0
  2 12  1  0  0  0  0
  4  3  1  0  0  0  0
  5 25  1  1  0  0  0
  5 27  1  0  0  0  0
  6  5  1  0  0  0  0
  6 28  2  0  0  0  0
  7 24  1  6  0  0  0
  7 19  1  0  0  0  0
  7 17  1  0  0  0  0
  9 28  1  0  0  0  0
 10 20  1  0  0  0  0
 11  3  1  0  0  0  0
 12  8  1  1  0  0  0
 13 22  1  0  0  0  0
 13 12  1  0  0  0  0
 13 11  1  1  0  0  0
 14 23  1  1  0  0  0
 14 27  1  0  0  0  0
 14 22  1  0  0  0  0
 15 18  1  0  0  0  0
 15  9  1  0  0  0  0
 16  1  1  0  0  0  0
 17  8  1  6  0  0  0
 17 10  1  0  0  0  0
 18  6  1  0  0  0  0
 19 16  1  0  0  0  0
 20 29  1  1  0  0  0
 21  4  1  0  0  0  0
 22 21  1  6  0  0  0
 26  9  1  0  0  0  0
 28 23  1  0  0  0  0
 29 30  1  0  0  0  0
 30 32  1  0  0  0  0
 31 30  2  0  0  0  0
M  END
>  <MODEL>
8

>  <REMARK>
 VINA RESULT:      -6.6      5.641     10.244
  Name = 
  1 active torsions:
  status: ('A' for Active; 'I' for Inactive)
    1  A    between atoms: C_20  and  N_29
                            x       y       z     vdW  Elec       q    Type
                         _______ _______ _______ _____ _____    ______ ____

>  <TORSDO>
F 1

$$$$
=
 OpenBabel11122410463D

 32 37  0  0  1  0  0  0  0  0999 V2000
  179.3080  180.8370  136.1670 C   0  0  0  0  0  2  0  0  0  0  0  0
  182.6650  177.6120  138.9460 N   0  0  1  0  0  0  0  0  0  0  0  0
  182.9150  179.4950  143.5640 C   0  0  0  0  0  2  0  0  0  0  0  0
  184.1190  178.5830  143.7620 C   0  0  0  0  0  2  0  0  0  0  0  0
  184.7480  177.2850  137.5850 C   0  0  2  0  0  3  0  0  0  0  0  0
  186.2430  177.4280  137.6200 C   0  0  0  0  0  0  0  0  0  0  0  0
  181.5810  179.1560  137.3020 C   0  0  2  0  0  3  0  0  0  0  0  0
  181.7810  179.8390  139.5890 C   0  0  0  0  0  2  0  0  0  0  0  0
  188.3000  177.9660  138.3100 N   0  0  0  0  0  0  0  0  0  0  0  0
  180.9630  181.3340  138.0310 C   0  0  0  0  0  2  0  0  0  0  0  0
  181.9890  178.9430  142.4750 C   0  0  0  0  0  2  0  0  0  0  0  0
  181.9890  178.3770  140.0070 C   0  0  2  0  0  3  0  0  0  0  0  0
  182.7450  178.2490  141.3280 C   0  0  1  0  0  3  0  0  0  0  0  0
  184.8820  178.0310  140.0170 C   0  0  2  0  0  3  0  0  0  0  0  0
  188.4580  177.2610  137.0440 C   0  0  0  0  0  2  0  0  0  0  0  0
  180.4620  180.3660  135.5290 O   0  0  0  0  0  0  0  0  0  0  0  0
  180.9450  179.9200  138.3930 N   0  0  1  0  0  0  0  0  0  0  0  0
  187.1180  176.9660  136.6460 O   0  0  0  0  0  0  0  0  0  0  0  0
  180.6720  179.0930  136.0700 C   0  0  0  0  0  2  0  0  0  0  0  0
  179.6640  181.7540  137.3370 C   0  0  1  0  0  3  0  0  0  0  0  0
  184.9770  178.5070  142.4920 C   0  0  0  0  0  2  0  0  0  0  0  0
  184.1900  178.7380  141.1860 C   0  0  2  0  0  3  0  0  0  0  0  0
  186.2750  178.6280  139.7890 C   0  0  0  0  0  2  0  0  0  0  0  0
  181.8370  177.7030  137.7340 C   0  0  0  0  0  2  0  0  0  0  0  0
  184.2920  177.6960  136.3320 O   0  0  0  0  0  1  0  0  0  0  0  0
  189.3710  178.2360  139.2530 C   0  0  0  0  0  1  0  0  0  0  0  0
  184.0460  178.1000  138.7090 C   0  0  2  0  0  3  0  0  0  0  0  0
  186.9150  177.9820  138.6040 C   0  0  0  0  0  0  0  0  0  0  0  0
  179.7830  183.1230  136.8590 N   0  0  0  0  0  2  0  0  0  0  0  0
  179.4090  184.2520  137.6510 C   0  0  0  0  0  0  0  0  0  0  0  0
  178.9310  184.0990  138.8060 O   0  0  0  0  0  0  0  0  0  0  0  0
  179.5830  185.6230  137.1040 C   0  0  0  0  0  1  0  0  0  0  0  0
  1 20  1  0  0  0  0
  2 24  1  6  0  0  0
  2 12  1  0  0  0  0
  3  4  1  0  0  0  0
  5 25  1  6  0  0  0
  5  6  1  0  0  0  0
  5 27  1  0  0  0  0
  6 28  2  0  0  0  0
  7 19  1  6  0  0  0
  7 24  1  0  0  0  0
  7 17  1  0  0  0  0
  9 28  1  0  0  0  0
  9 26  1  0  0  0  0
 11  3  1  0  0  0  0
 12  8  1  6  0  0  0
 12 13  1  0  0  0  0
 13 11  1  1  0  0  0
 14 23  1  6  0  0  0
 14 22  1  0  0  0  0
 15  9  1  0  0  0  0
 16 19  1  0  0  0  0
 16  1  1  0  0  0  0
 17 10  1  6  0  0  0
 17  8  1  0  0  0  0
 18 15  1  0  0  0  0
 18  6  1  0  0  0  0
 20 29  1  6  0  0  0
 20 10  1  0  0  0  0
 21  4  1  0  0  0  0
 22 13  1  0  0  0  0
 22 21  1  1  0  0  0
 27  2  1  0  0  0  0
 27 14  1  0  0  0  0
 28 23  1  0  0  0  0
 29 30  1  0  0  0  0
 30 31  2  0  0  0  0
 32 30  1  0  0  0  0
M  END
>  <MODEL>
9

>  <REMARK>
 VINA RESULT:      -6.5      3.854      6.684
  Name = 
  1 active torsions:
  status: ('A' for Active; 'I' for Inactive)
    1  A    between atoms: C_20  and  N_29
                            x       y       z     vdW  Elec       q    Type
                         _______ _______ _______ _____ _____    ______ ____

>  <TORSDO>
F 1

$$$$
