=
 OpenBabel11122411093D

 31 35  0  0  1  0  0  0  0  0999 V2000
  189.7630  177.1110  145.2720 C   0  0  0  0  0  0  0  0  0  0  0  0
  187.0780  178.1980  142.8660 C   0  0  0  0  0  0  0  0  0  0  0  0
  185.8970  178.4420  143.6340 C   0  0  0  0  0  0  0  0  0  0  0  0
  184.6730  178.5270  145.7490 C   0  0  0  0  0  0  0  0  0  0  0  0
  188.3260  177.7650  143.4090 C   0  0  0  0  0  0  0  0  0  0  0  0
  190.8310  176.9120  144.3960 C   0  0  0  0  0  3  0  0  0  0  0  0
  185.8450  178.2790  145.0300 C   0  0  0  0  0  3  0  0  0  0  0  0
  188.1200  178.1800  140.6490 C   0  0  0  0  0  0  0  0  0  0  0  0
  189.9310  176.8880  146.6320 O   0  0  0  0  0  1  0  0  0  0  0  0
  184.7130  179.0450  141.6000 C   0  0  0  0  0  3  0  0  0  0  0  0
  184.6550  178.3560  147.1250 O   0  0  0  0  0  1  0  0  0  0  0  0
  189.2880  177.7680  141.2030 N   0  0  0  0  0  0  0  0  0  0  0  0
  186.9980  178.4000  141.4590 C   0  0  0  0  0  0  0  0  0  0  0  0
  188.0310  178.3830  139.2350 N   0  0  0  0  0  2  0  0  0  0  0  0
  188.5270  177.5330  144.7810 C   0  0  0  0  0  3  0  0  0  0  0  0
  183.5220  178.9450  145.0820 C   0  0  0  0  0  3  0  0  0  0  0  0
  189.4230  177.5590  142.5330 C   0  0  0  0  0  0  0  0  0  0  0  0
  190.6590  177.1350  143.0310 C   0  0  0  0  0  3  0  0  0  0  0  0
  185.8370  178.8100  140.8820 N   0  0  0  0  0  0  0  0  0  0  0  0
  184.7150  178.8680  142.9770 C   0  0  0  0  0  0  0  0  0  0  0  0
  183.5430  179.1160  143.6980 C   0  0  0  0  0  3  0  0  0  0  0  0
  189.0580  179.1590  137.1570 C   0  0  0  0  0  1  0  0  0  0  0  0
  189.1620  178.2040  138.3350 C   0  0  2  0  0  3  0  0  0  0  0  0
  189.3320  174.1560  136.9660 C   0  0  0  0  0  0  0  0  0  0  0  0
  188.0820  176.1290  137.3890 C   0  0  0  0  0  3  0  0  0  0  0  0
  191.5780  176.6920  138.3160 F   0  0  0  0  0  0  0  0  0  0  0  0
  189.3700  172.8740  136.5290 F   0  0  0  0  0  0  0  0  0  0  0  0
  188.1580  174.8410  136.9570 N   0  0  0  0  0  0  0  0  0  0  0  0
  190.4460  176.0920  137.8710 C   0  0  0  0  0  0  0  0  0  0  0  0
  189.2280  176.7860  137.8580 C   0  0  0  0  0  0  0  0  0  0  0  0
  190.4990  174.7720  137.4240 C   0  0  0  0  0  3  0  0  0  0  0  0
  1  9  1  0  0  0  0
  2  5  1  0  0  0  0
  2  3  1  0  0  0  0
  3  7  1  0  0  0  0
  4 11  1  0  0  0  0
  5 15  2  0  0  0  0
  6  1  2  0  0  0  0
  7  4  2  0  0  0  0
  8 12  2  0  0  0  0
  8 13  1  0  0  0  0
 10 20  1  0  0  0  0
 12 17  1  0  0  0  0
 13  2  2  0  0  0  0
 14  8  1  0  0  0  0
 15  1  1  0  0  0  0
 16  4  1  0  0  0  0
 17 18  2  0  0  0  0
 17  5  1  0  0  0  0
 18  6  1  0  0  0  0
 19 13  1  0  0  0  0
 19 10  2  0  0  0  0
 20  3  2  0  0  0  0
 20 21  1  0  0  0  0
 21 16  2  0  0  0  0
 23 22  1  6  0  0  0
 23 14  1  0  0  0  0
 24 31  1  0  0  0  0
 25 30  2  0  0  0  0
 27 24  1  0  0  0  0
 28 24  2  0  0  0  0
 28 25  1  0  0  0  0
 29 26  1  0  0  0  0
 30 29  1  0  0  0  0
 30 23  1  0  0  0  0
 31 29  2  0  0  0  0
M  END
>  <MODEL>
1

>  <REMARK>
 VINA RESULT:     -11.3      0.000      0.000
  Name = 
  2 active torsions:
  status: ('A' for Active; 'I' for Inactive)
    1  A    between atoms: C_5  and  N_16
    2  A    between atoms: C_5  and  C_30
                            x       y       z     vdW  Elec       q    Type
                         _______ _______ _______ _____ _____    ______ ____

>  <TORSDO>
F 2

$$$$
=
 OpenBabel11122411093D

 31 35  0  0  1  0  0  0  0  0999 V2000
  190.7820  177.2910  141.7370 C   0  0  0  0  0  0  0  0  0  0  0  0
  187.3620  178.0990  143.0920 C   0  0  0  0  0  0  0  0  0  0  0  0
  187.4210  177.9360  144.5110 C   0  0  0  0  0  0  0  0  0  0  0  0
  188.6100  177.3910  146.5760 C   0  0  0  0  0  0  0  0  0  0  0  0
  188.4600  177.8860  142.2020 C   0  0  0  0  0  0  0  0  0  0  0  0
  190.5740  177.4900  140.3720 C   0  0  0  0  0  3  0  0  0  0  0  0
  188.5890  177.5410  145.1880 C   0  0  0  0  0  3  0  0  0  0  0  0
  185.9930  178.6820  141.1460 C   0  0  0  0  0  0  0  0  0  0  0  0
  192.0310  176.8970  142.1980 O   0  0  0  0  0  1  0  0  0  0  0  0
  185.0810  178.5680  144.6690 C   0  0  0  0  0  3  0  0  0  0  0  0
  189.7790  177.0010  147.2140 O   0  0  0  0  0  1  0  0  0  0  0  0
  187.0590  178.4680  140.3340 N   0  0  0  0  0  0  0  0  0  0  0  0
  186.1180  178.5020  142.5290 C   0  0  0  0  0  0  0  0  0  0  0  0
  184.7380  179.0850  140.5880 N   0  0  0  0  0  2  0  0  0  0  0  0
  189.7350  177.4880  142.6390 C   0  0  0  0  0  3  0  0  0  0  0  0
  187.4560  177.6330  147.3210 C   0  0  0  0  0  3  0  0  0  0  0  0
  188.2660  178.0840  140.8110 C   0  0  0  0  0  0  0  0  0  0  0  0
  189.3180  177.8850  139.9120 C   0  0  0  0  0  3  0  0  0  0  0  0
  185.0360  178.7200  143.3240 N   0  0  0  0  0  0  0  0  0  0  0  0
  186.2600  178.1760  145.2880 C   0  0  0  0  0  0  0  0  0  0  0  0
  186.2830  178.0250  146.6770 C   0  0  0  0  0  3  0  0  0  0  0  0
  183.2820  180.1380  138.9320 C   0  0  0  0  0  1  0  0  0  0  0  0
  184.5420  179.3210  139.1630 C   0  0  2  0  0  3  0  0  0  0  0  0
  184.3160  175.6020  137.0640 C   0  0  0  0  0  0  0  0  0  0  0  0
  183.4460  177.0980  138.6890 C   0  0  0  0  0  3  0  0  0  0  0  0
  186.4320  178.5700  137.1670 F   0  0  0  0  0  0  0  0  0  0  0  0
  184.2300  174.4210  136.4080 F   0  0  0  0  0  0  0  0  0  0  0  0
  183.3920  175.9220  138.0100 N   0  0  0  0  0  0  0  0  0  0  0  0
  185.4280  177.7050  137.4520 C   0  0  0  0  0  0  0  0  0  0  0  0
  184.4700  178.0200  138.4260 C   0  0  0  0  0  0  0  0  0  0  0  0
  185.3510  176.4910  136.7690 C   0  0  0  0  0  3  0  0  0  0  0  0
  1  9  1  0  0  0  0
  1 15  1  0  0  0  0
  2  3  1  0  0  0  0
  3  7  2  0  0  0  0
  3 20  1  0  0  0  0
  4 11  1  0  0  0  0
  4 16  2  0  0  0  0
  5 15  2  0  0  0  0
  5  2  1  0  0  0  0
  6  1  2  0  0  0  0
  7  4  1  0  0  0  0
  8 13  1  0  0  0  0
 10 20  1  0  0  0  0
 12 17  1  0  0  0  0
 12  8  2  0  0  0  0
 13  2  2  0  0  0  0
 13 19  1  0  0  0  0
 14  8  1  0  0  0  0
 17  5  1  0  0  0  0
 18  6  1  0  0  0  0
 18 17  2  0  0  0  0
 19 10  2  0  0  0  0
 20 21  2  0  0  0  0
 21 16  1  0  0  0  0
 23 22  1  1  0  0  0
 23 14  1  0  0  0  0
 24 28  1  0  0  0  0
 26 29  1  0  0  0  0
 27 24  1  0  0  0  0
 28 25  2  0  0  0  0
 29 30  2  0  0  0  0
 30 25  1  0  0  0  0
 30 23  1  0  0  0  0
 31 24  2  0  0  0  0
 31 29  1  0  0  0  0
M  END
>  <MODEL>
2

>  <REMARK>
 VINA RESULT:     -10.2      2.667      4.040
  Name = 
  2 active torsions:
  status: ('A' for Active; 'I' for Inactive)
    1  A    between atoms: C_5  and  N_16
    2  A    between atoms: C_5  and  C_30
                            x       y       z     vdW  Elec       q    Type
                         _______ _______ _______ _____ _____    ______ ____

>  <TORSDO>
F 2

$$$$
=
 OpenBabel11122411093D

 31 35  0  0  1  0  0  0  0  0999 V2000
  184.5630  178.7500  144.6690 C   0  0  0  0  0  0  0  0  0  0  0  0
  188.0770  177.8340  143.6680 C   0  0  0  0  0  0  0  0  0  0  0  0
  188.7830  177.5000  144.8650 C   0  0  0  0  0  0  0  0  0  0  0  0
  188.9090  177.2040  147.2880 C   0  0  0  0  0  0  0  0  0  0  0  0
  186.7080  178.2390  143.6170 C   0  0  0  0  0  0  0  0  0  0  0  0
  184.0080  179.0460  143.4230 C   0  0  0  0  0  3  0  0  0  0  0  0
  188.1880  177.5370  146.1390 C   0  0  0  0  0  3  0  0  0  0  0  0
  188.1610  178.0700  141.2310 C   0  0  0  0  0  0  0  0  0  0  0  0
  183.7880  178.8520  145.8160 O   0  0  0  0  0  1  0  0  0  0  0  0
  190.7790  177.0620  143.5510 C   0  0  0  0  0  3  0  0  0  0  0  0
  188.2940  177.2500  148.5310 O   0  0  0  0  0  1  0  0  0  0  0  0
  186.8590  178.4530  141.2250 N   0  0  0  0  0  0  0  0  0  0  0  0
  188.7940  177.7580  142.4410 C   0  0  0  0  0  0  0  0  0  0  0  0
  188.8900  177.9940  140.0020 N   0  0  0  0  0  2  0  0  0  0  0  0
  185.8980  178.3510  144.7610 C   0  0  0  0  0  3  0  0  0  0  0  0
  190.2480  176.8260  147.1870 C   0  0  0  0  0  3  0  0  0  0  0  0
  186.1260  178.5440  142.3590 C   0  0  0  0  0  0  0  0  0  0  0  0
  184.7890  178.9430  142.2730 C   0  0  0  0  0  3  0  0  0  0  0  0
  190.1010  177.3800  142.4240 N   0  0  0  0  0  0  0  0  0  0  0  0
  190.1450  177.1140  144.7850 C   0  0  0  0  0  0  0  0  0  0  0  0
  190.8640  176.7810  145.9360 C   0  0  0  0  0  3  0  0  0  0  0  0
  186.8480  177.7890  138.6730 C   0  0  0  0  0  1  0  0  0  0  0  0
  188.2890  178.2740  138.7040 C   0  0  2  0  0  3  0  0  0  0  0  0
  190.5710  176.4200  135.5990 C   0  0  0  0  0  0  0  0  0  0  0  0
  190.1640  176.7840  137.9090 C   0  0  0  0  0  3  0  0  0  0  0  0
  187.7200  178.6690  135.9400 F   0  0  0  0  0  0  0  0  0  0  0  0
  191.3030  175.8260  134.6260 F   0  0  0  0  0  0  0  0  0  0  0  0
  190.8760  176.2040  136.9060 N   0  0  0  0  0  0  0  0  0  0  0  0
  188.7570  177.8600  136.2690 C   0  0  0  0  0  0  0  0  0  0  0  0
  189.0850  177.6290  137.6120 C   0  0  0  0  0  0  0  0  0  0  0  0
  189.5030  177.2540  135.2580 C   0  0  0  0  0  3  0  0  0  0  0  0
  1 15  1  0  0  0  0
  1  9  1  0  0  0  0
  2  3  1  0  0  0  0
  3  7  1  0  0  0  0
  4 11  1  0  0  0  0
  5  2  1  0  0  0  0
  5 15  2  0  0  0  0
  6  1  2  0  0  0  0
  7  4  2  0  0  0  0
  8 13  1  0  0  0  0
 10 20  1  0  0  0  0
 12  8  2  0  0  0  0
 12 17  1  0  0  0  0
 13  2  2  0  0  0  0
 14  8  1  0  0  0  0
 16  4  1  0  0  0  0
 17  5  1  0  0  0  0
 18 17  2  0  0  0  0
 18  6  1  0  0  0  0
 19 13  1  0  0  0  0
 19 10  2  0  0  0  0
 20  3  2  0  0  0  0
 20 21  1  0  0  0  0
 21 16  2  0  0  0  0
 23 22  1  1  0  0  0
 23 14  1  0  0  0  0
 24 28  1  0  0  0  0
 26 29  1  0  0  0  0
 27 24  1  0  0  0  0
 28 25  2  0  0  0  0
 29 30  2  0  0  0  0
 30 25  1  0  0  0  0
 30 23  1  0  0  0  0
 31 24  2  0  0  0  0
 31 29  1  0  0  0  0
M  END
>  <MODEL>
3

>  <REMARK>
 VINA RESULT:     -10.0      1.826      4.295
  Name = 
  2 active torsions:
  status: ('A' for Active; 'I' for Inactive)
    1  A    between atoms: C_5  and  N_16
    2  A    between atoms: C_5  and  C_30
                            x       y       z     vdW  Elec       q    Type
                         _______ _______ _______ _____ _____    ______ ____

>  <TORSDO>
F 2

$$$$
=
 OpenBabel11122411093D

 31 35  0  0  1  0  0  0  0  0999 V2000
  190.8800  177.0970  144.4000 C   0  0  0  0  0  0  0  0  0  0  0  0
  187.6170  178.0540  142.7820 C   0  0  0  0  0  0  0  0  0  0  0  0
  186.6680  178.2550  143.8310 C   0  0  0  0  0  0  0  0  0  0  0  0
  186.0350  178.3030  146.1920 C   0  0  0  0  0  0  0  0  0  0  0  0
  188.9810  177.6780  142.9790 C   0  0  0  0  0  0  0  0  0  0  0  0
  191.6900  176.9370  143.2760 C   0  0  0  0  0  3  0  0  0  0  0  0
  186.9890  178.0990  145.1920 C   0  0  0  0  0  3  0  0  0  0  0  0
  188.0460  178.0640  140.3690 C   0  0  0  0  0  0  0  0  0  0  0  0
  191.4060  176.8910  145.6690 O   0  0  0  0  0  1  0  0  0  0  0  0
  184.9710  178.7930  142.1790 C   0  0  0  0  0  3  0  0  0  0  0  0
  186.3830  178.1420  147.5250 O   0  0  0  0  0  1  0  0  0  0  0  0
  189.3340  177.7040  140.5980 N   0  0  0  0  0  0  0  0  0  0  0  0
  187.1660  178.2430  141.4450 C   0  0  0  0  0  0  0  0  0  0  0  0
  187.5830  178.2530  139.0280 N   0  0  0  0  0  2  0  0  0  0  0  0
  189.5420  177.4640  144.2500 C   0  0  0  0  0  3  0  0  0  0  0  0
  184.7330  178.6690  145.8500 C   0  0  0  0  0  3  0  0  0  0  0  0
  189.8200  177.5110  141.8470 C   0  0  0  0  0  0  0  0  0  0  0  0
  191.1600  177.1430  142.0030 C   0  0  0  0  0  3  0  0  0  0  0  0
  185.8780  178.6000  141.1920 N   0  0  0  0  0  0  0  0  0  0  0  0
  185.3390  178.6260  143.5070 C   0  0  0  0  0  0  0  0  0  0  0  0
  184.3860  178.8300  144.5090 C   0  0  0  0  0  3  0  0  0  0  0  0
  188.4810  179.4120  137.0730 C   0  0  0  0  0  1  0  0  0  0  0  0
  188.4480  178.1140  137.8640 C   0  0  2  0  0  3  0  0  0  0  0  0
  187.1040  174.8980  135.3870 C   0  0  0  0  0  0  0  0  0  0  0  0
  186.9820  177.1780  136.0360 C   0  0  0  0  0  3  0  0  0  0  0  0
  189.5120  175.4780  138.0630 F   0  0  0  0  0  0  0  0  0  0  0  0
  186.6680  173.8890  134.5950 F   0  0  0  0  0  0  0  0  0  0  0  0
  186.5690  176.1410  135.2580 N   0  0  0  0  0  0  0  0  0  0  0  0
  188.5420  175.7070  137.1430 C   0  0  0  0  0  0  0  0  0  0  0  0
  187.9800  176.9830  137.0010 C   0  0  0  0  0  0  0  0  0  0  0  0
  188.1020  174.6600  136.3340 C   0  0  0  0  0  3  0  0  0  0  0  0
  1  9  1  0  0  0  0
  2  5  1  0  0  0  0
  2  3  1  0  0  0  0
  3  7  1  0  0  0  0
  4 11  1  0  0  0  0
  5 15  2  0  0  0  0
  6  1  2  0  0  0  0
  7  4  2  0  0  0  0
  8 12  2  0  0  0  0
  8 13  1  0  0  0  0
 10 20  1  0  0  0  0
 12 17  1  0  0  0  0
 13  2  2  0  0  0  0
 14  8  1  0  0  0  0
 15  1  1  0  0  0  0
 16  4  1  0  0  0  0
 17 18  2  0  0  0  0
 17  5  1  0  0  0  0
 18  6  1  0  0  0  0
 19 13  1  0  0  0  0
 19 10  2  0  0  0  0
 20  3  2  0  0  0  0
 20 21  1  0  0  0  0
 21 16  2  0  0  0  0
 23 22  1  6  0  0  0
 23 14  1  0  0  0  0
 24 31  1  0  0  0  0
 25 30  2  0  0  0  0
 27 24  1  0  0  0  0
 28 24  2  0  0  0  0
 28 25  1  0  0  0  0
 29 26  1  0  0  0  0
 30 29  1  0  0  0  0
 30 23  1  0  0  0  0
 31 29  2  0  0  0  0
M  END
>  <MODEL>
4

>  <REMARK>
 VINA RESULT:      -9.8      1.367      1.568
  Name = 
  2 active torsions:
  status: ('A' for Active; 'I' for Inactive)
    1  A    between atoms: C_5  and  N_16
    2  A    between atoms: C_5  and  C_30
                            x       y       z     vdW  Elec       q    Type
                         _______ _______ _______ _____ _____    ______ ____

>  <TORSDO>
F 2

$$$$
=
 OpenBabel11122411093D

 31 35  0  0  1  0  0  0  0  0999 V2000
  185.3440  178.4730  143.7060 C   0  0  0  0  0  0  0  0  0  0  0  0
  188.9820  177.5410  143.4230 C   0  0  0  0  0  0  0  0  0  0  0  0
  189.4560  177.2830  144.7470 C   0  0  0  0  0  0  0  0  0  0  0  0
  189.1330  177.1260  147.1650 C   0  0  0  0  0  0  0  0  0  0  0  0
  187.6450  177.9270  143.0980 C   0  0  0  0  0  0  0  0  0  0  0  0
  185.0280  178.6910  142.3650 C   0  0  0  0  0  3  0  0  0  0  0  0
  188.6360  177.3850  145.8860 C   0  0  0  0  0  3  0  0  0  0  0  0
  189.5130  177.6390  141.0340 C   0  0  0  0  0  0  0  0  0  0  0  0
  184.3700  178.6320  144.6830 O   0  0  0  0  0  1  0  0  0  0  0  0
  191.6590  176.7930  143.8510 C   0  0  0  0  0  3  0  0  0  0  0  0
  188.2990  177.2360  148.2680 O   0  0  0  0  0  1  0  0  0  0  0  0
  188.2350  178.0060  140.7660 N   0  0  0  0  0  0  0  0  0  0  0  0
  189.9130  177.4030  142.3550 C   0  0  0  0  0  0  0  0  0  0  0  0
  190.4570  177.5010  139.9660 N   0  0  0  0  0  2  0  0  0  0  0  0
  186.6390  178.0950  144.0650 C   0  0  0  0  0  3  0  0  0  0  0  0
  190.4680  176.7580  147.3340 C   0  0  0  0  0  3  0  0  0  0  0  0
  187.3060  178.1530  141.7390 C   0  0  0  0  0  0  0  0  0  0  0  0
  186.0070  178.5320  141.3850 C   0  0  0  0  0  3  0  0  0  0  0  0
  191.2000  177.0390  142.6010 N   0  0  0  0  0  0  0  0  0  0  0  0
  190.8080  176.9080  144.9420 C   0  0  0  0  0  0  0  0  0  0  0  0
  191.3040  176.6490  146.2230 C   0  0  0  0  0  3  0  0  0  0  0  0
  189.0570  178.7940  138.4350 C   0  0  0  0  0  1  0  0  0  0  0  0
  190.1050  177.7000  138.5660 C   0  0  2  0  0  3  0  0  0  0  0  0
  188.6720  174.0550  136.8490 C   0  0  0  0  0  0  0  0  0  0  0  0
  188.2680  176.2770  137.5810 C   0  0  0  0  0  3  0  0  0  0  0  0
  191.7890  175.4430  138.1360 F   0  0  0  0  0  0  0  0  0  0  0  0
  188.2030  172.9080  136.3040 F   0  0  0  0  0  0  0  0  0  0  0  0
  187.8330  175.1100  137.0370 N   0  0  0  0  0  0  0  0  0  0  0  0
  190.4850  175.3430  137.7780 C   0  0  0  0  0  0  0  0  0  0  0  0
  189.6090  176.4210  137.9670 C   0  0  0  0  0  0  0  0  0  0  0  0
  190.0150  174.1550  137.2170 C   0  0  0  0  0  3  0  0  0  0  0  0
  1 15  1  0  0  0  0
  1  9  1  0  0  0  0
  2  3  1  0  0  0  0
  3 20  2  0  0  0  0
  3  7  1  0  0  0  0
  4 16  1  0  0  0  0
  4 11  1  0  0  0  0
  5  2  1  0  0  0  0
  5 15  2  0  0  0  0
  6  1  2  0  0  0  0
  7  4  2  0  0  0  0
  8 13  1  0  0  0  0
 10 20  1  0  0  0  0
 12  8  2  0  0  0  0
 12 17  1  0  0  0  0
 13 19  1  0  0  0  0
 13  2  2  0  0  0  0
 14  8  1  0  0  0  0
 17  5  1  0  0  0  0
 18 17  2  0  0  0  0
 18  6  1  0  0  0  0
 19 10  2  0  0  0  0
 20 21  1  0  0  0  0
 21 16  2  0  0  0  0
 23 22  1  1  0  0  0
 23 14  1  0  0  0  0
 24 28  2  0  0  0  0
 24 31  1  0  0  0  0
 25 30  2  0  0  0  0
 27 24  1  0  0  0  0
 28 25  1  0  0  0  0
 29 30  1  0  0  0  0
 29 26  1  0  0  0  0
 30 23  1  0  0  0  0
 31 29  2  0  0  0  0
M  END
>  <MODEL>
5

>  <REMARK>
 VINA RESULT:      -9.8      1.296      4.041
  Name = 
  2 active torsions:
  status: ('A' for Active; 'I' for Inactive)
    1  A    between atoms: C_5  and  N_16
    2  A    between atoms: C_5  and  C_30
                            x       y       z     vdW  Elec       q    Type
                         _______ _______ _______ _____ _____    ______ ____

>  <TORSDO>
F 2

$$$$
=
 OpenBabel11122411093D

 31 35  0  0  1  0  0  0  0  0999 V2000
  190.7170  177.3200  141.7020 C   0  0  0  0  0  0  0  0  0  0  0  0
  187.3290  178.0980  143.1530 C   0  0  0  0  0  0  0  0  0  0  0  0
  187.4370  177.9650  144.5720 C   0  0  0  0  0  0  0  0  0  0  0  0
  188.7030  177.4840  146.6080 C   0  0  0  0  0  0  0  0  0  0  0  0
  188.4000  177.8860  142.2320 C   0  0  0  0  0  0  0  0  0  0  0  0
  190.4600  177.4870  140.3410 C   0  0  0  0  0  3  0  0  0  0  0  0
  188.6340  177.6050  145.2180 C   0  0  0  0  0  3  0  0  0  0  0  0
  185.8870  178.6170  141.2420 C   0  0  0  0  0  0  0  0  0  0  0  0
  191.9870  176.9570  142.1290 O   0  0  0  0  0  1  0  0  0  0  0  0
  185.0930  178.5600  144.7950 C   0  0  0  0  0  3  0  0  0  0  0  0
  189.8990  177.1270  147.2140 O   0  0  0  0  0  1  0  0  0  0  0  0
  186.9290  178.4050  140.4000 N   0  0  0  0  0  0  0  0  0  0  0  0
  186.0610  178.4680  142.6240 C   0  0  0  0  0  0  0  0  0  0  0  0
  184.6070  178.9870  140.7180 N   0  0  0  0  0  2  0  0  0  0  0  0
  189.6970  177.5180  142.6340 C   0  0  0  0  0  3  0  0  0  0  0  0
  187.5700  177.7220  147.3850 C   0  0  0  0  0  3  0  0  0  0  0  0
  188.1580  178.0510  140.8440 C   0  0  0  0  0  0  0  0  0  0  0  0
  189.1830  177.8510  139.9150 C   0  0  0  0  0  3  0  0  0  0  0  0
  185.0010  178.6830  143.4500 N   0  0  0  0  0  0  0  0  0  0  0  0
  186.2990  178.2010  145.3820 C   0  0  0  0  0  0  0  0  0  0  0  0
  186.3700  178.0800  146.7730 C   0  0  0  0  0  3  0  0  0  0  0  0
  183.1780  180.1230  139.0930 C   0  0  0  0  0  1  0  0  0  0  0  0
  184.3610  179.1900  139.2960 C   0  0  2  0  0  3  0  0  0  0  0  0
  183.6850  175.4430  137.3490 C   0  0  0  0  0  0  0  0  0  0  0  0
  184.8710  177.4940  137.4990 C   0  0  0  0  0  3  0  0  0  0  0  0
  182.3830  177.3380  140.1790 F   0  0  0  0  0  0  0  0  0  0  0  0
  183.4830  174.2600  136.7220 F   0  0  0  0  0  0  0  0  0  0  0  0
  184.6410  176.2970  136.8950 N   0  0  0  0  0  0  0  0  0  0  0  0
  183.1310  177.0060  139.0990 C   0  0  0  0  0  0  0  0  0  0  0  0
  184.1180  177.8770  138.6180 C   0  0  0  0  0  0  0  0  0  0  0  0
  182.9130  175.7830  138.4620 C   0  0  0  0  0  3  0  0  0  0  0  0
  1  9  1  0  0  0  0
  1 15  1  0  0  0  0
  2  3  1  0  0  0  0
  3  7  2  0  0  0  0
  3 20  1  0  0  0  0
  4 11  1  0  0  0  0
  4 16  2  0  0  0  0
  5 15  2  0  0  0  0
  5  2  1  0  0  0  0
  6  1  2  0  0  0  0
  7  4  1  0  0  0  0
  8 13  1  0  0  0  0
 10 20  1  0  0  0  0
 12 17  1  0  0  0  0
 12  8  2  0  0  0  0
 13  2  2  0  0  0  0
 13 19  1  0  0  0  0
 14  8  1  0  0  0  0
 17  5  1  0  0  0  0
 18  6  1  0  0  0  0
 18 17  2  0  0  0  0
 19 10  2  0  0  0  0
 20 21  2  0  0  0  0
 21 16  1  0  0  0  0
 23 22  1  1  0  0  0
 23 14  1  0  0  0  0
 24 31  1  0  0  0  0
 25 30  2  0  0  0  0
 27 24  1  0  0  0  0
 28 24  2  0  0  0  0
 28 25  1  0  0  0  0
 29 26  1  0  0  0  0
 30 29  1  0  0  0  0
 30 23  1  0  0  0  0
 31 29  2  0  0  0  0
M  END
>  <MODEL>
6

>  <REMARK>
 VINA RESULT:      -9.8      3.075      4.503
  Name = 
  2 active torsions:
  status: ('A' for Active; 'I' for Inactive)
    1  A    between atoms: C_5  and  N_16
    2  A    between atoms: C_5  and  C_30
                            x       y       z     vdW  Elec       q    Type
                         _______ _______ _______ _____ _____    ______ ____

>  <TORSDO>
F 2

$$$$
=
 OpenBabel11122411093D

 31 35  0  0  1  0  0  0  0  0999 V2000
  188.7920  177.2520  146.9480 C   0  0  0  0  0  0  0  0  0  0  0  0
  187.4490  177.8470  143.4810 C   0  0  0  0  0  0  0  0  0  0  0  0
  186.0950  178.2840  143.6220 C   0  0  0  0  0  0  0  0  0  0  0  0
  184.1410  178.8640  144.9710 C   0  0  0  0  0  0  0  0  0  0  0  0
  188.3140  177.5140  144.5680 C   0  0  0  0  0  0  0  0  0  0  0  0
  190.0920  176.8390  146.6550 C   0  0  0  0  0  3  0  0  0  0  0  0
  185.4670  178.4350  144.8710 C   0  0  0  0  0  3  0  0  0  0  0  0
  189.2870  177.3130  141.9510 C   0  0  0  0  0  0  0  0  0  0  0  0
  188.3710  177.3320  148.2690 O   0  0  0  0  0  1  0  0  0  0  0  0
  185.9100  178.4510  141.2050 C   0  0  0  0  0  3  0  0  0  0  0  0
  183.5500  179.0030  146.2190 O   0  0  0  0  0  1  0  0  0  0  0  0
  190.0770  177.0050  143.0110 N   0  0  0  0  0  0  0  0  0  0  0  0
  187.9670  177.7350  142.1600 C   0  0  0  0  0  0  0  0  0  0  0  0
  189.8000  177.2010  140.6200 N   0  0  0  0  0  2  0  0  0  0  0  0
  187.9160  177.5860  145.9140 C   0  0  0  0  0  3  0  0  0  0  0  0
  183.4130  179.1540  143.8180 C   0  0  0  0  0  3  0  0  0  0  0  0
  189.6390  177.0920  144.2890 C   0  0  0  0  0  0  0  0  0  0  0  0
  190.5130  176.7590  145.3280 C   0  0  0  0  0  3  0  0  0  0  0  0
  187.1920  178.0360  141.0830 N   0  0  0  0  0  0  0  0  0  0  0  0
  185.3360  178.5830  142.4630 C   0  0  0  0  0  0  0  0  0  0  0  0
  184.0100  179.0130  142.5650 C   0  0  0  0  0  3  0  0  0  0  0  0
  192.1430  177.8780  140.7760 C   0  0  0  0  0  1  0  0  0  0  0  0
  191.1690  176.7990  140.3290 C   0  0  2  0  0  3  0  0  0  0  0  0
  191.6080  176.0040  136.1490 C   0  0  0  0  0  0  0  0  0  0  0  0
  190.2160  176.4660  138.0160 C   0  0  0  0  0  3  0  0  0  0  0  0
  193.7070  176.3510  139.1120 F   0  0  0  0  0  0  0  0  0  0  0  0
  191.7310  175.7540  134.8240 F   0  0  0  0  0  0  0  0  0  0  0  0
  190.3770  176.2130  136.6900 N   0  0  0  0  0  0  0  0  0  0  0  0
  192.6040  176.3080  138.3230 C   0  0  0  0  0  0  0  0  0  0  0  0
  191.3300  176.5190  138.8670 C   0  0  0  0  0  0  0  0  0  0  0  0
  192.7450  176.0490  136.9600 C   0  0  0  0  0  3  0  0  0  0  0  0
  1  9  1  0  0  0  0
  2  3  1  0  0  0  0
  2  5  1  0  0  0  0
  3  7  1  0  0  0  0
  4 11  1  0  0  0  0
  5 15  1  0  0  0  0
  6  1  1  0  0  0  0
  7  4  2  0  0  0  0
  8 13  1  0  0  0  0
  8 12  2  0  0  0  0
 10 20  1  0  0  0  0
 12 17  1  0  0  0  0
 13  2  2  0  0  0  0
 14  8  1  0  0  0  0
 15  1  2  0  0  0  0
 16  4  1  0  0  0  0
 17  5  2  0  0  0  0
 17 18  1  0  0  0  0
 18  6  2  0  0  0  0
 19 10  2  0  0  0  0
 19 13  1  0  0  0  0
 20 21  1  0  0  0  0
 20  3  2  0  0  0  0
 21 16  2  0  0  0  0
 23 14  1  0  0  0  0
 23 22  1  6  0  0  0
 24 28  2  0  0  0  0
 24 31  1  0  0  0  0
 25 30  2  0  0  0  0
 27 24  1  0  0  0  0
 28 25  1  0  0  0  0
 29 30  1  0  0  0  0
 29 26  1  0  0  0  0
 30 23  1  0  0  0  0
 31 29  2  0  0  0  0
M  END
>  <MODEL>
7

>  <REMARK>
 VINA RESULT:      -9.6      1.690      2.205
  Name = 
  2 active torsions:
  status: ('A' for Active; 'I' for Inactive)
    1  A    between atoms: C_5  and  N_16
    2  A    between atoms: C_5  and  C_30
                            x       y       z     vdW  Elec       q    Type
                         _______ _______ _______ _____ _____    ______ ____

>  <TORSDO>
F 2

$$$$
=
 OpenBabel11122411093D

 31 35  0  0  1  0  0  0  0  0999 V2000
  184.6930  178.6290  145.7390 C   0  0  0  0  0  0  0  0  0  0  0  0
  187.3330  178.0540  143.1150 C   0  0  0  0  0  0  0  0  0  0  0  0
  188.5360  177.6940  143.7980 C   0  0  0  0  0  0  0  0  0  0  0  0
  189.8130  177.2430  145.8340 C   0  0  0  0  0  0  0  0  0  0  0  0
  186.0920  178.3560  143.7560 C   0  0  0  0  0  0  0  0  0  0  0  0
  183.6010  178.9660  144.9390 C   0  0  0  0  0  3  0  0  0  0  0  0
  188.6200  177.5970  145.1990 C   0  0  0  0  0  3  0  0  0  0  0  0
  186.2350  178.4620  140.9630 C   0  0  0  0  0  0  0  0  0  0  0  0
  184.5560  178.5930  147.1200 O   0  0  0  0  0  1  0  0  0  0  0  0
  189.6760  177.4990  141.6630 C   0  0  0  0  0  3  0  0  0  0  0  0
  189.8630  177.1560  147.2170 O   0  0  0  0  0  1  0  0  0  0  0  0
  185.0760  178.7440  141.6090 N   0  0  0  0  0  0  0  0  0  0  0  0
  187.3800  178.1170  141.6940 C   0  0  0  0  0  0  0  0  0  0  0  0
  186.2920  178.5260  139.5340 N   0  0  0  0  0  2  0  0  0  0  0  0
  185.9220  178.3270  145.1510 C   0  0  0  0  0  3  0  0  0  0  0  0
  190.9530  176.9750  145.0760 C   0  0  0  0  0  3  0  0  0  0  0  0
  184.9710  178.7010  142.9580 C   0  0  0  0  0  0  0  0  0  0  0  0
  183.7410  179.0020  143.5520 C   0  0  0  0  0  3  0  0  0  0  0  0
  188.5320  177.8410  141.0260 N   0  0  0  0  0  0  0  0  0  0  0  0
  189.7060  177.4190  143.0490 C   0  0  0  0  0  0  0  0  0  0  0  0
  190.8990  177.0630  143.6850 C   0  0  0  0  0  3  0  0  0  0  0  0
  184.1800  179.7530  139.4680 C   0  0  0  0  0  1  0  0  0  0  0  0
  185.1360  178.8470  138.7080 C   0  0  2  0  0  3  0  0  0  0  0  0
  183.1370  175.2720  137.4810 C   0  0  0  0  0  0  0  0  0  0  0  0
  183.3080  177.1250  138.9540 C   0  0  0  0  0  3  0  0  0  0  0  0
  186.0070  177.2890  136.4870 F   0  0  0  0  0  0  0  0  0  0  0  0
  182.4930  174.1410  137.1050 F   0  0  0  0  0  0  0  0  0  0  0  0
  182.6860  175.9860  138.5470 N   0  0  0  0  0  0  0  0  0  0  0  0
  184.9150  176.8690  137.1730 C   0  0  0  0  0  0  0  0  0  0  0  0
  184.4410  177.5940  138.2750 C   0  0  0  0  0  0  0  0  0  0  0  0
  184.2610  175.7030  136.7740 C   0  0  0  0  0  3  0  0  0  0  0  0
  1  9  1  0  0  0  0
  2  5  1  0  0  0  0
  2  3  1  0  0  0  0
  3  7  1  0  0  0  0
  4 11  1  0  0  0  0
  5 15  2  0  0  0  0
  6  1  2  0  0  0  0
  7  4  2  0  0  0  0
  8 12  2  0  0  0  0
  8 13  1  0  0  0  0
 10 20  1  0  0  0  0
 12 17  1  0  0  0  0
 13  2  2  0  0  0  0
 14  8  1  0  0  0  0
 15  1  1  0  0  0  0
 16  4  1  0  0  0  0
 17 18  2  0  0  0  0
 17  5  1  0  0  0  0
 18  6  1  0  0  0  0
 19 10  2  0  0  0  0
 19 13  1  0  0  0  0
 20 21  1  0  0  0  0
 20  3  2  0  0  0  0
 21 16  2  0  0  0  0
 23 22  1  1  0  0  0
 23 14  1  0  0  0  0
 24 28  1  0  0  0  0
 26 29  1  0  0  0  0
 27 24  1  0  0  0  0
 28 25  2  0  0  0  0
 29 30  2  0  0  0  0
 30 23  1  0  0  0  0
 30 25  1  0  0  0  0
 31 29  1  0  0  0  0
 31 24  2  0  0  0  0
M  END
>  <MODEL>
8

>  <REMARK>
 VINA RESULT:      -9.4      2.703      5.102
  Name = 
  2 active torsions:
  status: ('A' for Active; 'I' for Inactive)
    1  A    between atoms: C_5  and  N_16
    2  A    between atoms: C_5  and  C_30
                            x       y       z     vdW  Elec       q    Type
                         _______ _______ _______ _____ _____    ______ ____

>  <TORSDO>
F 2

$$$$
=
 OpenBabel11122411093D

 31 35  0  0  1  0  0  0  0  0999 V2000
  185.2570  178.8160  143.2940 C   0  0  0  0  0  0  0  0  0  0  0  0
  188.8020  177.5580  143.4640 C   0  0  0  0  0  0  0  0  0  0  0  0
  189.1260  177.3930  144.8470 C   0  0  0  0  0  0  0  0  0  0  0  0
  188.5680  177.5020  147.2250 C   0  0  0  0  0  0  0  0  0  0  0  0
  187.5440  178.0210  142.9730 C   0  0  0  0  0  0  0  0  0  0  0  0
  185.0870  178.9270  141.9140 C   0  0  0  0  0  3  0  0  0  0  0  0
  188.2180  177.6750  145.8830 C   0  0  0  0  0  3  0  0  0  0  0  0
  189.5590  177.3760  141.1410 C   0  0  0  0  0  0  0  0  0  0  0  0
  184.2160  179.1510  144.1500 O   0  0  0  0  0  1  0  0  0  0  0  0
  191.3480  176.6330  144.2240 C   0  0  0  0  0  3  0  0  0  0  0  0
  187.6500  177.7890  148.2240 O   0  0  0  0  0  1  0  0  0  0  0  0
  188.3500  177.8200  140.7140 N   0  0  0  0  0  0  0  0  0  0  0  0
  189.8110  177.2380  142.5120 C   0  0  0  0  0  0  0  0  0  0  0  0
  190.5800  177.0540  140.1910 N   0  0  0  0  0  2  0  0  0  0  0  0
  186.4720  178.3670  143.8140 C   0  0  0  0  0  3  0  0  0  0  0  0
  189.8420  177.0410  147.5590 C   0  0  0  0  0  3  0  0  0  0  0  0
  187.3530  178.1400  141.5720 C   0  0  0  0  0  0  0  0  0  0  0  0
  186.1340  178.5900  141.0570 C   0  0  0  0  0  3  0  0  0  0  0  0
  191.0310  176.7930  142.9180 N   0  0  0  0  0  0  0  0  0  0  0  0
  190.4140  176.9260  145.2090 C   0  0  0  0  0  0  0  0  0  0  0  0
  190.7630  176.7530  146.5520 C   0  0  0  0  0  3  0  0  0  0  0  0
  189.1770  176.3110  138.3320 C   0  0  0  0  0  1  0  0  0  0  0  0
  190.3790  177.1440  138.7500 C   0  0  2  0  0  3  0  0  0  0  0  0
  193.9020  175.8590  136.6950 C   0  0  0  0  0  0  0  0  0  0  0  0
  192.8290  176.5400  138.7000 C   0  0  0  0  0  3  0  0  0  0  0  0
  190.3980  176.5530  135.9630 F   0  0  0  0  0  0  0  0  0  0  0  0
  195.0260  175.4530  136.0590 F   0  0  0  0  0  0  0  0  0  0  0  0
  193.9370  176.1300  138.0280 N   0  0  0  0  0  0  0  0  0  0  0  0
  191.5580  176.4180  136.6520 C   0  0  0  0  0  0  0  0  0  0  0  0
  191.6090  176.6950  138.0250 C   0  0  0  0  0  0  0  0  0  0  0  0
  192.7090  175.9980  135.9840 C   0  0  0  0  0  3  0  0  0  0  0  0
  1 15  1  0  0  0  0
  1  9  1  0  0  0  0
  2  3  1  0  0  0  0
  3 20  2  0  0  0  0
  3  7  1  0  0  0  0
  4 16  1  0  0  0  0
  4 11  1  0  0  0  0
  5  2  1  0  0  0  0
  5 15  2  0  0  0  0
  6  1  2  0  0  0  0
  7  4  2  0  0  0  0
  8 13  1  0  0  0  0
 10 20  1  0  0  0  0
 12  8  2  0  0  0  0
 12 17  1  0  0  0  0
 13 19  1  0  0  0  0
 13  2  2  0  0  0  0
 14  8  1  0  0  0  0
 17  5  1  0  0  0  0
 18 17  2  0  0  0  0
 18  6  1  0  0  0  0
 19 10  2  0  0  0  0
 20 21  1  0  0  0  0
 21 16  2  0  0  0  0
 23 22  1  6  0  0  0
 23 14  1  0  0  0  0
 24 28  1  0  0  0  0
 26 29  1  0  0  0  0
 27 24  1  0  0  0  0
 28 25  2  0  0  0  0
 29 30  2  0  0  0  0
 30 25  1  0  0  0  0
 30 23  1  0  0  0  0
 31 29  1  0  0  0  0
 31 24  2  0  0  0  0
M  END
>  <MODEL>
9

>  <REMARK>
 VINA RESULT:      -9.3      2.166      4.534
  Name = 
  2 active torsions:
  status: ('A' for Active; 'I' for Inactive)
    1  A    between atoms: C_5  and  N_16
    2  A    between atoms: C_5  and  C_30
                            x       y       z     vdW  Elec       q    Type
                         _______ _______ _______ _____ _____    ______ ____

>  <TORSDO>
F 2

$$$$
