=
 OpenBabel11122412033D

 34 42  0  0  1  0  0  0  0  0999 V2000
  187.8900  177.9310  140.4850 C   0  0  0  0  0  0  0  0  0  0  0  0
  186.0880  178.1220  138.7030 C   0  0  0  0  0  2  0  0  0  0  0  0
  189.7820  177.0510  146.8140 C   0  0  1  0  0  0  0  0  0  0  0  0
  189.3860  177.4380  142.3050 C   0  0  0  0  0  0  0  0  0  0  0  0
  188.4200  177.0440  144.5510 C   0  0  1  0  0  3  0  0  0  0  0  0
  187.9110  176.8940  147.2260 C   0  0  1  0  0  3  0  0  0  0  0  0
  189.0220  176.9770  148.0250 O   0  0  0  0  0  0  0  0  0  0  0  0
  191.6850  176.9390  145.2680 C   0  0  0  0  0  3  0  0  0  0  0  0
  185.6960  179.1150  140.8720 C   0  0  2  0  0  3  0  0  0  0  0  0
  182.7610  178.3670  142.0180 C   0  0  0  0  0  3  0  0  0  0  0  0
  187.2510  177.9990  144.2640 C   0  0  0  0  0  2  0  0  0  0  0  0
  190.8510  176.4820  144.1010 C   0  0  0  0  0  2  0  0  0  0  0  0
  185.7320  178.5310  142.2950 C   0  0  1  0  0  3  0  0  0  0  0  0
  184.6980  178.7370  138.6970 C   0  0  0  0  0  2  0  0  0  0  0  0
  189.6960  177.4410  143.7790 C   0  0  1  0  0  3  0  0  0  0  0  0
  191.2090  177.1540  146.4980 C   0  0  0  0  0  3  0  0  0  0  0  0
  183.4330  177.9390  140.7370 C   0  0  2  0  0  3  0  0  0  0  0  0
  188.1580  177.9440  141.8620 C   0  0  0  0  0  0  0  0  0  0  0  0
  188.6650  177.0150  146.0260 C   0  0  1  0  0  3  0  0  0  0  0  0
  187.1730  178.5660  142.8330 C   0  0  2  0  0  3  0  0  0  0  0  0
  190.0020  176.9550  140.0670 C   0  0  0  0  0  3  0  0  0  0  0  0
  183.3600  178.9380  143.0770 C   0  0  0  0  0  3  0  0  0  0  0  0
  190.2850  176.9670  141.3960 N   0  0  0  0  0  0  0  0  0  0  0  0
  184.8040  179.3570  143.1750 C   0  0  0  0  0  2  0  0  0  0  0  0
  184.3390  179.0400  140.1560 C   0  0  1  0  0  3  0  0  0  0  0  0
  188.8100  177.4290  139.6190 N   0  0  0  0  0  0  0  0  0  0  0  0
  186.6340  178.4260  140.0070 N   0  0  0  0  0  0  0  0  0  0  0  0
  182.4440  177.5680  139.8190 O   0  0  0  0  0  0  0  0  0  0  0  0
  181.2520  178.0590  140.3580 C   0  0  0  0  0  2  0  0  0  0  0  0
  181.6760  180.6060  138.4310 O   0  0  0  0  0  0  0  0  0  0  0  0
  181.0340  178.4880  137.9390 C   0  0  0  0  0  2  0  0  0  0  0  0
  180.4640  178.7930  139.2880 C   0  0  2  0  0  3  0  0  0  0  0  0
  181.4460  179.7660  137.3820 N   0  0  0  0  0  2  0  0  0  0  0  0
  180.7200  180.2670  139.4020 C   0  0  0  0  0  2  0  0  0  0  0  0
  1 18  1  0  0  0  0
  2 27  1  0  0  0  0
  3 16  1  6  0  0  0
  3  6  1  0  0  0  0
  3  7  1  0  0  0  0
  4 15  1  0  0  0  0
  5 11  1  1  0  0  0
  5 19  1  0  0  0  0
  6  7  1  1  0  0  0
  8 16  2  0  0  0  0
  9 27  1  6  0  0  0
  9 13  1  0  0  0  0
 10 22  2  0  0  0  0
 12  8  1  0  0  0  0
 13 20  1  0  0  0  0
 13 24  1  1  0  0  0
 14  2  1  0  0  0  0
 14 25  1  0  0  0  0
 15 12  1  6  0  0  0
 15  5  1  0  0  0  0
 17 28  1  6  0  0  0
 17 10  1  0  0  0  0
 18  4  2  0  0  0  0
 18 20  1  0  0  0  0
 19  3  1  0  0  0  0
 19  6  1  0  0  0  0
 20 11  1  0  0  0  0
 21 23  2  0  0  0  0
 22 24  1  0  0  0  0
 23  4  1  0  0  0  0
 25 17  1  0  0  0  0
 25  9  1  0  0  0  0
 26 21  1  0  0  0  0
 26  1  2  0  0  0  0
 27  1  1  0  0  0  0
 28 29  1  0  0  0  0
 30 34  1  0  0  0  0
 31 32  1  0  0  0  0
 32 34  1  0  0  0  0
 32 29  1  0  0  0  0
 33 31  1  0  0  0  0
 33 30  1  0  0  0  0
M  END
>  <MODEL>
1

>  <REMARK>
 VINA RESULT:      -9.5      0.000      0.000
  Name = 
  3 active torsions:
  status: ('A' for Active; 'I' for Inactive)
    1  A    between atoms: C_17  and  O_28
    2  A    between atoms: O_28  and  C_29
    3  A    between atoms: C_29  and  C_32
                            x       y       z     vdW  Elec       q    Type
                         _______ _______ _______ _____ _____    ______ ____

>  <TORSDO>
F 3

$$$$
=
 OpenBabel11122412033D

 34 42  0  0  1  0  0  0  0  0999 V2000
  189.8310  177.0390  141.6280 C   0  0  0  0  0  0  0  0  0  0  0  0
  190.6540  176.3120  139.3370 C   0  0  0  0  0  2  0  0  0  0  0  0
  184.9310  178.7720  145.7990 C   0  0  1  0  0  0  0  0  0  0  0  0
  188.7630  177.4570  143.7450 C   0  0  0  0  0  0  0  0  0  0  0  0
  186.3050  177.7550  143.7850 C   0  0  1  0  0  3  0  0  0  0  0  0
  183.7360  178.4980  144.3180 C   0  0  1  0  0  3  0  0  0  0  0  0
  183.5400  179.0250  145.5690 O   0  0  0  0  0  0  0  0  0  0  0  0
  187.0480  178.3970  146.9830 C   0  0  0  0  0  3  0  0  0  0  0  0
  188.8780  177.9450  139.4750 C   0  0  2  0  0  3  0  0  0  0  0  0
  186.4370  177.2310  137.4700 C   0  0  0  0  0  3  0  0  0  0  0  0
  186.3100  178.3600  142.3740 C   0  0  0  0  0  2  0  0  0  0  0  0
  187.5790  177.4350  145.9550 C   0  0  0  0  0  2  0  0  0  0  0  0
  187.5080  177.9210  140.1730 C   0  0  1  0  0  3  0  0  0  0  0  0
  190.2330  176.6710  137.9220 C   0  0  0  0  0  2  0  0  0  0  0  0
  187.6220  178.0330  144.5410 C   0  0  1  0  0  3  0  0  0  0  0  0
  185.8390  178.9650  146.9320 C   0  0  0  0  0  3  0  0  0  0  0  0
  187.7160  176.4770  137.7370 C   0  0  2  0  0  3  0  0  0  0  0  0
  188.7580  177.5840  142.3500 C   0  0  0  0  0  0  0  0  0  0  0  0
  185.1260  178.2910  144.5340 C   0  0  1  0  0  3  0  0  0  0  0  0
  187.6660  178.3590  141.6390 C   0  0  2  0  0  3  0  0  0  0  0  0
  190.8310  176.3030  143.6390 C   0  0  0  0  0  3  0  0  0  0  0  0
  185.9300  178.2250  138.2180 C   0  0  0  0  0  3  0  0  0  0  0  0
  189.8060  176.8310  144.3580 N   0  0  0  0  0  0  0  0  0  0  0  0
  186.5720  178.8600  139.4240 C   0  0  0  0  0  2  0  0  0  0  0  0
  188.8990  177.4180  138.0320 C   0  0  1  0  0  3  0  0  0  0  0  0
  190.8370  176.4030  142.2840 N   0  0  0  0  0  0  0  0  0  0  0  0
  189.8410  177.1390  140.2000 N   0  0  0  0  0  0  0  0  0  0  0  0
  187.9900  175.6600  136.6340 O   0  0  0  0  0  0  0  0  0  0  0  0
  186.8120  174.9380  136.4230 C   0  0  0  0  0  2  0  0  0  0  0  0
  185.0020  172.2870  136.6950 O   0  0  0  0  0  0  0  0  0  0  0  0
  187.0240  172.5840  135.7150 C   0  0  0  0  0  2  0  0  0  0  0  0
  186.9930  173.5060  136.8930 C   0  0  2  0  0  3  0  0  0  0  0  0
  185.9170  171.6620  135.9020 N   0  0  0  0  0  2  0  0  0  0  0  0
  185.7500  173.0530  137.6030 C   0  0  0  0  0  2  0  0  0  0  0  0
  1 26  2  0  0  0  0
  1 18  1  0  0  0  0
  2 27  1  0  0  0  0
  3 16  1  1  0  0  0
  4 23  1  0  0  0  0
  4 15  1  0  0  0  0
  5 11  1  6  0  0  0
  5 19  1  0  0  0  0
  5 15  1  0  0  0  0
  6 19  1  0  0  0  0
  6  7  1  6  0  0  0
  6  3  1  0  0  0  0
  7  3  1  0  0  0  0
  9 13  1  0  0  0  0
  9 27  1  1  0  0  0
 10 17  1  0  0  0  0
 10 22  2  0  0  0  0
 12  8  1  0  0  0  0
 13 24  1  6  0  0  0
 13 20  1  0  0  0  0
 14 25  1  0  0  0  0
 14  2  1  0  0  0  0
 15 12  1  1  0  0  0
 16  8  2  0  0  0  0
 17 28  1  6  0  0  0
 17 25  1  0  0  0  0
 18  4  2  0  0  0  0
 19  3  1  0  0  0  0
 20 18  1  0  0  0  0
 20 11  1  0  0  0  0
 21 23  2  0  0  0  0
 22 24  1  0  0  0  0
 25  9  1  0  0  0  0
 26 21  1  0  0  0  0
 27  1  1  0  0  0  0
 29 28  1  0  0  0  0
 29 32  1  0  0  0  0
 30 34  1  0  0  0  0
 31 33  1  0  0  0  0
 31 32  1  0  0  0  0
 32 34  1  0  0  0  0
 33 30  1  0  0  0  0
M  END
>  <MODEL>
2

>  <REMARK>
 VINA RESULT:      -9.5      3.452      5.387
  Name = 
  3 active torsions:
  status: ('A' for Active; 'I' for Inactive)
    1  A    between atoms: C_17  and  O_28
    2  A    between atoms: O_28  and  C_29
    3  A    between atoms: C_29  and  C_32
                            x       y       z     vdW  Elec       q    Type
                         _______ _______ _______ _____ _____    ______ ____

>  <TORSDO>
F 3

$$$$
=
 OpenBabel11122412033D

 34 42  0  0  1  0  0  0  0  0999 V2000
  187.8710  177.9240  140.4570 C   0  0  0  0  0  0  0  0  0  0  0  0
  186.0650  178.1040  138.6790 C   0  0  0  0  0  2  0  0  0  0  0  0
  189.7810  177.0470  146.7810 C   0  0  1  0  0  0  0  0  0  0  0  0
  189.3750  177.4390  142.2740 C   0  0  0  0  0  0  0  0  0  0  0  0
  188.4150  177.0330  144.5210 C   0  0  1  0  0  3  0  0  0  0  0  0
  187.9120  176.8730  147.1960 C   0  0  1  0  0  3  0  0  0  0  0  0
  189.0240  176.9640  147.9940 O   0  0  0  0  0  0  0  0  0  0  0  0
  191.6830  176.9530  145.2320 C   0  0  0  0  0  3  0  0  0  0  0  0
  185.6680  179.0890  140.8500 C   0  0  2  0  0  3  0  0  0  0  0  0
  182.7420  178.3150  142.0000 C   0  0  0  0  0  3  0  0  0  0  0  0
  187.2380  177.9790  144.2380 C   0  0  0  0  0  2  0  0  0  0  0  0
  190.8500  176.4920  144.0650 C   0  0  0  0  0  2  0  0  0  0  0  0
  185.7110  178.5030  142.2720 C   0  0  1  0  0  3  0  0  0  0  0  0
  184.6700  178.7080  138.6760 C   0  0  0  0  0  2  0  0  0  0  0  0
  189.6860  177.4420  143.7470 C   0  0  1  0  0  3  0  0  0  0  0  0
  191.2060  177.1620  146.4630 C   0  0  0  0  0  3  0  0  0  0  0  0
  183.4140  177.8940  140.7170 C   0  0  2  0  0  3  0  0  0  0  0  0
  188.1420  177.9360  141.8340 C   0  0  0  0  0  0  0  0  0  0  0  0
  188.6630  177.0030  145.9950 C   0  0  1  0  0  3  0  0  0  0  0  0
  187.1530  178.5480  142.8070 C   0  0  2  0  0  3  0  0  0  0  0  0
  189.9910  176.9660  140.0340 C   0  0  0  0  0  3  0  0  0  0  0  0
  183.3380  178.8880  143.0590 C   0  0  0  0  0  3  0  0  0  0  0  0
  190.2760  176.9780  141.3620 N   0  0  0  0  0  0  0  0  0  0  0  0
  184.7780  179.3190  143.1550 C   0  0  0  0  0  2  0  0  0  0  0  0
  184.3110  179.0040  140.1370 C   0  0  1  0  0  3  0  0  0  0  0  0
  188.7940  177.4310  139.5890 N   0  0  0  0  0  0  0  0  0  0  0  0
  186.6100  178.4090  139.9830 N   0  0  0  0  0  0  0  0  0  0  0  0
  182.4280  177.5170  139.7990 O   0  0  0  0  0  0  0  0  0  0  0  0
  181.3270  178.3220  140.1060 C   0  0  0  0  0  2  0  0  0  0  0  0
  180.0140  175.4180  140.5740 O   0  0  0  0  0  0  0  0  0  0  0  0
  179.1600  177.4870  140.9370 C   0  0  0  0  0  2  0  0  0  0  0  0
  180.0420  177.6050  139.7340 C   0  0  2  0  0  3  0  0  0  0  0  0
  178.9550  176.0620  141.1410 N   0  0  0  0  0  2  0  0  0  0  0  0
  180.3430  176.1660  139.4320 C   0  0  0  0  0  2  0  0  0  0  0  0
  1 18  1  0  0  0  0
  2 27  1  0  0  0  0
  3 16  1  6  0  0  0
  3  6  1  0  0  0  0
  3  7  1  0  0  0  0
  4 15  1  0  0  0  0
  5 11  1  1  0  0  0
  5 19  1  0  0  0  0
  6  7  1  1  0  0  0
  8 16  2  0  0  0  0
  9 27  1  6  0  0  0
  9 13  1  0  0  0  0
 10 22  2  0  0  0  0
 12  8  1  0  0  0  0
 13 20  1  0  0  0  0
 13 24  1  1  0  0  0
 14  2  1  0  0  0  0
 14 25  1  0  0  0  0
 15 12  1  6  0  0  0
 15  5  1  0  0  0  0
 17 28  1  6  0  0  0
 17 10  1  0  0  0  0
 18  4  2  0  0  0  0
 18 20  1  0  0  0  0
 19  3  1  0  0  0  0
 19  6  1  0  0  0  0
 20 11  1  0  0  0  0
 21 23  2  0  0  0  0
 22 24  1  0  0  0  0
 23  4  1  0  0  0  0
 25 17  1  0  0  0  0
 25  9  1  0  0  0  0
 26 21  1  0  0  0  0
 26  1  2  0  0  0  0
 27  1  1  0  0  0  0
 28 29  1  0  0  0  0
 30 33  1  0  0  0  0
 31 33  1  0  0  0  0
 32 29  1  0  0  0  0
 32 31  1  0  0  0  0
 34 32  1  0  0  0  0
 34 30  1  0  0  0  0
M  END
>  <MODEL>
3

>  <REMARK>
 VINA RESULT:      -9.4      1.300      1.721
  Name = 
  3 active torsions:
  status: ('A' for Active; 'I' for Inactive)
    1  A    between atoms: C_17  and  O_28
    2  A    between atoms: O_28  and  C_29
    3  A    between atoms: C_29  and  C_32
                            x       y       z     vdW  Elec       q    Type
                         _______ _______ _______ _____ _____    ______ ____

>  <TORSDO>
F 3

$$$$
=
 OpenBabel11122412033D

 34 42  0  0  1  0  0  0  0  0999 V2000
  189.8500  177.0790  141.5810 C   0  0  0  0  0  0  0  0  0  0  0  0
  190.5750  176.4310  139.2330 C   0  0  0  0  0  2  0  0  0  0  0  0
  185.1350  178.6900  146.0060 C   0  0  1  0  0  0  0  0  0  0  0  0
  188.8700  177.4250  143.7520 C   0  0  0  0  0  0  0  0  0  0  0  0
  186.4190  177.7390  143.9030 C   0  0  1  0  0  3  0  0  0  0  0  0
  183.8800  178.4800  144.5650 C   0  0  1  0  0  3  0  0  0  0  0  0
  183.7390  178.9620  145.8420 O   0  0  0  0  0  0  0  0  0  0  0  0
  187.2940  178.2560  147.0900 C   0  0  0  0  0  3  0  0  0  0  0  0
  188.8200  178.0710  139.5020 C   0  0  2  0  0  3  0  0  0  0  0  0
  186.2950  177.4500  137.5720 C   0  0  0  0  0  3  0  0  0  0  0  0
  186.3730  178.3960  142.5150 C   0  0  0  0  0  2  0  0  0  0  0  0
  187.7760  177.3290  146.0060 C   0  0  0  0  0  2  0  0  0  0  0  0
  187.4780  178.0310  140.2530 C   0  0  1  0  0  3  0  0  0  0  0  0
  190.1000  176.8460  137.8500 C   0  0  0  0  0  2  0  0  0  0  0  0
  187.7670  177.9800  144.6140 C   0  0  1  0  0  3  0  0  0  0  0  0
  186.0900  178.8340  147.1080 C   0  0  0  0  0  3  0  0  0  0  0  0
  187.5770  176.6770  137.7590 C   0  0  2  0  0  3  0  0  0  0  0  0
  188.8120  177.6040  142.3650 C   0  0  0  0  0  0  0  0  0  0  0  0
  185.2760  178.2560  144.7170 C   0  0  1  0  0  3  0  0  0  0  0  0
  187.6980  178.4130  141.7270 C   0  0  2  0  0  3  0  0  0  0  0  0
  190.9230  176.2600  143.5210 C   0  0  0  0  0  3  0  0  0  0  0  0
  185.8260  178.4190  138.3760 C   0  0  0  0  0  3  0  0  0  0  0  0
  189.9320  176.7690  144.2990 N   0  0  0  0  0  0  0  0  0  0  0  0
  186.5210  179.0040  139.5780 C   0  0  0  0  0  2  0  0  0  0  0  0
  188.7780  177.5990  138.0410 C   0  0  1  0  0  3  0  0  0  0  0  0
  190.8750  176.4110  142.1720 N   0  0  0  0  0  0  0  0  0  0  0  0
  189.8040  177.2310  140.1570 N   0  0  0  0  0  0  0  0  0  0  0  0
  187.7990  175.9000  136.6170 O   0  0  0  0  0  0  0  0  0  0  0  0
  187.3430  174.6240  136.9580 C   0  0  0  0  0  2  0  0  0  0  0  0
  190.0000  174.4600  135.1430 O   0  0  0  0  0  0  0  0  0  0  0  0
  189.3030  173.1300  136.8430 C   0  0  0  0  0  2  0  0  0  0  0  0
  188.0660  173.5780  136.1290 C   0  0  2  0  0  3  0  0  0  0  0  0
  190.4100  173.4440  135.9540 N   0  0  0  0  0  2  0  0  0  0  0  0
  188.6380  174.2220  134.9000 C   0  0  0  0  0  2  0  0  0  0  0  0
  1 26  2  0  0  0  0
  1 18  1  0  0  0  0
  2 27  1  0  0  0  0
  3 16  1  1  0  0  0
  4 23  1  0  0  0  0
  4 15  1  0  0  0  0
  5 11  1  6  0  0  0
  5 15  1  0  0  0  0
  5 19  1  0  0  0  0
  6 19  1  0  0  0  0
  6  7  1  6  0  0  0
  6  3  1  0  0  0  0
  7  3  1  0  0  0  0
  8 16  2  0  0  0  0
  9 27  1  1  0  0  0
  9 13  1  0  0  0  0
 10 17  1  0  0  0  0
 10 22  2  0  0  0  0
 12  8  1  0  0  0  0
 13 24  1  6  0  0  0
 13 20  1  0  0  0  0
 14 25  1  0  0  0  0
 14  2  1  0  0  0  0
 15 12  1  1  0  0  0
 17 28  1  6  0  0  0
 17 25  1  0  0  0  0
 18  4  2  0  0  0  0
 19  3  1  0  0  0  0
 20 18  1  0  0  0  0
 20 11  1  0  0  0  0
 21 23  2  0  0  0  0
 22 24  1  0  0  0  0
 25  9  1  0  0  0  0
 26 21  1  0  0  0  0
 27  1  1  0  0  0  0
 28 29  1  0  0  0  0
 30 33  1  0  0  0  0
 32 31  1  0  0  0  0
 32 29  1  0  0  0  0
 33 31  1  0  0  0  0
 34 30  1  0  0  0  0
 34 32  1  0  0  0  0
M  END
>  <MODEL>
4

>  <REMARK>
 VINA RESULT:      -9.1      3.458      5.694
  Name = 
  3 active torsions:
  status: ('A' for Active; 'I' for Inactive)
    1  A    between atoms: C_17  and  O_28
    2  A    between atoms: O_28  and  C_29
    3  A    between atoms: C_29  and  C_32
                            x       y       z     vdW  Elec       q    Type
                         _______ _______ _______ _____ _____    ______ ____

>  <TORSDO>
F 3

$$$$
=
 OpenBabel11122412033D

 34 42  0  0  1  0  0  0  0  0999 V2000
  189.9550  177.5190  143.4720 C   0  0  0  0  0  0  0  0  0  0  0  0
  192.0540  176.7500  142.2630 C   0  0  0  0  0  2  0  0  0  0  0  0
  183.4160  178.7950  143.5950 C   0  0  1  0  0  0  0  0  0  0  0  0
  187.7930  177.9310  144.4470 C   0  0  0  0  0  0  0  0  0  0  0  0
  185.8030  177.8480  142.9760 C   0  0  1  0  0  3  0  0  0  0  0  0
  183.3920  178.2240  141.7590 C   0  0  1  0  0  3  0  0  0  0  0  0
  182.4370  178.8110  142.5490 O   0  0  0  0  0  0  0  0  0  0  0  0
  184.3980  178.8450  145.8440 C   0  0  0  0  0  3  0  0  0  0  0  0
  190.4420  178.0950  141.0650 C   0  0  2  0  0  3  0  0  0  0  0  0
  189.7850  176.8580  138.1450 C   0  0  0  0  0  3  0  0  0  0  0  0
  186.6190  178.3330  141.7690 C   0  0  0  0  0  2  0  0  0  0  0  0
  185.5160  177.8990  145.4960 C   0  0  0  0  0  2  0  0  0  0  0  0
  188.9360  177.9140  140.8080 C   0  0  1  0  0  3  0  0  0  0  0  0
  192.5530  176.9280  140.8390 C   0  0  0  0  0  2  0  0  0  0  0  0
  186.3640  178.3850  144.3100 C   0  0  1  0  0  3  0  0  0  0  0  0
  183.4310  179.2140  144.9980 C   0  0  0  0  0  3  0  0  0  0  0  0
  190.6910  176.3340  139.2310 C   0  0  2  0  0  3  0  0  0  0  0  0
  188.6280  177.9460  143.3230 C   0  0  0  0  0  0  0  0  0  0  0  0
  184.3760  178.2530  142.7860 C   0  0  1  0  0  3  0  0  0  0  0  0
  188.1370  178.4850  141.9930 C   0  0  2  0  0  3  0  0  0  0  0  0
  189.5800  177.1050  145.7690 C   0  0  0  0  0  3  0  0  0  0  0  0
  188.8540  177.8170  138.2810 C   0  0  0  0  0  3  0  0  0  0  0  0
  188.2930  177.5230  145.6470 N   0  0  0  0  0  0  0  0  0  0  0  0
  188.5810  178.6360  139.5160 C   0  0  0  0  0  2  0  0  0  0  0  0
  191.3750  177.4670  140.0190 C   0  0  1  0  0  3  0  0  0  0  0  0
  190.4000  177.0980  144.6860 N   0  0  0  0  0  0  0  0  0  0  0  0
  190.8240  177.5060  142.3340 N   0  0  0  0  0  0  0  0  0  0  0  0
  191.6400  175.4850  138.6490 O   0  0  0  0  0  0  0  0  0  0  0  0
  191.7650  175.9380  137.3330 C   0  0  0  0  0  2  0  0  0  0  0  0
  194.8370  176.3760  136.4690 O   0  0  0  0  0  0  0  0  0  0  0  0
  193.8640  174.6710  137.6030 C   0  0  0  0  0  2  0  0  0  0  0  0
  192.8470  175.1500  136.6160 C   0  0  2  0  0  3  0  0  0  0  0  0
  195.1280  175.2530  137.1840 N   0  0  0  0  0  2  0  0  0  0  0  0
  193.6600  176.0800  135.7640 C   0  0  0  0  0  2  0  0  0  0  0  0
  1 26  1  0  0  0  0
  2 27  1  0  0  0  0
  3 16  1  1  0  0  0
  4 23  2  0  0  0  0
  5 11  1  6  0  0  0
  5 15  1  0  0  0  0
  6  7  1  6  0  0  0
  6 19  1  0  0  0  0
  6  3  1  0  0  0  0
  7  3  1  0  0  0  0
  9 27  1  1  0  0  0
 10 22  2  0  0  0  0
 10 17  1  0  0  0  0
 11 20  1  0  0  0  0
 12  8  1  0  0  0  0
 13 24  1  6  0  0  0
 13  9  1  0  0  0  0
 13 20  1  0  0  0  0
 14  2  1  0  0  0  0
 15  4  1  0  0  0  0
 15 12  1  1  0  0  0
 16  8  2  0  0  0  0
 17 28  1  6  0  0  0
 17 25  1  0  0  0  0
 18  1  2  0  0  0  0
 18  4  1  0  0  0  0
 19  5  1  0  0  0  0
 19  3  1  0  0  0  0
 20 18  1  0  0  0  0
 22 24  1  0  0  0  0
 23 21  1  0  0  0  0
 25 14  1  0  0  0  0
 25  9  1  0  0  0  0
 26 21  2  0  0  0  0
 27  1  1  0  0  0  0
 29 28  1  0  0  0  0
 30 33  1  0  0  0  0
 32 29  1  0  0  0  0
 32 31  1  0  0  0  0
 33 31  1  0  0  0  0
 34 30  1  0  0  0  0
 34 32  1  0  0  0  0
M  END
>  <MODEL>
5

>  <REMARK>
 VINA RESULT:      -9.0      3.807      7.885
  Name = 
  3 active torsions:
  status: ('A' for Active; 'I' for Inactive)
    1  A    between atoms: C_17  and  O_28
    2  A    between atoms: O_28  and  C_29
    3  A    between atoms: C_29  and  C_32
                            x       y       z     vdW  Elec       q    Type
                         _______ _______ _______ _____ _____    ______ ____

>  <TORSDO>
F 3

$$$$
=
 OpenBabel11122412033D

 34 42  0  0  1  0  0  0  0  0999 V2000
  182.4270  178.7640  143.6020 C   0  0  0  0  0  0  0  0  0  0  0  0
  183.9510  178.7240  145.6360 C   0  0  0  0  0  2  0  0  0  0  0  0
  181.2570  177.5750  137.1510 C   0  0  1  0  0  0  0  0  0  0  0  0
  181.1180  178.4320  141.6090 C   0  0  0  0  0  0  0  0  0  0  0  0
  182.2420  177.5190  139.6010 C   0  0  1  0  0  3  0  0  0  0  0  0
  183.0550  176.8980  137.0730 C   0  0  1  0  0  3  0  0  0  0  0  0
  182.1280  177.1550  136.0950 O   0  0  0  0  0  0  0  0  0  0  0  0
  179.2000  178.1480  138.3610 C   0  0  0  0  0  3  0  0  0  0  0  0
  184.8900  179.2950  143.4830 C   0  0  2  0  0  3  0  0  0  0  0  0
  187.6440  177.6880  142.9140 C   0  0  0  0  0  3  0  0  0  0  0  0
  183.5740  178.1760  139.9920 C   0  0  0  0  0  2  0  0  0  0  0  0
  179.7110  177.6520  139.6870 C   0  0  0  0  0  2  0  0  0  0  0  0
  184.8940  178.5600  142.1320 C   0  0  1  0  0  3  0  0  0  0  0  0
  185.4400  178.9640  145.8190 C   0  0  0  0  0  2  0  0  0  0  0  0
  181.0270  178.3220  140.1100 C   0  0  1  0  0  3  0  0  0  0  0  0
  179.8810  178.0750  137.2140 C   0  0  0  0  0  3  0  0  0  0  0  0
  186.7120  177.6140  144.0980 C   0  0  2  0  0  3  0  0  0  0  0  0
  182.3640  178.6650  142.2050 C   0  0  0  0  0  0  0  0  0  0  0  0
  182.2030  177.3600  138.1140 C   0  0  1  0  0  3  0  0  0  0  0  0
  183.6050  178.8870  141.3600 C   0  0  2  0  0  3  0  0  0  0  0  0
  180.0930  178.4160  143.7470 C   0  0  0  0  0  3  0  0  0  0  0  0
  187.3720  178.2490  141.7240 C   0  0  0  0  0  3  0  0  0  0  0  0
  180.0100  178.3260  142.3940 N   0  0  0  0  0  0  0  0  0  0  0  0
  186.1230  179.0030  141.3490 C   0  0  0  0  0  2  0  0  0  0  0  0
  186.0650  178.9740  144.4190 C   0  0  1  0  0  3  0  0  0  0  0  0
  181.2960  178.6280  144.3440 N   0  0  0  0  0  0  0  0  0  0  0  0
  183.6920  178.9840  144.2370 N   0  0  0  0  0  0  0  0  0  0  0  0
  187.4280  177.1280  145.1980 O   0  0  0  0  0  0  0  0  0  0  0  0
  188.7530  177.0570  144.7600 C   0  0  0  0  0  2  0  0  0  0  0  0
  190.5530  176.3760  147.3430 O   0  0  0  0  0  0  0  0  0  0  0  0
  191.0870  177.4800  145.4360 C   0  0  0  0  0  2  0  0  0  0  0  0
  189.6560  177.8090  145.7210 C   0  0  2  0  0  3  0  0  0  0  0  0
  191.6110  176.8950  146.6590 N   0  0  0  0  0  2  0  0  0  0  0  0
  189.4840  177.2550  147.1050 C   0  0  0  0  0  2  0  0  0  0  0  0
  1 27  1  0  0  0  0
  1 26  1  0  0  0  0
  2 14  1  0  0  0  0
  3 16  1  1  0  0  0
  3 19  1  0  0  0  0
  4 18  1  0  0  0  0
  4 23  2  0  0  0  0
  5 11  1  6  0  0  0
  5 15  1  0  0  0  0
  6  7  1  6  0  0  0
  6  3  1  0  0  0  0
  6 19  1  0  0  0  0
  7  3  1  0  0  0  0
  8 12  1  0  0  0  0
  9 27  1  1  0  0  0
  9 25  1  0  0  0  0
 10 17  1  0  0  0  0
 11 20  1  0  0  0  0
 13 24  1  6  0  0  0
 13  9  1  0  0  0  0
 15 12  1  1  0  0  0
 15  4  1  0  0  0  0
 16  8  2  0  0  0  0
 17 25  1  0  0  0  0
 17 28  1  1  0  0  0
 18  1  2  0  0  0  0
 19  5  1  0  0  0  0
 20 13  1  0  0  0  0
 20 18  1  0  0  0  0
 21 26  2  0  0  0  0
 22 10  2  0  0  0  0
 23 21  1  0  0  0  0
 24 22  1  0  0  0  0
 25 14  1  0  0  0  0
 27  2  1  0  0  0  0
 29 28  1  0  0  0  0
 29 32  1  0  0  0  0
 31 32  1  0  0  0  0
 31 33  1  0  0  0  0
 32 34  1  0  0  0  0
 33 30  1  0  0  0  0
 34 30  1  0  0  0  0
M  END
>  <MODEL>
6

>  <REMARK>
 VINA RESULT:      -8.9      2.565      9.338
  Name = 
  3 active torsions:
  status: ('A' for Active; 'I' for Inactive)
    1  A    between atoms: C_17  and  O_28
    2  A    between atoms: O_28  and  C_29
    3  A    between atoms: C_29  and  C_32
                            x       y       z     vdW  Elec       q    Type
                         _______ _______ _______ _____ _____    ______ ____

>  <TORSDO>
F 3

$$$$
=
 OpenBabel11122412033D

 34 42  0  0  1  0  0  0  0  0999 V2000
  182.3140  178.7760  142.2760 C   0  0  0  0  0  0  0  0  0  0  0  0
  182.9710  178.7900  144.7310 C   0  0  0  0  0  2  0  0  0  0  0  0
  183.5880  177.3520  135.8920 C   0  0  1  0  0  0  0  0  0  0  0  0
  181.8300  178.3890  139.9500 C   0  0  0  0  0  0  0  0  0  0  0  0
  183.5910  177.3760  138.5330 C   0  0  1  0  0  3  0  0  0  0  0  0
  185.2640  176.6410  136.5100 C   0  0  1  0  0  3  0  0  0  0  0  0
  184.7760  176.8750  135.2500 O   0  0  0  0  0  0  0  0  0  0  0  0
  181.2480  178.0100  136.2310 C   0  0  0  0  0  3  0  0  0  0  0  0
  184.6610  179.2590  143.0670 C   0  0  2  0  0  3  0  0  0  0  0  0
  187.3760  177.5820  143.6130 C   0  0  0  0  0  3  0  0  0  0  0  0
  184.7020  178.0250  139.3720 C   0  0  0  0  0  2  0  0  0  0  0  0
  181.2140  177.5570  137.6660 C   0  0  0  0  0  2  0  0  0  0  0  0
  185.1430  178.4700  141.8370 C   0  0  1  0  0  3  0  0  0  0  0  0
  184.2920  179.0110  145.4490 C   0  0  0  0  0  2  0  0  0  0  0  0
  182.2990  178.2200  138.5290 C   0  0  1  0  0  3  0  0  0  0  0  0
  182.3040  177.8780  135.4230 C   0  0  0  0  0  3  0  0  0  0  0  0
  186.0700  177.5710  144.3670 C   0  0  2  0  0  3  0  0  0  0  0  0
  182.7720  178.6230  140.9590 C   0  0  0  0  0  0  0  0  0  0  0  0
  184.1020  177.1600  137.1450 C   0  0  1  0  0  3  0  0  0  0  0  0
  184.2430  178.7890  140.6310 C   0  0  2  0  0  3  0  0  0  0  0  0
  180.0840  178.4760  141.5520 C   0  0  0  0  0  3  0  0  0  0  0  0
  187.5850  178.1000  142.3910 C   0  0  0  0  0  3  0  0  0  0  0  0
  180.5060  178.3330  140.2680 N   0  0  0  0  0  0  0  0  0  0  0  0
  186.5880  178.8600  141.5550 C   0  0  0  0  0  2  0  0  0  0  0  0
  185.3920  178.9540  144.3820 C   0  0  1  0  0  3  0  0  0  0  0  0
  180.9840  178.6890  142.5460 N   0  0  0  0  0  0  0  0  0  0  0  0
  183.2590  178.9990  143.3290 N   0  0  0  0  0  0  0  0  0  0  0  0
  186.3100  177.1170  145.6680 O   0  0  0  0  0  0  0  0  0  0  0  0
  187.5290  177.6960  146.0300 C   0  0  0  0  0  2  0  0  0  0  0  0
  190.1900  177.7910  147.8440 O   0  0  0  0  0  0  0  0  0  0  0  0
  188.0320  178.2250  148.3870 C   0  0  0  0  0  2  0  0  0  0  0  0
  187.9930  177.1350  147.3630 C   0  0  2  0  0  3  0  0  0  0  0  0
  189.4100  178.2930  148.8430 N   0  0  0  0  0  2  0  0  0  0  0  0
  189.4410  176.7540  147.2660 C   0  0  0  0  0  2  0  0  0  0  0  0
  1 26  1  0  0  0  0
  1 27  1  0  0  0  0
  2 14  1  0  0  0  0
  3 16  1  6  0  0  0
  3  6  1  0  0  0  0
  3 19  1  0  0  0  0
  4 23  2  0  0  0  0
  4 18  1  0  0  0  0
  5 11  1  1  0  0  0
  6  7  1  6  0  0  0
  6 19  1  0  0  0  0
  7  3  1  0  0  0  0
  8 12  1  0  0  0  0
  9 27  1  1  0  0  0
  9 25  1  0  0  0  0
 10 17  1  0  0  0  0
 11 20  1  0  0  0  0
 13 24  1  6  0  0  0
 13  9  1  0  0  0  0
 15 12  1  6  0  0  0
 15  5  1  0  0  0  0
 15  4  1  0  0  0  0
 16  8  2  0  0  0  0
 17 25  1  0  0  0  0
 17 28  1  1  0  0  0
 18  1  2  0  0  0  0
 19  5  1  0  0  0  0
 20 18  1  0  0  0  0
 20 13  1  0  0  0  0
 21 26  2  0  0  0  0
 22 10  2  0  0  0  0
 23 21  1  0  0  0  0
 24 22  1  0  0  0  0
 25 14  1  0  0  0  0
 27  2  1  0  0  0  0
 28 29  1  0  0  0  0
 29 32  1  0  0  0  0
 30 33  1  0  0  0  0
 31 33  1  0  0  0  0
 32 31  1  0  0  0  0
 34 32  1  0  0  0  0
 34 30  1  0  0  0  0
M  END
>  <MODEL>
7

>  <REMARK>
 VINA RESULT:      -8.6      2.846      9.089
  Name = 
  3 active torsions:
  status: ('A' for Active; 'I' for Inactive)
    1  A    between atoms: C_17  and  O_28
    2  A    between atoms: O_28  and  C_29
    3  A    between atoms: C_29  and  C_32
                            x       y       z     vdW  Elec       q    Type
                         _______ _______ _______ _____ _____    ______ ____

>  <TORSDO>
F 3

$$$$
=
 OpenBabel11122412033D

 34 42  0  0  1  0  0  0  0  0999 V2000
  182.8140  178.8620  143.2740 C   0  0  0  0  0  0  0  0  0  0  0  0
  180.5170  179.8390  142.7990 C   0  0  0  0  0  2  0  0  0  0  0  0
  189.0770  177.4980  141.4500 C   0  0  1  0  0  0  0  0  0  0  0  0
  185.1310  178.2740  143.5620 C   0  0  0  0  0  0  0  0  0  0  0  0
  186.6670  178.5610  141.6400 C   0  0  1  0  0  3  0  0  0  0  0  0
  188.6490  178.3490  139.7800 C   0  0  1  0  0  3  0  0  0  0  0  0
  189.7440  177.6330  140.1900 O   0  0  0  0  0  0  0  0  0  0  0  0
  188.7190  177.1090  143.8470 C   0  0  0  0  0  3  0  0  0  0  0  0
  181.6810  178.6770  141.0280 C   0  0  2  0  0  3  0  0  0  0  0  0
  181.6140  180.3480  138.2540 C   0  0  0  0  0  3  0  0  0  0  0  0
  185.5370  178.2810  140.6380 C   0  0  0  0  0  2  0  0  0  0  0  0
  187.6020  178.1120  143.9540 C   0  0  0  0  0  2  0  0  0  0  0  0
  183.0740  178.8760  140.4060 C   0  0  1  0  0  3  0  0  0  0  0  0
  179.6520  179.8930  141.5510 C   0  0  0  0  0  2  0  0  0  0  0  0
  186.4470  177.8300  142.9810 C   0  0  1  0  0  3  0  0  0  0  0  0
  189.4080  176.8640  142.7280 C   0  0  0  0  0  3  0  0  0  0  0  0
  181.0550  180.7070  139.6090 C   0  0  2  0  0  3  0  0  0  0  0  0
  184.0310  178.4470  142.7130 C   0  0  0  0  0  0  0  0  0  0  0  0
  187.9690  178.1730  141.0170 C   0  0  1  0  0  3  0  0  0  0  0  0
  184.1240  178.1170  141.2360 C   0  0  2  0  0  3  0  0  0  0  0  0
  183.8020  178.9060  145.4210 C   0  0  0  0  0  3  0  0  0  0  0  0
  182.4950  179.3670  137.9930 C   0  0  0  0  0  3  0  0  0  0  0  0
  184.9870  178.4960  144.8990 N   0  0  0  0  0  0  0  0  0  0  0  0
  183.0380  178.3610  138.9740 C   0  0  0  0  0  2  0  0  0  0  0  0
  180.5420  179.4730  140.3750 C   0  0  1  0  0  3  0  0  0  0  0  0
  182.7280  179.0930  144.6110 N   0  0  0  0  0  0  0  0  0  0  0  0
  181.6790  179.0640  142.4250 N   0  0  0  0  0  0  0  0  0  0  0  0
  180.0350  181.6480  139.4340 O   0  0  0  0  0  0  0  0  0  0  0  0
  180.0650  181.9590  138.0720 C   0  0  0  0  0  2  0  0  0  0  0  0
  181.0940  184.1560  135.9520 O   0  0  0  0  0  0  0  0  0  0  0  0
  179.0140  183.7700  136.7670 C   0  0  0  0  0  2  0  0  0  0  0  0
  179.9620  183.4620  137.8820 C   0  0  2  0  0  3  0  0  0  0  0  0
  179.7870  184.5020  135.7780 N   0  0  0  0  0  2  0  0  0  0  0  0
  181.2570  183.9860  137.3360 C   0  0  0  0  0  2  0  0  0  0  0  0
  1 26  1  0  0  0  0
  3 16  1  1  0  0  0
  4 23  2  0  0  0  0
  5 11  1  6  0  0  0
  5 15  1  0  0  0  0
  6  7  1  6  0  0  0
  6 19  1  0  0  0  0
  6  3  1  0  0  0  0
  7  3  1  0  0  0  0
  8 12  1  0  0  0  0
  9 27  1  1  0  0  0
 10 17  1  0  0  0  0
 11 20  1  0  0  0  0
 13 24  1  6  0  0  0
 13  9  1  0  0  0  0
 13 20  1  0  0  0  0
 14  2  1  0  0  0  0
 15  4  1  0  0  0  0
 15 12  1  1  0  0  0
 16  8  2  0  0  0  0
 17 28  1  6  0  0  0
 17 25  1  0  0  0  0
 18  1  2  0  0  0  0
 18  4  1  0  0  0  0
 19  3  1  0  0  0  0
 19  5  1  0  0  0  0
 20 18  1  0  0  0  0
 22 10  2  0  0  0  0
 22 24  1  0  0  0  0
 23 21  1  0  0  0  0
 25  9  1  0  0  0  0
 25 14  1  0  0  0  0
 26 21  2  0  0  0  0
 27  2  1  0  0  0  0
 27  1  1  0  0  0  0
 29 28  1  0  0  0  0
 30 34  1  0  0  0  0
 31 32  1  0  0  0  0
 32 29  1  0  0  0  0
 33 30  1  0  0  0  0
 33 31  1  0  0  0  0
 34 32  1  0  0  0  0
M  END
>  <MODEL>
8

>  <REMARK>
 VINA RESULT:      -8.5      3.032      5.232
  Name = 
  3 active torsions:
  status: ('A' for Active; 'I' for Inactive)
    1  A    between atoms: C_17  and  O_28
    2  A    between atoms: O_28  and  C_29
    3  A    between atoms: C_29  and  C_32
                            x       y       z     vdW  Elec       q    Type
                         _______ _______ _______ _____ _____    ______ ____

>  <TORSDO>
F 3

$$$$
=
 OpenBabel11122412033D

 34 42  0  0  1  0  0  0  0  0999 V2000
  188.2950  177.9140  138.7970 C   0  0  0  0  0  0  0  0  0  0  0  0
  186.6750  178.3690  140.7010 C   0  0  0  0  0  2  0  0  0  0  0  0
  193.8390  175.1150  136.3820 C   0  0  1  0  0  0  0  0  0  0  0  0
  189.8240  177.1060  137.1230 C   0  0  0  0  0  0  0  0  0  0  0  0
  191.7120  175.6750  137.8440 C   0  0  1  0  0  3  0  0  0  0  0  0
  194.1020  174.3990  138.1460 C   0  0  1  0  0  3  0  0  0  0  0  0
  194.9040  174.4140  137.0340 O   0  0  0  0  0  0  0  0  0  0  0  0
  192.4270  176.0330  134.5960 C   0  0  0  0  0  3  0  0  0  0  0  0
  189.0460  178.3370  141.1680 C   0  0  2  0  0  3  0  0  0  0  0  0
  189.7260  176.5720  143.7960 C   0  0  0  0  0  3  0  0  0  0  0  0
  191.7840  176.3800  139.2070 C   0  0  0  0  0  2  0  0  0  0  0  0
  191.1510  175.8860  135.3800 C   0  0  0  0  0  2  0  0  0  0  0  0
  190.1310  177.2750  140.9210 C   0  0  1  0  0  3  0  0  0  0  0  0
  186.8670  178.6130  142.1890 C   0  0  0  0  0  2  0  0  0  0  0  0
  191.1920  176.6120  136.7330 C   0  0  1  0  0  3  0  0  0  0  0  0
  193.6300  175.6470  135.0330 C   0  0  0  0  0  3  0  0  0  0  0  0
  188.3990  176.8310  143.1260 C   0  0  2  0  0  3  0  0  0  0  0  0
  189.5760  177.4570  138.4560 C   0  0  0  0  0  0  0  0  0  0  0  0
  193.0660  175.1360  137.5100 C   0  0  1  0  0  3  0  0  0  0  0  0
  190.6830  177.4210  139.4920 C   0  0  2  0  0  3  0  0  0  0  0  0
  187.5930  177.6720  136.5520 C   0  0  0  0  0  3  0  0  0  0  0  0
  190.9400  176.8100  143.2730 C   0  0  0  0  0  3  0  0  0  0  0  0
  188.8300  177.2350  136.1990 N   0  0  0  0  0  0  0  0  0  0  0  0
  191.2360  177.4700  141.9510 C   0  0  0  0  0  2  0  0  0  0  0  0
  188.3180  178.2420  142.5170 C   0  0  1  0  0  3  0  0  0  0  0  0
  187.3300  178.0020  137.8430 N   0  0  0  0  0  0  0  0  0  0  0  0
  188.0100  178.2610  140.1570 N   0  0  0  0  0  0  0  0  0  0  0  0
  187.3800  176.6310  144.0640 O   0  0  0  0  0  0  0  0  0  0  0  0
  187.7850  177.3510  145.1920 C   0  0  0  0  0  2  0  0  0  0  0  0
  186.8700  179.2350  147.6400 O   0  0  0  0  0  0  0  0  0  0  0  0
  185.6910  178.4700  145.8600 C   0  0  0  0  0  2  0  0  0  0  0  0
  186.6620  177.3880  146.2130 C   0  0  2  0  0  3  0  0  0  0  0  0
  185.6770  179.3770  146.9960 N   0  0  0  0  0  2  0  0  0  0  0  0
  187.1990  177.8740  147.5270 C   0  0  0  0  0  2  0  0  0  0  0  0
  1 27  1  0  0  0  0
  2 14  1  0  0  0  0
  3 16  1  6  0  0  0
  3  7  1  0  0  0  0
  3 19  1  0  0  0  0
  3  6  1  0  0  0  0
  4 18  2  0  0  0  0
  5 11  1  1  0  0  0
  6  7  1  1  0  0  0
  8 16  2  0  0  0  0
  8 12  1  0  0  0  0
  9 27  1  6  0  0  0
  9 25  1  0  0  0  0
 11 20  1  0  0  0  0
 13  9  1  0  0  0  0
 13 24  1  1  0  0  0
 14 25  1  0  0  0  0
 15 12  1  6  0  0  0
 15  4  1  0  0  0  0
 15  5  1  0  0  0  0
 17 10  1  0  0  0  0
 17 28  1  1  0  0  0
 18  1  1  0  0  0  0
 18 20  1  0  0  0  0
 19  5  1  0  0  0  0
 19  6  1  0  0  0  0
 20 13  1  0  0  0  0
 21 26  1  0  0  0  0
 22 10  2  0  0  0  0
 23 21  2  0  0  0  0
 23  4  1  0  0  0  0
 24 22  1  0  0  0  0
 25 17  1  0  0  0  0
 26  1  2  0  0  0  0
 27  2  1  0  0  0  0
 28 29  1  0  0  0  0
 29 32  1  0  0  0  0
 31 32  1  0  0  0  0
 31 33  1  0  0  0  0
 32 34  1  0  0  0  0
 33 30  1  0  0  0  0
 34 30  1  0  0  0  0
M  END
>  <MODEL>
9

>  <REMARK>
 VINA RESULT:      -8.4      3.876      7.711
  Name = 
  3 active torsions:
  status: ('A' for Active; 'I' for Inactive)
    1  A    between atoms: C_17  and  O_28
    2  A    between atoms: O_28  and  C_29
    3  A    between atoms: C_29  and  C_32
                            x       y       z     vdW  Elec       q    Type
                         _______ _______ _______ _____ _____    ______ ____

>  <TORSDO>
F 3

$$$$
