=
 OpenBabel11122410323D

 30 35  0  0  1  0  0  0  0  0999 V2000
  189.2420  177.5400  143.2170 C   0  0  2  0  0  3  0  0  0  0  0  0
  191.2650  176.9430  144.6280 C   0  0  2  0  0  3  0  0  0  0  0  0
  186.7540  177.9070  146.6750 N   0  0  0  0  0  2  0  0  0  0  0  0
  187.7040  177.6890  143.1060 C   0  0  2  0  0  3  0  0  0  0  0  0
  189.7420  176.7690  141.9970 C   0  0  0  0  0  2  0  0  0  0  0  0
  187.4370  178.0550  139.5900 O   0  0  0  0  0  0  0  0  0  0  0  0
  184.9470  177.9120  142.2410 C   0  0  1  0  0  3  0  0  0  0  0  0
  188.0420  178.0320  140.6530 C   0  0  0  0  0  0  0  0  0  0  0  0
  184.6270  178.0860  143.7190 C   0  0  2  0  0  3  0  0  0  0  0  0
  185.6090  178.4220  146.0070 C   0  0  0  0  0  0  0  0  0  0  0  0
  189.4790  177.5590  140.7120 C   0  0  2  0  0  3  0  0  0  0  0  0
  187.4230  178.6100  141.9080 C   0  0  1  0  0  3  0  0  0  0  0  0
  191.7760  176.1610  145.8340 C   0  0  0  0  0  2  0  0  0  0  0  0
  183.4780  179.0720  143.7640 C   0  0  0  0  0  2  0  0  0  0  0  0
  183.6130  178.0870  141.5290 C   0  0  0  0  0  2  0  0  0  0  0  0
  191.7200  178.2650  144.6710 O   0  0  0  0  0  1  0  0  0  0  0  0
  187.5740  177.4250  145.5790 C   0  0  1  0  0  3  0  0  0  0  0  0
  191.2180  176.9090  147.4020 S   0  0  0  0  0  0  0  0  0  0  0  0
  189.7350  176.8870  144.5330 C   0  0  1  0  0  3  0  0  0  0  0  0
  187.1800  178.2950  144.4060 C   0  0  2  0  0  3  0  0  0  0  0  0
  184.5600  178.7520  146.6230 O   0  0  0  0  0  0  0  0  0  0  0  0
  185.7390  178.5060  144.5890 N   0  0  0  0  0  0  0  0  0  0  0  0
  182.6880  178.8200  142.4940 C   0  0  0  0  0  2  0  0  0  0  0  0
  185.6180  179.9880  141.2890 O   0  0  0  0  0  0  0  0  0  0  0  0
  189.4550  176.6770  147.0170 C   0  0  0  0  0  2  0  0  0  0  0  0
  189.0710  177.4950  145.7900 C   0  0  2  0  0  3  0  0  0  0  0  0
  185.9620  178.9110  141.7540 C   0  0  0  0  0  0  0  0  0  0  0  0
  189.8500  176.7100  139.5040 C   0  0  0  0  0  2  0  0  0  0  0  0
  191.5680  175.4120  138.0230 C   0  0  0  0  0  1  0  0  0  0  0  0
  191.6400  176.7880  139.2030 S   0  0  0  0  0  0  0  0  0  0  0  0
  1  5  1  6  0  0  0
  1 19  1  0  0  0  0
  2 16  1  1  0  0  0
  2 13  1  0  0  0  0
  4  1  1  0  0  0  0
  4 20  1  0  0  0  0
  6  8  2  0  0  0  0
  7  9  1  0  0  0  0
  8 11  1  0  0  0  0
  8 12  1  0  0  0  0
  9 14  1  0  0  0  0
  9 22  1  0  0  0  0
 10 21  2  0  0  0  0
 10  3  1  0  0  0  0
 11  5  1  0  0  0  0
 12  4  1  0  0  0  0
 13 18  1  0  0  0  0
 15  7  1  0  0  0  0
 15 23  1  0  0  0  0
 17 26  1  0  0  0  0
 17  3  1  0  0  0  0
 19  2  1  0  0  0  0
 19 26  1  0  0  0  0
 20 22  1  0  0  0  0
 20 17  1  0  0  0  0
 22 10  1  0  0  0  0
 23 14  1  0  0  0  0
 24 27  2  0  0  0  0
 25 18  1  0  0  0  0
 26 25  1  0  0  0  0
 27 12  1  0  0  0  0
 27  7  1  0  0  0  0
 28 11  1  0  0  0  0
 29 30  1  0  0  0  0
 30 28  1  0  0  0  0
M  END
>  <MODEL>
1

>  <REMARK>
 VINA RESULT:     -10.5      0.000      0.000
  Name = 
  2 active torsions:
  status: ('A' for Active; 'I' for Inactive)
    1  A    between atoms: C_11  and  C_28
    2  A    between atoms: C_28  and  S_30
                            x       y       z     vdW  Elec       q    Type
                         _______ _______ _______ _____ _____    ______ ____

>  <TORSDO>
F 2

$$$$
=
 OpenBabel11122410323D

 30 35  0  0  1  0  0  0  0  0999 V2000
  188.4960  177.8620  142.8610 C   0  0  2  0  0  3  0  0  0  0  0  0
  190.3850  177.4700  144.5100 C   0  0  2  0  0  3  0  0  0  0  0  0
  185.6250  178.2300  146.0090 N   0  0  0  0  0  2  0  0  0  0  0  0
  186.9730  177.9030  142.5790 C   0  0  2  0  0  3  0  0  0  0  0  0
  189.1730  177.0680  141.7460 C   0  0  0  0  0  2  0  0  0  0  0  0
  187.0720  178.0800  139.0390 O   0  0  0  0  0  0  0  0  0  0  0  0
  184.3190  177.9000  141.4150 C   0  0  1  0  0  3  0  0  0  0  0  0
  187.5560  178.1490  140.1610 C   0  0  0  0  0  0  0  0  0  0  0  0
  183.8290  178.1230  142.8390 C   0  0  2  0  0  3  0  0  0  0  0  0
  184.5320  178.6340  145.1960 C   0  0  0  0  0  0  0  0  0  0  0  0
  189.0050  177.7760  140.3980 C   0  0  2  0  0  3  0  0  0  0  0  0
  186.7700  178.7440  141.3090 C   0  0  1  0  0  3  0  0  0  0  0  0
  190.8070  176.7830  145.8040 C   0  0  0  0  0  2  0  0  0  0  0  0
  182.6250  179.0320  142.7060 C   0  0  0  0  0  2  0  0  0  0  0  0
  183.0630  177.9510  140.5570 C   0  0  0  0  0  2  0  0  0  0  0  0
  190.7510  178.8190  144.5280 O   0  0  0  0  0  1  0  0  0  0  0  0
  186.5890  177.7510  145.0350 C   0  0  1  0  0  3  0  0  0  0  0  0
  190.0360  177.5670  147.2610 S   0  0  0  0  0  0  0  0  0  0  0  0
  188.8800  177.3080  144.2560 C   0  0  1  0  0  3  0  0  0  0  0  0
  186.2740  178.5350  143.7810 C   0  0  2  0  0  3  0  0  0  0  0  0
  183.4040  178.9230  145.6780 O   0  0  0  0  0  0  0  0  0  0  0  0
  184.8110  178.6580  143.7970 N   0  0  0  0  0  0  0  0  0  0  0  0
  181.9950  178.6670  141.3760 C   0  0  0  0  0  2  0  0  0  0  0  0
  184.9630  179.9670  140.4260 O   0  0  0  0  0  0  0  0  0  0  0  0
  188.3430  177.2000  146.7050 C   0  0  0  0  0  2  0  0  0  0  0  0
  188.0470  177.9300  145.4000 C   0  0  2  0  0  3  0  0  0  0  0  0
  185.3190  178.9400  140.9840 C   0  0  0  0  0  0  0  0  0  0  0  0
  189.5570  176.8960  139.2850 C   0  0  0  0  0  2  0  0  0  0  0  0
  191.4650  175.7140  137.9470 C   0  0  0  0  0  1  0  0  0  0  0  0
  191.3720  176.8480  139.3600 S   0  0  0  0  0  0  0  0  0  0  0  0
  1  5  1  6  0  0  0
  1 19  1  0  0  0  0
  2 16  1  1  0  0  0
  2 13  1  0  0  0  0
  4  1  1  0  0  0  0
  4 20  1  0  0  0  0
  6  8  2  0  0  0  0
  7  9  1  0  0  0  0
  8 11  1  0  0  0  0
  8 12  1  0  0  0  0
  9 22  1  0  0  0  0
 10 21  2  0  0  0  0
 10  3  1  0  0  0  0
 11  5  1  0  0  0  0
 12  4  1  0  0  0  0
 13 18  1  0  0  0  0
 14  9  1  0  0  0  0
 15 23  1  0  0  0  0
 15  7  1  0  0  0  0
 17 26  1  0  0  0  0
 17  3  1  0  0  0  0
 19  2  1  0  0  0  0
 19 26  1  0  0  0  0
 20 22  1  0  0  0  0
 20 17  1  0  0  0  0
 22 10  1  0  0  0  0
 23 14  1  0  0  0  0
 24 27  2  0  0  0  0
 25 18  1  0  0  0  0
 26 25  1  0  0  0  0
 27 12  1  0  0  0  0
 27  7  1  0  0  0  0
 28 30  1  0  0  0  0
 28 11  1  0  0  0  0
 29 30  1  0  0  0  0
M  END
>  <MODEL>
2

>  <REMARK>
 VINA RESULT:      -9.7      0.996      1.060
  Name = 
  2 active torsions:
  status: ('A' for Active; 'I' for Inactive)
    1  A    between atoms: C_11  and  C_28
    2  A    between atoms: C_28  and  S_30
                            x       y       z     vdW  Elec       q    Type
                         _______ _______ _______ _____ _____    ______ ____

>  <TORSDO>
F 2

$$$$
=
 OpenBabel11122410323D

 30 35  0  0  1  0  0  0  0  0999 V2000
  186.4750  178.0420  141.9400 C   0  0  2  0  0  3  0  0  0  0  0  0
  184.0630  178.6630  141.4530 C   0  0  2  0  0  3  0  0  0  0  0  0
  185.7900  178.0920  146.1610 N   0  0  0  0  0  2  0  0  0  0  0  0
  187.6390  177.9560  142.9590 C   0  0  2  0  0  3  0  0  0  0  0  0
  187.0020  178.6800  140.6570 C   0  0  0  0  0  2  0  0  0  0  0  0
  190.2960  177.2990  140.7060 O   0  0  0  0  0  0  0  0  0  0  0  0
  190.1960  177.7870  144.3120 C   0  0  1  0  0  3  0  0  0  0  0  0
  189.1190  177.3860  141.0270 C   0  0  0  0  0  0  0  0  0  0  0  0
  189.3760  177.7570  145.5950 C   0  0  2  0  0  3  0  0  0  0  0  0
  187.0580  177.5750  146.5460 C   0  0  0  0  0  0  0  0  0  0  0  0
  188.0720  177.7940  140.0120 C   0  0  2  0  0  3  0  0  0  0  0  0
  188.6560  176.9480  142.4010 C   0  0  1  0  0  3  0  0  0  0  0  0
  182.8730  179.5220  141.8680 C   0  0  0  0  0  2  0  0  0  0  0  0
  190.1310  176.8340  146.5270 C   0  0  0  0  0  2  0  0  0  0  0  0
  191.6380  177.6140  144.7670 C   0  0  0  0  0  2  0  0  0  0  0  0
  183.6730  177.3310  141.2880 O   0  0  0  0  0  1  0  0  0  0  0  0
  185.9950  178.4380  144.7670 C   0  0  1  0  0  3  0  0  0  0  0  0
  182.1420  178.9390  143.4360 S   0  0  0  0  0  0  0  0  0  0  0  0
  185.2160  178.7820  142.4590 C   0  0  1  0  0  3  0  0  0  0  0  0
  187.0760  177.4900  144.3000 C   0  0  2  0  0  3  0  0  0  0  0  0
  187.3570  177.3490  147.7480 O   0  0  0  0  0  0  0  0  0  0  0  0
  187.9630  177.3630  145.4630 N   0  0  0  0  0  0  0  0  0  0  0  0
  191.5930  177.0110  146.1660 C   0  0  0  0  0  2  0  0  0  0  0  0
  190.3330  175.6080  143.3650 O   0  0  0  0  0  0  0  0  0  0  0  0
  183.6690  179.2190  144.3850 C   0  0  0  0  0  2  0  0  0  0  0  0
  184.7830  178.3170  143.8680 C   0  0  2  0  0  3  0  0  0  0  0  0
  189.7920  176.7040  143.3490 C   0  0  0  0  0  0  0  0  0  0  0  0
  188.6850  178.5170  138.8200 C   0  0  0  0  0  2  0  0  0  0  0  0
  187.9060  176.3680  137.5550 C   0  0  0  0  0  1  0  0  0  0  0  0
  187.7410  178.1570  137.3100 S   0  0  0  0  0  0  0  0  0  0  0  0
  1  5  1  6  0  0  0
  1 19  1  0  0  0  0
  1  4  1  0  0  0  0
  2 16  1  1  0  0  0
  2 13  1  0  0  0  0
  2 19  1  0  0  0  0
  3 10  1  0  0  0  0
  4 20  1  0  0  0  0
  6  8  2  0  0  0  0
  7 15  1  0  0  0  0
  7  9  1  0  0  0  0
  8 12  1  0  0  0  0
  9 14  1  0  0  0  0
 10 21  2  0  0  0  0
 11  5  1  0  0  0  0
 11  8  1  0  0  0  0
 12  4  1  0  0  0  0
 12 27  1  0  0  0  0
 13 18  1  0  0  0  0
 15 23  1  0  0  0  0
 17  3  1  0  0  0  0
 18 25  1  0  0  0  0
 19 26  1  0  0  0  0
 20 17  1  0  0  0  0
 20 22  1  0  0  0  0
 22  9  1  0  0  0  0
 22 10  1  0  0  0  0
 23 14  1  0  0  0  0
 26 25  1  0  0  0  0
 26 17  1  0  0  0  0
 27 24  2  0  0  0  0
 27  7  1  0  0  0  0
 28 11  1  0  0  0  0
 30 29  1  0  0  0  0
 30 28  1  0  0  0  0
M  END
>  <MODEL>
3

>  <REMARK>
 VINA RESULT:      -9.5      2.599      5.511
  Name = 
  2 active torsions:
  status: ('A' for Active; 'I' for Inactive)
    1  A    between atoms: C_11  and  C_28
    2  A    between atoms: C_28  and  S_30
                            x       y       z     vdW  Elec       q    Type
                         _______ _______ _______ _____ _____    ______ ____

>  <TORSDO>
F 2

$$$$
=
 OpenBabel11122410323D

 30 35  0  0  1  0  0  0  0  0999 V2000
  189.4260  177.3100  142.3960 C   0  0  2  0  0  3  0  0  0  0  0  0
  190.8250  177.1690  140.2820 C   0  0  2  0  0  3  0  0  0  0  0  0
  186.0160  178.7020  140.2230 N   0  0  0  0  0  2  0  0  0  0  0  0
  188.1640  177.8500  143.1120 C   0  0  2  0  0  3  0  0  0  0  0  0
  190.6350  177.5500  143.2970 C   0  0  0  0  0  2  0  0  0  0  0  0
  189.0380  177.0400  146.4520 O   0  0  0  0  0  0  0  0  0  0  0  0
  186.1620  178.7420  145.0090 C   0  0  1  0  0  3  0  0  0  0  0  0
  189.1510  176.9730  145.2360 C   0  0  0  0  0  0  0  0  0  0  0  0
  185.2910  178.9890  143.7850 C   0  0  2  0  0  3  0  0  0  0  0  0
  185.0930  178.6490  141.3030 C   0  0  0  0  0  0  0  0  0  0  0  0
  190.5070  176.7530  144.5990 C   0  0  2  0  0  3  0  0  0  0  0  0
  187.9270  176.9610  144.3440 C   0  0  1  0  0  3  0  0  0  0  0  0
  191.1760  177.8340  138.9550 C   0  0  0  0  0  2  0  0  0  0  0  0
  183.8830  178.6470  144.2240 C   0  0  0  0  0  2  0  0  0  0  0  0
  185.2660  179.0640  146.1960 C   0  0  0  0  0  2  0  0  0  0  0  0
  190.5390  175.8140  140.0920 O   0  0  0  0  0  1  0  0  0  0  0  0
  187.2980  178.5670  140.8900 C   0  0  1  0  0  3  0  0  0  0  0  0
  189.8060  177.7000  137.7560 S   0  0  0  0  0  0  0  0  0  0  0  0
  189.6610  177.8890  140.9770 C   0  0  1  0  0  3  0  0  0  0  0  0
  186.9870  177.7780  142.1430 C   0  0  2  0  0  3  0  0  0  0  0  0
  183.8740  178.9370  141.1630 O   0  0  0  0  0  0  0  0  0  0  0  0
  185.6670  178.2710  142.5540 N   0  0  0  0  0  0  0  0  0  0  0  0
  183.8270  179.0030  145.6970 C   0  0  0  0  0  2  0  0  0  0  0  0
  186.0440  176.4560  145.6620 O   0  0  0  0  0  0  0  0  0  0  0  0
  188.6450  178.6280  138.8060 C   0  0  0  0  0  2  0  0  0  0  0  0
  188.3860  177.8700  140.1020 C   0  0  2  0  0  3  0  0  0  0  0  0
  186.6690  177.3260  145.0740 C   0  0  0  0  0  0  0  0  0  0  0  0
  191.6460  177.1220  145.5390 C   0  0  0  0  0  2  0  0  0  0  0  0
  192.0520  176.7390  148.0920 C   0  0  0  0  0  1  0  0  0  0  0  0
  192.0730  175.7100  146.5990 S   0  0  0  0  0  0  0  0  0  0  0  0
  1  4  1  0  0  0  0
  1  5  1  1  0  0  0
  2 16  1  6  0  0  0
  2 19  1  0  0  0  0
  3 17  1  0  0  0  0
  3 10  1  0  0  0  0
  4 12  1  0  0  0  0
  5 11  1  0  0  0  0
  7 27  1  0  0  0  0
  7 15  1  0  0  0  0
  8  6  2  0  0  0  0
  9 14  1  0  0  0  0
  9  7  1  0  0  0  0
 10 22  1  0  0  0  0
 11  8  1  0  0  0  0
 11 28  1  0  0  0  0
 12 27  1  0  0  0  0
 12  8  1  0  0  0  0
 13  2  1  0  0  0  0
 14 23  1  0  0  0  0
 17 20  1  0  0  0  0
 18 25  1  0  0  0  0
 18 13  1  0  0  0  0
 19  1  1  0  0  0  0
 20 22  1  0  0  0  0
 20  4  1  0  0  0  0
 21 10  2  0  0  0  0
 22  9  1  0  0  0  0
 23 15  1  0  0  0  0
 25 26  1  0  0  0  0
 26 17  1  0  0  0  0
 26 19  1  0  0  0  0
 27 24  2  0  0  0  0
 28 30  1  0  0  0  0
 30 29  1  0  0  0  0
M  END
>  <MODEL>
4

>  <REMARK>
 VINA RESULT:      -8.5      1.874      5.286
  Name = 
  2 active torsions:
  status: ('A' for Active; 'I' for Inactive)
    1  A    between atoms: C_11  and  C_28
    2  A    between atoms: C_28  and  S_30
                            x       y       z     vdW  Elec       q    Type
                         _______ _______ _______ _____ _____    ______ ____

>  <TORSDO>
F 2

$$$$
=
 OpenBabel11122410323D

 30 35  0  0  1  0  0  0  0  0999 V2000
  184.6960  178.7570  141.7090 C   0  0  2  0  0  3  0  0  0  0  0  0
  184.4350  178.8570  139.1870 C   0  0  2  0  0  3  0  0  0  0  0  0
  188.8510  177.7970  141.3890 N   0  0  0  0  0  2  0  0  0  0  0  0
  185.5290  178.3080  142.9350 C   0  0  2  0  0  3  0  0  0  0  0  0
  183.2400  178.3610  141.9430 C   0  0  0  0  0  2  0  0  0  0  0  0
  183.1230  178.8810  145.4760 O   0  0  0  0  0  0  0  0  0  0  0  0
  186.5020  177.5290  145.5520 C   0  0  1  0  0  3  0  0  0  0  0  0
  183.5820  178.9910  144.3470 C   0  0  0  0  0  0  0  0  0  0  0  0
  187.8630  177.4220  144.8780 C   0  0  2  0  0  3  0  0  0  0  0  0
  189.1550  177.8890  142.7740 C   0  0  0  0  0  0  0  0  0  0  0  0
  182.6630  179.1080  143.1490 C   0  0  2  0  0  3  0  0  0  0  0  0
  185.0710  179.1600  144.1300 C   0  0  1  0  0  3  0  0  0  0  0  0
  184.8130  178.2220  137.8530 C   0  0  0  0  0  2  0  0  0  0  0  0
  188.8600  177.8770  145.9220 C   0  0  0  0  0  2  0  0  0  0  0  0
  186.7710  177.2410  147.0220 C   0  0  0  0  0  2  0  0  0  0  0  0
  184.6320  180.2410  139.1450 O   0  0  0  0  0  1  0  0  0  0  0  0
  187.3990  177.7780  141.3790 C   0  0  1  0  0  3  0  0  0  0  0  0
  186.5600  178.5400  137.4320 S   0  0  0  0  0  0  0  0  0  0  0  0
  185.2100  178.2220  140.3480 C   0  0  1  0  0  3  0  0  0  0  0  0
  187.0070  178.5360  142.6280 C   0  0  2  0  0  3  0  0  0  0  0  0
  190.3210  177.7260  143.2210 O   0  0  0  0  0  0  0  0  0  0  0  0
  188.0290  178.1540  143.6100 N   0  0  0  0  0  0  0  0  0  0  0  0
  188.2610  177.4620  147.2520 C   0  0  0  0  0  2  0  0  0  0  0  0
  186.0600  179.7840  146.1730 O   0  0  0  0  0  0  0  0  0  0  0  0
  187.1910  177.6810  138.9070 C   0  0  0  0  0  2  0  0  0  0  0  0
  186.7360  178.4010  140.1700 C   0  0  2  0  0  3  0  0  0  0  0  0
  185.8760  178.8850  145.3650 C   0  0  0  0  0  0  0  0  0  0  0  0
  181.2640  178.5900  143.4510 C   0  0  0  0  0  2  0  0  0  0  0  0
  178.9360  179.3580  144.3560 C   0  0  0  0  0  1  0  0  0  0  0  0
  180.0170  179.8230  142.9760 S   0  0  0  0  0  0  0  0  0  0  0  0
  1  5  1  1  0  0  0
  1  4  1  0  0  0  0
  2 16  1  6  0  0  0
  2 19  1  0  0  0  0
  3 10  1  0  0  0  0
  4 12  1  0  0  0  0
  5 11  1  0  0  0  0
  7 15  1  0  0  0  0
  8  6  2  0  0  0  0
  9  7  1  0  0  0  0
  9 14  1  0  0  0  0
 10 21  2  0  0  0  0
 10 22  1  0  0  0  0
 11 28  1  0  0  0  0
 11  8  1  0  0  0  0
 12  8  1  0  0  0  0
 12 27  1  0  0  0  0
 13  2  1  0  0  0  0
 14 23  1  0  0  0  0
 15 23  1  0  0  0  0
 17  3  1  0  0  0  0
 17 20  1  0  0  0  0
 18 13  1  0  0  0  0
 18 25  1  0  0  0  0
 19  1  1  0  0  0  0
 20  4  1  0  0  0  0
 20 22  1  0  0  0  0
 22  9  1  0  0  0  0
 25 26  1  0  0  0  0
 26 19  1  0  0  0  0
 26 17  1  0  0  0  0
 27  7  1  0  0  0  0
 27 24  2  0  0  0  0
 30 28  1  0  0  0  0
 30 29  1  0  0  0  0
M  END
>  <MODEL>
5

>  <REMARK>
 VINA RESULT:      -8.5      3.136      7.240
  Name = 
  2 active torsions:
  status: ('A' for Active; 'I' for Inactive)
    1  A    between atoms: C_11  and  C_28
    2  A    between atoms: C_28  and  S_30
                            x       y       z     vdW  Elec       q    Type
                         _______ _______ _______ _____ _____    ______ ____

>  <TORSDO>
F 2

$$$$
=
 OpenBabel11122410323D

 30 35  0  0  1  0  0  0  0  0999 V2000
  186.1080  178.3060  144.0310 C   0  0  2  0  0  3  0  0  0  0  0  0
  183.6720  178.7910  144.5510 C   0  0  2  0  0  3  0  0  0  0  0  0
  185.4260  178.6260  139.8210 N   0  0  0  0  0  2  0  0  0  0  0  0
  187.1820  177.8920  142.9930 C   0  0  2  0  0  3  0  0  0  0  0  0
  186.3170  177.4820  145.2980 C   0  0  0  0  0  2  0  0  0  0  0  0
  189.8830  177.2880  145.2100 O   0  0  0  0  0  0  0  0  0  0  0  0
  189.5430  176.9490  141.6010 C   0  0  1  0  0  3  0  0  0  0  0  0
  188.7830  177.7280  144.9070 C   0  0  0  0  0  0  0  0  0  0  0  0
  188.8050  177.3540  140.3330 C   0  0  2  0  0  3  0  0  0  0  0  0
  186.7880  178.5440  139.4210 C   0  0  0  0  0  0  0  0  0  0  0  0
  187.6730  177.8010  145.9350 C   0  0  2  0  0  3  0  0  0  0  0  0
  188.5430  178.3460  143.5450 C   0  0  1  0  0  3  0  0  0  0  0  0
  182.2220  178.5440  144.1470 C   0  0  0  0  0  2  0  0  0  0  0  0
  189.8770  177.8710  139.3970 C   0  0  0  0  0  2  0  0  0  0  0  0
  190.9110  176.4840  141.1250 C   0  0  0  0  0  2  0  0  0  0  0  0
  183.9040  180.1570  144.7350 O   0  0  0  0  0  1  0  0  0  0  0  0
  185.4740  178.2030  141.2090 C   0  0  1  0  0  3  0  0  0  0  0  0
  181.8020  179.4110  142.5960 S   0  0  0  0  0  0  0  0  0  0  0  0
  184.6470  178.1970  143.5260 C   0  0  1  0  0  3  0  0  0  0  0  0
  186.8650  178.5780  141.6670 C   0  0  2  0  0  3  0  0  0  0  0  0
  187.1440  178.6360  138.2160 O   0  0  0  0  0  0  0  0  0  0  0  0
  187.7060  178.3240  140.4900 N   0  0  0  0  0  0  0  0  0  0  0  0
  191.1190  177.0680  139.7330 C   0  0  0  0  0  2  0  0  0  0  0  0
  190.6270  178.8360  142.5670 O   0  0  0  0  0  0  0  0  0  0  0  0
  183.0440  178.5080  141.6210 C   0  0  0  0  0  2  0  0  0  0  0  0
  184.4450  178.8270  142.1280 C   0  0  2  0  0  3  0  0  0  0  0  0
  189.6620  178.0860  142.5810 C   0  0  0  0  0  0  0  0  0  0  0  0
  187.9210  176.8650  147.1090 C   0  0  0  0  0  2  0  0  0  0  0  0
  189.6340  178.2370  148.5270 C   0  0  0  0  0  1  0  0  0  0  0  0
  187.8830  177.7890  148.6730 S   0  0  0  0  0  0  0  0  0  0  0  0
  1  5  1  1  0  0  0
  2 16  1  6  0  0  0
  3 17  1  0  0  0  0
  4 12  1  0  0  0  0
  4  1  1  0  0  0  0
  5 11  1  0  0  0  0
  7 27  1  0  0  0  0
  8  6  2  0  0  0  0
  8 11  1  0  0  0  0
  9 22  1  0  0  0  0
  9  7  1  0  0  0  0
 10  3  1  0  0  0  0
 10 22  1  0  0  0  0
 11 28  1  0  0  0  0
 12  8  1  0  0  0  0
 13  2  1  0  0  0  0
 14 23  1  0  0  0  0
 14  9  1  0  0  0  0
 15  7  1  0  0  0  0
 17 20  1  0  0  0  0
 17 26  1  0  0  0  0
 18 13  1  0  0  0  0
 19  1  1  0  0  0  0
 19  2  1  0  0  0  0
 20  4  1  0  0  0  0
 21 10  2  0  0  0  0
 22 20  1  0  0  0  0
 23 15  1  0  0  0  0
 24 27  2  0  0  0  0
 25 26  1  0  0  0  0
 25 18  1  0  0  0  0
 26 19  1  0  0  0  0
 27 12  1  0  0  0  0
 28 30  1  0  0  0  0
 29 30  1  0  0  0  0
M  END
>  <MODEL>
6

>  <REMARK>
 VINA RESULT:      -8.3      2.873      6.868
  Name = 
  2 active torsions:
  status: ('A' for Active; 'I' for Inactive)
    1  A    between atoms: C_11  and  C_28
    2  A    between atoms: C_28  and  S_30
                            x       y       z     vdW  Elec       q    Type
                         _______ _______ _______ _____ _____    ______ ____

>  <TORSDO>
F 2

$$$$
=
 OpenBabel11122410323D

 30 35  0  0  1  0  0  0  0  0999 V2000
  187.5410  178.0350  144.6800 C   0  0  2  0  0  3  0  0  0  0  0  0
  185.3670  178.5090  145.9010 C   0  0  2  0  0  3  0  0  0  0  0  0
  185.7030  178.6400  140.8660 N   0  0  0  0  0  2  0  0  0  0  0  0
  188.2650  177.6800  143.3570 C   0  0  2  0  0  3  0  0  0  0  0  0
  188.0780  177.1270  145.7830 C   0  0  0  0  0  2  0  0  0  0  0  0
  191.4650  176.9050  144.6710 O   0  0  0  0  0  0  0  0  0  0  0  0
  190.1060  176.8090  141.2950 C   0  0  1  0  0  3  0  0  0  0  0  0
  190.3370  177.3750  144.7220 C   0  0  0  0  0  0  0  0  0  0  0  0
  189.0500  177.3040  140.3170 C   0  0  2  0  0  3  0  0  0  0  0  0
  186.8920  178.5710  140.0910 C   0  0  0  0  0  0  0  0  0  0  0  0
  189.5670  177.3900  146.0250 C   0  0  2  0  0  3  0  0  0  0  0  0
  189.7390  178.0830  143.5250 C   0  0  1  0  0  3  0  0  0  0  0  0
  183.8560  178.3030  145.9120 C   0  0  0  0  0  2  0  0  0  0  0  0
  189.8270  177.8710  139.1470 C   0  0  0  0  0  2  0  0  0  0  0  0
  191.2690  176.3620  140.4220 C   0  0  0  0  0  2  0  0  0  0  0  0
  185.6810  179.8570  146.0940 O   0  0  0  0  0  1  0  0  0  0  0  0
  186.1300  178.1260  142.1550 C   0  0  1  0  0  3  0  0  0  0  0  0
  183.0380  179.2750  144.6020 S   0  0  0  0  0  0  0  0  0  0  0  0
  185.9940  177.9740  144.6070 C   0  0  1  0  0  3  0  0  0  0  0  0
  187.6040  178.4550  142.2190 C   0  0  2  0  0  3  0  0  0  0  0  0
  186.8940  178.7390  138.8420 O   0  0  0  0  0  0  0  0  0  0  0  0
  188.0700  178.2720  140.8390 N   0  0  0  0  0  0  0  0  0  0  0  0
  191.0900  177.0350  139.0660 C   0  0  0  0  0  2  0  0  0  0  0  0
  191.4720  178.6160  142.0250 O   0  0  0  0  0  0  0  0  0  0  0  0
  183.9270  178.4270  143.2590 C   0  0  0  0  0  2  0  0  0  0  0  0
  185.4220  178.6970  143.3650 C   0  0  2  0  0  3  0  0  0  0  0  0
  190.5300  177.8760  142.2680 C   0  0  0  0  0  0  0  0  0  0  0  0
  190.1110  176.3760  147.0220 C   0  0  0  0  0  2  0  0  0  0  0  0
  192.4980  175.6270  147.7780 C   0  0  0  0  0  1  0  0  0  0  0  0
  191.4670  177.1040  147.9880 S   0  0  0  0  0  0  0  0  0  0  0  0
  1  5  1  1  0  0  0
  2 13  1  0  0  0  0
  2 16  1  6  0  0  0
  3 17  1  0  0  0  0
  4 12  1  0  0  0  0
  4  1  1  0  0  0  0
  5 11  1  0  0  0  0
  6  8  2  0  0  0  0
  7 27  1  0  0  0  0
  8 11  1  0  0  0  0
  9 22  1  0  0  0  0
  9  7  1  0  0  0  0
 10 22  1  0  0  0  0
 10  3  1  0  0  0  0
 11 28  1  0  0  0  0
 12  8  1  0  0  0  0
 14  9  1  0  0  0  0
 15  7  1  0  0  0  0
 17 20  1  0  0  0  0
 17 26  1  0  0  0  0
 18 13  1  0  0  0  0
 19  1  1  0  0  0  0
 19  2  1  0  0  0  0
 20  4  1  0  0  0  0
 21 10  2  0  0  0  0
 22 20  1  0  0  0  0
 23 14  1  0  0  0  0
 23 15  1  0  0  0  0
 24 27  2  0  0  0  0
 25 26  1  0  0  0  0
 25 18  1  0  0  0  0
 26 19  1  0  0  0  0
 27 12  1  0  0  0  0
 28 30  1  0  0  0  0
 29 30  1  0  0  0  0
M  END
>  <MODEL>
7

>  <REMARK>
 VINA RESULT:      -8.1      2.369      6.255
  Name = 
  2 active torsions:
  status: ('A' for Active; 'I' for Inactive)
    1  A    between atoms: C_11  and  C_28
    2  A    between atoms: C_28  and  S_30
                            x       y       z     vdW  Elec       q    Type
                         _______ _______ _______ _____ _____    ______ ____

>  <TORSDO>
F 2

$$$$
=
 OpenBabel11122410323D

 30 35  0  0  1  0  0  0  0  0999 V2000
  187.0230  178.3280  140.0730 C   0  0  2  0  0  3  0  0  0  0  0  0
  188.6620  177.8740  138.1890 C   0  0  2  0  0  3  0  0  0  0  0  0
  189.9200  177.2880  143.0420 N   0  0  0  0  0  2  0  0  0  0  0  0
  186.6410  178.1530  141.5640 C   0  0  2  0  0  3  0  0  0  0  0  0
  185.8000  178.0040  139.2190 C   0  0  0  0  0  2  0  0  0  0  0  0
  183.2850  179.2870  141.4080 O   0  0  0  0  0  0  0  0  0  0  0  0
  185.3060  177.9590  144.1290 C   0  0  1  0  0  3  0  0  0  0  0  0
  184.4210  179.1430  140.9780 C   0  0  0  0  0  0  0  0  0  0  0  0
  186.6950  177.6960  144.6930 C   0  0  2  0  0  3  0  0  0  0  0  0
  189.1530  177.6800  144.1730 C   0  0  0  0  0  0  0  0  0  0  0  0
  184.6700  179.0020  139.4910 C   0  0  2  0  0  3  0  0  0  0  0  0
  185.6170  179.2490  141.9010 C   0  0  1  0  0  3  0  0  0  0  0  0
  189.7660  176.9580  137.6700 C   0  0  0  0  0  2  0  0  0  0  0  0
  186.7040  178.3610  146.0530 C   0  0  0  0  0  2  0  0  0  0  0  0
  184.3920  177.9990  145.3460 C   0  0  0  0  0  2  0  0  0  0  0  0
  189.0550  179.2130  138.1070 O   0  0  0  0  0  1  0  0  0  0  0  0
  188.9360  177.2790  141.9750 C   0  0  1  0  0  3  0  0  0  0  0  0
  191.3080  177.1630  138.6250 S   0  0  0  0  0  0  0  0  0  0  0  0
  188.2560  177.5030  139.6210 C   0  0  1  0  0  3  0  0  0  0  0  0
  187.9040  178.2960  142.4090 C   0  0  2  0  0  3  0  0  0  0  0  0
  189.6010  177.6100  145.3480 O   0  0  0  0  0  0  0  0  0  0  0  0
  187.8350  178.1310  143.8660 N   0  0  0  0  0  0  0  0  0  0  0  0
  185.2790  178.2530  146.5590 C   0  0  0  0  0  2  0  0  0  0  0  0
  184.9360  180.2990  143.8940 O   0  0  0  0  0  0  0  0  0  0  0  0
  190.5430  176.6440  140.1920 C   0  0  0  0  0  2  0  0  0  0  0  0
  189.4500  177.6270  140.5950 C   0  0  2  0  0  3  0  0  0  0  0  0
  185.2380  179.2460  143.3520 C   0  0  0  0  0  0  0  0  0  0  0  0
  183.4160  178.5740  138.7410 C   0  0  0  0  0  2  0  0  0  0  0  0
  182.5040  176.2350  139.4680 C   0  0  0  0  0  1  0  0  0  0  0  0
  183.5850  176.8630  138.1540 S   0  0  0  0  0  0  0  0  0  0  0  0
  1  5  1  6  0  0  0
  1  4  1  0  0  0  0
  2 16  1  1  0  0  0
  2 19  1  0  0  0  0
  3 10  1  0  0  0  0
  4 12  1  0  0  0  0
  4 20  1  0  0  0  0
  5 11  1  0  0  0  0
  7  9  1  0  0  0  0
  7 15  1  0  0  0  0
  8  6  2  0  0  0  0
  8 12  1  0  0  0  0
  9 14  1  0  0  0  0
 10 21  2  0  0  0  0
 11  8  1  0  0  0  0
 12 27  1  0  0  0  0
 13  2  1  0  0  0  0
 13 18  1  0  0  0  0
 14 23  1  0  0  0  0
 15 23  1  0  0  0  0
 17 20  1  0  0  0  0
 17  3  1  0  0  0  0
 18 25  1  0  0  0  0
 19  1  1  0  0  0  0
 19 26  1  0  0  0  0
 20 22  1  0  0  0  0
 22 10  1  0  0  0  0
 22  9  1  0  0  0  0
 25 26  1  0  0  0  0
 26 17  1  0  0  0  0
 27 24  2  0  0  0  0
 27  7  1  0  0  0  0
 28 11  1  0  0  0  0
 30 28  1  0  0  0  0
 30 29  1  0  0  0  0
M  END
>  <MODEL>
8

>  <REMARK>
 VINA RESULT:      -7.9      2.433      5.243
  Name = 
  2 active torsions:
  status: ('A' for Active; 'I' for Inactive)
    1  A    between atoms: C_11  and  C_28
    2  A    between atoms: C_28  and  S_30
                            x       y       z     vdW  Elec       q    Type
                         _______ _______ _______ _____ _____    ______ ____

>  <TORSDO>
F 2

$$$$
