=
 OpenBabel11122410393D

 32 37  0  0  1  0  0  0  0  0999 V2000
  188.1420  176.7530  143.7970 C   0  0  0  0  0  2  0  0  0  0  0  0
  190.5510  176.9010  138.8830 C   0  0  1  0  0  3  0  0  0  0  0  0
  186.2450  175.3760  137.0260 C   0  0  0  0  0  2  0  0  0  0  0  0
  186.9270  174.6110  135.9860 N   0  0  0  0  0  2  0  0  0  0  0  0
  192.7050  175.6870  138.3520 C   0  0  1  0  0  3  0  0  0  0  0  0
  193.3030  174.6080  137.4980 C   0  0  0  0  0  0  0  0  0  0  0  0
  189.9590  177.0480  141.0540 C   0  0  1  0  0  3  0  0  0  0  0  0
  188.4620  178.1530  139.4090 C   0  0  0  0  0  2  0  0  0  0  0  0
  193.4140  172.9620  136.0550 N   0  0  0  0  0  0  0  0  0  0  0  0
  187.9140  178.3360  141.8400 C   0  0  0  0  0  2  0  0  0  0  0  0
  187.0980  176.5780  137.4180 C   0  0  0  0  0  2  0  0  0  0  0  0
  189.1710  177.3130  138.3300 C   0  0  2  0  0  3  0  0  0  0  0  0
  188.3820  176.1230  137.9650 N   0  0  2  0  0  0  0  0  0  0  0  0
  190.4630  174.8930  137.3560 C   0  0  1  0  0  3  0  0  0  0  0  0
  194.6010  173.1240  136.6750 C   0  0  0  0  0  3  0  0  0  0  0  0
  189.0200  175.7490  143.0610 C   0  0  0  0  0  2  0  0  0  0  0  0
  188.5010  177.4450  140.7590 C   0  0  2  0  0  3  0  0  0  0  0  0
  194.5620  174.1300  137.5840 N   0  0  0  0  0  0  0  0  0  0  0  0
  190.2180  176.4670  142.4500 C   0  0  0  0  0  2  0  0  0  0  0  0
  187.1760  177.4750  142.8570 C   0  0  2  0  0  3  0  0  0  0  0  0
  188.2140  174.1580  136.5060 C   0  0  0  0  0  2  0  0  0  0  0  0
  189.0740  175.3660  136.9010 C   0  0  1  0  0  3  0  0  0  0  0  0
  191.1750  174.1520  136.2110 C   0  0  0  0  0  2  0  0  0  0  0  0
  190.4070  176.1520  140.0700 O   0  0  0  0  0  0  0  0  0  0  0  0
  193.6240  176.8960  138.3780 C   0  0  0  0  0  1  0  0  0  0  0  0
  193.1020  171.9860  135.0260 C   0  0  0  0  0  1  0  0  0  0  0  0
  191.3100  176.0980  137.8300 C   0  0  1  0  0  3  0  0  0  0  0  0
  192.5940  173.8770  136.5880 C   0  0  0  0  0  0  0  0  0  0  0  0
  186.2800  178.3190  143.6330 N   0  0  0  0  0  2  0  0  0  0  0  0
  184.9020  178.4930  143.2970 C   0  0  0  0  0  0  0  0  0  0  0  0
  184.4120  177.9300  142.2820 O   0  0  0  0  0  0  0  0  0  0  0  0
  183.8670  179.5250  144.3220 S   0  0  0  0  0  1  0  0  0  0  0  0
  2 24  1  1  0  0  0
  3 11  1  0  0  0  0
  4 21  1  0  0  0  0
  4  3  1  0  0  0  0
  5 25  1  6  0  0  0
  6 18  1  0  0  0  0
  6  5  1  0  0  0  0
  7 19  1  1  0  0  0
  9 28  1  0  0  0  0
  9 15  1  0  0  0  0
 10 20  1  0  0  0  0
 12  2  1  0  0  0  0
 12  8  1  1  0  0  0
 13 11  1  6  0  0  0
 13 12  1  0  0  0  0
 14 23  1  6  0  0  0
 14 27  1  0  0  0  0
 15 18  2  0  0  0  0
 16  1  1  0  0  0  0
 17  8  1  6  0  0  0
 17  7  1  0  0  0  0
 17 10  1  0  0  0  0
 19 16  1  0  0  0  0
 20 29  1  1  0  0  0
 20  1  1  0  0  0  0
 22 21  1  1  0  0  0
 22 14  1  0  0  0  0
 22 13  1  0  0  0  0
 23 28  1  0  0  0  0
 24  7  1  0  0  0  0
 26  9  1  0  0  0  0
 27  5  1  0  0  0  0
 27  2  1  0  0  0  0
 28  6  2  0  0  0  0
 30 29  1  0  0  0  0
 30 32  1  0  0  0  0
 31 30  2  0  0  0  0
M  END
>  <MODEL>
1

>  <REMARK>
 VINA RESULT:      -8.1      0.000      0.000
  Name = 
  1 active torsions:
  status: ('A' for Active; 'I' for Inactive)
    1  A    between atoms: C_20  and  N_29
                            x       y       z     vdW  Elec       q    Type
                         _______ _______ _______ _____ _____    ______ ____

>  <TORSDO>
F 1

$$$$
=
 OpenBabel11122410393D

 32 37  0  0  1  0  0  0  0  0999 V2000
  192.1010  173.0690  136.4820 C   0  0  0  0  0  2  0  0  0  0  0  0
  189.7610  177.6650  138.3180 C   0  0  1  0  0  3  0  0  0  0  0  0
  191.5340  176.4720  142.7620 C   0  0  0  0  0  2  0  0  0  0  0  0
  190.3720  177.0620  143.4200 N   0  0  0  0  0  2  0  0  0  0  0  0
  187.3120  178.2060  137.9910 C   0  0  1  0  0  3  0  0  0  0  0  0
  186.0230  178.4510  138.7190 C   0  0  0  0  0  0  0  0  0  0  0  0
  190.6020  175.9390  137.1350 C   0  0  1  0  0  3  0  0  0  0  0  0
  192.1880  177.1740  138.5930 C   0  0  0  0  0  2  0  0  0  0  0  0
  184.6110  178.6140  140.3860 N   0  0  0  0  0  0  0  0  0  0  0  0
  193.0600  175.2960  137.1930 C   0  0  0  0  0  2  0  0  0  0  0  0
  191.8000  177.2000  141.4470 C   0  0  0  0  0  2  0  0  0  0  0  0
  190.9500  177.7610  139.2960 C   0  0  2  0  0  3  0  0  0  0  0  0
  190.6500  177.0450  140.5490 N   0  0  2  0  0  0  0  0  0  0  0  0
  188.2310  177.6060  140.3250 C   0  0  1  0  0  3  0  0  0  0  0  0
  183.9610  178.7180  139.2090 C   0  0  0  0  0  3  0  0  0  0  0  0
  190.6800  173.3790  136.9340 C   0  0  0  0  0  2  0  0  0  0  0  0
  191.8740  175.8080  137.9920 C   0  0  2  0  0  3  0  0  0  0  0  0
  184.8080  178.6100  138.1540 N   0  0  0  0  0  0  0  0  0  0  0  0
  190.2230  174.6970  136.3180 C   0  0  0  0  0  2  0  0  0  0  0  0
  193.1480  173.7820  137.3360 C   0  0  2  0  0  3  0  0  0  0  0  0
  189.2160  176.9310  142.5370 C   0  0  0  0  0  2  0  0  0  0  0  0
  189.4830  177.6620  141.2140 C   0  0  1  0  0  3  0  0  0  0  0  0
  187.0490  178.2990  141.0250 C   0  0  0  0  0  2  0  0  0  0  0  0
  189.5260  176.3230  137.9520 O   0  0  0  0  0  0  0  0  0  0  0  0
  187.4830  179.2300  136.8810 C   0  0  0  0  0  1  0  0  0  0  0  0
  184.0170  178.6890  141.7100 C   0  0  0  0  0  1  0  0  0  0  0  0
  188.5160  178.2730  138.9580 C   0  0  1  0  0  3  0  0  0  0  0  0
  185.9000  178.4230  140.0790 C   0  0  0  0  0  0  0  0  0  0  0  0
  194.4800  173.3450  136.9430 N   0  0  0  0  0  2  0  0  0  0  0  0
  195.4690  172.9430  137.8910 C   0  0  0  0  0  0  0  0  0  0  0  0
  195.2290  172.9760  139.1260 O   0  0  0  0  0  0  0  0  0  0  0  0
  197.0690  172.3920  137.3170 S   0  0  0  0  0  1  0  0  0  0  0  0
  1 16  1  0  0  0  0
  1 20  1  0  0  0  0
  2 24  1  1  0  0  0
  2 27  1  0  0  0  0
  2 12  1  0  0  0  0
  3  4  1  0  0  0  0
  5 25  1  6  0  0  0
  5  6  1  0  0  0  0
  5 27  1  0  0  0  0
  6 28  2  0  0  0  0
  7 19  1  1  0  0  0
  7 24  1  0  0  0  0
  7 17  1  0  0  0  0
  9 26  1  0  0  0  0
 10 20  1  0  0  0  0
 11  3  1  0  0  0  0
 12  8  1  6  0  0  0
 12 13  1  0  0  0  0
 13 22  1  0  0  0  0
 13 11  1  1  0  0  0
 14 23  1  1  0  0  0
 14 22  1  0  0  0  0
 15  9  1  0  0  0  0
 17 10  1  6  0  0  0
 17  8  1  0  0  0  0
 18  6  1  0  0  0  0
 18 15  2  0  0  0  0
 19 16  1  0  0  0  0
 20 29  1  6  0  0  0
 21  4  1  0  0  0  0
 22 21  1  1  0  0  0
 27 14  1  0  0  0  0
 28  9  1  0  0  0  0
 28 23  1  0  0  0  0
 29 30  1  0  0  0  0
 30 31  2  0  0  0  0
 32 30  1  0  0  0  0
M  END
>  <MODEL>
2

>  <REMARK>
 VINA RESULT:      -6.7      3.727      8.383
  Name = 
  1 active torsions:
  status: ('A' for Active; 'I' for Inactive)
    1  A    between atoms: C_20  and  N_29
                            x       y       z     vdW  Elec       q    Type
                         _______ _______ _______ _____ _____    ______ ____

>  <TORSDO>
F 1

$$$$
=
 OpenBabel11122410393D

 32 37  0  0  1  0  0  0  0  0999 V2000
  181.3330  175.9570  138.3740 C   0  0  0  0  0  2  0  0  0  0  0  0
  184.7880  178.9090  141.4270 C   0  0  1  0  0  3  0  0  0  0  0  0
  188.2860  177.6770  138.1770 C   0  0  0  0  0  2  0  0  0  0  0  0
  189.3000  177.6530  139.2280 N   0  0  0  0  0  2  0  0  0  0  0  0
  185.1190  178.5370  143.9060 C   0  0  1  0  0  3  0  0  0  0  0  0
  186.1290  178.1390  144.9420 C   0  0  0  0  0  0  0  0  0  0  0  0
  183.0340  177.8770  140.4550 C   0  0  1  0  0  3  0  0  0  0  0  0
  184.4260  179.3280  138.9970 C   0  0  0  0  0  2  0  0  0  0  0  0
  188.0250  177.4470  145.7960 N   0  0  0  0  0  0  0  0  0  0  0  0
  182.4200  178.2100  138.0120 C   0  0  0  0  0  2  0  0  0  0  0  0
  187.1960  178.6800  138.5430 C   0  0  0  0  0  2  0  0  0  0  0  0
  185.4960  179.2640  140.1030 C   0  0  2  0  0  3  0  0  0  0  0  0
  186.5390  178.2710  139.7900 N   0  0  2  0  0  0  0  0  0  0  0  0
  186.9660  177.9090  142.2190 C   0  0  1  0  0  3  0  0  0  0  0  0
  187.0760  177.5140  146.7520 C   0  0  0  0  0  3  0  0  0  0  0  0
  182.1280  175.6200  139.6280 C   0  0  0  0  0  2  0  0  0  0  0  0
  183.5490  178.0800  139.0190 C   0  0  2  0  0  3  0  0  0  0  0  0
  185.8850  177.9300  146.2530 N   0  0  0  0  0  0  0  0  0  0  0  0
  182.0010  176.7570  140.6360 C   0  0  0  0  0  2  0  0  0  0  0  0
  182.1220  176.8420  137.4090 C   0  0  2  0  0  3  0  0  0  0  0  0
  188.6640  177.2610  140.4830 C   0  0  0  0  0  2  0  0  0  0  0  0
  187.5670  178.2680  140.8520 C   0  0  1  0  0  3  0  0  0  0  0  0
  188.0510  177.9630  143.3090 C   0  0  0  0  0  2  0  0  0  0  0  0
  184.1230  177.6700  141.3170 O   0  0  0  0  0  0  0  0  0  0  0  0
  184.3210  179.7350  144.3940 C   0  0  0  0  0  1  0  0  0  0  0  0
  189.4100  177.0480  145.9790 C   0  0  0  0  0  1  0  0  0  0  0  0
  185.8050  178.8730  142.5630 C   0  0  1  0  0  3  0  0  0  0  0  0
  187.4250  177.8170  144.6570 C   0  0  0  0  0  0  0  0  0  0  0  0
  181.3660  177.0200  136.1790 N   0  0  0  0  0  2  0  0  0  0  0  0
  180.0620  177.6040  136.1540 C   0  0  0  0  0  0  0  0  0  0  0  0
  179.5000  177.9690  137.2200 O   0  0  0  0  0  0  0  0  0  0  0  0
  179.2180  177.8110  134.5940 S   0  0  0  0  0  1  0  0  0  0  0  0
  1 16  1  0  0  0  0
  2 24  1  6  0  0  0
  2 27  1  0  0  0  0
  3 11  1  0  0  0  0
  3  4  1  0  0  0  0
  4 21  1  0  0  0  0
  5 25  1  1  0  0  0
  5  6  1  0  0  0  0
  6 18  1  0  0  0  0
  7 19  1  6  0  0  0
  7 24  1  0  0  0  0
  8 17  1  0  0  0  0
  9 26  1  0  0  0  0
  9 15  1  0  0  0  0
 12  8  1  6  0  0  0
 12  2  1  0  0  0  0
 13 11  1  6  0  0  0
 13 12  1  0  0  0  0
 13 22  1  0  0  0  0
 14 27  1  0  0  0  0
 14 23  1  1  0  0  0
 16 19  1  0  0  0  0
 17 10  1  6  0  0  0
 17  7  1  0  0  0  0
 18 15  2  0  0  0  0
 20 29  1  6  0  0  0
 20 10  1  0  0  0  0
 20  1  1  0  0  0  0
 22 21  1  6  0  0  0
 22 14  1  0  0  0  0
 23 28  1  0  0  0  0
 27  5  1  0  0  0  0
 28  6  2  0  0  0  0
 28  9  1  0  0  0  0
 30 29  1  0  0  0  0
 30 31  2  0  0  0  0
 32 30  1  0  0  0  0
M  END
>  <MODEL>
3

>  <REMARK>
 VINA RESULT:      -6.6      4.536      8.329
  Name = 
  1 active torsions:
  status: ('A' for Active; 'I' for Inactive)
    1  A    between atoms: C_20  and  N_29
                            x       y       z     vdW  Elec       q    Type
                         _______ _______ _______ _____ _____    ______ ____

>  <TORSDO>
F 1

$$$$
=
 OpenBabel11122410393D

 32 37  0  0  1  0  0  0  0  0999 V2000
  188.8090  174.0110  136.1310 C   0  0  0  0  0  2  0  0  0  0  0  0
  187.2290  178.2820  139.1690 C   0  0  1  0  0  3  0  0  0  0  0  0
  190.7640  176.9820  142.3520 C   0  0  0  0  0  2  0  0  0  0  0  0
  189.9580  177.4340  143.4820 N   0  0  0  0  0  2  0  0  0  0  0  0
  184.8450  178.6370  139.9380 C   0  0  1  0  0  3  0  0  0  0  0  0
  183.9710  178.7310  141.1540 C   0  0  0  0  0  0  0  0  0  0  0  0
  187.5800  176.7030  137.5970 C   0  0  1  0  0  3  0  0  0  0  0  0
  189.5680  177.9780  138.3670 C   0  0  0  0  0  2  0  0  0  0  0  0
  183.3840  178.6790  143.2640 N   0  0  0  0  0  0  0  0  0  0  0  0
  189.8640  176.2640  136.5730 C   0  0  0  0  0  2  0  0  0  0  0  0
  190.4150  177.8050  141.1140 C   0  0  0  0  0  2  0  0  0  0  0  0
  188.7120  178.4180  139.5690 C   0  0  2  0  0  3  0  0  0  0  0  0
  189.0030  177.6090  140.7660 N   0  0  2  0  0  0  0  0  0  0  0  0
  186.6890  177.9800  141.6160 C   0  0  1  0  0  3  0  0  0  0  0  0
  182.2960  178.7970  142.4770 C   0  0  0  0  0  3  0  0  0  0  0  0
  187.6960  174.1760  137.1580 C   0  0  0  0  0  2  0  0  0  0  0  0
  189.0990  176.6290  137.8330 C   0  0  2  0  0  3  0  0  0  0  0  0
  182.6250  178.8220  141.1610 N   0  0  0  0  0  0  0  0  0  0  0  0
  186.9560  175.4850  136.9060 C   0  0  0  0  0  2  0  0  0  0  0  0
  190.0810  174.7570  136.5320 C   0  0  2  0  0  3  0  0  0  0  0  0
  188.5460  177.2600  143.1500 C   0  0  0  0  0  2  0  0  0  0  0  0
  188.1940  178.0860  141.9060 C   0  0  1  0  0  3  0  0  0  0  0  0
  185.8780  178.5300  142.8020 C   0  0  0  0  0  2  0  0  0  0  0  0
  186.9300  176.9490  138.8170 O   0  0  0  0  0  0  0  0  0  0  0  0
  184.4810  179.7340  138.9520 C   0  0  0  0  0  1  0  0  0  0  0  0
  183.4000  178.6270  144.7160 C   0  0  0  0  0  1  0  0  0  0  0  0
  186.3390  178.7460  140.3190 C   0  0  1  0  0  3  0  0  0  0  0  0
  184.4330  178.6130  142.4340 C   0  0  0  0  0  0  0  0  0  0  0  0
  191.1440  174.4560  135.5850 N   0  0  0  0  0  2  0  0  0  0  0  0
  192.4620  174.0940  135.9960 C   0  0  0  0  0  0  0  0  0  0  0  0
  192.7650  174.0460  137.2180 O   0  0  0  0  0  0  0  0  0  0  0  0
  193.6980  173.7110  134.7640 S   0  0  0  0  0  1  0  0  0  0  0  0
  1 20  1  0  0  0  0
  1 16  1  0  0  0  0
  2 24  1  1  0  0  0
  2 12  1  0  0  0  0
  2 27  1  0  0  0  0
  3  4  1  0  0  0  0
  5 25  1  6  0  0  0
  5 27  1  0  0  0  0
  5  6  1  0  0  0  0
  6 18  1  0  0  0  0
  6 28  2  0  0  0  0
  7 19  1  1  0  0  0
  7 17  1  0  0  0  0
  7 24  1  0  0  0  0
  9 26  1  0  0  0  0
 11  3  1  0  0  0  0
 12  8  1  6  0  0  0
 12 13  1  0  0  0  0
 13 11  1  1  0  0  0
 13 22  1  0  0  0  0
 14 22  1  0  0  0  0
 14 23  1  1  0  0  0
 15  9  1  0  0  0  0
 17 10  1  6  0  0  0
 17  8  1  0  0  0  0
 18 15  2  0  0  0  0
 19 16  1  0  0  0  0
 20 29  1  6  0  0  0
 20 10  1  0  0  0  0
 21  4  1  0  0  0  0
 22 21  1  1  0  0  0
 27 14  1  0  0  0  0
 28 23  1  0  0  0  0
 28  9  1  0  0  0  0
 29 30  1  0  0  0  0
 30 31  2  0  0  0  0
 32 30  1  0  0  0  0
M  END
>  <MODEL>
4

>  <REMARK>
 VINA RESULT:      -6.6      3.452      8.842
  Name = 
  1 active torsions:
  status: ('A' for Active; 'I' for Inactive)
    1  A    between atoms: C_20  and  N_29
                            x       y       z     vdW  Elec       q    Type
                         _______ _______ _______ _____ _____    ______ ____

>  <TORSDO>
F 1

$$$$
=
 OpenBabel11122410393D

 32 37  0  0  1  0  0  0  0  0999 V2000
  184.0170  178.8100  142.7780 C   0  0  0  0  0  2  0  0  0  0  0  0
  186.2740  177.9370  137.8670 C   0  0  1  0  0  3  0  0  0  0  0  0
  183.1150  174.1810  137.3830 C   0  0  0  0  0  2  0  0  0  0  0  0
  184.0940  173.4140  136.6170 N   0  0  0  0  0  2  0  0  0  0  0  0
  188.7570  177.6090  137.5160 C   0  0  1  0  0  3  0  0  0  0  0  0
  189.7900  176.6250  137.0500 C   0  0  0  0  0  0  0  0  0  0  0  0
  185.6090  178.6900  139.8870 C   0  0  1  0  0  3  0  0  0  0  0  0
  183.8330  178.3210  138.1910 C   0  0  0  0  0  2  0  0  0  0  0  0
  190.6480  174.7420  136.3310 N   0  0  0  0  0  0  0  0  0  0  0  0
  183.1850  179.2260  140.4280 C   0  0  0  0  0  2  0  0  0  0  0  0
  183.3500  175.6730  137.1630 C   0  0  0  0  0  2  0  0  0  0  0  0
  184.8700  177.4880  137.4130 C   0  0  2  0  0  3  0  0  0  0  0  0
  184.6870  176.0440  137.6430 N   0  0  2  0  0  0  0  0  0  0  0  0
  187.1130  175.6410  137.2370 C   0  0  1  0  0  3  0  0  0  0  0  0
  191.6280  175.6090  136.6600 C   0  0  0  0  0  3  0  0  0  0  0  0
  185.2660  178.0500  142.3500 C   0  0  0  0  0  2  0  0  0  0  0  0
  184.1340  178.3010  139.6860 C   0  0  2  0  0  3  0  0  0  0  0  0
  191.1280  176.7830  137.1200 N   0  0  0  0  0  0  0  0  0  0  0  0
  186.0520  178.8820  141.3430 C   0  0  0  0  0  2  0  0  0  0  0  0
  182.8630  178.6290  141.7920 C   0  0  2  0  0  3  0  0  0  0  0  0
  185.4330  173.7790  137.0700 C   0  0  0  0  0  2  0  0  0  0  0  0
  185.6710  175.2790  136.8510 C   0  0  1  0  0  3  0  0  0  0  0  0
  188.1110  174.8650  136.3600 C   0  0  0  0  0  2  0  0  0  0  0  0
  186.4320  177.7430  139.2550 O   0  0  0  0  0  0  0  0  0  0  0  0
  189.0590  178.9850  136.9480 C   0  0  0  0  0  1  0  0  0  0  0  0
  190.8230  173.4000  135.8020 C   0  0  0  0  0  1  0  0  0  0  0  0
  187.3380  177.1660  137.0920 C   0  0  1  0  0  3  0  0  0  0  0  0
  189.4970  175.3710  136.5970 C   0  0  0  0  0  0  0  0  0  0  0  0
  181.6660  179.2670  142.3190 N   0  0  0  0  0  2  0  0  0  0  0  0
  180.3510  178.7740  142.0540 C   0  0  0  0  0  0  0  0  0  0  0  0
  180.1780  177.7640  141.3210 O   0  0  0  0  0  0  0  0  0  0  0  0
  178.9380  179.6020  142.7660 S   0  0  0  0  0  1  0  0  0  0  0  0
  2 24  1  1  0  0  0
  4 21  1  0  0  0  0
  4  3  1  0  0  0  0
  5 25  1  6  0  0  0
  6 18  1  0  0  0  0
  6  5  1  0  0  0  0
  7 19  1  1  0  0  0
  9 28  1  0  0  0  0
  9 15  1  0  0  0  0
 10 20  1  0  0  0  0
 11  3  1  0  0  0  0
 12 13  1  0  0  0  0
 12  2  1  0  0  0  0
 12  8  1  1  0  0  0
 13 11  1  6  0  0  0
 14 23  1  6  0  0  0
 15 18  2  0  0  0  0
 16  1  1  0  0  0  0
 17  8  1  6  0  0  0
 17  7  1  0  0  0  0
 17 10  1  0  0  0  0
 19 16  1  0  0  0  0
 20 29  1  1  0  0  0
 20  1  1  0  0  0  0
 22 21  1  1  0  0  0
 22 14  1  0  0  0  0
 22 13  1  0  0  0  0
 23 28  1  0  0  0  0
 24  7  1  0  0  0  0
 26  9  1  0  0  0  0
 27 14  1  0  0  0  0
 27  5  1  0  0  0  0
 27  2  1  0  0  0  0
 28  6  2  0  0  0  0
 30 29  1  0  0  0  0
 30 32  1  0  0  0  0
 31 30  2  0  0  0  0
M  END
>  <MODEL>
5

>  <REMARK>
 VINA RESULT:      -6.5      2.941      4.211
  Name = 
  1 active torsions:
  status: ('A' for Active; 'I' for Inactive)
    1  A    between atoms: C_20  and  N_29
                            x       y       z     vdW  Elec       q    Type
                         _______ _______ _______ _____ _____    ______ ____

>  <TORSDO>
F 1

$$$$
=
 OpenBabel11122410393D

 32 37  0  0  1  0  0  0  0  0999 V2000
  186.7280  174.5530  136.2570 C   0  0  0  0  0  2  0  0  0  0  0  0
  184.2720  178.6550  138.9230 C   0  0  1  0  0  3  0  0  0  0  0  0
  187.5190  177.8810  142.5530 C   0  0  0  0  0  2  0  0  0  0  0  0
  186.5300  178.2520  143.5610 N   0  0  0  0  0  2  0  0  0  0  0  0
  181.7860  178.7220  139.3880 C   0  0  1  0  0  3  0  0  0  0  0  0
  180.7640  178.7310  140.4860 C   0  0  0  0  0  0  0  0  0  0  0  0
  185.0060  177.1000  137.4640 C   0  0  1  0  0  3  0  0  0  0  0  0
  186.7110  178.6320  138.4190 C   0  0  0  0  0  2  0  0  0  0  0  0
  179.9320  178.6500  142.5110 N   0  0  0  0  0  0  0  0  0  0  0  0
  187.4350  176.9310  136.7380 C   0  0  0  0  0  2  0  0  0  0  0  0
  187.2280  178.6270  141.2530 C   0  0  0  0  0  2  0  0  0  0  0  0
  185.6660  178.9870  139.4930 C   0  0  2  0  0  3  0  0  0  0  0  0
  185.9050  178.2460  140.7450 N   0  0  2  0  0  0  0  0  0  0  0  0
  183.4750  178.3400  141.2980 C   0  0  1  0  0  3  0  0  0  0  0  0
  178.9420  178.6130  141.5950 C   0  0  0  0  0  3  0  0  0  0  0  0
  185.4850  174.5980  137.1350 C   0  0  0  0  0  2  0  0  0  0  0  0
  186.4820  177.2230  137.8840 C   0  0  2  0  0  3  0  0  0  0  0  0
  179.4260  178.6510  140.3280 N   0  0  0  0  0  0  0  0  0  0  0  0
  184.6270  175.7980  136.7480 C   0  0  0  0  0  2  0  0  0  0  0  0
  187.8390  175.4630  136.7790 C   0  0  2  0  0  3  0  0  0  0  0  0
  185.2030  177.8940  143.0690 C   0  0  0  0  0  2  0  0  0  0  0  0
  184.9080  178.6420  141.7620 C   0  0  1  0  0  3  0  0  0  0  0  0
  182.4620  178.8080  142.3570 C   0  0  0  0  0  2  0  0  0  0  0  0
  184.1850  177.2880  138.5880 O   0  0  0  0  0  0  0  0  0  0  0  0
  181.4150  179.7430  138.3250 C   0  0  0  0  0  1  0  0  0  0  0  0
  179.7740  178.6320  143.9550 C   0  0  0  0  0  1  0  0  0  0  0  0
  183.1970  179.0270  139.9400 C   0  0  1  0  0  3  0  0  0  0  0  0
  181.0740  178.7000  141.8150 C   0  0  0  0  0  0  0  0  0  0  0  0
  189.0400  175.2780  135.9780 N   0  0  0  0  0  2  0  0  0  0  0  0
  190.1700  174.5400  136.4430 C   0  0  0  0  0  0  0  0  0  0  0  0
  190.1780  174.0340  137.5970 O   0  0  0  0  0  0  0  0  0  0  0  0
  191.5910  174.3380  135.3800 S   0  0  0  0  0  1  0  0  0  0  0  0
  1 20  1  0  0  0  0
  1 16  1  0  0  0  0
  2 24  1  1  0  0  0
  2 12  1  0  0  0  0
  2 27  1  0  0  0  0
  3  4  1  0  0  0  0
  5 25  1  6  0  0  0
  5 27  1  0  0  0  0
  5  6  1  0  0  0  0
  6 28  2  0  0  0  0
  7 19  1  1  0  0  0
  7 17  1  0  0  0  0
  7 24  1  0  0  0  0
  9 26  1  0  0  0  0
 10 20  1  0  0  0  0
 11  3  1  0  0  0  0
 12  8  1  6  0  0  0
 12 13  1  0  0  0  0
 13 11  1  1  0  0  0
 13 22  1  0  0  0  0
 14 22  1  0  0  0  0
 14 23  1  1  0  0  0
 15  9  1  0  0  0  0
 17 10  1  6  0  0  0
 17  8  1  0  0  0  0
 18  6  1  0  0  0  0
 18 15  2  0  0  0  0
 19 16  1  0  0  0  0
 20 29  1  6  0  0  0
 21  4  1  0  0  0  0
 22 21  1  1  0  0  0
 27 14  1  0  0  0  0
 28 23  1  0  0  0  0
 28  9  1  0  0  0  0
 29 30  1  0  0  0  0
 30 31  2  0  0  0  0
 32 30  1  0  0  0  0
M  END
>  <MODEL>
6

>  <REMARK>
 VINA RESULT:      -6.2      4.140      9.884
  Name = 
  1 active torsions:
  status: ('A' for Active; 'I' for Inactive)
    1  A    between atoms: C_20  and  N_29
                            x       y       z     vdW  Elec       q    Type
                         _______ _______ _______ _____ _____    ______ ____

>  <TORSDO>
F 1

$$$$
=
 OpenBabel11122410393D

 32 37  0  0  1  0  0  0  0  0999 V2000
  188.5290  177.8520  140.3200 C   0  0  0  0  0  2  0  0  0  0  0  0
  191.5640  176.2270  136.0630 C   0  0  1  0  0  3  0  0  0  0  0  0
  187.9800  172.9810  135.0930 C   0  0  0  0  0  2  0  0  0  0  0  0
  188.9500  172.0100  134.5950 N   0  0  0  0  0  2  0  0  0  0  0  0
  193.9730  175.4880  136.2740 C   0  0  1  0  0  3  0  0  0  0  0  0
  194.8970  174.3200  136.0920 C   0  0  0  0  0  0  0  0  0  0  0  0
  190.6370  177.2420  137.8510 C   0  0  1  0  0  3  0  0  0  0  0  0
  189.2100  177.0120  135.8310 C   0  0  0  0  0  2  0  0  0  0  0  0
  195.5520  172.2720  135.6690 N   0  0  0  0  0  0  0  0  0  0  0  0
  188.2800  178.1920  137.8280 C   0  0  0  0  0  2  0  0  0  0  0  0
  188.5060  174.3940  134.8560 C   0  0  0  0  0  2  0  0  0  0  0  0
  190.2270  175.9650  135.3380 C   0  0  2  0  0  3  0  0  0  0  0  0
  189.7580  174.5920  135.5950 N   0  0  2  0  0  0  0  0  0  0  0  0
  192.1120  173.7840  135.7430 C   0  0  1  0  0  3  0  0  0  0  0  0
  196.5760  173.0010  136.1590 C   0  0  0  0  0  3  0  0  0  0  0  0
  189.6910  176.8740  140.2100 C   0  0  0  0  0  2  0  0  0  0  0  0
  189.1900  177.0710  137.3550 C   0  0  2  0  0  3  0  0  0  0  0  0
  196.2000  174.2730  136.4420 N   0  0  0  0  0  0  0  0  0  0  0  0
  190.7970  177.4850  139.3570 C   0  0  0  0  0  2  0  0  0  0  0  0
  187.5880  177.7700  139.1180 C   0  0  2  0  0  3  0  0  0  0  0  0
  190.2100  172.1980  135.3100 C   0  0  0  0  0  2  0  0  0  0  0  0
  190.7400  173.6190  135.0730 C   0  0  1  0  0  3  0  0  0  0  0  0
  193.1210  172.7900  135.1430 C   0  0  0  0  0  2  0  0  0  0  0  0
  191.3980  176.1280  137.4600 O   0  0  0  0  0  0  0  0  0  0  0  0
  194.6150  176.7480  135.7180 C   0  0  0  0  0  1  0  0  0  0  0  0
  195.6010  170.8790  135.2570 C   0  0  0  0  0  1  0  0  0  0  0  0
  192.6170  175.2370  135.5760 C   0  0  1  0  0  3  0  0  0  0  0  0
  194.4940  173.0920  135.6490 C   0  0  0  0  0  0  0  0  0  0  0  0
  186.4340  178.6280  139.3400 N   0  0  0  0  0  2  0  0  0  0  0  0
  185.1620  178.3790  138.7400 C   0  0  0  0  0  0  0  0  0  0  0  0
  184.9980  177.4030  137.9610 O   0  0  0  0  0  0  0  0  0  0  0  0
  183.7920  179.4690  139.0930 S   0  0  0  0  0  1  0  0  0  0  0  0
  2 24  1  1  0  0  0
  4  3  1  0  0  0  0
  4 21  1  0  0  0  0
  5 25  1  6  0  0  0
  6  5  1  0  0  0  0
  6 18  1  0  0  0  0
  7 19  1  1  0  0  0
  9 15  1  0  0  0  0
 10 20  1  0  0  0  0
 11  3  1  0  0  0  0
 12 13  1  0  0  0  0
 12  8  1  1  0  0  0
 12  2  1  0  0  0  0
 13 11  1  6  0  0  0
 14 23  1  6  0  0  0
 15 18  2  0  0  0  0
 16  1  1  0  0  0  0
 17  8  1  6  0  0  0
 17 10  1  0  0  0  0
 17  7  1  0  0  0  0
 19 16  1  0  0  0  0
 20 29  1  1  0  0  0
 20  1  1  0  0  0  0
 22 21  1  1  0  0  0
 22 13  1  0  0  0  0
 22 14  1  0  0  0  0
 23 28  1  0  0  0  0
 24  7  1  0  0  0  0
 26  9  1  0  0  0  0
 27 14  1  0  0  0  0
 27  2  1  0  0  0  0
 27  5  1  0  0  0  0
 28  9  1  0  0  0  0
 28  6  2  0  0  0  0
 30 32  1  0  0  0  0
 30 29  1  0  0  0  0
 31 30  2  0  0  0  0
M  END
>  <MODEL>
7

>  <REMARK>
 VINA RESULT:      -5.7      2.570      3.307
  Name = 
  1 active torsions:
  status: ('A' for Active; 'I' for Inactive)
    1  A    between atoms: C_20  and  N_29
                            x       y       z     vdW  Elec       q    Type
                         _______ _______ _______ _____ _____    ______ ____

>  <TORSDO>
F 1

$$$$
=
 OpenBabel11122410393D

 32 37  0  0  1  0  0  0  0  0999 V2000
  188.6800  171.7350  135.6640 C   0  0  0  0  0  2  0  0  0  0  0  0
  186.2380  176.6340  135.7730 C   0  0  1  0  0  3  0  0  0  0  0  0
  189.6380  177.9540  139.0920 C   0  0  0  0  0  2  0  0  0  0  0  0
  188.6800  178.8170  139.7780 N   0  0  0  0  0  2  0  0  0  0  0  0
  183.7710  176.9490  136.2340 C   0  0  1  0  0  3  0  0  0  0  0  0
  182.7910  177.5570  137.1940 C   0  0  0  0  0  0  0  0  0  0  0  0
  186.9500  174.5330  135.3650 C   0  0  1  0  0  3  0  0  0  0  0  0
  188.6570  176.3340  135.2550 C   0  0  0  0  0  2  0  0  0  0  0  0
  182.0390  178.5950  138.9710 N   0  0  0  0  0  0  0  0  0  0  0  0
  189.3530  173.9900  134.7420 C   0  0  0  0  0  2  0  0  0  0  0  0
  189.2810  177.8720  137.6100 C   0  0  0  0  0  2  0  0  0  0  0  0
  187.6460  177.2190  136.0090 C   0  0  2  0  0  3  0  0  0  0  0  0
  187.9480  177.2790  137.4500 N   0  0  2  0  0  0  0  0  0  0  0  0
  185.5400  177.6650  137.9690 C   0  0  1  0  0  3  0  0  0  0  0  0
  181.0170  178.0680  138.2670 C   0  0  0  0  0  3  0  0  0  0  0  0
  187.4700  172.2550  136.4300 C   0  0  0  0  0  2  0  0  0  0  0  0
  188.4380  174.8610  135.5840 C   0  0  2  0  0  3  0  0  0  0  0  0
  181.4510  177.4080  137.1640 N   0  0  0  0  0  0  0  0  0  0  0  0
  186.5720  173.0520  135.4910 C   0  0  0  0  0  2  0  0  0  0  0  0
  189.7900  172.7800  135.5580 C   0  0  2  0  0  3  0  0  0  0  0  0
  187.3430  178.2520  139.6190 C   0  0  0  0  0  2  0  0  0  0  0  0
  186.9830  178.1680  138.1300 C   0  0  1  0  0  3  0  0  0  0  0  0
  184.5580  178.6370  138.6450 C   0  0  0  0  0  2  0  0  0  0  0  0
  186.1680  175.3040  136.2400 O   0  0  0  0  0  0  0  0  0  0  0  0
  183.3370  177.2270  134.8050 C   0  0  0  0  0  1  0  0  0  0  0  0
  181.9370  179.3670  140.1970 C   0  0  0  0  0  1  0  0  0  0  0  0
  185.1950  177.5030  136.4690 C   0  0  1  0  0  3  0  0  0  0  0  0
  183.1530  178.2550  138.3100 C   0  0  0  0  0  0  0  0  0  0  0  0
  190.9630  172.1850  134.9340 N   0  0  0  0  0  2  0  0  0  0  0  0
  192.2850  172.3800  135.4390 C   0  0  0  0  0  0  0  0  0  0  0  0
  192.4890  173.1080  136.4460 O   0  0  0  0  0  0  0  0  0  0  0  0
  193.6650  171.5870  134.6270 S   0  0  0  0  0  1  0  0  0  0  0  0
  1 16  1  0  0  0  0
  2 12  1  0  0  0  0
  2 24  1  1  0  0  0
  2 27  1  0  0  0  0
  3  4  1  0  0  0  0
  5 25  1  6  0  0  0
  5 27  1  0  0  0  0
  5  6  1  0  0  0  0
  6 28  2  0  0  0  0
  7 19  1  1  0  0  0
  7 17  1  0  0  0  0
  7 24  1  0  0  0  0
  8 17  1  0  0  0  0
  9 26  1  0  0  0  0
 10 20  1  0  0  0  0
 11  3  1  0  0  0  0
 12  8  1  6  0  0  0
 12 13  1  0  0  0  0
 13 11  1  6  0  0  0
 13 22  1  0  0  0  0
 14 22  1  0  0  0  0
 14 23  1  6  0  0  0
 15  9  1  0  0  0  0
 17 10  1  6  0  0  0
 18  6  1  0  0  0  0
 18 15  2  0  0  0  0
 19 16  1  0  0  0  0
 20 29  1  6  0  0  0
 20  1  1  0  0  0  0
 21  4  1  0  0  0  0
 22 21  1  1  0  0  0
 27 14  1  0  0  0  0
 28 23  1  0  0  0  0
 28  9  1  0  0  0  0
 29 30  1  0  0  0  0
 30 31  2  0  0  0  0
 32 30  1  0  0  0  0
M  END
>  <MODEL>
8

>  <REMARK>
 VINA RESULT:      -5.4      4.320      9.131
  Name = 
  1 active torsions:
  status: ('A' for Active; 'I' for Inactive)
    1  A    between atoms: C_20  and  N_29
                            x       y       z     vdW  Elec       q    Type
                         _______ _______ _______ _____ _____    ______ ____

>  <TORSDO>
F 1

$$$$
