=
 OpenBabel11122411583D

 28 32  0  0  1  0  0  0  0  0999 V2000
  184.4050  177.7220  138.4870 C   0  0  0  0  0  0  0  0  0  0  0  0
  182.0510  179.8450  138.6460 O   0  0  0  0  0  0  0  0  0  0  0  0
  185.0100  178.3710  144.3680 O   0  0  0  0  0  0  0  0  0  0  0  0
  183.3120  175.2360  137.7850 C   0  0  0  0  0  3  0  0  0  0  0  0
  182.8340  179.1070  143.6480 C   0  0  1  0  0  3  0  0  0  0  0  0
  185.1490  178.9600  138.8470 C   0  0  0  0  0  2  0  0  0  0  0  0
  180.4870  178.0850  137.9610 O   0  0  0  0  0  0  0  0  0  0  0  0
  180.9050  178.9810  139.0930 S   0  0  0  0  0  0  0  0  0  0  0  0
  179.9240  180.5690  140.8280 C   0  0  1  0  0  3  0  0  0  0  0  0
  181.3600  177.9720  140.5190 C   0  0  2  0  0  3  0  0  0  0  0  0
  187.6350  177.7620  141.2010 O   0  0  0  0  0  0  0  0  0  0  0  0
  183.4600  178.9740  141.2500 C   0  0  1  0  0  3  0  0  0  0  0  0
  179.8740  179.5300  141.8540 N   0  0  0  0  0  2  0  0  0  0  0  0
  179.5820  179.9970  139.5370 N   0  0  0  0  0  2  0  0  0  0  0  0
  186.6940  178.4860  140.7840 C   0  0  0  0  0  0  0  0  0  0  0  0
  183.4520  177.1090  139.3410 C   0  0  0  0  0  0  0  0  0  0  0  0
  184.2230  178.6650  143.4280 C   0  0  0  0  0  0  0  0  0  0  0  0
  178.9330  181.6590  141.1710 C   0  0  0  0  0  1  0  0  0  0  0  0
  185.9060  179.2910  141.7590 C   0  0  0  0  0  2  0  0  0  0  0  0
  182.9260  175.8620  138.9700 C   0  0  0  0  0  3  0  0  0  0  0  0
  184.7840  177.0830  137.2990 C   0  0  0  0  0  3  0  0  0  0  0  0
  184.2360  175.8510  136.9440 C   0  0  0  0  0  3  0  0  0  0  0  0
  186.4440  178.5750  139.3840 N   0  0  0  0  0  2  0  0  0  0  0  0
  182.3590  179.4540  142.2210 C   0  0  1  0  0  3  0  0  0  0  0  0
  184.6250  178.6720  142.0710 N   0  0  0  0  0  0  0  0  0  0  0  0
  181.0850  178.7020  141.8280 C   0  0  2  0  0  3  0  0  0  0  0  0
  182.1020  178.0630  144.2230 O   0  0  0  0  0  1  0  0  0  0  0  0
  182.8650  177.7170  140.6010 C   0  0  2  0  0  3  0  0  0  0  0  0
  1  6  1  0  0  0  0
  1 16  1  0  0  0  0
  2  8  2  0  0  0  0
  4 20  1  0  0  0  0
  5 27  1  6  0  0  0
  6 23  1  0  0  0  0
  7  8  2  0  0  0  0
  8 14  1  0  0  0  0
  9 18  1  1  0  0  0
  9 13  1  0  0  0  0
 10  8  1  6  0  0  0
 10 28  1  0  0  0  0
 10 26  1  0  0  0  0
 12 25  1  1  0  0  0
 12 24  1  0  0  0  0
 14  9  1  0  0  0  0
 15 11  2  0  0  0  0
 15 19  1  0  0  0  0
 16 28  1  0  0  0  0
 17  5  1  0  0  0  0
 17  3  2  0  0  0  0
 19 25  1  0  0  0  0
 20 16  2  0  0  0  0
 21  1  2  0  0  0  0
 22 21  1  0  0  0  0
 22  4  2  0  0  0  0
 23 15  1  0  0  0  0
 24  5  1  0  0  0  0
 25 17  1  0  0  0  0
 26 13  1  0  0  0  0
 26 24  1  0  0  0  0
 28 12  1  0  0  0  0
M  END
>  <MODEL>
1

>  <REMARK>
 VINA RESULT:      -6.1      0.000      0.000
  Name = 
  0 active torsions:
  status: ('A' for Active; 'I' for Inactive)
                            x       y       z     vdW  Elec       q    Type
                         _______ _______ _______ _____ _____    ______ ____

>  <TORSDO>
F 0

$$$$
=
 OpenBabel11122411583D

 28 32  0  0  1  0  0  0  0  0999 V2000
  180.6110  179.4090  141.4590 C   0  0  0  0  0  0  0  0  0  0  0  0
  180.4010  176.9050  139.5180 O   0  0  0  0  0  0  0  0  0  0  0  0
  186.5100  179.0920  140.7710 O   0  0  0  0  0  0  0  0  0  0  0  0
  179.4940  181.6320  140.1620 C   0  0  0  0  0  3  0  0  0  0  0  0
  185.3800  177.9520  138.9770 C   0  0  1  0  0  3  0  0  0  0  0  0
  181.2220  178.3380  142.2930 C   0  0  0  0  0  2  0  0  0  0  0  0
  179.2510  178.3310  137.8880 O   0  0  0  0  0  0  0  0  0  0  0  0
  180.5130  177.5660  138.1730 S   0  0  0  0  0  0  0  0  0  0  0  0
  182.1010  175.8920  137.0910 C   0  0  1  0  0  3  0  0  0  0  0  0
  181.9230  178.6910  138.1080 C   0  0  2  0  0  3  0  0  0  0  0  0
  183.9740  180.0460  143.9250 O   0  0  0  0  0  0  0  0  0  0  0  0
  183.1790  178.1090  140.1150 C   0  0  1  0  0  3  0  0  0  0  0  0
  183.0060  176.9410  136.6310 N   0  0  0  0  0  2  0  0  0  0  0  0
  180.7260  176.3460  136.9700 N   0  0  0  0  0  2  0  0  0  0  0  0
  183.4130  179.1500  143.2410 C   0  0  0  0  0  0  0  0  0  0  0  0
  181.1810  179.8710  140.2440 C   0  0  0  0  0  0  0  0  0  0  0  0
  185.4430  178.6280  140.2860 C   0  0  0  0  0  0  0  0  0  0  0  0
  182.2960  174.6550  136.2410 C   0  0  0  0  0  1  0  0  0  0  0  0
  184.2460  178.2530  142.3920 C   0  0  0  0  0  2  0  0  0  0  0  0
  180.6070  180.9900  139.6200 C   0  0  0  0  0  3  0  0  0  0  0  0
  179.4930  180.0620  141.9930 C   0  0  0  0  0  3  0  0  0  0  0  0
  178.9310  181.1630  141.3470 C   0  0  0  0  0  3  0  0  0  0  0  0
  182.0040  178.9670  143.3440 N   0  0  0  0  0  2  0  0  0  0  0  0
  183.9130  177.4740  138.9130 C   0  0  1  0  0  3  0  0  0  0  0  0
  184.2150  178.6430  140.9890 N   0  0  0  0  0  0  0  0  0  0  0  0
  183.1890  177.9710  137.6590 C   0  0  2  0  0  3  0  0  0  0  0  0
  185.6950  178.8680  137.9690 O   0  0  0  0  0  1  0  0  0  0  0  0
  182.3200  179.2140  139.4880 C   0  0  2  0  0  3  0  0  0  0  0  0
  1 21  1  0  0  0  0
  1  6  1  0  0  0  0
  4 22  1  0  0  0  0
  5 27  1  6  0  0  0
  5 17  1  0  0  0  0
  6 23  1  0  0  0  0
  7  8  2  0  0  0  0
  8  2  2  0  0  0  0
  9 18  1  6  0  0  0
 10  8  1  1  0  0  0
 10 28  1  0  0  0  0
 12 25  1  1  0  0  0
 13  9  1  0  0  0  0
 13 26  1  0  0  0  0
 14  9  1  0  0  0  0
 14  8  1  0  0  0  0
 15 23  1  0  0  0  0
 15 11  2  0  0  0  0
 16  1  2  0  0  0  0
 17  3  2  0  0  0  0
 17 25  1  0  0  0  0
 19 15  1  0  0  0  0
 20  4  2  0  0  0  0
 20 16  1  0  0  0  0
 22 21  2  0  0  0  0
 24  5  1  0  0  0  0
 24 12  1  0  0  0  0
 25 19  1  0  0  0  0
 26 10  1  0  0  0  0
 26 24  1  0  0  0  0
 28 12  1  0  0  0  0
 28 16  1  0  0  0  0
M  END
>  <MODEL>
2

>  <REMARK>
 VINA RESULT:      -5.6      2.028      5.169
  Name = 
  0 active torsions:
  status: ('A' for Active; 'I' for Inactive)
                            x       y       z     vdW  Elec       q    Type
                         _______ _______ _______ _____ _____    ______ ____

>  <TORSDO>
F 0

$$$$
=
 OpenBabel11122411583D

 28 32  0  0  1  0  0  0  0  0999 V2000
  182.8160  176.9080  137.0760 C   0  0  0  0  0  0  0  0  0  0  0  0
  184.2870  174.0960  136.9860 O   0  0  0  0  0  0  0  0  0  0  0  0
  188.2050  179.4010  137.4160 O   0  0  0  0  0  0  0  0  0  0  0  0
  181.5820  177.3430  134.5940 C   0  0  0  0  0  3  0  0  0  0  0  0
  188.3520  177.1690  136.5260 C   0  0  1  0  0  3  0  0  0  0  0  0
  183.3900  176.8320  138.4470 C   0  0  0  0  0  2  0  0  0  0  0  0
  183.4410  173.7850  134.7060 O   0  0  0  0  0  0  0  0  0  0  0  0
  184.6730  174.0120  135.5350 S   0  0  0  0  0  0  0  0  0  0  0  0
  187.0400  173.1220  135.8520 C   0  0  1  0  0  3  0  0  0  0  0  0
  185.4950  175.5220  134.9850 C   0  0  2  0  0  3  0  0  0  0  0  0
  184.4800  180.2360  139.0640 O   0  0  0  0  0  0  0  0  0  0  0  0
  185.9840  176.6720  137.0790 C   0  0  1  0  0  3  0  0  0  0  0  0
  187.6150  174.1360  134.9720 N   0  0  0  0  0  2  0  0  0  0  0  0
  185.7580  172.6870  135.3240 N   0  0  0  0  0  2  0  0  0  0  0  0
  184.5900  178.9850  138.9820 C   0  0  0  0  0  0  0  0  0  0  0  0
  183.6090  176.9770  135.9010 C   0  0  0  0  0  0  0  0  0  0  0  0
  187.6540  178.2930  137.1770 C   0  0  0  0  0  0  0  0  0  0  0  0
  187.9770  171.9370  135.9310 C   0  0  0  0  0  1  0  0  0  0  0  0
  185.9480  178.3740  138.9350 C   0  0  0  0  0  2  0  0  0  0  0  0
  182.9680  177.2030  134.6730 C   0  0  0  0  0  3  0  0  0  0  0  0
  181.4250  177.0500  136.9820 C   0  0  0  0  0  3  0  0  0  0  0  0
  180.8090  177.2590  135.7490 C   0  0  0  0  0  3  0  0  0  0  0  0
  183.4180  178.1740  139.0050 N   0  0  0  0  0  2  0  0  0  0  0  0
  187.3020  176.0390  136.5840 C   0  0  1  0  0  3  0  0  0  0  0  0
  186.3310  177.9950  137.5820 N   0  0  0  0  0  0  0  0  0  0  0  0
  187.0010  175.4480  135.2040 C   0  0  2  0  0  3  0  0  0  0  0  0
  188.6880  177.5300  135.2170 O   0  0  0  0  0  1  0  0  0  0  0  0
  185.1060  176.7410  135.8230 C   0  0  2  0  0  3  0  0  0  0  0  0
  1  6  1  0  0  0  0
  4 20  2  0  0  0  0
  4 22  1  0  0  0  0
  5 27  1  6  0  0  0
  5 24  1  0  0  0  0
  5 17  1  0  0  0  0
  6 23  1  0  0  0  0
  7  8  2  0  0  0  0
  8  2  2  0  0  0  0
  9 18  1  6  0  0  0
 10 26  1  0  0  0  0
 10  8  1  1  0  0  0
 10 28  1  0  0  0  0
 12 25  1  6  0  0  0
 13 26  1  0  0  0  0
 13  9  1  0  0  0  0
 14  8  1  0  0  0  0
 14  9  1  0  0  0  0
 15 23  1  0  0  0  0
 15 11  2  0  0  0  0
 16  1  2  0  0  0  0
 17  3  2  0  0  0  0
 17 25  1  0  0  0  0
 19 15  1  0  0  0  0
 20 16  1  0  0  0  0
 21  1  1  0  0  0  0
 22 21  2  0  0  0  0
 24 12  1  0  0  0  0
 25 19  1  0  0  0  0
 26 24  1  0  0  0  0
 28 16  1  0  0  0  0
 28 12  1  0  0  0  0
M  END
>  <MODEL>
3

>  <REMARK>
 VINA RESULT:      -5.5      3.955      7.219
  Name = 
  0 active torsions:
  status: ('A' for Active; 'I' for Inactive)
                            x       y       z     vdW  Elec       q    Type
                         _______ _______ _______ _____ _____    ______ ____

>  <TORSDO>
F 0

$$$$
=
 OpenBabel11122411583D

 28 32  0  0  1  0  0  0  0  0999 V2000
  179.8770  180.2140  139.0480 C   0  0  0  0  0  0  0  0  0  0  0  0
  180.8060  177.4680  137.7550 O   0  0  0  0  0  0  0  0  0  0  0  0
  183.7840  179.1600  143.4070 O   0  0  0  0  0  0  0  0  0  0  0  0
  180.6840  182.3060  137.3620 C   0  0  0  0  0  3  0  0  0  0  0  0
  184.3270  177.8740  141.4450 C   0  0  1  0  0  3  0  0  0  0  0  0
  179.3650  179.2320  140.0430 C   0  0  0  0  0  2  0  0  0  0  0  0
  181.7040  178.7270  135.8530 O   0  0  0  0  0  0  0  0  0  0  0  0
  182.0630  177.8870  137.0460 S   0  0  0  0  0  0  0  0  0  0  0  0
  183.5170  175.9000  137.7030 C   0  0  1  0  0  3  0  0  0  0  0  0
  183.1510  178.8290  138.1360 C   0  0  2  0  0  3  0  0  0  0  0  0
  180.0020  180.8760  143.2130 O   0  0  0  0  0  0  0  0  0  0  0  0
  182.1800  178.4460  140.3390 C   0  0  1  0  0  3  0  0  0  0  0  0
  184.6090  176.7580  138.1540 N   0  0  0  0  0  2  0  0  0  0  0  0
  182.9030  176.4740  136.5180 N   0  0  0  0  0  2  0  0  0  0  0  0
  180.0440  179.9470  142.3640 C   0  0  0  0  0  0  0  0  0  0  0  0
  181.2580  180.4110  138.7870 C   0  0  0  0  0  0  0  0  0  0  0  0
  183.4590  178.7410  142.2630 C   0  0  0  0  0  0  0  0  0  0  0  0
  184.0630  174.5280  137.3700 C   0  0  0  0  0  1  0  0  0  0  0  0
  181.0260  178.8410  142.5430 C   0  0  0  0  0  2  0  0  0  0  0  0
  181.6360  181.4690  137.9460 C   0  0  0  0  0  3  0  0  0  0  0  0
  178.9320  181.0610  138.4550 C   0  0  0  0  0  3  0  0  0  0  0  0
  179.3300  182.0970  137.6100 C   0  0  0  0  0  3  0  0  0  0  0  0
  179.1090  179.9350  141.2890 N   0  0  0  0  0  2  0  0  0  0  0  0
  183.4340  177.5520  140.2280 C   0  0  1  0  0  3  0  0  0  0  0  0
  182.1920  179.0010  141.6870 N   0  0  0  0  0  0  0  0  0  0  0  0
  184.1010  177.9140  138.8990 C   0  0  2  0  0  3  0  0  0  0  0  0
  185.4850  178.5760  141.0970 O   0  0  0  0  0  1  0  0  0  0  0  0
  182.3910  179.5220  139.2670 C   0  0  2  0  0  3  0  0  0  0  0  0
  1  6  1  0  0  0  0
  4 22  2  0  0  0  0
  4 20  1  0  0  0  0
  5 27  1  6  0  0  0
  5 17  1  0  0  0  0
  6 23  1  0  0  0  0
  7  8  2  0  0  0  0
  8  2  2  0  0  0  0
  9 18  1  6  0  0  0
  9 13  1  0  0  0  0
 10  8  1  6  0  0  0
 10 26  1  0  0  0  0
 10 28  1  0  0  0  0
 12 25  1  1  0  0  0
 13 26  1  0  0  0  0
 14  8  1  0  0  0  0
 14  9  1  0  0  0  0
 15 19  1  0  0  0  0
 15 11  2  0  0  0  0
 16  1  1  0  0  0  0
 16 28  1  0  0  0  0
 17  3  2  0  0  0  0
 20 16  2  0  0  0  0
 21  1  2  0  0  0  0
 22 21  1  0  0  0  0
 23 15  1  0  0  0  0
 24 12  1  0  0  0  0
 24  5  1  0  0  0  0
 25 17  1  0  0  0  0
 25 19  1  0  0  0  0
 26 24  1  0  0  0  0
 28 12  1  0  0  0  0
M  END
>  <MODEL>
4

>  <REMARK>
 VINA RESULT:      -5.4      2.335      5.373
  Name = 
  0 active torsions:
  status: ('A' for Active; 'I' for Inactive)
                            x       y       z     vdW  Elec       q    Type
                         _______ _______ _______ _____ _____    ______ ____

>  <TORSDO>
F 0

$$$$
=
 OpenBabel11122411583D

 28 32  0  0  1  0  0  0  0  0999 V2000
  182.5650  179.8470  138.7240 C   0  0  0  0  0  0  0  0  0  0  0  0
  181.0240  177.8190  140.6190 O   0  0  0  0  0  0  0  0  0  0  0  0
  185.2940  175.1230  136.3560 O   0  0  0  0  0  0  0  0  0  0  0  0
  180.7080  181.0100  136.9710 C   0  0  0  0  0  3  0  0  0  0  0  0
  183.2630  174.4660  137.4690 C   0  0  1  0  0  3  0  0  0  0  0  0
  183.6730  179.3450  139.5810 C   0  0  0  0  0  2  0  0  0  0  0  0
  178.9310  178.4590  139.5130 O   0  0  0  0  0  0  0  0  0  0  0  0
  179.9230  177.3470  139.7100 S   0  0  0  0  0  0  0  0  0  0  0  0
  180.0300  174.8670  140.2870 C   0  0  1  0  0  3  0  0  0  0  0  0
  180.5700  176.8300  138.1060 C   0  0  2  0  0  3  0  0  0  0  0  0
  186.4290  179.0230  137.2450 O   0  0  0  0  0  0  0  0  0  0  0  0
  182.9720  176.7050  138.5010 C   0  0  1  0  0  3  0  0  0  0  0  0
  180.0750  174.4700  138.8830 N   0  0  0  0  0  2  0  0  0  0  0  0
  179.1330  176.0000  140.4460 N   0  0  0  0  0  2  0  0  0  0  0  0
  185.6160  178.6500  138.1300 C   0  0  0  0  0  0  0  0  0  0  0  0
  181.8410  179.0240  137.8230 C   0  0  0  0  0  0  0  0  0  0  0  0
  184.3330  175.4170  137.1170 C   0  0  0  0  0  0  0  0  0  0  0  0
  179.5250  173.7090  141.1190 C   0  0  0  0  0  1  0  0  0  0  0  0
  185.4410  177.1940  138.3920 C   0  0  0  0  0  2  0  0  0  0  0  0
  180.9240  179.6310  136.9520 C   0  0  0  0  0  3  0  0  0  0  0  0
  182.3390  181.2300  138.7340 C   0  0  0  0  0  3  0  0  0  0  0  0
  181.4110  181.8090  137.8690 C   0  0  0  0  0  3  0  0  0  0  0  0
  184.9320  179.6260  138.9120 N   0  0  0  0  0  2  0  0  0  0  0  0
  182.4310  175.2580  138.5000 C   0  0  1  0  0  3  0  0  0  0  0  0
  184.2330  176.6690  137.7710 N   0  0  0  0  0  0  0  0  0  0  0  0
  180.9540  175.3560  138.1100 C   0  0  2  0  0  3  0  0  0  0  0  0
  182.5360  174.1430  136.3190 O   0  0  0  0  0  1  0  0  0  0  0  0
  181.8960  177.5090  137.7620 C   0  0  2  0  0  3  0  0  0  0  0  0
  1 21  1  0  0  0  0
  1  6  1  0  0  0  0
  3 17  2  0  0  0  0
  4 22  1  0  0  0  0
  5 27  1  6  0  0  0
  5 24  1  0  0  0  0
  7  8  2  0  0  0  0
  8 14  1  0  0  0  0
  8  2  2  0  0  0  0
  9 14  1  0  0  0  0
  9 18  1  1  0  0  0
 10 26  1  0  0  0  0
 10  8  1  1  0  0  0
 11 15  2  0  0  0  0
 12 25  1  6  0  0  0
 13  9  1  0  0  0  0
 15 19  1  0  0  0  0
 15 23  1  0  0  0  0
 16  1  2  0  0  0  0
 17  5  1  0  0  0  0
 17 25  1  0  0  0  0
 20  4  2  0  0  0  0
 20 16  1  0  0  0  0
 22 21  2  0  0  0  0
 23  6  1  0  0  0  0
 24 12  1  0  0  0  0
 25 19  1  0  0  0  0
 26 24  1  0  0  0  0
 26 13  1  0  0  0  0
 28 16  1  0  0  0  0
 28 10  1  0  0  0  0
 28 12  1  0  0  0  0
M  END
>  <MODEL>
5

>  <REMARK>
 VINA RESULT:      -5.4      3.164      5.128
  Name = 
  0 active torsions:
  status: ('A' for Active; 'I' for Inactive)
                            x       y       z     vdW  Elec       q    Type
                         _______ _______ _______ _____ _____    ______ ____

>  <TORSDO>
F 0

$$$$
=
 OpenBabel11122411583D

 28 32  0  0  1  0  0  0  0  0999 V2000
  185.7180  175.0420  136.1890 C   0  0  0  0  0  0  0  0  0  0  0  0
  183.4010  176.8210  134.9490 O   0  0  0  0  0  0  0  0  0  0  0  0
  186.0380  179.0260  140.5930 O   0  0  0  0  0  0  0  0  0  0  0  0
  184.6130  172.6010  137.0230 C   0  0  0  0  0  3  0  0  0  0  0  0
  183.9160  179.1690  139.4660 C   0  0  1  0  0  3  0  0  0  0  0  0
  186.4670  176.2660  135.7930 C   0  0  0  0  0  2  0  0  0  0  0  0
  181.8400  174.9730  135.3470 O   0  0  0  0  0  0  0  0  0  0  0  0
  182.2170  176.3680  135.7580 S   0  0  0  0  0  0  0  0  0  0  0  0
  181.1810  178.6580  136.1780 C   0  0  1  0  0  3  0  0  0  0  0  0
  182.5800  176.3940  137.5260 C   0  0  2  0  0  3  0  0  0  0  0  0
  188.8070  176.7120  138.5280 O   0  0  0  0  0  0  0  0  0  0  0  0
  184.6590  177.6630  137.6380 C   0  0  1  0  0  3  0  0  0  0  0  0
  181.0590  178.4180  137.6130 N   0  0  0  0  0  2  0  0  0  0  0  0
  180.8930  177.4330  135.4520 N   0  0  0  0  0  2  0  0  0  0  0  0
  187.9020  177.0400  137.7170 C   0  0  0  0  0  0  0  0  0  0  0  0
  184.7120  175.0330  137.1890 C   0  0  0  0  0  0  0  0  0  0  0  0
  185.3060  178.7020  139.6200 C   0  0  0  0  0  0  0  0  0  0  0  0
  180.1940  179.7290  135.7640 C   0  0  0  0  0  1  0  0  0  0  0  0
  187.0820  178.2530  137.9920 C   0  0  0  0  0  2  0  0  0  0  0  0
  184.1810  173.7990  137.5940 C   0  0  0  0  0  3  0  0  0  0  0  0
  186.1440  173.8320  135.6240 C   0  0  0  0  0  3  0  0  0  0  0  0
  185.5910  172.6190  136.0310 C   0  0  0  0  0  3  0  0  0  0  0  0
  187.7250  176.2870  136.5200 N   0  0  0  0  0  2  0  0  0  0  0  0
  183.5200  178.6060  138.0840 C   0  0  1  0  0  3  0  0  0  0  0  0
  185.7750  177.9170  138.5400 N   0  0  0  0  0  0  0  0  0  0  0  0
  182.2530  177.7500  138.1410 C   0  0  2  0  0  3  0  0  0  0  0  0
  183.1360  178.6520  140.5050 O   0  0  0  0  0  1  0  0  0  0  0  0
  184.0740  176.2570  137.8210 C   0  0  2  0  0  3  0  0  0  0  0  0
  1 16  1  0  0  0  0
  2  8  2  0  0  0  0
  4 20  1  0  0  0  0
  5 17  1  0  0  0  0
  5 27  1  1  0  0  0
  6  1  1  0  0  0  0
  6 23  1  0  0  0  0
  7  8  2  0  0  0  0
  9 18  1  6  0  0  0
  9 13  1  0  0  0  0
 10  8  1  6  0  0  0
 10 28  1  0  0  0  0
 10 26  1  0  0  0  0
 12 28  1  0  0  0  0
 12 24  1  0  0  0  0
 12 25  1  1  0  0  0
 13 26  1  0  0  0  0
 14  8  1  0  0  0  0
 14  9  1  0  0  0  0
 15 19  1  0  0  0  0
 15 11  2  0  0  0  0
 16 20  2  0  0  0  0
 16 28  1  0  0  0  0
 17  3  2  0  0  0  0
 19 25  1  0  0  0  0
 21 22  1  0  0  0  0
 21  1  2  0  0  0  0
 22  4  2  0  0  0  0
 23 15  1  0  0  0  0
 24 26  1  0  0  0  0
 24  5  1  0  0  0  0
 25 17  1  0  0  0  0
M  END
>  <MODEL>
6

>  <REMARK>
 VINA RESULT:      -5.2      3.078      4.086
  Name = 
  0 active torsions:
  status: ('A' for Active; 'I' for Inactive)
                            x       y       z     vdW  Elec       q    Type
                         _______ _______ _______ _____ _____    ______ ____

>  <TORSDO>
F 0

$$$$
=
 OpenBabel11122411583D

 28 32  0  0  1  0  0  0  0  0999 V2000
  184.0870  175.9820  136.1200 C   0  0  0  0  0  0  0  0  0  0  0  0
  181.9310  178.2790  136.5080 O   0  0  0  0  0  0  0  0  0  0  0  0
  187.2380  178.5970  140.4330 O   0  0  0  0  0  0  0  0  0  0  0  0
  182.9510  173.5510  136.9390 C   0  0  0  0  0  3  0  0  0  0  0  0
  184.9300  179.2750  140.5320 C   0  0  1  0  0  3  0  0  0  0  0  0
  184.8350  177.1730  135.6320 C   0  0  0  0  0  2  0  0  0  0  0  0
  180.3390  176.5820  137.2820 O   0  0  0  0  0  0  0  0  0  0  0  0
  181.1660  177.7670  137.6970 S   0  0  0  0  0  0  0  0  0  0  0  0
  180.9770  179.9680  138.9680 C   0  0  1  0  0  3  0  0  0  0  0  0
  182.2770  177.2830  139.0350 C   0  0  2  0  0  3  0  0  0  0  0  0
  188.1850  176.6100  136.9050 O   0  0  0  0  0  0  0  0  0  0  0  0
  184.4140  178.2310  138.3400 C   0  0  1  0  0  3  0  0  0  0  0  0
  181.4590  179.3720  140.2110 N   0  0  0  0  0  2  0  0  0  0  0  0
  180.1250  179.0190  138.2710 N   0  0  0  0  0  2  0  0  0  0  0  0
  187.1130  177.2420  136.7130 C   0  0  0  0  0  0  0  0  0  0  0  0
  183.6620  175.8250  137.4640 C   0  0  0  0  0  0  0  0  0  0  0  0
  186.0950  178.6280  139.9020 C   0  0  0  0  0  0  0  0  0  0  0  0
  180.1810  181.2150  139.2860 C   0  0  0  0  0  1  0  0  0  0  0  0
  186.8020  178.4250  137.5630 C   0  0  0  0  0  2  0  0  0  0  0  0
  183.1030  174.5970  137.8500 C   0  0  0  0  0  3  0  0  0  0  0  0
  183.9280  174.9250  135.2150 C   0  0  0  0  0  3  0  0  0  0  0  0
  183.3570  173.7180  135.6170 C   0  0  0  0  0  3  0  0  0  0  0  0
  186.2540  176.8580  135.6430 N   0  0  0  0  0  2  0  0  0  0  0  0
  183.8420  179.1470  139.4440 C   0  0  1  0  0  3  0  0  0  0  0  0
  185.8400  178.1080  138.6100 N   0  0  0  0  0  0  0  0  0  0  0  0
  182.5770  178.4560  139.9600 C   0  0  2  0  0  3  0  0  0  0  0  0
  184.6040  178.5940  141.7090 O   0  0  0  0  0  1  0  0  0  0  0  0
  183.6700  176.9030  138.5320 C   0  0  2  0  0  3  0  0  0  0  0  0
  1 16  1  0  0  0  0
  2  8  2  0  0  0  0
  4 20  1  0  0  0  0
  5 27  1  1  0  0  0
  6 23  1  0  0  0  0
  6  1  1  0  0  0  0
  7  8  2  0  0  0  0
  8 14  1  0  0  0  0
  9 18  1  1  0  0  0
  9 13  1  0  0  0  0
 10  8  1  6  0  0  0
 10 26  1  0  0  0  0
 12 28  1  0  0  0  0
 12 25  1  1  0  0  0
 12 24  1  0  0  0  0
 14  9  1  0  0  0  0
 15 11  2  0  0  0  0
 15 19  1  0  0  0  0
 16 20  2  0  0  0  0
 16 28  1  0  0  0  0
 17  3  2  0  0  0  0
 17  5  1  0  0  0  0
 19 25  1  0  0  0  0
 21 22  1  0  0  0  0
 21  1  2  0  0  0  0
 22  4  2  0  0  0  0
 23 15  1  0  0  0  0
 24 26  1  0  0  0  0
 24  5  1  0  0  0  0
 25 17  1  0  0  0  0
 26 13  1  0  0  0  0
 28 10  1  0  0  0  0
M  END
>  <MODEL>
7

>  <REMARK>
 VINA RESULT:      -5.2      2.058      3.100
  Name = 
  0 active torsions:
  status: ('A' for Active; 'I' for Inactive)
                            x       y       z     vdW  Elec       q    Type
                         _______ _______ _______ _____ _____    ______ ____

>  <TORSDO>
F 0

$$$$
=
 OpenBabel11122411583D

 28 32  0  0  1  0  0  0  0  0999 V2000
  181.3470  178.2060  137.2890 C   0  0  0  0  0  0  0  0  0  0  0  0
  181.6170  175.0450  137.4060 O   0  0  0  0  0  0  0  0  0  0  0  0
  187.2820  178.4430  137.5740 O   0  0  0  0  0  0  0  0  0  0  0  0
  180.3610  178.9180  134.7610 C   0  0  0  0  0  3  0  0  0  0  0  0
  186.5500  176.2730  136.8310 C   0  0  1  0  0  3  0  0  0  0  0  0
  181.8560  178.0050  138.6730 C   0  0  0  0  0  2  0  0  0  0  0  0
  180.7000  174.9340  135.1350 O   0  0  0  0  0  0  0  0  0  0  0  0
  181.9300  174.7230  135.9720 S   0  0  0  0  0  0  0  0  0  0  0  0
  183.7710  173.0110  136.3910 C   0  0  1  0  0  3  0  0  0  0  0  0
  183.2680  175.7590  135.3430 C   0  0  2  0  0  3  0  0  0  0  0  0
  184.1800  180.7580  139.0940 O   0  0  0  0  0  0  0  0  0  0  0  0
  184.1780  176.7660  137.3680 C   0  0  1  0  0  3  0  0  0  0  0  0
  184.6870  173.6640  135.4590 N   0  0  0  0  0  2  0  0  0  0  0  0
  182.4180  173.0710  135.8660 N   0  0  0  0  0  2  0  0  0  0  0  0
  183.7980  179.5580  139.0930 C   0  0  0  0  0  0  0  0  0  0  0  0
  182.0970  177.8860  136.1280 C   0  0  0  0  0  0  0  0  0  0  0  0
  186.3450  177.6200  137.3950 C   0  0  0  0  0  0  0  0  0  0  0  0
  184.1790  171.5640  136.5620 C   0  0  0  0  0  1  0  0  0  0  0  0
  184.8140  178.4690  139.1120 C   0  0  0  0  0  2  0  0  0  0  0  0
  181.5850  178.2600  134.8760 C   0  0  0  0  0  3  0  0  0  0  0  0
  180.1180  178.8670  137.1590 C   0  0  0  0  0  3  0  0  0  0  0  0
  179.6220  179.2160  135.9040 C   0  0  0  0  0  3  0  0  0  0  0  0
  182.4040  179.2650  139.1450 N   0  0  0  0  0  2  0  0  0  0  0  0
  185.1460  175.6420  136.9400 C   0  0  1  0  0  3  0  0  0  0  0  0
  185.0120  177.8830  137.7930 N   0  0  0  0  0  0  0  0  0  0  0  0
  184.6300  175.1240  135.5950 C   0  0  2  0  0  3  0  0  0  0  0  0
  186.9910  176.3890  135.5090 O   0  0  0  0  0  1  0  0  0  0  0  0
  183.3860  177.0850  136.0940 C   0  0  2  0  0  3  0  0  0  0  0  0
  1  6  1  0  0  0  0
  4 20  2  0  0  0  0
  4 22  1  0  0  0  0
  5 27  1  6  0  0  0
  5 24  1  0  0  0  0
  5 17  1  0  0  0  0
  6 23  1  0  0  0  0
  7  8  2  0  0  0  0
  8  2  2  0  0  0  0
  9 18  1  6  0  0  0
 10 26  1  0  0  0  0
 10  8  1  1  0  0  0
 10 28  1  0  0  0  0
 12 25  1  6  0  0  0
 13 26  1  0  0  0  0
 13  9  1  0  0  0  0
 14  8  1  0  0  0  0
 14  9  1  0  0  0  0
 15 11  2  0  0  0  0
 15 19  1  0  0  0  0
 15 23  1  0  0  0  0
 16  1  2  0  0  0  0
 17  3  2  0  0  0  0
 17 25  1  0  0  0  0
 20 16  1  0  0  0  0
 21  1  1  0  0  0  0
 22 21  2  0  0  0  0
 24 12  1  0  0  0  0
 25 19  1  0  0  0  0
 26 24  1  0  0  0  0
 28 16  1  0  0  0  0
 28 12  1  0  0  0  0
M  END
>  <MODEL>
8

>  <REMARK>
 VINA RESULT:      -5.1      3.674      6.464
  Name = 
  0 active torsions:
  status: ('A' for Active; 'I' for Inactive)
                            x       y       z     vdW  Elec       q    Type
                         _______ _______ _______ _____ _____    ______ ____

>  <TORSDO>
F 0

$$$$
=
 OpenBabel11122411583D

 28 32  0  0  1  0  0  0  0  0999 V2000
  185.9350  175.5170  136.4820 C   0  0  0  0  0  0  0  0  0  0  0  0
  183.3660  175.0570  134.6740 O   0  0  0  0  0  0  0  0  0  0  0  0
  182.2830  177.7400  140.6160 O   0  0  0  0  0  0  0  0  0  0  0  0
  186.9760  173.0120  137.1990 C   0  0  0  0  0  3  0  0  0  0  0  0
  181.0690  176.3670  139.0550 C   0  0  1  0  0  3  0  0  0  0  0  0
  185.5290  176.9180  136.1850 C   0  0  0  0  0  2  0  0  0  0  0  0
  183.7510  172.6410  134.8350 O   0  0  0  0  0  0  0  0  0  0  0  0
  182.8390  173.7660  135.2360 S   0  0  0  0  0  0  0  0  0  0  0  0
  180.3690  174.3900  135.2920 C   0  0  1  0  0  3  0  0  0  0  0  0
  182.7230  173.8300  137.0360 C   0  0  2  0  0  3  0  0  0  0  0  0
  186.1350  178.6260  139.3270 O   0  0  0  0  0  0  0  0  0  0  0  0
  183.0110  176.2030  137.5180 C   0  0  1  0  0  3  0  0  0  0  0  0
  180.2190  173.9590  136.6800 N   0  0  0  0  0  2  0  0  0  0  0  0
  181.2620  173.4820  134.5940 N   0  0  0  0  0  2  0  0  0  0  0  0
  185.4720  178.2540  138.3240 C   0  0  0  0  0  0  0  0  0  0  0  0
  185.1410  174.6200  137.2420 C   0  0  0  0  0  0  0  0  0  0  0  0
  182.2550  177.1020  139.5290 C   0  0  0  0  0  0  0  0  0  0  0  0
  179.0150  174.3790  134.6160 C   0  0  0  0  0  1  0  0  0  0  0  0
  183.9870  178.3720  138.3470 C   0  0  0  0  0  2  0  0  0  0  0  0
  185.6880  173.3760  137.5940 C   0  0  0  0  0  3  0  0  0  0  0  0
  187.2260  175.1390  136.0910 C   0  0  0  0  0  3  0  0  0  0  0  0
  187.7430  173.8920  136.4390 C   0  0  0  0  0  3  0  0  0  0  0  0
  186.1560  177.7930  137.1620 N   0  0  0  0  0  2  0  0  0  0  0  0
  181.5060  175.8850  137.6550 C   0  0  1  0  0  3  0  0  0  0  0  0
  183.3410  177.0960  138.6210 N   0  0  0  0  0  0  0  0  0  0  0  0
  181.3720  174.3690  137.4880 C   0  0  2  0  0  3  0  0  0  0  0  0
  180.7980  175.3120  139.9310 O   0  0  0  0  0  1  0  0  0  0  0  0
  183.6960  174.8370  137.6510 C   0  0  2  0  0  3  0  0  0  0  0  0
  1 16  1  0  0  0  0
  2  8  2  0  0  0  0
  4 20  1  0  0  0  0
  5 17  1  0  0  0  0
  5 27  1  1  0  0  0
  6  1  1  0  0  0  0
  6 23  1  0  0  0  0
  7  8  2  0  0  0  0
  9 18  1  6  0  0  0
  9 13  1  0  0  0  0
 10  8  1  6  0  0  0
 10 26  1  0  0  0  0
 10 28  1  0  0  0  0
 12 28  1  0  0  0  0
 12 24  1  0  0  0  0
 12 25  1  1  0  0  0
 13 26  1  0  0  0  0
 14  8  1  0  0  0  0
 14  9  1  0  0  0  0
 15 19  1  0  0  0  0
 15 11  2  0  0  0  0
 16 20  2  0  0  0  0
 16 28  1  0  0  0  0
 17  3  2  0  0  0  0
 19 25  1  0  0  0  0
 21 22  1  0  0  0  0
 21  1  2  0  0  0  0
 22  4  2  0  0  0  0
 23 15  1  0  0  0  0
 24  5  1  0  0  0  0
 25 17  1  0  0  0  0
 26 24  1  0  0  0  0
M  END
>  <MODEL>
9

>  <REMARK>
 VINA RESULT:      -5.1      3.807      5.426
  Name = 
  0 active torsions:
  status: ('A' for Active; 'I' for Inactive)
                            x       y       z     vdW  Elec       q    Type
                         _______ _______ _______ _____ _____    ______ ____

>  <TORSDO>
F 0

$$$$
