=
 OpenBabel11122411103D

 31 35  0  0  0  0  0  0  0  0999 V2000
  185.1960  178.5120  145.1360 C   0  0  0  0  0  0  0  0  0  0  0  0
  188.6730  177.2340  144.4570 C   0  0  0  0  0  0  0  0  0  0  0  0
  189.2910  177.0530  145.7330 C   0  0  0  0  0  0  0  0  0  0  0  0
  189.5130  177.8770  148.0730 C   0  0  0  0  0  0  0  0  0  0  0  0
  187.3370  177.7080  144.2730 C   0  0  0  0  0  0  0  0  0  0  0  0
  184.7050  178.6430  143.8380 C   0  0  0  0  0  3  0  0  0  0  0  0
  188.5830  177.2950  147.0450 C   0  0  0  0  0  2  0  0  0  0  0  0
  188.9060  177.0760  142.0050 C   0  0  0  0  0  0  0  0  0  0  0  0
  184.3910  178.8400  146.2180 O   0  0  0  0  0  1  0  0  0  0  0  0
  191.3050  176.3000  144.6640 N   0  0  0  0  0  0  0  0  0  0  0  0
  189.0770  178.6460  148.9110 O   0  0  0  0  0  0  0  0  0  0  0  0
  187.5990  177.5380  141.8560 C   0  0  0  0  0  3  0  0  0  0  0  0
  189.4430  176.9250  143.2970 C   0  0  0  0  0  0  0  0  0  0  0  0
  186.4960  178.0500  145.3470 C   0  0  0  0  0  3  0  0  0  0  0  0
  190.9710  177.5040  148.0940 C   0  0  0  0  0  2  0  0  0  0  0  0
  186.8200  177.8510  142.9600 C   0  0  0  0  0  0  0  0  0  0  0  0
  185.5160  178.3140  142.7530 C   0  0  0  0  0  3  0  0  0  0  0  0
  190.7530  176.4610  143.4390 C   0  0  0  0  0  3  0  0  0  0  0  0
  190.6200  176.5850  145.7960 C   0  0  0  0  0  0  0  0  0  0  0  0
  191.2790  176.3610  147.1250 C   0  0  0  0  0  2  0  0  0  0  0  0
  189.1980  178.5840  139.4950 O   0  0  0  0  0  0  0  0  0  0  0  0
  189.8360  177.5080  139.6390 C   0  0  0  0  0  0  0  0  0  0  0  0
  189.7100  176.7530  140.8560 N   0  0  0  0  0  2  0  0  0  0  0  0
  192.2750  176.0230  136.4230 C   0  0  0  0  0  0  0  0  0  0  0  0
  190.1300  176.6470  137.3380 C   0  0  0  0  0  3  0  0  0  0  0  0
  193.0120  177.2570  140.1660 Cl  0  0  0  0  0  0  0  0  0  0  0  0
  193.0390  175.5410  135.3690 O   0  0  0  0  0  1  0  0  0  0  0  0
  190.8960  176.1620  136.2770 C   0  0  0  0  0  3  0  0  0  0  0  0
  192.1290  176.8560  138.6990 C   0  0  0  0  0  0  0  0  0  0  0  0
  190.7240  177.0010  138.5610 C   0  0  0  0  0  0  0  0  0  0  0  0
  192.8860  176.3690  137.6280 C   0  0  0  0  0  3  0  0  0  0  0  0
  1 14  1  0  0  0  0
  1  9  1  0  0  0  0
  2  3  1  0  0  0  0
  3 19  2  0  0  0  0
  3  7  1  0  0  0  0
  4 15  1  0  0  0  0
  4 11  2  0  0  0  0
  5  2  1  0  0  0  0
  5 14  2  0  0  0  0
  6  1  2  0  0  0  0
  7  4  1  0  0  0  0
  8 13  1  0  0  0  0
 10 19  1  0  0  0  0
 12  8  2  0  0  0  0
 12 16  1  0  0  0  0
 13 18  1  0  0  0  0
 13  2  2  0  0  0  0
 16  5  1  0  0  0  0
 17 16  2  0  0  0  0
 17  6  1  0  0  0  0
 18 10  2  0  0  0  0
 19 20  1  0  0  0  0
 20 15  1  0  0  0  0
 21 22  2  0  0  0  0
 22 23  1  0  0  0  0
 23  8  1  0  0  0  0
 24 31  1  0  0  0  0
 25 30  2  0  0  0  0
 27 24  1  0  0  0  0
 28 24  2  0  0  0  0
 28 25  1  0  0  0  0
 29 26  1  0  0  0  0
 30 29  1  0  0  0  0
 30 22  1  0  0  0  0
 31 29  2  0  0  0  0
M  END
>  <MODEL>
1

>  <REMARK>
 VINA RESULT:     -11.1      0.000      0.000
  Name = 
  2 active torsions:
  status: ('A' for Active; 'I' for Inactive)
    1  A    between atoms: C_5  and  C_30
    2  A    between atoms: C_10  and  N_16
                            x       y       z     vdW  Elec       q    Type
                         _______ _______ _______ _____ _____    ______ ____

>  <TORSDO>
F 2

$$$$
=
 OpenBabel11122411103D

 31 35  0  0  0  0  0  0  0  0999 V2000
  185.2850  178.4940  145.4550 C   0  0  0  0  0  0  0  0  0  0  0  0
  188.7020  177.2030  144.5370 C   0  0  0  0  0  0  0  0  0  0  0  0
  189.3990  177.0000  145.7670 C   0  0  0  0  0  0  0  0  0  0  0  0
  189.7780  177.7900  148.0980 C   0  0  0  0  0  0  0  0  0  0  0  0
  187.3600  177.6870  144.4460 C   0  0  0  0  0  0  0  0  0  0  0  0
  184.7120  178.6460  144.1940 C   0  0  0  0  0  3  0  0  0  0  0  0
  188.7790  177.2290  147.1250 C   0  0  0  0  0  2  0  0  0  0  0  0
  188.7750  177.0760  142.0720 C   0  0  0  0  0  0  0  0  0  0  0  0
  184.5540  178.8130  146.5920 O   0  0  0  0  0  1  0  0  0  0  0  0
  191.3340  176.2480  144.5610 N   0  0  0  0  0  0  0  0  0  0  0  0
  189.4020  178.5510  148.9730 O   0  0  0  0  0  0  0  0  0  0  0  0
  187.4640  177.5490  142.0140 C   0  0  0  0  0  3  0  0  0  0  0  0
  189.3920  176.9050  143.3250 C   0  0  0  0  0  0  0  0  0  0  0  0
  186.5920  178.0200  145.5760 C   0  0  0  0  0  3  0  0  0  0  0  0
  191.2310  177.4070  148.0200 C   0  0  0  0  0  2  0  0  0  0  0  0
  186.7600  177.8530  143.1710 C   0  0  0  0  0  0  0  0  0  0  0  0
  185.4500  178.3260  143.0540 C   0  0  0  0  0  3  0  0  0  0  0  0
  190.7060  176.4290  143.3760 C   0  0  0  0  0  3  0  0  0  0  0  0
  190.7250  176.5220  145.7380 C   0  0  0  0  0  0  0  0  0  0  0  0
  191.4670  176.2760  147.0180 C   0  0  0  0  0  2  0  0  0  0  0  0
  189.0200  178.6790  139.6170 O   0  0  0  0  0  0  0  0  0  0  0  0
  189.6050  177.5650  139.6810 C   0  0  0  0  0  0  0  0  0  0  0  0
  189.5000  176.7640  140.8690 N   0  0  0  0  0  2  0  0  0  0  0  0
  192.0600  176.0980  136.4680 C   0  0  0  0  0  0  0  0  0  0  0  0
  191.7580  176.7510  138.7730 C   0  0  0  0  0  3  0  0  0  0  0  0
  188.2240  177.2230  136.7820 Cl  0  0  0  0  0  0  0  0  0  0  0  0
  192.8740  175.6230  135.4490 O   0  0  0  0  0  1  0  0  0  0  0  0
  192.5790  176.2740  137.7500 C   0  0  0  0  0  3  0  0  0  0  0  0
  189.8900  176.8780  137.2280 C   0  0  0  0  0  0  0  0  0  0  0  0
  190.4080  177.0620  138.5370 C   0  0  0  0  0  0  0  0  0  0  0  0
  190.7230  176.3990  136.2120 C   0  0  0  0  0  3  0  0  0  0  0  0
  1 14  1  0  0  0  0
  1  9  1  0  0  0  0
  2  3  1  0  0  0  0
  3  7  1  0  0  0  0
  4 11  2  0  0  0  0
  5  2  1  0  0  0  0
  5 14  2  0  0  0  0
  6  1  2  0  0  0  0
  7  4  1  0  0  0  0
  8 13  1  0  0  0  0
 10 19  1  0  0  0  0
 12  8  2  0  0  0  0
 12 16  1  0  0  0  0
 13 18  1  0  0  0  0
 13  2  2  0  0  0  0
 15  4  1  0  0  0  0
 16  5  1  0  0  0  0
 17 16  2  0  0  0  0
 17  6  1  0  0  0  0
 18 10  2  0  0  0  0
 19  3  2  0  0  0  0
 19 20  1  0  0  0  0
 20 15  1  0  0  0  0
 21 22  2  0  0  0  0
 22 23  1  0  0  0  0
 23  8  1  0  0  0  0
 24 28  1  0  0  0  0
 26 29  1  0  0  0  0
 27 24  1  0  0  0  0
 28 25  2  0  0  0  0
 29 30  2  0  0  0  0
 30 25  1  0  0  0  0
 30 22  1  0  0  0  0
 31 24  2  0  0  0  0
 31 29  1  0  0  0  0
M  END
>  <MODEL>
2

>  <REMARK>
 VINA RESULT:     -11.0      1.083      1.385
  Name = 
  2 active torsions:
  status: ('A' for Active; 'I' for Inactive)
    1  A    between atoms: C_5  and  C_30
    2  A    between atoms: C_10  and  N_16
                            x       y       z     vdW  Elec       q    Type
                         _______ _______ _______ _____ _____    ______ ____

>  <TORSDO>
F 2

$$$$
=
 OpenBabel11122411103D

 31 35  0  0  0  0  0  0  0  0999 V2000
  191.6630  177.3770  141.2600 C   0  0  0  0  0  0  0  0  0  0  0  0
  189.0180  177.5290  143.9370 C   0  0  0  0  0  0  0  0  0  0  0  0
  189.7030  177.4120  145.1860 C   0  0  0  0  0  0  0  0  0  0  0  0
  191.6060  176.3940  146.4270 C   0  0  0  0  0  0  0  0  0  0  0  0
  189.6660  177.5200  142.6630 C   0  0  0  0  0  0  0  0  0  0  0  0
  190.8840  177.5030  140.1110 C   0  0  0  0  0  3  0  0  0  0  0  0
  191.2050  177.3140  145.3080 C   0  0  0  0  0  2  0  0  0  0  0  0
  186.8510  177.7820  142.7820 C   0  0  0  0  0  0  0  0  0  0  0  0
  193.0410  177.2440  141.1530 O   0  0  0  0  0  1  0  0  0  0  0  0
  187.6130  177.5620  146.3590 N   0  0  0  0  0  0  0  0  0  0  0  0
  192.6330  175.7450  146.3320 O   0  0  0  0  0  0  0  0  0  0  0  0
  187.5110  177.7720  141.5530 C   0  0  0  0  0  3  0  0  0  0  0  0
  187.5980  177.6610  143.9680 C   0  0  0  0  0  0  0  0  0  0  0  0
  191.0590  177.3860  142.5190 C   0  0  0  0  0  3  0  0  0  0  0  0
  190.7690  176.2820  147.6730 C   0  0  0  0  0  2  0  0  0  0  0  0
  188.8910  177.6430  141.4820 C   0  0  0  0  0  0  0  0  0  0  0  0
  189.5000  177.6350  140.2230 C   0  0  0  0  0  3  0  0  0  0  0  0
  186.9310  177.6740  145.1960 C   0  0  0  0  0  3  0  0  0  0  0  0
  188.9600  177.4290  146.3840 C   0  0  0  0  0  0  0  0  0  0  0  0
  189.6590  177.3350  147.7080 C   0  0  0  0  0  2  0  0  0  0  0  0
  185.1010  179.5400  141.1990 O   0  0  0  0  0  0  0  0  0  0  0  0
  184.5860  178.7820  142.0640 C   0  0  0  0  0  0  0  0  0  0  0  0
  185.4200  177.9150  142.8490 N   0  0  0  0  0  2  0  0  0  0  0  0
  180.3120  178.7370  142.5480 C   0  0  0  0  0  0  0  0  0  0  0  0
  182.2860  178.6420  141.1610 C   0  0  0  0  0  3  0  0  0  0  0  0
  183.4200  179.0560  145.0620 Cl  0  0  0  0  0  0  0  0  0  0  0  0
  178.9310  178.7200  142.6770 O   0  0  0  0  0  1  0  0  0  0  0  0
  180.8960  178.6240  141.2880 C   0  0  0  0  0  3  0  0  0  0  0  0
  182.5120  178.8860  143.5660 C   0  0  0  0  0  0  0  0  0  0  0  0
  183.1170  178.7720  142.2870 C   0  0  0  0  0  0  0  0  0  0  0  0
  181.1180  178.8670  143.6790 C   0  0  0  0  0  3  0  0  0  0  0  0
  1 14  1  0  0  0  0
  2 13  2  0  0  0  0
  2  3  1  0  0  0  0
  3  7  1  0  0  0  0
  3 19  2  0  0  0  0
  4 15  1  0  0  0  0
  5  2  1  0  0  0  0
  6 17  1  0  0  0  0
  6  1  2  0  0  0  0
  7  4  1  0  0  0  0
  8 23  1  0  0  0  0
  8 13  1  0  0  0  0
  9  1  1  0  0  0  0
 10 19  1  0  0  0  0
 11  4  2  0  0  0  0
 12  8  2  0  0  0  0
 13 18  1  0  0  0  0
 14  5  2  0  0  0  0
 15 20  1  0  0  0  0
 16 12  1  0  0  0  0
 16  5  1  0  0  0  0
 17 16  2  0  0  0  0
 18 10  2  0  0  0  0
 19 20  1  0  0  0  0
 21 22  2  0  0  0  0
 22 30  1  0  0  0  0
 22 23  1  0  0  0  0
 24 27  1  0  0  0  0
 24 31  1  0  0  0  0
 25 28  1  0  0  0  0
 25 30  2  0  0  0  0
 28 24  2  0  0  0  0
 29 31  2  0  0  0  0
 29 26  1  0  0  0  0
 30 29  1  0  0  0  0
M  END
>  <MODEL>
3

>  <REMARK>
 VINA RESULT:     -10.9      3.438      7.235
  Name = 
  2 active torsions:
  status: ('A' for Active; 'I' for Inactive)
    1  A    between atoms: C_5  and  C_30
    2  A    between atoms: C_10  and  N_16
                            x       y       z     vdW  Elec       q    Type
                         _______ _______ _______ _____ _____    ______ ____

>  <TORSDO>
F 2

$$$$
=
 OpenBabel11122411103D

 31 35  0  0  0  0  0  0  0  0999 V2000
  189.5600  177.4420  147.3530 C   0  0  0  0  0  0  0  0  0  0  0  0
  187.7990  177.8590  144.0500 C   0  0  0  0  0  0  0  0  0  0  0  0
  186.5240  178.4340  144.3440 C   0  0  0  0  0  0  0  0  0  0  0  0
  184.6180  178.5630  145.9420 C   0  0  0  0  0  0  0  0  0  0  0  0
  188.7820  177.5420  145.0370 C   0  0  0  0  0  0  0  0  0  0  0  0
  190.7690  176.8860  146.9390 C   0  0  0  0  0  3  0  0  0  0  0  0
  186.0840  178.8220  145.7360 C   0  0  0  0  0  2  0  0  0  0  0  0
  189.3370  177.0180  142.3130 C   0  0  0  0  0  0  0  0  0  0  0  0
  189.3300  177.6750  148.7020 O   0  0  0  0  0  1  0  0  0  0  0  0
  185.9670  178.4260  142.0080 N   0  0  0  0  0  0  0  0  0  0  0  0
  184.2130  178.2490  147.0480 O   0  0  0  0  0  0  0  0  0  0  0  0
  190.2790  176.7210  143.2970 C   0  0  0  0  0  3  0  0  0  0  0  0
  188.1040  177.5830  142.6840 C   0  0  0  0  0  0  0  0  0  0  0  0
  188.5810  177.7640  146.4120 C   0  0  0  0  0  3  0  0  0  0  0  0
  183.6410  178.7080  144.8060 C   0  0  0  0  0  2  0  0  0  0  0  0
  190.0180  176.9720  144.6370 C   0  0  0  0  0  0  0  0  0  0  0  0
  190.9960  176.6520  145.5830 C   0  0  0  0  0  3  0  0  0  0  0  0
  187.1640  177.8800  141.6920 C   0  0  0  0  0  3  0  0  0  0  0  0
  185.6270  178.7010  143.2890 C   0  0  0  0  0  0  0  0  0  0  0  0
  184.2950  179.3300  143.5710 C   0  0  0  0  0  2  0  0  0  0  0  0
  191.7430  177.7040  140.7630 O   0  0  0  0  0  0  0  0  0  0  0  0
  190.7980  177.0990  140.1900 C   0  0  0  0  0  0  0  0  0  0  0  0
  189.6130  176.7540  140.9250 N   0  0  0  0  0  2  0  0  0  0  0  0
  191.1910  175.9500  136.0630 C   0  0  0  0  0  0  0  0  0  0  0  0
  191.8940  175.8310  138.3700 C   0  0  0  0  0  3  0  0  0  0  0  0
  188.7240  178.3870  138.0760 Cl  0  0  0  0  0  0  0  0  0  0  0  0
  191.3400  175.5630  134.7390 O   0  0  0  0  0  1  0  0  0  0  0  0
  192.0460  175.4400  137.0390 C   0  0  0  0  0  3  0  0  0  0  0  0
  190.0240  177.2490  137.7510 C   0  0  0  0  0  0  0  0  0  0  0  0
  190.8900  176.7360  138.7520 C   0  0  0  0  0  0  0  0  0  0  0  0
  190.1870  176.8500  136.4200 C   0  0  0  0  0  3  0  0  0  0  0  0
  1  9  1  0  0  0  0
  2  3  1  0  0  0  0
  2  5  1  0  0  0  0
  3  7  1  0  0  0  0
  4 11  2  0  0  0  0
  5 14  1  0  0  0  0
  6  1  1  0  0  0  0
  7  4  1  0  0  0  0
  8 13  1  0  0  0  0
  8 12  2  0  0  0  0
 10 19  1  0  0  0  0
 12 16  1  0  0  0  0
 13  2  2  0  0  0  0
 14  1  2  0  0  0  0
 15  4  1  0  0  0  0
 16  5  2  0  0  0  0
 16 17  1  0  0  0  0
 17  6  2  0  0  0  0
 18 10  2  0  0  0  0
 18 13  1  0  0  0  0
 19 20  1  0  0  0  0
 19  3  2  0  0  0  0
 20 15  1  0  0  0  0
 22 21  2  0  0  0  0
 22 23  1  0  0  0  0
 23  8  1  0  0  0  0
 24 31  2  0  0  0  0
 24 28  1  0  0  0  0
 25 30  1  0  0  0  0
 27 24  1  0  0  0  0
 28 25  2  0  0  0  0
 29 26  1  0  0  0  0
 29 30  2  0  0  0  0
 30 22  1  0  0  0  0
 31 29  1  0  0  0  0
M  END
>  <MODEL>
4

>  <REMARK>
 VINA RESULT:     -10.7      1.548      4.221
  Name = 
  2 active torsions:
  status: ('A' for Active; 'I' for Inactive)
    1  A    between atoms: C_5  and  C_30
    2  A    between atoms: C_10  and  N_16
                            x       y       z     vdW  Elec       q    Type
                         _______ _______ _______ _____ _____    ______ ____

>  <TORSDO>
F 2

$$$$
=
 OpenBabel11122411103D

 31 35  0  0  0  0  0  0  0  0999 V2000
  186.8170  177.8690  146.5900 C   0  0  0  0  0  0  0  0  0  0  0  0
  187.2220  178.0210  142.8490 C   0  0  0  0  0  0  0  0  0  0  0  0
  188.5470  177.5640  142.5690 C   0  0  0  0  0  0  0  0  0  0  0  0
  190.9190  177.4740  143.3210 C   0  0  0  0  0  0  0  0  0  0  0  0
  186.6670  178.1140  144.1620 C   0  0  0  0  0  0  0  0  0  0  0  0
  185.5090  178.3270  146.7330 C   0  0  0  0  0  3  0  0  0  0  0  0
  189.5030  177.0760  143.6310 C   0  0  0  0  0  2  0  0  0  0  0  0
  185.0920  178.8720  141.9370 C   0  0  0  0  0  0  0  0  0  0  0  0
  187.5540  177.5140  147.7120 O   0  0  0  0  0  1  0  0  0  0  0  0
  188.1780  177.8950  140.2190 N   0  0  0  0  0  0  0  0  0  0  0  0
  191.6910  177.7060  144.2350 O   0  0  0  0  0  0  0  0  0  0  0  0
  184.5760  178.9510  143.2300 C   0  0  0  0  0  3  0  0  0  0  0  0
  186.4070  178.4120  141.7450 C   0  0  0  0  0  0  0  0  0  0  0  0
  187.3860  177.7650  145.3200 C   0  0  0  0  0  3  0  0  0  0  0  0
  191.4010  177.5660  141.8980 C   0  0  0  0  0  2  0  0  0  0  0  0
  185.3380  178.5820  144.3300 C   0  0  0  0  0  0  0  0  0  0  0  0
  184.7720  178.6840  145.6040 C   0  0  0  0  0  3  0  0  0  0  0  0
  186.9180  178.3350  140.4460 C   0  0  0  0  0  3  0  0  0  0  0  0
  188.9930  177.5180  141.2320 C   0  0  0  0  0  0  0  0  0  0  0  0
  190.3700  177.0160  140.9120 C   0  0  0  0  0  2  0  0  0  0  0  0
  182.9900  177.3310  140.5710 O   0  0  0  0  0  0  0  0  0  0  0  0
  183.2740  178.4850  140.1510 C   0  0  0  0  0  0  0  0  0  0  0  0
  184.2960  179.2570  140.8010 N   0  0  0  0  0  2  0  0  0  0  0  0
  181.2000  180.3030  136.8510 C   0  0  0  0  0  0  0  0  0  0  0  0
  182.1390  180.4010  139.0720 C   0  0  0  0  0  3  0  0  0  0  0  0
  182.7530  176.6700  137.5310 Cl  0  0  0  0  0  0  0  0  0  0  0  0
  180.5280  180.9130  135.8010 O   0  0  0  0  0  1  0  0  0  0  0  0
  181.4640  181.0170  138.0180 C   0  0  0  0  0  3  0  0  0  0  0  0
  182.2870  178.3460  137.7900 C   0  0  0  0  0  0  0  0  0  0  0  0
  182.5620  179.0640  138.9830 C   0  0  0  0  0  0  0  0  0  0  0  0
  181.6100  178.9750  136.7400 C   0  0  0  0  0  3  0  0  0  0  0  0
  1  6  1  0  0  0  0
  1  9  1  0  0  0  0
  2  5  1  0  0  0  0
  3  2  1  0  0  0  0
  3  7  1  0  0  0  0
  4  7  1  0  0  0  0
  4 11  2  0  0  0  0
  5 16  2  0  0  0  0
  5 14  1  0  0  0  0
  8 12  2  0  0  0  0
 10 18  2  0  0  0  0
 10 19  1  0  0  0  0
 12 16  1  0  0  0  0
 13  8  1  0  0  0  0
 13  2  2  0  0  0  0
 14  1  2  0  0  0  0
 15  4  1  0  0  0  0
 16 17  1  0  0  0  0
 17  6  2  0  0  0  0
 18 13  1  0  0  0  0
 19  3  2  0  0  0  0
 20 19  1  0  0  0  0
 20 15  1  0  0  0  0
 22 21  2  0  0  0  0
 22 23  1  0  0  0  0
 23  8  1  0  0  0  0
 24 28  1  0  0  0  0
 26 29  1  0  0  0  0
 27 24  1  0  0  0  0
 28 25  2  0  0  0  0
 29 30  2  0  0  0  0
 30 25  1  0  0  0  0
 30 22  1  0  0  0  0
 31 24  2  0  0  0  0
 31 29  1  0  0  0  0
M  END
>  <MODEL>
5

>  <REMARK>
 VINA RESULT:     -10.3      4.380      6.709
  Name = 
  2 active torsions:
  status: ('A' for Active; 'I' for Inactive)
    1  A    between atoms: C_5  and  C_30
    2  A    between atoms: C_10  and  N_16
                            x       y       z     vdW  Elec       q    Type
                         _______ _______ _______ _____ _____    ______ ____

>  <TORSDO>
F 2

$$$$
=
 OpenBabel11122411103D

 31 35  0  0  0  0  0  0  0  0999 V2000
  189.5280  177.5520  147.4930 C   0  0  0  0  0  0  0  0  0  0  0  0
  187.8660  177.8560  144.1270 C   0  0  0  0  0  0  0  0  0  0  0  0
  186.5720  178.4150  144.3660 C   0  0  0  0  0  0  0  0  0  0  0  0
  184.6150  178.5480  145.9000 C   0  0  0  0  0  0  0  0  0  0  0  0
  188.8230  177.5810  145.1520 C   0  0  0  0  0  0  0  0  0  0  0  0
  190.7600  177.0080  147.1310 C   0  0  0  0  0  3  0  0  0  0  0  0
  186.0820  178.8290  145.7340 C   0  0  0  0  0  2  0  0  0  0  0  0
  189.4740  177.0010  142.4600 C   0  0  0  0  0  0  0  0  0  0  0  0
  189.2510  177.8130  148.8280 O   0  0  0  0  0  1  0  0  0  0  0  0
  186.0910  178.3390  142.0150 N   0  0  0  0  0  0  0  0  0  0  0  0
  184.1810  178.2530  147.0000 O   0  0  0  0  0  0  0  0  0  0  0  0
  190.3880  176.7450  143.4810 C   0  0  0  0  0  3  0  0  0  0  0  0
  188.2190  177.5520  142.7790 C   0  0  0  0  0  0  0  0  0  0  0  0
  188.5740  177.8330  146.5140 C   0  0  0  0  0  3  0  0  0  0  0  0
  183.6720  178.6480  144.7310 C   0  0  0  0  0  2  0  0  0  0  0  0
  190.0810  177.0250  144.8050 C   0  0  0  0  0  0  0  0  0  0  0  0
  191.0340  176.7450  145.7890 C   0  0  0  0  0  3  0  0  0  0  0  0
  187.3070  177.8080  141.7500 C   0  0  0  0  0  3  0  0  0  0  0  0
  185.7060  178.6400  143.2770 C   0  0  0  0  0  0  0  0  0  0  0  0
  184.3540  179.2510  143.5010 C   0  0  0  0  0  2  0  0  0  0  0  0
  191.8140  177.8780  140.9070 O   0  0  0  0  0  0  0  0  0  0  0  0
  190.9500  177.1490  140.3520 C   0  0  0  0  0  0  0  0  0  0  0  0
  189.7980  176.7080  141.0890 N   0  0  0  0  0  2  0  0  0  0  0  0
  191.2320  175.9690  136.2250 C   0  0  0  0  0  0  0  0  0  0  0  0
  189.9470  176.6960  138.1350 C   0  0  0  0  0  3  0  0  0  0  0  0
  193.8720  176.3800  139.2140 Cl  0  0  0  0  0  0  0  0  0  0  0  0
  191.2950  175.5920  134.8910 O   0  0  0  0  0  1  0  0  0  0  0  0
  190.0080  176.3160  136.7940 C   0  0  0  0  0  3  0  0  0  0  0  0
  192.3440  176.3790  138.3440 C   0  0  0  0  0  0  0  0  0  0  0  0
  191.1030  176.7350  138.9330 C   0  0  0  0  0  0  0  0  0  0  0  0
  192.3920  176.0010  136.9980 C   0  0  0  0  0  3  0  0  0  0  0  0
  1  9  1  0  0  0  0
  2  3  1  0  0  0  0
  2  5  1  0  0  0  0
  3  7  1  0  0  0  0
  4 11  2  0  0  0  0
  5 14  1  0  0  0  0
  6  1  1  0  0  0  0
  7  4  1  0  0  0  0
  8 13  1  0  0  0  0
  8 12  2  0  0  0  0
 10 19  1  0  0  0  0
 12 16  1  0  0  0  0
 13  2  2  0  0  0  0
 14  1  2  0  0  0  0
 15  4  1  0  0  0  0
 16  5  2  0  0  0  0
 16 17  1  0  0  0  0
 17  6  2  0  0  0  0
 18 10  2  0  0  0  0
 18 13  1  0  0  0  0
 19 20  1  0  0  0  0
 19  3  2  0  0  0  0
 20 15  1  0  0  0  0
 22 21  2  0  0  0  0
 22 23  1  0  0  0  0
 23  8  1  0  0  0  0
 24 28  2  0  0  0  0
 24 31  1  0  0  0  0
 25 30  2  0  0  0  0
 27 24  1  0  0  0  0
 28 25  1  0  0  0  0
 29 30  1  0  0  0  0
 29 26  1  0  0  0  0
 30 22  1  0  0  0  0
 31 29  2  0  0  0  0
M  END
>  <MODEL>
6

>  <REMARK>
 VINA RESULT:     -10.3      1.274      4.064
  Name = 
  2 active torsions:
  status: ('A' for Active; 'I' for Inactive)
    1  A    between atoms: C_5  and  C_30
    2  A    between atoms: C_10  and  N_16
                            x       y       z     vdW  Elec       q    Type
                         _______ _______ _______ _____ _____    ______ ____

>  <TORSDO>
F 2

$$$$
=
 OpenBabel11122411103D

 31 35  0  0  0  0  0  0  0  0999 V2000
  183.1950  178.9580  139.0320 C   0  0  0  0  0  0  0  0  0  0  0  0
  186.8600  178.3180  139.6150 C   0  0  0  0  0  0  0  0  0  0  0  0
  187.4680  178.2530  138.3230 C   0  0  0  0  0  0  0  0  0  0  0  0
  187.2190  177.5760  135.9400 C   0  0  0  0  0  0  0  0  0  0  0  0
  185.4670  178.5510  139.8360 C   0  0  0  0  0  0  0  0  0  0  0  0
  182.7230  179.0030  140.3430 C   0  0  0  0  0  3  0  0  0  0  0  0
  186.7120  178.4730  137.0340 C   0  0  0  0  0  2  0  0  0  0  0  0
  187.1780  178.1850  142.0600 C   0  0  0  0  0  0  0  0  0  0  0  0
  182.3160  179.1360  137.9720 O   0  0  0  0  0  1  0  0  0  0  0  0
  189.6080  177.8500  139.3360 N   0  0  0  0  0  0  0  0  0  0  0  0
  186.4470  177.1760  135.0850 O   0  0  0  0  0  0  0  0  0  0  0  0
  185.8160  178.4160  142.2450 C   0  0  0  0  0  3  0  0  0  0  0  0
  187.7000  178.1340  140.7540 C   0  0  0  0  0  0  0  0  0  0  0  0
  184.5510  178.7340  138.7850 C   0  0  0  0  0  3  0  0  0  0  0  0
  188.6710  177.1860  135.8710 C   0  0  0  0  0  2  0  0  0  0  0  0
  184.9660  178.5960  141.1620 C   0  0  0  0  0  0  0  0  0  0  0  0
  183.6080  178.8220  141.4050 C   0  0  0  0  0  3  0  0  0  0  0  0
  189.0670  177.9040  140.5750 C   0  0  0  0  0  3  0  0  0  0  0  0
  188.8530  178.0120  138.2240 C   0  0  0  0  0  0  0  0  0  0  0  0
  189.5170  177.9660  136.8790 C   0  0  0  0  0  2  0  0  0  0  0  0
  188.1540  175.6630  143.2180 O   0  0  0  0  0  0  0  0  0  0  0  0
  188.5170  176.7530  143.7340 C   0  0  0  0  0  0  0  0  0  0  0  0
  188.0540  177.9980  143.1860 N   0  0  0  0  0  2  0  0  0  0  0  0
  191.2650  176.7590  147.0430 C   0  0  0  0  0  0  0  0  0  0  0  0
  190.7670  176.4120  144.7060 C   0  0  0  0  0  3  0  0  0  0  0  0
  187.3680  177.6040  146.6290 Cl  0  0  0  0  0  0  0  0  0  0  0  0
  192.1720  176.7520  148.0930 O   0  0  0  0  0  1  0  0  0  0  0  0
  191.6810  176.4040  145.7610 C   0  0  0  0  0  3  0  0  0  0  0  0
  189.0110  177.1320  146.2200 C   0  0  0  0  0  0  0  0  0  0  0  0
  189.4240  176.7720  144.9100 C   0  0  0  0  0  0  0  0  0  0  0  0
  189.9370  177.1200  147.2680 C   0  0  0  0  0  3  0  0  0  0  0  0
  1  6  1  0  0  0  0
  2  5  2  0  0  0  0
  2 13  1  0  0  0  0
  3  2  1  0  0  0  0
  4  7  1  0  0  0  0
  5 16  1  0  0  0  0
  6 17  2  0  0  0  0
  7  3  1  0  0  0  0
  8 12  1  0  0  0  0
  8 23  1  0  0  0  0
  9  1  1  0  0  0  0
 10 18  2  0  0  0  0
 11  4  2  0  0  0  0
 13  8  2  0  0  0  0
 14  1  2  0  0  0  0
 14  5  1  0  0  0  0
 15  4  1  0  0  0  0
 15 20  1  0  0  0  0
 16 17  1  0  0  0  0
 16 12  2  0  0  0  0
 18 13  1  0  0  0  0
 19  3  2  0  0  0  0
 19 10  1  0  0  0  0
 20 19  1  0  0  0  0
 21 22  2  0  0  0  0
 22 30  1  0  0  0  0
 23 22  1  0  0  0  0
 24 31  1  0  0  0  0
 24 27  1  0  0  0  0
 25 30  2  0  0  0  0
 25 28  1  0  0  0  0
 28 24  2  0  0  0  0
 29 26  1  0  0  0  0
 29 31  2  0  0  0  0
 30 29  1  0  0  0  0
M  END
>  <MODEL>
7

>  <REMARK>
 VINA RESULT:     -10.0      3.271      7.858
  Name = 
  2 active torsions:
  status: ('A' for Active; 'I' for Inactive)
    1  A    between atoms: C_5  and  C_30
    2  A    between atoms: C_10  and  N_16
                            x       y       z     vdW  Elec       q    Type
                         _______ _______ _______ _____ _____    ______ ____

>  <TORSDO>
F 2

$$$$
=
 OpenBabel11122411103D

 31 35  0  0  0  0  0  0  0  0999 V2000
  187.9120  177.3390  146.4660 C   0  0  0  0  0  0  0  0  0  0  0  0
  187.3980  177.8960  142.7770 C   0  0  0  0  0  0  0  0  0  0  0  0
  188.5970  177.4580  142.1330 C   0  0  0  0  0  0  0  0  0  0  0  0
  191.0760  177.2610  142.2640 C   0  0  0  0  0  0  0  0  0  0  0  0
  187.1840  177.8500  144.1890 C   0  0  0  0  0  0  0  0  0  0  0  0
  186.6960  177.7930  146.9730 C   0  0  0  0  0  3  0  0  0  0  0  0
  189.7640  176.8460  142.8710 C   0  0  0  0  0  2  0  0  0  0  0  0
  185.1430  178.8630  142.5110 C   0  0  0  0  0  0  0  0  0  0  0  0
  188.8860  176.8560  147.3290 O   0  0  0  0  0  1  0  0  0  0  0  0
  187.6780  178.0470  139.9940 N   0  0  0  0  0  0  0  0  0  0  0  0
  192.0550  177.3840  142.9790 O   0  0  0  0  0  0  0  0  0  0  0  0
  184.9610  178.8050  143.8920 C   0  0  0  0  0  3  0  0  0  0  0  0
  186.3540  178.4130  141.9540 C   0  0  0  0  0  0  0  0  0  0  0  0
  188.1500  177.3690  145.0910 C   0  0  0  0  0  3  0  0  0  0  0  0
  191.2000  177.5030  140.7840 C   0  0  0  0  0  2  0  0  0  0  0  0
  185.9540  178.3110  144.7260 C   0  0  0  0  0  0  0  0  0  0  0  0
  185.7200  178.2790  146.1040 C   0  0  0  0  0  3  0  0  0  0  0  0
  186.5300  178.4730  140.5690 C   0  0  0  0  0  3  0  0  0  0  0  0
  188.7020  177.5540  140.7300 C   0  0  0  0  0  0  0  0  0  0  0  0
  189.9390  177.0750  140.0310 C   0  0  0  0  0  2  0  0  0  0  0  0
  183.1330  177.3660  140.9690 O   0  0  0  0  0  0  0  0  0  0  0  0
  183.1380  178.6250  140.9080 C   0  0  0  0  0  0  0  0  0  0  0  0
  184.1090  179.3780  141.6520 N   0  0  0  0  0  2  0  0  0  0  0  0
  180.3830  180.7390  138.3700 C   0  0  0  0  0  0  0  0  0  0  0  0
  182.5670  179.8110  138.8130 C   0  0  0  0  0  3  0  0  0  0  0  0
  180.1380  179.0800  142.0130 Cl  0  0  0  0  0  0  0  0  0  0  0  0
  179.5140  181.4240  137.5320 O   0  0  0  0  0  1  0  0  0  0  0  0
  181.6950  180.5000  137.9690 C   0  0  0  0  0  3  0  0  0  0  0  0
  180.8070  179.5970  140.4710 C   0  0  0  0  0  0  0  0  0  0  0  0
  182.1460  179.3490  140.0710 C   0  0  0  0  0  0  0  0  0  0  0  0
  179.9430  180.2880  139.6150 C   0  0  0  0  0  3  0  0  0  0  0  0
  1  6  1  0  0  0  0
  1  9  1  0  0  0  0
  2  5  1  0  0  0  0
  3  2  1  0  0  0  0
  3  7  1  0  0  0  0
  4  7  1  0  0  0  0
  4 11  2  0  0  0  0
  5 16  2  0  0  0  0
  5 14  1  0  0  0  0
  8 12  2  0  0  0  0
 10 18  2  0  0  0  0
 10 19  1  0  0  0  0
 12 16  1  0  0  0  0
 13  8  1  0  0  0  0
 13  2  2  0  0  0  0
 14  1  2  0  0  0  0
 15  4  1  0  0  0  0
 16 17  1  0  0  0  0
 17  6  2  0  0  0  0
 18 13  1  0  0  0  0
 19  3  2  0  0  0  0
 20 19  1  0  0  0  0
 20 15  1  0  0  0  0
 22 21  2  0  0  0  0
 22 23  1  0  0  0  0
 23  8  1  0  0  0  0
 24 31  1  0  0  0  0
 25 30  2  0  0  0  0
 27 24  1  0  0  0  0
 28 24  2  0  0  0  0
 28 25  1  0  0  0  0
 29 26  1  0  0  0  0
 30 29  1  0  0  0  0
 30 22  1  0  0  0  0
 31 29  2  0  0  0  0
M  END
>  <MODEL>
8

>  <REMARK>
 VINA RESULT:      -9.9      4.481      7.425
  Name = 
  2 active torsions:
  status: ('A' for Active; 'I' for Inactive)
    1  A    between atoms: C_5  and  C_30
    2  A    between atoms: C_10  and  N_16
                            x       y       z     vdW  Elec       q    Type
                         _______ _______ _______ _____ _____    ______ ____

>  <TORSDO>
F 2

$$$$
=
 OpenBabel11122411103D

 31 35  0  0  0  0  0  0  0  0999 V2000
  181.5670  179.0040  141.4550 C   0  0  0  0  0  0  0  0  0  0  0  0
  185.2770  178.4820  141.0740 C   0  0  0  0  0  0  0  0  0  0  0  0
  185.5410  178.4830  139.6700 C   0  0  0  0  0  0  0  0  0  0  0  0
  184.7200  177.8780  137.3980 C   0  0  0  0  0  0  0  0  0  0  0  0
  183.9790  178.6560  141.6460 C   0  0  0  0  0  0  0  0  0  0  0  0
  181.4390  178.9880  142.8430 C   0  0  0  0  0  3  0  0  0  0  0  0
  184.4800  178.7180  138.6210 C   0  0  0  0  0  2  0  0  0  0  0  0
  186.2040  178.2810  143.3530 C   0  0  0  0  0  0  0  0  0  0  0  0
  180.4450  179.1850  140.6570 O   0  0  0  0  0  1  0  0  0  0  0  0
  187.8780  178.1280  140.0960 N   0  0  0  0  0  0  0  0  0  0  0  0
  183.7690  177.4770  136.7490 O   0  0  0  0  0  0  0  0  0  0  0  0
  184.9270  178.4540  143.8830 C   0  0  0  0  0  3  0  0  0  0  0  0
  186.3810  178.2930  141.9570 C   0  0  0  0  0  0  0  0  0  0  0  0
  182.8220  178.8400  140.8670 C   0  0  0  0  0  3  0  0  0  0  0  0
  186.1180  177.5450  136.9520 C   0  0  0  0  0  2  0  0  0  0  0  0
  183.8270  178.6380  143.0560 C   0  0  0  0  0  0  0  0  0  0  0  0
  182.5680  178.8040  143.6410 C   0  0  0  0  0  3  0  0  0  0  0  0
  187.6650  178.1200  141.4320 C   0  0  0  0  0  3  0  0  0  0  0  0
  186.8640  178.2980  139.2160 C   0  0  0  0  0  0  0  0  0  0  0  0
  187.1680  178.3220  137.7470 C   0  0  0  0  0  2  0  0  0  0  0  0
  187.9390  175.9160  143.5940 O   0  0  0  0  0  0  0  0  0  0  0  0
  188.1730  176.9220  144.3150 C   0  0  0  0  0  0  0  0  0  0  0  0
  187.3400  178.0890  144.2150 N   0  0  0  0  0  2  0  0  0  0  0  0
  191.3490  176.9470  147.2160 C   0  0  0  0  0  0  0  0  0  0  0  0
  189.0120  177.1150  146.6350 C   0  0  0  0  0  3  0  0  0  0  0  0
  191.1860  176.4860  143.2360 Cl  0  0  0  0  0  0  0  0  0  0  0  0
  192.3550  176.9600  148.1720 O   0  0  0  0  0  1  0  0  0  0  0  0
  190.0210  177.1280  147.5980 C   0  0  0  0  0  3  0  0  0  0  0  0
  190.6630  176.7380  144.8960 C   0  0  0  0  0  0  0  0  0  0  0  0
  189.3070  176.9220  145.2750 C   0  0  0  0  0  0  0  0  0  0  0  0
  191.6650  176.7530  145.8710 C   0  0  0  0  0  3  0  0  0  0  0  0
  1  6  1  0  0  0  0
  2  5  2  0  0  0  0
  2 13  1  0  0  0  0
  3  2  1  0  0  0  0
  4  7  1  0  0  0  0
  5 16  1  0  0  0  0
  6 17  2  0  0  0  0
  7  3  1  0  0  0  0
  8 12  1  0  0  0  0
  8 23  1  0  0  0  0
  9  1  1  0  0  0  0
 10 18  2  0  0  0  0
 11  4  2  0  0  0  0
 13  8  2  0  0  0  0
 14  1  2  0  0  0  0
 14  5  1  0  0  0  0
 15  4  1  0  0  0  0
 15 20  1  0  0  0  0
 16 17  1  0  0  0  0
 16 12  2  0  0  0  0
 18 13  1  0  0  0  0
 19  3  2  0  0  0  0
 19 10  1  0  0  0  0
 20 19  1  0  0  0  0
 21 22  2  0  0  0  0
 22 30  1  0  0  0  0
 23 22  1  0  0  0  0
 24 28  1  0  0  0  0
 24 27  1  0  0  0  0
 25 28  2  0  0  0  0
 26 29  1  0  0  0  0
 29 30  2  0  0  0  0
 29 31  1  0  0  0  0
 30 25  1  0  0  0  0
 31 24  2  0  0  0  0
M  END
>  <MODEL>
9

>  <REMARK>
 VINA RESULT:      -9.9      3.465      7.591
  Name = 
  2 active torsions:
  status: ('A' for Active; 'I' for Inactive)
    1  A    between atoms: C_5  and  C_30
    2  A    between atoms: C_10  and  N_16
                            x       y       z     vdW  Elec       q    Type
                         _______ _______ _______ _____ _____    ______ ____

>  <TORSDO>
F 2

$$$$
