=
 OpenBabel11122411103D

 31 35  0  0  0  0  0  0  0  0999 V2000
  185.6270  178.6830  143.9270 C   0  0  0  0  0  0  0  0  0  0  0  0
  189.1210  177.2830  143.8410 C   0  0  0  0  0  0  0  0  0  0  0  0
  189.5830  177.2160  145.1880 C   0  0  0  0  0  0  0  0  0  0  0  0
  189.1830  176.8060  138.5980 O   0  0  0  0  0  0  0  0  0  0  0  0
  190.2880  176.4040  139.0540 C   0  0  0  0  0  0  0  0  0  0  0  0
  189.3010  177.5360  147.5920 C   0  0  0  0  0  0  0  0  0  0  0  0
  187.8360  177.7610  143.4430 C   0  0  0  0  0  0  0  0  0  0  0  0
  185.3170  178.6890  142.5680 C   0  0  0  0  0  3  0  0  0  0  0  0
  188.8070  177.6200  146.2880 C   0  0  0  0  0  3  0  0  0  0  0  0
  189.6240  176.8780  141.4780 C   0  0  0  0  0  0  0  0  0  0  0  0
  184.6960  179.1340  144.8530 O   0  0  0  0  0  1  0  0  0  0  0  0
  191.6670  176.3180  144.4120 N   0  0  0  0  0  0  0  0  0  0  0  0
  188.3070  178.0490  148.9370 Cl  0  0  0  0  0  0  0  0  0  0  0  0
  188.3930  177.3400  141.1410 N   0  0  0  0  0  0  0  0  0  0  0  0
  190.0090  176.8420  142.8250 C   0  0  0  0  0  0  0  0  0  0  0  0
  190.5360  176.4270  140.4660 N   0  0  0  0  0  2  0  0  0  0  0  0
  186.8730  178.2240  144.3580 C   0  0  0  0  0  3  0  0  0  0  0  0
  190.5860  177.0440  147.8220 C   0  0  0  0  0  3  0  0  0  0  0  0
  187.5040  177.7740  142.0650 C   0  0  0  0  0  0  0  0  0  0  0  0
  186.2540  178.2350  141.6400 C   0  0  0  0  0  3  0  0  0  0  0  0
  191.2440  176.3780  143.1510 N   0  0  0  0  0  0  0  0  0  0  0  0
  190.8840  176.7190  145.4400 C   0  0  0  0  0  0  0  0  0  0  0  0
  191.3750  176.6360  146.7470 C   0  0  0  0  0  3  0  0  0  0  0  0
  193.3920  175.0450  136.4170 C   0  0  0  0  0  0  0  0  0  0  0  0
  192.4930  176.6830  137.9480 C   0  0  0  0  0  3  0  0  0  0  0  0
  190.1090  173.8650  137.5910 O   0  0  0  0  0  1  0  0  0  0  0  0
  194.3800  174.6300  135.5870 F   0  0  0  0  0  0  0  0  0  0  0  0
  193.5130  176.2570  137.0940 C   0  0  0  0  0  3  0  0  0  0  0  0
  191.2260  174.6770  137.4440 C   0  0  0  0  0  0  0  0  0  0  0  0
  191.3400  175.9060  138.1370 C   0  0  0  0  0  0  0  0  0  0  0  0
  192.2520  174.2580  136.5910 C   0  0  0  0  0  3  0  0  0  0  0  0
  1 17  1  0  0  0  0
  1 11  1  0  0  0  0
  2  3  1  0  0  0  0
  3 22  2  0  0  0  0
  3  9  1  0  0  0  0
  4  5  2  0  0  0  0
  5 16  1  0  0  0  0
  6 18  1  0  0  0  0
  6 13  1  0  0  0  0
  7  2  1  0  0  0  0
  7 17  2  0  0  0  0
  8  1  2  0  0  0  0
  9  6  2  0  0  0  0
 10 15  1  0  0  0  0
 12 22  1  0  0  0  0
 14 10  2  0  0  0  0
 14 19  1  0  0  0  0
 15 21  1  0  0  0  0
 15  2  2  0  0  0  0
 16 10  1  0  0  0  0
 19  7  1  0  0  0  0
 20 19  2  0  0  0  0
 20  8  1  0  0  0  0
 21 12  2  0  0  0  0
 22 23  1  0  0  0  0
 23 18  2  0  0  0  0
 24 31  2  0  0  0  0
 24 28  1  0  0  0  0
 25 30  1  0  0  0  0
 27 24  1  0  0  0  0
 28 25  2  0  0  0  0
 29 26  1  0  0  0  0
 29 30  2  0  0  0  0
 30  5  1  0  0  0  0
 31 29  1  0  0  0  0
M  END
>  <MODEL>
1

>  <REMARK>
 VINA RESULT:     -11.1      0.000      0.000
  Name = 
  1 active torsions:
  status: ('A' for Active; 'I' for Inactive)
    1  A    between atoms: C_5  and  C_30
                            x       y       z     vdW  Elec       q    Type
                         _______ _______ _______ _____ _____    ______ ____

>  <TORSDO>
F 1

$$$$
=
 OpenBabel11122411103D

 31 35  0  0  0  0  0  0  0  0999 V2000
  184.8550  178.7510  144.5230 C   0  0  0  0  0  0  0  0  0  0  0  0
  188.3810  177.5800  143.9140 C   0  0  0  0  0  0  0  0  0  0  0  0
  189.0050  177.4370  145.1880 C   0  0  0  0  0  0  0  0  0  0  0  0
  187.8360  177.5170  138.6780 O   0  0  0  0  0  0  0  0  0  0  0  0
  189.0070  177.1500  138.9670 C   0  0  0  0  0  0  0  0  0  0  0  0
  188.9980  177.5520  147.6270 C   0  0  0  0  0  0  0  0  0  0  0  0
  187.0340  178.0070  143.7100 C   0  0  0  0  0  0  0  0  0  0  0  0
  184.3830  178.8440  143.2130 C   0  0  0  0  0  3  0  0  0  0  0  0
  188.3470  177.7060  146.4010 C   0  0  0  0  0  3  0  0  0  0  0  0
  188.6160  177.3920  141.4840 C   0  0  0  0  0  0  0  0  0  0  0  0
  184.0190  179.0710  145.5840 O   0  0  0  0  0  1  0  0  0  0  0  0
  191.0240  176.7330  144.1030 N   0  0  0  0  0  0  0  0  0  0  0  0
  188.1480  177.8960  149.1170 Cl  0  0  0  0  0  0  0  0  0  0  0  0
  187.3310  177.8020  141.3310 N   0  0  0  0  0  0  0  0  0  0  0  0
  189.1620  177.2750  142.7690 C   0  0  0  0  0  0  0  0  0  0  0  0
  189.4220  177.0780  140.3380 N   0  0  0  0  0  2  0  0  0  0  0  0
  186.1650  178.3370  144.7660 C   0  0  0  0  0  3  0  0  0  0  0  0
  190.3250  177.1230  147.6640 C   0  0  0  0  0  3  0  0  0  0  0  0
  186.5380  178.1070  142.3850 C   0  0  0  0  0  0  0  0  0  0  0  0
  185.2240  178.5220  142.1480 C   0  0  0  0  0  3  0  0  0  0  0  0
  190.4490  176.8640  142.9090 N   0  0  0  0  0  0  0  0  0  0  0  0
  190.3510  177.0040  145.2460 C   0  0  0  0  0  0  0  0  0  0  0  0
  191.0000  176.8500  146.4750 C   0  0  0  0  0  3  0  0  0  0  0  0
  191.8600  176.1040  135.9330 C   0  0  0  0  0  0  0  0  0  0  0  0
  191.3130  176.5880  138.2360 C   0  0  0  0  0  3  0  0  0  0  0  0
  188.2570  176.8290  136.1460 O   0  0  0  0  0  1  0  0  0  0  0  0
  192.7730  175.7740  134.9870 F   0  0  0  0  0  0  0  0  0  0  0  0
  192.2540  176.2480  137.2630 C   0  0  0  0  0  3  0  0  0  0  0  0
  189.5760  176.6420  136.5440 C   0  0  0  0  0  0  0  0  0  0  0  0
  189.9650  176.7900  137.8960 C   0  0  0  0  0  0  0  0  0  0  0  0
  190.5250  176.3010  135.5750 C   0  0  0  0  0  3  0  0  0  0  0  0
  1 17  1  0  0  0  0
  1 11  1  0  0  0  0
  2  3  1  0  0  0  0
  3 22  2  0  0  0  0
  3  9  1  0  0  0  0
  4  5  2  0  0  0  0
  5 16  1  0  0  0  0
  6 18  1  0  0  0  0
  6 13  1  0  0  0  0
  7  2  1  0  0  0  0
  7 17  2  0  0  0  0
  8  1  2  0  0  0  0
  9  6  2  0  0  0  0
 10 15  1  0  0  0  0
 12 22  1  0  0  0  0
 14 10  2  0  0  0  0
 14 19  1  0  0  0  0
 15 21  1  0  0  0  0
 15  2  2  0  0  0  0
 16 10  1  0  0  0  0
 19  7  1  0  0  0  0
 20 19  2  0  0  0  0
 20  8  1  0  0  0  0
 21 12  2  0  0  0  0
 22 23  1  0  0  0  0
 23 18  2  0  0  0  0
 24 28  1  0  0  0  0
 26 29  1  0  0  0  0
 27 24  1  0  0  0  0
 28 25  2  0  0  0  0
 29 30  2  0  0  0  0
 30 25  1  0  0  0  0
 30  5  1  0  0  0  0
 31 24  2  0  0  0  0
 31 29  1  0  0  0  0
M  END
>  <MODEL>
2

>  <REMARK>
 VINA RESULT:     -11.0      1.274      1.443
  Name = 
  1 active torsions:
  status: ('A' for Active; 'I' for Inactive)
    1  A    between atoms: C_5  and  C_30
                            x       y       z     vdW  Elec       q    Type
                         _______ _______ _______ _____ _____    ______ ____

>  <TORSDO>
F 1

$$$$
=
 OpenBabel11122411103D

 31 35  0  0  0  0  0  0  0  0999 V2000
  190.6640  177.4060  141.5090 C   0  0  0  0  0  0  0  0  0  0  0  0
  187.3050  178.1090  143.0570 C   0  0  0  0  0  0  0  0  0  0  0  0
  187.4340  177.9010  144.4620 C   0  0  0  0  0  0  0  0  0  0  0  0
  185.0310  179.2810  138.4560 O   0  0  0  0  0  0  0  0  0  0  0  0
  184.1730  179.3980  139.3720 C   0  0  0  0  0  0  0  0  0  0  0  0
  188.7180  177.3130  146.4540 C   0  0  0  0  0  0  0  0  0  0  0  0
  188.3580  177.9450  142.1090 C   0  0  0  0  0  0  0  0  0  0  0  0
  190.3840  177.6460  140.1640 C   0  0  0  0  0  3  0  0  0  0  0  0
  188.6370  177.5050  145.0730 C   0  0  0  0  0  3  0  0  0  0  0  0
  185.8280  178.7310  141.2050 C   0  0  0  0  0  0  0  0  0  0  0  0
  191.9400  177.0190  141.8940 O   0  0  0  0  0  1  0  0  0  0  0  0
  185.1250  178.4810  144.7450 N   0  0  0  0  0  0  0  0  0  0  0  0
  190.2320  176.8200  147.1800 Cl  0  0  0  0  0  0  0  0  0  0  0  0
  186.8560  178.5640  140.3340 N   0  0  0  0  0  0  0  0  0  0  0  0
  186.0310  178.5070  142.5730 C   0  0  0  0  0  0  0  0  0  0  0  0
  184.5330  179.1330  140.7350 N   0  0  0  0  0  2  0  0  0  0  0  0
  189.6610  177.5550  142.4690 C   0  0  0  0  0  3  0  0  0  0  0  0
  187.5930  177.5140  147.2540 C   0  0  0  0  0  3  0  0  0  0  0  0
  188.0920  178.1860  140.7370 C   0  0  0  0  0  0  0  0  0  0  0  0
  189.1010  178.0350  139.7810 C   0  0  0  0  0  3  0  0  0  0  0  0
  184.9950  178.6770  143.4360 N   0  0  0  0  0  0  0  0  0  0  0  0
  186.3040  178.1000  145.2900 C   0  0  0  0  0  0  0  0  0  0  0  0
  186.3880  177.9060  146.6720 C   0  0  0  0  0  3  0  0  0  0  0  0
  180.1850  180.6790  138.4260 C   0  0  0  0  0  0  0  0  0  0  0  0
  182.5400  181.1440  138.7010 C   0  0  0  0  0  3  0  0  0  0  0  0
  181.8780  177.5670  139.4260 O   0  0  0  0  0  1  0  0  0  0  0  0
  178.9320  181.0990  138.1260 F   0  0  0  0  0  0  0  0  0  0  0  0
  181.2500  181.5780  138.3900 C   0  0  0  0  0  3  0  0  0  0  0  0
  181.6970  178.9020  139.0860 C   0  0  0  0  0  0  0  0  0  0  0  0
  182.7850  179.8070  139.0520 C   0  0  0  0  0  0  0  0  0  0  0  0
  180.4080  179.3460  138.7740 C   0  0  0  0  0  3  0  0  0  0  0  0
  1 11  1  0  0  0  0
  1 17  1  0  0  0  0
  2  3  1  0  0  0  0
  3  9  2  0  0  0  0
  3 22  1  0  0  0  0
  4  5  2  0  0  0  0
  5 16  1  0  0  0  0
  6 13  1  0  0  0  0
  6 18  2  0  0  0  0
  7 17  2  0  0  0  0
  7  2  1  0  0  0  0
  8  1  2  0  0  0  0
  9  6  1  0  0  0  0
 10 15  1  0  0  0  0
 12 22  1  0  0  0  0
 14 19  1  0  0  0  0
 14 10  2  0  0  0  0
 15  2  2  0  0  0  0
 15 21  1  0  0  0  0
 16 10  1  0  0  0  0
 19  7  1  0  0  0  0
 20  8  1  0  0  0  0
 20 19  2  0  0  0  0
 21 12  2  0  0  0  0
 22 23  2  0  0  0  0
 23 18  1  0  0  0  0
 24 31  1  0  0  0  0
 25 30  2  0  0  0  0
 27 24  1  0  0  0  0
 28 24  2  0  0  0  0
 28 25  1  0  0  0  0
 29 26  1  0  0  0  0
 30 29  1  0  0  0  0
 30  5  1  0  0  0  0
 31 29  2  0  0  0  0
M  END
>  <MODEL>
3

>  <REMARK>
 VINA RESULT:     -10.8      4.690      7.490
  Name = 
  1 active torsions:
  status: ('A' for Active; 'I' for Inactive)
    1  A    between atoms: C_5  and  C_30
                            x       y       z     vdW  Elec       q    Type
                         _______ _______ _______ _____ _____    ______ ____

>  <TORSDO>
F 1

$$$$
=
 OpenBabel11122411103D

 31 35  0  0  0  0  0  0  0  0999 V2000
  187.3600  178.2540  148.0950 C   0  0  0  0  0  0  0  0  0  0  0  0
  187.8820  177.4370  144.4570 C   0  0  0  0  0  0  0  0  0  0  0  0
  189.2010  176.9110  144.3260 C   0  0  0  0  0  0  0  0  0  0  0  0
  183.0700  179.0350  143.0400 O   0  0  0  0  0  0  0  0  0  0  0  0
  183.6790  178.6270  142.0140 C   0  0  0  0  0  0  0  0  0  0  0  0
  191.3640  176.2400  145.2390 C   0  0  0  0  0  0  0  0  0  0  0  0
  187.2950  177.8700  145.6840 C   0  0  0  0  0  0  0  0  0  0  0  0
  186.0560  178.7470  148.0650 C   0  0  0  0  0  3  0  0  0  0  0  0
  190.0800  176.7600  145.4130 C   0  0  0  0  0  3  0  0  0  0  0  0
  185.7950  178.0420  143.3270 C   0  0  0  0  0  0  0  0  0  0  0  0
  188.0510  178.1940  149.2970 O   0  0  0  0  0  1  0  0  0  0  0  0
  188.8460  176.6470  141.9700 N   0  0  0  0  0  0  0  0  0  0  0  0
  192.4310  176.0670  146.6150 Cl  0  0  0  0  0  0  0  0  0  0  0  0
  185.2730  178.4430  144.5130 N   0  0  0  0  0  0  0  0  0  0  0  0
  187.1010  177.5350  143.2760 C   0  0  0  0  0  0  0  0  0  0  0  0
  185.0210  178.1330  142.1210 N   0  0  0  0  0  2  0  0  0  0  0  0
  187.9710  177.8210  146.9170 C   0  0  0  0  0  3  0  0  0  0  0  0
  191.7970  175.8590  143.9680 C   0  0  0  0  0  3  0  0  0  0  0  0
  185.9700  178.3740  145.6720 C   0  0  0  0  0  0  0  0  0  0  0  0
  185.3640  178.8060  146.8550 C   0  0  0  0  0  3  0  0  0  0  0  0
  187.6130  177.1370  142.0820 N   0  0  0  0  0  0  0  0  0  0  0  0
  189.6570  176.5200  143.0450 C   0  0  0  0  0  0  0  0  0  0  0  0
  190.9440  175.9990  142.8740 C   0  0  0  0  0  3  0  0  0  0  0  0
  181.6770  178.6620  138.2150 C   0  0  0  0  0  0  0  0  0  0  0  0
  181.7260  178.1150  140.5680 C   0  0  0  0  0  3  0  0  0  0  0  0
  184.9100  179.7530  139.5970 O   0  0  0  0  0  1  0  0  0  0  0  0
  181.0320  178.6650  137.0230 F   0  0  0  0  0  0  0  0  0  0  0  0
  181.0600  178.1180  139.3410 C   0  0  0  0  0  3  0  0  0  0  0  0
  183.6340  179.2040  139.5400 C   0  0  0  0  0  0  0  0  0  0  0  0
  183.0170  178.6550  140.6880 C   0  0  0  0  0  0  0  0  0  0  0  0
  182.9600  179.2030  138.3150 C   0  0  0  0  0  3  0  0  0  0  0  0
  1 11  1  0  0  0  0
  2  7  1  0  0  0  0
  3  2  1  0  0  0  0
  3  9  1  0  0  0  0
  5 16  1  0  0  0  0
  5  4  2  0  0  0  0
  6  9  2  0  0  0  0
  6 13  1  0  0  0  0
  7 17  1  0  0  0  0
  8  1  1  0  0  0  0
 10 14  2  0  0  0  0
 12 21  2  0  0  0  0
 12 22  1  0  0  0  0
 14 19  1  0  0  0  0
 15 10  1  0  0  0  0
 15  2  2  0  0  0  0
 16 10  1  0  0  0  0
 17  1  2  0  0  0  0
 18  6  1  0  0  0  0
 19  7  2  0  0  0  0
 19 20  1  0  0  0  0
 20  8  2  0  0  0  0
 21 15  1  0  0  0  0
 22  3  2  0  0  0  0
 23 22  1  0  0  0  0
 23 18  2  0  0  0  0
 24 31  2  0  0  0  0
 24 28  1  0  0  0  0
 25 30  1  0  0  0  0
 27 24  1  0  0  0  0
 28 25  2  0  0  0  0
 29 26  1  0  0  0  0
 29 30  2  0  0  0  0
 30  5  1  0  0  0  0
 31 29  1  0  0  0  0
M  END
>  <MODEL>
4

>  <REMARK>
 VINA RESULT:     -10.2      4.417      6.825
  Name = 
  1 active torsions:
  status: ('A' for Active; 'I' for Inactive)
    1  A    between atoms: C_5  and  C_30
                            x       y       z     vdW  Elec       q    Type
                         _______ _______ _______ _____ _____    ______ ____

>  <TORSDO>
F 1

$$$$
=
 OpenBabel11122411103D

 31 35  0  0  0  0  0  0  0  0999 V2000
  186.2790  177.9920  145.3940 C   0  0  0  0  0  0  0  0  0  0  0  0
  186.8500  178.2810  141.6840 C   0  0  0  0  0  0  0  0  0  0  0  0
  188.2220  177.9760  141.4420 C   0  0  0  0  0  0  0  0  0  0  0  0
  181.8610  179.6120  140.6580 O   0  0  0  0  0  0  0  0  0  0  0  0
  182.5030  179.5810  139.5730 C   0  0  0  0  0  0  0  0  0  0  0  0
  190.4630  177.3470  142.1810 C   0  0  0  0  0  0  0  0  0  0  0  0
  186.2310  178.2840  142.9690 C   0  0  0  0  0  0  0  0  0  0  0  0
  184.9240  178.3120  145.4730 C   0  0  0  0  0  3  0  0  0  0  0  0
  189.1270  177.6390  142.4630 C   0  0  0  0  0  3  0  0  0  0  0  0
  184.6910  178.9170  140.7190 C   0  0  0  0  0  0  0  0  0  0  0  0
  186.9880  177.6870  146.5480 O   0  0  0  0  0  1  0  0  0  0  0  0
  187.8720  178.3320  139.0960 N   0  0  0  0  0  0  0  0  0  0  0  0
  191.5600  176.9310  143.4780 Cl  0  0  0  0  0  0  0  0  0  0  0  0
  184.1390  178.9080  141.9590 N   0  0  0  0  0  0  0  0  0  0  0  0
  186.0480  178.6060  140.5590 C   0  0  0  0  0  0  0  0  0  0  0  0
  183.8970  179.2430  139.5690 N   0  0  0  0  0  2  0  0  0  0  0  0
  186.9230  177.9780  144.1550 C   0  0  0  0  0  3  0  0  0  0  0  0
  190.9230  177.3870  140.8640 C   0  0  0  0  0  3  0  0  0  0  0  0
  184.8540  178.6070  143.0680 C   0  0  0  0  0  0  0  0  0  0  0  0
  184.2150  178.6180  144.3120 C   0  0  0  0  0  3  0  0  0  0  0  0
  186.5900  178.6190  139.3130 N   0  0  0  0  0  0  0  0  0  0  0  0
  188.7070  178.0120  140.1120 C   0  0  0  0  0  0  0  0  0  0  0  0
  190.0450  177.7190  139.8320 C   0  0  0  0  0  3  0  0  0  0  0  0
  180.5310  180.5860  135.8930 C   0  0  0  0  0  0  0  0  0  0  0  0
  181.4240  181.2170  138.0470 C   0  0  0  0  0  3  0  0  0  0  0  0
  181.9380  177.5850  137.4950 O   0  0  0  0  0  1  0  0  0  0  0  0
  179.9070  180.9190  134.7360 F   0  0  0  0  0  0  0  0  0  0  0  0
  180.7820  181.5620  136.8560 C   0  0  0  0  0  3  0  0  0  0  0  0
  181.5650  178.9110  137.3090 C   0  0  0  0  0  0  0  0  0  0  0  0
  181.8250  179.8940  138.2930 C   0  0  0  0  0  0  0  0  0  0  0  0
  180.9220  179.2650  136.1190 C   0  0  0  0  0  3  0  0  0  0  0  0
  1  8  1  0  0  0  0
  1 11  1  0  0  0  0
  2  7  1  0  0  0  0
  3  2  1  0  0  0  0
  3  9  1  0  0  0  0
  5  4  2  0  0  0  0
  6  9  2  0  0  0  0
  6 13  1  0  0  0  0
  7 19  2  0  0  0  0
  7 17  1  0  0  0  0
 10 14  2  0  0  0  0
 12 21  2  0  0  0  0
 12 22  1  0  0  0  0
 14 19  1  0  0  0  0
 15 10  1  0  0  0  0
 15  2  2  0  0  0  0
 16  5  1  0  0  0  0
 16 10  1  0  0  0  0
 17  1  2  0  0  0  0
 18  6  1  0  0  0  0
 19 20  1  0  0  0  0
 20  8  2  0  0  0  0
 21 15  1  0  0  0  0
 22  3  2  0  0  0  0
 23 22  1  0  0  0  0
 23 18  2  0  0  0  0
 24 31  2  0  0  0  0
 24 28  1  0  0  0  0
 25 30  1  0  0  0  0
 27 24  1  0  0  0  0
 28 25  2  0  0  0  0
 29 26  1  0  0  0  0
 29 30  2  0  0  0  0
 30  5  1  0  0  0  0
 31 29  1  0  0  0  0
M  END
>  <MODEL>
5

>  <REMARK>
 VINA RESULT:     -10.0      5.061      7.782
  Name = 
  1 active torsions:
  status: ('A' for Active; 'I' for Inactive)
    1  A    between atoms: C_5  and  C_30
                            x       y       z     vdW  Elec       q    Type
                         _______ _______ _______ _____ _____    ______ ____

>  <TORSDO>
F 1

$$$$
=
 OpenBabel11122411103D

 31 35  0  0  0  0  0  0  0  0999 V2000
  185.7860  178.3390  145.8900 C   0  0  0  0  0  0  0  0  0  0  0  0
  186.5970  178.3680  142.2130 C   0  0  0  0  0  0  0  0  0  0  0  0
  187.9870  178.0780  142.0840 C   0  0  0  0  0  0  0  0  0  0  0  0
  181.6630  179.5060  140.7700 O   0  0  0  0  0  0  0  0  0  0  0  0
  182.3760  179.4100  139.7340 C   0  0  0  0  0  0  0  0  0  0  0  0
  190.1850  177.5560  143.0120 C   0  0  0  0  0  0  0  0  0  0  0  0
  185.8930  178.4510  143.4530 C   0  0  0  0  0  0  0  0  0  0  0  0
  184.4230  178.6330  145.8570 C   0  0  0  0  0  3  0  0  0  0  0  0
  188.8280  177.8370  143.1850 C   0  0  0  0  0  3  0  0  0  0  0  0
  184.4950  178.8820  141.0660 C   0  0  0  0  0  0  0  0  0  0  0  0
  186.4220  178.1350  147.1070 O   0  0  0  0  0  1  0  0  0  0  0  0
  187.7870  178.2530  139.7010 N   0  0  0  0  0  0  0  0  0  0  0  0
  191.2010  177.2610  144.4050 Cl  0  0  0  0  0  0  0  0  0  0  0  0
  183.8620  178.9520  142.2650 N   0  0  0  0  0  0  0  0  0  0  0  0
  185.8650  178.5920  141.0180 C   0  0  0  0  0  0  0  0  0  0  0  0
  183.7730  179.1050  139.8460 N   0  0  0  0  0  2  0  0  0  0  0  0
  186.5110  178.2490  144.7000 C   0  0  0  0  0  3  0  0  0  0  0  0
  190.7300  177.5100  141.7280 C   0  0  0  0  0  3  0  0  0  0  0  0
  184.5070  178.7480  143.4370 C   0  0  0  0  0  0  0  0  0  0  0  0
  183.7870  178.8360  144.6320 C   0  0  0  0  0  3  0  0  0  0  0  0
  186.4890  178.5250  139.8120 N   0  0  0  0  0  0  0  0  0  0  0  0
  188.5580  178.0270  140.7900 C   0  0  0  0  0  0  0  0  0  0  0  0
  189.9170  177.7460  140.6200 C   0  0  0  0  0  3  0  0  0  0  0  0
  180.6560  179.8940  135.8290 C   0  0  0  0  0  0  0  0  0  0  0  0
  181.6230  178.5000  137.5500 C   0  0  0  0  0  3  0  0  0  0  0  0
  181.4900  182.0180  138.7180 O   0  0  0  0  0  1  0  0  0  0  0  0
  180.1160  180.0310  134.5940 F   0  0  0  0  0  0  0  0  0  0  0  0
  181.0660  178.6390  136.2770 C   0  0  0  0  0  3  0  0  0  0  0  0
  181.3610  180.8820  137.9290 C   0  0  0  0  0  0  0  0  0  0  0  0
  181.7790  179.6120  138.3930 C   0  0  0  0  0  0  0  0  0  0  0  0
  180.8040  181.0120  136.6530 C   0  0  0  0  0  3  0  0  0  0  0  0
  1 11  1  0  0  0  0
  2  7  1  0  0  0  0
  3  2  1  0  0  0  0
  3  9  1  0  0  0  0
  5 16  1  0  0  0  0
  5  4  2  0  0  0  0
  6  9  2  0  0  0  0
  6 13  1  0  0  0  0
  7 17  1  0  0  0  0
  8  1  1  0  0  0  0
 10 14  2  0  0  0  0
 12 21  2  0  0  0  0
 12 22  1  0  0  0  0
 14 19  1  0  0  0  0
 15 10  1  0  0  0  0
 15  2  2  0  0  0  0
 16 10  1  0  0  0  0
 17  1  2  0  0  0  0
 18  6  1  0  0  0  0
 19  7  2  0  0  0  0
 19 20  1  0  0  0  0
 20  8  2  0  0  0  0
 21 15  1  0  0  0  0
 22  3  2  0  0  0  0
 23 22  1  0  0  0  0
 23 18  2  0  0  0  0
 24 28  2  0  0  0  0
 24 31  1  0  0  0  0
 25 30  2  0  0  0  0
 27 24  1  0  0  0  0
 28 25  1  0  0  0  0
 29 30  1  0  0  0  0
 29 26  1  0  0  0  0
 30  5  1  0  0  0  0
 31 29  2  0  0  0  0
M  END
>  <MODEL>
6

>  <REMARK>
 VINA RESULT:     -10.0      4.984      7.750
  Name = 
  1 active torsions:
  status: ('A' for Active; 'I' for Inactive)
    1  A    between atoms: C_5  and  C_30
                            x       y       z     vdW  Elec       q    Type
                         _______ _______ _______ _____ _____    ______ ____

>  <TORSDO>
F 1

$$$$
=
 OpenBabel11122411103D

 31 35  0  0  0  0  0  0  0  0999 V2000
  191.5950  176.1590  145.9570 C   0  0  0  0  0  0  0  0  0  0  0  0
  188.3990  177.4830  144.4720 C   0  0  0  0  0  0  0  0  0  0  0  0
  187.5590  177.8740  145.5560 C   0  0  0  0  0  0  0  0  0  0  0  0
  189.9510  176.6700  139.5070 O   0  0  0  0  0  0  0  0  0  0  0  0
  188.7920  177.1660  139.4920 C   0  0  0  0  0  0  0  0  0  0  0  0
  187.0820  178.1490  147.9350 C   0  0  0  0  0  0  0  0  0  0  0  0
  189.7060  176.9270  144.6140 C   0  0  0  0  0  0  0  0  0  0  0  0
  192.2990  175.8240  144.8000 C   0  0  0  0  0  3  0  0  0  0  0  0
  187.9370  177.7520  146.9040 C   0  0  0  0  0  3  0  0  0  0  0  0
  188.6600  177.2980  142.0440 C   0  0  0  0  0  0  0  0  0  0  0  0
  192.1710  175.9500  147.2030 O   0  0  0  0  0  1  0  0  0  0  0  0
  185.8750  178.5480  143.9870 N   0  0  0  0  0  0  0  0  0  0  0  0
  187.5860  177.9830  149.6010 Cl  0  0  0  0  0  0  0  0  0  0  0  0
  189.8990  176.7740  142.2200 N   0  0  0  0  0  0  0  0  0  0  0  0
  187.8910  177.6600  143.1580 C   0  0  0  0  0  0  0  0  0  0  0  0
  188.1290  177.4860  140.7240 N   0  0  0  0  0  2  0  0  0  0  0  0
  190.3140  176.7050  145.8620 C   0  0  0  0  0  3  0  0  0  0  0  0
  185.8260  178.6770  147.6350 C   0  0  0  0  0  3  0  0  0  0  0  0
  190.4360  176.5810  143.4480 C   0  0  0  0  0  0  0  0  0  0  0  0
  191.7190  176.0350  143.5500 C   0  0  0  0  0  3  0  0  0  0  0  0
  186.6520  178.1850  142.9690 N   0  0  0  0  0  0  0  0  0  0  0  0
  186.2820  178.4120  145.2710 C   0  0  0  0  0  0  0  0  0  0  0  0
  185.4270  178.8080  146.3050 C   0  0  0  0  0  3  0  0  0  0  0  0
  186.7520  177.8150  135.7700 C   0  0  0  0  0  0  0  0  0  0  0  0
  187.2730  176.4220  137.6740 C   0  0  0  0  0  3  0  0  0  0  0  0
  189.0550  179.6620  137.9680 O   0  0  0  0  0  1  0  0  0  0  0  0
  186.1020  178.0040  134.5950 F   0  0  0  0  0  0  0  0  0  0  0  0
  186.6020  176.6160  136.4650 C   0  0  0  0  0  3  0  0  0  0  0  0
  188.2490  178.6350  137.4920 C   0  0  0  0  0  0  0  0  0  0  0  0
  188.1020  177.4230  138.2060 C   0  0  0  0  0  0  0  0  0  0  0  0
  187.5730  178.8210  136.2820 C   0  0  0  0  0  3  0  0  0  0  0  0
  1 11  1  0  0  0  0
  2  7  1  0  0  0  0
  2  3  1  0  0  0  0
  3  9  1  0  0  0  0
  5  4  2  0  0  0  0
  5 16  1  0  0  0  0
  6 13  1  0  0  0  0
  7 17  2  0  0  0  0
  8  1  2  0  0  0  0
  9  6  2  0  0  0  0
 10 14  2  0  0  0  0
 10 15  1  0  0  0  0
 12 22  1  0  0  0  0
 14 19  1  0  0  0  0
 15  2  2  0  0  0  0
 16 10  1  0  0  0  0
 17  1  1  0  0  0  0
 18  6  1  0  0  0  0
 19 20  2  0  0  0  0
 19  7  1  0  0  0  0
 20  8  1  0  0  0  0
 21 15  1  0  0  0  0
 21 12  2  0  0  0  0
 22  3  2  0  0  0  0
 22 23  1  0  0  0  0
 23 18  2  0  0  0  0
 24 31  2  0  0  0  0
 24 28  1  0  0  0  0
 25 30  1  0  0  0  0
 27 24  1  0  0  0  0
 28 25  2  0  0  0  0
 29 26  1  0  0  0  0
 29 30  2  0  0  0  0
 30  5  1  0  0  0  0
 31 29  1  0  0  0  0
M  END
>  <MODEL>
7

>  <REMARK>
 VINA RESULT:      -9.8      3.317      4.963
  Name = 
  1 active torsions:
  status: ('A' for Active; 'I' for Inactive)
    1  A    between atoms: C_5  and  C_30
                            x       y       z     vdW  Elec       q    Type
                         _______ _______ _______ _____ _____    ______ ____

>  <TORSDO>
F 1

$$$$
=
 OpenBabel11122411103D

 31 35  0  0  0  0  0  0  0  0999 V2000
  183.7380  179.0850  139.4430 C   0  0  0  0  0  0  0  0  0  0  0  0
  187.3620  178.1190  139.7640 C   0  0  0  0  0  0  0  0  0  0  0  0
  187.8940  178.0280  138.4440 C   0  0  0  0  0  0  0  0  0  0  0  0
  187.2230  177.9560  145.0240 O   0  0  0  0  0  0  0  0  0  0  0  0
  188.3890  177.6650  144.6410 C   0  0  0  0  0  0  0  0  0  0  0  0
  187.6940  178.1730  136.0150 C   0  0  0  0  0  0  0  0  0  0  0  0
  186.0130  178.4620  140.0760 C   0  0  0  0  0  0  0  0  0  0  0  0
  183.3630  179.1330  140.7860 C   0  0  0  0  0  3  0  0  0  0  0  0
  187.1320  178.2730  137.2890 C   0  0  0  0  0  3  0  0  0  0  0  0
  187.7930  177.9150  142.1660 C   0  0  0  0  0  0  0  0  0  0  0  0
  182.8070  179.3680  138.4530 O   0  0  0  0  0  1  0  0  0  0  0  0
  190.0280  177.4320  139.3610 N   0  0  0  0  0  0  0  0  0  0  0  0
  186.7140  178.4840  134.6000 Cl  0  0  0  0  0  0  0  0  0  0  0  0
  186.5020  178.2450  142.4220 N   0  0  0  0  0  0  0  0  0  0  0  0
  188.2450  177.8450  140.8410 C   0  0  0  0  0  0  0  0  0  0  0  0
  188.7010  177.6350  143.2420 N   0  0  0  0  0  2  0  0  0  0  0  0
  185.0480  178.7540  139.0950 C   0  0  0  0  0  3  0  0  0  0  0  0
  189.0380  177.8240  135.8700 C   0  0  0  0  0  3  0  0  0  0  0  0
  185.6150  178.5160  141.4360 C   0  0  0  0  0  0  0  0  0  0  0  0
  184.3000  178.8490  141.7790 C   0  0  0  0  0  3  0  0  0  0  0  0
  189.5400  177.5140  140.5970 N   0  0  0  0  0  0  0  0  0  0  0  0
  189.2550  177.6760  138.2780 C   0  0  0  0  0  0  0  0  0  0  0  0
  189.8160  177.5770  137.0010 C   0  0  0  0  0  3  0  0  0  0  0  0
  191.5130  176.7180  147.4320 C   0  0  0  0  0  0  0  0  0  0  0  0
  190.6640  176.8240  145.1720 C   0  0  0  0  0  3  0  0  0  0  0  0
  188.0900  178.0710  147.5340 O   0  0  0  0  0  1  0  0  0  0  0  0
  192.5080  176.4130  148.3000 F   0  0  0  0  0  0  0  0  0  0  0  0
  191.6910  176.5110  146.0640 C   0  0  0  0  0  3  0  0  0  0  0  0
  189.2740  177.5550  147.0200 C   0  0  0  0  0  0  0  0  0  0  0  0
  189.4460  177.3490  145.6310 C   0  0  0  0  0  0  0  0  0  0  0  0
  190.3070  177.2380  147.9070 C   0  0  0  0  0  3  0  0  0  0  0  0
  1  8  1  0  0  0  0
  2  7  1  0  0  0  0
  2 15  1  0  0  0  0
  3  2  2  0  0  0  0
  5  4  2  0  0  0  0
  5 30  1  0  0  0  0
  6  9  2  0  0  0  0
  7 19  2  0  0  0  0
  8 20  2  0  0  0  0
  9  3  1  0  0  0  0
 10 14  2  0  0  0  0
 10 16  1  0  0  0  0
 11  1  1  0  0  0  0
 12 21  1  0  0  0  0
 13  6  1  0  0  0  0
 15 10  1  0  0  0  0
 16  5  1  0  0  0  0
 17  1  2  0  0  0  0
 17  7  1  0  0  0  0
 18  6  1  0  0  0  0
 18 23  2  0  0  0  0
 19 20  1  0  0  0  0
 19 14  1  0  0  0  0
 21 15  2  0  0  0  0
 22  3  1  0  0  0  0
 22 12  2  0  0  0  0
 23 22  1  0  0  0  0
 24 31  1  0  0  0  0
 24 27  1  0  0  0  0
 25 30  2  0  0  0  0
 25 28  1  0  0  0  0
 28 24  2  0  0  0  0
 29 26  1  0  0  0  0
 29 31  2  0  0  0  0
 30 29  1  0  0  0  0
M  END
>  <MODEL>
8

>  <REMARK>
 VINA RESULT:      -9.6      4.549      7.922
  Name = 
  1 active torsions:
  status: ('A' for Active; 'I' for Inactive)
    1  A    between atoms: C_5  and  C_30
                            x       y       z     vdW  Elec       q    Type
                         _______ _______ _______ _____ _____    ______ ____

>  <TORSDO>
F 1

$$$$
=
 OpenBabel11122411103D

 31 35  0  0  0  0  0  0  0  0999 V2000
  185.4770  178.2550  146.3220 C   0  0  0  0  0  0  0  0  0  0  0  0
  185.6220  178.3060  142.5610 C   0  0  0  0  0  0  0  0  0  0  0  0
  184.3120  178.6170  142.0910 C   0  0  0  0  0  0  0  0  0  0  0  0
  190.7510  177.1320  142.3870 O   0  0  0  0  0  0  0  0  0  0  0  0
  190.3250  177.2580  141.2070 C   0  0  0  0  0  0  0  0  0  0  0  0
  181.9550  179.1500  142.4440 C   0  0  0  0  0  0  0  0  0  0  0  0
  185.9880  178.1910  143.9350 C   0  0  0  0  0  0  0  0  0  0  0  0
  186.8010  177.9440  146.6280 C   0  0  0  0  0  3  0  0  0  0  0  0
  183.2220  178.8480  142.9480 C   0  0  0  0  0  3  0  0  0  0  0  0
  187.9410  177.7870  141.9710 C   0  0  0  0  0  0  0  0  0  0  0  0
  184.5560  178.4430  147.3430 O   0  0  0  0  0  1  0  0  0  0  0  0
  185.1070  178.4860  139.8330 N   0  0  0  0  0  0  0  0  0  0  0  0
  180.6220  179.4310  143.5410 Cl  0  0  0  0  0  0  0  0  0  0  0  0
  188.2510  177.6870  143.2890 N   0  0  0  0  0  0  0  0  0  0  0  0
  186.6310  178.0960  141.5840 C   0  0  0  0  0  0  0  0  0  0  0  0
  188.9470  177.5790  140.9680 N   0  0  0  0  0  2  0  0  0  0  0  0
  185.0770  178.3770  144.9910 C   0  0  0  0  0  3  0  0  0  0  0  0
  181.7530  179.2270  141.0660 C   0  0  0  0  0  3  0  0  0  0  0  0
  187.3310  177.8760  144.2640 C   0  0  0  0  0  0  0  0  0  0  0  0
  187.7250  177.7550  145.6000 C   0  0  0  0  0  3  0  0  0  0  0  0
  186.3330  178.1940  140.2620 N   0  0  0  0  0  0  0  0  0  0  0  0
  184.0870  178.7000  140.6960 C   0  0  0  0  0  0  0  0  0  0  0  0
  182.8180  179.0030  140.1940 C   0  0  0  0  0  3  0  0  0  0  0  0
  193.0560  176.7530  137.9310 C   0  0  0  0  0  0  0  0  0  0  0  0
  192.6080  177.3320  140.2340 C   0  0  0  0  0  3  0  0  0  0  0  0
  189.4460  176.3780  138.5470 O   0  0  0  0  0  1  0  0  0  0  0  0
  193.9300  176.5990  136.9070 F   0  0  0  0  0  0  0  0  0  0  0  0
  193.5110  177.1730  139.1810 C   0  0  0  0  0  3  0  0  0  0  0  0
  190.7880  176.6490  138.7840 C   0  0  0  0  0  0  0  0  0  0  0  0
  191.2400  177.0730  140.0550 C   0  0  0  0  0  0  0  0  0  0  0  0
  191.6990  176.4920  137.7340 C   0  0  0  0  0  3  0  0  0  0  0  0
  1  8  1  0  0  0  0
  1 11  1  0  0  0  0
  2  7  1  0  0  0  0
  3  2  1  0  0  0  0
  3  9  1  0  0  0  0
  5  4  2  0  0  0  0
  6  9  2  0  0  0  0
  6 13  1  0  0  0  0
  7 19  2  0  0  0  0
  7 17  1  0  0  0  0
 10 14  2  0  0  0  0
 12 21  2  0  0  0  0
 12 22  1  0  0  0  0
 14 19  1  0  0  0  0
 15 10  1  0  0  0  0
 15  2  2  0  0  0  0
 16  5  1  0  0  0  0
 16 10  1  0  0  0  0
 17  1  2  0  0  0  0
 18  6  1  0  0  0  0
 19 20  1  0  0  0  0
 20  8  2  0  0  0  0
 21 15  1  0  0  0  0
 22  3  2  0  0  0  0
 23 22  1  0  0  0  0
 23 18  2  0  0  0  0
 24 28  1  0  0  0  0
 26 29  1  0  0  0  0
 27 24  1  0  0  0  0
 28 25  2  0  0  0  0
 29 30  2  0  0  0  0
 30 25  1  0  0  0  0
 30  5  1  0  0  0  0
 31 24  2  0  0  0  0
 31 29  1  0  0  0  0
M  END
>  <MODEL>
9

>  <REMARK>
 VINA RESULT:      -9.4      2.673      5.260
  Name = 
  1 active torsions:
  status: ('A' for Active; 'I' for Inactive)
    1  A    between atoms: C_5  and  C_30
                            x       y       z     vdW  Elec       q    Type
                         _______ _______ _______ _____ _____    ______ ____

>  <TORSDO>
F 1

$$$$
