=
 OpenBabel11122410593D

 31 35  0  0  1  0  0  0  0  0999 V2000
  190.0330  175.7960  142.8030 C   0  0  0  0  0  0  0  0  0  0  0  0
  186.5720  177.0830  143.7100 C   0  0  2  0  0  3  0  0  0  0  0  0
  186.7040  177.7800  145.0570 C   0  0  0  0  0  0  0  0  0  0  0  0
  187.9250  178.2060  147.1180 C   0  0  0  0  0  0  0  0  0  0  0  0
  187.8940  176.9300  142.9940 C   0  0  0  0  0  0  0  0  0  0  0  0
  190.4080  176.6680  141.7790 C   0  0  0  0  0  3  0  0  0  0  0  0
  187.8320  177.5840  145.8710 C   0  0  0  0  0  3  0  0  0  0  0  0
  186.1040  179.0870  142.2540 C   0  0  2  0  0  3  0  0  0  0  0  0
  190.9060  174.8020  143.2250 O   0  0  0  0  0  1  0  0  0  0  0  0
  184.4930  178.7610  144.7720 O   0  0  0  0  0  0  0  0  0  0  0  0
  189.3450  177.9630  148.1110 Cl  0  0  0  0  0  0  0  0  0  0  0  0
  187.3170  178.8060  141.3690 C   0  0  0  0  0  2  0  0  0  0  0  0
  185.5300  177.7720  142.8060 C   0  0  2  0  0  3  0  0  0  0  0  0
  188.7810  175.9260  143.4070 C   0  0  0  0  0  3  0  0  0  0  0  0
  186.8860  179.0210  147.5720 C   0  0  0  0  0  3  0  0  0  0  0  0
  188.2740  177.8090  141.9550 C   0  0  0  0  0  0  0  0  0  0  0  0
  189.5280  177.6630  141.3510 C   0  0  0  0  0  3  0  0  0  0  0  0
  184.2410  177.9860  143.6030 C   0  0  0  0  0  2  0  0  0  0  0  0
  185.6450  178.5770  145.5400 C   0  0  0  0  0  0  0  0  0  0  0  0
  185.7480  179.2050  146.7850 C   0  0  0  0  0  3  0  0  0  0  0  0
  185.1140  179.8160  141.4670 N   0  0  0  0  0  2  0  0  0  0  0  0
  183.0290  178.6510  140.9960 C   0  0  0  0  0  1  0  0  0  0  0  0
  184.4700  178.8760  140.5560 C   0  0  1  0  0  3  0  0  0  0  0  0
  183.0840  177.4280  137.5000 C   0  0  0  0  0  0  0  0  0  0  0  0
  183.1840  179.5850  138.5750 O   0  0  0  0  0  0  0  0  0  0  0  0
  186.7200  177.9680  138.6950 O   0  0  0  0  0  0  0  0  0  0  0  0
  182.2570  176.6790  136.7790 C   0  0  0  0  0  2  0  0  0  0  0  0
  182.5110  178.3420  138.5450 C   0  0  0  0  0  2  0  0  0  0  0  0
  185.5150  178.4880  137.9250 S   0  0  2  0  0  0  0  0  0  0  0  0
  184.4850  179.4150  139.1100 C   0  0  2  0  0  3  0  0  0  0  0  0
  184.5180  177.0250  137.6080 C   0  0  0  0  0  2  0  0  0  0  0  0
  1  9  1  0  0  0  0
  1 14  1  0  0  0  0
  2  5  1  6  0  0  0
  2  3  1  0  0  0  0
  3 19  2  0  0  0  0
  3  7  1  0  0  0  0
  4 15  1  0  0  0  0
  4 11  1  0  0  0  0
  5 14  2  0  0  0  0
  6  1  2  0  0  0  0
  7  4  2  0  0  0  0
  8 21  1  6  0  0  0
  8 13  1  0  0  0  0
 10 19  1  0  0  0  0
 12 16  1  0  0  0  0
 12  8  1  0  0  0  0
 13 18  1  1  0  0  0
 13  2  1  0  0  0  0
 16  5  1  0  0  0  0
 17  6  1  0  0  0  0
 17 16  2  0  0  0  0
 18 10  1  0  0  0  0
 19 20  1  0  0  0  0
 20 15  2  0  0  0  0
 23 22  1  1  0  0  0
 23 21  1  0  0  0  0
 24 31  1  0  0  0  0
 24 28  1  0  0  0  0
 25 30  1  0  0  0  0
 27 24  2  0  0  0  0
 28 25  1  0  0  0  0
 29 26  2  1  0  0  0
 29 30  1  0  0  0  0
 30 23  1  1  0  0  0
 31 29  1  0  0  0  0
M  END
>  <MODEL>
1

>  <REMARK>
 VINA RESULT:      -8.8      0.000      0.000
  Name = 
  3 active torsions:
  status: ('A' for Active; 'I' for Inactive)
    1  A    between atoms: C_5  and  N_16
    2  A    between atoms: C_5  and  C_30
    3  A    between atoms: C_10  and  N_16
                            x       y       z     vdW  Elec       q    Type
                         _______ _______ _______ _____ _____    ______ ____

>  <TORSDO>
F 3

$$$$
=
 OpenBabel11122410593D

 31 35  0  0  1  0  0  0  0  0999 V2000
  183.6230  178.7510  142.6870 C   0  0  0  0  0  0  0  0  0  0  0  0
  182.8350  177.6520  139.1330 C   0  0  2  0  0  3  0  0  0  0  0  0
  181.9240  178.7170  138.5390 C   0  0  0  0  0  0  0  0  0  0  0  0
  180.4150  180.6090  138.7970 C   0  0  0  0  0  0  0  0  0  0  0  0
  183.6070  178.1420  140.3350 C   0  0  0  0  0  0  0  0  0  0  0  0
  184.9570  179.1520  142.5780 C   0  0  0  0  0  3  0  0  0  0  0  0
  181.2720  179.6560  139.3540 C   0  0  0  0  0  3  0  0  0  0  0  0
  184.8990  178.0510  137.7420 C   0  0  2  0  0  3  0  0  0  0  0  0
  182.9630  178.8560  143.9030 O   0  0  0  0  0  1  0  0  0  0  0  0
  182.2640  177.7750  136.3180 O   0  0  0  0  0  0  0  0  0  0  0  0
  179.6260  181.7810  139.8270 Cl  0  0  0  0  0  0  0  0  0  0  0  0
  185.7560  178.3200  138.9760 C   0  0  0  0  0  2  0  0  0  0  0  0
  183.7810  177.0490  138.0760 C   0  0  2  0  0  3  0  0  0  0  0  0
  182.9520  178.2480  141.5700 C   0  0  0  0  0  3  0  0  0  0  0  0
  180.1900  180.6240  137.4190 C   0  0  0  0  0  3  0  0  0  0  0  0
  184.9570  178.5450  140.2290 C   0  0  0  0  0  0  0  0  0  0  0  0
  185.6220  179.0390  141.3560 C   0  0  0  0  0  3  0  0  0  0  0  0
  182.9650  176.6510  136.8440 C   0  0  0  0  0  2  0  0  0  0  0  0
  181.6620  178.7200  137.1530 C   0  0  0  0  0  0  0  0  0  0  0  0
  180.8110  179.6810  136.5980 C   0  0  0  0  0  3  0  0  0  0  0  0
  185.7630  177.5540  136.6760 N   0  0  0  0  0  2  0  0  0  0  0  0
  186.4620  175.2620  137.1060 C   0  0  0  0  0  1  0  0  0  0  0  0
  186.8090  176.7350  137.2780 C   0  0  1  0  0  3  0  0  0  0  0  0
  190.0820  177.2870  138.8100 C   0  0  0  0  0  0  0  0  0  0  0  0
  189.1580  176.0530  136.9550 O   0  0  0  0  0  0  0  0  0  0  0  0
  187.6720  179.6480  136.9240 O   0  0  0  0  0  0  0  0  0  0  0  0
  191.0160  177.1810  139.7490 C   0  0  0  0  0  2  0  0  0  0  0  0
  189.3670  176.0480  138.3540 C   0  0  0  0  0  2  0  0  0  0  0  0
  188.8540  178.6920  136.8780 S   0  0  2  0  0  0  0  0  0  0  0  0
  188.1770  177.0180  136.6190 C   0  0  2  0  0  3  0  0  0  0  0  0
  189.4370  178.6140  138.5780 C   0  0  0  0  0  2  0  0  0  0  0  0
  1  9  1  0  0  0  0
  2  3  1  6  0  0  0
  2  5  1  0  0  0  0
  3  7  1  0  0  0  0
  4  7  2  0  0  0  0
  4 11  1  0  0  0  0
  5 14  1  0  0  0  0
  6  1  1  0  0  0  0
  8 21  1  6  0  0  0
  8 13  1  0  0  0  0
  8 12  1  0  0  0  0
 10 18  1  0  0  0  0
 10 19  1  0  0  0  0
 12 16  1  0  0  0  0
 13 18  1  6  0  0  0
 13  2  1  0  0  0  0
 14  1  2  0  0  0  0
 15  4  1  0  0  0  0
 16  5  2  0  0  0  0
 16 17  1  0  0  0  0
 17  6  2  0  0  0  0
 19  3  2  0  0  0  0
 20 19  1  0  0  0  0
 20 15  2  0  0  0  0
 21 23  1  0  0  0  0
 23 22  1  6  0  0  0
 24 27  2  0  0  0  0
 25 28  1  0  0  0  0
 28 24  1  0  0  0  0
 29 26  2  1  0  0  0
 29 31  1  0  0  0  0
 30 29  1  0  0  0  0
 30 25  1  0  0  0  0
 30 23  1  1  0  0  0
 31 24  1  0  0  0  0
M  END
>  <MODEL>
2

>  <REMARK>
 VINA RESULT:      -8.5      3.961      7.441
  Name = 
  3 active torsions:
  status: ('A' for Active; 'I' for Inactive)
    1  A    between atoms: C_5  and  N_16
    2  A    between atoms: C_5  and  C_30
    3  A    between atoms: C_10  and  N_16
                            x       y       z     vdW  Elec       q    Type
                         _______ _______ _______ _____ _____    ______ ____

>  <TORSDO>
F 3

$$$$
=
 OpenBabel11122410593D

 31 35  0  0  1  0  0  0  0  0999 V2000
  179.7710  177.9700  141.7890 C   0  0  0  0  0  0  0  0  0  0  0  0
  183.0500  178.8680  140.0880 C   0  0  2  0  0  3  0  0  0  0  0  0
  184.1460  178.6900  141.1300 C   0  0  0  0  0  0  0  0  0  0  0  0
  184.8590  178.4560  143.4450 C   0  0  0  0  0  0  0  0  0  0  0  0
  181.7810  178.1260  140.4350 C   0  0  0  0  0  0  0  0  0  0  0  0
  179.4670  176.7390  141.2040 C   0  0  0  0  0  3  0  0  0  0  0  0
  183.8410  178.5880  142.4970 C   0  0  0  0  0  3  0  0  0  0  0  0
  183.6440  176.9700  138.5380 C   0  0  2  0  0  3  0  0  0  0  0  0
  178.9310  178.5070  142.7550 O   0  0  0  0  0  1  0  0  0  0  0  0
  185.8380  178.8450  139.3840 O   0  0  0  0  0  0  0  0  0  0  0  0
  184.4590  178.3130  145.1420 Cl  0  0  0  0  0  0  0  0  0  0  0  0
  182.2680  176.3270  138.6970 C   0  0  0  0  0  2  0  0  0  0  0  0
  183.5370  178.4980  138.6730 C   0  0  2  0  0  3  0  0  0  0  0  0
  180.9220  178.6610  141.4050 C   0  0  0  0  0  3  0  0  0  0  0  0
  186.1950  178.4380  143.0370 C   0  0  0  0  0  3  0  0  0  0  0  0
  181.4700  176.8810  139.8430 C   0  0  0  0  0  0  0  0  0  0  0  0
  180.3100  176.2030  140.2290 C   0  0  0  0  0  3  0  0  0  0  0  0
  184.8690  179.2030  138.4020 C   0  0  0  0  0  2  0  0  0  0  0  0
  185.4990  178.7060  140.7330 C   0  0  0  0  0  0  0  0  0  0  0  0
  186.5140  178.5640  141.6840 C   0  0  0  0  0  3  0  0  0  0  0  0
  184.1910  176.5820  137.2420 N   0  0  0  0  0  2  0  0  0  0  0  0
  184.5440  174.1970  137.5780 C   0  0  0  0  0  1  0  0  0  0  0  0
  185.2100  175.5620  137.4620 C   0  0  1  0  0  3  0  0  0  0  0  0
  188.0320  177.7770  136.7640 C   0  0  0  0  0  0  0  0  0  0  0  0
  187.5640  175.4110  136.7400 O   0  0  0  0  0  0  0  0  0  0  0  0
  184.6290  177.2800  135.0000 O   0  0  0  0  0  0  0  0  0  0  0  0
  189.0110  178.6260  137.0590 C   0  0  0  0  0  2  0  0  0  0  0  0
  187.9050  176.5110  137.5610 C   0  0  0  0  0  2  0  0  0  0  0  0
  186.1020  176.9150  135.1070 S   0  0  2  0  0  0  0  0  0  0  0  0
  186.2240  175.5380  136.2970 C   0  0  2  0  0  3  0  0  0  0  0  0
  186.8400  178.2790  136.0180 C   0  0  0  0  0  2  0  0  0  0  0  0
  1  9  1  0  0  0  0
  2  5  1  1  0  0  0
  2  3  1  0  0  0  0
  3  7  1  0  0  0  0
  4 11  1  0  0  0  0
  5 14  2  0  0  0  0
  6  1  2  0  0  0  0
  7  4  2  0  0  0  0
  8 21  1  6  0  0  0
  8 13  1  0  0  0  0
  8 12  1  0  0  0  0
 10 19  1  0  0  0  0
 12 16  1  0  0  0  0
 13 18  1  1  0  0  0
 13  2  1  0  0  0  0
 14  1  1  0  0  0  0
 15  4  1  0  0  0  0
 16 17  2  0  0  0  0
 16  5  1  0  0  0  0
 17  6  1  0  0  0  0
 18 10  1  0  0  0  0
 19  3  2  0  0  0  0
 19 20  1  0  0  0  0
 20 15  2  0  0  0  0
 21 23  1  0  0  0  0
 23 22  1  6  0  0  0
 24 27  2  0  0  0  0
 24 28  1  0  0  0  0
 25 28  1  0  0  0  0
 29 26  2  1  0  0  0
 29 31  1  0  0  0  0
 29 30  1  0  0  0  0
 30 25  1  0  0  0  0
 30 23  1  1  0  0  0
 31 24  1  0  0  0  0
M  END
>  <MODEL>
3

>  <REMARK>
 VINA RESULT:      -8.4      3.263      6.464
  Name = 
  3 active torsions:
  status: ('A' for Active; 'I' for Inactive)
    1  A    between atoms: C_5  and  N_16
    2  A    between atoms: C_5  and  C_30
    3  A    between atoms: C_10  and  N_16
                            x       y       z     vdW  Elec       q    Type
                         _______ _______ _______ _____ _____    ______ ____

>  <TORSDO>
F 3

$$$$
=
 OpenBabel11122410593D

 31 35  0  0  1  0  0  0  0  0999 V2000
  179.8210  178.0170  141.7550 C   0  0  0  0  0  0  0  0  0  0  0  0
  183.1950  178.9170  140.2520 C   0  0  2  0  0  3  0  0  0  0  0  0
  184.2310  178.7050  141.3470 C   0  0  0  0  0  0  0  0  0  0  0  0
  184.8170  178.4140  143.6910 C   0  0  0  0  0  0  0  0  0  0  0  0
  181.9020  178.1800  140.5150 C   0  0  0  0  0  0  0  0  0  0  0  0
  179.5380  176.8010  141.1280 C   0  0  0  0  0  3  0  0  0  0  0  0
  183.8530  178.5770  142.6930 C   0  0  0  0  0  3  0  0  0  0  0  0
  183.8540  177.0460  138.6950 C   0  0  2  0  0  3  0  0  0  0  0  0
  178.9350  178.5410  142.6860 O   0  0  0  0  0  1  0  0  0  0  0  0
  186.0160  178.8790  139.6990 O   0  0  0  0  0  0  0  0  0  0  0  0
  184.3250  178.2390  145.3610 Cl  0  0  0  0  0  0  0  0  0  0  0  0
  182.4660  176.4140  138.7660 C   0  0  0  0  0  2  0  0  0  0  0  0
  183.7540  178.5720  138.8570 C   0  0  2  0  0  3  0  0  0  0  0  0
  180.9980  178.7030  141.4490 C   0  0  0  0  0  3  0  0  0  0  0  0
  186.1720  178.3910  143.3550 C   0  0  0  0  0  3  0  0  0  0  0  0
  181.6130  176.9520  139.8790 C   0  0  0  0  0  0  0  0  0  0  0  0
  180.4260  176.2770  140.1870 C   0  0  0  0  0  3  0  0  0  0  0  0
  185.1050  179.2680  138.6740 C   0  0  0  0  0  2  0  0  0  0  0  0
  185.6040  178.7150  141.0240 C   0  0  0  0  0  0  0  0  0  0  0  0
  186.5650  178.5430  142.0240 C   0  0  0  0  0  3  0  0  0  0  0  0
  184.4660  176.6800  137.4220 N   0  0  0  0  0  2  0  0  0  0  0  0
  182.8870  177.3360  135.6890 C   0  0  0  0  0  1  0  0  0  0  0  0
  183.4190  176.1860  136.5350 C   0  0  1  0  0  3  0  0  0  0  0  0
  183.1650  172.5520  136.8250 C   0  0  0  0  0  0  0  0  0  0  0  0
  182.9420  174.2310  135.1080 O   0  0  0  0  0  0  0  0  0  0  0  0
  186.1550  174.9760  137.1710 O   0  0  0  0  0  0  0  0  0  0  0  0
  182.6250  171.3990  137.2090 C   0  0  0  0  0  2  0  0  0  0  0  0
  182.2860  173.5860  136.1820 C   0  0  0  0  0  2  0  0  0  0  0  0
  185.3180  174.0640  136.2870 S   0  0  2  0  0  0  0  0  0  0  0  0
  183.9620  175.0780  135.6070 C   0  0  2  0  0  3  0  0  0  0  0  0
  184.4540  172.9870  137.4400 C   0  0  0  0  0  2  0  0  0  0  0  0
  1  9  1  0  0  0  0
  2  5  1  1  0  0  0
  2  3  1  0  0  0  0
  3  7  1  0  0  0  0
  4 11  1  0  0  0  0
  5 14  2  0  0  0  0
  6  1  2  0  0  0  0
  7  4  2  0  0  0  0
  8 21  1  6  0  0  0
  8 12  1  0  0  0  0
  8 13  1  0  0  0  0
 10 19  1  0  0  0  0
 12 16  1  0  0  0  0
 13 18  1  1  0  0  0
 13  2  1  0  0  0  0
 14  1  1  0  0  0  0
 15  4  1  0  0  0  0
 16 17  2  0  0  0  0
 16  5  1  0  0  0  0
 17  6  1  0  0  0  0
 18 10  1  0  0  0  0
 19  3  2  0  0  0  0
 19 20  1  0  0  0  0
 20 15  2  0  0  0  0
 23 22  1  6  0  0  0
 23 21  1  0  0  0  0
 24 27  2  0  0  0  0
 24 31  1  0  0  0  0
 25 30  1  0  0  0  0
 25 28  1  0  0  0  0
 28 24  1  0  0  0  0
 29 26  2  1  0  0  0
 29 31  1  0  0  0  0
 30 29  1  0  0  0  0
 30 23  1  1  0  0  0
M  END
>  <MODEL>
4

>  <REMARK>
 VINA RESULT:      -8.3      3.232      6.338
  Name = 
  3 active torsions:
  status: ('A' for Active; 'I' for Inactive)
    1  A    between atoms: C_5  and  N_16
    2  A    between atoms: C_5  and  C_30
    3  A    between atoms: C_10  and  N_16
                            x       y       z     vdW  Elec       q    Type
                         _______ _______ _______ _____ _____    ______ ____

>  <TORSDO>
F 3

$$$$
=
 OpenBabel11122410593D

 31 35  0  0  1  0  0  0  0  0999 V2000
  191.4000  176.5340  145.2400 C   0  0  0  0  0  0  0  0  0  0  0  0
  187.8540  176.9870  143.9430 C   0  0  2  0  0  3  0  0  0  0  0  0
  187.0820  177.7220  145.0300 C   0  0  0  0  0  0  0  0  0  0  0  0
  186.8440  178.4650  147.3350 C   0  0  0  0  0  0  0  0  0  0  0  0
  189.3510  177.1350  144.0810 C   0  0  0  0  0  0  0  0  0  0  0  0
  192.1120  177.4490  144.4620 C   0  0  0  0  0  3  0  0  0  0  0  0
  187.5780  177.8140  146.3400 C   0  0  0  0  0  3  0  0  0  0  0  0
  187.9150  178.7950  142.1870 C   0  0  2  0  0  3  0  0  0  0  0  0
  192.0550  175.7830  146.2050 O   0  0  0  0  0  1  0  0  0  0  0  0
  185.2680  178.1490  143.4610 O   0  0  0  0  0  0  0  0  0  0  0  0
  187.4870  178.5840  148.9580 Cl  0  0  0  0  0  0  0  0  0  0  0  0
  189.4410  178.7900  142.1450 C   0  0  0  0  0  2  0  0  0  0  0  0
  187.3870  177.3920  142.5310 C   0  0  2  0  0  3  0  0  0  0  0  0
  190.0250  176.3780  145.0490 C   0  0  0  0  0  3  0  0  0  0  0  0
  185.5990  179.0210  147.0330 C   0  0  0  0  0  3  0  0  0  0  0  0
  190.0750  178.0580  143.2940 C   0  0  0  0  0  0  0  0  0  0  0  0
  191.4540  178.2000  143.4870 C   0  0  0  0  0  3  0  0  0  0  0  0
  185.8590  177.3130  142.4690 C   0  0  0  0  0  2  0  0  0  0  0  0
  185.8080  178.2560  144.7450 C   0  0  0  0  0  0  0  0  0  0  0  0
  185.0820  178.9160  145.7410 C   0  0  0  0  0  3  0  0  0  0  0  0
  187.4170  179.2540  140.8940 N   0  0  0  0  0  2  0  0  0  0  0  0
  186.6160  178.1370  138.8850 C   0  0  0  0  0  1  0  0  0  0  0  0
  187.7550  178.2520  139.8900 C   0  0  1  0  0  3  0  0  0  0  0  0
  188.9310  177.2820  136.5680 C   0  0  0  0  0  0  0  0  0  0  0  0
  188.8110  179.2810  137.9130 O   0  0  0  0  0  0  0  0  0  0  0  0
  190.1570  176.3730  140.1190 O   0  0  0  0  0  0  0  0  0  0  0  0
  188.8100  176.8860  135.3050 C   0  0  0  0  0  2  0  0  0  0  0  0
  188.0840  178.4220  137.0560 C   0  0  0  0  0  2  0  0  0  0  0  0
  190.2570  177.2830  138.9040 S   0  0  2  0  0  0  0  0  0  0  0  0
  189.0550  178.6330  139.1490 C   0  0  2  0  0  3  0  0  0  0  0  0
  189.5080  176.3370  137.5700 C   0  0  0  0  0  2  0  0  0  0  0  0
  1  9  1  0  0  0  0
  2  5  1  6  0  0  0
  2  3  1  0  0  0  0
  3  7  1  0  0  0  0
  4 11  1  0  0  0  0
  5 14  2  0  0  0  0
  6  1  2  0  0  0  0
  7  4  2  0  0  0  0
  8 21  1  6  0  0  0
  8 13  1  0  0  0  0
 10 19  1  0  0  0  0
 12  8  1  0  0  0  0
 12 16  1  0  0  0  0
 13 18  1  1  0  0  0
 13  2  1  0  0  0  0
 14  1  1  0  0  0  0
 15  4  1  0  0  0  0
 16 17  2  0  0  0  0
 16  5  1  0  0  0  0
 17  6  1  0  0  0  0
 18 10  1  0  0  0  0
 19  3  2  0  0  0  0
 19 20  1  0  0  0  0
 20 15  2  0  0  0  0
 23 22  1  6  0  0  0
 23 21  1  0  0  0  0
 24 28  1  0  0  0  0
 24 31  1  0  0  0  0
 25 30  1  0  0  0  0
 27 24  2  0  0  0  0
 28 25  1  0  0  0  0
 29 30  1  0  0  0  0
 29 26  2  1  0  0  0
 30 23  1  6  0  0  0
 31 29  1  0  0  0  0
M  END
>  <MODEL>
5

>  <REMARK>
 VINA RESULT:      -8.2      2.565      3.371
  Name = 
  3 active torsions:
  status: ('A' for Active; 'I' for Inactive)
    1  A    between atoms: C_5  and  N_16
    2  A    between atoms: C_5  and  C_30
    3  A    between atoms: C_10  and  N_16
                            x       y       z     vdW  Elec       q    Type
                         _______ _______ _______ _____ _____    ______ ____

>  <TORSDO>
F 3

$$$$
=
 OpenBabel11122410593D

 31 35  0  0  1  0  0  0  0  0999 V2000
  191.0800  176.9830  142.1220 C   0  0  0  0  0  0  0  0  0  0  0  0
  189.9980  178.1590  138.6720 C   0  0  2  0  0  3  0  0  0  0  0  0
  190.2920  177.0170  137.7090 C   0  0  0  0  0  0  0  0  0  0  0  0
  191.4240  174.9320  137.1680 C   0  0  0  0  0  0  0  0  0  0  0  0
  189.9250  177.7110  140.1130 C   0  0  0  0  0  0  0  0  0  0  0  0
  189.8530  176.7680  142.7540 C   0  0  0  0  0  3  0  0  0  0  0  0
  191.1390  175.9580  138.0730 C   0  0  0  0  0  3  0  0  0  0  0  0
  187.4780  178.1110  138.6110 C   0  0  2  0  0  3  0  0  0  0  0  0
  192.2650  176.7260  142.7980 O   0  0  0  0  0  1  0  0  0  0  0  0
  188.9560  178.1140  135.9920 O   0  0  0  0  0  0  0  0  0  0  0  0
  192.4670  173.6120  137.6450 Cl  0  0  0  0  0  0  0  0  0  0  0  0
  187.3830  177.8900  140.1190 C   0  0  0  0  0  2  0  0  0  0  0  0
  188.7290  178.9380  138.2710 C   0  0  2  0  0  3  0  0  0  0  0  0
  191.1150  177.4530  140.8070 C   0  0  0  0  0  3  0  0  0  0  0  0
  190.8750  174.9610  135.8840 C   0  0  0  0  0  3  0  0  0  0  0  0
  188.6850  177.4950  140.7550 C   0  0  0  0  0  0  0  0  0  0  0  0
  188.6620  177.0320  142.0750 C   0  0  0  0  0  3  0  0  0  0  0  0
  188.8090  179.2900  136.7840 C   0  0  0  0  0  2  0  0  0  0  0  0
  189.7710  177.0550  136.3990 C   0  0  0  0  0  0  0  0  0  0  0  0
  190.0520  176.0210  135.4990 C   0  0  0  0  0  3  0  0  0  0  0  0
  186.2580  178.7740  138.1610 N   0  0  0  0  0  2  0  0  0  0  0  0
  186.1920  176.5170  137.2510 C   0  0  0  0  0  1  0  0  0  0  0  0
  185.3850  177.7700  137.5640 C   0  0  1  0  0  3  0  0  0  0  0  0
  181.8030  178.4350  137.2710 C   0  0  0  0  0  0  0  0  0  0  0  0
  183.2380  176.6030  137.9040 O   0  0  0  0  0  0  0  0  0  0  0  0
  184.5150  179.8430  139.6370 O   0  0  0  0  0  0  0  0  0  0  0  0
  180.6600  178.6700  136.6350 C   0  0  0  0  0  2  0  0  0  0  0  0
  182.6680  177.2970  136.8120 C   0  0  0  0  0  2  0  0  0  0  0  0
  183.4310  178.8080  139.3730 S   0  0  2  0  0  0  0  0  0  0  0  0
  184.2280  177.4070  138.5200 C   0  0  2  0  0  3  0  0  0  0  0  0
  182.4250  179.5320  138.0700 C   0  0  0  0  0  2  0  0  0  0  0  0
  1  6  1  0  0  0  0
  1  9  1  0  0  0  0
  2  3  1  6  0  0  0
  2  5  1  0  0  0  0
  3  7  1  0  0  0  0
  4 11  1  0  0  0  0
  4  7  2  0  0  0  0
  5 16  2  0  0  0  0
  5 14  1  0  0  0  0
  8 21  1  1  0  0  0
  8 12  1  0  0  0  0
 10 19  1  0  0  0  0
 10 18  1  0  0  0  0
 12 16  1  0  0  0  0
 13 18  1  6  0  0  0
 13  8  1  0  0  0  0
 13  2  1  0  0  0  0
 14  1  2  0  0  0  0
 15  4  1  0  0  0  0
 16 17  1  0  0  0  0
 17  6  2  0  0  0  0
 19  3  2  0  0  0  0
 20 15  2  0  0  0  0
 20 19  1  0  0  0  0
 23 22  1  1  0  0  0
 23 21  1  0  0  0  0
 24 31  1  0  0  0  0
 25 30  1  0  0  0  0
 27 24  2  0  0  0  0
 28 24  1  0  0  0  0
 28 25  1  0  0  0  0
 29 26  2  6  0  0  0
 30 23  1  6  0  0  0
 30 29  1  0  0  0  0
 31 29  1  0  0  0  0
M  END
>  <MODEL>
6

>  <REMARK>
 VINA RESULT:      -8.1      3.737      6.307
  Name = 
  3 active torsions:
  status: ('A' for Active; 'I' for Inactive)
    1  A    between atoms: C_5  and  N_16
    2  A    between atoms: C_5  and  C_30
    3  A    between atoms: C_10  and  N_16
                            x       y       z     vdW  Elec       q    Type
                         _______ _______ _______ _____ _____    ______ ____

>  <TORSDO>
F 3

$$$$
=
 OpenBabel11122410593D

 31 35  0  0  1  0  0  0  0  0999 V2000
  190.9220  173.9170  135.6740 C   0  0  0  0  0  0  0  0  0  0  0  0
  188.8400  176.9820  136.5250 C   0  0  2  0  0  3  0  0  0  0  0  0
  187.4000  176.5080  136.6600 C   0  0  0  0  0  0  0  0  0  0  0  0
  185.6640  174.8470  136.2730 C   0  0  0  0  0  0  0  0  0  0  0  0
  189.8440  175.8600  136.6530 C   0  0  0  0  0  0  0  0  0  0  0  0
  191.6090  173.6910  136.8680 C   0  0  0  0  0  3  0  0  0  0  0  0
  186.9960  175.2560  136.1700 C   0  0  0  0  0  3  0  0  0  0  0  0
  189.3070  177.5700  138.9320 C   0  0  2  0  0  3  0  0  0  0  0  0
  191.1070  173.0650  134.5940 O   0  0  0  0  0  1  0  0  0  0  0  0
  186.7900  178.6350  137.6790 O   0  0  0  0  0  0  0  0  0  0  0  0
  185.1840  173.2760  135.6720 Cl  0  0  0  0  0  0  0  0  0  0  0  0
  190.4850  176.6010  139.0060 C   0  0  0  0  0  2  0  0  0  0  0  0
  189.1630  178.1270  137.5060 C   0  0  2  0  0  3  0  0  0  0  0  0
  190.0430  174.9970  135.5670 C   0  0  0  0  0  3  0  0  0  0  0  0
  184.7180  175.6920  136.8570 C   0  0  0  0  0  3  0  0  0  0  0  0
  190.5430  175.6320  137.8600 C   0  0  0  0  0  0  0  0  0  0  0  0
  191.4270  174.5520  137.9520 C   0  0  0  0  0  3  0  0  0  0  0  0
  188.0720  179.1950  137.4040 C   0  0  0  0  0  2  0  0  0  0  0  0
  186.4290  177.3670  137.2160 C   0  0  0  0  0  0  0  0  0  0  0  0
  185.0990  176.9500  137.3260 C   0  0  0  0  0  3  0  0  0  0  0  0
  189.5210  178.6360  139.9060 N   0  0  0  0  0  2  0  0  0  0  0  0
  187.2440  178.2530  140.6770 C   0  0  0  0  0  1  0  0  0  0  0  0
  188.7090  178.3510  141.0830 C   0  0  1  0  0  3  0  0  0  0  0  0
  188.8350  177.4250  144.6170 C   0  0  0  0  0  0  0  0  0  0  0  0
  188.1230  176.4430  142.5320 O   0  0  0  0  0  0  0  0  0  0  0  0
  191.6110  178.0830  142.0090 O   0  0  0  0  0  0  0  0  0  0  0  0
  188.4870  177.4770  145.8980 C   0  0  0  0  0  2  0  0  0  0  0  0
  187.7580  177.3250  143.5760 C   0  0  0  0  0  2  0  0  0  0  0  0
  190.6940  177.0900  142.7080 S   0  0  2  0  0  0  0  0  0  0  0  0
  189.1460  177.0270  141.7450 C   0  0  2  0  0  3  0  0  0  0  0  0
  190.1800  177.9330  144.2120 C   0  0  0  0  0  2  0  0  0  0  0  0
  1  6  1  0  0  0  0
  2  5  1  1  0  0  0
  2  3  1  0  0  0  0
  2 13  1  0  0  0  0
  3 19  1  0  0  0  0
  4 15  2  0  0  0  0
  5 16  2  0  0  0  0
  6 17  2  0  0  0  0
  7  4  1  0  0  0  0
  7  3  2  0  0  0  0
  8 12  1  0  0  0  0
  8 21  1  1  0  0  0
  9  1  1  0  0  0  0
 11  4  1  0  0  0  0
 13 18  1  1  0  0  0
 13  8  1  0  0  0  0
 14  1  2  0  0  0  0
 14  5  1  0  0  0  0
 15 20  1  0  0  0  0
 16 17  1  0  0  0  0
 16 12  1  0  0  0  0
 18 10  1  0  0  0  0
 19 20  2  0  0  0  0
 19 10  1  0  0  0  0
 21 23  1  0  0  0  0
 23 22  1  6  0  0  0
 24 27  2  0  0  0  0
 25 28  1  0  0  0  0
 28 24  1  0  0  0  0
 29 26  2  6  0  0  0
 29 31  1  0  0  0  0
 30 23  1  1  0  0  0
 30 25  1  0  0  0  0
 30 29  1  0  0  0  0
 31 24  1  0  0  0  0
M  END
>  <MODEL>
7

>  <REMARK>
 VINA RESULT:      -8.1      4.569      7.922
  Name = 
  3 active torsions:
  status: ('A' for Active; 'I' for Inactive)
    1  A    between atoms: C_5  and  N_16
    2  A    between atoms: C_5  and  C_30
    3  A    between atoms: C_10  and  N_16
                            x       y       z     vdW  Elec       q    Type
                         _______ _______ _______ _____ _____    ______ ____

>  <TORSDO>
F 3

$$$$
=
 OpenBabel11122410593D

 31 35  0  0  1  0  0  0  0  0999 V2000
  181.9310  178.7600  139.2590 C   0  0  0  0  0  0  0  0  0  0  0  0
  185.6490  178.8350  138.4690 C   0  0  2  0  0  3  0  0  0  0  0  0
  186.3780  178.5410  139.7730 C   0  0  0  0  0  0  0  0  0  0  0  0
  186.4100  178.3840  142.2010 C   0  0  0  0  0  0  0  0  0  0  0  0
  184.2050  178.3920  138.4900 C   0  0  0  0  0  0  0  0  0  0  0  0
  181.5300  177.5640  138.6590 C   0  0  0  0  0  3  0  0  0  0  0  0
  185.7210  178.6260  141.0110 C   0  0  0  0  0  3  0  0  0  0  0  0
  186.1980  176.7240  137.2050 C   0  0  2  0  0  3  0  0  0  0  0  0
  181.0070  179.5370  139.9440 O   0  0  0  0  0  1  0  0  0  0  0  0
  188.4520  178.1990  138.5410 O   0  0  0  0  0  0  0  0  0  0  0  0
  185.5700  178.4780  143.7320 Cl  0  0  0  0  0  0  0  0  0  0  0  0
  184.7220  176.3810  137.0120 C   0  0  0  0  0  2  0  0  0  0  0  0
  186.3900  178.2490  137.2510 C   0  0  2  0  0  3  0  0  0  0  0  0
  183.2620  179.1720  139.1740 C   0  0  0  0  0  3  0  0  0  0  0  0
  187.7700  178.0660  142.1680 C   0  0  0  0  0  3  0  0  0  0  0  0
  183.7970  177.1840  137.8810 C   0  0  0  0  0  0  0  0  0  0  0  0
  182.4580  176.7850  137.9650 C   0  0  0  0  0  3  0  0  0  0  0  0
  187.8650  178.6490  137.3230 C   0  0  0  0  0  2  0  0  0  0  0  0
  187.7590  178.2540  139.7530 C   0  0  0  0  0  0  0  0  0  0  0  0
  188.4430  178.0020  140.9470 C   0  0  0  0  0  3  0  0  0  0  0  0
  186.9610  176.1190  136.1180 N   0  0  0  0  0  2  0  0  0  0  0  0
  187.0610  173.9490  137.2180 C   0  0  0  0  0  1  0  0  0  0  0  0
  187.8670  175.1290  136.6900 C   0  0  1  0  0  3  0  0  0  0  0  0
  191.4830  174.6520  136.9310 C   0  0  0  0  0  0  0  0  0  0  0  0
  189.5750  173.4690  136.0470 O   0  0  0  0  0  0  0  0  0  0  0  0
  189.3290  177.2030  134.9840 O   0  0  0  0  0  0  0  0  0  0  0  0
  192.6390  174.4220  137.5450 C   0  0  0  0  0  2  0  0  0  0  0  0
  190.3160  173.7520  137.2180 C   0  0  0  0  0  2  0  0  0  0  0  0
  190.0560  175.8670  135.0070 S   0  0  2  0  0  0  0  0  0  0  0  0
  188.8730  174.6270  135.6310 C   0  0  2  0  0  3  0  0  0  0  0  0
  191.2200  176.0110  136.3710 C   0  0  0  0  0  2  0  0  0  0  0  0
  1  9  1  0  0  0  0
  2  5  1  1  0  0  0
  2  3  1  0  0  0  0
  3  7  1  0  0  0  0
  4 11  1  0  0  0  0
  5 14  2  0  0  0  0
  6  1  2  0  0  0  0
  7  4  2  0  0  0  0
  8 21  1  6  0  0  0
  8 13  1  0  0  0  0
 10 19  1  0  0  0  0
 12  8  1  0  0  0  0
 12 16  1  0  0  0  0
 13 18  1  1  0  0  0
 13  2  1  0  0  0  0
 14  1  1  0  0  0  0
 15  4  1  0  0  0  0
 16 17  2  0  0  0  0
 16  5  1  0  0  0  0
 17  6  1  0  0  0  0
 18 10  1  0  0  0  0
 19  3  2  0  0  0  0
 19 20  1  0  0  0  0
 20 15  2  0  0  0  0
 21 23  1  0  0  0  0
 23 22  1  6  0  0  0
 24 28  1  0  0  0  0
 24 27  2  0  0  0  0
 25 28  1  0  0  0  0
 29 26  2  1  0  0  0
 29 30  1  0  0  0  0
 29 31  1  0  0  0  0
 30 25  1  0  0  0  0
 30 23  1  1  0  0  0
 31 24  1  0  0  0  0
M  END
>  <MODEL>
8

>  <REMARK>
 VINA RESULT:      -7.7      3.597      7.236
  Name = 
  3 active torsions:
  status: ('A' for Active; 'I' for Inactive)
    1  A    between atoms: C_5  and  N_16
    2  A    between atoms: C_5  and  C_30
    3  A    between atoms: C_10  and  N_16
                            x       y       z     vdW  Elec       q    Type
                         _______ _______ _______ _____ _____    ______ ____

>  <TORSDO>
F 3

$$$$
=
 OpenBabel11122410593D

 31 35  0  0  1  0  0  0  0  0999 V2000
  193.0410  175.8040  135.9710 C   0  0  0  0  0  0  0  0  0  0  0  0
  189.3610  176.4210  136.7050 C   0  0  2  0  0  3  0  0  0  0  0  0
  188.6590  175.0770  136.5740 C   0  0  0  0  0  0  0  0  0  0  0  0
  188.6080  172.7720  135.7940 C   0  0  0  0  0  0  0  0  0  0  0  0
  190.8530  176.2880  136.9080 C   0  0  0  0  0  0  0  0  0  0  0  0
  193.6130  175.9180  137.2400 C   0  0  0  0  0  3  0  0  0  0  0  0
  189.2770  173.9910  135.9340 C   0  0  0  0  0  3  0  0  0  0  0  0
  189.1320  176.7650  139.1920 C   0  0  2  0  0  3  0  0  0  0  0  0
  193.8360  175.5020  134.8750 O   0  0  0  0  0  1  0  0  0  0  0  0
  186.6730  176.0060  137.6370 O   0  0  0  0  0  0  0  0  0  0  0  0
  189.4010  171.4250  135.0100 Cl  0  0  0  0  0  0  0  0  0  0  0  0
  190.6440  176.8690  139.3800 C   0  0  0  0  0  2  0  0  0  0  0  0
  188.7300  177.2960  137.8060 C   0  0  2  0  0  3  0  0  0  0  0  0
  191.6660  175.9890  135.8070 C   0  0  0  0  0  3  0  0  0  0  0  0
  187.3070  172.6310  136.2810 C   0  0  0  0  0  3  0  0  0  0  0  0
  191.4350  176.4070  138.1900 C   0  0  0  0  0  0  0  0  0  0  0  0
  192.8140  176.2280  138.3420 C   0  0  0  0  0  3  0  0  0  0  0  0
  187.2120  177.3260  137.6110 C   0  0  0  0  0  2  0  0  0  0  0  0
  187.3310  174.9340  137.0300 C   0  0  0  0  0  0  0  0  0  0  0  0
  186.6690  173.7090  136.8960 C   0  0  0  0  0  3  0  0  0  0  0  0
  188.4790  177.5100  140.2630 N   0  0  0  0  0  2  0  0  0  0  0  0
  189.0270  178.8080  142.2480 C   0  0  0  0  0  1  0  0  0  0  0  0
  189.4080  177.6150  141.3820 C   0  0  1  0  0  3  0  0  0  0  0  0
  188.6770  177.1860  144.9380 C   0  0  0  0  0  0  0  0  0  0  0  0
  188.1240  176.1070  142.8530 O   0  0  0  0  0  0  0  0  0  0  0  0
  191.9450  176.8360  142.9030 O   0  0  0  0  0  0  0  0  0  0  0  0
  188.1330  177.4930  146.1110 C   0  0  0  0  0  2  0  0  0  0  0  0
  187.8090  177.1850  143.7130 C   0  0  0  0  0  2  0  0  0  0  0  0
  190.7030  176.1810  143.4890 S   0  0  2  0  0  0  0  0  0  0  0  0
  189.3820  176.3320  142.2410 C   0  0  2  0  0  3  0  0  0  0  0  0
  190.1550  177.3190  144.7700 C   0  0  0  0  0  2  0  0  0  0  0  0
  1  6  1  0  0  0  0
  2  3  1  1  0  0  0
  2  5  1  0  0  0  0
  2 13  1  0  0  0  0
  3 19  1  0  0  0  0
  4  7  1  0  0  0  0
  4 15  2  0  0  0  0
  5 16  2  0  0  0  0
  6 17  2  0  0  0  0
  7  3  2  0  0  0  0
  8 12  1  0  0  0  0
  8 21  1  1  0  0  0
  9  1  1  0  0  0  0
 11  4  1  0  0  0  0
 13 18  1  1  0  0  0
 13  8  1  0  0  0  0
 14  1  2  0  0  0  0
 14  5  1  0  0  0  0
 15 20  1  0  0  0  0
 16 17  1  0  0  0  0
 16 12  1  0  0  0  0
 18 10  1  0  0  0  0
 19 10  1  0  0  0  0
 20 19  2  0  0  0  0
 21 23  1  0  0  0  0
 23 22  1  1  0  0  0
 24 27  2  0  0  0  0
 25 28  1  0  0  0  0
 28 24  1  0  0  0  0
 29 26  2  6  0  0  0
 29 31  1  0  0  0  0
 30 23  1  1  0  0  0
 30 25  1  0  0  0  0
 30 29  1  0  0  0  0
 31 24  1  0  0  0  0
M  END
>  <MODEL>
9

>  <REMARK>
 VINA RESULT:      -7.6      4.987      8.354
  Name = 
  3 active torsions:
  status: ('A' for Active; 'I' for Inactive)
    1  A    between atoms: C_5  and  N_16
    2  A    between atoms: C_5  and  C_30
    3  A    between atoms: C_10  and  N_16
                            x       y       z     vdW  Elec       q    Type
                         _______ _______ _______ _____ _____    ______ ____

>  <TORSDO>
F 3

$$$$
