=
 OpenBabel11122411573D

 28 32  0  0  1  0  0  0  0  0999 V2000
  182.7210  177.5760  137.9260 C   0  0  0  0  0  0  0  0  0  0  0  0
  185.3030  173.0660  137.9640 C   0  0  0  0  0  1  0  0  0  0  0  0
  186.8610  179.4510  137.1070 O   0  0  0  0  0  0  0  0  0  0  0  0
  182.1340  178.1820  135.2580 C   0  0  0  0  0  3  0  0  0  0  0  0
  186.9430  177.3800  135.8740 C   0  0  1  0  0  3  0  0  0  0  0  0
  183.0620  177.2920  139.2490 O   0  0  0  0  0  0  0  0  0  0  0  0
  183.1490  172.6960  136.8660 C   0  0  0  0  0  1  0  0  0  0  0  0
  184.5570  173.2060  136.6310 C   0  0  0  0  0  0  0  0  0  0  0  0
  186.4590  172.8220  135.3850 C   0  0  1  0  0  3  0  0  0  0  0  0
  184.4320  174.6760  136.1300 C   0  0  2  0  0  3  0  0  0  0  0  0
  184.5560  179.9310  138.8000 O   0  0  0  0  0  1  0  0  0  0  0  0
  185.6710  176.1590  137.6130 C   0  0  1  0  0  3  0  0  0  0  0  0
  186.4200  174.1170  134.5940 C   0  0  0  0  0  2  0  0  0  0  0  0
  185.1470  172.3790  135.6430 O   0  0  0  0  0  0  0  0  0  0  0  0
  184.7490  178.9670  139.7900 C   0  0  2  0  0  3  0  0  0  0  0  0
  183.2770  176.7970  136.9000 C   0  0  0  0  0  0  0  0  0  0  0  0
  186.5240  178.2420  137.0010 C   0  0  0  0  0  0  0  0  0  0  0  0
  187.1420  171.8510  134.6530 O   0  0  0  0  0  1  0  0  0  0  0  0
  185.8420  177.9610  139.4020 C   0  0  0  0  0  2  0  0  0  0  0  0
  182.9840  177.1180  135.5630 C   0  0  0  0  0  3  0  0  0  0  0  0
  181.8720  178.6480  137.6160 C   0  0  0  0  0  3  0  0  0  0  0  0
  181.5770  178.9470  136.2850 C   0  0  0  0  0  3  0  0  0  0  0  0
  183.4220  178.3080  140.1760 C   0  0  0  0  0  2  0  0  0  0  0  0
  186.5190  175.9690  136.3480 C   0  0  1  0  0  3  0  0  0  0  0  0
  185.7730  177.5630  137.9950 N   0  0  0  0  0  0  0  0  0  0  0  0
  185.6540  175.1890  135.3610 C   0  0  2  0  0  3  0  0  0  0  0  0
  186.2620  177.8550  134.5940 C   0  0  0  0  0  1  0  0  0  0  0  0
  184.2440  175.6870  137.2640 C   0  0  1  0  0  3  0  0  0  0  0  0
  1  6  1  0  0  0  0
  4 20  2  0  0  0  0
  4 22  1  0  0  0  0
  5 27  1  6  0  0  0
  5 24  1  0  0  0  0
  5 17  1  0  0  0  0
  6 23  1  0  0  0  0
  8  7  1  0  0  0  0
  8  2  1  0  0  0  0
  9 18  1  6  0  0  0
  9 14  1  0  0  0  0
 10  8  1  1  0  0  0
 10 28  1  0  0  0  0
 12 25  1  6  0  0  0
 13 26  1  0  0  0  0
 13  9  1  0  0  0  0
 14  8  1  0  0  0  0
 15 11  1  6  0  0  0
 15 23  1  0  0  0  0
 16 28  1  0  0  0  0
 16  1  2  0  0  0  0
 17  3  2  0  0  0  0
 17 25  1  0  0  0  0
 19 15  1  0  0  0  0
 20 16  1  0  0  0  0
 21  1  1  0  0  0  0
 22 21  2  0  0  0  0
 24 12  1  0  0  0  0
 25 19  1  0  0  0  0
 26 10  1  0  0  0  0
 26 24  1  0  0  0  0
 28 12  1  0  0  0  0
M  END
>  <MODEL>
1

>  <REMARK>
 VINA RESULT:      -4.7      0.000      0.000
  Name = 
  0 active torsions:
  status: ('A' for Active; 'I' for Inactive)
                            x       y       z     vdW  Elec       q    Type
                         _______ _______ _______ _____ _____    ______ ____

>  <TORSDO>
F 0

$$$$
=
 OpenBabel11122411573D

 28 32  0  0  1  0  0  0  0  0999 V2000
  180.9540  176.2970  135.3330 C   0  0  0  0  0  0  0  0  0  0  0  0
  185.8910  175.7640  136.8680 C   0  0  0  0  0  1  0  0  0  0  0  0
  179.9600  175.9020  139.8260 O   0  0  0  0  0  0  0  0  0  0  0  0
  180.2740  178.9960  135.6180 C   0  0  0  0  0  3  0  0  0  0  0  0
  182.0200  177.1560  139.8270 C   0  0  1  0  0  3  0  0  0  0  0  0
  181.2840  174.9440  135.2410 O   0  0  0  0  0  0  0  0  0  0  0  0
  185.8330  177.4120  135.0610 C   0  0  0  0  0  1  0  0  0  0  0  0
  185.6190  177.2410  136.5520 C   0  0  0  0  0  0  0  0  0  0  0  0
  186.3940  177.9500  138.6050 C   0  0  1  0  0  3  0  0  0  0  0  0
  184.1610  177.6940  136.8590 C   0  0  2  0  0  3  0  0  0  0  0  0
  179.0050  174.8660  137.2910 O   0  0  0  0  0  1  0  0  0  0  0  0
  182.9390  175.8720  137.9190 C   0  0  1  0  0  3  0  0  0  0  0  0
  185.1270  178.6680  139.0370 C   0  0  0  0  0  2  0  0  0  0  0  0
  186.5600  178.0710  137.2110 O   0  0  0  0  0  0  0  0  0  0  0  0
  179.9760  173.9030  137.0160 C   0  0  2  0  0  3  0  0  0  0  0  0
  181.8410  177.1690  135.9800 C   0  0  0  0  0  0  0  0  0  0  0  0
  181.0780  176.1450  139.2980 C   0  0  0  0  0  0  0  0  0  0  0  0
  187.4910  178.5150  139.2540 O   0  0  0  0  0  1  0  0  0  0  0  0
  181.1860  174.0270  137.9530 C   0  0  0  0  0  2  0  0  0  0  0  0
  181.4840  178.5220  136.1280 C   0  0  0  0  0  3  0  0  0  0  0  0
  179.7370  176.7750  134.8270 C   0  0  0  0  0  3  0  0  0  0  0  0
  179.4010  178.1230  134.9670 C   0  0  0  0  0  3  0  0  0  0  0  0
  180.3500  173.9120  135.5310 C   0  0  0  0  0  2  0  0  0  0  0  0
  183.3110  176.8730  139.0220 C   0  0  1  0  0  3  0  0  0  0  0  0
  181.5800  175.4170  138.1890 N   0  0  0  0  0  0  0  0  0  0  0  0
  183.9140  178.0870  138.3190 C   0  0  2  0  0  3  0  0  0  0  0  0
  181.4340  178.5490  139.6230 C   0  0  0  0  0  1  0  0  0  0  0  0
  183.1190  176.6090  136.5740 C   0  0  1  0  0  3  0  0  0  0  0  0
  1 16  1  0  0  0  0
  4 20  1  0  0  0  0
  5 27  1  6  0  0  0
  6  1  1  0  0  0  0
  6 23  1  0  0  0  0
  7  8  1  0  0  0  0
  8  2  1  0  0  0  0
  8 14  1  0  0  0  0
  9 13  1  0  0  0  0
  9 18  1  1  0  0  0
 10  8  1  1  0  0  0
 10 26  1  0  0  0  0
 12 25  1  1  0  0  0
 12 24  1  0  0  0  0
 14  9  1  0  0  0  0
 15 11  1  6  0  0  0
 15 19  1  0  0  0  0
 16 20  2  0  0  0  0
 16 28  1  0  0  0  0
 17  3  2  0  0  0  0
 17  5  1  0  0  0  0
 19 25  1  0  0  0  0
 21 22  1  0  0  0  0
 21  1  2  0  0  0  0
 22  4  2  0  0  0  0
 23 15  1  0  0  0  0
 24  5  1  0  0  0  0
 25 17  1  0  0  0  0
 26 24  1  0  0  0  0
 26 13  1  0  0  0  0
 28 10  1  0  0  0  0
 28 12  1  0  0  0  0
M  END
>  <MODEL>
2

>  <REMARK>
 VINA RESULT:      -4.5      2.552      5.320
  Name = 
  0 active torsions:
  status: ('A' for Active; 'I' for Inactive)
                            x       y       z     vdW  Elec       q    Type
                         _______ _______ _______ _____ _____    ______ ____

>  <TORSDO>
F 0

$$$$
=
 OpenBabel11122411573D

 28 32  0  0  1  0  0  0  0  0999 V2000
  181.7600  179.6310  138.6690 C   0  0  0  0  0  0  0  0  0  0  0  0
  185.3960  177.3740  135.7200 C   0  0  0  0  0  1  0  0  0  0  0  0
  178.9320  176.4550  136.8690 O   0  0  0  0  0  0  0  0  0  0  0  0
  181.5790  178.1640  141.0450 C   0  0  0  0  0  3  0  0  0  0  0  0
  181.0100  175.2590  137.1230 C   0  0  1  0  0  3  0  0  0  0  0  0
  181.8200  180.3270  137.4610 O   0  0  0  0  0  0  0  0  0  0  0  0
  186.4260  177.9910  137.8500 C   0  0  0  0  0  1  0  0  0  0  0  0
  185.5820  176.9280  137.1760 C   0  0  0  0  0  0  0  0  0  0  0  0
  185.5580  174.6890  136.6220 C   0  0  1  0  0  3  0  0  0  0  0  0
  184.2510  176.8240  137.9780 C   0  0  2  0  0  3  0  0  0  0  0  0
  178.9310  179.3020  137.4180 O   0  0  0  0  0  1  0  0  0  0  0  0
  182.3610  177.2380  136.4970 C   0  0  1  0  0  3  0  0  0  0  0  0
  184.3990  174.2950  137.5200 C   0  0  0  0  0  2  0  0  0  0  0  0
  186.3090  175.7130  137.2330 O   0  0  0  0  0  0  0  0  0  0  0  0
  179.7140  179.7760  136.3640 C   0  0  2  0  0  3  0  0  0  0  0  0
  182.4530  178.4170  138.7880 C   0  0  0  0  0  0  0  0  0  0  0  0
  180.1920  176.4630  136.8620 C   0  0  0  0  0  0  0  0  0  0  0  0
  186.3740  173.5810  136.4050 O   0  0  0  0  0  1  0  0  0  0  0  0
  180.4230  178.6340  135.6220 C   0  0  0  0  0  2  0  0  0  0  0  0
  182.3460  177.6830  139.9820 C   0  0  0  0  0  3  0  0  0  0  0  0
  180.9870  180.1090  139.7360 C   0  0  0  0  0  3  0  0  0  0  0  0
  180.9010  179.3780  140.9230 C   0  0  0  0  0  3  0  0  0  0  0  0
  180.6650  180.8770  136.8420 C   0  0  0  0  0  2  0  0  0  0  0  0
  182.4340  175.7220  136.7300 C   0  0  1  0  0  3  0  0  0  0  0  0
  180.9520  177.6120  136.5260 N   0  0  0  0  0  0  0  0  0  0  0  0
  183.5040  175.4990  137.7960 C   0  0  2  0  0  3  0  0  0  0  0  0
  180.8540  174.8470  138.5840 C   0  0  0  0  0  1  0  0  0  0  0  0
  183.2270  177.8950  137.5930 C   0  0  1  0  0  3  0  0  0  0  0  0
  1 16  2  0  0  0  0
  1 21  1  0  0  0  0
  2  8  1  0  0  0  0
  5 27  1  1  0  0  0
  6  1  1  0  0  0  0
  8 14  1  0  0  0  0
  8  7  1  0  0  0  0
  9 18  1  1  0  0  0
  9 14  1  0  0  0  0
  9 13  1  0  0  0  0
 10  8  1  6  0  0  0
 12 25  1  1  0  0  0
 12 24  1  0  0  0  0
 12 28  1  0  0  0  0
 13 26  1  0  0  0  0
 15 23  1  0  0  0  0
 15 11  1  1  0  0  0
 16 20  1  0  0  0  0
 17  3  2  0  0  0  0
 17  5  1  0  0  0  0
 19 15  1  0  0  0  0
 19 25  1  0  0  0  0
 20  4  2  0  0  0  0
 21 22  2  0  0  0  0
 22  4  1  0  0  0  0
 23  6  1  0  0  0  0
 24  5  1  0  0  0  0
 24 26  1  0  0  0  0
 25 17  1  0  0  0  0
 26 10  1  0  0  0  0
 28 10  1  0  0  0  0
 28 16  1  0  0  0  0
M  END
>  <MODEL>
3

>  <REMARK>
 VINA RESULT:      -4.5      2.514      4.859
  Name = 
  0 active torsions:
  status: ('A' for Active; 'I' for Inactive)
                            x       y       z     vdW  Elec       q    Type
                         _______ _______ _______ _____ _____    ______ ____

>  <TORSDO>
F 0

$$$$
=
 OpenBabel11122411573D

 28 32  0  0  1  0  0  0  0  0999 V2000
  180.3420  176.4260  136.5050 C   0  0  0  0  0  0  0  0  0  0  0  0
  185.1520  174.5470  137.0920 C   0  0  0  0  0  1  0  0  0  0  0  0
  180.9870  178.2220  140.7100 O   0  0  0  0  0  0  0  0  0  0  0  0
  180.5780  179.0500  135.5600 C   0  0  0  0  0  3  0  0  0  0  0  0
  183.1630  178.4160  139.6900 C   0  0  1  0  0  3  0  0  0  0  0  0
  180.2340  175.1350  137.0230 O   0  0  0  0  0  0  0  0  0  0  0  0
  184.8920  175.2460  134.7630 C   0  0  0  0  0  1  0  0  0  0  0  0
  185.1980  175.7610  136.1550 C   0  0  0  0  0  0  0  0  0  0  0  0
  186.8290  176.8140  137.3990 C   0  0  1  0  0  3  0  0  0  0  0  0
  184.1340  176.8510  136.4830 C   0  0  2  0  0  3  0  0  0  0  0  0
  178.9310  176.7870  139.2530 O   0  0  0  0  0  1  0  0  0  0  0  0
  182.9360  176.2470  138.5160 C   0  0  1  0  0  3  0  0  0  0  0  0
  186.0550  178.0930  137.6650 C   0  0  0  0  0  2  0  0  0  0  0  0
  186.5020  176.3140  136.1230 O   0  0  0  0  0  0  0  0  0  0  0  0
  179.4320  175.4860  139.2990 C   0  0  2  0  0  3  0  0  0  0  0  0
  181.6060  177.0320  136.4520 C   0  0  0  0  0  0  0  0  0  0  0  0
  181.8570  177.7630  139.9220 C   0  0  0  0  0  0  0  0  0  0  0  0
  188.1960  177.0800  137.4570 O   0  0  0  0  0  1  0  0  0  0  0  0
  180.8850  175.4510  139.7940 C   0  0  0  0  0  2  0  0  0  0  0  0
  181.7110  178.3550  135.9860 C   0  0  0  0  0  3  0  0  0  0  0  0
  179.2050  177.1280  136.0810 C   0  0  0  0  0  3  0  0  0  0  0  0
  179.3240  178.4360  135.6070 C   0  0  0  0  0  3  0  0  0  0  0  0
  179.2270  174.7740  137.9590 C   0  0  0  0  0  2  0  0  0  0  0  0
  183.9430  177.3450  138.8900 C   0  0  1  0  0  3  0  0  0  0  0  0
  181.7000  176.5310  139.2370 N   0  0  0  0  0  0  0  0  0  0  0  0
  184.5540  177.8350  137.5790 C   0  0  2  0  0  3  0  0  0  0  0  0
  182.9480  179.7330  138.9520 C   0  0  0  0  0  1  0  0  0  0  0  0
  182.8070  176.2710  136.9780 C   0  0  1  0  0  3  0  0  0  0  0  0
  1  6  1  0  0  0  0
  4 22  2  0  0  0  0
  4 20  1  0  0  0  0
  5 27  1  6  0  0  0
  5 17  1  0  0  0  0
  6 23  1  0  0  0  0
  7  8  1  0  0  0  0
  8  2  1  0  0  0  0
  9 18  1  6  0  0  0
  9 13  1  0  0  0  0
 10  8  1  1  0  0  0
 10 28  1  0  0  0  0
 10 26  1  0  0  0  0
 12 24  1  0  0  0  0
 12 25  1  1  0  0  0
 14  8  1  0  0  0  0
 14  9  1  0  0  0  0
 15 11  1  6  0  0  0
 15 19  1  0  0  0  0
 16  1  1  0  0  0  0
 16 28  1  0  0  0  0
 17  3  2  0  0  0  0
 20 16  2  0  0  0  0
 21  1  2  0  0  0  0
 22 21  1  0  0  0  0
 23 15  1  0  0  0  0
 24  5  1  0  0  0  0
 25 19  1  0  0  0  0
 25 17  1  0  0  0  0
 26 13  1  0  0  0  0
 26 24  1  0  0  0  0
 28 12  1  0  0  0  0
M  END
>  <MODEL>
4

>  <REMARK>
 VINA RESULT:      -4.5      2.520      4.358
  Name = 
  0 active torsions:
  status: ('A' for Active; 'I' for Inactive)
                            x       y       z     vdW  Elec       q    Type
                         _______ _______ _______ _____ _____    ______ ____

>  <TORSDO>
F 0

$$$$
=
 OpenBabel11122411573D

 28 32  0  0  1  0  0  0  0  0999 V2000
  179.7620  179.8170  140.0010 C   0  0  0  0  0  0  0  0  0  0  0  0
  180.4870  174.8200  138.7700 C   0  0  0  0  0  1  0  0  0  0  0  0
  183.6800  179.3550  142.4000 O   0  0  0  0  0  0  0  0  0  0  0  0
  181.2680  181.3490  138.2080 C   0  0  0  0  0  3  0  0  0  0  0  0
  184.0650  177.9890  140.4510 C   0  0  1  0  0  3  0  0  0  0  0  0
  179.0530  179.0450  140.9230 O   0  0  0  0  0  0  0  0  0  0  0  0
  179.6080  175.9660  136.7960 C   0  0  0  0  0  1  0  0  0  0  0  0
  180.8810  175.6950  137.5720 C   0  0  0  0  0  0  0  0  0  0  0  0
  182.9640  174.7220  137.3900 C   0  0  1  0  0  3  0  0  0  0  0  0
  181.4760  177.0780  137.9710 C   0  0  2  0  0  3  0  0  0  0  0  0
  181.0370  180.4950  142.7560 O   0  0  0  0  0  1  0  0  0  0  0  0
  181.7170  177.2040  140.3920 C   0  0  1  0  0  3  0  0  0  0  0  0
  183.7720  175.9990  137.5320 C   0  0  0  0  0  2  0  0  0  0  0  0
  181.7590  174.9910  136.7110 O   0  0  0  0  0  0  0  0  0  0  0  0
  180.2850  179.3470  143.0050 C   0  0  2  0  0  3  0  0  0  0  0  0
  180.6520  179.1800  139.1240 C   0  0  0  0  0  0  0  0  0  0  0  0
  183.2240  178.5920  141.5070 C   0  0  0  0  0  0  0  0  0  0  0  0
  183.7020  173.7830  136.6720 O   0  0  0  0  0  1  0  0  0  0  0  0
  181.0760  178.0670  142.6980 C   0  0  0  0  0  2  0  0  0  0  0  0
  181.4120  179.9610  138.2350 C   0  0  0  0  0  3  0  0  0  0  0  0
  179.6230  181.2120  139.9750 C   0  0  0  0  0  3  0  0  0  0  0  0
  180.3720  181.9750  139.0760 C   0  0  0  0  0  3  0  0  0  0  0  0
  178.9330  179.4140  142.2900 C   0  0  0  0  0  2  0  0  0  0  0  0
  183.1150  176.9510  139.8080 C   0  0  1  0  0  3  0  0  0  0  0  0
  181.8700  178.1710  141.4730 N   0  0  0  0  0  0  0  0  0  0  0  0
  182.9740  177.0540  138.2910 C   0  0  2  0  0  3  0  0  0  0  0  0
  184.5490  179.0820  139.5030 C   0  0  0  0  0  1  0  0  0  0  0  0
  180.8280  177.6770  139.2220 C   0  0  1  0  0  3  0  0  0  0  0  0
  1  6  1  0  0  0  0
  4 20  2  0  0  0  0
  4 22  1  0  0  0  0
  5 27  1  6  0  0  0
  5 17  1  0  0  0  0
  6 23  1  0  0  0  0
  7  8  1  0  0  0  0
  8  2  1  0  0  0  0
  9 18  1  6  0  0  0
  9 13  1  0  0  0  0
 10  8  1  1  0  0  0
 10 26  1  0  0  0  0
 10 28  1  0  0  0  0
 12 25  1  1  0  0  0
 13 26  1  0  0  0  0
 14  9  1  0  0  0  0
 14  8  1  0  0  0  0
 15 11  1  6  0  0  0
 16 28  1  0  0  0  0
 16  1  2  0  0  0  0
 17  3  2  0  0  0  0
 19 15  1  0  0  0  0
 20 16  1  0  0  0  0
 21  1  1  0  0  0  0
 22 21  2  0  0  0  0
 23 15  1  0  0  0  0
 24 12  1  0  0  0  0
 24  5  1  0  0  0  0
 25 17  1  0  0  0  0
 25 19  1  0  0  0  0
 26 24  1  0  0  0  0
 28 12  1  0  0  0  0
M  END
>  <MODEL>
5

>  <REMARK>
 VINA RESULT:      -4.4      3.141      4.849
  Name = 
  0 active torsions:
  status: ('A' for Active; 'I' for Inactive)
                            x       y       z     vdW  Elec       q    Type
                         _______ _______ _______ _____ _____    ______ ____

>  <TORSDO>
F 0

$$$$
=
 OpenBabel11122411573D

 28 32  0  0  1  0  0  0  0  0999 V2000
  180.7760  178.7620  138.0760 C   0  0  0  0  0  0  0  0  0  0  0  0
  180.7080  173.5680  138.2600 C   0  0  0  0  0  1  0  0  0  0  0  0
  185.3670  178.2840  138.2080 O   0  0  0  0  0  0  0  0  0  0  0  0
  181.1230  179.5010  135.4000 C   0  0  0  0  0  3  0  0  0  0  0  0
  184.6590  176.4150  136.8580 C   0  0  1  0  0  3  0  0  0  0  0  0
  180.6530  178.3850  139.4140 O   0  0  0  0  0  0  0  0  0  0  0  0
  178.9310  174.2950  136.7460 C   0  0  0  0  0  1  0  0  0  0  0  0
  180.4200  174.0240  136.8240 C   0  0  0  0  0  0  0  0  0  0  0  0
  182.0880  172.7000  135.9380 C   0  0  1  0  0  3  0  0  0  0  0  0
  181.1460  175.3420  136.4230 C   0  0  2  0  0  3  0  0  0  0  0  0
  183.3150  179.9050  139.4620 O   0  0  0  0  0  1  0  0  0  0  0  0
  182.6260  176.0480  138.2240 C   0  0  1  0  0  3  0  0  0  0  0  0
  182.8590  173.8160  135.2550 C   0  0  0  0  0  2  0  0  0  0  0  0
  180.7080  172.9830  135.9060 O   0  0  0  0  0  0  0  0  0  0  0  0
  182.7980  179.0040  140.3930 C   0  0  2  0  0  3  0  0  0  0  0  0
  181.0670  177.7790  137.1190 C   0  0  0  0  0  0  0  0  0  0  0  0
  184.5040  177.4040  137.9480 C   0  0  0  0  0  0  0  0  0  0  0  0
  182.3310  171.4970  135.2770 O   0  0  0  0  0  1  0  0  0  0  0  0
  183.3010  177.5750  140.1450 C   0  0  0  0  0  2  0  0  0  0  0  0
  181.2510  178.1630  135.7790 C   0  0  0  0  0  3  0  0  0  0  0  0
  180.6540  180.1050  137.6930 C   0  0  0  0  0  3  0  0  0  0  0  0
  180.8230  180.4720  136.3570 C   0  0  0  0  0  3  0  0  0  0  0  0
  181.2730  179.1100  140.4680 C   0  0  0  0  0  2  0  0  0  0  0  0
  183.5050  175.4210  137.1330 C   0  0  1  0  0  3  0  0  0  0  0  0
  183.3310  177.2230  138.7250 N   0  0  0  0  0  0  0  0  0  0  0  0
  182.5880  175.1500  135.9420 C   0  0  2  0  0  3  0  0  0  0  0  0
  184.5790  177.1280  135.5120 C   0  0  0  0  0  1  0  0  0  0  0  0
  181.2580  176.3450  137.5740 C   0  0  1  0  0  3  0  0  0  0  0  0
  1  6  1  0  0  0  0
  4 20  2  0  0  0  0
  4 22  1  0  0  0  0
  5 27  1  6  0  0  0
  5 24  1  0  0  0  0
  5 17  1  0  0  0  0
  6 23  1  0  0  0  0
  7  8  1  0  0  0  0
  8  2  1  0  0  0  0
  9 18  1  6  0  0  0
 10  8  1  1  0  0  0
 10 28  1  0  0  0  0
 12 25  1  6  0  0  0
 13  9  1  0  0  0  0
 13 26  1  0  0  0  0
 14  9  1  0  0  0  0
 14  8  1  0  0  0  0
 15 11  1  6  0  0  0
 15 23  1  0  0  0  0
 16 28  1  0  0  0  0
 16  1  2  0  0  0  0
 17  3  2  0  0  0  0
 17 25  1  0  0  0  0
 19 15  1  0  0  0  0
 20 16  1  0  0  0  0
 21  1  1  0  0  0  0
 22 21  2  0  0  0  0
 24 12  1  0  0  0  0
 25 19  1  0  0  0  0
 26 10  1  0  0  0  0
 26 24  1  0  0  0  0
 28 12  1  0  0  0  0
M  END
>  <MODEL>
6

>  <REMARK>
 VINA RESULT:      -4.3      2.276      3.076
  Name = 
  0 active torsions:
  status: ('A' for Active; 'I' for Inactive)
                            x       y       z     vdW  Elec       q    Type
                         _______ _______ _______ _____ _____    ______ ____

>  <TORSDO>
F 0

$$$$
=
 OpenBabel11122411573D

 28 32  0  0  1  0  0  0  0  0999 V2000
  181.3130  178.5290  136.7750 C   0  0  0  0  0  0  0  0  0  0  0  0
  185.9970  176.7200  138.1150 C   0  0  0  0  0  1  0  0  0  0  0  0
  180.0260  177.0870  140.9690 O   0  0  0  0  0  0  0  0  0  0  0  0
  181.0890  181.1190  137.8090 C   0  0  0  0  0  3  0  0  0  0  0  0
  182.2660  177.9030  141.3320 C   0  0  1  0  0  3  0  0  0  0  0  0
  181.4130  177.2190  136.3050 O   0  0  0  0  0  0  0  0  0  0  0  0
  186.3190  178.7870  136.8480 C   0  0  0  0  0  1  0  0  0  0  0  0
  185.9990  178.2500  138.2280 C   0  0  0  0  0  0  0  0  0  0  0  0
  186.7700  178.2110  140.4010 C   0  0  1  0  0  3  0  0  0  0  0  0
  184.6240  178.8520  138.6450 C   0  0  2  0  0  3  0  0  0  0  0  0
  179.0470  176.9830  138.2410 O   0  0  0  0  0  1  0  0  0  0  0  0
  183.0540  177.0560  139.1420 C   0  0  1  0  0  3  0  0  0  0  0  0
  185.6230  178.9940  141.0130 C   0  0  0  0  0  2  0  0  0  0  0  0
  187.0300  178.6820  139.0990 O   0  0  0  0  0  0  0  0  0  0  0  0
  179.8530  175.9770  137.7080 C   0  0  2  0  0  3  0  0  0  0  0  0
  182.3000  179.0150  137.6450 C   0  0  0  0  0  0  0  0  0  0  0  0
  181.1950  177.2630  140.5360 C   0  0  0  0  0  0  0  0  0  0  0  0
  187.9100  178.3680  141.1880 O   0  0  0  0  0  1  0  0  0  0  0  0
  181.0140  175.6180  138.6470 C   0  0  0  0  0  2  0  0  0  0  0  0
  182.1710  180.3140  138.1680 C   0  0  0  0  0  3  0  0  0  0  0  0
  180.2250  179.3380  136.4200 C   0  0  0  0  0  3  0  0  0  0  0  0
  180.1160  180.6320  136.9340 C   0  0  0  0  0  3  0  0  0  0  0  0
  180.3030  176.3310  136.2880 C   0  0  0  0  0  2  0  0  0  0  0  0
  183.5310  177.6280  140.4850 C   0  0  1  0  0  3  0  0  0  0  0  0
  181.6250  176.7940  139.2680 N   0  0  0  0  0  0  0  0  0  0  0  0
  184.3690  178.8620  140.1560 C   0  0  2  0  0  3  0  0  0  0  0  0
  181.9370  179.3790  141.5290 C   0  0  0  0  0  1  0  0  0  0  0  0
  183.4290  178.0930  138.0620 C   0  0  1  0  0  3  0  0  0  0  0  0
  1 16  1  0  0  0  0
  2  8  1  0  0  0  0
  4 20  1  0  0  0  0
  5 27  1  6  0  0  0
  6  1  1  0  0  0  0
  7  8  1  0  0  0  0
  8 14  1  0  0  0  0
  9 13  1  0  0  0  0
  9 18  1  1  0  0  0
 10  8  1  1  0  0  0
 10 26  1  0  0  0  0
 12 25  1  1  0  0  0
 12 24  1  0  0  0  0
 14  9  1  0  0  0  0
 15 11  1  1  0  0  0
 15 19  1  0  0  0  0
 16 28  1  0  0  0  0
 16 20  2  0  0  0  0
 17  3  2  0  0  0  0
 17  5  1  0  0  0  0
 19 25  1  0  0  0  0
 21  1  2  0  0  0  0
 21 22  1  0  0  0  0
 22  4  2  0  0  0  0
 23  6  1  0  0  0  0
 23 15  1  0  0  0  0
 24  5  1  0  0  0  0
 25 17  1  0  0  0  0
 26 24  1  0  0  0  0
 26 13  1  0  0  0  0
 28 10  1  0  0  0  0
 28 12  1  0  0  0  0
M  END
>  <MODEL>
7

>  <REMARK>
 VINA RESULT:      -4.2      3.220      5.701
  Name = 
  0 active torsions:
  status: ('A' for Active; 'I' for Inactive)
                            x       y       z     vdW  Elec       q    Type
                         _______ _______ _______ _____ _____    ______ ____

>  <TORSDO>
F 0

$$$$
=
 OpenBabel11122411573D

 28 32  0  0  1  0  0  0  0  0999 V2000
  182.0170  178.1720  138.1680 C   0  0  0  0  0  0  0  0  0  0  0  0
  186.6520  178.0320  135.8220 C   0  0  0  0  0  1  0  0  0  0  0  0
  180.6190  175.5580  134.6260 O   0  0  0  0  0  0  0  0  0  0  0  0
  181.7910  175.8530  139.7170 C   0  0  0  0  0  3  0  0  0  0  0  0
  182.8570  174.7650  135.0450 C   0  0  1  0  0  3  0  0  0  0  0  0
  182.1160  179.3020  137.3540 O   0  0  0  0  0  0  0  0  0  0  0  0
  187.0210  177.8960  138.2360 C   0  0  0  0  0  1  0  0  0  0  0  0
  186.6640  177.0690  137.0170 C   0  0  0  0  0  0  0  0  0  0  0  0
  187.3850  175.2930  135.7350 C   0  0  1  0  0  3  0  0  0  0  0  0
  185.2860  176.4040  137.3040 C   0  0  2  0  0  3  0  0  0  0  0  0
  179.7030  177.8760  136.1090 O   0  0  0  0  0  1  0  0  0  0  0  0
  183.6890  177.0360  135.5760 C   0  0  1  0  0  3  0  0  0  0  0  0
  186.2310  174.3600  136.0560 C   0  0  0  0  0  2  0  0  0  0  0  0
  187.6790  176.0930  136.8570 O   0  0  0  0  0  0  0  0  0  0  0  0
  180.5130  178.8750  135.5670 C   0  0  2  0  0  3  0  0  0  0  0  0
  182.9870  177.1660  138.0530 C   0  0  0  0  0  0  0  0  0  0  0  0
  181.8010  175.7980  134.9930 C   0  0  0  0  0  0  0  0  0  0  0  0
  188.5080  174.5400  135.3950 O   0  0  0  0  0  1  0  0  0  0  0  0
  181.6490  178.2900  134.7160 C   0  0  0  0  0  2  0  0  0  0  0  0
  182.8570  176.0000  138.8280 C   0  0  0  0  0  3  0  0  0  0  0  0
  180.9440  178.0200  139.0570 C   0  0  0  0  0  3  0  0  0  0  0  0
  180.8350  176.8640  139.8330 C   0  0  0  0  0  3  0  0  0  0  0  0
  180.9980  179.8350  136.6560 C   0  0  0  0  0  2  0  0  0  0  0  0
  184.1400  175.6000  135.2740 C   0  0  1  0  0  3  0  0  0  0  0  0
  182.2550  177.1020  135.3180 N   0  0  0  0  0  0  0  0  0  0  0  0
  184.9960  175.1580  136.4600 C   0  0  2  0  0  3  0  0  0  0  0  0
  182.5380  173.7690  136.1560 C   0  0  0  0  0  1  0  0  0  0  0  0
  184.0980  177.3310  137.0350 C   0  0  1  0  0  3  0  0  0  0  0  0
  1 21  1  0  0  0  0
  2  8  1  0  0  0  0
  3 17  2  0  0  0  0
  4 22  1  0  0  0  0
  5 24  1  0  0  0  0
  5 27  1  1  0  0  0
  6  1  1  0  0  0  0
  8  7  1  0  0  0  0
  9 18  1  1  0  0  0
  9 13  1  0  0  0  0
  9 14  1  0  0  0  0
 10  8  1  6  0  0  0
 12 25  1  1  0  0  0
 12 28  1  0  0  0  0
 13 26  1  0  0  0  0
 14  8  1  0  0  0  0
 15 11  1  1  0  0  0
 15 23  1  0  0  0  0
 16  1  2  0  0  0  0
 16 20  1  0  0  0  0
 17  5  1  0  0  0  0
 17 25  1  0  0  0  0
 19 25  1  0  0  0  0
 19 15  1  0  0  0  0
 20  4  2  0  0  0  0
 21 22  2  0  0  0  0
 23  6  1  0  0  0  0
 24 12  1  0  0  0  0
 24 26  1  0  0  0  0
 26 10  1  0  0  0  0
 28 10  1  0  0  0  0
 28 16  1  0  0  0  0
M  END
>  <MODEL>
8

>  <REMARK>
 VINA RESULT:      -4.2      2.295      4.352
  Name = 
  0 active torsions:
  status: ('A' for Active; 'I' for Inactive)
                            x       y       z     vdW  Elec       q    Type
                         _______ _______ _______ _____ _____    ______ ____

>  <TORSDO>
F 0

$$$$
=
 OpenBabel11122411573D

 28 32  0  0  1  0  0  0  0  0999 V2000
  180.4450  174.4740  137.2990 C   0  0  0  0  0  0  0  0  0  0  0  0
  185.2880  172.6370  137.7320 C   0  0  0  0  0  1  0  0  0  0  0  0
  182.4560  178.6260  137.5050 O   0  0  0  0  0  0  0  0  0  0  0  0
  180.0020  175.0370  134.5940 C   0  0  0  0  0  3  0  0  0  0  0  0
  184.0340  177.3140  136.2390 C   0  0  1  0  0  3  0  0  0  0  0  0
  180.6910  174.2380  138.6520 O   0  0  0  0  0  0  0  0  0  0  0  0
  184.0720  171.2050  136.1650 C   0  0  0  0  0  1  0  0  0  0  0  0
  184.8320  172.5120  136.2720 C   0  0  0  0  0  0  0  0  0  0  0  0
  186.6870  173.6230  135.4690 C   0  0  1  0  0  3  0  0  0  0  0  0
  183.8620  173.6430  135.8160 C   0  0  2  0  0  3  0  0  0  0  0  0
  180.1720  177.2590  138.6560 O   0  0  0  0  0  1  0  0  0  0  0  0
  183.6170  175.2860  137.5980 C   0  0  1  0  0  3  0  0  0  0  0  0
  185.9360  174.7240  134.7420 C   0  0  0  0  0  2  0  0  0  0  0  0
  185.9520  172.4220  135.4080 O   0  0  0  0  0  0  0  0  0  0  0  0
  180.7950  176.4710  139.6240 C   0  0  2  0  0  3  0  0  0  0  0  0
  181.5140  174.4060  136.3930 C   0  0  0  0  0  0  0  0  0  0  0  0
  183.0000  177.5120  137.2780 C   0  0  0  0  0  0  0  0  0  0  0  0
  187.9320  173.4360  134.8700 O   0  0  0  0  0  1  0  0  0  0  0  0
  182.3210  176.4530  139.4510 C   0  0  0  0  0  2  0  0  0  0  0  0
  181.2820  174.7020  135.0380 C   0  0  0  0  0  3  0  0  0  0  0  0
  179.1620  174.8160  136.8510 C   0  0  0  0  0  3  0  0  0  0  0  0
  178.9410  175.0930  135.5000 C   0  0  0  0  0  3  0  0  0  0  0  0
  180.1700  175.0740  139.6770 C   0  0  0  0  0  2  0  0  0  0  0  0
  184.5590  175.8910  136.5480 C   0  0  1  0  0  3  0  0  0  0  0  0
  182.7310  176.3530  138.0500 N   0  0  0  0  0  0  0  0  0  0  0  0
  184.5580  174.9300  135.3610 C   0  0  2  0  0  3  0  0  0  0  0  0
  183.4030  177.4750  134.8590 C   0  0  0  0  0  1  0  0  0  0  0  0
  182.9030  174.0980  136.9190 C   0  0  1  0  0  3  0  0  0  0  0  0
  1  6  1  0  0  0  0
  4 20  2  0  0  0  0
  4 22  1  0  0  0  0
  5 27  1  6  0  0  0
  5 24  1  0  0  0  0
  5 17  1  0  0  0  0
  6 23  1  0  0  0  0
  7  8  1  0  0  0  0
  8  2  1  0  0  0  0
  9 18  1  6  0  0  0
 10  8  1  1  0  0  0
 10 28  1  0  0  0  0
 12 25  1  6  0  0  0
 13 26  1  0  0  0  0
 13  9  1  0  0  0  0
 14  9  1  0  0  0  0
 14  8  1  0  0  0  0
 15 11  1  6  0  0  0
 15 23  1  0  0  0  0
 16 28  1  0  0  0  0
 16  1  2  0  0  0  0
 17  3  2  0  0  0  0
 17 25  1  0  0  0  0
 19 15  1  0  0  0  0
 20 16  1  0  0  0  0
 21  1  1  0  0  0  0
 22 21  2  0  0  0  0
 24 12  1  0  0  0  0
 25 19  1  0  0  0  0
 26 10  1  0  0  0  0
 26 24  1  0  0  0  0
 28 12  1  0  0  0  0
M  END
>  <MODEL>
9

>  <REMARK>
 VINA RESULT:      -4.0      2.426      3.159
  Name = 
  0 active torsions:
  status: ('A' for Active; 'I' for Inactive)
                            x       y       z     vdW  Elec       q    Type
                         _______ _______ _______ _____ _____    ______ ____

>  <TORSDO>
F 0

$$$$
