=
 OpenBabel11122412053D

 34 40  0  0  1  0  0  0  0  0999 V2000
  182.2400  178.8100  143.4810 C   0  0  0  0  0  0  0  0  0  0  0  0
  183.7680  178.9090  145.5130 C   0  0  0  0  0  2  0  0  0  0  0  0
  180.8020  176.9850  137.4520 C   0  0  0  0  0  0  0  0  0  0  0  0
  180.9540  178.3290  141.5020 C   0  0  0  0  0  0  0  0  0  0  0  0
  182.1110  178.2200  139.2480 N   0  0  2  0  0  0  0  0  0  0  0  0
  183.0680  177.8650  137.0160 C   0  0  0  0  0  1  0  0  0  0  0  0
  180.6240  175.8330  136.9760 O   0  0  0  0  0  0  0  0  0  0  0  0
  179.8390  179.2690  137.9460 C   0  0  0  0  0  2  0  0  0  0  0  0
  184.7020  179.3220  143.3230 C   0  0  2  0  0  3  0  0  0  0  0  0
  187.3810  177.5990  142.8160 C   0  0  0  0  0  3  0  0  0  0  0  0
  183.2710  177.8410  140.0620 C   0  0  0  0  0  2  0  0  0  0  0  0
  179.8260  179.1520  139.4670 C   0  0  0  0  0  2  0  0  0  0  0  0
  184.6880  178.4800  142.0410 C   0  0  1  0  0  3  0  0  0  0  0  0
  185.2630  179.1390  145.6700 C   0  0  0  0  0  2  0  0  0  0  0  0
  180.8320  178.1260  140.0060 C   0  0  2  0  0  3  0  0  0  0  0  0
  179.7540  177.9520  137.3360 N   0  0  0  0  0  2  0  0  0  0  0  0
  186.4830  177.6500  144.0310 C   0  0  2  0  0  3  0  0  0  0  0  0
  182.1840  178.6440  142.0910 C   0  0  0  0  0  0  0  0  0  0  0  0
  182.1380  177.3110  138.0830 C   0  0  2  0  0  3  0  0  0  0  0  0
  183.4150  178.7910  141.2400 C   0  0  2  0  0  3  0  0  0  0  0  0
  179.9320  178.3310  143.6410 C   0  0  0  0  0  3  0  0  0  0  0  0
  187.1040  178.0630  141.6390 N   0  0  0  0  0  0  0  0  0  0  0  0
  179.8570  178.1740  142.2930 N   0  0  0  0  0  0  0  0  0  0  0  0
  185.9350  178.8280  141.2410 C   0  0  0  0  0  2  0  0  0  0  0  0
  185.8770  179.0440  144.2690 C   0  0  1  0  0  3  0  0  0  0  0  0
  181.1160  178.6440  144.2280 N   0  0  0  0  0  0  0  0  0  0  0  0
  183.5020  179.0870  144.1020 N   0  0  0  0  0  0  0  0  0  0  0  0
  187.2150  177.2260  145.1450 O   0  0  0  0  0  0  0  0  0  0  0  0
  188.5160  177.0350  144.6680 C   0  0  0  0  0  2  0  0  0  0  0  0
  190.6680  176.7590  147.4860 N   0  0  0  0  0  2  0  0  0  0  0  0
  190.9260  177.3300  145.1930 C   0  0  0  0  0  2  0  0  0  0  0  0
  189.5200  177.5670  145.6730 C   0  0  2  0  0  3  0  0  0  0  0  0
  191.5990  176.6850  146.3720 C   0  0  0  0  0  2  0  0  0  0  0  0
  189.3790  176.8510  146.9310 N   0  0  0  0  0  2  0  0  0  0  0  0
  1 27  1  0  0  0  0
  1 26  1  0  0  0  0
  2 14  1  0  0  0  0
  3 19  1  0  0  0  0
  4 18  1  0  0  0  0
  4 23  2  0  0  0  0
  5 15  1  0  0  0  0
  5 11  1  1  0  0  0
  7  3  2  0  0  0  0
  8 12  1  0  0  0  0
  9 27  1  1  0  0  0
  9 25  1  0  0  0  0
 10 17  1  0  0  0  0
 13 24  1  6  0  0  0
 13  9  1  0  0  0  0
 15 12  1  6  0  0  0
 15  4  1  0  0  0  0
 16  3  1  0  0  0  0
 16  8  1  0  0  0  0
 17 25  1  0  0  0  0
 17 28  1  1  0  0  0
 18  1  2  0  0  0  0
 19  6  1  6  0  0  0
 19  5  1  0  0  0  0
 20 11  1  6  0  0  0
 20 13  1  0  0  0  0
 20 18  1  0  0  0  0
 21 26  2  0  0  0  0
 22 10  2  0  0  0  0
 23 21  1  0  0  0  0
 24 22  1  0  0  0  0
 25 14  1  1  0  0  0
 27  2  1  0  0  0  0
 29 28  1  0  0  0  0
 31 32  1  0  0  0  0
 31 33  1  0  0  0  0
 32 29  1  6  0  0  0
 32 34  1  0  0  0  0
 33 30  1  0  0  0  0
 34 30  1  0  0  0  0
M  END
>  <MODEL>
1

>  <REMARK>
 VINA RESULT:      -8.9      0.000      0.000
  Name = 
  3 active torsions:
  status: ('A' for Active; 'I' for Inactive)
    1  A    between atoms: C_17  and  O_28
    2  A    between atoms: O_28  and  C_29
    3  A    between atoms: C_29  and  C_32
                            x       y       z     vdW  Elec       q    Type
                         _______ _______ _______ _____ _____    ______ ____

>  <TORSDO>
F 3

$$$$
=
 OpenBabel11122412053D

 34 40  0  0  1  0  0  0  0  0999 V2000
  187.7510  177.6440  138.0940 C   0  0  0  0  0  0  0  0  0  0  0  0
  186.2700  178.5550  139.9490 C   0  0  0  0  0  2  0  0  0  0  0  0
  192.4090  173.7810  135.8280 C   0  0  0  0  0  0  0  0  0  0  0  0
  189.1250  176.4140  136.5430 C   0  0  0  0  0  0  0  0  0  0  0  0
  191.4420  175.6590  137.2430 N   0  0  2  0  0  0  0  0  0  0  0  0
  193.6160  174.6620  137.7940 C   0  0  0  0  0  1  0  0  0  0  0  0
  192.4520  172.5250  135.7490 O   0  0  0  0  0  0  0  0  0  0  0  0
  192.4290  176.0020  134.6240 C   0  0  0  0  0  2  0  0  0  0  0  0
  188.6350  178.2910  140.3630 C   0  0  2  0  0  3  0  0  0  0  0  0
  189.2050  176.7440  143.1340 C   0  0  0  0  0  3  0  0  0  0  0  0
  190.8490  175.6800  138.5850 C   0  0  0  0  0  2  0  0  0  0  0  0
  190.9880  176.4030  134.9240 C   0  0  0  0  0  2  0  0  0  0  0  0
  189.5550  177.0700  140.2360 C   0  0  1  0  0  3  0  0  0  0  0  0
  186.5480  178.9570  141.3890 C   0  0  0  0  0  2  0  0  0  0  0  0
  190.4130  175.7100  136.1680 C   0  0  2  0  0  3  0  0  0  0  0  0
  192.5660  174.5550  134.6350 N   0  0  0  0  0  2  0  0  0  0  0  0
  187.8890  177.1190  142.4930 C   0  0  2  0  0  3  0  0  0  0  0  0
  188.9690  177.0170  137.7970 C   0  0  0  0  0  0  0  0  0  0  0  0
  192.2420  174.4170  137.1910 C   0  0  2  0  0  3  0  0  0  0  0  0
  190.0890  176.9790  138.7990 C   0  0  2  0  0  3  0  0  0  0  0  0
  186.9130  177.0430  135.9680 C   0  0  0  0  0  3  0  0  0  0  0  0
  190.3670  176.7590  142.5640 N   0  0  0  0  0  0  0  0  0  0  0  0
  188.0890  176.4370  135.6600 N   0  0  0  0  0  0  0  0  0  0  0  0
  190.6930  177.2380  141.2320 C   0  0  0  0  0  2  0  0  0  0  0  0
  187.9550  178.4520  141.7280 C   0  0  1  0  0  3  0  0  0  0  0  0
  186.7470  177.6390  137.1780 N   0  0  0  0  0  0  0  0  0  0  0  0
  187.5620  178.2240  139.3900 N   0  0  0  0  0  0  0  0  0  0  0  0
  186.9040  177.1610  143.4860 O   0  0  0  0  0  0  0  0  0  0  0  0
  187.5870  177.5170  144.6530 C   0  0  0  0  0  2  0  0  0  0  0  0
  184.5690  179.0030  145.8100 N   0  0  0  0  0  2  0  0  0  0  0  0
  186.4970  178.0480  146.8220 C   0  0  0  0  0  2  0  0  0  0  0  0
  186.7830  178.5430  145.4300 C   0  0  2  0  0  3  0  0  0  0  0  0
  185.0160  178.2530  146.9730 C   0  0  0  0  0  2  0  0  0  0  0  0
  185.4960  178.7480  144.7840 N   0  0  0  0  0  2  0  0  0  0  0  0
  1 27  1  0  0  0  0
  2 14  1  0  0  0  0
  3 19  1  0  0  0  0
  4 18  2  0  0  0  0
  5 11  1  1  0  0  0
  7  3  2  0  0  0  0
  8 16  1  0  0  0  0
  8 12  1  0  0  0  0
  9 27  1  6  0  0  0
  9 25  1  0  0  0  0
 13  9  1  0  0  0  0
 13 24  1  1  0  0  0
 15 12  1  6  0  0  0
 15  4  1  0  0  0  0
 15  5  1  0  0  0  0
 16  3  1  0  0  0  0
 17 10  1  0  0  0  0
 17 28  1  1  0  0  0
 18  1  1  0  0  0  0
 18 20  1  0  0  0  0
 19  5  1  0  0  0  0
 19  6  1  6  0  0  0
 20 11  1  1  0  0  0
 20 13  1  0  0  0  0
 21 26  1  0  0  0  0
 22 10  2  0  0  0  0
 23 21  2  0  0  0  0
 23  4  1  0  0  0  0
 24 22  1  0  0  0  0
 25 14  1  6  0  0  0
 25 17  1  0  0  0  0
 26  1  2  0  0  0  0
 27  2  1  0  0  0  0
 28 29  1  0  0  0  0
 30 33  1  0  0  0  0
 31 33  1  0  0  0  0
 32 29  1  6  0  0  0
 32 31  1  0  0  0  0
 34 32  1  0  0  0  0
 34 30  1  0  0  0  0
M  END
>  <MODEL>
2

>  <REMARK>
 VINA RESULT:      -8.4      5.442      8.163
  Name = 
  3 active torsions:
  status: ('A' for Active; 'I' for Inactive)
    1  A    between atoms: C_17  and  O_28
    2  A    between atoms: O_28  and  C_29
    3  A    between atoms: C_29  and  C_32
                            x       y       z     vdW  Elec       q    Type
                         _______ _______ _______ _____ _____    ______ ____

>  <TORSDO>
F 3

$$$$
=
 OpenBabel11122412053D

 34 40  0  0  1  0  0  0  0  0999 V2000
  183.2720  178.6850  143.5340 C   0  0  0  0  0  0  0  0  0  0  0  0
  180.9590  179.3850  142.7390 C   0  0  0  0  0  2  0  0  0  0  0  0
  189.6970  178.3500  142.9470 C   0  0  0  0  0  0  0  0  0  0  0  0
  185.5900  178.3840  144.1140 C   0  0  0  0  0  0  0  0  0  0  0  0
  187.2850  177.8820  142.2950 N   0  0  2  0  0  0  0  0  0  0  0  0
  189.1020  177.6010  140.6690 C   0  0  0  0  0  1  0  0  0  0  0  0
  190.5600  179.2680  142.9500 O   0  0  0  0  0  0  0  0  0  0  0  0
  188.7920  176.2600  144.0410 C   0  0  0  0  0  2  0  0  0  0  0  0
  182.4900  178.3890  141.1570 C   0  0  2  0  0  3  0  0  0  0  0  0
  182.6970  180.1130  138.4390 C   0  0  0  0  0  3  0  0  0  0  0  0
  186.3300  178.6110  141.4520 C   0  0  0  0  0  2  0  0  0  0  0  0
  187.4780  176.8520  144.5390 C   0  0  0  0  0  2  0  0  0  0  0  0
  183.9190  178.7740  140.7510 C   0  0  1  0  0  3  0  0  0  0  0  0
  180.2860  179.3620  141.3760 C   0  0  0  0  0  2  0  0  0  0  0  0
  187.0310  178.0880  143.7480 C   0  0  2  0  0  3  0  0  0  0  0  0
  189.8000  177.2990  143.9120 N   0  0  0  0  0  2  0  0  0  0  0  0
  181.8710  180.3640  139.6790 C   0  0  2  0  0  3  0  0  0  0  0  0
  184.5850  178.3930  143.1400 C   0  0  0  0  0  0  0  0  0  0  0  0
  188.6180  178.3730  141.8860 C   0  0  2  0  0  3  0  0  0  0  0  0
  184.9190  178.1040  141.7030 C   0  0  2  0  0  3  0  0  0  0  0  0
  183.9930  178.9630  145.7670 C   0  0  0  0  0  3  0  0  0  0  0  0
  183.6780  179.2740  138.3290 N   0  0  0  0  0  0  0  0  0  0  0  0
  185.2710  178.6760  145.4040 N   0  0  0  0  0  0  0  0  0  0  0  0
  184.1360  178.3140  139.3170 C   0  0  0  0  0  2  0  0  0  0  0  0
  181.3800  179.0670  140.3440 C   0  0  1  0  0  3  0  0  0  0  0  0
  183.0030  178.9700  144.8360 N   0  0  0  0  0  0  0  0  0  0  0  0
  182.2400  178.7430  142.5410 N   0  0  0  0  0  0  0  0  0  0  0  0
  180.7940  181.1890  139.3380 O   0  0  0  0  0  0  0  0  0  0  0  0
  180.9470  181.4310  137.9690 C   0  0  0  0  0  2  0  0  0  0  0  0
  181.5860  184.7190  136.7710 N   0  0  0  0  0  2  0  0  0  0  0  0
  180.0590  182.9760  136.2380 C   0  0  0  0  0  2  0  0  0  0  0  0
  180.5640  182.8650  137.6510 C   0  0  2  0  0  3  0  0  0  0  0  0
  180.8500  184.1210  135.6680 C   0  0  0  0  0  2  0  0  0  0  0  0
  181.7390  183.7180  137.7460 N   0  0  0  0  0  2  0  0  0  0  0  0
  1 26  1  0  0  0  0
  3  7  2  0  0  0  0
  3 16  1  0  0  0  0
  4 23  2  0  0  0  0
  5 11  1  6  0  0  0
  5 15  1  0  0  0  0
  8 12  1  0  0  0  0
  9 27  1  1  0  0  0
 10 17  1  0  0  0  0
 13 24  1  6  0  0  0
 13  9  1  0  0  0  0
 13 20  1  0  0  0  0
 14  2  1  0  0  0  0
 15  4  1  0  0  0  0
 15 12  1  1  0  0  0
 16  8  1  0  0  0  0
 17 28  1  6  0  0  0
 17 25  1  0  0  0  0
 18  1  2  0  0  0  0
 18  4  1  0  0  0  0
 19  6  1  6  0  0  0
 19  5  1  0  0  0  0
 19  3  1  0  0  0  0
 20 11  1  6  0  0  0
 20 18  1  0  0  0  0
 22 10  2  0  0  0  0
 22 24  1  0  0  0  0
 23 21  1  0  0  0  0
 25  9  1  0  0  0  0
 25 14  1  1  0  0  0
 26 21  2  0  0  0  0
 27  2  1  0  0  0  0
 27  1  1  0  0  0  0
 29 28  1  0  0  0  0
 30 34  1  0  0  0  0
 31 32  1  0  0  0  0
 32 34  1  0  0  0  0
 32 29  1  6  0  0  0
 33 31  1  0  0  0  0
 33 30  1  0  0  0  0
M  END
>  <MODEL>
3

>  <REMARK>
 VINA RESULT:      -8.2      2.816      8.607
  Name = 
  3 active torsions:
  status: ('A' for Active; 'I' for Inactive)
    1  A    between atoms: C_17  and  O_28
    2  A    between atoms: O_28  and  C_29
    3  A    between atoms: C_29  and  C_32
                            x       y       z     vdW  Elec       q    Type
                         _______ _______ _______ _____ _____    ______ ____

>  <TORSDO>
F 3

$$$$
=
 OpenBabel11122412053D

 34 40  0  0  1  0  0  0  0  0999 V2000
  187.9410  177.9170  139.9710 C   0  0  0  0  0  0  0  0  0  0  0  0
  185.9720  178.0680  138.3680 C   0  0  0  0  0  2  0  0  0  0  0  0
  190.5660  176.7770  145.7630 C   0  0  0  0  0  0  0  0  0  0  0  0
  189.5930  177.4540  141.6610 C   0  0  0  0  0  0  0  0  0  0  0  0
  189.0930  177.9960  144.0880 N   0  0  2  0  0  0  0  0  0  0  0  0
  188.7250  178.2500  146.5010 C   0  0  0  0  0  1  0  0  0  0  0  0
  190.6330  175.7080  146.4250 O   0  0  0  0  0  0  0  0  0  0  0  0
  191.7940  178.6410  144.5800 C   0  0  0  0  0  2  0  0  0  0  0  0
  185.7670  179.0440  140.5690 C   0  0  2  0  0  3  0  0  0  0  0  0
  183.0390  178.1430  142.0330 C   0  0  0  0  0  3  0  0  0  0  0  0
  187.7040  177.7930  143.6610 C   0  0  0  0  0  2  0  0  0  0  0  0
  191.3710  178.2850  143.1580 C   0  0  0  0  0  2  0  0  0  0  0  0
  185.9610  178.4400  141.9660 C   0  0  1  0  0  3  0  0  0  0  0  0
  184.5670  178.6340  138.5080 C   0  0  0  0  0  2  0  0  0  0  0  0
  190.0720  177.4680  143.0980 C   0  0  2  0  0  3  0  0  0  0  0  0
  191.7770  177.4590  145.4260 N   0  0  0  0  0  2  0  0  0  0  0  0
  183.5650  177.7750  140.6650 C   0  0  2  0  0  3  0  0  0  0  0  0
  188.3380  177.9670  141.3140 C   0  0  0  0  0  0  0  0  0  0  0  0
  189.2010  177.3200  145.3970 C   0  0  2  0  0  3  0  0  0  0  0  0
  187.4380  178.5480  142.3690 C   0  0  2  0  0  3  0  0  0  0  0  0
  189.9750  176.8620  139.3980 C   0  0  0  0  0  3  0  0  0  0  0  0
  183.7110  178.7050  142.9870 N   0  0  0  0  0  0  0  0  0  0  0  0
  190.3800  176.9080  140.6950 N   0  0  0  0  0  0  0  0  0  0  0  0
  185.0730  179.2080  142.9320 C   0  0  0  0  0  2  0  0  0  0  0  0
  184.3490  178.9180  139.9980 C   0  0  1  0  0  3  0  0  0  0  0  0
  188.7630  177.3610  139.0420 N   0  0  0  0  0  0  0  0  0  0  0  0
  186.6400  178.3960  139.6080 N   0  0  0  0  0  0  0  0  0  0  0  0
  182.4890  177.3740  139.8660 O   0  0  0  0  0  0  0  0  0  0  0  0
  181.3680  177.9760  140.4460 C   0  0  0  0  0  2  0  0  0  0  0  0
  180.9490  180.5990  138.0800 N   0  0  0  0  0  2  0  0  0  0  0  0
  180.8940  178.2230  138.0200 C   0  0  0  0  0  2  0  0  0  0  0  0
  180.5970  178.7550  139.3960 C   0  0  2  0  0  3  0  0  0  0  0  0
  181.2420  179.4550  137.2310 C   0  0  0  0  0  2  0  0  0  0  0  0
  181.0210  180.1460  139.4090 N   0  0  0  0  0  2  0  0  0  0  0  0
  1 18  1  0  0  0  0
  2 14  1  0  0  0  0
  2 27  1  0  0  0  0
  3  7  2  0  0  0  0
  4 15  1  0  0  0  0
  5 11  1  6  0  0  0
  5 19  1  0  0  0  0
  8 16  1  0  0  0  0
  9 27  1  6  0  0  0
  9 13  1  0  0  0  0
 10 22  2  0  0  0  0
 12  8  1  0  0  0  0
 13 20  1  0  0  0  0
 13 24  1  1  0  0  0
 15 12  1  6  0  0  0
 15  5  1  0  0  0  0
 16  3  1  0  0  0  0
 17 28  1  6  0  0  0
 17 10  1  0  0  0  0
 18  4  2  0  0  0  0
 18 20  1  0  0  0  0
 19  3  1  0  0  0  0
 19  6  1  1  0  0  0
 20 11  1  1  0  0  0
 21 23  2  0  0  0  0
 23  4  1  0  0  0  0
 24 22  1  0  0  0  0
 25 14  1  6  0  0  0
 25  9  1  0  0  0  0
 25 17  1  0  0  0  0
 26 21  1  0  0  0  0
 26  1  2  0  0  0  0
 27  1  1  0  0  0  0
 28 29  1  0  0  0  0
 30 34  1  0  0  0  0
 31 32  1  0  0  0  0
 32 34  1  0  0  0  0
 32 29  1  1  0  0  0
 33 31  1  0  0  0  0
 33 30  1  0  0  0  0
M  END
>  <MODEL>
4

>  <REMARK>
 VINA RESULT:      -7.9      2.201      9.361
  Name = 
  3 active torsions:
  status: ('A' for Active; 'I' for Inactive)
    1  A    between atoms: C_17  and  O_28
    2  A    between atoms: O_28  and  C_29
    3  A    between atoms: C_29  and  C_32
                            x       y       z     vdW  Elec       q    Type
                         _______ _______ _______ _____ _____    ______ ____

>  <TORSDO>
F 3

$$$$
=
 OpenBabel11122412053D

 34 40  0  0  1  0  0  0  0  0999 V2000
  187.9610  177.9140  139.8940 C   0  0  0  0  0  0  0  0  0  0  0  0
  186.0170  178.0710  138.2620 C   0  0  0  0  0  2  0  0  0  0  0  0
  190.4930  176.7680  145.7270 C   0  0  0  0  0  0  0  0  0  0  0  0
  189.5850  177.4450  141.6100 C   0  0  0  0  0  0  0  0  0  0  0  0
  189.0510  177.9930  144.0290 N   0  0  2  0  0  0  0  0  0  0  0  0
  188.6480  178.2510  146.4360 C   0  0  0  0  0  1  0  0  0  0  0  0
  190.5450  175.7000  146.3920 O   0  0  0  0  0  0  0  0  0  0  0  0
  191.7470  178.6260  144.5600 C   0  0  0  0  0  2  0  0  0  0  0  0
  185.7840  179.0510  140.4580 C   0  0  2  0  0  3  0  0  0  0  0  0
  183.0300  178.1630  141.8830 C   0  0  0  0  0  3  0  0  0  0  0  0
  187.6680  177.7940  143.5810 C   0  0  0  0  0  2  0  0  0  0  0  0
  191.3440  178.2700  143.1330 C   0  0  0  0  0  2  0  0  0  0  0  0
  185.9540  178.4470  141.8590 C   0  0  1  0  0  3  0  0  0  0  0  0
  184.6130  178.6440  138.3800 C   0  0  0  0  0  2  0  0  0  0  0  0
  190.0430  177.4590  143.0550 C   0  0  2  0  0  3  0  0  0  0  0  0
  191.7120  177.4450  145.4070 N   0  0  0  0  0  2  0  0  0  0  0  0
  183.5750  177.7920  140.5230 C   0  0  2  0  0  3  0  0  0  0  0  0
  188.3380  177.9630  141.2430 C   0  0  0  0  0  0  0  0  0  0  0  0
  189.1370  177.3170  145.3400 C   0  0  2  0  0  3  0  0  0  0  0  0
  187.4250  178.5500  142.2850 C   0  0  2  0  0  3  0  0  0  0  0  0
  189.9990  176.8490  139.3540 C   0  0  0  0  0  3  0  0  0  0  0  0
  183.6900  178.7230  142.8450 N   0  0  0  0  0  0  0  0  0  0  0  0
  190.3850  176.8950  140.6570 N   0  0  0  0  0  0  0  0  0  0  0  0
  185.0540  179.2210  142.8110 C   0  0  0  0  0  2  0  0  0  0  0  0
  184.3740  178.9310  139.8670 C   0  0  1  0  0  3  0  0  0  0  0  0
  188.7950  177.3530  138.9790 N   0  0  0  0  0  0  0  0  0  0  0  0
  186.6680  178.3980  139.5110 N   0  0  0  0  0  0  0  0  0  0  0  0
  182.5090  177.3950  139.7080 O   0  0  0  0  0  0  0  0  0  0  0  0
  182.5250  175.9980  139.7530 C   0  0  0  0  0  2  0  0  0  0  0  0
  182.3930  176.2210  136.2050 N   0  0  0  0  0  2  0  0  0  0  0  0
  183.6480  174.9700  137.7890 C   0  0  0  0  0  2  0  0  0  0  0  0
  182.3340  175.4330  138.3570 C   0  0  2  0  0  3  0  0  0  0  0  0
  183.6950  175.6160  136.4330 C   0  0  0  0  0  2  0  0  0  0  0  0
  181.8370  176.4740  137.4720 N   0  0  0  0  0  2  0  0  0  0  0  0
  1 18  1  0  0  0  0
  2 14  1  0  0  0  0
  2 27  1  0  0  0  0
  3  7  2  0  0  0  0
  4 15  1  0  0  0  0
  5 11  1  6  0  0  0
  5 19  1  0  0  0  0
  8 16  1  0  0  0  0
  9 27  1  6  0  0  0
  9 13  1  0  0  0  0
 10 22  2  0  0  0  0
 12  8  1  0  0  0  0
 13 20  1  0  0  0  0
 13 24  1  1  0  0  0
 15 12  1  6  0  0  0
 15  5  1  0  0  0  0
 16  3  1  0  0  0  0
 17 28  1  6  0  0  0
 17 10  1  0  0  0  0
 18  4  2  0  0  0  0
 18 20  1  0  0  0  0
 19  3  1  0  0  0  0
 19  6  1  1  0  0  0
 20 11  1  1  0  0  0
 21 23  2  0  0  0  0
 23  4  1  0  0  0  0
 24 22  1  0  0  0  0
 25 14  1  6  0  0  0
 25  9  1  0  0  0  0
 25 17  1  0  0  0  0
 26 21  1  0  0  0  0
 26  1  2  0  0  0  0
 27  1  1  0  0  0  0
 28 29  1  0  0  0  0
 30 33  1  0  0  0  0
 30 34  1  0  0  0  0
 31 32  1  0  0  0  0
 32 29  1  1  0  0  0
 33 31  1  0  0  0  0
 34 32  1  0  0  0  0
M  END
>  <MODEL>
5

>  <REMARK>
 VINA RESULT:      -7.9      2.405      9.217
  Name = 
  3 active torsions:
  status: ('A' for Active; 'I' for Inactive)
    1  A    between atoms: C_17  and  O_28
    2  A    between atoms: O_28  and  C_29
    3  A    between atoms: C_29  and  C_32
                            x       y       z     vdW  Elec       q    Type
                         _______ _______ _______ _____ _____    ______ ____

>  <TORSDO>
F 3

$$$$
=
 OpenBabel11122412053D

 34 40  0  0  1  0  0  0  0  0999 V2000
  181.5210  178.3810  141.6240 C   0  0  0  0  0  0  0  0  0  0  0  0
  182.3150  178.8150  144.0010 C   0  0  0  0  0  2  0  0  0  0  0  0
  182.2860  176.0730  135.6380 C   0  0  0  0  0  0  0  0  0  0  0  0
  180.9900  177.6110  139.4040 C   0  0  0  0  0  0  0  0  0  0  0  0
  182.7930  177.5820  137.6200 N   0  0  2  0  0  0  0  0  0  0  0  0
  184.4340  177.2800  135.8200 C   0  0  0  0  0  1  0  0  0  0  0  0
  182.4240  174.8870  135.2390 O   0  0  0  0  0  0  0  0  0  0  0  0
  180.9160  178.1950  135.6070 C   0  0  0  0  0  2  0  0  0  0  0  0
  183.8170  179.2700  142.1640 C   0  0  2  0  0  3  0  0  0  0  0  0
  186.7300  177.9720  142.6440 C   0  0  0  0  0  3  0  0  0  0  0  0
  183.6840  177.4300  138.7760 C   0  0  0  0  0  2  0  0  0  0  0  0
  180.4480  178.1490  137.0580 C   0  0  0  0  0  2  0  0  0  0  0  0
  184.3150  178.3770  141.0190 C   0  0  1  0  0  3  0  0  0  0  0  0
  183.6410  179.2870  144.5770 C   0  0  0  0  0  2  0  0  0  0  0  0
  181.3680  177.3210  137.9660 C   0  0  2  0  0  3  0  0  0  0  0  0
  181.2040  176.8550  135.1240 N   0  0  0  0  0  2  0  0  0  0  0  0
  185.5010  177.9360  143.5240 C   0  0  2  0  0  3  0  0  0  0  0  0
  181.9220  178.1440  140.3020 C   0  0  0  0  0  0  0  0  0  0  0  0
  183.3040  176.6360  136.6070 C   0  0  2  0  0  3  0  0  0  0  0  0
  183.3240  178.4450  139.8490 C   0  0  2  0  0  3  0  0  0  0  0  0
  179.3660  177.5500  141.1290 C   0  0  0  0  0  3  0  0  0  0  0  0
  186.7700  178.3300  141.4000 N   0  0  0  0  0  0  0  0  0  0  0  0
  179.7350  177.3210  139.8410 N   0  0  0  0  0  0  0  0  0  0  0  0
  185.6890  178.8810  140.6010 C   0  0  0  0  0  2  0  0  0  0  0  0
  184.6670  179.2250  143.4390 C   0  0  1  0  0  3  0  0  0  0  0  0
  180.2550  178.0740  142.0120 N   0  0  0  0  0  0  0  0  0  0  0  0
  182.4780  178.8830  142.5660 N   0  0  0  0  0  0  0  0  0  0  0  0
  185.9030  177.6860  144.8400 O   0  0  0  0  0  0  0  0  0  0  0  0
  187.2830  177.4790  144.7610 C   0  0  0  0  0  2  0  0  0  0  0  0
  187.7620  177.9120  148.2590 N   0  0  0  0  0  2  0  0  0  0  0  0
  189.0990  177.1870  146.4320 C   0  0  0  0  0  2  0  0  0  0  0  0
  187.9660  178.0690  145.9810 C   0  0  2  0  0  3  0  0  0  0  0  0
  188.8470  177.0110  147.9030 C   0  0  0  0  0  2  0  0  0  0  0  0
  187.0220  178.1380  147.0850 N   0  0  0  0  0  2  0  0  0  0  0  0
  1 26  1  0  0  0  0
  1 27  1  0  0  0  0
  2 14  1  0  0  0  0
  3 19  1  0  0  0  0
  4 23  2  0  0  0  0
  4 18  1  0  0  0  0
  5 15  1  0  0  0  0
  5 11  1  1  0  0  0
  7  3  2  0  0  0  0
  8 12  1  0  0  0  0
  9 27  1  1  0  0  0
  9 25  1  0  0  0  0
 10 17  1  0  0  0  0
 13 24  1  6  0  0  0
 13  9  1  0  0  0  0
 15 12  1  6  0  0  0
 15  4  1  0  0  0  0
 16  8  1  0  0  0  0
 16  3  1  0  0  0  0
 17 28  1  1  0  0  0
 18  1  2  0  0  0  0
 19  6  1  6  0  0  0
 19  5  1  0  0  0  0
 20 11  1  6  0  0  0
 20 18  1  0  0  0  0
 20 13  1  0  0  0  0
 21 26  2  0  0  0  0
 22 10  2  0  0  0  0
 23 21  1  0  0  0  0
 24 22  1  0  0  0  0
 25 17  1  0  0  0  0
 25 14  1  1  0  0  0
 27  2  1  0  0  0  0
 29 28  1  0  0  0  0
 31 33  1  0  0  0  0
 32 29  1  6  0  0  0
 32 31  1  0  0  0  0
 32 34  1  0  0  0  0
 33 30  1  0  0  0  0
 34 30  1  0  0  0  0
M  END
>  <MODEL>
6

>  <REMARK>
 VINA RESULT:      -7.7      1.600      2.089
  Name = 
  3 active torsions:
  status: ('A' for Active; 'I' for Inactive)
    1  A    between atoms: C_17  and  O_28
    2  A    between atoms: O_28  and  C_29
    3  A    between atoms: C_29  and  C_32
                            x       y       z     vdW  Elec       q    Type
                         _______ _______ _______ _____ _____    ______ ____

>  <TORSDO>
F 3

$$$$
=
 OpenBabel11122412053D

 34 40  0  0  1  0  0  0  0  0999 V2000
  186.5310  178.1650  141.0950 C   0  0  0  0  0  0  0  0  0  0  0  0
  188.9510  177.8080  141.7940 C   0  0  0  0  0  2  0  0  0  0  0  0
  180.4310  179.9780  142.2130 C   0  0  0  0  0  0  0  0  0  0  0  0
  184.2540  178.8370  140.6910 C   0  0  0  0  0  0  0  0  0  0  0  0
  182.5180  178.5590  142.5190 N   0  0  2  0  0  0  0  0  0  0  0  0
  180.7460  178.5670  144.2170 C   0  0  0  0  0  1  0  0  0  0  0  0
  179.9610  181.1140  142.4840 O   0  0  0  0  0  0  0  0  0  0  0  0
  180.5010  178.0130  140.6260 C   0  0  0  0  0  2  0  0  0  0  0  0
  187.1850  177.0780  143.2730 C   0  0  2  0  0  3  0  0  0  0  0  0
  187.6560  178.0930  146.2980 C   0  0  0  0  0  3  0  0  0  0  0  0
  183.6850  178.6930  143.4000 C   0  0  0  0  0  2  0  0  0  0  0  0
  181.9330  178.2040  140.1380 C   0  0  0  0  0  2  0  0  0  0  0  0
  186.0000  177.8360  143.8850 C   0  0  1  0  0  3  0  0  0  0  0  0
  189.5900  177.2390  143.0510 C   0  0  0  0  0  2  0  0  0  0  0  0
  182.8100  178.9890  141.1240 C   0  0  2  0  0  3  0  0  0  0  0  0
  179.9410  179.2810  141.0640 N   0  0  0  0  0  2  0  0  0  0  0  0
  188.5000  178.3160  145.0640 C   0  0  2  0  0  3  0  0  0  0  0  0
  185.2080  178.2700  141.5440 C   0  0  0  0  0  0  0  0  0  0  0  0
  181.4600  179.3770  143.1470 C   0  0  2  0  0  3  0  0  0  0  0  0
  184.8110  177.7950  142.9140 C   0  0  2  0  0  3  0  0  0  0  0  0
  185.9290  179.1820  139.0500 C   0  0  0  0  0  3  0  0  0  0  0  0
  186.4400  177.6500  146.3240 N   0  0  0  0  0  0  0  0  0  0  0  0
  184.6390  179.2860  139.4650 N   0  0  0  0  0  0  0  0  0  0  0  0
  185.6500  177.1650  145.2050 C   0  0  0  0  0  2  0  0  0  0  0  0
  188.4770  177.1180  144.0990 C   0  0  1  0  0  3  0  0  0  0  0  0
  186.8670  178.6280  139.8620 N   0  0  0  0  0  0  0  0  0  0  0  0
  187.5270  177.6290  141.9750 N   0  0  0  0  0  0  0  0  0  0  0  0
  189.8080  178.6090  145.4650 O   0  0  0  0  0  0  0  0  0  0  0  0
  190.0080  177.8490  146.6210 C   0  0  0  0  0  2  0  0  0  0  0  0
  192.7220  176.0520  148.0550 N   0  0  0  0  0  2  0  0  0  0  0  0
  191.6840  176.1560  145.9180 C   0  0  0  0  0  2  0  0  0  0  0  0
  191.4590  177.4150  146.7110 C   0  0  2  0  0  3  0  0  0  0  0  0
  192.4010  175.2530  146.8830 C   0  0  0  0  0  2  0  0  0  0  0  0
  191.7920  177.1070  148.0930 N   0  0  0  0  0  2  0  0  0  0  0  0
  1 18  1  0  0  0  0
  1 27  1  0  0  0  0
  2 27  1  0  0  0  0
  2 14  1  0  0  0  0
  3  7  2  0  0  0  0
  3 19  1  0  0  0  0
  4 15  1  0  0  0  0
  4 18  2  0  0  0  0
  5 19  1  0  0  0  0
  5 11  1  1  0  0  0
  8 16  1  0  0  0  0
  9 27  1  6  0  0  0
  9 13  1  0  0  0  0
  9 25  1  0  0  0  0
 10 22  2  0  0  0  0
 12  8  1  0  0  0  0
 13 24  1  1  0  0  0
 15 12  1  6  0  0  0
 15  5  1  0  0  0  0
 16  3  1  0  0  0  0
 17 28  1  1  0  0  0
 17 10  1  0  0  0  0
 18 20  1  0  0  0  0
 19  6  1  1  0  0  0
 20 11  1  1  0  0  0
 20 13  1  0  0  0  0
 21 23  2  0  0  0  0
 21 26  1  0  0  0  0
 23  4  1  0  0  0  0
 24 22  1  0  0  0  0
 25 14  1  6  0  0  0
 25 17  1  0  0  0  0
 26  1  2  0  0  0  0
 28 29  1  0  0  0  0
 30 34  1  0  0  0  0
 31 32  1  0  0  0  0
 31 33  1  0  0  0  0
 32 29  1  1  0  0  0
 32 34  1  0  0  0  0
 33 30  1  0  0  0  0
M  END
>  <MODEL>
7

>  <REMARK>
 VINA RESULT:      -7.5      2.276      4.373
  Name = 
  3 active torsions:
  status: ('A' for Active; 'I' for Inactive)
    1  A    between atoms: C_17  and  O_28
    2  A    between atoms: O_28  and  C_29
    3  A    between atoms: C_29  and  C_32
                            x       y       z     vdW  Elec       q    Type
                         _______ _______ _______ _____ _____    ______ ____

>  <TORSDO>
F 3

$$$$
=
 OpenBabel11122412053D

 34 40  0  0  1  0  0  0  0  0999 V2000
  187.3550  178.1950  141.0550 C   0  0  0  0  0  0  0  0  0  0  0  0
  185.2490  178.5700  139.6800 C   0  0  0  0  0  2  0  0  0  0  0  0
  190.4710  176.4760  146.4480 C   0  0  0  0  0  0  0  0  0  0  0  0
  189.1370  177.5180  142.5280 C   0  0  0  0  0  0  0  0  0  0  0  0
  188.9130  177.8950  145.0260 N   0  0  2  0  0  0  0  0  0  0  0  0
  188.8030  177.9800  147.4770 C   0  0  0  0  0  1  0  0  0  0  0  0
  190.5400  175.3570  147.0210 O   0  0  0  0  0  0  0  0  0  0  0  0
  191.6830  178.3610  145.2810 C   0  0  0  0  0  2  0  0  0  0  0  0
  185.3220  179.3820  141.9540 C   0  0  2  0  0  3  0  0  0  0  0  0
  182.7040  178.5100  143.6250 C   0  0  0  0  0  3  0  0  0  0  0  0
  187.4790  177.7970  144.7320 C   0  0  0  0  0  2  0  0  0  0  0  0
  191.1000  178.1380  143.8890 C   0  0  0  0  0  2  0  0  0  0  0  0
  185.6180  178.6620  143.2770 C   0  0  1  0  0  3  0  0  0  0  0  0
  183.9010  179.1950  140.0050 C   0  0  0  0  0  2  0  0  0  0  0  0
  189.7570  177.3960  143.9060 C   0  0  2  0  0  3  0  0  0  0  0  0
  191.6810  177.1200  146.0370 N   0  0  0  0  0  2  0  0  0  0  0  0
  183.0700  178.2240  142.1870 C   0  0  2  0  0  3  0  0  0  0  0  0
  187.8860  178.1200  142.3500 C   0  0  0  0  0  0  0  0  0  0  0  0
  189.1110  177.1140  146.2650 C   0  0  2  0  0  3  0  0  0  0  0  0
  187.1320  178.6630  143.5320 C   0  0  2  0  0  3  0  0  0  0  0  0
  189.2580  177.0850  140.2010 C   0  0  0  0  0  3  0  0  0  0  0  0
  183.5000  178.9620  144.5410 N   0  0  0  0  0  0  0  0  0  0  0  0
  189.7910  177.0090  141.4490 N   0  0  0  0  0  0  0  0  0  0  0  0
  184.8760  179.3980  144.3830 C   0  0  0  0  0  2  0  0  0  0  0  0
  183.8500  179.3740  141.5260 C   0  0  1  0  0  3  0  0  0  0  0  0
  188.0480  177.6720  140.0090 N   0  0  0  0  0  0  0  0  0  0  0  0
  186.0550  178.7670  140.8640 N   0  0  0  0  0  0  0  0  0  0  0  0
  181.8980  177.9420  141.4760 O   0  0  0  0  0  0  0  0  0  0  0  0
  180.8600  178.2530  142.3590 C   0  0  0  0  0  2  0  0  0  0  0  0
  179.6760  181.3040  140.9650 N   0  0  0  0  0  2  0  0  0  0  0  0
  180.0310  179.0910  140.1720 C   0  0  0  0  0  2  0  0  0  0  0  0
  179.8320  179.1250  141.6630 C   0  0  2  0  0  3  0  0  0  0  0  0
  180.0490  180.5430  139.7830 C   0  0  0  0  0  2  0  0  0  0  0  0
  180.0020  180.5090  142.0780 N   0  0  0  0  0  2  0  0  0  0  0  0
  1 18  1  0  0  0  0
  2 14  1  0  0  0  0
  2 27  1  0  0  0  0
  3  7  2  0  0  0  0
  4 15  1  0  0  0  0
  5 11  1  6  0  0  0
  5 19  1  0  0  0  0
  8 16  1  0  0  0  0
  9 27  1  6  0  0  0
  9 13  1  0  0  0  0
 10 22  2  0  0  0  0
 12  8  1  0  0  0  0
 13 20  1  0  0  0  0
 13 24  1  1  0  0  0
 15 12  1  6  0  0  0
 15  5  1  0  0  0  0
 16  3  1  0  0  0  0
 17 28  1  6  0  0  0
 17 10  1  0  0  0  0
 18  4  2  0  0  0  0
 18 20  1  0  0  0  0
 19  3  1  0  0  0  0
 19  6  1  1  0  0  0
 20 11  1  1  0  0  0
 21 23  2  0  0  0  0
 23  4  1  0  0  0  0
 24 22  1  0  0  0  0
 25 14  1  6  0  0  0
 25  9  1  0  0  0  0
 25 17  1  0  0  0  0
 26 21  1  0  0  0  0
 26  1  2  0  0  0  0
 27  1  1  0  0  0  0
 28 29  1  0  0  0  0
 30 34  1  0  0  0  0
 31 32  1  0  0  0  0
 32 34  1  0  0  0  0
 32 29  1  1  0  0  0
 33 31  1  0  0  0  0
 33 30  1  0  0  0  0
M  END
>  <MODEL>
8

>  <REMARK>
 VINA RESULT:      -7.3      2.263      9.192
  Name = 
  3 active torsions:
  status: ('A' for Active; 'I' for Inactive)
    1  A    between atoms: C_17  and  O_28
    2  A    between atoms: O_28  and  C_29
    3  A    between atoms: C_29  and  C_32
                            x       y       z     vdW  Elec       q    Type
                         _______ _______ _______ _____ _____    ______ ____

>  <TORSDO>
F 3

$$$$
=
 OpenBabel11122412053D

 34 40  0  0  1  0  0  0  0  0999 V2000
  189.5990  175.7630  136.8250 C   0  0  0  0  0  0  0  0  0  0  0  0
  187.7430  177.0670  137.9740 C   0  0  0  0  0  2  0  0  0  0  0  0
  195.0970  172.3680  136.8340 C   0  0  0  0  0  0  0  0  0  0  0  0
  191.3590  174.2920  136.0880 C   0  0  0  0  0  0  0  0  0  0  0  0
  193.6480  174.4290  137.1730 N   0  0  2  0  0  0  0  0  0  0  0  0
  195.8560  174.2600  138.2300 C   0  0  0  0  0  1  0  0  0  0  0  0
  195.3560  171.2470  137.3470 O   0  0  0  0  0  0  0  0  0  0  0  0
  194.9220  173.7760  134.7430 C   0  0  0  0  0  2  0  0  0  0  0  0
  190.0380  177.5170  138.5800 C   0  0  2  0  0  3  0  0  0  0  0  0
  190.4590  177.5140  141.7780 C   0  0  0  0  0  3  0  0  0  0  0  0
  192.8760  174.9170  138.3220 C   0  0  0  0  0  2  0  0  0  0  0  0
  193.4080  173.9560  134.7530 C   0  0  0  0  0  2  0  0  0  0  0  0
  191.1540  176.5880  139.0770 C   0  0  1  0  0  3  0  0  0  0  0  0
  187.7470  178.1140  139.0780 C   0  0  0  0  0  2  0  0  0  0  0  0
  192.7850  173.7830  136.1450 C   0  0  2  0  0  3  0  0  0  0  0  0
  195.2920  172.5480  135.4280 N   0  0  0  0  0  2  0  0  0  0  0  0
  189.2020  177.2810  140.9700 C   0  0  2  0  0  3  0  0  0  0  0  0
  190.9330  175.3400  136.9120 C   0  0  0  0  0  0  0  0  0  0  0  0
  194.6390  173.4910  137.7390 C   0  0  2  0  0  3  0  0  0  0  0  0
  191.8920  175.9850  137.8740 C   0  0  2  0  0  3  0  0  0  0  0  0
  189.1770  174.1220  135.1780 C   0  0  0  0  0  3  0  0  0  0  0  0
  191.6710  177.5180  141.3230 N   0  0  0  0  0  0  0  0  0  0  0  0
  190.4680  173.7040  135.2440 N   0  0  0  0  0  0  0  0  0  0  0  0
  192.0980  177.4150  139.9390 C   0  0  0  0  0  2  0  0  0  0  0  0
  189.1560  178.1180  139.6810 C   0  0  1  0  0  3  0  0  0  0  0  0
  188.7480  175.1420  135.9660 N   0  0  0  0  0  0  0  0  0  0  0  0
  189.1370  176.8030  137.6960 N   0  0  0  0  0  0  0  0  0  0  0  0
  188.0950  177.5500  141.7810 O   0  0  0  0  0  0  0  0  0  0  0  0
  188.3690  176.9030  142.9900 C   0  0  0  0  0  2  0  0  0  0  0  0
  186.8990  177.4990  146.1730 N   0  0  0  0  0  2  0  0  0  0  0  0
  189.0370  177.8410  145.1910 C   0  0  0  0  0  2  0  0  0  0  0  0
  187.9480  177.7810  144.1540 C   0  0  2  0  0  3  0  0  0  0  0  0
  188.3210  177.5250  146.4750 C   0  0  0  0  0  2  0  0  0  0  0  0
  186.7810  177.2050  144.8030 N   0  0  0  0  0  2  0  0  0  0  0  0
  1 18  1  0  0  0  0
  1 27  1  0  0  0  0
  2 14  1  0  0  0  0
  3  7  2  0  0  0  0
  3 19  1  0  0  0  0
  4 15  1  0  0  0  0
  4 18  2  0  0  0  0
  5 19  1  0  0  0  0
  5 11  1  1  0  0  0
  8 12  1  0  0  0  0
  8 16  1  0  0  0  0
  9 27  1  6  0  0  0
  9 13  1  0  0  0  0
  9 25  1  0  0  0  0
 13 24  1  1  0  0  0
 15 12  1  6  0  0  0
 15  5  1  0  0  0  0
 16  3  1  0  0  0  0
 17 10  1  0  0  0  0
 17 28  1  1  0  0  0
 18 20  1  0  0  0  0
 19  6  1  6  0  0  0
 20 11  1  1  0  0  0
 20 13  1  0  0  0  0
 21 23  2  0  0  0  0
 21 26  1  0  0  0  0
 22 10  2  0  0  0  0
 23  4  1  0  0  0  0
 24 22  1  0  0  0  0
 25 14  1  6  0  0  0
 25 17  1  0  0  0  0
 26  1  2  0  0  0  0
 27  2  1  0  0  0  0
 28 29  1  0  0  0  0
 30 33  1  0  0  0  0
 31 33  1  0  0  0  0
 32 29  1  6  0  0  0
 32 34  1  0  0  0  0
 32 31  1  0  0  0  0
 34 30  1  0  0  0  0
M  END
>  <MODEL>
9

>  <REMARK>
 VINA RESULT:      -7.3      6.967     10.122
  Name = 
  3 active torsions:
  status: ('A' for Active; 'I' for Inactive)
    1  A    between atoms: C_17  and  O_28
    2  A    between atoms: O_28  and  C_29
    3  A    between atoms: C_29  and  C_32
                            x       y       z     vdW  Elec       q    Type
                         _______ _______ _______ _____ _____    ______ ____

>  <TORSDO>
F 3

$$$$
