=
 OpenBabel11122412003D

 28 32  0  0  1  0  0  0  0  0999 V2000
  181.3420  179.1070  140.6380 C   0  0  0  0  0  0  0  0  0  0  0  0
  181.0970  176.3480  138.5740 F   0  0  0  0  0  0  0  0  0  0  0  0
  187.0370  178.5250  138.7520 O   0  0  0  0  0  0  0  0  0  0  0  0
  179.9760  181.2720  139.4870 C   0  0  0  0  0  3  0  0  0  0  0  0
  185.4610  177.2290  137.5690 N   0  0  0  0  0  0  0  0  0  0  0  0
  182.0710  178.0100  141.3520 C   0  0  0  0  0  2  0  0  0  0  0  0
  179.5290  177.8300  137.6180 C   0  0  0  0  0  1  0  0  0  0  0  0
  180.8320  177.0790  137.4280 C   0  0  1  0  0  0  0  0  0  0  0  0
  181.7690  175.6700  135.5650 C   0  0  0  0  0  0  0  0  0  0  0  0
  181.9850  178.0710  137.1180 C   0  0  2  0  0  3  0  0  0  0  0  0
  185.4940  178.6500  142.9510 C   0  0  0  0  0  1  0  0  0  0  0  0
  183.5890  177.8010  138.9450 C   0  0  1  0  0  3  0  0  0  0  0  0
  182.9330  176.2300  135.6730 N   0  0  0  0  0  0  0  0  0  0  0  0
  180.6580  176.1530  136.3180 N   0  0  0  0  0  2  0  0  0  0  0  0
  184.5340  178.3560  141.8180 C   0  0  2  0  0  3  0  0  0  0  0  0
  181.5970  179.4640  139.2850 C   0  0  0  0  0  0  0  0  0  0  0  0
  185.8520  178.1350  138.5780 C   0  0  0  0  0  0  0  0  0  0  0  0
  181.5720  174.5630  134.5940 C   0  0  0  0  0  1  0  0  0  0  0  0
  184.8680  179.2660  140.6420 C   0  0  0  0  0  2  0  0  0  0  0  0
  180.9100  180.5590  138.7380 C   0  0  0  0  0  3  0  0  0  0  0  0
  180.3960  179.8300  141.3760 C   0  0  0  0  0  3  0  0  0  0  0  0
  179.7130  180.9040  140.8050 C   0  0  0  0  0  3  0  0  0  0  0  0
  183.1100  178.5950  142.3040 C   0  0  0  0  0  2  0  0  0  0  0  0
  184.0510  176.9100  137.7680 C   0  0  1  0  0  3  0  0  0  0  0  0
  184.7680  178.5280  139.3910 N   0  0  0  0  0  0  0  0  0  0  0  0
  183.2260  177.3520  136.5660 C   0  0  2  0  0  3  0  0  0  0  0  0
  186.3750  176.4400  136.7620 C   0  0  0  0  0  1  0  0  0  0  0  0
  182.5650  178.7590  138.3570 C   0  0  2  0  0  3  0  0  0  0  0  0
  1  6  1  0  0  0  0
  1 21  1  0  0  0  0
  4 22  1  0  0  0  0
  5 24  1  0  0  0  0
  5 17  1  0  0  0  0
  6 23  1  0  0  0  0
  8  7  1  1  0  0  0
  8  2  1  0  0  0  0
  9 13  2  0  0  0  0
  9 14  1  0  0  0  0
 10  8  1  0  0  0  0
 10 28  1  0  0  0  0
 12 25  1  0  0  0  0
 13 26  1  0  0  0  0
 14  8  1  0  0  0  0
 15 23  1  0  0  0  0
 15 11  1  0  0  0  0
 16  1  2  0  0  0  0
 17  3  2  0  0  0  0
 17 25  1  0  0  0  0
 18  9  1  0  0  0  0
 19 15  1  0  0  0  0
 20 16  1  0  0  0  0
 20  4  2  0  0  0  0
 22 21  2  0  0  0  0
 24 12  1  0  0  0  0
 25 19  1  0  0  0  0
 26 10  1  0  0  0  0
 26 24  1  0  0  0  0
 27  5  1  0  0  0  0
 28 12  1  0  0  0  0
 28 16  1  0  0  0  0
M  END
>  <MODEL>
1

>  <REMARK>
 VINA RESULT:      -6.1      0.000      0.000
  Name = 
  0 active torsions:
  status: ('A' for Active; 'I' for Inactive)
                            x       y       z     vdW  Elec       q    Type
                         _______ _______ _______ _____ _____    ______ ____

>  <TORSDO>
F 0

$$$$
=
 OpenBabel11122412003D

 28 32  0  0  1  0  0  0  0  0999 V2000
  190.0470  177.3640  144.3410 C   0  0  0  0  0  0  0  0  0  0  0  0
  188.1440  179.3050  142.2090 F   0  0  0  0  0  0  0  0  0  0  0  0
  184.8170  177.6300  147.3250 O   0  0  0  0  0  0  0  0  0  0  0  0
  190.5560  174.8730  143.1520 C   0  0  0  0  0  3  0  0  0  0  0  0
  184.7280  178.3920  145.0950 N   0  0  0  0  0  0  0  0  0  0  0  0
  189.8600  178.6700  145.0520 C   0  0  0  0  0  2  0  0  0  0  0  0
  188.7870  177.5110  140.8170 C   0  0  0  0  0  1  0  0  0  0  0  0
  187.6380  178.2330  141.4920 C   0  0  1  0  0  0  0  0  0  0  0  0
  185.3820  179.0260  140.7080 C   0  0  0  0  0  0  0  0  0  0  0  0
  186.8590  177.2590  142.4180 C   0  0  2  0  0  3  0  0  0  0  0  0
  188.9020  178.7630  148.7610 C   0  0  0  0  0  1  0  0  0  0  0  0
  187.0750  178.1860  144.6710 C   0  0  1  0  0  3  0  0  0  0  0  0
  184.8090  178.5950  141.7890 N   0  0  0  0  0  0  0  0  0  0  0  0
  186.7570  178.7460  140.4530 N   0  0  0  0  0  2  0  0  0  0  0  0
  188.6500  178.6260  147.2740 C   0  0  2  0  0  3  0  0  0  0  0  0
  188.9720  176.6090  143.7960 C   0  0  0  0  0  0  0  0  0  0  0  0
  185.3900  177.8780  146.2310 C   0  0  0  0  0  0  0  0  0  0  0  0
  184.5790  179.7530  139.6910 C   0  0  0  0  0  1  0  0  0  0  0  0
  187.7650  177.4100  147.0340 C   0  0  0  0  0  2  0  0  0  0  0  0
  189.2510  175.3610  143.2180 C   0  0  0  0  0  3  0  0  0  0  0  0
  191.3530  176.8620  144.2610 C   0  0  0  0  0  3  0  0  0  0  0  0
  191.6080  175.6270  143.6670 C   0  0  0  0  0  3  0  0  0  0  0  0
  189.9880  178.4760  146.5600 C   0  0  0  0  0  2  0  0  0  0  0  0
  185.7340  178.6800  144.0780 C   0  0  1  0  0  3  0  0  0  0  0  0
  186.7710  177.7040  146.0110 N   0  0  0  0  0  0  0  0  0  0  0  0
  185.4960  177.8330  142.8340 C   0  0  2  0  0  3  0  0  0  0  0  0
  183.3800  178.9330  145.0930 C   0  0  0  0  0  1  0  0  0  0  0  0
  187.5180  177.0350  143.7810 C   0  0  2  0  0  3  0  0  0  0  0  0
  1  6  1  0  0  0  0
  4 20  2  0  0  0  0
  4 22  1  0  0  0  0
  5 17  1  0  0  0  0
  6 23  1  0  0  0  0
  8  7  1  6  0  0  0
  8  2  1  0  0  0  0
  8 10  1  0  0  0  0
  9 13  2  0  0  0  0
 10 26  1  0  0  0  0
 10 28  1  0  0  0  0
 12 25  1  0  0  0  0
 13 26  1  0  0  0  0
 14  9  1  0  0  0  0
 14  8  1  0  0  0  0
 15 11  1  0  0  0  0
 16  1  2  0  0  0  0
 17  3  2  0  0  0  0
 18  9  1  0  0  0  0
 19 15  1  0  0  0  0
 20 16  1  0  0  0  0
 21  1  1  0  0  0  0
 22 21  2  0  0  0  0
 23 15  1  0  0  0  0
 24 12  1  0  0  0  0
 24  5  1  0  0  0  0
 25 17  1  0  0  0  0
 25 19  1  0  0  0  0
 26 24  1  0  0  0  0
 27  5  1  0  0  0  0
 28 16  1  0  0  0  0
 28 12  1  0  0  0  0
M  END
>  <MODEL>
2

>  <REMARK>
 VINA RESULT:      -5.9      4.819      8.629
  Name = 
  0 active torsions:
  status: ('A' for Active; 'I' for Inactive)
                            x       y       z     vdW  Elec       q    Type
                         _______ _______ _______ _____ _____    ______ ____

>  <TORSDO>
F 0

$$$$
=
 OpenBabel11122412003D

 28 32  0  0  1  0  0  0  0  0999 V2000
  186.0260  177.9140  143.8680 C   0  0  0  0  0  0  0  0  0  0  0  0
  183.8740  176.9570  141.3410 F   0  0  0  0  0  0  0  0  0  0  0  0
  189.4520  178.8010  138.9890 O   0  0  0  0  0  0  0  0  0  0  0  0
  185.0980  180.2820  145.0550 C   0  0  0  0  0  3  0  0  0  0  0  0
  187.1670  178.4270  138.5430 N   0  0  0  0  0  0  0  0  0  0  0  0
  186.5920  176.6360  143.3260 C   0  0  0  0  0  2  0  0  0  0  0  0
  182.6490  178.6570  142.4280 C   0  0  0  0  0  1  0  0  0  0  0  0
  183.3420  178.2220  141.1520 C   0  0  1  0  0  0  0  0  0  0  0  0
  182.6930  178.2620  138.7210 C   0  0  0  0  0  0  0  0  0  0  0  0
  184.4480  179.2410  140.7660 C   0  0  2  0  0  3  0  0  0  0  0  0
  190.3390  176.3040  142.5960 C   0  0  0  0  0  1  0  0  0  0  0  0
  186.5440  177.9810  140.8100 C   0  0  1  0  0  3  0  0  0  0  0  0
  183.8670  178.6850  138.3720 N   0  0  0  0  0  0  0  0  0  0  0  0
  182.3400  178.1500  140.0980 N   0  0  0  0  0  2  0  0  0  0  0  0
  188.9100  176.7210  142.3160 C   0  0  2  0  0  3  0  0  0  0  0  0
  185.6820  179.0250  143.0500 C   0  0  0  0  0  0  0  0  0  0  0  0
  188.2860  178.5520  139.3940 C   0  0  0  0  0  0  0  0  0  0  0  0
  181.6790  177.9620  137.6770 C   0  0  0  0  0  1  0  0  0  0  0  0
  188.9040  178.1670  141.8390 C   0  0  0  0  0  2  0  0  0  0  0  0
  185.2330  180.2020  143.6690 C   0  0  0  0  0  3  0  0  0  0  0  0
  185.8800  178.0070  145.2580 C   0  0  0  0  0  3  0  0  0  0  0  0
  185.4150  179.1820  145.8490 C   0  0  0  0  0  3  0  0  0  0  0  0
  188.0920  176.5640  143.5920 C   0  0  0  0  0  2  0  0  0  0  0  0
  186.0300  178.0010  139.3520 C   0  0  1  0  0  3  0  0  0  0  0  0
  187.9550  178.3340  140.7470 N   0  0  0  0  0  0  0  0  0  0  0  0
  184.9240  179.0490  139.3180 C   0  0  2  0  0  3  0  0  0  0  0  0
  187.2320  178.3210  137.0960 C   0  0  0  0  0  1  0  0  0  0  0  0
  185.7580  179.0610  141.5370 C   0  0  2  0  0  3  0  0  0  0  0  0
  1 21  1  0  0  0  0
  3 17  2  0  0  0  0
  4 22  1  0  0  0  0
  5 24  1  0  0  0  0
  5 17  1  0  0  0  0
  6 23  1  0  0  0  0
  6  1  1  0  0  0  0
  8  2  1  0  0  0  0
  8  7  1  1  0  0  0
  9 14  1  0  0  0  0
 10  8  1  0  0  0  0
 10 28  1  0  0  0  0
 12 28  1  0  0  0  0
 13  9  2  0  0  0  0
 13 26  1  0  0  0  0
 14  8  1  0  0  0  0
 15 11  1  0  0  0  0
 15 23  1  0  0  0  0
 16 20  1  0  0  0  0
 16  1  2  0  0  0  0
 17 25  1  0  0  0  0
 18  9  1  0  0  0  0
 19 15  1  0  0  0  0
 20  4  2  0  0  0  0
 21 22  2  0  0  0  0
 24 12  1  0  0  0  0
 25 12  1  0  0  0  0
 25 19  1  0  0  0  0
 26 24  1  0  0  0  0
 26 10  1  0  0  0  0
 27  5  1  0  0  0  0
 28 16  1  0  0  0  0
M  END
>  <MODEL>
3

>  <REMARK>
 VINA RESULT:      -5.9      2.522      4.840
  Name = 
  0 active torsions:
  status: ('A' for Active; 'I' for Inactive)
                            x       y       z     vdW  Elec       q    Type
                         _______ _______ _______ _____ _____    ______ ____

>  <TORSDO>
F 0

$$$$
=
 OpenBabel11122412003D

 28 32  0  0  1  0  0  0  0  0999 V2000
  189.5190  177.5810  137.8760 C   0  0  0  0  0  0  0  0  0  0  0  0
  192.6170  176.8170  136.5520 F   0  0  0  0  0  0  0  0  0  0  0  0
  188.3990  172.2960  135.2040 O   0  0  0  0  0  0  0  0  0  0  0  0
  189.6270  177.4420  140.6770 C   0  0  0  0  0  3  0  0  0  0  0  0
  190.6840  172.8470  135.3960 N   0  0  0  0  0  0  0  0  0  0  0  0
  189.3610  177.7130  136.3910 C   0  0  0  0  0  2  0  0  0  0  0  0
  193.1000  177.0650  138.8490 C   0  0  0  0  0  1  0  0  0  0  0  0
  193.0540  176.1180  137.6660 C   0  0  1  0  0  0  0  0  0  0  0  0
  194.6600  174.4170  136.7380 C   0  0  0  0  0  0  0  0  0  0  0  0
  192.1200  174.9160  137.9740 C   0  0  2  0  0  3  0  0  0  0  0  0
  186.3220  176.2140  134.6020 C   0  0  0  0  0  1  0  0  0  0  0  0
  190.3340  175.0320  136.3070 C   0  0  1  0  0  3  0  0  0  0  0  0
  193.7060  173.5580  136.5530 N   0  0  0  0  0  0  0  0  0  0  0  0
  194.4080  175.6470  137.4150 N   0  0  0  0  0  2  0  0  0  0  0  0
  187.6880  176.1920  135.2560 C   0  0  2  0  0  3  0  0  0  0  0  0
  190.0660  176.4290  138.5050 C   0  0  0  0  0  0  0  0  0  0  0  0
  189.3040  173.0980  135.5570 C   0  0  0  0  0  0  0  0  0  0  0  0
  196.0420  174.0850  136.3080 C   0  0  0  0  0  1  0  0  0  0  0  0
  187.7540  175.0130  136.2180 C   0  0  0  0  0  2  0  0  0  0  0  0
  190.0970  176.3790  139.9070 C   0  0  0  0  0  3  0  0  0  0  0  0
  189.0570  178.6430  138.6630 C   0  0  0  0  0  3  0  0  0  0  0  0
  189.1130  178.5780  140.0550 C   0  0  0  0  0  3  0  0  0  0  0  0
  187.9030  177.5090  135.9920 C   0  0  0  0  0  2  0  0  0  0  0  0
  191.4100  174.0510  135.7860 C   0  0  1  0  0  3  0  0  0  0  0  0
  189.0540  174.3620  136.1280 N   0  0  0  0  0  0  0  0  0  0  0  0
  192.3200  173.7660  136.9750 C   0  0  2  0  0  3  0  0  0  0  0  0
  191.2450  171.7720  134.5960 C   0  0  0  0  0  1  0  0  0  0  0  0
  190.6320  175.2200  137.7860 C   0  0  2  0  0  3  0  0  0  0  0  0
  1 16  2  0  0  0  0
  1 21  1  0  0  0  0
  2  8  1  0  0  0  0
  3 17  2  0  0  0  0
  5 17  1  0  0  0  0
  5 24  1  0  0  0  0
  6  1  1  0  0  0  0
  8 10  1  0  0  0  0
  8  7  1  1  0  0  0
  9 14  1  0  0  0  0
 11 15  1  0  0  0  0
 12 28  1  0  0  0  0
 13  9  2  0  0  0  0
 13 26  1  0  0  0  0
 14  8  1  0  0  0  0
 15 23  1  0  0  0  0
 15 19  1  0  0  0  0
 16 20  1  0  0  0  0
 17 25  1  0  0  0  0
 18  9  1  0  0  0  0
 20  4  2  0  0  0  0
 21 22  2  0  0  0  0
 22  4  1  0  0  0  0
 23  6  1  0  0  0  0
 24 12  1  0  0  0  0
 24 26  1  0  0  0  0
 25 19  1  0  0  0  0
 25 12  1  0  0  0  0
 26 10  1  0  0  0  0
 27  5  1  0  0  0  0
 28 10  1  0  0  0  0
 28 16  1  0  0  0  0
M  END
>  <MODEL>
4

>  <REMARK>
 VINA RESULT:      -5.7      6.695      9.823
  Name = 
  0 active torsions:
  status: ('A' for Active; 'I' for Inactive)
                            x       y       z     vdW  Elec       q    Type
                         _______ _______ _______ _____ _____    ______ ____

>  <TORSDO>
F 0

$$$$
=
 OpenBabel11122412003D

 28 32  0  0  1  0  0  0  0  0999 V2000
  190.5660  176.9650  144.5750 C   0  0  0  0  0  0  0  0  0  0  0  0
  190.4440  178.8540  141.6860 F   0  0  0  0  0  0  0  0  0  0  0  0
  184.6280  177.7850  143.9430 O   0  0  0  0  0  0  0  0  0  0  0  0
  191.4290  174.3640  143.9680 C   0  0  0  0  0  3  0  0  0  0  0  0
  185.9200  178.3800  142.0610 N   0  0  0  0  0  0  0  0  0  0  0  0
  190.1280  178.3300  145.0110 C   0  0  0  0  0  2  0  0  0  0  0  0
  191.5990  176.9230  140.9750 C   0  0  0  0  0  1  0  0  0  0  0  0
  190.3460  177.7660  140.8360 C   0  0  1  0  0  0  0  0  0  0  0  0
  189.0480  178.6370  138.8640 C   0  0  0  0  0  0  0  0  0  0  0  0
  189.0870  176.9160  141.1570 C   0  0  2  0  0  3  0  0  0  0  0  0
  187.2150  178.7650  147.4620 C   0  0  0  0  0  1  0  0  0  0  0  0
  188.0460  177.9950  143.0900 C   0  0  1  0  0  3  0  0  0  0  0  0
  187.9180  178.3260  139.4180 N   0  0  0  0  0  0  0  0  0  0  0  0
  190.2830  178.2530  139.4650 N   0  0  0  0  0  2  0  0  0  0  0  0
  187.8580  178.5320  146.1110 C   0  0  2  0  0  3  0  0  0  0  0  0
  189.9390  176.2400  143.5250 C   0  0  0  0  0  0  0  0  0  0  0  0
  185.7490  177.9130  143.3820 C   0  0  0  0  0  0  0  0  0  0  0  0
  189.0560  179.3340  137.5520 C   0  0  0  0  0  1  0  0  0  0  0  0
  187.1640  177.3590  145.4310 C   0  0  0  0  0  2  0  0  0  0  0  0
  190.3800  174.9370  143.2500 C   0  0  0  0  0  3  0  0  0  0  0  0
  191.6230  176.3780  145.2840 C   0  0  0  0  0  3  0  0  0  0  0  0
  192.0550  175.0870  144.9810 C   0  0  0  0  0  3  0  0  0  0  0  0
  189.3410  178.2440  146.3150 C   0  0  0  0  0  2  0  0  0  0  0  0
  187.3500  178.5260  141.8140 C   0  0  1  0  0  3  0  0  0  0  0  0
  186.9790  177.6360  144.0130 N   0  0  0  0  0  0  0  0  0  0  0  0
  187.7970  177.6040  140.6860 C   0  0  2  0  0  3  0  0  0  0  0  0
  184.8800  179.0030  141.2600 C   0  0  0  0  0  1  0  0  0  0  0  0
  188.8100  176.7550  142.6540 C   0  0  2  0  0  3  0  0  0  0  0  0
  1  6  1  0  0  0  0
  1 21  1  0  0  0  0
  4 22  1  0  0  0  0
  5 17  1  0  0  0  0
  6 23  1  0  0  0  0
  8  7  1  1  0  0  0
  8 10  1  0  0  0  0
  8  2  1  0  0  0  0
  9 13  2  0  0  0  0
  9 14  1  0  0  0  0
 10 28  1  0  0  0  0
 12 25  1  0  0  0  0
 13 26  1  0  0  0  0
 14  8  1  0  0  0  0
 15 23  1  0  0  0  0
 15 11  1  0  0  0  0
 16  1  2  0  0  0  0
 17  3  2  0  0  0  0
 17 25  1  0  0  0  0
 18  9  1  0  0  0  0
 19 15  1  0  0  0  0
 20 16  1  0  0  0  0
 20  4  2  0  0  0  0
 22 21  2  0  0  0  0
 24  5  1  0  0  0  0
 24 12  1  0  0  0  0
 25 19  1  0  0  0  0
 26 10  1  0  0  0  0
 26 24  1  0  0  0  0
 27  5  1  0  0  0  0
 28 12  1  0  0  0  0
 28 16  1  0  0  0  0
M  END
>  <MODEL>
5

>  <REMARK>
 VINA RESULT:      -5.7      5.143      8.786
  Name = 
  0 active torsions:
  status: ('A' for Active; 'I' for Inactive)
                            x       y       z     vdW  Elec       q    Type
                         _______ _______ _______ _____ _____    ______ ____

>  <TORSDO>
F 0

$$$$
=
 OpenBabel11122412003D

 28 32  0  0  1  0  0  0  0  0999 V2000
  180.3170  178.8350  139.6650 C   0  0  0  0  0  0  0  0  0  0  0  0
  183.1100  177.0720  138.6530 F   0  0  0  0  0  0  0  0  0  0  0  0
  184.0060  179.6560  144.3600 O   0  0  0  0  0  0  0  0  0  0  0  0
  179.9990  181.1110  138.0530 C   0  0  0  0  0  3  0  0  0  0  0  0
  185.0300  178.7490  142.4390 N   0  0  0  0  0  0  0  0  0  0  0  0
  180.3770  177.6360  140.5610 C   0  0  0  0  0  2  0  0  0  0  0  0
  182.8320  178.6250  136.8970 C   0  0  0  0  0  1  0  0  0  0  0  0
  183.7160  178.1540  138.0350 C   0  0  1  0  0  0  0  0  0  0  0  0
  186.1790  177.6820  138.2420 C   0  0  0  0  0  0  0  0  0  0  0  0
  183.9580  179.3100  139.0430 C   0  0  2  0  0  3  0  0  0  0  0  0
  179.8540  177.9860  144.3410 C   0  0  0  0  0  1  0  0  0  0  0  0
  183.0160  178.5370  141.1640 C   0  0  1  0  0  3  0  0  0  0  0  0
  186.2400  178.2820  139.3890 N   0  0  0  0  0  0  0  0  0  0  0  0
  184.9820  177.7130  137.4670 N   0  0  0  0  0  2  0  0  0  0  0  0
  180.6340  178.0470  143.0450 C   0  0  2  0  0  3  0  0  0  0  0  0
  181.4170  179.7110  139.4550 C   0  0  0  0  0  0  0  0  0  0  0  0
  183.9280  179.2350  143.1750 C   0  0  0  0  0  0  0  0  0  0  0  0
  187.3910  177.0200  137.6940 C   0  0  0  0  0  1  0  0  0  0  0  0
  181.3870  179.3690  142.9860 C   0  0  0  0  0  2  0  0  0  0  0  0
  181.2290  180.8480  138.6550 C   0  0  0  0  0  3  0  0  0  0  0  0
  179.0890  179.1090  139.0480 C   0  0  0  0  0  3  0  0  0  0  0  0
  178.9310  180.2370  138.2430 C   0  0  0  0  0  3  0  0  0  0  0  0
  179.6610  177.9210  141.8780 C   0  0  0  0  0  2  0  0  0  0  0  0
  184.5310  178.2240  141.1720 C   0  0  1  0  0  3  0  0  0  0  0  0
  182.7240  179.1630  142.4450 N   0  0  0  0  0  0  0  0  0  0  0  0
  185.1190  179.0000  140.0000 C   0  0  2  0  0  3  0  0  0  0  0  0
  186.3320  178.4370  143.0010 C   0  0  0  0  0  1  0  0  0  0  0  0
  182.8080  179.5280  140.0290 C   0  0  2  0  0  3  0  0  0  0  0  0
  1  6  1  0  0  0  0
  4 22  2  0  0  0  0
  4 20  1  0  0  0  0
  5 27  1  0  0  0  0
  5 17  1  0  0  0  0
  6 23  1  0  0  0  0
  8  7  1  6  0  0  0
  8  2  1  0  0  0  0
  8 10  1  0  0  0  0
  9 13  2  0  0  0  0
 10 26  1  0  0  0  0
 10 28  1  0  0  0  0
 12 24  1  0  0  0  0
 12 25  1  0  0  0  0
 13 26  1  0  0  0  0
 14  8  1  0  0  0  0
 14  9  1  0  0  0  0
 15 11  1  0  0  0  0
 16  1  1  0  0  0  0
 16 28  1  0  0  0  0
 17  3  2  0  0  0  0
 18  9  1  0  0  0  0
 19 15  1  0  0  0  0
 20 16  2  0  0  0  0
 21  1  2  0  0  0  0
 22 21  1  0  0  0  0
 23 15  1  0  0  0  0
 24  5  1  0  0  0  0
 25 19  1  0  0  0  0
 25 17  1  0  0  0  0
 26 24  1  0  0  0  0
 28 12  1  0  0  0  0
M  END
>  <MODEL>
6

>  <REMARK>
 VINA RESULT:      -5.6      2.354      4.069
  Name = 
  0 active torsions:
  status: ('A' for Active; 'I' for Inactive)
                            x       y       z     vdW  Elec       q    Type
                         _______ _______ _______ _____ _____    ______ ____

>  <TORSDO>
F 0

$$$$
=
 OpenBabel11122412003D

 28 32  0  0  1  0  0  0  0  0999 V2000
  182.7470  178.7720  140.4090 C   0  0  0  0  0  0  0  0  0  0  0  0
  184.1470  176.3910  138.3350 F   0  0  0  0  0  0  0  0  0  0  0  0
  188.6020  179.3500  141.7180 O   0  0  0  0  0  0  0  0  0  0  0  0
  181.7100  180.8760  138.8680 C   0  0  0  0  0  3  0  0  0  0  0  0
  188.1350  178.0550  139.8040 N   0  0  0  0  0  0  0  0  0  0  0  0
  183.2380  177.6890  141.3210 C   0  0  0  0  0  2  0  0  0  0  0  0
  182.9870  177.7670  136.8080 C   0  0  0  0  0  1  0  0  0  0  0  0
  184.3380  177.2560  137.2710 C   0  0  1  0  0  0  0  0  0  0  0  0
  186.3480  176.3300  136.0740 C   0  0  0  0  0  0  0  0  0  0  0  0
  185.2530  178.4440  137.6740 C   0  0  2  0  0  3  0  0  0  0  0  0
  185.1930  178.5450  144.5040 C   0  0  0  0  0  1  0  0  0  0  0  0
  185.7540  178.1090  140.0440 C   0  0  1  0  0  3  0  0  0  0  0  0
  187.1570  177.0280  136.8080 N   0  0  0  0  0  0  0  0  0  0  0  0
  184.9370  176.5140  136.1710 N   0  0  0  0  0  2  0  0  0  0  0  0
  185.0090  178.3090  143.0200 C   0  0  2  0  0  3  0  0  0  0  0  0
  183.5570  179.3840  139.4130 C   0  0  0  0  0  0  0  0  0  0  0  0
  187.7720  178.8260  140.9280 C   0  0  0  0  0  0  0  0  0  0  0  0
  186.8980  175.3850  135.0680 C   0  0  0  0  0  1  0  0  0  0  0  0
  185.6810  179.4410  142.2540 C   0  0  0  0  0  2  0  0  0  0  0  0
  183.0190  180.4420  138.6650 C   0  0  0  0  0  3  0  0  0  0  0  0
  181.4310  179.2150  140.5970 C   0  0  0  0  0  3  0  0  0  0  0  0
  180.9120  180.2580  139.8290 C   0  0  0  0  0  3  0  0  0  0  0  0
  183.5170  178.2520  142.7120 C   0  0  0  0  0  2  0  0  0  0  0  0
  186.9160  177.5050  139.2200 C   0  0  1  0  0  3  0  0  0  0  0  0
  186.3740  178.9160  141.0850 N   0  0  0  0  0  0  0  0  0  0  0  0
  186.7230  178.0160  137.7980 C   0  0  2  0  0  3  0  0  0  0  0  0
  189.4720  177.5530  139.5370 C   0  0  0  0  0  1  0  0  0  0  0  0
  184.9810  178.9920  139.0770 C   0  0  2  0  0  3  0  0  0  0  0  0
  1 21  1  0  0  0  0
  1  6  1  0  0  0  0
  4 22  1  0  0  0  0
  5 17  1  0  0  0  0
  6 23  1  0  0  0  0
  8  7  1  6  0  0  0
  8 10  1  0  0  0  0
  8  2  1  0  0  0  0
  9 14  1  0  0  0  0
  9 13  2  0  0  0  0
 10 26  1  0  0  0  0
 10 28  1  0  0  0  0
 12 25  1  0  0  0  0
 13 26  1  0  0  0  0
 14  8  1  0  0  0  0
 15 11  1  0  0  0  0
 16  1  2  0  0  0  0
 17 25  1  0  0  0  0
 17  3  2  0  0  0  0
 18  9  1  0  0  0  0
 19 15  1  0  0  0  0
 20  4  2  0  0  0  0
 20 16  1  0  0  0  0
 22 21  2  0  0  0  0
 23 15  1  0  0  0  0
 24  5  1  0  0  0  0
 24 12  1  0  0  0  0
 25 19  1  0  0  0  0
 26 24  1  0  0  0  0
 27  5  1  0  0  0  0
 28 16  1  0  0  0  0
 28 12  1  0  0  0  0
M  END
>  <MODEL>
7

>  <REMARK>
 VINA RESULT:      -5.5      2.066      3.040
  Name = 
  0 active torsions:
  status: ('A' for Active; 'I' for Inactive)
                            x       y       z     vdW  Elec       q    Type
                         _______ _______ _______ _____ _____    ______ ____

>  <TORSDO>
F 0

$$$$
=
 OpenBabel11122412003D

 28 32  0  0  1  0  0  0  0  0999 V2000
  187.0580  175.1330  135.9430 C   0  0  0  0  0  0  0  0  0  0  0  0
  183.9580  175.8460  134.5950 F   0  0  0  0  0  0  0  0  0  0  0  0
  185.1140  179.4630  139.6580 O   0  0  0  0  0  0  0  0  0  0  0  0
  187.0290  172.5630  137.0730 C   0  0  0  0  0  3  0  0  0  0  0  0
  183.4690  178.5740  138.2210 N   0  0  0  0  0  0  0  0  0  0  0  0
  187.1890  176.5000  135.3450 C   0  0  0  0  0  2  0  0  0  0  0  0
  183.7890  173.5360  135.0480 C   0  0  0  0  0  1  0  0  0  0  0  0
  183.2750  174.9250  135.3720 C   0  0  1  0  0  0  0  0  0  0  0  0
  180.9740  175.9120  135.6200 C   0  0  0  0  0  0  0  0  0  0  0  0
  183.4550  175.2260  136.8850 C   0  0  2  0  0  3  0  0  0  0  0  0
  188.9030  179.3290  137.2800 C   0  0  0  0  0  1  0  0  0  0  0  0
  184.9550  177.1560  136.9930 C   0  0  1  0  0  3  0  0  0  0  0  0
  181.3260  176.5700  136.6800 N   0  0  0  0  0  0  0  0  0  0  0  0
  181.8640  174.9750  135.0170 N   0  0  0  0  0  2  0  0  0  0  0  0
  187.7620  178.4070  136.9070 C   0  0  2  0  0  3  0  0  0  0  0  0
  186.0200  174.7700  136.8440 C   0  0  0  0  0  0  0  0  0  0  0  0
  184.7810  178.6790  138.7300 C   0  0  0  0  0  0  0  0  0  0  0  0
  179.6030  176.0790  135.0730 C   0  0  0  0  0  1  0  0  0  0  0  0
  187.1340  177.8600  138.1820 C   0  0  0  0  0  2  0  0  0  0  0  0
  186.0350  173.4840  137.4060 C   0  0  0  0  0  3  0  0  0  0  0  0
  188.0460  174.1950  135.6140 C   0  0  0  0  0  3  0  0  0  0  0  0
  188.0310  172.9170  136.1710 C   0  0  0  0  0  3  0  0  0  0  0  0
  188.3040  177.2780  136.0380 C   0  0  0  0  0  2  0  0  0  0  0  0
  183.5000  177.6770  137.0710 C   0  0  1  0  0  3  0  0  0  0  0  0
  185.6840  177.8300  138.0570 N   0  0  0  0  0  0  0  0  0  0  0  0
  182.6350  176.4480  137.3260 C   0  0  2  0  0  3  0  0  0  0  0  0
  182.3900  179.5030  138.5090 C   0  0  0  0  0  1  0  0  0  0  0  0
  184.8710  175.6630  137.2680 C   0  0  2  0  0  3  0  0  0  0  0  0
  1 16  1  0  0  0  0
  2  8  1  0  0  0  0
  4 20  1  0  0  0  0
  5 27  1  0  0  0  0
  5 17  1  0  0  0  0
  6  1  1  0  0  0  0
  6 23  1  0  0  0  0
  8  7  1  6  0  0  0
  8 10  1  0  0  0  0
  9 13  2  0  0  0  0
 10 28  1  0  0  0  0
 10 26  1  0  0  0  0
 12 24  1  0  0  0  0
 12 28  1  0  0  0  0
 12 25  1  0  0  0  0
 13 26  1  0  0  0  0
 14  8  1  0  0  0  0
 14  9  1  0  0  0  0
 15 11  1  0  0  0  0
 15 19  1  0  0  0  0
 16 28  1  0  0  0  0
 16 20  2  0  0  0  0
 17  3  2  0  0  0  0
 18  9  1  0  0  0  0
 21  1  2  0  0  0  0
 21 22  1  0  0  0  0
 22  4  2  0  0  0  0
 23 15  1  0  0  0  0
 24 26  1  0  0  0  0
 24  5  1  0  0  0  0
 25 19  1  0  0  0  0
 25 17  1  0  0  0  0
M  END
>  <MODEL>
8

>  <REMARK>
 VINA RESULT:      -5.5      2.468      5.999
  Name = 
  0 active torsions:
  status: ('A' for Active; 'I' for Inactive)
                            x       y       z     vdW  Elec       q    Type
                         _______ _______ _______ _____ _____    ______ ____

>  <TORSDO>
F 0

$$$$
=
 OpenBabel11122412003D

 28 32  0  0  1  0  0  0  0  0999 V2000
  187.9520  176.3460  136.5690 C   0  0  0  0  0  0  0  0  0  0  0  0
  189.1090  175.9170  139.7950 F   0  0  0  0  0  0  0  0  0  0  0  0
  183.9990  179.6490  139.6980 O   0  0  0  0  0  0  0  0  0  0  0  0
  189.7960  177.8670  135.0980 C   0  0  0  0  0  3  0  0  0  0  0  0
  185.9060  178.9720  140.9080 N   0  0  0  0  0  0  0  0  0  0  0  0
  186.9180  175.5040  137.2540 C   0  0  0  0  0  2  0  0  0  0  0  0
  191.0010  176.8030  138.6970 C   0  0  0  0  0  1  0  0  0  0  0  0
  189.9490  177.0170  139.7680 C   0  0  1  0  0  0  0  0  0  0  0  0
  190.0400  177.7850  142.1630 C   0  0  0  0  0  0  0  0  0  0  0  0
  189.1550  178.3220  139.4890 C   0  0  2  0  0  3  0  0  0  0  0  0
  183.1860  176.2810  136.8650 C   0  0  0  0  0  1  0  0  0  0  0  0
  186.8340  177.6170  139.1680 C   0  0  1  0  0  3  0  0  0  0  0  0
  189.0070  178.5500  142.0000 N   0  0  0  0  0  0  0  0  0  0  0  0
  190.6300  177.1120  141.0520 N   0  0  0  0  0  2  0  0  0  0  0  0
  184.5780  176.4490  137.4370 C   0  0  2  0  0  3  0  0  0  0  0  0
  188.4370  177.5740  137.0990 C   0  0  0  0  0  0  0  0  0  0  0  0
  185.0900  179.0240  139.7580 C   0  0  0  0  0  0  0  0  0  0  0  0
  190.6630  177.6670  143.5070 C   0  0  0  0  0  1  0  0  0  0  0  0
  184.9260  177.9310  137.4590 C   0  0  0  0  0  2  0  0  0  0  0  0
  189.3480  178.3210  136.3380 C   0  0  0  0  0  3  0  0  0  0  0  0
  188.4160  175.9000  135.3250 C   0  0  0  0  0  3  0  0  0  0  0  0
  189.3350  176.6530  134.5940 C   0  0  0  0  0  3  0  0  0  0  0  0
  185.5630  175.6700  136.5730 C   0  0  0  0  0  2  0  0  0  0  0  0
  187.0030  178.0480  140.6440 C   0  0  1  0  0  3  0  0  0  0  0  0
  185.6220  178.2680  138.6930 N   0  0  0  0  0  0  0  0  0  0  0  0
  188.3430  178.7700  140.7130 C   0  0  2  0  0  3  0  0  0  0  0  0
  185.5020  179.4100  142.2330 C   0  0  0  0  0  1  0  0  0  0  0  0
  188.0510  178.1660  138.4390 C   0  0  2  0  0  3  0  0  0  0  0  0
  1 16  1  0  0  0  0
  1  6  1  0  0  0  0
  3 17  2  0  0  0  0
  4 20  1  0  0  0  0
  5 27  1  0  0  0  0
  8  7  1  6  0  0  0
  8  2  1  0  0  0  0
  8 14  1  0  0  0  0
  9 18  1  0  0  0  0
 10  8  1  0  0  0  0
 10 26  1  0  0  0  0
 11 15  1  0  0  0  0
 12 24  1  0  0  0  0
 13  9  2  0  0  0  0
 14  9  1  0  0  0  0
 15 19  1  0  0  0  0
 16 28  1  0  0  0  0
 17  5  1  0  0  0  0
 19 25  1  0  0  0  0
 20 16  2  0  0  0  0
 21  1  2  0  0  0  0
 22  4  2  0  0  0  0
 22 21  1  0  0  0  0
 23  6  1  0  0  0  0
 23 15  1  0  0  0  0
 24 26  1  0  0  0  0
 24  5  1  0  0  0  0
 25 12  1  0  0  0  0
 25 17  1  0  0  0  0
 26 13  1  0  0  0  0
 28 12  1  0  0  0  0
 28 10  1  0  0  0  0
M  END
>  <MODEL>
9

>  <REMARK>
 VINA RESULT:      -5.4      3.566      7.990
  Name = 
  0 active torsions:
  status: ('A' for Active; 'I' for Inactive)
                            x       y       z     vdW  Elec       q    Type
                         _______ _______ _______ _____ _____    ______ ____

>  <TORSDO>
F 0

$$$$
