=
 OpenBabel11122411263D

 37 43  0  0  1  0  0  0  0  0999 V2000
  184.4560  175.3560  137.2350 C   0  0  0  0  0  2  0  0  0  0  0  0
  188.8580  177.9300  136.9470 C   0  0  1  0  0  0  0  0  0  0  0  0
  185.5250  178.0770  139.5720 N   0  0  1  0  0  0  0  0  0  0  0  0
  184.3010  174.1190  136.3400 C   0  0  2  0  0  3  0  0  0  0  0  0
  182.0570  177.6670  138.2860 O   0  0  0  0  0  0  0  0  0  0  0  0
  188.0100  178.3650  139.3170 C   0  0  1  0  0  3  0  0  0  0  0  0
  184.3770  178.2510  138.6670 C   0  0  2  0  0  3  0  0  0  0  0  0
  181.8610  174.7490  136.0350 C   0  0  0  0  0  0  0  0  0  0  0  0
  186.6100  178.4680  138.7000 C   0  0  1  0  0  3  0  0  0  0  0  0
  183.1460  177.4410  139.1390 C   0  0  1  0  0  3  0  0  0  0  0  0
  187.9290  177.9050  140.7740 C   0  0  0  0  0  2  0  0  0  0  0  0
  183.0870  174.1540  135.4000 C   0  0  0  0  0  2  0  0  0  0  0  0
  186.4030  177.6610  137.4760 C   0  0  2  0  0  3  0  0  0  0  0  0
  189.5000  176.9550  136.1850 O   0  0  0  0  0  1  0  0  0  0  0  0
  184.3530  178.9380  141.5900 C   0  0  0  0  0  2  0  0  0  0  0  0
  186.8520  178.7030  141.5480 C   0  0  0  0  0  2  0  0  0  0  0  0
  187.4070  178.0940  136.4210 C   0  0  0  0  0  2  0  0  0  0  0  0
  181.7980  176.2160  136.3830 C   0  0  1  0  0  3  0  0  0  0  0  0
  181.6390  176.3940  137.8920 C   0  0  0  0  0  2  0  0  0  0  0  0
  185.5890  179.0020  140.7060 C   0  0  1  0  0  3  0  0  0  0  0  0
  184.9260  177.8980  137.2300 C   0  0  1  0  0  3  0  0  0  0  0  0
  188.9520  177.5250  138.4440 C   0  0  0  0  0  2  0  0  0  0  0  0
  182.7120  177.7010  140.6000 C   0  0  1  0  0  3  0  0  0  0  0  0
  189.5200  179.1300  136.7720 F   0  0  0  0  0  0  0  0  0  0  0  0
  182.9980  177.0010  135.8180 C   0  0  0  0  0  2  0  0  0  0  0  0
  180.9010  174.0320  136.2640 O   0  0  0  0  0  0  0  0  0  0  0  0
  184.3560  176.6870  136.4710 C   0  0  2  0  0  3  0  0  0  0  0  0
  183.7550  177.6680  141.5520 O   0  0  0  0  0  0  0  0  0  0  0  0
  181.3490  179.6630  139.8200 C   0  0  0  0  0  3  0  0  0  0  0  0
  181.6440  178.7450  140.8340 C   0  0  0  0  0  0  0  0  0  0  0  0
  180.9280  178.7930  142.0410 C   0  0  0  0  0  3  0  0  0  0  0  0
  179.0510  179.8150  143.7390 Cl  0  0  0  0  0  0  0  0  0  0  0  0
  179.6490  180.6760  141.2170 C   0  0  0  0  0  3  0  0  0  0  0  0
  179.9350  179.7580  142.2310 C   0  0  0  0  0  0  0  0  0  0  0  0
  180.3560  180.6280  140.0110 C   0  0  0  0  0  3  0  0  0  0  0  0
  185.5130  172.8780  137.7140 C   0  0  0  0  0  1  0  0  0  0  0  0
  184.2450  172.9760  137.1390 O   0  0  0  0  0  0  0  0  0  0  0  0
  2 14  1  6  0  0  0
  2 22  1  0  0  0  0
  3 20  1  0  0  0  0
  4 37  1  0  0  0  0
  4  1  1  0  0  0  0
  5 10  1  0  0  0  0
  6 11  1  0  0  0  0
  7 10  1  0  0  0  0
  7  3  1  0  0  0  0
  8 26  2  0  0  0  0
  8 18  1  0  0  0  0
  9  6  1  0  0  0  0
  9  3  1  0  0  0  0
 10 23  1  0  0  0  0
 11 16  1  0  0  0  0
 12  8  1  0  0  0  0
 12  4  1  0  0  0  0
 13  9  1  0  0  0  0
 17  2  1  0  0  0  0
 17 13  1  0  0  0  0
 18 19  1  0  0  0  0
 19  5  1  0  0  0  0
 20 16  1  0  0  0  0
 20 15  1  0  0  0  0
 21 13  1  0  0  0  0
 21  7  1  0  0  0  0
 22  6  1  0  0  0  0
 23 30  1  0  0  0  0
 23 28  1  0  0  0  0
 24  2  1  0  0  0  0
 25 18  1  0  0  0  0
 25 27  1  0  0  0  0
 27 21  1  0  0  0  0
 27  1  1  0  0  0  0
 28 15  1  0  0  0  0
 29 35  2  0  0  0  0
 29 30  1  0  0  0  0
 30 31  2  0  0  0  0
 31 34  1  0  0  0  0
 33 34  2  0  0  0  0
 34 32  1  0  0  0  0
 35 33  1  0  0  0  0
 37 36  1  0  0  0  0
M  END
>  <MODEL>
1

>  <REMARK>
 VINA RESULT:      -7.2      0.000      0.000
  Name = 
  2 active torsions:
  status: ('A' for Active; 'I' for Inactive)
    1  A    between atoms: C_4  and  O_37
    2  A    between atoms: C_23  and  C_30
                            x       y       z     vdW  Elec       q    Type
                         _______ _______ _______ _____ _____    ______ ____

>  <TORSDO>
F 2

$$$$
=
 OpenBabel11122411263D

 37 43  0  0  1  0  0  0  0  0999 V2000
  184.4240  175.0100  137.3280 C   0  0  0  0  0  2  0  0  0  0  0  0
  188.8130  177.5530  136.7300 C   0  0  1  0  0  0  0  0  0  0  0  0
  185.5150  177.9480  139.3740 N   0  0  1  0  0  0  0  0  0  0  0  0
  184.2610  173.6920  136.5600 C   0  0  2  0  0  3  0  0  0  0  0  0
  182.0310  177.4070  138.1820 O   0  0  0  0  0  0  0  0  0  0  0  0
  187.9950  178.2150  139.0590 C   0  0  1  0  0  3  0  0  0  0  0  0
  184.3540  178.0310  138.4730 C   0  0  2  0  0  3  0  0  0  0  0  0
  181.8150  174.2840  136.2290 C   0  0  0  0  0  0  0  0  0  0  0  0
  186.5870  178.2540  138.4530 C   0  0  1  0  0  3  0  0  0  0  0  0
  183.1320  177.2680  139.0380 C   0  0  1  0  0  3  0  0  0  0  0  0
  187.9360  177.8990  140.5540 C   0  0  0  0  0  2  0  0  0  0  0  0
  183.0340  173.6330  135.6380 C   0  0  0  0  0  2  0  0  0  0  0  0
  186.3650  177.3320  137.3170 C   0  0  2  0  0  3  0  0  0  0  0  0
  189.4470  176.5100  136.0580 O   0  0  0  0  0  1  0  0  0  0  0  0
  184.3670  178.9990  141.3150 C   0  0  0  0  0  2  0  0  0  0  0  0
  186.8660  178.7660  141.2610 C   0  0  0  0  0  2  0  0  0  0  0  0
  187.3540  177.6630  136.2110 C   0  0  0  0  0  2  0  0  0  0  0  0
  181.7520  175.7770  136.4340 C   0  0  1  0  0  3  0  0  0  0  0  0
  181.6120  176.1010  137.9210 C   0  0  0  0  0  2  0  0  0  0  0  0
  185.5910  178.9790  140.4120 C   0  0  1  0  0  3  0  0  0  0  0  0
  184.8850  177.5410  137.0700 C   0  0  1  0  0  3  0  0  0  0  0  0
  188.9290  177.2970  138.2580 C   0  0  0  0  0  2  0  0  0  0  0  0
  182.7170  177.6680  140.4730 C   0  0  1  0  0  3  0  0  0  0  0  0
  189.4680  178.7330  136.4310 F   0  0  0  0  0  0  0  0  0  0  0  0
  182.9410  176.5060  135.7780 C   0  0  0  0  0  2  0  0  0  0  0  0
  180.8610  173.5910  136.5400 O   0  0  0  0  0  0  0  0  0  0  0  0
  184.3090  176.2600  136.4400 C   0  0  2  0  0  3  0  0  0  0  0  0
  183.7740  177.7300  141.4090 O   0  0  0  0  0  0  0  0  0  0  0  0
  180.8320  178.7230  141.7550 C   0  0  0  0  0  3  0  0  0  0  0  0
  181.6490  178.7280  140.6190 C   0  0  0  0  0  0  0  0  0  0  0  0
  181.4800  179.7270  139.6490 C   0  0  0  0  0  3  0  0  0  0  0  0
  180.2870  181.9450  138.5950 Cl  0  0  0  0  0  0  0  0  0  0  0  0
  179.6780  180.6930  140.9450 C   0  0  0  0  0  3  0  0  0  0  0  0
  180.4950  180.7050  139.8110 C   0  0  0  0  0  0  0  0  0  0  0  0
  179.8470  179.7020  141.9170 C   0  0  0  0  0  3  0  0  0  0  0  0
  183.9110  171.5110  136.6940 C   0  0  0  0  0  1  0  0  0  0  0  0
  184.2200  172.6320  137.4670 O   0  0  0  0  0  0  0  0  0  0  0  0
  2 14  1  6  0  0  0
  2 22  1  0  0  0  0
  3 20  1  0  0  0  0
  4  1  1  0  0  0  0
  4 37  1  0  0  0  0
  5 10  1  0  0  0  0
  6 11  1  0  0  0  0
  7 10  1  0  0  0  0
  7  3  1  0  0  0  0
  8 18  1  0  0  0  0
  8 26  2  0  0  0  0
  9  6  1  0  0  0  0
  9  3  1  0  0  0  0
 10 23  1  0  0  0  0
 11 16  1  0  0  0  0
 12  8  1  0  0  0  0
 12  4  1  0  0  0  0
 13  9  1  0  0  0  0
 15 28  1  0  0  0  0
 17  2  1  0  0  0  0
 17 13  1  0  0  0  0
 18 19  1  0  0  0  0
 19  5  1  0  0  0  0
 20 16  1  0  0  0  0
 20 15  1  0  0  0  0
 21 13  1  0  0  0  0
 21  7  1  0  0  0  0
 22  6  1  0  0  0  0
 23 30  1  0  0  0  0
 23 28  1  0  0  0  0
 24  2  1  0  0  0  0
 25 18  1  0  0  0  0
 25 27  1  0  0  0  0
 27 21  1  0  0  0  0
 27  1  1  0  0  0  0
 29 35  1  0  0  0  0
 30 29  2  0  0  0  0
 31 34  2  0  0  0  0
 31 30  1  0  0  0  0
 32 34  1  0  0  0  0
 33 35  2  0  0  0  0
 34 33  1  0  0  0  0
 36 37  1  0  0  0  0
M  END
>  <MODEL>
2

>  <REMARK>
 VINA RESULT:      -7.1      1.074      1.336
  Name = 
  2 active torsions:
  status: ('A' for Active; 'I' for Inactive)
    1  A    between atoms: C_4  and  O_37
    2  A    between atoms: C_23  and  C_30
                            x       y       z     vdW  Elec       q    Type
                         _______ _______ _______ _____ _____    ______ ____

>  <TORSDO>
F 2

$$$$
=
 OpenBabel11122411263D

 37 43  0  0  1  0  0  0  0  0999 V2000
  180.6550  180.5980  139.2740 C   0  0  0  0  0  2  0  0  0  0  0  0
  180.0230  178.5670  143.9180 C   0  0  1  0  0  0  0  0  0  0  0  0
  183.2610  178.7010  141.1750 N   0  0  1  0  0  0  0  0  0  0  0  0
  179.5590  181.5420  138.7620 C   0  0  2  0  0  3  0  0  0  0  0  0
  182.6830  178.3650  137.5140 O   0  0  0  0  0  0  0  0  0  0  0  0
  182.5560  178.6500  143.5890 C   0  0  1  0  0  3  0  0  0  0  0  0
  182.6830  178.1710  139.9290 C   0  0  2  0  0  3  0  0  0  0  0  0
  179.9290  180.5750  136.4440 C   0  0  0  0  0  0  0  0  0  0  0  0
  182.2890  178.2320  142.1380 C   0  0  1  0  0  3  0  0  0  0  0  0
  183.2120  178.9250  138.6850 C   0  0  1  0  0  3  0  0  0  0  0  0
  183.8550  179.4500  143.6940 C   0  0  0  0  0  2  0  0  0  0  0  0
  178.9310  181.1290  137.4220 C   0  0  0  0  0  2  0  0  0  0  0  0
  180.9880  178.6730  141.5860 C   0  0  2  0  0  3  0  0  0  0  0  0
  178.9430  179.3860  144.2440 O   0  0  0  0  0  1  0  0  0  0  0  0
  185.6230  178.2470  140.5390 C   0  0  0  0  0  2  0  0  0  0  0  0
  184.9990  178.7540  142.9170 C   0  0  0  0  0  2  0  0  0  0  0  0
  179.8690  178.1070  142.4430 C   0  0  0  0  0  2  0  0  0  0  0  0
  180.6030  179.2470  136.6860 C   0  0  1  0  0  3  0  0  0  0  0  0
  182.1120  179.4390  136.8290 C   0  0  0  0  0  2  0  0  0  0  0  0
  184.5330  178.1070  141.5910 C   0  0  1  0  0  3  0  0  0  0  0  0
  181.1210  178.2110  140.1490 C   0  0  1  0  0  3  0  0  0  0  0  0
  181.3360  179.3450  144.2090 C   0  0  0  0  0  2  0  0  0  0  0  0
  184.7520  178.9940  138.5670 C   0  0  1  0  0  3  0  0  0  0  0  0
  179.9870  177.4470  144.7270 F   0  0  0  0  0  0  0  0  0  0  0  0
  179.9870  178.4900  137.8790 C   0  0  0  0  0  2  0  0  0  0  0  0
  180.1900  181.2100  135.4350 O   0  0  0  0  0  0  0  0  0  0  0  0
  180.2480  179.1160  139.2610 C   0  0  2  0  0  3  0  0  0  0  0  0
  185.4280  179.3880  139.7430 O   0  0  0  0  0  0  0  0  0  0  0  0
  186.6600  178.2140  137.1310 C   0  0  0  0  0  3  0  0  0  0  0  0
  185.4370  177.9250  137.7440 C   0  0  0  0  0  0  0  0  0  0  0  0
  184.8770  176.6460  137.6070 C   0  0  0  0  0  3  0  0  0  0  0  0
  184.8290  174.0770  136.6830 Cl  0  0  0  0  0  0  0  0  0  0  0  0
  186.7530  175.9640  136.2380 C   0  0  0  0  0  3  0  0  0  0  0  0
  185.5340  175.6690  136.8530 C   0  0  0  0  0  0  0  0  0  0  0  0
  187.3170  177.2360  136.3770 C   0  0  0  0  0  3  0  0  0  0  0  0
  178.9860  183.6260  138.2880 C   0  0  0  0  0  1  0  0  0  0  0  0
  180.0740  182.8360  138.6610 O   0  0  0  0  0  0  0  0  0  0  0  0
  2 22  1  0  0  0  0
  2 14  1  1  0  0  0
  2 24  1  0  0  0  0
  3 20  1  0  0  0  0
  3  9  1  0  0  0  0
  4  1  1  0  0  0  0
  5 10  1  0  0  0  0
  6 11  1  0  0  0  0
  6 22  1  0  0  0  0
  7 21  1  0  0  0  0
  7  3  1  0  0  0  0
  8 18  1  0  0  0  0
  8 12  1  0  0  0  0
  9  6  1  0  0  0  0
 10  7  1  0  0  0  0
 12  4  1  0  0  0  0
 13  9  1  0  0  0  0
 13 17  1  0  0  0  0
 15 20  1  0  0  0  0
 16 11  1  0  0  0  0
 17  2  1  0  0  0  0
 18 19  1  0  0  0  0
 18 25  1  0  0  0  0
 19  5  1  0  0  0  0
 20 16  1  0  0  0  0
 21 13  1  0  0  0  0
 23 10  1  0  0  0  0
 23 28  1  0  0  0  0
 25 27  1  0  0  0  0
 26  8  2  0  0  0  0
 27  1  1  0  0  0  0
 27 21  1  0  0  0  0
 28 15  1  0  0  0  0
 29 30  1  0  0  0  0
 30 23  1  0  0  0  0
 31 30  2  0  0  0  0
 32 34  1  0  0  0  0
 33 35  1  0  0  0  0
 33 34  2  0  0  0  0
 34 31  1  0  0  0  0
 35 29  2  0  0  0  0
 36 37  1  0  0  0  0
 37  4  1  0  0  0  0
M  END
>  <MODEL>
3

>  <REMARK>
 VINA RESULT:      -6.8      3.647      7.307
  Name = 
  2 active torsions:
  status: ('A' for Active; 'I' for Inactive)
    1  A    between atoms: C_4  and  O_37
    2  A    between atoms: C_23  and  C_30
                            x       y       z     vdW  Elec       q    Type
                         _______ _______ _______ _____ _____    ______ ____

>  <TORSDO>
F 2

$$$$
=
 OpenBabel11122411263D

 37 43  0  0  1  0  0  0  0  0999 V2000
  186.2420  175.4340  137.5190 C   0  0  0  0  0  2  0  0  0  0  0  0
  190.5470  177.1870  139.6360 C   0  0  1  0  0  0  0  0  0  0  0  0
  186.4200  177.9370  140.2950 N   0  0  1  0  0  0  0  0  0  0  0  0
  186.3610  174.2380  136.5640 C   0  0  2  0  0  3  0  0  0  0  0  0
  184.0330  178.1390  137.4470 O   0  0  0  0  0  0  0  0  0  0  0  0
  188.7130  177.7790  141.3150 C   0  0  1  0  0  3  0  0  0  0  0  0
  185.9160  178.3060  138.9620 C   0  0  2  0  0  3  0  0  0  0  0  0
  184.5270  175.2870  135.1570 C   0  0  0  0  0  0  0  0  0  0  0  0
  187.8410  178.1240  140.1020 C   0  0  1  0  0  3  0  0  0  0  0  0
  184.5040  177.7290  138.7020 C   0  0  1  0  0  3  0  0  0  0  0  0
  187.8490  177.3500  142.5020 C   0  0  0  0  0  2  0  0  0  0  0  0
  185.7960  174.4810  135.1570 C   0  0  0  0  0  2  0  0  0  0  0  0
  188.1450  177.3600  138.8710 C   0  0  2  0  0  3  0  0  0  0  0  0
  191.3200  176.1090  139.2090 O   0  0  0  0  0  1  0  0  0  0  0  0
  184.5520  179.0040  141.5440 C   0  0  0  0  0  2  0  0  0  0  0  0
  186.6700  178.3310  142.7110 C   0  0  0  0  0  2  0  0  0  0  0  0
  189.5940  177.6020  138.4830 C   0  0  0  0  0  2  0  0  0  0  0  0
  184.5300  176.7440  135.5490 C   0  0  1  0  0  3  0  0  0  0  0  0
  183.6730  176.9570  136.7960 C   0  0  0  0  0  2  0  0  0  0  0  0
  186.0560  178.8430  141.3870 C   0  0  1  0  0  3  0  0  0  0  0  0
  187.0440  177.8520  137.9550 C   0  0  1  0  0  3  0  0  0  0  0  0
  189.8200  176.7810  140.9490 C   0  0  0  0  0  2  0  0  0  0  0  0
  183.4490  178.0700  139.7790 C   0  0  1  0  0  3  0  0  0  0  0  0
  191.3860  178.2500  139.9090 F   0  0  0  0  0  0  0  0  0  0  0  0
  185.9580  177.3010  135.7110 C   0  0  0  0  0  2  0  0  0  0  0  0
  183.4820  174.7530  134.8260 O   0  0  0  0  0  0  0  0  0  0  0  0
  186.7440  176.7560  136.9160 C   0  0  2  0  0  3  0  0  0  0  0  0
  183.8620  177.8590  141.1140 O   0  0  0  0  0  0  0  0  0  0  0  0
  183.0550  180.3140  138.7190 C   0  0  0  0  0  3  0  0  0  0  0  0
  182.5840  179.2880  139.5460 C   0  0  0  0  0  0  0  0  0  0  0  0
  181.3100  179.3950  140.1240 C   0  0  0  0  0  3  0  0  0  0  0  0
  178.9360  180.6520  140.6130 Cl  0  0  0  0  0  0  0  0  0  0  0  0
  180.9990  181.5470  139.0620 C   0  0  0  0  0  3  0  0  0  0  0  0
  180.5210  180.5240  139.8850 C   0  0  0  0  0  0  0  0  0  0  0  0
  182.2650  181.4420  138.4790 C   0  0  0  0  0  3  0  0  0  0  0  0
  185.8940  172.1060  136.1970 C   0  0  0  0  0  1  0  0  0  0  0  0
  185.7370  173.1270  137.1360 O   0  0  0  0  0  0  0  0  0  0  0  0
  2 14  1  6  0  0  0
  2 24  1  0  0  0  0
  2 22  1  0  0  0  0
  3 20  1  0  0  0  0
  4 37  1  0  0  0  0
  4  1  1  0  0  0  0
  5 10  1  0  0  0  0
  6 11  1  0  0  0  0
  7  3  1  0  0  0  0
  8 12  1  0  0  0  0
  8 18  1  0  0  0  0
  9  3  1  0  0  0  0
  9  6  1  0  0  0  0
 10  7  1  0  0  0  0
 10 23  1  0  0  0  0
 11 16  1  0  0  0  0
 12  4  1  0  0  0  0
 13  9  1  0  0  0  0
 17 13  1  0  0  0  0
 17  2  1  0  0  0  0
 18 25  1  0  0  0  0
 18 19  1  0  0  0  0
 19  5  1  0  0  0  0
 20 15  1  0  0  0  0
 20 16  1  0  0  0  0
 21 13  1  0  0  0  0
 21  7  1  0  0  0  0
 22  6  1  0  0  0  0
 23 28  1  0  0  0  0
 25 27  1  0  0  0  0
 26  8  2  0  0  0  0
 27  1  1  0  0  0  0
 27 21  1  0  0  0  0
 28 15  1  0  0  0  0
 29 30  1  0  0  0  0
 30 23  1  0  0  0  0
 30 31  2  0  0  0  0
 33 34  2  0  0  0  0
 34 31  1  0  0  0  0
 34 32  1  0  0  0  0
 35 29  2  0  0  0  0
 35 33  1  0  0  0  0
 36 37  1  0  0  0  0
M  END
>  <MODEL>
4

>  <REMARK>
 VINA RESULT:      -6.6      1.782      2.326
  Name = 
  2 active torsions:
  status: ('A' for Active; 'I' for Inactive)
    1  A    between atoms: C_4  and  O_37
    2  A    between atoms: C_23  and  C_30
                            x       y       z     vdW  Elec       q    Type
                         _______ _______ _______ _____ _____    ______ ____

>  <TORSDO>
F 2

$$$$
=
 OpenBabel11122411263D

 37 43  0  0  1  0  0  0  0  0999 V2000
  188.1490  176.3290  138.4040 C   0  0  0  0  0  2  0  0  0  0  0  0
  190.3300  177.9710  142.7210 C   0  0  1  0  0  0  0  0  0  0  0  0
  186.3590  178.0240  141.2200 N   0  0  1  0  0  0  0  0  0  0  0  0
  188.9950  175.4470  137.4770 C   0  0  2  0  0  3  0  0  0  0  0  0
  185.6840  178.6750  137.6180 O   0  0  0  0  0  0  0  0  0  0  0  0
  187.8320  177.8820  143.2530 C   0  0  1  0  0  3  0  0  0  0  0  0
  186.4940  178.6650  139.9010 C   0  0  2  0  0  3  0  0  0  0  0  0
  187.8860  176.5990  135.5060 C   0  0  0  0  0  0  0  0  0  0  0  0
  187.6050  178.4240  141.8370 C   0  0  1  0  0  3  0  0  0  0  0  0
  185.5690  178.0110  138.8480 C   0  0  1  0  0  3  0  0  0  0  0  0
  186.6300  177.0580  143.7200 C   0  0  0  0  0  2  0  0  0  0  0  0
  189.1450  175.9790  136.0440 C   0  0  0  0  0  2  0  0  0  0  0  0
  188.6380  178.0490  140.8460 C   0  0  2  0  0  3  0  0  0  0  0  0
  191.4440  177.1420  142.5970 O   0  0  0  0  0  1  0  0  0  0  0  0
  183.9280  178.4980  141.4510 C   0  0  0  0  0  2  0  0  0  0  0  0
  185.3040  177.8010  143.4320 C   0  0  0  0  0  2  0  0  0  0  0  0
  189.9890  178.5550  141.3240 C   0  0  0  0  0  2  0  0  0  0  0  0
  187.3530  177.8930  136.0710 C   0  0  1  0  0  3  0  0  0  0  0  0
  185.9760  177.6690  136.6940 C   0  0  0  0  0  2  0  0  0  0  0  0
  185.3090  178.5640  142.0860 C   0  0  1  0  0  3  0  0  0  0  0  0
  188.0390  178.6280  139.5810 C   0  0  1  0  0  3  0  0  0  0  0  0
  189.1780  177.1530  143.3690 C   0  0  0  0  0  2  0  0  0  0  0  0
  184.0770  177.9320  139.2460 C   0  0  1  0  0  3  0  0  0  0  0  0
  190.6520  179.0190  143.5620 F   0  0  0  0  0  0  0  0  0  0  0  0
  188.3440  178.5550  137.0470 C   0  0  0  0  0  2  0  0  0  0  0  0
  187.2930  176.0490  134.5940 O   0  0  0  0  0  0  0  0  0  0  0  0
  188.5500  177.8130  138.3790 C   0  0  2  0  0  3  0  0  0  0  0  0
  183.8270  177.4310  140.5440 O   0  0  0  0  0  0  0  0  0  0  0  0
  183.4930  180.3730  139.1400 C   0  0  0  0  0  3  0  0  0  0  0  0
  183.1730  179.0560  138.7930 C   0  0  0  0  0  0  0  0  0  0  0  0
  182.0350  178.8020  138.0110 C   0  0  0  0  0  3  0  0  0  0  0  0
  179.8020  179.5330  136.6220 Cl  0  0  0  0  0  0  0  0  0  0  0  0
  181.5420  181.1710  137.9450 C   0  0  0  0  0  3  0  0  0  0  0  0
  181.2210  179.8580  137.5920 C   0  0  0  0  0  0  0  0  0  0  0  0
  182.6780  181.4290  138.7190 C   0  0  0  0  0  3  0  0  0  0  0  0
  189.4130  173.3860  136.7880 C   0  0  0  0  0  1  0  0  0  0  0  0
  188.4560  174.1590  137.4460 O   0  0  0  0  0  0  0  0  0  0  0  0
  2 14  1  6  0  0  0
  2 22  1  0  0  0  0
  2 24  1  0  0  0  0
  3  9  1  0  0  0  0
  3 20  1  0  0  0  0
  4  1  1  0  0  0  0
  5 10  1  0  0  0  0
  6 22  1  0  0  0  0
  6 11  1  0  0  0  0
  7  3  1  0  0  0  0
  8 12  1  0  0  0  0
  8 18  1  0  0  0  0
  9  6  1  0  0  0  0
 10 23  1  0  0  0  0
 10  7  1  0  0  0  0
 12  4  1  0  0  0  0
 13 17  1  0  0  0  0
 13  9  1  0  0  0  0
 15 20  1  0  0  0  0
 16 11  1  0  0  0  0
 17  2  1  0  0  0  0
 18 19  1  0  0  0  0
 18 25  1  0  0  0  0
 19  5  1  0  0  0  0
 20 16  1  0  0  0  0
 21  7  1  0  0  0  0
 21 13  1  0  0  0  0
 23 28  1  0  0  0  0
 25 27  1  0  0  0  0
 26  8  2  0  0  0  0
 27  1  1  0  0  0  0
 27 21  1  0  0  0  0
 28 15  1  0  0  0  0
 30 29  1  0  0  0  0
 30 23  1  0  0  0  0
 31 30  2  0  0  0  0
 32 34  1  0  0  0  0
 33 35  1  0  0  0  0
 34 33  2  0  0  0  0
 34 31  1  0  0  0  0
 35 29  2  0  0  0  0
 36 37  1  0  0  0  0
 37  4  1  0  0  0  0
M  END
>  <MODEL>
5

>  <REMARK>
 VINA RESULT:      -6.1      3.113      4.471
  Name = 
  2 active torsions:
  status: ('A' for Active; 'I' for Inactive)
    1  A    between atoms: C_4  and  O_37
    2  A    between atoms: C_23  and  C_30
                            x       y       z     vdW  Elec       q    Type
                         _______ _______ _______ _____ _____    ______ ____

>  <TORSDO>
F 2

$$$$
=
 OpenBabel11122411263D

 37 43  0  0  1  0  0  0  0  0999 V2000
  184.5920  177.0780  139.2940 C   0  0  0  0  0  2  0  0  0  0  0  0
  188.8110  178.6330  136.8710 C   0  0  1  0  0  0  0  0  0  0  0  0
  187.9320  177.6070  140.8960 N   0  0  1  0  0  0  0  0  0  0  0  0
  183.3850  176.6880  138.4310 C   0  0  2  0  0  3  0  0  0  0  0  0
  184.6910  178.5670  142.4520 O   0  0  0  0  0  0  0  0  0  0  0  0
  189.6570  177.6360  139.0670 C   0  0  1  0  0  3  0  0  0  0  0  0
  186.7790  178.4590  141.2290 C   0  0  2  0  0  3  0  0  0  0  0  0
  181.8890  177.7080  140.2100 C   0  0  0  0  0  0  0  0  0  0  0  0
  188.4390  178.2920  139.7280 C   0  0  1  0  0  3  0  0  0  0  0  0
  185.7500  177.7140  142.1120 C   0  0  1  0  0  3  0  0  0  0  0  0
  190.0980  176.3960  139.8470 C   0  0  0  0  0  2  0  0  0  0  0  0
  182.0960  177.4630  138.7410 C   0  0  0  0  0  2  0  0  0  0  0  0
  187.2560  178.4460  138.8540 C   0  0  2  0  0  3  0  0  0  0  0  0
  188.3540  178.2530  135.6110 O   0  0  0  0  0  1  0  0  0  0  0  0
  188.6020  177.2030  143.2580 C   0  0  0  0  0  2  0  0  0  0  0  0
  190.1690  176.6930  141.3640 C   0  0  0  0  0  2  0  0  0  0  0  0
  187.6370  179.2880  137.6480 C   0  0  0  0  0  2  0  0  0  0  0  0
  182.7910  178.6430  140.9770 C   0  0  1  0  0  3  0  0  0  0  0  0
  183.5380  177.8780  142.0680 C   0  0  0  0  0  2  0  0  0  0  0  0
  189.0350  177.6200  141.8610 C   0  0  1  0  0  3  0  0  0  0  0  0
  186.2440  178.9890  139.8420 C   0  0  1  0  0  3  0  0  0  0  0  0
  189.4210  177.3870  137.5710 C   0  0  0  0  0  2  0  0  0  0  0  0
  186.3280  177.0810  143.3990 C   0  0  1  0  0  3  0  0  0  0  0  0
  189.8050  179.5790  136.7120 F   0  0  0  0  0  0  0  0  0  0  0  0
  183.7380  179.4310  140.0510 C   0  0  0  0  0  2  0  0  0  0  0  0
  180.9710  177.1470  140.7840 O   0  0  0  0  0  0  0  0  0  0  0  0
  184.8340  178.5950  139.3670 C   0  0  2  0  0  3  0  0  0  0  0  0
  187.5080  176.3230  143.2190 O   0  0  0  0  0  0  0  0  0  0  0  0
  185.3920  178.9920  144.7340 C   0  0  0  0  0  3  0  0  0  0  0  0
  186.2630  177.8990  144.6690 C   0  0  0  0  0  0  0  0  0  0  0  0
  187.0410  177.5650  145.7880 C   0  0  0  0  0  3  0  0  0  0  0  0
  187.9310  177.9080  148.3460 Cl  0  0  0  0  0  0  0  0  0  0  0  0
  186.0870  179.4210  147.0140 C   0  0  0  0  0  3  0  0  0  0  0  0
  186.9540  178.3270  146.9560 C   0  0  0  0  0  0  0  0  0  0  0  0
  185.3060  179.7530  145.9040 C   0  0  0  0  0  3  0  0  0  0  0  0
  183.9690  174.7250  137.5930 C   0  0  0  0  0  1  0  0  0  0  0  0
  183.1510  175.3170  138.5560 O   0  0  0  0  0  0  0  0  0  0  0  0
  1 27  1  0  0  0  0
  2 14  1  6  0  0  0
  2 22  1  0  0  0  0
  2 17  1  0  0  0  0
  3  7  1  0  0  0  0
  3 20  1  0  0  0  0
  4 37  1  0  0  0  0
  4 12  1  0  0  0  0
  4  1  1  0  0  0  0
  6  9  1  0  0  0  0
  6 11  1  0  0  0  0
  7 10  1  0  0  0  0
  8 26  2  0  0  0  0
  8 18  1  0  0  0  0
  9  3  1  0  0  0  0
 10  5  1  0  0  0  0
 10 23  1  0  0  0  0
 11 16  1  0  0  0  0
 12  8  1  0  0  0  0
 13  9  1  0  0  0  0
 13 21  1  0  0  0  0
 16 20  1  0  0  0  0
 17 13  1  0  0  0  0
 18 19  1  0  0  0  0
 19  5  1  0  0  0  0
 20 15  1  0  0  0  0
 21  7  1  0  0  0  0
 22  6  1  0  0  0  0
 23 30  1  0  0  0  0
 24  2  1  0  0  0  0
 25 18  1  0  0  0  0
 27 21  1  0  0  0  0
 27 25  1  0  0  0  0
 28 15  1  0  0  0  0
 28 23  1  0  0  0  0
 29 35  1  0  0  0  0
 30 29  2  0  0  0  0
 30 31  1  0  0  0  0
 31 34  2  0  0  0  0
 34 33  1  0  0  0  0
 34 32  1  0  0  0  0
 35 33  2  0  0  0  0
 36 37  1  0  0  0  0
M  END
>  <MODEL>
6

>  <REMARK>
 VINA RESULT:      -5.3      2.951      4.756
  Name = 
  2 active torsions:
  status: ('A' for Active; 'I' for Inactive)
    1  A    between atoms: C_4  and  O_37
    2  A    between atoms: C_23  and  C_30
                            x       y       z     vdW  Elec       q    Type
                         _______ _______ _______ _____ _____    ______ ____

>  <TORSDO>
F 2

$$$$
=
 OpenBabel11122411263D

 37 43  0  0  1  0  0  0  0  0999 V2000
  188.3040  176.7550  140.5080 C   0  0  0  0  0  2  0  0  0  0  0  0
  184.0550  177.6750  137.8270 C   0  0  1  0  0  0  0  0  0  0  0  0
  187.4970  175.2800  137.1640 N   0  0  1  0  0  0  0  0  0  0  0  0
  188.3470  177.2570  141.9570 C   0  0  2  0  0  3  0  0  0  0  0  0
  190.8780  176.4710  138.1640 O   0  0  0  0  0  0  0  0  0  0  0  0
  185.0250  175.5510  136.7900 C   0  0  1  0  0  3  0  0  0  0  0  0
  188.6150  176.2230  137.3360 C   0  0  2  0  0  3  0  0  0  0  0  0
  190.8060  177.7860  141.6110 C   0  0  0  0  0  0  0  0  0  0  0  0
  186.4020  176.2030  136.9660 C   0  0  1  0  0  3  0  0  0  0  0  0
  189.8140  175.5650  138.0600 C   0  0  1  0  0  3  0  0  0  0  0  0
  185.1390  174.0250  136.8170 C   0  0  0  0  0  2  0  0  0  0  0  0
  189.5210  178.1940  142.2770 C   0  0  0  0  0  2  0  0  0  0  0  0
  186.5100  177.1460  138.1020 C   0  0  2  0  0  3  0  0  0  0  0  0
  183.3250  178.1080  138.9330 O   0  0  0  0  0  1  0  0  0  0  0  0
  188.8020  173.6240  135.8430 C   0  0  0  0  0  2  0  0  0  0  0  0
  186.2930  173.5400  135.9070 C   0  0  0  0  0  2  0  0  0  0  0  0
  185.4900  178.2580  137.9210 C   0  0  0  0  0  2  0  0  0  0  0  0
  190.9700  177.8780  140.1150 C   0  0  1  0  0  3  0  0  0  0  0  0
  191.2030  176.4890  139.5220 C   0  0  0  0  0  2  0  0  0  0  0  0
  187.5360  174.4610  135.9510 C   0  0  1  0  0  3  0  0  0  0  0  0
  187.9860  177.4830  138.0480 C   0  0  1  0  0  3  0  0  0  0  0  0
  183.9990  176.1230  137.7770 C   0  0  0  0  0  2  0  0  0  0  0  0
  190.3230  174.2510  137.4230 C   0  0  1  0  0  3  0  0  0  0  0  0
  183.4590  178.1730  136.6840 F   0  0  0  0  0  0  0  0  0  0  0  0
  189.7970  178.6190  139.4430 C   0  0  0  0  0  2  0  0  0  0  0  0
  191.7300  177.3820  142.2970 O   0  0  0  0  0  0  0  0  0  0  0  0
  188.4510  177.8730  139.4630 C   0  0  2  0  0  3  0  0  0  0  0  0
  189.3200  173.3070  137.1090 O   0  0  0  0  0  0  0  0  0  0  0  0
  191.4730  175.4050  135.5100 C   0  0  0  0  0  3  0  0  0  0  0  0
  191.4610  174.3530  136.4310 C   0  0  0  0  0  0  0  0  0  0  0  0
  192.5130  173.4250  136.4380 C   0  0  0  0  0  3  0  0  0  0  0  0
  194.8680  172.3820  135.5320 Cl  0  0  0  0  0  0  0  0  0  0  0  0
  193.5660  174.5950  134.5990 C   0  0  0  0  0  3  0  0  0  0  0  0
  193.5620  173.5450  135.5210 C   0  0  0  0  0  0  0  0  0  0  0  0
  192.5220  175.5250  134.5940 C   0  0  0  0  0  3  0  0  0  0  0  0
  188.2690  176.7170  144.1010 C   0  0  0  0  0  1  0  0  0  0  0  0
  188.3680  176.1630  142.8240 O   0  0  0  0  0  0  0  0  0  0  0  0
  1  4  1  0  0  0  0
  2 24  1  6  0  0  0
  2 17  1  0  0  0  0
  2 14  1  0  0  0  0
  3  7  1  0  0  0  0
  4 12  1  0  0  0  0
  4 37  1  0  0  0  0
  5 19  1  0  0  0  0
  6 11  1  0  0  0  0
  6  9  1  0  0  0  0
  6 22  1  0  0  0  0
  7 21  1  0  0  0  0
  7 10  1  0  0  0  0
  8 12  1  0  0  0  0
  8 26  2  0  0  0  0
  9  3  1  0  0  0  0
  9 13  1  0  0  0  0
 10  5  1  0  0  0  0
 15 20  1  0  0  0  0
 15 28  1  0  0  0  0
 16 20  1  0  0  0  0
 16 11  1  0  0  0  0
 17 13  1  0  0  0  0
 18  8  1  0  0  0  0
 19 18  1  0  0  0  0
 20  3  1  0  0  0  0
 21 13  1  0  0  0  0
 21 27  1  0  0  0  0
 22  2  1  0  0  0  0
 23 10  1  0  0  0  0
 25 27  1  0  0  0  0
 25 18  1  0  0  0  0
 27  1  1  0  0  0  0
 28 23  1  0  0  0  0
 29 30  1  0  0  0  0
 30 31  2  0  0  0  0
 30 23  1  0  0  0  0
 33 34  2  0  0  0  0
 34 32  1  0  0  0  0
 34 31  1  0  0  0  0
 35 33  1  0  0  0  0
 35 29  2  0  0  0  0
 37 36  1  0  0  0  0
M  END
>  <MODEL>
7

>  <REMARK>
 VINA RESULT:      -5.2      4.651      9.299
  Name = 
  2 active torsions:
  status: ('A' for Active; 'I' for Inactive)
    1  A    between atoms: C_4  and  O_37
    2  A    between atoms: C_23  and  C_30
                            x       y       z     vdW  Elec       q    Type
                         _______ _______ _______ _____ _____    ______ ____

>  <TORSDO>
F 2

$$$$
=
 OpenBabel11122411263D

 37 43  0  0  1  0  0  0  0  0999 V2000
  182.5860  179.9830  138.9410 C   0  0  0  0  0  2  0  0  0  0  0  0
  183.6180  179.0520  143.8560 C   0  0  1  0  0  0  0  0  0  0  0  0
  185.7360  178.4270  140.2300 N   0  0  1  0  0  0  0  0  0  0  0  0
  181.3530  180.8420  138.6290 C   0  0  2  0  0  3  0  0  0  0  0  0
  183.9680  177.3240  137.1460 O   0  0  0  0  0  0  0  0  0  0  0  0
  185.8880  178.9400  142.6870 C   0  0  1  0  0  3  0  0  0  0  0  0
  184.7890  177.6650  139.4000 C   0  0  2  0  0  3  0  0  0  0  0  0
  180.9490  179.3740  136.5970 C   0  0  0  0  0  0  0  0  0  0  0  0
  185.1600  178.2270  141.5410 C   0  0  1  0  0  3  0  0  0  0  0  0
  184.8440  178.1020  137.9170 C   0  0  1  0  0  3  0  0  0  0  0  0
  187.1220  179.6820  142.1690 C   0  0  0  0  0  2  0  0  0  0  0  0
  180.3230  180.1750  137.7050 C   0  0  0  0  0  2  0  0  0  0  0  0
  183.7370  178.5970  141.3730 C   0  0  2  0  0  3  0  0  0  0  0  0
  182.6870  179.9720  144.3340 O   0  0  0  0  0  1  0  0  0  0  0  0
  187.7580  177.7340  138.9560 C   0  0  0  0  0  2  0  0  0  0  0  0
  187.9570  178.7790  141.2300 C   0  0  0  0  0  2  0  0  0  0  0  0
  182.9890  178.2870  142.6590 C   0  0  0  0  0  2  0  0  0  0  0  0
  181.7050  178.1010  136.8890 C   0  0  1  0  0  3  0  0  0  0  0  0
  183.1670  178.2480  136.4710 C   0  0  0  0  0  2  0  0  0  0  0  0
  187.0920  177.8790  140.3160 C   0  0  1  0  0  3  0  0  0  0  0  0
  183.3910  177.8260  140.1160 C   0  0  1  0  0  3  0  0  0  0  0  0
  184.9280  179.8120  143.5090 C   0  0  0  0  0  2  0  0  0  0  0  0
  186.2510  178.0700  137.2770 C   0  0  1  0  0  3  0  0  0  0  0  0
  183.8900  178.1400  144.8580 F   0  0  0  0  0  0  0  0  0  0  0  0
  181.5500  177.6540  138.3560 C   0  0  0  0  0  2  0  0  0  0  0  0
  180.8350  179.7590  135.4450 O   0  0  0  0  0  0  0  0  0  0  0  0
  182.2430  178.5540  139.3940 C   0  0  2  0  0  3  0  0  0  0  0  0
  187.2720  178.6800  138.0390 O   0  0  0  0  0  0  0  0  0  0  0  0
  187.2910  176.9310  135.2940 C   0  0  0  0  0  3  0  0  0  0  0  0
  186.6500  176.8160  136.5320 C   0  0  0  0  0  0  0  0  0  0  0  0
  186.4100  175.5440  137.0730 C   0  0  0  0  0  3  0  0  0  0  0  0
  186.4930  172.8150  137.0510 Cl  0  0  0  0  0  0  0  0  0  0  0  0
  187.4350  174.5180  135.1340 C   0  0  0  0  0  3  0  0  0  0  0  0
  186.8000  174.3980  136.3730 C   0  0  0  0  0  0  0  0  0  0  0  0
  187.6810  175.7840  134.5940 C   0  0  0  0  0  3  0  0  0  0  0  0
  180.5910  182.7960  137.9220 C   0  0  0  0  0  1  0  0  0  0  0  0
  181.7650  182.0560  138.0760 O   0  0  0  0  0  0  0  0  0  0  0  0
  1 27  1  0  0  0  0
  2 14  1  1  0  0  0
  2 24  1  0  0  0  0
  3 20  1  0  0  0  0
  3  9  1  0  0  0  0
  4  1  1  0  0  0  0
  5 10  1  0  0  0  0
  6 22  1  0  0  0  0
  7 21  1  0  0  0  0
  7  3  1  0  0  0  0
  8 18  1  0  0  0  0
  8 12  1  0  0  0  0
  9  6  1  0  0  0  0
 10  7  1  0  0  0  0
 11  6  1  0  0  0  0
 12  4  1  0  0  0  0
 13  9  1  0  0  0  0
 13 17  1  0  0  0  0
 15 20  1  0  0  0  0
 16 11  1  0  0  0  0
 17  2  1  0  0  0  0
 18 25  1  0  0  0  0
 19 18  1  0  0  0  0
 19  5  1  0  0  0  0
 20 16  1  0  0  0  0
 21 13  1  0  0  0  0
 22  2  1  0  0  0  0
 23 10  1  0  0  0  0
 23 28  1  0  0  0  0
 25 27  1  0  0  0  0
 26  8  2  0  0  0  0
 27 21  1  0  0  0  0
 28 15  1  0  0  0  0
 29 30  1  0  0  0  0
 30 31  2  0  0  0  0
 30 23  1  0  0  0  0
 33 34  2  0  0  0  0
 34 32  1  0  0  0  0
 34 31  1  0  0  0  0
 35 33  1  0  0  0  0
 35 29  2  0  0  0  0
 36 37  1  0  0  0  0
 37  4  1  0  0  0  0
M  END
>  <MODEL>
8

>  <REMARK>
 VINA RESULT:      -5.0      3.392      6.723
  Name = 
  2 active torsions:
  status: ('A' for Active; 'I' for Inactive)
    1  A    between atoms: C_4  and  O_37
    2  A    between atoms: C_23  and  C_30
                            x       y       z     vdW  Elec       q    Type
                         _______ _______ _______ _____ _____    ______ ____

>  <TORSDO>
F 2

$$$$
=
 OpenBabel11122411263D

 37 43  0  0  1  0  0  0  0  0999 V2000
  187.8290  177.1170  140.9940 C   0  0  0  0  0  2  0  0  0  0  0  0
  183.5530  178.6740  138.6740 C   0  0  1  0  0  0  0  0  0  0  0  0
  186.7170  176.0640  137.5800 N   0  0  1  0  0  0  0  0  0  0  0  0
  187.9930  177.4660  142.4790 C   0  0  2  0  0  3  0  0  0  0  0  0
  190.2420  176.8440  138.4840 O   0  0  0  0  0  0  0  0  0  0  0  0
  184.2660  176.5880  137.3820 C   0  0  1  0  0  3  0  0  0  0  0  0
  187.9260  176.8810  137.7740 C   0  0  2  0  0  3  0  0  0  0  0  0
  190.4690  177.8070  142.0390 C   0  0  0  0  0  0  0  0  0  0  0  0
  185.7040  177.0950  137.5370 C   0  0  1  0  0  3  0  0  0  0  0  0
  189.0930  176.0510  138.3580 C   0  0  1  0  0  3  0  0  0  0  0  0
  184.2370  175.0630  137.2560 C   0  0  0  0  0  2  0  0  0  0  0  0
  189.2640  178.2590  142.8170 C   0  0  0  0  0  2  0  0  0  0  0  0
  185.9590  177.9060  138.7490 C   0  0  2  0  0  3  0  0  0  0  0  0
  182.9250  179.0570  139.8580 O   0  0  0  0  0  1  0  0  0  0  0  0
  187.7910  174.4400  136.0310 C   0  0  0  0  0  2  0  0  0  0  0  0
  185.2930  174.5720  136.2370 C   0  0  0  0  0  2  0  0  0  0  0  0
  185.0400  179.1160  138.7370 C   0  0  0  0  0  2  0  0  0  0  0  0
  190.5650  178.0350  140.5510 C   0  0  1  0  0  3  0  0  0  0  0  0
  190.6350  176.6970  139.8160 C   0  0  0  0  0  2  0  0  0  0  0  0
  186.6170  175.3700  136.2930 C   0  0  1  0  0  3  0  0  0  0  0  0
  187.4550  178.1140  138.6390 C   0  0  1  0  0  3  0  0  0  0  0  0
  183.3490  177.1460  138.4800 C   0  0  0  0  0  2  0  0  0  0  0  0
  189.4440  174.7680  137.5690 C   0  0  1  0  0  3  0  0  0  0  0  0
  182.9490  179.3360  137.6220 F   0  0  0  0  0  0  0  0  0  0  0  0
  189.4340  178.9400  140.0250 C   0  0  0  0  0  2  0  0  0  0  0  0
  191.3850  177.2560  142.6260 O   0  0  0  0  0  0  0  0  0  0  0  0
  188.0270  178.3170  140.0540 C   0  0  2  0  0  3  0  0  0  0  0  0
  188.3420  173.9520  137.2270 O   0  0  0  0  0  0  0  0  0  0  0  0
  190.4670  175.8790  135.5610 C   0  0  0  0  0  3  0  0  0  0  0  0
  190.5330  174.8680  136.5250 C   0  0  0  0  0  0  0  0  0  0  0  0
  191.6200  173.9800  136.5240 C   0  0  0  0  0  3  0  0  0  0  0  0
  193.9720  172.9850  135.5600 Cl  0  0  0  0  0  0  0  0  0  0  0  0
  192.5490  175.1070  134.5940 C   0  0  0  0  0  3  0  0  0  0  0  0
  192.6230  174.0980  135.5580 C   0  0  0  0  0  0  0  0  0  0  0  0
  191.4710  175.9970  134.5950 C   0  0  0  0  0  3  0  0  0  0  0  0
  187.9270  176.7230  144.5630 C   0  0  0  0  0  1  0  0  0  0  0  0
  187.9560  176.2920  143.2360 O   0  0  0  0  0  0  0  0  0  0  0  0
  1  4  1  0  0  0  0
  2 24  1  6  0  0  0
  2 17  1  0  0  0  0
  2 14  1  0  0  0  0
  3  7  1  0  0  0  0
  4 12  1  0  0  0  0
  4 37  1  0  0  0  0
  5 19  1  0  0  0  0
  6  9  1  0  0  0  0
  6 22  1  0  0  0  0
  7 10  1  0  0  0  0
  7 21  1  0  0  0  0
  8 26  2  0  0  0  0
  8 12  1  0  0  0  0
  9  3  1  0  0  0  0
  9 13  1  0  0  0  0
 10  5  1  0  0  0  0
 11  6  1  0  0  0  0
 15 20  1  0  0  0  0
 15 28  1  0  0  0  0
 16 20  1  0  0  0  0
 16 11  1  0  0  0  0
 17 13  1  0  0  0  0
 18  8  1  0  0  0  0
 19 18  1  0  0  0  0
 20  3  1  0  0  0  0
 21 13  1  0  0  0  0
 21 27  1  0  0  0  0
 22  2  1  0  0  0  0
 23 10  1  0  0  0  0
 25 27  1  0  0  0  0
 25 18  1  0  0  0  0
 27  1  1  0  0  0  0
 28 23  1  0  0  0  0
 29 30  1  0  0  0  0
 30 23  1  0  0  0  0
 31 30  2  0  0  0  0
 33 35  1  0  0  0  0
 33 34  2  0  0  0  0
 34 32  1  0  0  0  0
 34 31  1  0  0  0  0
 35 29  2  0  0  0  0
 37 36  1  0  0  0  0
M  END
>  <MODEL>
9

>  <REMARK>
 VINA RESULT:      -4.8      4.293      8.871
  Name = 
  2 active torsions:
  status: ('A' for Active; 'I' for Inactive)
    1  A    between atoms: C_4  and  O_37
    2  A    between atoms: C_23  and  C_30
                            x       y       z     vdW  Elec       q    Type
                         _______ _______ _______ _____ _____    ______ ____

>  <TORSDO>
F 2

$$$$
