=
 OpenBabel11122411273D

 37 44  0  0  1  0  0  0  0  0999 V2000
  184.4860  174.8960  137.5300 C   0  0  0  0  0  2  0  0  0  0  0  0
  188.7990  177.5160  137.1230 C   0  0  0  0  0  0  0  0  0  0  0  0
  185.1990  177.9660  139.3380 C   0  0  1  0  0  3  0  0  0  0  0  0
  184.0340  173.5690  136.9440 C   0  0  1  0  0  0  0  0  0  0  0  0
  182.0870  177.4090  137.4770 O   0  0  0  0  0  0  0  0  0  0  0  0
  187.7420  178.3280  139.2920 C   0  0  1  0  0  3  0  0  0  0  0  0
  184.1790  177.9970  138.2060 C   0  0  2  0  0  3  0  0  0  0  0  0
  181.9050  174.1050  135.6920 C   0  0  2  0  0  3  0  0  0  0  0  0
  186.4160  178.2550  138.5330 C   0  0  1  0  0  3  0  0  0  0  0  0
  182.9260  177.2950  138.5410 N   0  0  1  0  0  0  0  0  0  0  0  0
  187.5320  178.1370  140.7950 C   0  0  0  0  0  2  0  0  0  0  0  0
  182.5480  173.2790  136.8060 C   0  0  0  0  0  2  0  0  0  0  0  0
  186.3850  177.2580  137.4950 N   0  0  2  0  0  0  0  0  0  0  0  0
  189.4210  176.4000  136.5990 F   0  0  0  0  0  0  0  0  0  0  0  0
  183.9090  178.7920  141.4150 C   0  0  0  0  0  2  0  0  0  0  0  0
  186.3960  179.0590  141.3000 C   0  0  0  0  0  2  0  0  0  0  0  0
  187.3830  177.6350  136.5050 C   0  0  0  0  0  2  0  0  0  0  0  0
  182.0530  175.6200  135.8720 C   0  0  1  0  0  3  0  0  0  0  0  0
  181.6180  176.1120  137.2520 C   0  0  0  0  0  2  0  0  0  0  0  0
  185.0910  178.9980  140.4620 C   0  0  1  0  0  3  0  0  0  0  0  0
  185.0050  177.3710  137.0160 C   0  0  1  0  0  3  0  0  0  0  0  0
  188.7810  177.3900  138.6690 C   0  0  0  0  0  2  0  0  0  0  0  0
  182.2310  177.9030  139.6950 C   0  0  1  0  0  3  0  0  0  0  0  0
  189.5310  178.6360  136.7720 F   0  0  0  0  0  0  0  0  0  0  0  0
  183.4390  176.1070  135.4320 C   0  0  0  0  0  2  0  0  0  0  0  0
  180.5550  173.7730  135.5900 O   0  0  0  0  0  1  0  0  0  0  0  0
  184.5650  176.0040  136.4720 C   0  0  2  0  0  3  0  0  0  0  0  0
  182.9310  177.6780  141.0370 C   0  0  0  0  0  2  0  0  0  0  0  0
  184.9990  172.7500  136.1880 C   0  0  0  0  0  2  0  0  0  0  0  0
  184.7060  172.4940  137.5450 O   0  0  0  0  0  0  0  0  0  0  0  0
  182.1740  180.0910  138.4760 C   0  0  0  0  0  3  0  0  0  0  0  0
  181.6320  179.2720  139.4730 C   0  0  0  0  0  0  0  0  0  0  0  0
  180.5430  179.7350  140.2270 C   0  0  0  0  0  3  0  0  0  0  0  0
  178.9310  181.4540  140.7380 O   0  0  0  0  0  1  0  0  0  0  0  0
  180.5560  181.8160  138.9930 C   0  0  0  0  0  3  0  0  0  0  0  0
  180.0070  181.0020  139.9880 C   0  0  0  0  0  0  0  0  0  0  0  0
  181.6390  181.3600  138.2360 C   0  0  0  0  0  3  0  0  0  0  0  0
  2 22  1  0  0  0  0
  3 20  1  0  0  0  0
  4  1  1  0  0  0  0
  4 30  1  0  0  0  0
  5 10  1  0  0  0  0
  6 11  1  0  0  0  0
  7 10  1  0  0  0  0
  7  3  1  0  0  0  0
  8 18  1  0  0  0  0
  8 12  1  0  0  0  0
  9  6  1  0  0  0  0
  9  3  1  0  0  0  0
 10 23  1  0  0  0  0
 11 16  1  0  0  0  0
 12  4  1  0  0  0  0
 13  9  1  0  0  0  0
 14  2  1  0  0  0  0
 17  2  1  0  0  0  0
 17 13  1  0  0  0  0
 18 19  1  0  0  0  0
 19  5  1  0  0  0  0
 20 16  1  0  0  0  0
 20 15  1  0  0  0  0
 21 13  1  0  0  0  0
 21  7  1  0  0  0  0
 22  6  1  0  0  0  0
 23 28  1  0  0  0  0
 24  2  1  0  0  0  0
 25 18  1  0  0  0  0
 25 27  1  0  0  0  0
 26  8  1  0  0  0  0
 27 21  1  0  0  0  0
 27  1  1  0  0  0  0
 28 15  1  0  0  0  0
 29  4  1  0  0  0  0
 29 30  1  0  0  0  0
 31 32  1  0  0  0  0
 32 23  1  0  0  0  0
 32 33  2  0  0  0  0
 35 36  2  0  0  0  0
 36 33  1  0  0  0  0
 36 34  1  0  0  0  0
 37 31  2  0  0  0  0
 37 35  1  0  0  0  0
M  END
>  <MODEL>
1

>  <REMARK>
 VINA RESULT:      -7.2      0.000      0.000
  Name = 
  1 active torsions:
  status: ('A' for Active; 'I' for Inactive)
    1  A    between atoms: C_23  and  C_30
                            x       y       z     vdW  Elec       q    Type
                         _______ _______ _______ _____ _____    ______ ____

>  <TORSDO>
F 1

$$$$
=
 OpenBabel11122411273D

 37 44  0  0  1  0  0  0  0  0999 V2000
  180.8340  180.8560  139.0170 C   0  0  0  0  0  2  0  0  0  0  0  0
  179.9140  179.0170  143.6450 C   0  0  0  0  0  0  0  0  0  0  0  0
  183.0570  178.6110  140.8120 C   0  0  1  0  0  3  0  0  0  0  0  0
  180.0940  181.8570  138.1470 C   0  0  1  0  0  0  0  0  0  0  0  0
  182.0250  178.0600  137.3350 O   0  0  0  0  0  0  0  0  0  0  0  0
  182.4160  178.6970  143.2980 C   0  0  1  0  0  3  0  0  0  0  0  0
  182.2820  178.0780  139.6120 C   0  0  2  0  0  3  0  0  0  0  0  0
  179.6240  180.6220  135.9920 C   0  0  2  0  0  3  0  0  0  0  0  0
  182.0460  178.3160  141.8630 C   0  0  1  0  0  3  0  0  0  0  0  0
  182.7650  178.6190  138.3280 N   0  0  1  0  0  0  0  0  0  0  0  0
  183.8300  179.2740  143.3720 C   0  0  0  0  0  2  0  0  0  0  0  0
  180.2960  181.8340  136.6410 C   0  0  0  0  0  2  0  0  0  0  0  0
  180.8500  178.9500  141.3740 N   0  0  2  0  0  0  0  0  0  0  0  0
  178.9930  180.0250  143.8550 F   0  0  0  0  0  0  0  0  0  0  0  0
  185.5390  178.2110  140.2280 C   0  0  0  0  0  2  0  0  0  0  0  0
  184.8250  178.3560  142.6240 C   0  0  0  0  0  2  0  0  0  0  0  0
  179.7460  178.4810  142.2000 C   0  0  0  0  0  2  0  0  0  0  0  0
  180.1120  179.2740  136.5340 C   0  0  1  0  0  3  0  0  0  0  0  0
  181.6340  179.1340  136.5320 C   0  0  0  0  0  2  0  0  0  0  0  0
  184.3800  177.9450  141.1950 C   0  0  1  0  0  3  0  0  0  0  0  0
  180.8010  178.4670  139.9920 C   0  0  1  0  0  3  0  0  0  0  0  0
  181.3320  179.5790  143.9250 C   0  0  0  0  0  2  0  0  0  0  0  0
  184.1740  178.2600  138.0600 C   0  0  1  0  0  3  0  0  0  0  0  0
  179.6550  177.9880  144.5310 F   0  0  0  0  0  0  0  0  0  0  0  0
  179.4440  178.9280  137.8700 C   0  0  0  0  0  2  0  0  0  0  0  0
  179.8140  180.6720  134.6120 O   0  0  0  0  0  1  0  0  0  0  0  0
  180.0870  179.5210  139.1330 C   0  0  2  0  0  3  0  0  0  0  0  0
  185.1850  178.9810  138.9550 C   0  0  0  0  0  2  0  0  0  0  0  0
  178.9340  182.5770  138.7050 C   0  0  0  0  0  2  0  0  0  0  0  0
  180.2190  183.1600  138.6550 O   0  0  0  0  0  0  0  0  0  0  0  0
  183.5400  175.8410  138.2220 C   0  0  0  0  0  3  0  0  0  0  0  0
  184.4520  176.8030  137.7730 C   0  0  0  0  0  0  0  0  0  0  0  0
  185.5890  176.3940  137.0600 C   0  0  0  0  0  3  0  0  0  0  0  0
  186.9370  174.6410  136.0970 O   0  0  0  0  0  1  0  0  0  0  0  0
  184.8960  174.0840  137.2570 C   0  0  0  0  0  3  0  0  0  0  0  0
  185.8100  175.0390  136.8030 C   0  0  0  0  0  0  0  0  0  0  0  0
  183.7610  174.4860  137.9650 C   0  0  0  0  0  3  0  0  0  0  0  0
  1 27  1  0  0  0  0
  2 14  1  0  0  0  0
  2 22  1  0  0  0  0
  2 24  1  0  0  0  0
  3 20  1  0  0  0  0
  3  9  1  0  0  0  0
  4 30  1  0  0  0  0
  4 29  1  0  0  0  0
  4  1  1  0  0  0  0
  5 10  1  0  0  0  0
  6 11  1  0  0  0  0
  6 22  1  0  0  0  0
  7 21  1  0  0  0  0
  7  3  1  0  0  0  0
  8 18  1  0  0  0  0
  8 12  1  0  0  0  0
  9  6  1  0  0  0  0
 10  7  1  0  0  0  0
 12  4  1  0  0  0  0
 13  9  1  0  0  0  0
 13 17  1  0  0  0  0
 15 20  1  0  0  0  0
 16 11  1  0  0  0  0
 17  2  1  0  0  0  0
 18 25  1  0  0  0  0
 19 18  1  0  0  0  0
 19  5  1  0  0  0  0
 20 16  1  0  0  0  0
 21 13  1  0  0  0  0
 23 10  1  0  0  0  0
 23 28  1  0  0  0  0
 25 27  1  0  0  0  0
 26  8  1  0  0  0  0
 27 21  1  0  0  0  0
 28 15  1  0  0  0  0
 30 29  1  0  0  0  0
 32 23  1  0  0  0  0
 32 31  2  0  0  0  0
 33 32  1  0  0  0  0
 34 36  1  0  0  0  0
 35 37  2  0  0  0  0
 36 33  2  0  0  0  0
 36 35  1  0  0  0  0
 37 31  1  0  0  0  0
M  END
>  <MODEL>
2

>  <REMARK>
 VINA RESULT:      -6.4      3.625      7.286
  Name = 
  1 active torsions:
  status: ('A' for Active; 'I' for Inactive)
    1  A    between atoms: C_23  and  C_30
                            x       y       z     vdW  Elec       q    Type
                         _______ _______ _______ _____ _____    ______ ____

>  <TORSDO>
F 1

$$$$
=
 OpenBabel11122411273D

 37 44  0  0  1  0  0  0  0  0999 V2000
  184.0120  175.7850  138.2840 C   0  0  0  0  0  2  0  0  0  0  0  0
  187.9670  178.1640  140.3670 C   0  0  0  0  0  0  0  0  0  0  0  0
  183.7420  178.4380  140.7520 C   0  0  1  0  0  3  0  0  0  0  0  0
  183.9120  174.6140  137.3220 C   0  0  1  0  0  0  0  0  0  0  0  0
  181.8380  178.4120  137.6170 O   0  0  0  0  0  0  0  0  0  0  0  0
  186.0160  178.6440  141.9310 C   0  0  1  0  0  3  0  0  0  0  0  0
  183.3510  178.7310  139.3090 C   0  0  2  0  0  3  0  0  0  0  0  0
  182.5760  175.4930  135.3650 C   0  0  2  0  0  3  0  0  0  0  0  0
  185.1850  178.7890  140.6540 C   0  0  1  0  0  3  0  0  0  0  0  0
  182.1020  178.0600  138.9030 N   0  0  1  0  0  0  0  0  0  0  0  0
  185.1480  178.2040  143.1100 C   0  0  0  0  0  2  0  0  0  0  0  0
  182.6610  174.4450  136.4760 C   0  0  0  0  0  2  0  0  0  0  0  0
  185.6560  177.9940  139.5500 N   0  0  2  0  0  0  0  0  0  0  0  0
  188.7880  177.1210  139.9850 F   0  0  0  0  0  0  0  0  0  0  0  0
  181.6260  178.9630  142.1320 C   0  0  0  0  0  2  0  0  0  0  0  0
  183.8840  179.0910  143.2070 C   0  0  0  0  0  2  0  0  0  0  0  0
  186.9870  178.4780  139.2090 C   0  0  0  0  0  2  0  0  0  0  0  0
  182.5860  176.9400  135.8700 C   0  0  1  0  0  3  0  0  0  0  0  0
  181.5570  177.2070  136.9680 C   0  0  0  0  0  2  0  0  0  0  0  0
  183.1060  179.2600  141.8750 C   0  0  1  0  0  3  0  0  0  0  0  0
  184.6450  178.2750  138.5290 C   0  0  1  0  0  3  0  0  0  0  0  0
  187.2480  177.7680  141.6840 C   0  0  0  0  0  2  0  0  0  0  0  0
  180.9410  178.4970  139.7070 C   0  0  1  0  0  3  0  0  0  0  0  0
  188.7490  179.2800  140.6000 F   0  0  0  0  0  0  0  0  0  0  0  0
  184.0070  177.4100  136.2050 C   0  0  0  0  0  2  0  0  0  0  0  0
  181.4300  175.2680  134.6040 O   0  0  0  0  0  1  0  0  0  0  0  0
  184.5370  177.0550  137.6020 C   0  0  2  0  0  3  0  0  0  0  0  0
  180.9580  177.9960  141.1540 C   0  0  0  0  0  2  0  0  0  0  0  0
  185.1370  173.8820  136.9480 C   0  0  0  0  0  2  0  0  0  0  0  0
  184.2640  173.4090  137.9520 O   0  0  0  0  0  0  0  0  0  0  0  0
  179.3830  180.3860  140.2370 C   0  0  0  0  0  3  0  0  0  0  0  0
  180.4740  179.9180  139.4960 C   0  0  0  0  0  0  0  0  0  0  0  0
  181.1120  180.7800  138.5920 C   0  0  0  0  0  3  0  0  0  0  0  0
  181.2960  182.9390  137.5320 O   0  0  0  0  0  1  0  0  0  0  0  0
  179.5690  182.5510  139.1710 C   0  0  0  0  0  3  0  0  0  0  0  0
  180.6610  182.0920  138.4290 C   0  0  0  0  0  0  0  0  0  0  0  0
  178.9310  181.6980  140.0750 C   0  0  0  0  0  3  0  0  0  0  0  0
  2 24  1  0  0  0  0
  2 22  1  0  0  0  0
  3 20  1  0  0  0  0
  4 30  1  0  0  0  0
  4  1  1  0  0  0  0
  5 10  1  0  0  0  0
  6 11  1  0  0  0  0
  7  3  1  0  0  0  0
  8 18  1  0  0  0  0
  8 12  1  0  0  0  0
  9  3  1  0  0  0  0
  9  6  1  0  0  0  0
 10  7  1  0  0  0  0
 10 23  1  0  0  0  0
 11 16  1  0  0  0  0
 12  4  1  0  0  0  0
 13  9  1  0  0  0  0
 14  2  1  0  0  0  0
 17 13  1  0  0  0  0
 17  2  1  0  0  0  0
 18 25  1  0  0  0  0
 18 19  1  0  0  0  0
 19  5  1  0  0  0  0
 20 15  1  0  0  0  0
 20 16  1  0  0  0  0
 21  7  1  0  0  0  0
 21 13  1  0  0  0  0
 22  6  1  0  0  0  0
 23 28  1  0  0  0  0
 25 27  1  0  0  0  0
 26  8  1  0  0  0  0
 27  1  1  0  0  0  0
 27 21  1  0  0  0  0
 28 15  1  0  0  0  0
 29  4  1  0  0  0  0
 29 30  1  0  0  0  0
 32 23  1  0  0  0  0
 32 31  2  0  0  0  0
 33 32  1  0  0  0  0
 34 36  1  0  0  0  0
 35 37  2  0  0  0  0
 36 33  2  0  0  0  0
 36 35  1  0  0  0  0
 37 31  1  0  0  0  0
M  END
>  <MODEL>
3

>  <REMARK>
 VINA RESULT:      -6.2      1.669      2.359
  Name = 
  1 active torsions:
  status: ('A' for Active; 'I' for Inactive)
    1  A    between atoms: C_23  and  C_30
                            x       y       z     vdW  Elec       q    Type
                         _______ _______ _______ _____ _____    ______ ____

>  <TORSDO>
F 1

$$$$
=
 OpenBabel11122411273D

 37 44  0  0  1  0  0  0  0  0999 V2000
  182.5150  180.1140  138.6730 C   0  0  0  0  0  2  0  0  0  0  0  0
  183.9440  178.9750  143.3950 C   0  0  0  0  0  0  0  0  0  0  0  0
  185.5260  178.2640  139.5140 C   0  0  1  0  0  3  0  0  0  0  0  0
  181.3640  180.9390  138.1210 C   0  0  1  0  0  0  0  0  0  0  0  0
  183.1230  177.1420  136.9800 O   0  0  0  0  0  0  0  0  0  0  0  0
  186.0500  178.7060  141.9900 C   0  0  1  0  0  3  0  0  0  0  0  0
  184.3600  177.5220  138.8710 C   0  0  2  0  0  3  0  0  0  0  0  0
  180.1200  179.3690  136.5800 C   0  0  2  0  0  3  0  0  0  0  0  0
  185.1240  178.0950  140.9360 C   0  0  1  0  0  3  0  0  0  0  0  0
  184.1630  177.8770  137.4540 N   0  0  1  0  0  0  0  0  0  0  0  0
  187.2800  179.3440  141.3440 C   0  0  0  0  0  2  0  0  0  0  0  0
  180.8780  180.6920  136.7030 C   0  0  0  0  0  2  0  0  0  0  0  0
  183.7760  178.5970  140.9730 N   0  0  2  0  0  0  0  0  0  0  0  0
  183.1120  179.9660  143.8790 F   0  0  0  0  0  0  0  0  0  0  0  0
  187.5180  177.8780  137.9180 C   0  0  0  0  0  2  0  0  0  0  0  0
  187.9310  178.3630  140.3400 C   0  0  0  0  0  2  0  0  0  0  0  0
  183.2100  178.2170  142.2600 C   0  0  0  0  0  2  0  0  0  0  0  0
  180.9370  178.1400  136.9970 C   0  0  1  0  0  3  0  0  0  0  0  0
  182.3050  178.0630  136.3210 C   0  0  0  0  0  2  0  0  0  0  0  0
  186.9440  177.7190  139.3300 C   0  0  1  0  0  3  0  0  0  0  0  0
  183.1700  177.9050  139.8340 C   0  0  1  0  0  3  0  0  0  0  0  0
  185.2720  179.6310  142.9310 C   0  0  0  0  0  2  0  0  0  0  0  0
  185.3350  177.5380  136.6200 C   0  0  1  0  0  3  0  0  0  0  0  0
  184.2150  178.0860  144.4180 F   0  0  0  0  0  0  0  0  0  0  0  0
  180.9720  177.9780  138.5220 C   0  0  0  0  0  2  0  0  0  0  0  0
  179.6710  179.2130  135.2690 O   0  0  0  0  0  1  0  0  0  0  0  0
  182.0420  178.7840  139.2730 C   0  0  2  0  0  3  0  0  0  0  0  0
  186.5570  178.4280  136.8640 C   0  0  0  0  0  2  0  0  0  0  0  0
  180.5030  181.6900  139.0550 C   0  0  0  0  0  2  0  0  0  0  0  0
  181.5630  182.3080  138.3570 O   0  0  0  0  0  0  0  0  0  0  0  0
  186.3780  175.6720  135.3120 C   0  0  0  0  0  3  0  0  0  0  0  0
  185.6100  176.0670  136.4140 C   0  0  0  0  0  0  0  0  0  0  0  0
  185.1290  175.0930  137.3010 C   0  0  0  0  0  3  0  0  0  0  0  0
  184.9300  172.7830  137.9680 O   0  0  0  0  0  1  0  0  0  0  0  0
  186.1750  173.3550  135.9820 C   0  0  0  0  0  3  0  0  0  0  0  0
  185.4100  173.7420  137.0860 C   0  0  0  0  0  0  0  0  0  0  0  0
  186.6590  174.3200  135.0960 C   0  0  0  0  0  3  0  0  0  0  0  0
  1 27  1  0  0  0  0
  2 14  1  0  0  0  0
  2 24  1  0  0  0  0
  3  9  1  0  0  0  0
  4 30  1  0  0  0  0
  4  1  1  0  0  0  0
  4 29  1  0  0  0  0
  5 10  1  0  0  0  0
  6 22  1  0  0  0  0
  7  3  1  0  0  0  0
  7 21  1  0  0  0  0
  8 12  1  0  0  0  0
  8 18  1  0  0  0  0
  9 13  1  0  0  0  0
  9  6  1  0  0  0  0
 10  7  1  0  0  0  0
 11  6  1  0  0  0  0
 12  4  1  0  0  0  0
 13 17  1  0  0  0  0
 15 20  1  0  0  0  0
 16 11  1  0  0  0  0
 17  2  1  0  0  0  0
 18 25  1  0  0  0  0
 19  5  1  0  0  0  0
 19 18  1  0  0  0  0
 20  3  1  0  0  0  0
 20 16  1  0  0  0  0
 21 13  1  0  0  0  0
 22  2  1  0  0  0  0
 23 28  1  0  0  0  0
 23 10  1  0  0  0  0
 25 27  1  0  0  0  0
 26  8  1  0  0  0  0
 27 21  1  0  0  0  0
 28 15  1  0  0  0  0
 30 29  1  0  0  0  0
 31 32  1  0  0  0  0
 32 23  1  0  0  0  0
 32 33  2  0  0  0  0
 35 36  2  0  0  0  0
 36 33  1  0  0  0  0
 36 34  1  0  0  0  0
 37 31  2  0  0  0  0
 37 35  1  0  0  0  0
M  END
>  <MODEL>
4

>  <REMARK>
 VINA RESULT:      -6.0      2.790      6.395
  Name = 
  1 active torsions:
  status: ('A' for Active; 'I' for Inactive)
    1  A    between atoms: C_23  and  C_30
                            x       y       z     vdW  Elec       q    Type
                         _______ _______ _______ _____ _____    ______ ____

>  <TORSDO>
F 1

$$$$
=
 OpenBabel11122411273D

 37 44  0  0  1  0  0  0  0  0999 V2000
  180.5630  178.8510  140.1390 C   0  0  0  0  0  2  0  0  0  0  0  0
  179.8330  181.3320  135.7850 C   0  0  0  0  0  0  0  0  0  0  0  0
  181.0160  177.3880  136.8440 C   0  0  1  0  0  3  0  0  0  0  0  0
  180.3460  179.2430  141.5900 C   0  0  1  0  0  0  0  0  0  0  0  0
  183.5120  177.1230  139.5190 O   0  0  0  0  0  0  0  0  0  0  0  0
  179.7680  178.8660  135.1540 C   0  0  1  0  0  3  0  0  0  0  0  0
  182.2460  177.6860  137.6940 C   0  0  2  0  0  3  0  0  0  0  0  0
  182.5960  178.9130  142.6950 C   0  0  2  0  0  3  0  0  0  0  0  0
  180.9120  178.7030  136.1550 C   0  0  1  0  0  3  0  0  0  0  0  0
  182.3760  176.7850  138.8530 N   0  0  1  0  0  0  0  0  0  0  0  0
  178.9630  177.5740  135.0160 C   0  0  0  0  0  2  0  0  0  0  0  0
  181.1170  178.5230  142.6840 C   0  0  0  0  0  2  0  0  0  0  0  0
  180.8920  179.6540  137.2350 N   0  0  2  0  0  0  0  0  0  0  0  0
  179.0790  182.2750  136.4570 F   0  0  0  0  0  0  0  0  0  0  0  0
  181.1460  174.8570  136.3560 C   0  0  0  0  0  2  0  0  0  0  0  0
  179.9100  176.3720  134.7900 C   0  0  0  0  0  2  0  0  0  0  0  0
  181.0700  180.9750  136.6480 C   0  0  0  0  0  2  0  0  0  0  0  0
  183.3240  178.6380  141.3740 C   0  0  1  0  0  3  0  0  0  0  0  0
  183.1280  177.2130  140.8590 C   0  0  0  0  0  2  0  0  0  0  0  0
  181.0930  176.2810  135.7910 C   0  0  1  0  0  3  0  0  0  0  0  0
  182.0280  179.2090  138.0450 C   0  0  1  0  0  3  0  0  0  0  0  0
  178.9310  180.1070  135.4780 C   0  0  0  0  0  2  0  0  0  0  0  0
  182.5250  175.3700  138.4530 C   0  0  1  0  0  3  0  0  0  0  0  0
  180.2690  181.8800  134.5940 F   0  0  0  0  0  0  0  0  0  0  0  0
  183.0430  179.7330  140.3370 C   0  0  0  0  0  2  0  0  0  0  0  0
  183.2420  178.2490  143.7360 O   0  0  0  0  0  1  0  0  0  0  0  0
  181.7570  179.5810  139.5100 C   0  0  2  0  0  3  0  0  0  0  0  0
  181.2520  174.7450  137.8770 C   0  0  0  0  0  2  0  0  0  0  0  0
  179.6960  180.5300  141.8990 C   0  0  0  0  0  2  0  0  0  0  0  0
  178.9790  179.3150  141.8970 O   0  0  0  0  0  0  0  0  0  0  0  0
  184.3260  173.7040  137.9450 C   0  0  0  0  0  3  0  0  0  0  0  0
  183.8210  174.9980  137.7720 C   0  0  0  0  0  0  0  0  0  0  0  0
  184.5210  175.9070  136.9640 C   0  0  0  0  0  3  0  0  0  0  0  0
  186.3980  176.4310  135.5430 O   0  0  0  0  0  1  0  0  0  0  0  0
  186.2110  174.2330  136.5200 C   0  0  0  0  0  3  0  0  0  0  0  0
  185.7110  175.5260  136.3410 C   0  0  0  0  0  0  0  0  0  0  0  0
  185.5170  173.3220  137.3220 C   0  0  0  0  0  3  0  0  0  0  0  0
  1  4  1  0  0  0  0
  2 14  1  0  0  0  0
  2 17  1  0  0  0  0
  3  7  1  0  0  0  0
  4 30  1  0  0  0  0
  4 29  1  0  0  0  0
  4 12  1  0  0  0  0
  5 19  1  0  0  0  0
  6 22  1  0  0  0  0
  6  9  1  0  0  0  0
  7 21  1  0  0  0  0
  7 10  1  0  0  0  0
  8 26  1  0  0  0  0
  9  3  1  0  0  0  0
  9 13  1  0  0  0  0
 10  5  1  0  0  0  0
 11  6  1  0  0  0  0
 12  8  1  0  0  0  0
 13 21  1  0  0  0  0
 15 28  1  0  0  0  0
 16 11  1  0  0  0  0
 16 20  1  0  0  0  0
 17 13  1  0  0  0  0
 18  8  1  0  0  0  0
 19 18  1  0  0  0  0
 20 15  1  0  0  0  0
 20  3  1  0  0  0  0
 21 27  1  0  0  0  0
 22  2  1  0  0  0  0
 23 10  1  0  0  0  0
 24  2  1  0  0  0  0
 25 18  1  0  0  0  0
 27  1  1  0  0  0  0
 27 25  1  0  0  0  0
 28 23  1  0  0  0  0
 30 29  1  0  0  0  0
 32 31  1  0  0  0  0
 32 23  1  0  0  0  0
 33 32  2  0  0  0  0
 34 36  1  0  0  0  0
 35 37  1  0  0  0  0
 36 35  2  0  0  0  0
 36 33  1  0  0  0  0
 37 31  2  0  0  0  0
M  END
>  <MODEL>
5

>  <REMARK>
 VINA RESULT:      -5.1      3.529      7.678
  Name = 
  1 active torsions:
  status: ('A' for Active; 'I' for Inactive)
    1  A    between atoms: C_23  and  C_30
                            x       y       z     vdW  Elec       q    Type
                         _______ _______ _______ _____ _____    ______ ____

>  <TORSDO>
F 1

$$$$
