=
 OpenBabel11122411223D

 37 43  0  0  1  0  0  0  0  0999 V2000
  188.3600  174.0770  136.5800 C   0  0  0  0  0  2  0  0  0  0  0  0
  193.8050  175.7420  135.7430 C   0  0  0  0  0  0  0  0  0  0  0  0
  190.9120  176.2610  138.8510 C   0  0  1  0  0  3  0  0  0  0  0  0
  187.1220  173.4150  135.9350 C   0  0  2  0  0  3  0  0  0  0  0  0
  188.3750  178.6700  136.9200 S   0  0  0  0  0  0  0  0  0  0  0  0
  193.3110  176.1620  138.2290 C   0  0  2  0  0  3  0  0  0  0  0  0
  189.5800  176.2830  138.0750 C   0  0  1  0  0  3  0  0  0  0  0  0
  185.7920  175.6450  135.8700 N   0  0  0  0  0  0  0  0  0  0  0  0
  191.9140  176.4440  137.7650 C   0  0  1  0  0  3  0  0  0  0  0  0
  188.5790  177.4570  138.2810 C   0  0  1  0  0  3  0  0  0  0  0  0
  193.5780  177.0320  139.3380 O   0  0  0  0  0  0  0  0  0  0  0  0
  186.0590  174.3270  135.2490 C   0  0  0  0  0  2  0  0  0  0  0  0
  191.4490  175.5830  136.6490 C   0  0  2  0  0  3  0  0  0  0  0  0
  194.1170  174.2580  135.8440 C   0  0  0  0  0  1  0  0  0  0  0  0
  190.2980  177.5100  141.1120 C   0  0  0  0  0  2  0  0  0  0  0  0
  192.5630  177.4470  140.2330 C   0  0  0  0  0  3  0  0  0  0  0  0
  192.3000  175.9450  135.4340 C   0  0  0  0  0  2  0  0  0  0  0  0
  187.0160  176.4300  136.0600 C   0  0  2  0  0  3  0  0  0  0  0  0
  186.8180  177.9220  136.2860 C   0  0  0  0  0  2  0  0  0  0  0  0
  191.2620  177.1620  140.0200 C   0  0  0  0  0  0  0  0  0  0  0  0
  190.0030  176.0360  136.5950 C   0  0  1  0  0  3  0  0  0  0  0  0
  194.2430  176.4590  137.0470 C   0  0  0  0  0  2  0  0  0  0  0  0
  188.3600  178.0520  139.6750 C   0  0  2  0  0  3  0  0  0  0  0  0
  194.6060  176.3140  134.5940 C   0  0  0  0  0  1  0  0  0  0  0  0
  188.1130  176.1120  135.0530 C   0  0  0  0  0  2  0  0  0  0  0  0
  185.1840  175.4220  137.1730 C   0  0  0  0  0  1  0  0  0  0  0  0
  189.0810  175.1580  135.7380 C   0  0  2  0  0  3  0  0  0  0  0  0
  188.8590  177.1540  140.7930 C   0  0  0  0  0  2  0  0  0  0  0  0
  186.0100  178.4050  138.8140 C   0  0  0  0  0  3  0  0  0  0  0  0
  186.9190  178.3980  139.8840 C   0  0  0  0  0  0  0  0  0  0  0  0
  186.4770  178.7390  141.1670 C   0  0  0  0  0  3  0  0  0  0  0  0
  184.7170  179.4140  142.6260 F   0  0  0  0  0  0  0  0  0  0  0  0
  184.2380  179.0890  140.3130 C   0  0  0  0  0  3  0  0  0  0  0  0
  185.1390  179.0830  141.3820 C   0  0  0  0  0  0  0  0  0  0  0  0
  184.6730  178.7500  139.0290 C   0  0  0  0  0  3  0  0  0  0  0  0
  185.5360  171.8830  136.1430 C   0  0  0  0  0  1  0  0  0  0  0  0
  186.5010  172.5840  136.8690 O   0  0  0  0  0  0  0  0  0  0  0  0
  2 14  1  0  0  0  0
  2 22  1  0  0  0  0
  3 20  1  1  0  0  0
  4  1  1  0  0  0  0
  4 37  1  1  0  0  0
  5 10  1  0  0  0  0
  6 22  1  6  0  0  0
  6 11  1  0  0  0  0
  7 10  1  0  0  0  0
  7  3  1  0  0  0  0
  8 18  1  0  0  0  0
  8 26  1  0  0  0  0
  9  6  1  0  0  0  0
  9  3  1  0  0  0  0
 10 23  1  0  0  0  0
 11 16  1  0  0  0  0
 12  8  1  0  0  0  0
 12  4  1  0  0  0  0
 13  9  1  0  0  0  0
 17  2  1  0  0  0  0
 17 13  1  0  0  0  0
 18 19  1  0  0  0  0
 19  5  1  0  0  0  0
 20 16  2  0  0  0  0
 20 15  1  0  0  0  0
 21 13  1  0  0  0  0
 21  7  1  0  0  0  0
 23 30  1  0  0  0  0
 23 28  1  0  0  0  0
 24  2  1  0  0  0  0
 25 27  1  0  0  0  0
 25 18  1  0  0  0  0
 27  1  1  0  0  0  0
 27 21  1  0  0  0  0
 28 15  1  0  0  0  0
 29 35  2  0  0  0  0
 29 30  1  0  0  0  0
 30 31  2  0  0  0  0
 31 34  1  0  0  0  0
 33 34  2  0  0  0  0
 34 32  1  0  0  0  0
 35 33  1  0  0  0  0
 36 37  1  0  0  0  0
M  END
>  <MODEL>
1

>  <REMARK>
 VINA RESULT:      -7.9      0.000      0.000
  Name = 
  2 active torsions:
  status: ('A' for Active; 'I' for Inactive)
    1  A    between atoms: C_4  and  O_37
    2  A    between atoms: C_23  and  C_30
                            x       y       z     vdW  Elec       q    Type
                         _______ _______ _______ _____ _____    ______ ____

>  <TORSDO>
F 2

$$$$
=
 OpenBabel11122411223D

 37 43  0  0  1  0  0  0  0  0999 V2000
  187.1100  177.4330  138.8860 C   0  0  0  0  0  2  0  0  0  0  0  0
  181.8940  177.0470  136.4850 C   0  0  0  0  0  0  0  0  0  0  0  0
  185.1350  174.3390  137.1630 C   0  0  1  0  0  3  0  0  0  0  0  0
  188.1700  178.3920  139.4710 C   0  0  2  0  0  3  0  0  0  0  0  0
  187.7710  175.8960  134.5950 S   0  0  0  0  0  0  0  0  0  0  0  0
  182.6940  174.6310  136.8300 C   0  0  2  0  0  3  0  0  0  0  0  0
  186.3700  175.2570  137.0670 C   0  0  1  0  0  3  0  0  0  0  0  0
  189.7850  178.0500  137.4650 N   0  0  0  0  0  0  0  0  0  0  0  0
  184.0620  175.1910  136.5800 C   0  0  1  0  0  3  0  0  0  0  0  0
  187.5400  174.8880  136.1110 C   0  0  1  0  0  3  0  0  0  0  0  0
  182.6670  173.3060  136.2800 O   0  0  0  0  0  0  0  0  0  0  0  0
  189.2740  178.9530  138.5220 C   0  0  0  0  0  2  0  0  0  0  0  0
  184.2850  176.5470  137.1400 C   0  0  2  0  0  3  0  0  0  0  0  0
  181.3900  177.3000  137.8970 C   0  0  0  0  0  1  0  0  0  0  0  0
  186.1460  171.9350  136.6660 C   0  0  0  0  0  2  0  0  0  0  0  0
  183.8160  172.4810  136.2410 C   0  0  0  0  0  3  0  0  0  0  0  0
  183.3730  177.4950  136.3660 C   0  0  0  0  0  2  0  0  0  0  0  0
  188.7090  177.4930  136.6390 C   0  0  2  0  0  3  0  0  0  0  0  0
  189.1350  176.9120  135.2980 C   0  0  0  0  0  2  0  0  0  0  0  0
  185.0360  172.9380  136.5920 C   0  0  0  0  0  0  0  0  0  0  0  0
  185.7660  176.6770  136.8460 C   0  0  1  0  0  3  0  0  0  0  0  0
  181.6960  175.5540  136.1180 C   0  0  0  0  0  2  0  0  0  0  0  0
  187.9830  173.4300  135.9550 C   0  0  2  0  0  3  0  0  0  0  0  0
  181.0660  177.8850  135.5340 C   0  0  0  0  0  1  0  0  0  0  0  0
  187.4800  178.3890  136.5450 C   0  0  0  0  0  2  0  0  0  0  0  0
  190.4870  176.9460  138.1050 C   0  0  0  0  0  1  0  0  0  0  0  0
  186.4650  177.8540  137.5430 C   0  0  2  0  0  3  0  0  0  0  0  0
  187.4810  172.5310  137.0700 C   0  0  0  0  0  2  0  0  0  0  0  0
  190.0780  172.8260  134.6770 C   0  0  0  0  0  3  0  0  0  0  0  0
  189.4720  173.3370  135.8360 C   0  0  0  0  0  0  0  0  0  0  0  0
  190.2700  173.7490  136.9090 C   0  0  0  0  0  3  0  0  0  0  0  0
  192.4320  174.0540  137.8670 F   0  0  0  0  0  0  0  0  0  0  0  0
  192.2620  173.1450  135.6700 C   0  0  0  0  0  3  0  0  0  0  0  0
  191.6630  173.6540  136.8260 C   0  0  0  0  0  0  0  0  0  0  0  0
  191.4700  172.7310  134.5950 C   0  0  0  0  0  3  0  0  0  0  0  0
  188.0170  178.2660  141.6760 C   0  0  0  0  0  1  0  0  0  0  0  0
  188.7620  177.8040  140.5900 O   0  0  0  0  0  0  0  0  0  0  0  0
  1  4  1  0  0  0  0
  2 14  1  0  0  0  0
  3 20  1  6  0  0  0
  4 37  1  1  0  0  0
  5 19  1  0  0  0  0
  5 10  1  0  0  0  0
  6 22  1  6  0  0  0
  7  3  1  0  0  0  0
  8 26  1  0  0  0  0
  8 12  1  0  0  0  0
  9  6  1  0  0  0  0
  9 13  1  0  0  0  0
  9  3  1  0  0  0  0
 10  7  1  0  0  0  0
 11  6  1  0  0  0  0
 12  4  1  0  0  0  0
 15 28  1  0  0  0  0
 16 11  1  0  0  0  0
 16 20  2  0  0  0  0
 17  2  1  0  0  0  0
 17 13  1  0  0  0  0
 18  8  1  0  0  0  0
 19 18  1  0  0  0  0
 20 15  1  0  0  0  0
 21  7  1  0  0  0  0
 21 13  1  0  0  0  0
 21 27  1  0  0  0  0
 22  2  1  0  0  0  0
 23 10  1  0  0  0  0
 23 28  1  0  0  0  0
 24  2  1  0  0  0  0
 25 18  1  0  0  0  0
 25 27  1  0  0  0  0
 27  1  1  0  0  0  0
 29 30  1  0  0  0  0
 30 23  1  0  0  0  0
 30 31  2  0  0  0  0
 33 34  2  0  0  0  0
 34 31  1  0  0  0  0
 34 32  1  0  0  0  0
 35 29  2  0  0  0  0
 35 33  1  0  0  0  0
 37 36  1  0  0  0  0
M  END
>  <MODEL>
2

>  <REMARK>
 VINA RESULT:      -7.7      3.028      8.154
  Name = 
  2 active torsions:
  status: ('A' for Active; 'I' for Inactive)
    1  A    between atoms: C_4  and  O_37
    2  A    between atoms: C_23  and  C_30
                            x       y       z     vdW  Elec       q    Type
                         _______ _______ _______ _____ _____    ______ ____

>  <TORSDO>
F 2

$$$$
=
 OpenBabel11122411223D

 37 43  0  0  1  0  0  0  0  0999 V2000
  180.9800  179.5950  137.7120 C   0  0  0  0  0  2  0  0  0  0  0  0
  180.5520  178.8630  143.4040 C   0  0  0  0  0  0  0  0  0  0  0  0
  183.7720  179.0090  140.5930 C   0  0  1  0  0  3  0  0  0  0  0  0
  180.1990  179.6970  136.3830 C   0  0  2  0  0  3  0  0  0  0  0  0
  183.0440  175.5890  138.6610 S   0  0  0  0  0  0  0  0  0  0  0  0
  183.0320  179.3410  142.9370 C   0  0  2  0  0  3  0  0  0  0  0  0
  183.1360  178.4250  139.3170 C   0  0  1  0  0  3  0  0  0  0  0  0
  181.0600  177.3950  135.5410 N   0  0  0  0  0  0  0  0  0  0  0  0
  182.7860  178.6280  141.6420 C   0  0  1  0  0  3  0  0  0  0  0  0
  183.8270  177.2460  138.5730 C   0  0  1  0  0  3  0  0  0  0  0  0
  184.3730  179.0350  143.3450 O   0  0  0  0  0  0  0  0  0  0  0  0
  179.9710  178.3990  135.5490 C   0  0  0  0  0  2  0  0  0  0  0  0
  181.4530  178.8830  141.0410 C   0  0  2  0  0  3  0  0  0  0  0  0
  180.0620  180.3030  143.4010 C   0  0  0  0  0  1  0  0  0  0  0  0
  186.3690  178.6290  140.1860 C   0  0  0  0  0  2  0  0  0  0  0  0
  185.4110  178.8020  142.4130 C   0  0  0  0  0  3  0  0  0  0  0  0
  180.4250  178.2610  141.9820 C   0  0  0  0  0  2  0  0  0  0  0  0
  181.4700  177.0050  136.8950 C   0  0  2  0  0  3  0  0  0  0  0  0
  182.2570  175.7070  137.0010 C   0  0  0  0  0  2  0  0  0  0  0  0
  185.1760  178.7160  141.0870 C   0  0  0  0  0  0  0  0  0  0  0  0
  181.6530  178.1640  139.7210 C   0  0  1  0  0  3  0  0  0  0  0  0
  182.0040  178.8060  143.9430 C   0  0  0  0  0  2  0  0  0  0  0  0
  185.3520  177.2010  138.4410 C   0  0  2  0  0  3  0  0  0  0  0  0
  179.6660  178.0680  144.3380 C   0  0  0  0  0  1  0  0  0  0  0  0
  180.3600  177.1250  137.9310 C   0  0  0  0  0  2  0  0  0  0  0  0
  182.2110  177.9740  134.8640 C   0  0  0  0  0  1  0  0  0  0  0  0
  180.5770  178.4420  138.6620 C   0  0  2  0  0  3  0  0  0  0  0  0
  186.0150  178.5390  138.7130 C   0  0  0  0  0  2  0  0  0  0  0  0
  185.6040  177.4610  135.9400 C   0  0  0  0  0  3  0  0  0  0  0  0
  185.7540  176.6800  137.0970 C   0  0  0  0  0  0  0  0  0  0  0  0
  186.2690  175.3830  136.9920 C   0  0  0  0  0  3  0  0  0  0  0  0
  187.1330  173.6140  135.6480 F   0  0  0  0  0  0  0  0  0  0  0  0
  186.4840  175.6520  134.5950 C   0  0  0  0  0  3  0  0  0  0  0  0
  186.6350  174.8700  135.7440 C   0  0  0  0  0  0  0  0  0  0  0  0
  185.9690  176.9480  134.6930 C   0  0  0  0  0  3  0  0  0  0  0  0
  180.4190  181.8900  136.1740 C   0  0  0  0  0  1  0  0  0  0  0  0
  180.7780  180.6800  135.5780 O   0  0  0  0  0  0  0  0  0  0  0  0
  1 27  1  0  0  0  0
  2 22  1  0  0  0  0
  2 24  1  0  0  0  0
  3 20  1  1  0  0  0
  3  9  1  0  0  0  0
  4 37  1  6  0  0  0
  4  1  1  0  0  0  0
  6 11  1  0  0  0  0
  6 22  1  1  0  0  0
  7 21  1  0  0  0  0
  7  3  1  0  0  0  0
  8 12  1  0  0  0  0
  8 18  1  0  0  0  0
  9  6  1  0  0  0  0
 10  5  1  0  0  0  0
 10  7  1  0  0  0  0
 12  4  1  0  0  0  0
 13  9  1  0  0  0  0
 13 17  1  0  0  0  0
 14  2  1  0  0  0  0
 15 20  1  0  0  0  0
 16 11  1  0  0  0  0
 17  2  1  0  0  0  0
 18 19  1  0  0  0  0
 18 25  1  0  0  0  0
 19  5  1  0  0  0  0
 20 16  2  0  0  0  0
 21 13  1  0  0  0  0
 23 10  1  0  0  0  0
 23 28  1  0  0  0  0
 25 27  1  0  0  0  0
 26  8  1  0  0  0  0
 27 21  1  0  0  0  0
 28 15  1  0  0  0  0
 29 30  1  0  0  0  0
 30 23  1  0  0  0  0
 31 30  2  0  0  0  0
 32 34  1  0  0  0  0
 33 35  1  0  0  0  0
 33 34  2  0  0  0  0
 34 31  1  0  0  0  0
 35 29  2  0  0  0  0
 37 36  1  0  0  0  0
M  END
>  <MODEL>
3

>  <REMARK>
 VINA RESULT:      -7.5      4.989      9.162
  Name = 
  2 active torsions:
  status: ('A' for Active; 'I' for Inactive)
    1  A    between atoms: C_4  and  O_37
    2  A    between atoms: C_23  and  C_30
                            x       y       z     vdW  Elec       q    Type
                         _______ _______ _______ _____ _____    ______ ____

>  <TORSDO>
F 2

$$$$
=
 OpenBabel11122411223D

 37 43  0  0  1  0  0  0  0  0999 V2000
  181.4400  180.1280  140.7130 C   0  0  0  0  0  2  0  0  0  0  0  0
  185.3130  178.6580  144.7080 C   0  0  0  0  0  0  0  0  0  0  0  0
  185.2290  178.7120  140.4320 C   0  0  1  0  0  3  0  0  0  0  0  0
  179.9720  180.5390  140.4590 C   0  0  2  0  0  3  0  0  0  0  0  0
  182.6030  175.7580  139.8410 S   0  0  0  0  0  0  0  0  0  0  0  0
  186.6050  178.8120  142.4930 C   0  0  2  0  0  3  0  0  0  0  0  0
  183.7480  178.4220  140.1180 C   0  0  1  0  0  3  0  0  0  0  0  0
  179.3930  178.2790  139.3180 N   0  0  0  0  0  0  0  0  0  0  0  0
  185.3260  178.3400  141.8700 C   0  0  1  0  0  3  0  0  0  0  0  0
  183.3700  177.2710  139.1410 C   0  0  1  0  0  3  0  0  0  0  0  0
  187.6840  178.2480  141.7340 O   0  0  0  0  0  0  0  0  0  0  0  0
  178.9310  179.4260  140.1330 C   0  0  0  0  0  2  0  0  0  0  0  0
  184.0960  178.8790  142.5020 C   0  0  2  0  0  3  0  0  0  0  0  0
  185.3060  180.1410  145.0450 C   0  0  0  0  0  1  0  0  0  0  0  0
  186.4580  178.0000  138.1880 C   0  0  0  0  0  2  0  0  0  0  0  0
  187.5780  177.9950  140.3450 C   0  0  0  0  0  3  0  0  0  0  0  0
  184.0350  178.2930  143.9100 C   0  0  0  0  0  2  0  0  0  0  0  0
  180.5870  177.6400  139.8810 C   0  0  2  0  0  3  0  0  0  0  0  0
  180.8870  176.2340  139.3780 C   0  0  0  0  0  2  0  0  0  0  0  0
  186.4140  178.1390  139.6790 C   0  0  0  0  0  0  0  0  0  0  0  0
  183.0750  178.3360  141.5220 C   0  0  1  0  0  3  0  0  0  0  0  0
  186.6120  178.3010  143.9400 C   0  0  0  0  0  2  0  0  0  0  0  0
  184.2110  177.0120  137.8880 C   0  0  2  0  0  3  0  0  0  0  0  0
  185.2990  177.8810  146.0070 C   0  0  0  0  0  1  0  0  0  0  0  0
  180.7030  177.7770  141.3940 C   0  0  0  0  0  2  0  0  0  0  0  0
  179.7200  178.7660  137.9860 C   0  0  0  0  0  1  0  0  0  0  0  0
  181.6640  178.9260  141.6620 C   0  0  2  0  0  3  0  0  0  0  0  0
  185.1090  178.1800  137.5180 C   0  0  0  0  0  2  0  0  0  0  0  0
  182.4900  177.5750  136.1250 C   0  0  0  0  0  3  0  0  0  0  0  0
  183.3390  176.6350  136.7310 C   0  0  0  0  0  0  0  0  0  0  0  0
  183.3580  175.3170  136.2620 C   0  0  0  0  0  3  0  0  0  0  0  0
  182.5590  173.6610  134.7440 F   0  0  0  0  0  0  0  0  0  0  0  0
  181.6950  175.8780  134.5940 C   0  0  0  0  0  3  0  0  0  0  0  0
  182.5380  174.9390  135.1940 C   0  0  0  0  0  0  0  0  0  0  0  0
  181.6700  177.1960  135.0580 C   0  0  0  0  0  3  0  0  0  0  0  0
  178.9500  182.4230  139.9020 C   0  0  0  0  0  1  0  0  0  0  0  0
  179.9310  181.5280  139.4730 O   0  0  0  0  0  0  0  0  0  0  0  0
  1 27  1  0  0  0  0
  2 14  1  0  0  0  0
  2 24  1  0  0  0  0
  3 20  1  6  0  0  0
  3  9  1  0  0  0  0
  4 37  1  6  0  0  0
  4  1  1  0  0  0  0
  6 22  1  1  0  0  0
  7  3  1  0  0  0  0
  7 21  1  0  0  0  0
  8 18  1  0  0  0  0
  8 12  1  0  0  0  0
  9  6  1  0  0  0  0
  9 13  1  0  0  0  0
 10  5  1  0  0  0  0
 10  7  1  0  0  0  0
 11  6  1  0  0  0  0
 12  4  1  0  0  0  0
 13 17  1  0  0  0  0
 15 20  1  0  0  0  0
 16 11  1  0  0  0  0
 17  2  1  0  0  0  0
 18 25  1  0  0  0  0
 19  5  1  0  0  0  0
 19 18  1  0  0  0  0
 20 16  2  0  0  0  0
 21 27  1  0  0  0  0
 21 13  1  0  0  0  0
 22  2  1  0  0  0  0
 23 10  1  0  0  0  0
 25 27  1  0  0  0  0
 26  8  1  0  0  0  0
 28 23  1  0  0  0  0
 28 15  1  0  0  0  0
 29 30  1  0  0  0  0
 30 23  1  0  0  0  0
 31 30  2  0  0  0  0
 32 34  1  0  0  0  0
 33 35  1  0  0  0  0
 33 34  2  0  0  0  0
 34 31  1  0  0  0  0
 35 29  2  0  0  0  0
 37 36  1  0  0  0  0
M  END
>  <MODEL>
4

>  <REMARK>
 VINA RESULT:      -6.9      5.110      8.745
  Name = 
  2 active torsions:
  status: ('A' for Active; 'I' for Inactive)
    1  A    between atoms: C_4  and  O_37
    2  A    between atoms: C_23  and  C_30
                            x       y       z     vdW  Elec       q    Type
                         _______ _______ _______ _____ _____    ______ ____

>  <TORSDO>
F 2

$$$$
=
 OpenBabel11122411223D

 37 43  0  0  1  0  0  0  0  0999 V2000
  186.5800  173.7020  136.8570 C   0  0  0  0  0  2  0  0  0  0  0  0
  192.0770  175.3330  136.3710 C   0  0  0  0  0  0  0  0  0  0  0  0
  188.7640  176.5060  138.8080 C   0  0  1  0  0  3  0  0  0  0  0  0
  185.4520  172.8420  136.2440 C   0  0  2  0  0  3  0  0  0  0  0  0
  186.5160  178.2230  135.9860 S   0  0  0  0  0  0  0  0  0  0  0  0
  191.2280  176.3550  138.5690 C   0  0  2  0  0  3  0  0  0  0  0  0
  187.5580  176.2690  137.8780 C   0  0  1  0  0  3  0  0  0  0  0  0
  184.1300  174.9190  135.4170 N   0  0  0  0  0  0  0  0  0  0  0  0
  189.9100  176.4470  137.8600 C   0  0  1  0  0  3  0  0  0  0  0  0
  186.5300  177.4110  137.6310 C   0  0  1  0  0  3  0  0  0  0  0  0
  191.3260  177.4930  139.4380 O   0  0  0  0  0  0  0  0  0  0  0  0
  184.4930  173.4990  135.2050 C   0  0  0  0  0  2  0  0  0  0  0  0
  189.6170  175.3090  136.9540 C   0  0  2  0  0  3  0  0  0  0  0  0
  192.3820  173.9390  136.8970 C   0  0  0  0  0  1  0  0  0  0  0  0
  187.8220  178.2670  140.5590 C   0  0  0  0  0  2  0  0  0  0  0  0
  190.1910  178.0790  140.0450 C   0  0  0  0  0  3  0  0  0  0  0  0
  190.6310  175.3830  135.8160 C   0  0  0  0  0  2  0  0  0  0  0  0
  185.3090  175.7800  135.5620 C   0  0  2  0  0  3  0  0  0  0  0  0
  185.0710  177.2700  135.3610 C   0  0  0  0  0  2  0  0  0  0  0  0
  188.9360  177.6920  139.7380 C   0  0  0  0  0  0  0  0  0  0  0  0
  188.1910  175.6690  136.5860 C   0  0  1  0  0  3  0  0  0  0  0  0
  192.3190  176.3790  137.4890 C   0  0  0  0  0  2  0  0  0  0  0  0
  186.1080  178.3350  138.7780 C   0  0  2  0  0  3  0  0  0  0  0  0
  193.0320  175.6240  135.2330 C   0  0  0  0  0  1  0  0  0  0  0  0
  186.5420  175.2620  134.8330 C   0  0  0  0  0  2  0  0  0  0  0  0
  183.3430  175.0130  136.6370 C   0  0  0  0  0  1  0  0  0  0  0  0
  187.4070  174.5600  135.8690 C   0  0  2  0  0  3  0  0  0  0  0  0
  186.4460  177.7770  140.1490 C   0  0  0  0  0  2  0  0  0  0  0  0
  183.6890  177.6500  138.5230 C   0  0  0  0  0  3  0  0  0  0  0  0
  184.6490  178.6590  138.6890 C   0  0  0  0  0  0  0  0  0  0  0  0
  184.2420  179.9970  138.7540 C   0  0  0  0  0  3  0  0  0  0  0  0
  182.4970  181.6200  138.7180 F   0  0  0  0  0  0  0  0  0  0  0  0
  181.9330  179.3150  138.4900 C   0  0  0  0  0  3  0  0  0  0  0  0
  182.8860  180.3240  138.6550 C   0  0  0  0  0  0  0  0  0  0  0  0
  182.3340  177.9780  138.4230 C   0  0  0  0  0  3  0  0  0  0  0  0
  183.8240  171.3880  136.6210 C   0  0  0  0  0  1  0  0  0  0  0  0
  184.7080  172.2530  137.2680 O   0  0  0  0  0  0  0  0  0  0  0  0
  2 14  1  0  0  0  0
  2 22  1  0  0  0  0
  3 20  1  6  0  0  0
  4  1  1  0  0  0  0
  4 37  1  1  0  0  0
  5 10  1  0  0  0  0
  6 22  1  6  0  0  0
  6 11  1  0  0  0  0
  7  3  1  0  0  0  0
  8 18  1  0  0  0  0
  8 26  1  0  0  0  0
  9  6  1  0  0  0  0
  9  3  1  0  0  0  0
 10  7  1  0  0  0  0
 10 23  1  0  0  0  0
 11 16  1  0  0  0  0
 12  8  1  0  0  0  0
 12  4  1  0  0  0  0
 13  9  1  0  0  0  0
 17  2  1  0  0  0  0
 17 13  1  0  0  0  0
 19 18  1  0  0  0  0
 19  5  1  0  0  0  0
 20 16  2  0  0  0  0
 20 15  1  0  0  0  0
 21 13  1  0  0  0  0
 21  7  1  0  0  0  0
 23 28  1  0  0  0  0
 24  2  1  0  0  0  0
 25 18  1  0  0  0  0
 25 27  1  0  0  0  0
 27 21  1  0  0  0  0
 27  1  1  0  0  0  0
 28 15  1  0  0  0  0
 29 30  1  0  0  0  0
 30 31  2  0  0  0  0
 30 23  1  0  0  0  0
 33 34  2  0  0  0  0
 34 32  1  0  0  0  0
 34 31  1  0  0  0  0
 35 33  1  0  0  0  0
 35 29  2  0  0  0  0
 36 37  1  0  0  0  0
M  END
>  <MODEL>
5

>  <REMARK>
 VINA RESULT:      -6.4      1.709      2.360
  Name = 
  2 active torsions:
  status: ('A' for Active; 'I' for Inactive)
    1  A    between atoms: C_4  and  O_37
    2  A    between atoms: C_23  and  C_30
                            x       y       z     vdW  Elec       q    Type
                         _______ _______ _______ _____ _____    ______ ____

>  <TORSDO>
F 2

$$$$
=
 OpenBabel11122411223D

 37 43  0  0  1  0  0  0  0  0999 V2000
  186.3800  177.8780  139.7680 C   0  0  0  0  0  2  0  0  0  0  0  0
  181.0380  179.3950  138.2580 C   0  0  0  0  0  0  0  0  0  0  0  0
  183.2870  175.7560  138.2280 C   0  0  1  0  0  3  0  0  0  0  0  0
  187.7660  178.3910  140.2200 C   0  0  2  0  0  3  0  0  0  0  0  0
  185.8960  176.6820  135.3470 S   0  0  0  0  0  0  0  0  0  0  0  0
  181.0510  176.8270  138.3260 C   0  0  2  0  0  3  0  0  0  0  0  0
  184.7260  176.2490  137.9790 C   0  0  1  0  0  3  0  0  0  0  0  0
  188.8830  177.7800  137.9560 N   0  0  0  0  0  0  0  0  0  0  0  0
  182.4770  176.9570  137.8820 C   0  0  1  0  0  3  0  0  0  0  0  0
  185.5670  175.6390  136.8200 C   0  0  1  0  0  3  0  0  0  0  0  0
  180.5190  175.6430  137.7140 O   0  0  0  0  0  0  0  0  0  0  0  0
  188.8460  178.6780  139.1330 C   0  0  0  0  0  2  0  0  0  0  0  0
  183.2040  178.1080  138.4730 C   0  0  2  0  0  3  0  0  0  0  0  0
  180.8470  179.6380  139.7460 C   0  0  0  0  0  1  0  0  0  0  0  0
  183.3830  173.2240  137.4330 C   0  0  0  0  0  2  0  0  0  0  0  0
  181.3220  174.5110  137.4360 C   0  0  0  0  0  3  0  0  0  0  0  0
  182.5500  179.3700  137.9170 C   0  0  0  0  0  2  0  0  0  0  0  0
  187.5790  177.6790  137.2910 C   0  0  2  0  0  3  0  0  0  0  0  0
  187.6010  177.1400  135.8680 C   0  0  0  0  0  2  0  0  0  0  0  0
  182.6600  174.5250  137.6030 C   0  0  0  0  0  0  0  0  0  0  0  0
  184.5910  177.8010  137.9420 C   0  0  1  0  0  3  0  0  0  0  0  0
  180.3170  178.0850  137.8450 C   0  0  0  0  0  2  0  0  0  0  0  0
  185.4860  174.1410  136.5100 C   0  0  2  0  0  3  0  0  0  0  0  0
  180.4020  180.5450  137.5080 C   0  0  0  0  0  1  0  0  0  0  0  0
  186.7070  178.9170  137.4560 C   0  0  0  0  0  2  0  0  0  0  0  0
  189.2710  176.4520  138.4060 C   0  0  0  0  0  1  0  0  0  0  0  0
  185.7240  178.6200  138.5790 C   0  0  2  0  0  3  0  0  0  0  0  0
  184.8820  173.3280  137.6410 C   0  0  0  0  0  2  0  0  0  0  0  0
  187.0410  172.9510  134.9120 C   0  0  0  0  0  3  0  0  0  0  0  0
  186.8320  173.6030  136.1380 C   0  0  0  0  0  0  0  0  0  0  0  0
  187.8950  173.7350  137.0390 C   0  0  0  0  0  3  0  0  0  0  0  0
  190.1810  173.3540  137.5950 F   0  0  0  0  0  0  0  0  0  0  0  0
  189.3590  172.5760  135.4970 C   0  0  0  0  0  3  0  0  0  0  0  0
  189.1560  173.2240  136.7190 C   0  0  0  0  0  0  0  0  0  0  0  0
  188.3020  172.4390  134.5940 C   0  0  0  0  0  3  0  0  0  0  0  0
  189.3250  178.2480  141.7860 C   0  0  0  0  0  1  0  0  0  0  0  0
  188.2860  177.5310  141.1890 O   0  0  0  0  0  0  0  0  0  0  0  0
  1  4  1  0  0  0  0
  2 14  1  0  0  0  0
  3 20  1  6  0  0  0
  4 37  1  1  0  0  0
  5 19  1  0  0  0  0
  5 10  1  0  0  0  0
  6 22  1  6  0  0  0
  7  3  1  0  0  0  0
  8 26  1  0  0  0  0
  8 12  1  0  0  0  0
  9  3  1  0  0  0  0
  9  6  1  0  0  0  0
  9 13  1  0  0  0  0
 10  7  1  0  0  0  0
 11  6  1  0  0  0  0
 12  4  1  0  0  0  0
 15 20  1  0  0  0  0
 15 28  1  0  0  0  0
 16 20  2  0  0  0  0
 16 11  1  0  0  0  0
 17  2  1  0  0  0  0
 17 13  1  0  0  0  0
 18 25  1  0  0  0  0
 18  8  1  0  0  0  0
 19 18  1  0  0  0  0
 21  7  1  0  0  0  0
 21 13  1  0  0  0  0
 21 27  1  0  0  0  0
 22  2  1  0  0  0  0
 23 10  1  0  0  0  0
 23 28  1  0  0  0  0
 24  2  1  0  0  0  0
 25 27  1  0  0  0  0
 27  1  1  0  0  0  0
 29 30  1  0  0  0  0
 30 23  1  0  0  0  0
 30 31  2  0  0  0  0
 33 34  2  0  0  0  0
 34 31  1  0  0  0  0
 34 32  1  0  0  0  0
 35 29  2  0  0  0  0
 35 33  1  0  0  0  0
 37 36  1  0  0  0  0
M  END
>  <MODEL>
6

>  <REMARK>
 VINA RESULT:      -6.4      3.450      8.626
  Name = 
  2 active torsions:
  status: ('A' for Active; 'I' for Inactive)
    1  A    between atoms: C_4  and  O_37
    2  A    between atoms: C_23  and  C_30
                            x       y       z     vdW  Elec       q    Type
                         _______ _______ _______ _____ _____    ______ ____

>  <TORSDO>
F 2

$$$$
=
 OpenBabel11122411223D

 37 43  0  0  1  0  0  0  0  0999 V2000
  181.6260  180.0580  139.8250 C   0  0  0  0  0  2  0  0  0  0  0  0
  186.5670  178.5060  142.3350 C   0  0  0  0  0  0  0  0  0  0  0  0
  184.9300  178.1920  138.3960 C   0  0  1  0  0  3  0  0  0  0  0  0
  180.2030  180.6120  140.0590 C   0  0  2  0  0  3  0  0  0  0  0  0
  182.0540  175.5230  139.1470 S   0  0  0  0  0  0  0  0  0  0  0  0
  186.9680  178.3120  139.8060 C   0  0  2  0  0  3  0  0  0  0  0  0
  183.4200  178.0500  138.6660 C   0  0  1  0  0  3  0  0  0  0  0  0
  179.0770  178.3430  139.4880 N   0  0  0  0  0  0  0  0  0  0  0  0
  185.5180  177.9390  139.7400 C   0  0  1  0  0  3  0  0  0  0  0  0
  182.6250  176.8680  138.0380 C   0  0  1  0  0  3  0  0  0  0  0  0
  187.6480  177.5630  138.7890 O   0  0  0  0  0  0  0  0  0  0  0  0
  179.0330  179.6030  140.2650 C   0  0  0  0  0  2  0  0  0  0  0  0
  184.6490  178.6710  140.6950 C   0  0  2  0  0  3  0  0  0  0  0  0
  186.7980  180.0030  142.4660 C   0  0  0  0  0  1  0  0  0  0  0  0
  185.1970  177.1470  135.9690 C   0  0  0  0  0  2  0  0  0  0  0  0
  187.0240  177.2020  137.5710 C   0  0  0  0  0  3  0  0  0  0  0  0
  185.0620  178.2230  142.0940 C   0  0  0  0  0  2  0  0  0  0  0  0
  180.3420  177.6210  139.6660 C   0  0  2  0  0  3  0  0  0  0  0  0
  180.3280  176.1520  139.2680 C   0  0  0  0  0  2  0  0  0  0  0  0
  185.7110  177.4210  137.3490 C   0  0  0  0  0  0  0  0  0  0  0  0
  183.3020  178.1660  140.2160 C   0  0  1  0  0  3  0  0  0  0  0  0
  187.4640  177.9340  141.2070 C   0  0  0  0  0  2  0  0  0  0  0  0
  182.9270  176.4040  136.6110 C   0  0  2  0  0  3  0  0  0  0  0  0
  186.9690  177.8530  143.6400 C   0  0  0  0  0  1  0  0  0  0  0  0
  181.0120  177.8780  141.0090 C   0  0  0  0  0  2  0  0  0  0  0  0
  178.9310  178.6690  138.0780 C   0  0  0  0  0  1  0  0  0  0  0  0
  182.0900  178.9260  140.7740 C   0  0  2  0  0  3  0  0  0  0  0  0
  183.7140  177.4220  135.8050 C   0  0  0  0  0  2  0  0  0  0  0  0
  180.7570  177.0100  135.4660 C   0  0  0  0  0  3  0  0  0  0  0  0
  181.6660  176.0300  135.8950 C   0  0  0  0  0  0  0  0  0  0  0  0
  181.3830  174.6790  135.6700 C   0  0  0  0  0  3  0  0  0  0  0  0
  179.9330  172.9960  134.8030 F   0  0  0  0  0  0  0  0  0  0  0  0
  179.3010  175.2850  134.5940 C   0  0  0  0  0  3  0  0  0  0  0  0
  180.2030  174.3060  135.0190 C   0  0  0  0  0  0  0  0  0  0  0  0
  179.5770  176.6370  134.8170 C   0  0  0  0  0  3  0  0  0  0  0  0
  181.0680  181.6860  138.3260 C   0  0  0  0  0  1  0  0  0  0  0  0
  179.8810  181.5080  139.0370 O   0  0  0  0  0  0  0  0  0  0  0  0
  1  4  1  0  0  0  0
  1 27  1  0  0  0  0
  2 14  1  0  0  0  0
  2 24  1  0  0  0  0
  3 20  1  6  0  0  0
  3  7  1  0  0  0  0
  3  9  1  0  0  0  0
  4 37  1  6  0  0  0
  4 12  1  0  0  0  0
  5 19  1  0  0  0  0
  6 22  1  1  0  0  0
  7 21  1  0  0  0  0
  8 18  1  0  0  0  0
  8 12  1  0  0  0  0
  9  6  1  0  0  0  0
  9 13  1  0  0  0  0
 10  7  1  0  0  0  0
 10  5  1  0  0  0  0
 11  6  1  0  0  0  0
 13 17  1  0  0  0  0
 15 20  1  0  0  0  0
 16 11  1  0  0  0  0
 17  2  1  0  0  0  0
 18 25  1  0  0  0  0
 19 18  1  0  0  0  0
 20 16  2  0  0  0  0
 21 13  1  0  0  0  0
 21 27  1  0  0  0  0
 22  2  1  0  0  0  0
 23 10  1  0  0  0  0
 26  8  1  0  0  0  0
 27 25  1  0  0  0  0
 28 15  1  0  0  0  0
 28 23  1  0  0  0  0
 29 30  1  0  0  0  0
 30 23  1  0  0  0  0
 31 30  2  0  0  0  0
 32 34  1  0  0  0  0
 33 35  1  0  0  0  0
 33 34  2  0  0  0  0
 34 31  1  0  0  0  0
 35 29  2  0  0  0  0
 36 37  1  0  0  0  0
M  END
>  <MODEL>
7

>  <REMARK>
 VINA RESULT:      -5.4      4.827      8.484
  Name = 
  2 active torsions:
  status: ('A' for Active; 'I' for Inactive)
    1  A    between atoms: C_4  and  O_37
    2  A    between atoms: C_23  and  C_30
                            x       y       z     vdW  Elec       q    Type
                         _______ _______ _______ _____ _____    ______ ____

>  <TORSDO>
F 2

$$$$
=
 OpenBabel11122411223D

 37 43  0  0  1  0  0  0  0  0999 V2000
  185.2280  177.6360  141.7300 C   0  0  0  0  0  2  0  0  0  0  0  0
  179.6930  179.2090  141.6690 C   0  0  0  0  0  0  0  0  0  0  0  0
  181.9920  176.1120  139.8200 C   0  0  1  0  0  3  0  0  0  0  0  0
  186.6530  178.0230  142.1850 C   0  0  2  0  0  3  0  0  0  0  0  0
  184.1390  178.3660  137.3150 S   0  0  0  0  0  0  0  0  0  0  0  0
  179.7710  176.8590  140.6350 C   0  0  2  0  0  3  0  0  0  0  0  0
  183.3700  176.7780  139.6320 C   0  0  1  0  0  3  0  0  0  0  0  0
  187.4460  178.5080  139.7600 N   0  0  0  0  0  0  0  0  0  0  0  0
  181.1150  177.2770  140.1190 C   0  0  1  0  0  3  0  0  0  0  0  0
  184.0480  176.7790  138.2320 C   0  0  1  0  0  3  0  0  0  0  0  0
  179.1830  176.0020  139.6470 O   0  0  0  0  0  0  0  0  0  0  0  0
  187.5600  178.8250  141.2020 C   0  0  0  0  0  2  0  0  0  0  0  0
  181.8950  178.1300  141.0510 C   0  0  2  0  0  3  0  0  0  0  0  0
  179.7130  178.7910  143.1310 C   0  0  0  0  0  1  0  0  0  0  0  0
  182.0280  174.1620  138.0180 C   0  0  0  0  0  2  0  0  0  0  0  0
  179.9610  175.1580  138.8180 C   0  0  0  0  0  3  0  0  0  0  0  0
  181.1400  179.4510  141.1700 C   0  0  0  0  0  2  0  0  0  0  0  0
  186.0620  178.5890  139.2790 C   0  0  2  0  0  3  0  0  0  0  0  0
  185.8910  178.7000  137.7700 C   0  0  0  0  0  2  0  0  0  0  0  0
  181.3080  175.2090  138.8110 C   0  0  0  0  0  0  0  0  0  0  0  0
  183.1970  178.1870  140.2770 C   0  0  1  0  0  3  0  0  0  0  0  0
  178.9480  178.1390  140.8280 C   0  0  0  0  0  2  0  0  0  0  0  0
  183.9550  175.5480  137.3250 C   0  0  2  0  0  3  0  0  0  0  0  0
  178.9310  180.5120  141.5630 C   0  0  0  0  0  1  0  0  0  0  0  0
  185.1970  179.5700  140.0590 C   0  0  0  0  0  2  0  0  0  0  0  0
  187.9230  177.1490  139.5500 C   0  0  0  0  0  1  0  0  0  0  0  0
  184.3920  178.7520  141.0580 C   0  0  2  0  0  3  0  0  0  0  0  0
  183.5390  174.2900  138.0670 C   0  0  0  0  0  2  0  0  0  0  0  0
  185.4400  175.8120  135.2970 C   0  0  0  0  0  3  0  0  0  0  0  0
  185.2450  175.3250  136.5990 C   0  0  0  0  0  0  0  0  0  0  0  0
  186.2660  174.6000  137.2250 C   0  0  0  0  0  3  0  0  0  0  0  0
  188.4570  173.6620  137.1680 F   0  0  0  0  0  0  0  0  0  0  0  0
  187.6610  174.8530  135.2620 C   0  0  0  0  0  3  0  0  0  0  0  0
  187.4720  174.3650  136.5580 C   0  0  0  0  0  0  0  0  0  0  0  0
  186.6450  175.5760  134.6310 C   0  0  0  0  0  3  0  0  0  0  0  0
  188.4300  177.3630  143.3300 C   0  0  0  0  0  1  0  0  0  0  0  0
  187.3260  176.8810  142.6250 O   0  0  0  0  0  0  0  0  0  0  0  0
  1  4  1  0  0  0  0
  2 14  1  0  0  0  0
  3 20  1  6  0  0  0
  3  9  1  0  0  0  0
  4 37  1  6  0  0  0
  5 19  1  0  0  0  0
  5 10  1  0  0  0  0
  6 22  1  6  0  0  0
  7  3  1  0  0  0  0
  7 21  1  0  0  0  0
  8 12  1  0  0  0  0
  9  6  1  0  0  0  0
  9 13  1  0  0  0  0
 10  7  1  0  0  0  0
 11  6  1  0  0  0  0
 12  4  1  0  0  0  0
 13 17  1  0  0  0  0
 15 28  1  0  0  0  0
 15 20  1  0  0  0  0
 16 11  1  0  0  0  0
 17  2  1  0  0  0  0
 18  8  1  0  0  0  0
 18 25  1  0  0  0  0
 19 18  1  0  0  0  0
 20 16  2  0  0  0  0
 21 13  1  0  0  0  0
 21 27  1  0  0  0  0
 22  2  1  0  0  0  0
 23 28  1  0  0  0  0
 23 10  1  0  0  0  0
 24  2  1  0  0  0  0
 25 27  1  0  0  0  0
 26  8  1  0  0  0  0
 27  1  1  0  0  0  0
 29 30  1  0  0  0  0
 30 31  2  0  0  0  0
 30 23  1  0  0  0  0
 33 34  2  0  0  0  0
 34 32  1  0  0  0  0
 34 31  1  0  0  0  0
 35 33  1  0  0  0  0
 35 29  2  0  0  0  0
 37 36  1  0  0  0  0
M  END
>  <MODEL>
8

>  <REMARK>
 VINA RESULT:      -5.1      4.012      9.487
  Name = 
  2 active torsions:
  status: ('A' for Active; 'I' for Inactive)
    1  A    between atoms: C_4  and  O_37
    2  A    between atoms: C_23  and  C_30
                            x       y       z     vdW  Elec       q    Type
                         _______ _______ _______ _____ _____    ______ ____

>  <TORSDO>
F 2

$$$$
=
 OpenBabel11122411223D

 37 43  0  0  1  0  0  0  0  0999 V2000
  188.7290  176.4240  139.0780 C   0  0  0  0  0  2  0  0  0  0  0  0
  183.8360  176.9530  136.0950 C   0  0  0  0  0  0  0  0  0  0  0  0
  186.7470  173.8660  136.6360 C   0  0  1  0  0  3  0  0  0  0  0  0
  189.7810  177.1660  139.9330 C   0  0  2  0  0  3  0  0  0  0  0  0
  189.7930  175.5580  134.6820 S   0  0  0  0  0  0  0  0  0  0  0  0
  184.3960  174.4460  136.0960 C   0  0  2  0  0  3  0  0  0  0  0  0
  188.0520  174.6610  136.8370 C   0  0  1  0  0  3  0  0  0  0  0  0
  191.5990  177.0020  138.0860 N   0  0  0  0  0  0  0  0  0  0  0  0
  185.8240  174.9030  136.0980 C   0  0  1  0  0  3  0  0  0  0  0  0
  189.2990  174.3420  135.9640 C   0  0  1  0  0  3  0  0  0  0  0  0
  184.3340  173.2390  135.3230 O   0  0  0  0  0  0  0  0  0  0  0  0
  191.0340  177.7640  139.2230 C   0  0  0  0  0  2  0  0  0  0  0  0
  186.0810  176.1200  136.9070 C   0  0  2  0  0  3  0  0  0  0  0  0
  183.1820  177.0180  137.4660 C   0  0  0  0  0  1  0  0  0  0  0  0
  187.6210  171.4880  135.8380 C   0  0  0  0  0  2  0  0  0  0  0  0
  185.4120  172.3230  135.2650 C   0  0  0  0  0  3  0  0  0  0  0  0
  185.3490  177.2670  136.2170 C   0  0  0  0  0  2  0  0  0  0  0  0
  190.5930  176.6970  137.0620 C   0  0  2  0  0  3  0  0  0  0  0  0
  191.1360  176.3050  135.6950 C   0  0  0  0  0  2  0  0  0  0  0  0
  186.6100  172.5940  135.8210 C   0  0  0  0  0  0  0  0  0  0  0  0
  187.5930  176.1510  136.8030 C   0  0  1  0  0  3  0  0  0  0  0  0
  183.5690  175.5670  135.4530 C   0  0  0  0  0  2  0  0  0  0  0  0
  189.6420  172.8930  135.6030 C   0  0  2  0  0  3  0  0  0  0  0  0
  183.2000  178.0120  135.2210 C   0  0  0  0  0  1  0  0  0  0  0  0
  189.4600  177.7120  136.9950 C   0  0  0  0  0  2  0  0  0  0  0  0
  192.1280  175.7450  138.5950 C   0  0  0  0  0  1  0  0  0  0  0  0
  188.2900  177.1220  137.7680 C   0  0  2  0  0  3  0  0  0  0  0  0
  188.9380  171.8760  136.4830 C   0  0  0  0  0  2  0  0  0  0  0  0
  191.7750  171.9730  134.6060 C   0  0  0  0  0  3  0  0  0  0  0  0
  191.1230  172.6750  135.6320 C   0  0  0  0  0  0  0  0  0  0  0  0
  191.8650  173.1650  136.7130 C   0  0  0  0  0  3  0  0  0  0  0  0
  193.9610  173.4330  137.8170 F   0  0  0  0  0  0  0  0  0  0  0  0
  193.8910  172.2580  135.7450 C   0  0  0  0  0  3  0  0  0  0  0  0
  193.2470  172.9580  136.7690 C   0  0  0  0  0  0  0  0  0  0  0  0
  193.1550  171.7650  134.6630 C   0  0  0  0  0  3  0  0  0  0  0  0
  190.6410  177.2240  141.9730 C   0  0  0  0  0  1  0  0  0  0  0  0
  190.1820  176.3460  140.9900 O   0  0  0  0  0  0  0  0  0  0  0  0
  1  4  1  0  0  0  0
  2 17  1  0  0  0  0
  2 14  1  0  0  0  0
  3 20  1  6  0  0  0
  3  7  1  0  0  0  0
  4 37  1  1  0  0  0
  5 19  1  0  0  0  0
  5 10  1  0  0  0  0
  6 22  1  6  0  0  0
  6  9  1  0  0  0  0
  8 26  1  0  0  0  0
  8 12  1  0  0  0  0
  9  3  1  0  0  0  0
  9 13  1  0  0  0  0
 10  7  1  0  0  0  0
 11  6  1  0  0  0  0
 12  4  1  0  0  0  0
 15 28  1  0  0  0  0
 16 11  1  0  0  0  0
 16 20  2  0  0  0  0
 17 13  1  0  0  0  0
 18  8  1  0  0  0  0
 19 18  1  0  0  0  0
 20 15  1  0  0  0  0
 21  7  1  0  0  0  0
 21 13  1  0  0  0  0
 21 27  1  0  0  0  0
 22  2  1  0  0  0  0
 23 30  1  0  0  0  0
 23 10  1  0  0  0  0
 23 28  1  0  0  0  0
 24  2  1  0  0  0  0
 25 18  1  0  0  0  0
 25 27  1  0  0  0  0
 27  1  1  0  0  0  0
 29 35  2  0  0  0  0
 29 30  1  0  0  0  0
 30 31  2  0  0  0  0
 31 34  1  0  0  0  0
 33 34  2  0  0  0  0
 34 32  1  0  0  0  0
 35 33  1  0  0  0  0
 37 36  1  0  0  0  0
M  END
>  <MODEL>
9

>  <REMARK>
 VINA RESULT:      -5.1      3.135      8.040
  Name = 
  2 active torsions:
  status: ('A' for Active; 'I' for Inactive)
    1  A    between atoms: C_4  and  O_37
    2  A    between atoms: C_23  and  C_30
                            x       y       z     vdW  Elec       q    Type
                         _______ _______ _______ _____ _____    ______ ____

>  <TORSDO>
F 2

$$$$
