=
 OpenBabel11122411043D

 31 35  0  0  1  0  0  0  0  0999 V2000
  183.5440  178.9710  144.2610 C   0  0  0  0  0  0  0  0  0  0  0  0
  186.9680  178.6430  142.7270 N   0  0  0  0  0  0  0  0  0  0  0  0
  187.8360  177.9740  143.6740 C   0  0  0  0  0  0  0  0  0  0  0  0
  185.2890  177.3050  137.9300 O   0  0  0  0  0  0  0  0  0  0  0  0
  186.5060  177.6200  137.8670 C   0  0  0  0  0  0  0  0  0  0  0  0
  188.3620  177.2320  145.9320 C   0  0  0  0  0  0  0  0  0  0  0  0
  185.5360  178.6980  142.9020 C   0  0  0  0  0  0  0  0  0  0  0  0
  182.7430  178.7440  143.1390 C   0  0  0  0  0  3  0  0  0  0  0  0
  187.5100  177.8820  145.0370 C   0  0  0  0  0  3  0  0  0  0  0  0
  186.6120  178.4120  140.2970 C   0  0  0  0  0  0  0  0  0  0  0  0
  182.9710  179.2070  145.4650 F   0  0  0  0  0  0  0  0  0  0  0  0
  189.3930  177.4460  141.7780 C   0  0  0  0  0  2  0  0  0  0  0  0
  187.9350  177.1280  147.6260 Cl  0  0  0  0  0  0  0  0  0  0  0  0
  185.3360  178.2400  140.4990 N   0  0  0  0  0  0  0  0  0  0  0  0
  187.4640  179.0250  141.3870 C   0  0  2  0  0  3  0  0  0  0  0  0
  187.1850  178.1680  139.0060 N   0  0  0  0  0  2  0  0  0  0  0  0
  184.9370  178.9450  144.1450 C   0  0  0  0  0  3  0  0  0  0  0  0
  189.5510  176.6610  145.4750 C   0  0  0  0  0  3  0  0  0  0  0  0
  184.7250  178.4900  141.7720 C   0  0  0  0  0  0  0  0  0  0  0  0
  183.3320  178.5030  141.8940 C   0  0  0  0  0  3  0  0  0  0  0  0
  188.9690  178.7850  141.1960 C   0  0  0  0  0  2  0  0  0  0  0  0
  189.0450  177.4050  143.2280 C   0  0  0  0  0  0  0  0  0  0  0  0
  189.8900  176.7430  144.1230 C   0  0  0  0  0  3  0  0  0  0  0  0
  189.2590  175.2360  136.8470 C   0  0  1  0  0  3  0  0  0  0  0  0
  187.0020  175.9800  136.0350 C   0  0  0  0  0  2  0  0  0  0  0  0
  189.0520  179.0650  137.2180 C   0  0  0  0  0  1  0  0  0  0  0  0
  189.9290  174.2690  137.5940 O   0  0  0  0  0  1  0  0  0  0  0  0
  187.7650  174.9230  136.8350 C   0  0  0  0  0  2  0  0  0  0  0  0
  188.7620  177.6820  136.6630 C   0  0  2  0  0  3  0  0  0  0  0  0
  187.2510  177.3900  136.5820 C   0  0  2  0  0  3  0  0  0  0  0  0
  189.5100  176.6120  137.4570 C   0  0  0  0  0  2  0  0  0  0  0  0
  1 11  1  0  0  0  0
  2  7  1  0  0  0  0
  2  3  1  0  0  0  0
  3  9  1  0  0  0  0
  5  4  2  0  0  0  0
  5 16  1  0  0  0  0
  6 13  1  0  0  0  0
  7 17  2  0  0  0  0
  8  1  2  0  0  0  0
  9  6  2  0  0  0  0
 10 14  2  0  0  0  0
 10 15  1  0  0  0  0
 12 22  1  0  0  0  0
 14 19  1  0  0  0  0
 15 21  1  6  0  0  0
 15  2  1  0  0  0  0
 16 10  1  0  0  0  0
 17  1  1  0  0  0  0
 18  6  1  0  0  0  0
 19 20  2  0  0  0  0
 19  7  1  0  0  0  0
 20  8  1  0  0  0  0
 21 12  1  0  0  0  0
 22  3  2  0  0  0  0
 22 23  1  0  0  0  0
 23 18  2  0  0  0  0
 24 31  1  0  0  0  0
 24 27  1  1  0  0  0
 25 30  1  0  0  0  0
 25 28  1  0  0  0  0
 28 24  1  0  0  0  0
 29 26  1  1  0  0  0
 29 31  1  0  0  0  0
 30 29  1  0  0  0  0
 30  5  1  1  0  0  0
M  END
>  <MODEL>
1

>  <REMARK>
 VINA RESULT:      -9.2      0.000      0.000
  Name = 
  1 active torsions:
  status: ('A' for Active; 'I' for Inactive)
    1  A    between atoms: C_5  and  C_30
                            x       y       z     vdW  Elec       q    Type
                         _______ _______ _______ _____ _____    ______ ____

>  <TORSDO>
F 1

$$$$
=
 OpenBabel11122411043D

 31 35  0  0  1  0  0  0  0  0999 V2000
  184.8350  178.8330  145.5560 C   0  0  0  0  0  0  0  0  0  0  0  0
  187.2220  178.4860  142.6640 N   0  0  0  0  0  0  0  0  0  0  0  0
  188.3690  177.7150  143.1020 C   0  0  0  0  0  0  0  0  0  0  0  0
  183.5410  177.5740  139.0270 O   0  0  0  0  0  0  0  0  0  0  0  0
  184.6280  177.8440  138.4530 C   0  0  0  0  0  0  0  0  0  0  0  0
  189.7700  176.7870  144.8620 C   0  0  0  0  0  0  0  0  0  0  0  0
  186.0160  178.5830  143.4500 C   0  0  0  0  0  0  0  0  0  0  0  0
  183.6130  178.7210  144.8880 C   0  0  0  0  0  3  0  0  0  0  0  0
  188.6610  177.5350  144.4630 C   0  0  0  0  0  3  0  0  0  0  0  0
  185.8320  178.4490  140.6280 C   0  0  0  0  0  0  0  0  0  0  0  0
  184.8580  179.0020  146.9000 F   0  0  0  0  0  0  0  0  0  0  0  0
  188.9080  177.2680  140.6920 C   0  0  0  0  0  2  0  0  0  0  0  0
  190.1160  176.5740  146.5650 Cl  0  0  0  0  0  0  0  0  0  0  0  0
  184.7610  178.3130  141.3580 N   0  0  0  0  0  0  0  0  0  0  0  0
  187.1120  178.9450  141.2630 C   0  0  2  0  0  3  0  0  0  0  0  0
  185.7700  178.2790  139.2050 N   0  0  0  0  0  2  0  0  0  0  0  0
  186.0340  178.7610  144.8410 C   0  0  0  0  0  3  0  0  0  0  0  0
  190.6020  176.2050  143.9030 C   0  0  0  0  0  3  0  0  0  0  0  0
  184.7830  178.4920  142.7810 C   0  0  0  0  0  0  0  0  0  0  0  0
  183.5850  178.5500  143.5010 C   0  0  0  0  0  3  0  0  0  0  0  0
  188.3650  178.6610  140.4210 C   0  0  0  0  0  2  0  0  0  0  0  0
  189.2220  177.1330  142.1440 C   0  0  0  0  0  0  0  0  0  0  0  0
  190.3240  176.3740  142.5450 C   0  0  0  0  0  3  0  0  0  0  0  0
  185.7580  175.0140  136.2140 C   0  0  1  0  0  3  0  0  0  0  0  0
  183.7990  176.5660  136.4590 C   0  0  0  0  0  2  0  0  0  0  0  0
  187.1110  178.5500  136.9270 C   0  0  0  0  0  1  0  0  0  0  0  0
  186.2480  173.7520  136.5430 O   0  0  0  0  0  1  0  0  0  0  0  0
  184.3560  175.1810  136.7920 C   0  0  0  0  0  2  0  0  0  0  0  0
  186.1580  177.4750  136.4370 C   0  0  2  0  0  3  0  0  0  0  0  0
  184.7240  177.6800  136.9610 C   0  0  2  0  0  3  0  0  0  0  0  0
  186.6950  176.0830  136.7690 C   0  0  0  0  0  2  0  0  0  0  0  0
  1 11  1  0  0  0  0
  2  3  1  0  0  0  0
  2  7  1  0  0  0  0
  3  9  1  0  0  0  0
  5  4  2  0  0  0  0
  5 16  1  0  0  0  0
  6 13  1  0  0  0  0
  7 17  1  0  0  0  0
  8  1  1  0  0  0  0
  9  6  2  0  0  0  0
 10 15  1  0  0  0  0
 10 14  2  0  0  0  0
 12 22  1  0  0  0  0
 14 19  1  0  0  0  0
 15 21  1  6  0  0  0
 15  2  1  0  0  0  0
 16 10  1  0  0  0  0
 17  1  2  0  0  0  0
 18  6  1  0  0  0  0
 19  7  2  0  0  0  0
 19 20  1  0  0  0  0
 20  8  2  0  0  0  0
 21 12  1  0  0  0  0
 22 23  1  0  0  0  0
 22  3  2  0  0  0  0
 23 18  2  0  0  0  0
 24 27  1  1  0  0  0
 24 31  1  0  0  0  0
 24 28  1  0  0  0  0
 25 28  1  0  0  0  0
 25 30  1  0  0  0  0
 29 31  1  0  0  0  0
 29 26  1  1  0  0  0
 29 30  1  0  0  0  0
 30  5  1  1  0  0  0
M  END
>  <MODEL>
2

>  <REMARK>
 VINA RESULT:      -8.8      1.628      2.046
  Name = 
  1 active torsions:
  status: ('A' for Active; 'I' for Inactive)
    1  A    between atoms: C_5  and  C_30
                            x       y       z     vdW  Elec       q    Type
                         _______ _______ _______ _____ _____    ______ ____

>  <TORSDO>
F 1

$$$$
=
 OpenBabel11122411043D

 31 35  0  0  1  0  0  0  0  0999 V2000
  186.6160  178.2640  147.1720 C   0  0  0  0  0  0  0  0  0  0  0  0
  187.7890  178.3370  143.5940 N   0  0  0  0  0  0  0  0  0  0  0  0
  188.9830  177.5240  143.4830 C   0  0  0  0  0  0  0  0  0  0  0  0
  183.0130  177.8960  141.4470 O   0  0  0  0  0  0  0  0  0  0  0  0
  183.8320  178.2530  140.5590 C   0  0  0  0  0  0  0  0  0  0  0  0
  190.8850  176.3780  144.4800 C   0  0  0  0  0  0  0  0  0  0  0  0
  186.9500  178.3150  144.7680 C   0  0  0  0  0  0  0  0  0  0  0  0
  185.2310  178.2340  146.9820 C   0  0  0  0  0  3  0  0  0  0  0  0
  189.7370  177.1630  144.6110 C   0  0  0  0  0  3  0  0  0  0  0  0
  185.7590  178.5660  142.2110 C   0  0  0  0  0  0  0  0  0  0  0  0
  187.1270  178.2480  148.4260 F   0  0  0  0  0  0  0  0  0  0  0  0
  188.6020  177.4150  141.0050 C   0  0  0  0  0  2  0  0  0  0  0  0
  191.8090  175.9380  145.9000 Cl  0  0  0  0  0  0  0  0  0  0  0  0
  185.0180  178.3220  143.2550 N   0  0  0  0  0  0  0  0  0  0  0  0
  187.2010  178.9830  142.4000 C   0  0  2  0  0  3  0  0  0  0  0  0
  185.1840  178.5910  140.8980 N   0  0  0  0  0  2  0  0  0  0  0  0
  187.4740  178.3020  146.0690 C   0  0  0  0  0  3  0  0  0  0  0  0
  191.2920  175.9400  143.2190 C   0  0  0  0  0  3  0  0  0  0  0  0
  185.5560  178.3050  144.5840 C   0  0  0  0  0  0  0  0  0  0  0  0
  184.7000  178.2530  145.6890 C   0  0  0  0  0  3  0  0  0  0  0  0
  188.0560  178.8270  141.1330 C   0  0  0  0  0  2  0  0  0  0  0  0
  189.4110  177.0870  142.2140 C   0  0  0  0  0  0  0  0  0  0  0  0
  190.5520  176.2900  142.0870 C   0  0  0  0  0  3  0  0  0  0  0  0
  180.5250  179.0330  138.8980 C   0  0  1  0  0  3  0  0  0  0  0  0
  182.9380  179.7050  138.7180 C   0  0  0  0  0  2  0  0  0  0  0  0
  182.6810  175.8520  139.1800 C   0  0  0  0  0  1  0  0  0  0  0  0
  179.2970  179.3710  139.4610 O   0  0  0  0  0  1  0  0  0  0  0  0
  181.5740  180.0620  139.3110 C   0  0  0  0  0  2  0  0  0  0  0  0
  182.2900  177.2620  138.7750 C   0  0  2  0  0  3  0  0  0  0  0  0
  183.3780  178.2950  139.1260 C   0  0  2  0  0  3  0  0  0  0  0  0
  180.9320  177.6390  139.3660 C   0  0  0  0  0  2  0  0  0  0  0  0
  1 11  1  0  0  0  0
  2  7  1  0  0  0  0
  3  2  1  0  0  0  0
  3  9  1  0  0  0  0
  5 16  1  0  0  0  0
  5  4  2  0  0  0  0
  6  9  2  0  0  0  0
  6 13  1  0  0  0  0
  7 17  1  0  0  0  0
  8  1  1  0  0  0  0
 10 15  1  0  0  0  0
 10 14  2  0  0  0  0
 12 21  1  0  0  0  0
 12 22  1  0  0  0  0
 14 19  1  0  0  0  0
 15 21  1  6  0  0  0
 15  2  1  0  0  0  0
 16 10  1  0  0  0  0
 17  1  2  0  0  0  0
 18  6  1  0  0  0  0
 19  7  2  0  0  0  0
 19 20  1  0  0  0  0
 20  8  2  0  0  0  0
 22  3  2  0  0  0  0
 23 22  1  0  0  0  0
 23 18  2  0  0  0  0
 24 28  1  0  0  0  0
 24 31  1  0  0  0  0
 24 27  1  1  0  0  0
 25 30  1  0  0  0  0
 25 28  1  0  0  0  0
 29 30  1  0  0  0  0
 29 26  1  1  0  0  0
 29 31  1  0  0  0  0
 30  5  1  1  0  0  0
M  END
>  <MODEL>
3

>  <REMARK>
 VINA RESULT:      -8.7      3.283      4.962
  Name = 
  1 active torsions:
  status: ('A' for Active; 'I' for Inactive)
    1  A    between atoms: C_5  and  C_30
                            x       y       z     vdW  Elec       q    Type
                         _______ _______ _______ _____ _____    ______ ____

>  <TORSDO>
F 1

$$$$
=
 OpenBabel11122411043D

 31 35  0  0  1  0  0  0  0  0999 V2000
  189.3310  177.5620  141.8440 C   0  0  0  0  0  0  0  0  0  0  0  0
  185.7050  177.8630  142.8160 N   0  0  0  0  0  0  0  0  0  0  0  0
  185.6300  178.1690  144.2300 C   0  0  0  0  0  0  0  0  0  0  0  0
  184.2190  180.5430  138.5460 O   0  0  0  0  0  0  0  0  0  0  0  0
  183.1940  180.1140  139.1410 C   0  0  0  0  0  0  0  0  0  0  0  0
  186.6240  178.2580  146.4500 C   0  0  0  0  0  0  0  0  0  0  0  0
  186.9440  177.9330  142.0790 C   0  0  0  0  0  0  0  0  0  0  0  0
  189.3020  178.1530  140.5780 C   0  0  0  0  0  3  0  0  0  0  0  0
  186.7190  177.9550  145.0900 C   0  0  0  0  0  3  0  0  0  0  0  0
  184.5320  178.7340  140.8280 C   0  0  0  0  0  0  0  0  0  0  0  0
  190.5000  177.1000  142.3480 F   0  0  0  0  0  0  0  0  0  0  0  0
  183.2800  178.9700  143.8680 C   0  0  0  0  0  2  0  0  0  0  0  0
  187.9940  177.9840  147.5040 Cl  0  0  0  0  0  0  0  0  0  0  0  0
  185.6780  178.9970  140.2650 N   0  0  0  0  0  0  0  0  0  0  0  0
  184.4770  177.7740  141.9960 C   0  0  2  0  0  3  0  0  0  0  0  0
  183.3100  179.2250  140.2600 N   0  0  0  0  0  2  0  0  0  0  0  0
  188.1570  177.4540  142.5940 C   0  0  0  0  0  3  0  0  0  0  0  0
  185.4390  178.7830  146.9680 C   0  0  0  0  0  3  0  0  0  0  0  0
  186.9170  178.5090  140.7960 C   0  0  0  0  0  0  0  0  0  0  0  0
  188.0960  178.6280  140.0530 C   0  0  0  0  0  3  0  0  0  0  0  0
  183.1810  177.8780  142.8150 C   0  0  0  0  0  2  0  0  0  0  0  0
  184.4350  178.6880  144.7670 C   0  0  0  0  0  0  0  0  0  0  0  0
  184.3470  179.0030  146.1250 C   0  0  0  0  0  3  0  0  0  0  0  0
  179.6690  178.9440  139.8490 C   0  0  1  0  0  3  0  0  0  0  0  0
  180.9880  181.0810  139.8430 C   0  0  0  0  0  2  0  0  0  0  0  0
  181.8820  178.9790  136.6960 C   0  0  0  0  0  1  0  0  0  0  0  0
  179.2160  177.8980  140.6510 O   0  0  0  0  0  1  0  0  0  0  0  0
  180.4650  179.9290  140.7020 C   0  0  0  0  0  2  0  0  0  0  0  0
  181.0650  179.5230  137.8540 C   0  0  2  0  0  3  0  0  0  0  0  0
  181.8400  180.5710  138.6750 C   0  0  2  0  0  3  0  0  0  0  0  0
  180.5400  178.3840  138.7280 C   0  0  0  0  0  2  0  0  0  0  0  0
  1 11  1  0  0  0  0
  1 17  1  0  0  0  0
  2  3  1  0  0  0  0
  3 22  2  0  0  0  0
  3  9  1  0  0  0  0
  4  5  2  0  0  0  0
  5 16  1  0  0  0  0
  6 18  1  0  0  0  0
  6 13  1  0  0  0  0
  7 17  2  0  0  0  0
  7  2  1  0  0  0  0
  8  1  2  0  0  0  0
  9  6  2  0  0  0  0
 10 15  1  0  0  0  0
 12 22  1  0  0  0  0
 14 19  1  0  0  0  0
 14 10  2  0  0  0  0
 15 21  1  1  0  0  0
 15  2  1  0  0  0  0
 16 10  1  0  0  0  0
 19  7  1  0  0  0  0
 20  8  1  0  0  0  0
 20 19  2  0  0  0  0
 21 12  1  0  0  0  0
 22 23  1  0  0  0  0
 23 18  2  0  0  0  0
 24 27  1  1  0  0  0
 24 28  1  0  0  0  0
 25 28  1  0  0  0  0
 29 26  1  6  0  0  0
 29 30  1  0  0  0  0
 29 31  1  0  0  0  0
 30  5  1  1  0  0  0
 30 25  1  0  0  0  0
 31 24  1  0  0  0  0
M  END
>  <MODEL>
4

>  <REMARK>
 VINA RESULT:      -8.5      3.226      6.029
  Name = 
  1 active torsions:
  status: ('A' for Active; 'I' for Inactive)
    1  A    between atoms: C_5  and  C_30
                            x       y       z     vdW  Elec       q    Type
                         _______ _______ _______ _____ _____    ______ ____

>  <TORSDO>
F 1

$$$$
=
 OpenBabel11122411043D

 31 35  0  0  1  0  0  0  0  0999 V2000
  183.9890  179.0260  144.0700 C   0  0  0  0  0  0  0  0  0  0  0  0
  186.9230  178.4800  141.7720 N   0  0  0  0  0  0  0  0  0  0  0  0
  187.9510  177.7620  142.4990 C   0  0  0  0  0  0  0  0  0  0  0  0
  184.0730  177.2290  137.5380 O   0  0  0  0  0  0  0  0  0  0  0  0
  185.2570  177.4670  137.1820 C   0  0  0  0  0  0  0  0  0  0  0  0
  188.9540  176.9980  144.5810 C   0  0  0  0  0  0  0  0  0  0  0  0
  185.5800  178.6230  142.2810 C   0  0  0  0  0  0  0  0  0  0  0  0
  182.9310  178.8440  143.1740 C   0  0  0  0  0  3  0  0  0  0  0  0
  187.9530  177.6960  143.9020 C   0  0  0  0  0  3  0  0  0  0  0  0
  185.9850  178.2610  139.5020 C   0  0  0  0  0  0  0  0  0  0  0  0
  183.7330  179.3020  145.3710 F   0  0  0  0  0  0  0  0  0  0  0  0
  188.9770  177.1300  140.2980 C   0  0  0  0  0  2  0  0  0  0  0  0
  188.9370  176.9270  146.3300 Cl  0  0  0  0  0  0  0  0  0  0  0  0
  184.7860  178.1700  140.0040 N   0  0  0  0  0  0  0  0  0  0  0  0
  187.1070  178.8240  140.3460 C   0  0  2  0  0  3  0  0  0  0  0  0
  186.2190  177.9760  138.1160 N   0  0  0  0  0  2  0  0  0  0  0  0
  185.3090  178.9130  143.6270 C   0  0  0  0  0  3  0  0  0  0  0  0
  189.9640  176.3520  143.8660 C   0  0  0  0  0  3  0  0  0  0  0  0
  184.5120  178.4620  141.3800 C   0  0  0  0  0  0  0  0  0  0  0  0
  183.1910  178.5620  141.8300 C   0  0  0  0  0  3  0  0  0  0  0  0
  188.5070  178.4900  139.8080 C   0  0  0  0  0  2  0  0  0  0  0  0
  188.9820  177.1170  141.7890 C   0  0  0  0  0  0  0  0  0  0  0  0
  189.9750  176.4080  142.4700 C   0  0  0  0  0  3  0  0  0  0  0  0
  184.3820  174.7290  134.7240 C   0  0  1  0  0  3  0  0  0  0  0  0
  184.4540  177.2380  134.8160 C   0  0  0  0  0  2  0  0  0  0  0  0
  187.6350  175.7730  136.5050 C   0  0  0  0  0  1  0  0  0  0  0  0
  183.5590  173.6160  134.8790 O   0  0  0  0  0  1  0  0  0  0  0  0
  183.5690  175.9990  134.9630 C   0  0  0  0  0  2  0  0  0  0  0  0
  186.4420  175.8720  135.5720 C   0  0  2  0  0  3  0  0  0  0  0  0
  185.6590  177.1850  135.7610 C   0  0  2  0  0  3  0  0  0  0  0  0
  185.5420  174.6440  135.7130 C   0  0  0  0  0  2  0  0  0  0  0  0
  1 11  1  0  0  0  0
  2  7  1  0  0  0  0
  2  3  1  0  0  0  0
  3  9  1  0  0  0  0
  5  4  2  0  0  0  0
  5 16  1  0  0  0  0
  6 13  1  0  0  0  0
  7 17  2  0  0  0  0
  8  1  2  0  0  0  0
  9  6  2  0  0  0  0
 10 14  2  0  0  0  0
 10 15  1  0  0  0  0
 12 22  1  0  0  0  0
 14 19  1  0  0  0  0
 15 21  1  6  0  0  0
 15  2  1  0  0  0  0
 16 10  1  0  0  0  0
 17  1  1  0  0  0  0
 18  6  1  0  0  0  0
 19 20  2  0  0  0  0
 19  7  1  0  0  0  0
 20  8  1  0  0  0  0
 21 12  1  0  0  0  0
 22 23  1  0  0  0  0
 22  3  2  0  0  0  0
 23 18  2  0  0  0  0
 24 27  1  1  0  0  0
 24 28  1  0  0  0  0
 24 31  1  0  0  0  0
 25 28  1  0  0  0  0
 25 30  1  0  0  0  0
 29 31  1  0  0  0  0
 29 30  1  0  0  0  0
 29 26  1  1  0  0  0
 30  5  1  1  0  0  0
M  END
>  <MODEL>
5

>  <REMARK>
 VINA RESULT:      -8.4      1.709      2.472
  Name = 
  1 active torsions:
  status: ('A' for Active; 'I' for Inactive)
    1  A    between atoms: C_5  and  C_30
                            x       y       z     vdW  Elec       q    Type
                         _______ _______ _______ _____ _____    ______ ____

>  <TORSDO>
F 1

$$$$
=
 OpenBabel11122411043D

 31 35  0  0  1  0  0  0  0  0999 V2000
  181.5500  178.9330  142.9040 C   0  0  0  0  0  0  0  0  0  0  0  0
  185.2500  178.8030  142.2150 N   0  0  0  0  0  0  0  0  0  0  0  0
  185.9250  178.3340  143.4090 C   0  0  0  0  0  0  0  0  0  0  0  0
  184.8330  176.7870  137.3800 O   0  0  0  0  0  0  0  0  0  0  0  0
  186.0040  177.2190  137.5460 C   0  0  0  0  0  0  0  0  0  0  0  0
  185.9710  177.8990  145.8030 C   0  0  0  0  0  0  0  0  0  0  0  0
  183.8170  178.7250  142.0620 C   0  0  0  0  0  0  0  0  0  0  0  0
  181.0490  178.5040  141.6710 C   0  0  0  0  0  3  0  0  0  0  0  0
  185.3010  178.3560  144.6660 C   0  0  0  0  0  3  0  0  0  0  0  0
  185.4840  178.2750  139.8170 C   0  0  0  0  0  0  0  0  0  0  0  0
  180.6970  179.2370  143.9110 F   0  0  0  0  0  0  0  0  0  0  0  0
  187.9140  177.7700  141.9860 C   0  0  0  0  0  2  0  0  0  0  0  0
  185.1740  177.9340  147.3610 Cl  0  0  0  0  0  0  0  0  0  0  0  0
  184.2130  177.9930  139.7540 N   0  0  0  0  0  0  0  0  0  0  0  0
  186.0110  179.0870  140.9790 C   0  0  2  0  0  3  0  0  0  0  0  0
  186.3570  177.9540  138.7260 N   0  0  0  0  0  2  0  0  0  0  0  0
  182.9290  179.0410  143.1010 C   0  0  0  0  0  3  0  0  0  0  0  0
  187.2750  177.4100  145.6970 C   0  0  0  0  0  3  0  0  0  0  0  0
  183.3070  178.3130  140.8180 C   0  0  0  0  0  0  0  0  0  0  0  0
  181.9270  178.1930  140.6280 C   0  0  0  0  0  3  0  0  0  0  0  0
  187.5340  178.9870  141.1570 C   0  0  0  0  0  2  0  0  0  0  0  0
  187.2450  177.8500  143.3160 C   0  0  0  0  0  0  0  0  0  0  0  0
  187.9090  177.3810  144.4520 C   0  0  0  0  0  3  0  0  0  0  0  0
  189.7840  177.1390  137.5770 C   0  0  1  0  0  3  0  0  0  0  0  0
  187.8670  175.6890  136.8520 C   0  0  0  0  0  2  0  0  0  0  0  0
  187.1810  179.3780  135.8310 C   0  0  0  0  0  1  0  0  0  0  0  0
  190.6780  177.3960  138.6160 O   0  0  0  0  0  1  0  0  0  0  0  0
  188.8700  175.9810  137.9690 C   0  0  0  0  0  2  0  0  0  0  0  0
  187.9620  178.1210  136.1710 C   0  0  2  0  0  3  0  0  0  0  0  0
  187.0410  176.9300  136.4970 C   0  0  2  0  0  3  0  0  0  0  0  0
  188.9640  178.3940  137.2920 C   0  0  0  0  0  2  0  0  0  0  0  0
  1 17  1  0  0  0  0
  1 11  1  0  0  0  0
  2  3  1  0  0  0  0
  3  9  1  0  0  0  0
  4  5  2  0  0  0  0
  5 16  1  0  0  0  0
  6 13  1  0  0  0  0
  7  2  1  0  0  0  0
  7 17  2  0  0  0  0
  8  1  2  0  0  0  0
  9  6  2  0  0  0  0
 10 15  1  0  0  0  0
 12 22  1  0  0  0  0
 14 10  2  0  0  0  0
 14 19  1  0  0  0  0
 15 21  1  1  0  0  0
 15  2  1  0  0  0  0
 16 10  1  0  0  0  0
 18  6  1  0  0  0  0
 19  7  1  0  0  0  0
 20 19  2  0  0  0  0
 20  8  1  0  0  0  0
 21 12  1  0  0  0  0
 22  3  2  0  0  0  0
 22 23  1  0  0  0  0
 23 18  2  0  0  0  0
 24 28  1  0  0  0  0
 24 27  1  1  0  0  0
 25 28  1  0  0  0  0
 29 26  1  1  0  0  0
 29 30  1  0  0  0  0
 29 31  1  0  0  0  0
 30 25  1  0  0  0  0
 30  5  1  1  0  0  0
 31 24  1  0  0  0  0
M  END
>  <MODEL>
6

>  <REMARK>
 VINA RESULT:      -8.4      1.459      1.951
  Name = 
  1 active torsions:
  status: ('A' for Active; 'I' for Inactive)
    1  A    between atoms: C_5  and  C_30
                            x       y       z     vdW  Elec       q    Type
                         _______ _______ _______ _____ _____    ______ ____

>  <TORSDO>
F 1

$$$$
=
 OpenBabel11122411043D

 31 35  0  0  1  0  0  0  0  0999 V2000
  186.3090  178.2850  146.8270 C   0  0  0  0  0  0  0  0  0  0  0  0
  187.6550  178.3960  143.3110 N   0  0  0  0  0  0  0  0  0  0  0  0
  188.8580  177.5900  143.2520 C   0  0  0  0  0  0  0  0  0  0  0  0
  182.9920  177.9500  140.9290 O   0  0  0  0  0  0  0  0  0  0  0  0
  183.8520  178.3190  140.0860 C   0  0  0  0  0  0  0  0  0  0  0  0
  190.7150  176.4450  144.3320 C   0  0  0  0  0  0  0  0  0  0  0  0
  186.7610  178.3590  144.4430 C   0  0  0  0  0  0  0  0  0  0  0  0
  184.9360  178.2490  146.5690 C   0  0  0  0  0  3  0  0  0  0  0  0
  189.5580  177.2230  144.4130 C   0  0  0  0  0  3  0  0  0  0  0  0
  185.6950  178.6270  141.8330 C   0  0  0  0  0  0  0  0  0  0  0  0
  186.7580  178.2610  148.1050 F   0  0  0  0  0  0  0  0  0  0  0  0
  188.6000  177.5020  140.7580 C   0  0  0  0  0  2  0  0  0  0  0  0
  191.5720  175.9970  145.7910 Cl  0  0  0  0  0  0  0  0  0  0  0  0
  184.9050  178.3690  142.8370 N   0  0  0  0  0  0  0  0  0  0  0  0
  187.1230  179.0490  142.0960 C   0  0  2  0  0  3  0  0  0  0  0  0
  185.1840  178.6610  140.4930 N   0  0  0  0  0  2  0  0  0  0  0  0
  187.2200  178.3370  145.7680 C   0  0  0  0  0  3  0  0  0  0  0  0
  191.1860  176.0200  143.0870 C   0  0  0  0  0  3  0  0  0  0  0  0
  185.3770  178.3440  144.1910 C   0  0  0  0  0  0  0  0  0  0  0  0
  184.4690  178.2770  145.2520 C   0  0  0  0  0  3  0  0  0  0  0  0
  188.0400  178.9100  140.8710 C   0  0  0  0  0  2  0  0  0  0  0  0
  189.3500  177.1670  142.0020 C   0  0  0  0  0  0  0  0  0  0  0  0
  190.5000  176.3770  141.9240 C   0  0  0  0  0  3  0  0  0  0  0  0
  182.2640  175.8300  137.7220 C   0  0  1  0  0  3  0  0  0  0  0  0
  181.9560  178.2150  138.4460 C   0  0  0  0  0  2  0  0  0  0  0  0
  185.7380  177.4860  137.9090 C   0  0  0  0  0  1  0  0  0  0  0  0
  181.8500  174.5190  137.9470 O   0  0  0  0  0  1  0  0  0  0  0  0
  181.5090  176.7680  138.6600 C   0  0  0  0  0  2  0  0  0  0  0  0
  184.2330  177.3750  137.7400 C   0  0  2  0  0  3  0  0  0  0  0  0
  183.4690  178.3710  138.6330 C   0  0  2  0  0  3  0  0  0  0  0  0
  183.7680  175.9360  137.9590 C   0  0  0  0  0  2  0  0  0  0  0  0
  1 11  1  0  0  0  0
  2  7  1  0  0  0  0
  3  2  1  0  0  0  0
  3  9  1  0  0  0  0
  5 16  1  0  0  0  0
  5  4  2  0  0  0  0
  6  9  2  0  0  0  0
  6 13  1  0  0  0  0
  7 17  1  0  0  0  0
  8  1  1  0  0  0  0
 10 15  1  0  0  0  0
 10 14  2  0  0  0  0
 12 21  1  0  0  0  0
 12 22  1  0  0  0  0
 14 19  1  0  0  0  0
 15 21  1  6  0  0  0
 15  2  1  0  0  0  0
 16 10  1  0  0  0  0
 17  1  2  0  0  0  0
 18  6  1  0  0  0  0
 19  7  2  0  0  0  0
 19 20  1  0  0  0  0
 20  8  2  0  0  0  0
 22  3  2  0  0  0  0
 23 22  1  0  0  0  0
 23 18  2  0  0  0  0
 24 27  1  1  0  0  0
 24 31  1  0  0  0  0
 24 28  1  0  0  0  0
 25 30  1  0  0  0  0
 25 28  1  0  0  0  0
 29 26  1  1  0  0  0
 29 31  1  0  0  0  0
 29 30  1  0  0  0  0
 30  5  1  1  0  0  0
M  END
>  <MODEL>
7

>  <REMARK>
 VINA RESULT:      -8.3      2.752      3.880
  Name = 
  1 active torsions:
  status: ('A' for Active; 'I' for Inactive)
    1  A    between atoms: C_5  and  C_30
                            x       y       z     vdW  Elec       q    Type
                         _______ _______ _______ _____ _____    ______ ____

>  <TORSDO>
F 1

$$$$
=
 OpenBabel11122411043D

 31 35  0  0  1  0  0  0  0  0999 V2000
  181.2960  178.8580  142.9690 C   0  0  0  0  0  0  0  0  0  0  0  0
  184.9640  178.8220  142.1160 N   0  0  0  0  0  0  0  0  0  0  0  0
  185.7040  178.3810  143.2810 C   0  0  0  0  0  0  0  0  0  0  0  0
  184.3860  176.7580  137.3180 O   0  0  0  0  0  0  0  0  0  0  0  0
  185.5510  177.2230  137.4290 C   0  0  0  0  0  0  0  0  0  0  0  0
  185.8690  177.9660  145.6740 C   0  0  0  0  0  0  0  0  0  0  0  0
  183.5280  178.7050  142.0290 C   0  0  0  0  0  0  0  0  0  0  0  0
  180.7530  178.4060  141.7630 C   0  0  0  0  0  3  0  0  0  0  0  0
  185.1370  178.3960  144.5650 C   0  0  0  0  0  3  0  0  0  0  0  0
  185.1040  178.2820  139.7140 C   0  0  0  0  0  0  0  0  0  0  0  0
  180.4810  179.1470  144.0120 F   0  0  0  0  0  0  0  0  0  0  0  0
  187.6420  177.8600  141.7740 C   0  0  0  0  0  2  0  0  0  0  0  0
  185.1420  177.9910  147.2660 Cl  0  0  0  0  0  0  0  0  0  0  0  0
  183.8400  177.9650  139.7090 N   0  0  0  0  0  0  0  0  0  0  0  0
  185.6610  179.1170  140.8460 C   0  0  2  0  0  3  0  0  0  0  0  0
  185.9370  177.9760  138.5870 N   0  0  0  0  0  2  0  0  0  0  0  0
  182.6790  179.0050  143.1040 C   0  0  0  0  0  3  0  0  0  0  0  0
  187.1790  177.5110  145.5120 C   0  0  0  0  0  3  0  0  0  0  0  0
  182.9750  178.2700  140.8110 C   0  0  0  0  0  0  0  0  0  0  0  0
  181.5910  178.1110  140.6840 C   0  0  0  0  0  3  0  0  0  0  0  0
  187.1920  179.0590  140.9560 C   0  0  0  0  0  2  0  0  0  0  0  0
  187.0310  177.9320  143.1320 C   0  0  0  0  0  0  0  0  0  0  0  0
  187.7580  177.4890  144.2410 C   0  0  0  0  0  3  0  0  0  0  0  0
  186.5300  174.1170  135.5070 C   0  0  1  0  0  3  0  0  0  0  0  0
  185.8570  176.4920  135.0480 C   0  0  0  0  0  2  0  0  0  0  0  0
  188.3710  176.3900  138.0130 C   0  0  0  0  0  1  0  0  0  0  0  0
  186.0590  172.8090  135.6160 O   0  0  0  0  0  1  0  0  0  0  0  0
  185.3710  175.0460  135.1580 C   0  0  0  0  0  2  0  0  0  0  0  0
  187.6730  175.9780  136.7300 C   0  0  2  0  0  3  0  0  0  0  0  0
  186.5480  176.9540  136.3360 C   0  0  2  0  0  3  0  0  0  0  0  0
  187.1730  174.5370  136.8260 C   0  0  0  0  0  2  0  0  0  0  0  0
  1 17  1  0  0  0  0
  1 11  1  0  0  0  0
  2  3  1  0  0  0  0
  3  9  1  0  0  0  0
  4  5  2  0  0  0  0
  5 16  1  0  0  0  0
  6 13  1  0  0  0  0
  7  2  1  0  0  0  0
  7 17  2  0  0  0  0
  8  1  2  0  0  0  0
  9  6  2  0  0  0  0
 10 15  1  0  0  0  0
 12 22  1  0  0  0  0
 14 10  2  0  0  0  0
 14 19  1  0  0  0  0
 15 21  1  1  0  0  0
 15  2  1  0  0  0  0
 16 10  1  0  0  0  0
 18  6  1  0  0  0  0
 19  7  1  0  0  0  0
 20 19  2  0  0  0  0
 20  8  1  0  0  0  0
 21 12  1  0  0  0  0
 22  3  2  0  0  0  0
 22 23  1  0  0  0  0
 23 18  2  0  0  0  0
 24 27  1  1  0  0  0
 24 31  1  0  0  0  0
 25 28  1  0  0  0  0
 25 30  1  0  0  0  0
 28 24  1  0  0  0  0
 29 31  1  0  0  0  0
 29 26  1  1  0  0  0
 30 29  1  0  0  0  0
 30  5  1  1  0  0  0
M  END
>  <MODEL>
8

>  <REMARK>
 VINA RESULT:      -8.2      1.767      2.365
  Name = 
  1 active torsions:
  status: ('A' for Active; 'I' for Inactive)
    1  A    between atoms: C_5  and  C_30
                            x       y       z     vdW  Elec       q    Type
                         _______ _______ _______ _____ _____    ______ ____

>  <TORSDO>
F 1

$$$$
=
 OpenBabel11122411043D

 31 35  0  0  1  0  0  0  0  0999 V2000
  191.2460  177.3730  142.2690 C   0  0  0  0  0  0  0  0  0  0  0  0
  189.8090  177.6420  138.7980 N   0  0  0  0  0  0  0  0  0  0  0  0
  190.4540  176.6570  137.9540 C   0  0  0  0  0  0  0  0  0  0  0  0
  184.8170  178.2530  140.3220 O   0  0  0  0  0  0  0  0  0  0  0  0
  184.9170  178.5620  139.1060 C   0  0  0  0  0  0  0  0  0  0  0  0
  192.2700  175.1030  137.4920 C   0  0  0  0  0  0  0  0  0  0  0  0
  189.9480  177.6320  140.2350 C   0  0  0  0  0  0  0  0  0  0  0  0
  190.0980  177.5970  143.0340 C   0  0  0  0  0  3  0  0  0  0  0  0
  191.6670  176.0510  138.3210 C   0  0  0  0  0  3  0  0  0  0  0  0
  187.4670  178.3620  139.0790 C   0  0  0  0  0  0  0  0  0  0  0  0
  192.4300  177.1330  142.8810 F   0  0  0  0  0  0  0  0  0  0  0  0
  188.5490  176.8880  136.3370 C   0  0  0  0  0  2  0  0  0  0  0  0
  193.7810  174.3600  137.9690 Cl  0  0  0  0  0  0  0  0  0  0  0  0
  187.5480  178.1320  140.3600 N   0  0  0  0  0  0  0  0  0  0  0  0
  188.7340  178.5060  138.2650 C   0  0  2  0  0  3  0  0  0  0  0  0
  186.1990  178.6280  138.4650 N   0  0  0  0  0  2  0  0  0  0  0  0
  191.1720  177.3870  140.8740 C   0  0  0  0  0  3  0  0  0  0  0  0
  191.6660  174.7450  136.2850 C   0  0  0  0  0  3  0  0  0  0  0  0
  188.8000  177.8780  141.0100 C   0  0  0  0  0  0  0  0  0  0  0  0
  188.8750  177.8490  142.4060 C   0  0  0  0  0  3  0  0  0  0  0  0
  188.5120  178.3500  136.7530 C   0  0  0  0  0  2  0  0  0  0  0  0
  189.8610  176.2970  136.7280 C   0  0  0  0  0  0  0  0  0  0  0  0
  190.4590  175.3380  135.9060 C   0  0  0  0  0  3  0  0  0  0  0  0
  181.2610  177.7870  139.6820 C   0  0  1  0  0  3  0  0  0  0  0  0
  182.7090  179.7530  139.0930 C   0  0  0  0  0  2  0  0  0  0  0  0
  183.8510  176.6310  137.0750 C   0  0  0  0  0  1  0  0  0  0  0  0
  180.6420  177.1140  140.7340 O   0  0  0  0  0  1  0  0  0  0  0  0
  182.0060  179.0030  140.2260 C   0  0  0  0  0  2  0  0  0  0  0  0
  182.9320  177.5740  137.8310 C   0  0  2  0  0  3  0  0  0  0  0  0
  183.6650  178.8380  138.3200 C   0  0  2  0  0  3  0  0  0  0  0  0
  182.2270  176.8430  138.9730 C   0  0  0  0  0  2  0  0  0  0  0  0
  1 11  1  0  0  0  0
  1  8  1  0  0  0  0
  2  7  1  0  0  0  0
  3  9  1  0  0  0  0
  3  2  1  0  0  0  0
  5  4  2  0  0  0  0
  6 13  1  0  0  0  0
  6  9  2  0  0  0  0
  7 17  1  0  0  0  0
  7 19  2  0  0  0  0
 10 14  2  0  0  0  0
 12 22  1  0  0  0  0
 12 21  1  0  0  0  0
 14 19  1  0  0  0  0
 15 21  1  6  0  0  0
 15  2  1  0  0  0  0
 15 10  1  0  0  0  0
 16 10  1  0  0  0  0
 16  5  1  0  0  0  0
 17  1  2  0  0  0  0
 18  6  1  0  0  0  0
 19 20  1  0  0  0  0
 20  8  2  0  0  0  0
 22  3  2  0  0  0  0
 23 18  2  0  0  0  0
 23 22  1  0  0  0  0
 24 28  1  0  0  0  0
 24 27  1  1  0  0  0
 25 28  1  0  0  0  0
 29 26  1  1  0  0  0
 29 30  1  0  0  0  0
 29 31  1  0  0  0  0
 30 25  1  0  0  0  0
 30  5  1  1  0  0  0
 31 24  1  0  0  0  0
M  END
>  <MODEL>
9

>  <REMARK>
 VINA RESULT:      -8.0      3.737      6.781
  Name = 
  1 active torsions:
  status: ('A' for Active; 'I' for Inactive)
    1  A    between atoms: C_5  and  C_30
                            x       y       z     vdW  Elec       q    Type
                         _______ _______ _______ _____ _____    ______ ____

>  <TORSDO>
F 1

$$$$
