=
 OpenBabel11122411373D

 37 42  0  0  1  0  0  0  0  0999 V2000
  187.3840  178.2480  142.6100 C   0  0  0  0  0  0  0  0  0  0  0  0
  183.2820  178.8550  142.5590 C   0  0  0  0  0  0  0  0  0  0  0  0
  181.4680  177.1210  140.3490 C   0  0  0  0  0  2  0  0  0  0  0  0
  185.2620  178.7460  143.9330 C   0  0  0  0  0  0  0  0  0  0  0  0
  183.0520  178.8960  141.1920 C   0  0  0  0  0  0  0  0  0  0  0  0
  184.6280  178.8750  142.7190 C   0  0  0  0  0  0  0  0  0  0  0  0
  181.7260  178.6160  140.5300 C   0  0  2  0  0  3  0  0  0  0  0  0
  184.4480  178.6390  145.0770 C   0  0  0  0  0  3  0  0  0  0  0  0
  185.2120  178.8820  141.4990 C   0  0  0  0  0  0  0  0  0  0  0  0
  187.2910  176.7310  142.5610 C   0  0  0  0  0  1  0  0  0  0  0  0
  180.9500  178.6830  143.4960 C   0  0  0  0  0  2  0  0  0  0  0  0
  183.0340  178.6280  144.9380 C   0  0  0  0  0  3  0  0  0  0  0  0
  186.7050  178.8410  141.3430 C   0  0  0  0  0  2  0  0  0  0  0  0
  183.1050  176.8070  138.3980 C   0  0  1  0  0  3  0  0  0  0  0  0
  182.6960  176.3770  139.8100 C   0  0  0  0  0  2  0  0  0  0  0  0
  182.4340  178.7310  143.6610 C   0  0  0  0  0  0  0  0  0  0  0  0
  184.2580  178.8770  140.5390 N   0  0  0  0  0  0  0  0  0  0  0  0
  186.7680  178.7550  143.9490 C   0  0  0  0  0  2  0  0  0  0  0  0
  180.4870  179.3520  141.0790 C   0  0  1  0  0  3  0  0  0  0  0  0
  188.8490  178.6270  142.5870 C   0  0  0  0  0  1  0  0  0  0  0  0
  183.3940  178.3080  138.2360 C   0  0  0  0  0  2  0  0  0  0  0  0
  184.5430  178.8480  139.0980 C   0  0  0  0  0  2  0  0  0  0  0  0
  180.5000  179.7900  142.5520 C   0  0  0  0  0  2  0  0  0  0  0  0
  186.6110  174.6970  136.8080 O   0  0  0  0  0  0  0  0  0  0  0  0
  186.5360  175.9540  136.8010 C   0  0  0  0  0  0  0  0  0  0  0  0
  184.2340  175.9710  137.8860 C   0  0  0  0  0  0  0  0  0  0  0  0
  185.3780  176.6210  137.3230 N   0  0  0  0  0  2  0  0  0  0  0  0
  184.1790  174.7140  137.9690 O   0  0  0  0  0  0  0  0  0  0  0  0
  187.5970  178.1640  136.2270 C   0  0  0  0  0  1  0  0  0  0  0  0
  187.6190  176.7120  136.2650 N   0  0  0  0  0  2  0  0  0  0  0  0
  179.2720  181.4950  140.6740 C   0  0  0  0  0  3  0  0  0  0  0  0
  180.1300  180.5030  140.1950 C   0  0  0  0  0  0  0  0  0  0  0  0
  180.6340  180.5940  138.8910 C   0  0  0  0  0  3  0  0  0  0  0  0
  180.7960  181.7910  136.7070 C   0  0  0  0  0  1  0  0  0  0  0  0
  179.4340  182.6350  138.5800 N   0  0  0  0  0  0  0  0  0  0  0  0
  180.2690  181.6800  138.0920 C   0  0  0  0  0  0  0  0  0  0  0  0
  178.9320  182.5660  139.8430 C   0  0  0  0  0  3  0  0  0  0  0  0
  1 18  1  0  0  0  0
  2  6  1  0  0  0  0
  2 16  1  0  0  0  0
  4 18  1  0  0  0  0
  4  8  2  0  0  0  0
  5  2  2  0  0  0  0
  6  4  1  0  0  0  0
  7  3  1  1  0  0  0
  7 19  1  0  0  0  0
  7  5  1  0  0  0  0
  9  6  2  0  0  0  0
 10  1  1  0  0  0  0
 11 16  1  0  0  0  0
 12  8  1  0  0  0  0
 13  9  1  0  0  0  0
 13  1  1  0  0  0  0
 14 26  1  1  0  0  0
 14 15  1  0  0  0  0
 15  3  1  0  0  0  0
 16 12  2  0  0  0  0
 17  5  1  0  0  0  0
 17  9  1  0  0  0  0
 19 32  1  6  0  0  0
 19 23  1  0  0  0  0
 20  1  1  0  0  0  0
 21 14  1  0  0  0  0
 21 22  1  0  0  0  0
 22 17  1  0  0  0  0
 23 11  1  0  0  0  0
 25 24  2  0  0  0  0
 25 27  1  0  0  0  0
 26 28  2  0  0  0  0
 27 26  1  0  0  0  0
 29 30  1  0  0  0  0
 30 25  1  0  0  0  0
 32 31  1  0  0  0  0
 33 32  2  0  0  0  0
 34 36  1  0  0  0  0
 35 37  1  0  0  0  0
 36 35  2  0  0  0  0
 36 33  1  0  0  0  0
 37 31  2  0  0  0  0
M  END
>  <MODEL>
1

>  <REMARK>
 VINA RESULT:      -8.1      0.000      0.000
  Name = 
  2 active torsions:
  status: ('A' for Active; 'I' for Inactive)
    1  A    between atoms: C_8  and  C_18
    2  A    between atoms: C_23  and  C_30
                            x       y       z     vdW  Elec       q    Type
                         _______ _______ _______ _____ _____    ______ ____

>  <TORSDO>
F 2

$$$$
=
 OpenBabel11122411373D

 37 42  0  0  1  0  0  0  0  0999 V2000
  187.3540  178.2480  142.5940 C   0  0  0  0  0  0  0  0  0  0  0  0
  183.2530  178.8510  142.4900 C   0  0  0  0  0  0  0  0  0  0  0  0
  181.4650  177.0980  140.2730 C   0  0  0  0  0  2  0  0  0  0  0  0
  185.2160  178.7550  143.8880 C   0  0  0  0  0  0  0  0  0  0  0  0
  183.0380  178.8810  141.1210 C   0  0  0  0  0  0  0  0  0  0  0  0
  184.5960  178.8740  142.6660 C   0  0  0  0  0  0  0  0  0  0  0  0
  181.7200  178.5950  140.4460 C   0  0  2  0  0  3  0  0  0  0  0  0
  184.3890  178.6550  145.0230 C   0  0  0  0  0  3  0  0  0  0  0  0
  185.1950  178.8720  141.4530 C   0  0  0  0  0  0  0  0  0  0  0  0
  187.2620  176.7310  142.5560 C   0  0  0  0  0  1  0  0  0  0  0  0
  180.9100  178.6850  143.4020 C   0  0  0  0  0  2  0  0  0  0  0  0
  182.9770  178.6420  144.8680 C   0  0  0  0  0  3  0  0  0  0  0  0
  186.6900  178.8310  141.3150 C   0  0  0  0  0  2  0  0  0  0  0  0
  183.1260  176.7710  138.3440 C   0  0  1  0  0  3  0  0  0  0  0  0
  182.7000  176.3510  139.7550 C   0  0  0  0  0  2  0  0  0  0  0  0
  182.3920  178.7350  143.5840 C   0  0  0  0  0  0  0  0  0  0  0  0
  184.2520  178.8590  140.4820 N   0  0  0  0  0  0  0  0  0  0  0  0
  186.7230  178.7650  143.9220 C   0  0  0  0  0  2  0  0  0  0  0  0
  180.4740  179.3340  140.9750 C   0  0  1  0  0  3  0  0  0  0  0  0
  188.8180  178.6280  142.5850 C   0  0  0  0  0  1  0  0  0  0  0  0
  183.4160  178.2710  138.1740 C   0  0  0  0  0  2  0  0  0  0  0  0
  184.5530  178.8180  139.0450 C   0  0  0  0  0  2  0  0  0  0  0  0
  180.4700  179.7830  142.4440 C   0  0  0  0  0  2  0  0  0  0  0  0
  186.2000  173.9980  136.8830 O   0  0  0  0  0  0  0  0  0  0  0  0
  185.0240  173.6170  137.1220 C   0  0  0  0  0  0  0  0  0  0  0  0
  184.2610  175.9320  137.8510 C   0  0  0  0  0  0  0  0  0  0  0  0
  184.0370  174.5410  137.6020 N   0  0  0  0  0  2  0  0  0  0  0  0
  185.3900  176.4540  137.6440 O   0  0  0  0  0  0  0  0  0  0  0  0
  183.3430  171.7420  137.1620 C   0  0  0  0  0  1  0  0  0  0  0  0
  184.6810  172.2490  136.9080 N   0  0  0  0  0  2  0  0  0  0  0  0
  179.2630  181.4730  140.5390 C   0  0  0  0  0  3  0  0  0  0  0  0
  180.1270  180.4780  140.0780 C   0  0  0  0  0  0  0  0  0  0  0  0
  180.6450  180.5590  138.7790 C   0  0  0  0  0  3  0  0  0  0  0  0
  180.8310  181.7380  136.5870 C   0  0  0  0  0  1  0  0  0  0  0  0
  179.4480  182.5970  138.4380 N   0  0  0  0  0  0  0  0  0  0  0  0
  180.2890  181.6380  137.9670 C   0  0  0  0  0  0  0  0  0  0  0  0
  178.9310  182.5370  139.6960 C   0  0  0  0  0  3  0  0  0  0  0  0
  1 18  1  0  0  0  0
  2  6  1  0  0  0  0
  2 16  1  0  0  0  0
  4 18  1  0  0  0  0
  4  8  2  0  0  0  0
  5  2  2  0  0  0  0
  6  4  1  0  0  0  0
  7  3  1  1  0  0  0
  7 19  1  0  0  0  0
  7  5  1  0  0  0  0
  9  6  2  0  0  0  0
 10  1  1  0  0  0  0
 11 16  1  0  0  0  0
 12  8  1  0  0  0  0
 13  9  1  0  0  0  0
 13  1  1  0  0  0  0
 14 26  1  1  0  0  0
 14 15  1  0  0  0  0
 15  3  1  0  0  0  0
 16 12  2  0  0  0  0
 17  5  1  0  0  0  0
 17  9  1  0  0  0  0
 19 32  1  6  0  0  0
 19 23  1  0  0  0  0
 20  1  1  0  0  0  0
 21 14  1  0  0  0  0
 21 22  1  0  0  0  0
 22 17  1  0  0  0  0
 23 11  1  0  0  0  0
 24 25  2  0  0  0  0
 25 27  1  0  0  0  0
 27 26  1  0  0  0  0
 28 26  2  0  0  0  0
 30 25  1  0  0  0  0
 30 29  1  0  0  0  0
 32 31  1  0  0  0  0
 33 32  2  0  0  0  0
 34 36  1  0  0  0  0
 35 37  1  0  0  0  0
 36 35  2  0  0  0  0
 36 33  1  0  0  0  0
 37 31  2  0  0  0  0
M  END
>  <MODEL>
2

>  <REMARK>
 VINA RESULT:      -7.9      1.246      1.714
  Name = 
  2 active torsions:
  status: ('A' for Active; 'I' for Inactive)
    1  A    between atoms: C_8  and  C_18
    2  A    between atoms: C_23  and  C_30
                            x       y       z     vdW  Elec       q    Type
                         _______ _______ _______ _____ _____    ______ ____

>  <TORSDO>
F 2

$$$$
=
 OpenBabel11122411373D

 37 42  0  0  1  0  0  0  0  0999 V2000
  187.9220  177.8830  137.8710 C   0  0  0  0  0  0  0  0  0  0  0  0
  184.8310  178.3550  140.5930 C   0  0  0  0  0  0  0  0  0  0  0  0
  182.1200  176.4290  140.2390 C   0  0  0  0  0  2  0  0  0  0  0  0
  187.2210  178.3960  140.2670 C   0  0  0  0  0  0  0  0  0  0  0  0
  183.7370  178.3030  139.7430 C   0  0  0  0  0  0  0  0  0  0  0  0
  185.9280  178.4280  139.8000 C   0  0  0  0  0  0  0  0  0  0  0  0
  182.3350  177.9410  140.1600 C   0  0  2  0  0  3  0  0  0  0  0  0
  187.4010  178.3350  141.6620 C   0  0  0  0  0  3  0  0  0  0  0  0
  185.5340  178.3770  138.5070 C   0  0  0  0  0  0  0  0  0  0  0  0
  187.9210  176.3640  137.9350 C   0  0  0  0  0  1  0  0  0  0  0  0
  183.7600  178.1690  142.8660 C   0  0  0  0  0  2  0  0  0  0  0  0
  186.2680  178.2700  142.5170 C   0  0  0  0  0  3  0  0  0  0  0  0
  186.5300  178.3730  137.3820 C   0  0  0  0  0  2  0  0  0  0  0  0
  182.0300  176.0460  137.7030 C   0  0  1  0  0  3  0  0  0  0  0  0
  182.7090  175.6920  139.0300 C   0  0  0  0  0  2  0  0  0  0  0  0
  184.9590  178.2740  141.9810 C   0  0  0  0  0  0  0  0  0  0  0  0
  184.1850  178.2820  138.4460 N   0  0  0  0  0  0  0  0  0  0  0  0
  188.3390  178.4530  139.2590 C   0  0  0  0  0  2  0  0  0  0  0  0
  181.7450  178.6700  141.3840 C   0  0  1  0  0  3  0  0  0  0  0  0
  188.9590  178.3060  136.8520 C   0  0  0  0  0  1  0  0  0  0  0  0
  182.0350  177.5420  137.3510 C   0  0  0  0  0  2  0  0  0  0  0  0
  183.4250  178.1710  137.1940 C   0  0  0  0  0  2  0  0  0  0  0  0
  182.7190  179.1990  142.4490 C   0  0  0  0  0  2  0  0  0  0  0  0
  183.9050  173.4880  134.6670 O   0  0  0  0  0  0  0  0  0  0  0  0
  184.3950  173.6150  135.8200 C   0  0  0  0  0  0  0  0  0  0  0  0
  182.5700  175.2150  136.5830 C   0  0  0  0  0  0  0  0  0  0  0  0
  183.7660  174.4600  136.7940 N   0  0  0  0  0  2  0  0  0  0  0  0
  181.9640  175.1730  135.4770 O   0  0  0  0  0  0  0  0  0  0  0  0
  186.2060  173.0070  137.4610 C   0  0  0  0  0  1  0  0  0  0  0  0
  185.5890  172.9070  136.1500 N   0  0  0  0  0  2  0  0  0  0  0  0
  179.8460  180.2260  141.8380 C   0  0  0  0  0  3  0  0  0  0  0  0
  180.8100  179.7510  140.9470 C   0  0  0  0  0  0  0  0  0  0  0  0
  180.8800  180.2860  139.6540 C   0  0  0  0  0  3  0  0  0  0  0  0
  180.0450  181.8650  137.9110 C   0  0  0  0  0  1  0  0  0  0  0  0
  179.0540  181.7370  140.1650 N   0  0  0  0  0  0  0  0  0  0  0  0
  179.9830  181.2880  139.2790 C   0  0  0  0  0  0  0  0  0  0  0  0
  178.9670  181.2310  141.4250 C   0  0  0  0  0  3  0  0  0  0  0  0
  1 10  1  0  0  0  0
  1 18  1  0  0  0  0
  2 16  1  0  0  0  0
  4  8  2  0  0  0  0
  5  7  1  0  0  0  0
  5  2  2  0  0  0  0
  6  4  1  0  0  0  0
  6  2  1  0  0  0  0
  7  3  1  1  0  0  0
  7 19  1  0  0  0  0
  8 12  1  0  0  0  0
  9  6  2  0  0  0  0
 13  1  1  0  0  0  0
 13  9  1  0  0  0  0
 14 26  1  6  0  0  0
 14 15  1  0  0  0  0
 15  3  1  0  0  0  0
 16 12  2  0  0  0  0
 16 11  1  0  0  0  0
 17  9  1  0  0  0  0
 17  5  1  0  0  0  0
 18  4  1  0  0  0  0
 19 32  1  6  0  0  0
 19 23  1  0  0  0  0
 20  1  1  0  0  0  0
 21 14  1  0  0  0  0
 22 21  1  0  0  0  0
 22 17  1  0  0  0  0
 23 11  1  0  0  0  0
 24 25  2  0  0  0  0
 25 30  1  0  0  0  0
 25 27  1  0  0  0  0
 26 27  1  0  0  0  0
 28 26  2  0  0  0  0
 30 29  1  0  0  0  0
 32 31  2  0  0  0  0
 33 32  1  0  0  0  0
 34 36  1  0  0  0  0
 35 37  2  0  0  0  0
 36 33  2  0  0  0  0
 36 35  1  0  0  0  0
 37 31  1  0  0  0  0
M  END
>  <MODEL>
3

>  <REMARK>
 VINA RESULT:      -7.5      1.822      3.118
  Name = 
  2 active torsions:
  status: ('A' for Active; 'I' for Inactive)
    1  A    between atoms: C_8  and  C_18
    2  A    between atoms: C_23  and  C_30
                            x       y       z     vdW  Elec       q    Type
                         _______ _______ _______ _____ _____    ______ ____

>  <TORSDO>
F 2

$$$$
=
 OpenBabel11122411373D

 37 42  0  0  1  0  0  0  0  0999 V2000
  179.6590  181.6180  138.3920 C   0  0  0  0  0  0  0  0  0  0  0  0
  181.8330  178.5070  136.7230 C   0  0  0  0  0  0  0  0  0  0  0  0
  183.3130  176.3390  138.7960 C   0  0  0  0  0  2  0  0  0  0  0  0
  179.9060  179.9390  136.4890 C   0  0  0  0  0  0  0  0  0  0  0  0
  182.9450  178.5050  137.5520 C   0  0  0  0  0  0  0  0  0  0  0  0
  181.1320  179.6260  137.0280 C   0  0  0  0  0  0  0  0  0  0  0  0
  183.8610  177.3260  137.7660 C   0  0  2  0  0  3  0  0  0  0  0  0
  179.3820  179.0580  135.5250 C   0  0  0  0  0  3  0  0  0  0  0  0
  181.7600  180.2720  138.0380 C   0  0  0  0  0  0  0  0  0  0  0  0
  178.9310  180.7420  139.3980 C   0  0  0  0  0  1  0  0  0  0  0  0
  182.0960  176.3440  135.4590 C   0  0  0  0  0  2  0  0  0  0  0  0
  180.1030  177.8830  135.1770 C   0  0  0  0  0  3  0  0  0  0  0  0
  181.1900  181.5210  138.6460 C   0  0  0  0  0  2  0  0  0  0  0  0
  183.8320  177.7880  140.8490 C   0  0  1  0  0  3  0  0  0  0  0  0
  182.7640  177.0410  140.0430 C   0  0  0  0  0  2  0  0  0  0  0  0
  181.3460  177.5930  135.7860 C   0  0  0  0  0  0  0  0  0  0  0  0
  182.8730  179.5870  138.3910 N   0  0  0  0  0  0  0  0  0  0  0  0
  179.2330  181.2050  136.9510 C   0  0  0  0  0  2  0  0  0  0  0  0
  184.4030  176.6090  136.5120 C   0  0  1  0  0  3  0  0  0  0  0  0
  179.2290  183.0510  138.6220 C   0  0  0  0  0  1  0  0  0  0  0  0
  184.6180  178.8470  140.0580 C   0  0  0  0  0  2  0  0  0  0  0  0
  183.7730  179.9890  139.4800 C   0  0  0  0  0  2  0  0  0  0  0  0
  183.5650  176.6690  135.2260 C   0  0  0  0  0  2  0  0  0  0  0  0
  182.5130  179.3980  144.7150 O   0  0  0  0  0  0  0  0  0  0  0  0
  183.6790  178.9520  144.5460 C   0  0  0  0  0  0  0  0  0  0  0  0
  183.2590  178.3550  142.1090 C   0  0  0  0  0  0  0  0  0  0  0  0
  184.0850  178.4270  143.2740 N   0  0  0  0  0  2  0  0  0  0  0  0
  182.0710  178.7780  142.1290 O   0  0  0  0  0  0  0  0  0  0  0  0
  185.9550  178.4770  145.5130 C   0  0  0  0  0  1  0  0  0  0  0  0
  184.5960  178.9740  145.6390 N   0  0  0  0  0  2  0  0  0  0  0  0
  186.3250  176.9060  134.9470 C   0  0  0  0  0  3  0  0  0  0  0  0
  185.8110  177.0290  136.2390 C   0  0  0  0  0  0  0  0  0  0  0  0
  186.6240  177.5340  137.2620 C   0  0  0  0  0  3  0  0  0  0  0  0
  188.8130  178.4440  138.0440 C   0  0  0  0  0  1  0  0  0  0  0  0
  188.4170  177.7800  135.7030 N   0  0  0  0  0  0  0  0  0  0  0  0
  187.9380  177.9070  136.9700 C   0  0  0  0  0  0  0  0  0  0  0  0
  187.6440  177.2910  134.6950 C   0  0  0  0  0  3  0  0  0  0  0  0
  1 20  1  0  0  0  0
  1 13  1  0  0  0  0
  1 10  1  0  0  0  0
  2  6  1  0  0  0  0
  2  5  2  0  0  0  0
  3 15  1  0  0  0  0
  4 18  1  0  0  0  0
  4  6  1  0  0  0  0
  5  7  1  0  0  0  0
  5 17  1  0  0  0  0
  6  9  2  0  0  0  0
  7  3  1  1  0  0  0
  8  4  2  0  0  0  0
  9 17  1  0  0  0  0
  9 13  1  0  0  0  0
 11 16  1  0  0  0  0
 12  8  1  0  0  0  0
 12 16  2  0  0  0  0
 14 26  1  1  0  0  0
 15 14  1  0  0  0  0
 16  2  1  0  0  0  0
 17 22  1  0  0  0  0
 18  1  1  0  0  0  0
 19 32  1  6  0  0  0
 19  7  1  0  0  0  0
 21 14  1  0  0  0  0
 22 21  1  0  0  0  0
 23 11  1  0  0  0  0
 23 19  1  0  0  0  0
 25 24  2  0  0  0  0
 25 30  1  0  0  0  0
 26 28  2  0  0  0  0
 26 27  1  0  0  0  0
 27 25  1  0  0  0  0
 29 30  1  0  0  0  0
 31 32  1  0  0  0  0
 32 33  2  0  0  0  0
 35 36  2  0  0  0  0
 36 33  1  0  0  0  0
 36 34  1  0  0  0  0
 37 31  2  0  0  0  0
 37 35  1  0  0  0  0
M  END
>  <MODEL>
4

>  <REMARK>
 VINA RESULT:      -7.4      2.671      7.834
  Name = 
  2 active torsions:
  status: ('A' for Active; 'I' for Inactive)
    1  A    between atoms: C_8  and  C_18
    2  A    between atoms: C_23  and  C_30
                            x       y       z     vdW  Elec       q    Type
                         _______ _______ _______ _____ _____    ______ ____

>  <TORSDO>
F 2

$$$$
=
 OpenBabel11122411373D

 37 42  0  0  1  0  0  0  0  0999 V2000
  189.1720  176.6940  136.8350 C   0  0  0  0  0  0  0  0  0  0  0  0
  185.7750  178.1140  138.7410 C   0  0  0  0  0  0  0  0  0  0  0  0
  183.0030  176.2470  138.6050 C   0  0  0  0  0  2  0  0  0  0  0  0
  188.1830  177.9850  138.7980 C   0  0  0  0  0  0  0  0  0  0  0  0
  184.8100  177.8120  137.7920 C   0  0  0  0  0  0  0  0  0  0  0  0
  186.9740  177.8940  138.1490 C   0  0  0  0  0  0  0  0  0  0  0  0
  183.3390  177.6420  138.0790 C   0  0  2  0  0  3  0  0  0  0  0  0
  188.1610  178.3810  140.1490 C   0  0  0  0  0  3  0  0  0  0  0  0
  186.7630  177.4300  136.8960 C   0  0  0  0  0  0  0  0  0  0  0  0
  189.0470  175.2820  137.3830 C   0  0  0  0  0  1  0  0  0  0  0  0
  184.3850  178.7130  140.7560 C   0  0  0  0  0  2  0  0  0  0  0  0
  186.9180  178.6310  140.7910 C   0  0  0  0  0  3  0  0  0  0  0  0
  187.9020  177.0320  136.0030 C   0  0  0  0  0  2  0  0  0  0  0  0
  183.2400  175.0530  136.3450 C   0  0  1  0  0  3  0  0  0  0  0  0
  183.6990  175.1390  137.8050 C   0  0  0  0  0  2  0  0  0  0  0  0
  185.7010  178.4910  140.0840 C   0  0  0  0  0  0  0  0  0  0  0  0
  185.4320  177.3540  136.6590 N   0  0  0  0  0  0  0  0  0  0  0  0
  189.4320  177.6790  138.0140 C   0  0  0  0  0  2  0  0  0  0  0  0
  182.6410  178.7490  138.8960 C   0  0  1  0  0  3  0  0  0  0  0  0
  190.3700  176.7330  135.9100 C   0  0  0  0  0  1  0  0  0  0  0  0
  183.4060  176.3490  135.5360 C   0  0  0  0  0  2  0  0  0  0  0  0
  184.8480  176.8560  135.4060 C   0  0  0  0  0  2  0  0  0  0  0  0
  183.4930  179.5740  139.8720 C   0  0  0  0  0  2  0  0  0  0  0  0
  185.3640  171.6340  134.5940 O   0  0  0  0  0  0  0  0  0  0  0  0
  185.7940  172.2250  135.6180 C   0  0  0  0  0  0  0  0  0  0  0  0
  183.8670  173.8870  135.6510 C   0  0  0  0  0  0  0  0  0  0  0  0
  185.0840  173.3430  136.1710 N   0  0  0  0  0  2  0  0  0  0  0  0
  183.3160  173.3850  134.6330 O   0  0  0  0  0  0  0  0  0  0  0  0
  187.5520  172.4060  137.4130 C   0  0  0  0  0  1  0  0  0  0  0  0
  187.0010  171.7710  136.2290 N   0  0  0  0  0  2  0  0  0  0  0  0
  181.2450  179.1160  136.8580 C   0  0  0  0  0  3  0  0  0  0  0  0
  181.8600  179.6480  137.9930 C   0  0  0  0  0  0  0  0  0  0  0  0
  181.7470  181.0190  138.2630 C   0  0  0  0  0  3  0  0  0  0  0  0
  180.8880  183.2840  137.6640 C   0  0  0  0  0  1  0  0  0  0  0  0
  180.4250  181.2880  136.2930 N   0  0  0  0  0  0  0  0  0  0  0  0
  181.0170  181.8290  137.3910 C   0  0  0  0  0  0  0  0  0  0  0  0
  180.5230  179.9610  136.0110 C   0  0  0  0  0  3  0  0  0  0  0  0
  1 10  1  0  0  0  0
  1 18  1  0  0  0  0
  2 16  1  0  0  0  0
  4  8  2  0  0  0  0
  5  7  1  0  0  0  0
  5  2  2  0  0  0  0
  6  2  1  0  0  0  0
  6  4  1  0  0  0  0
  7  3  1  1  0  0  0
  7 19  1  0  0  0  0
  8 12  1  0  0  0  0
  9  6  2  0  0  0  0
 13  1  1  0  0  0  0
 13  9  1  0  0  0  0
 14 26  1  6  0  0  0
 14 15  1  0  0  0  0
 15  3  1  0  0  0  0
 16 11  1  0  0  0  0
 16 12  2  0  0  0  0
 17  9  1  0  0  0  0
 17  5  1  0  0  0  0
 18  4  1  0  0  0  0
 19 32  1  6  0  0  0
 19 23  1  0  0  0  0
 20  1  1  0  0  0  0
 21 14  1  0  0  0  0
 22 21  1  0  0  0  0
 22 17  1  0  0  0  0
 23 11  1  0  0  0  0
 24 25  2  0  0  0  0
 25 27  1  0  0  0  0
 25 30  1  0  0  0  0
 26 27  1  0  0  0  0
 28 26  2  0  0  0  0
 30 29  1  0  0  0  0
 31 32  1  0  0  0  0
 32 33  2  0  0  0  0
 35 36  2  0  0  0  0
 36 34  1  0  0  0  0
 36 33  1  0  0  0  0
 37 35  1  0  0  0  0
 37 31  2  0  0  0  0
M  END
>  <MODEL>
5

>  <REMARK>
 VINA RESULT:      -6.9      2.642      4.464
  Name = 
  2 active torsions:
  status: ('A' for Active; 'I' for Inactive)
    1  A    between atoms: C_8  and  C_18
    2  A    between atoms: C_23  and  C_30
                            x       y       z     vdW  Elec       q    Type
                         _______ _______ _______ _____ _____    ______ ____

>  <TORSDO>
F 2

$$$$
=
 OpenBabel11122411373D

 37 42  0  0  1  0  0  0  0  0999 V2000
  188.9380  177.8580  139.3160 C   0  0  0  0  0  0  0  0  0  0  0  0
  184.8500  178.4520  139.6790 C   0  0  0  0  0  0  0  0  0  0  0  0
  182.8090  176.3000  138.1330 C   0  0  0  0  0  2  0  0  0  0  0  0
  186.9930  178.6260  140.7740 C   0  0  0  0  0  0  0  0  0  0  0  0
  184.4450  178.2080  138.3750 C   0  0  0  0  0  0  0  0  0  0  0  0
  186.2040  178.5010  139.6530 C   0  0  0  0  0  0  0  0  0  0  0  0
  183.0520  177.8000  137.9660 C   0  0  2  0  0  3  0  0  0  0  0  0
  186.3360  178.7610  142.0120 C   0  0  0  0  0  3  0  0  0  0  0  0
  186.6260  178.2530  138.3920 C   0  0  0  0  0  0  0  0  0  0  0  0
  188.8770  176.3640  139.5930 C   0  0  0  0  0  1  0  0  0  0  0  0
  182.6640  178.4850  140.9300 C   0  0  0  0  0  2  0  0  0  0  0  0
  184.9170  178.7250  142.0650 C   0  0  0  0  0  3  0  0  0  0  0  0
  188.0870  178.1760  138.0530 C   0  0  0  0  0  2  0  0  0  0  0  0
  184.1890  175.5840  136.0910 C   0  0  1  0  0  3  0  0  0  0  0  0
  183.9750  175.4580  137.6030 C   0  0  0  0  0  2  0  0  0  0  0  0
  184.1550  178.5620  140.8840 C   0  0  0  0  0  0  0  0  0  0  0  0
  185.5560  178.0510  137.5870 N   0  0  0  0  0  0  0  0  0  0  0  0
  188.4880  178.6340  140.5900 C   0  0  0  0  0  2  0  0  0  0  0  0
  181.8760  178.6380  138.5090 C   0  0  1  0  0  3  0  0  0  0  0  0
  190.3780  178.2200  139.0220 C   0  0  0  0  0  1  0  0  0  0  0  0
  184.4170  177.0180  135.5860 C   0  0  0  0  0  2  0  0  0  0  0  0
  185.6540  177.7220  136.1600 C   0  0  0  0  0  2  0  0  0  0  0  0
  182.0680  179.3720  139.8450 C   0  0  0  0  0  2  0  0  0  0  0  0
  187.5920  173.1760  134.7160 O   0  0  0  0  0  0  0  0  0  0  0  0
  187.6990  174.4130  134.9290 C   0  0  0  0  0  0  0  0  0  0  0  0
  185.2620  174.6560  135.6190 C   0  0  0  0  0  0  0  0  0  0  0  0
  186.5720  175.1790  135.3750 N   0  0  0  0  0  2  0  0  0  0  0  0
  185.0140  173.4300  135.4570 O   0  0  0  0  0  0  0  0  0  0  0  0
  189.1540  176.4690  134.9510 C   0  0  0  0  0  1  0  0  0  0  0  0
  188.9600  175.0470  134.7220 N   0  0  0  0  0  2  0  0  0  0  0  0
  181.1220  179.1020  136.1750 C   0  0  0  0  0  3  0  0  0  0  0  0
  181.3800  179.5800  137.4610 C   0  0  0  0  0  0  0  0  0  0  0  0
  181.1800  180.9370  137.7470 C   0  0  0  0  0  3  0  0  0  0  0  0
  180.5090  183.2300  137.0270 C   0  0  0  0  0  1  0  0  0  0  0  0
  180.4780  181.3000  135.4940 N   0  0  0  0  0  0  0  0  0  0  0  0
  180.7250  181.7890  136.7380 C   0  0  0  0  0  0  0  0  0  0  0  0
  180.6660  179.9860  135.1930 C   0  0  0  0  0  3  0  0  0  0  0  0
  1 10  1  0  0  0  0
  1 18  1  0  0  0  0
  2 16  1  0  0  0  0
  4  8  2  0  0  0  0
  5  2  2  0  0  0  0
  6  2  1  0  0  0  0
  6  4  1  0  0  0  0
  7  3  1  1  0  0  0
  7  5  1  0  0  0  0
  7 19  1  0  0  0  0
  8 12  1  0  0  0  0
  9  6  2  0  0  0  0
 13  9  1  0  0  0  0
 13  1  1  0  0  0  0
 14 26  1  1  0  0  0
 14 15  1  0  0  0  0
 15  3  1  0  0  0  0
 16 11  1  0  0  0  0
 16 12  2  0  0  0  0
 17  5  1  0  0  0  0
 17  9  1  0  0  0  0
 18  4  1  0  0  0  0
 19 32  1  6  0  0  0
 19 23  1  0  0  0  0
 20  1  1  0  0  0  0
 21 14  1  0  0  0  0
 21 22  1  0  0  0  0
 22 17  1  0  0  0  0
 23 11  1  0  0  0  0
 24 25  2  0  0  0  0
 25 27  1  0  0  0  0
 27 26  1  0  0  0  0
 28 26  2  0  0  0  0
 30 25  1  0  0  0  0
 30 29  1  0  0  0  0
 31 32  1  0  0  0  0
 32 33  2  0  0  0  0
 35 36  2  0  0  0  0
 36 34  1  0  0  0  0
 36 33  1  0  0  0  0
 37 35  1  0  0  0  0
 37 31  2  0  0  0  0
M  END
>  <MODEL>
6

>  <REMARK>
 VINA RESULT:      -5.8      2.133      3.268
  Name = 
  2 active torsions:
  status: ('A' for Active; 'I' for Inactive)
    1  A    between atoms: C_8  and  C_18
    2  A    between atoms: C_23  and  C_30
                            x       y       z     vdW  Elec       q    Type
                         _______ _______ _______ _____ _____    ______ ____

>  <TORSDO>
F 2

$$$$
=
 OpenBabel11122411373D

 37 42  0  0  1  0  0  0  0  0999 V2000
  184.6760  178.9260  144.2100 C   0  0  0  0  0  0  0  0  0  0  0  0
  185.5420  178.0920  140.2420 C   0  0  0  0  0  0  0  0  0  0  0  0
  183.5760  179.4330  137.8920 C   0  0  0  0  0  2  0  0  0  0  0  0
  186.4570  178.4810  142.4400 C   0  0  0  0  0  0  0  0  0  0  0  0
  184.2660  177.8680  139.7490 C   0  0  0  0  0  0  0  0  0  0  0  0
  185.4220  178.1670  141.5900 C   0  0  0  0  0  0  0  0  0  0  0  0
  183.8660  177.9880  138.3000 C   0  0  2  0  0  3  0  0  0  0  0  0
  187.7250  178.6870  141.8640 C   0  0  0  0  0  3  0  0  0  0  0  0
  184.1160  178.0380  141.9190 C   0  0  0  0  0  0  0  0  0  0  0  0
  184.4780  180.4170  143.9890 C   0  0  0  0  0  1  0  0  0  0  0  0
  186.9170  178.2520  138.1370 C   0  0  0  0  0  2  0  0  0  0  0  0
  187.8810  178.6020  140.4550 C   0  0  0  0  0  3  0  0  0  0  0  0
  183.6510  178.1420  143.3430 C   0  0  0  0  0  2  0  0  0  0  0  0
  181.3060  179.5890  139.0790 C   0  0  1  0  0  3  0  0  0  0  0  0
  182.7160  180.1690  138.9260 C   0  0  0  0  0  2  0  0  0  0  0  0
  186.7750  178.3070  139.6230 C   0  0  0  0  0  0  0  0  0  0  0  0
  183.3800  177.8700  140.7950 N   0  0  0  0  0  0  0  0  0  0  0  0
  186.1610  178.5580  143.9160 C   0  0  0  0  0  2  0  0  0  0  0  0
  184.7390  177.2600  137.2570 C   0  0  1  0  0  3  0  0  0  0  0  0
  184.3930  178.6280  145.6670 C   0  0  0  0  0  1  0  0  0  0  0  0
  181.2570  178.0970  139.4490 C   0  0  0  0  0  2  0  0  0  0  0  0
  181.9180  177.7340  140.7850 C   0  0  0  0  0  2  0  0  0  0  0  0
  186.2160  177.0120  137.5970 C   0  0  0  0  0  2  0  0  0  0  0  0
  178.9310  181.7190  142.0940 O   0  0  0  0  0  0  0  0  0  0  0  0
  179.4040  180.5730  142.3140 C   0  0  0  0  0  0  0  0  0  0  0  0
  180.4810  180.4150  140.0140 C   0  0  0  0  0  0  0  0  0  0  0  0
  180.1750  179.8950  141.3110 N   0  0  0  0  0  2  0  0  0  0  0  0
  180.0810  181.5580  139.6620 O   0  0  0  0  0  0  0  0  0  0  0  0
  179.6840  178.6330  143.8950 C   0  0  0  0  0  1  0  0  0  0  0  0
  179.1660  179.9520  143.5760 N   0  0  0  0  0  2  0  0  0  0  0  0
  182.9310  176.0470  136.0350 C   0  0  0  0  0  3  0  0  0  0  0  0
  184.0820  175.9900  136.8240 C   0  0  0  0  0  0  0  0  0  0  0  0
  184.5970  174.7440  137.2070 C   0  0  0  0  0  3  0  0  0  0  0  0
  184.4830  172.2510  137.1890 C   0  0  0  0  0  1  0  0  0  0  0  0
  182.8310  173.6590  136.0210 N   0  0  0  0  0  0  0  0  0  0  0  0
  183.9490  173.5790  136.7910 C   0  0  0  0  0  0  0  0  0  0  0  0
  182.3120  174.8580  135.6390 C   0  0  0  0  0  3  0  0  0  0  0  0
  1 20  1  0  0  0  0
  2  6  1  0  0  0  0
  3 15  1  0  0  0  0
  4 18  1  0  0  0  0
  5  2  2  0  0  0  0
  5 17  1  0  0  0  0
  6  9  2  0  0  0  0
  6  4  1  0  0  0  0
  7  3  1  6  0  0  0
  7  5  1  0  0  0  0
  8  4  2  0  0  0  0
  9 13  1  0  0  0  0
 10  1  1  0  0  0  0
 11 16  1  0  0  0  0
 12  8  1  0  0  0  0
 13  1  1  0  0  0  0
 14 21  1  0  0  0  0
 14 26  1  1  0  0  0
 15 14  1  0  0  0  0
 16  2  1  0  0  0  0
 16 12  2  0  0  0  0
 17  9  1  0  0  0  0
 18  1  1  0  0  0  0
 19 32  1  1  0  0  0
 19 23  1  0  0  0  0
 19  7  1  0  0  0  0
 21 22  1  0  0  0  0
 22 17  1  0  0  0  0
 23 11  1  0  0  0  0
 24 25  2  0  0  0  0
 25 30  1  0  0  0  0
 26 27  1  0  0  0  0
 27 25  1  0  0  0  0
 28 26  2  0  0  0  0
 30 29  1  0  0  0  0
 31 32  1  0  0  0  0
 32 33  2  0  0  0  0
 35 36  2  0  0  0  0
 36 34  1  0  0  0  0
 36 33  1  0  0  0  0
 37 35  1  0  0  0  0
 37 31  2  0  0  0  0
M  END
>  <MODEL>
7

>  <REMARK>
 VINA RESULT:      -5.8      2.884      6.640
  Name = 
  2 active torsions:
  status: ('A' for Active; 'I' for Inactive)
    1  A    between atoms: C_8  and  C_18
    2  A    between atoms: C_23  and  C_30
                            x       y       z     vdW  Elec       q    Type
                         _______ _______ _______ _____ _____    ______ ____

>  <TORSDO>
F 2

$$$$
=
 OpenBabel11122411373D

 37 42  0  0  1  0  0  0  0  0999 V2000
  188.5500  177.8330  138.4060 C   0  0  0  0  0  0  0  0  0  0  0  0
  184.6930  178.2630  139.8640 C   0  0  0  0  0  0  0  0  0  0  0  0
  182.4110  175.9920  138.9590 C   0  0  0  0  0  2  0  0  0  0  0  0
  187.0420  178.5540  140.3310 C   0  0  0  0  0  0  0  0  0  0  0  0
  183.9600  177.9720  138.7240 C   0  0  0  0  0  0  0  0  0  0  0  0
  185.9850  178.3690  139.4700 C   0  0  0  0  0  0  0  0  0  0  0  0
  182.5290  177.4960  138.7150 C   0  0  2  0  0  3  0  0  0  0  0  0
  186.7410  178.6910  141.6990 C   0  0  0  0  0  3  0  0  0  0  0  0
  186.0590  178.1090  138.1440 C   0  0  0  0  0  0  0  0  0  0  0  0
  188.6380  176.3460  138.7070 C   0  0  0  0  0  1  0  0  0  0  0  0
  182.9300  178.2350  141.6640 C   0  0  0  0  0  2  0  0  0  0  0  0
  185.3930  178.5970  142.1380 C   0  0  0  0  0  3  0  0  0  0  0  0
  187.3750  178.0850  137.4200 C   0  0  0  0  0  2  0  0  0  0  0  0
  183.2160  175.2850  136.6270 C   0  0  1  0  0  3  0  0  0  0  0  0
  183.4280  175.1860  138.1410 C   0  0  0  0  0  2  0  0  0  0  0  0
  184.3470  178.3730  141.2120 C   0  0  0  0  0  0  0  0  0  0  0  0
  184.8210  177.8420  137.6640 N   0  0  0  0  0  0  0  0  0  0  0  0
  188.4280  178.6200  139.7450 C   0  0  0  0  0  2  0  0  0  0  0  0
  181.5070  178.2960  139.5480 C   0  0  1  0  0  3  0  0  0  0  0  0
  189.8370  178.2490  137.7260 C   0  0  0  0  0  1  0  0  0  0  0  0
  183.2300  176.7150  136.0620 C   0  0  0  0  0  2  0  0  0  0  0  0
  184.5420  177.4840  136.2680 C   0  0  0  0  0  2  0  0  0  0  0  0
  182.0200  179.0690  140.7730 C   0  0  0  0  0  2  0  0  0  0  0  0
  185.7760  172.3530  134.5960 O   0  0  0  0  0  0  0  0  0  0  0  0
  184.8010  171.9990  135.3090 C   0  0  0  0  0  0  0  0  0  0  0  0
  184.1630  174.3920  135.8900 C   0  0  0  0  0  0  0  0  0  0  0  0
  183.9810  172.9750  135.9660 N   0  0  0  0  0  2  0  0  0  0  0  0
  185.0940  174.8900  135.2000 O   0  0  0  0  0  0  0  0  0  0  0  0
  183.4090  170.1310  136.2660 C   0  0  0  0  0  1  0  0  0  0  0  0
  184.5190  170.6080  135.4590 N   0  0  0  0  0  2  0  0  0  0  0  0
  179.9130  180.1920  139.2380 C   0  0  0  0  0  3  0  0  0  0  0  0
  180.7000  179.1910  138.6650 C   0  0  0  0  0  0  0  0  0  0  0  0
  180.7140  179.0340  137.2730 C   0  0  0  0  0  3  0  0  0  0  0  0
  179.9440  179.7300  135.0030 C   0  0  0  0  0  1  0  0  0  0  0  0
  179.1810  180.8530  137.0610 N   0  0  0  0  0  0  0  0  0  0  0  0
  179.9390  179.8840  136.4810 C   0  0  0  0  0  0  0  0  0  0  0  0
  179.1520  181.0230  138.4110 C   0  0  0  0  0  3  0  0  0  0  0  0
  1 10  1  0  0  0  0
  1 18  1  0  0  0  0
  2 16  1  0  0  0  0
  4  8  2  0  0  0  0
  5  2  2  0  0  0  0
  6  2  1  0  0  0  0
  6  4  1  0  0  0  0
  7  5  1  0  0  0  0
  7  3  1  1  0  0  0
  7 19  1  0  0  0  0
  8 12  1  0  0  0  0
  9  6  2  0  0  0  0
 13  9  1  0  0  0  0
 13  1  1  0  0  0  0
 14 26  1  6  0  0  0
 14 15  1  0  0  0  0
 15  3  1  0  0  0  0
 16 11  1  0  0  0  0
 16 12  2  0  0  0  0
 17  9  1  0  0  0  0
 17  5  1  0  0  0  0
 18  4  1  0  0  0  0
 19 32  1  6  0  0  0
 19 23  1  0  0  0  0
 20  1  1  0  0  0  0
 21 22  1  0  0  0  0
 21 14  1  0  0  0  0
 22 17  1  0  0  0  0
 23 11  1  0  0  0  0
 24 25  2  0  0  0  0
 25 30  1  0  0  0  0
 25 27  1  0  0  0  0
 26 27  1  0  0  0  0
 28 26  2  0  0  0  0
 30 29  1  0  0  0  0
 32 31  1  0  0  0  0
 33 32  2  0  0  0  0
 34 36  1  0  0  0  0
 35 37  1  0  0  0  0
 36 35  2  0  0  0  0
 36 33  1  0  0  0  0
 37 31  2  0  0  0  0
M  END
>  <MODEL>
8

>  <REMARK>
 VINA RESULT:      -5.7      2.466      3.645
  Name = 
  2 active torsions:
  status: ('A' for Active; 'I' for Inactive)
    1  A    between atoms: C_8  and  C_18
    2  A    between atoms: C_23  and  C_30
                            x       y       z     vdW  Elec       q    Type
                         _______ _______ _______ _____ _____    ______ ____

>  <TORSDO>
F 2

$$$$
=
 OpenBabel11122411373D

 37 42  0  0  1  0  0  0  0  0999 V2000
  183.1540  171.1870  135.9990 C   0  0  0  0  0  0  0  0  0  0  0  0
  180.9860  174.5970  136.9290 C   0  0  0  0  0  0  0  0  0  0  0  0
  182.3330  177.5650  136.1790 C   0  0  0  0  0  2  0  0  0  0  0  0
  180.8680  172.2980  136.2090 C   0  0  0  0  0  0  0  0  0  0  0  0
  181.9930  175.4030  137.4380 C   0  0  0  0  0  0  0  0  0  0  0  0
  181.5250  173.3620  136.7830 C   0  0  0  0  0  0  0  0  0  0  0  0
  181.9440  176.9090  137.5040 C   0  0  2  0  0  3  0  0  0  0  0  0
  179.5380  172.5070  135.7980 C   0  0  0  0  0  3  0  0  0  0  0  0
  182.8280  173.4080  137.1430 C   0  0  0  0  0  0  0  0  0  0  0  0
  183.5210  171.6460  134.5960 C   0  0  0  0  0  1  0  0  0  0  0  0
  179.0800  176.2200  136.6540 C   0  0  0  0  0  2  0  0  0  0  0  0
  178.9460  173.7890  135.9520 C   0  0  0  0  0  3  0  0  0  0  0  0
  183.7170  172.2040  137.0310 C   0  0  0  0  0  2  0  0  0  0  0  0
  184.8500  177.1110  136.3900 C   0  0  1  0  0  3  0  0  0  0  0  0
  183.5790  176.9260  135.5540 C   0  0  0  0  0  2  0  0  0  0  0  0
  179.6770  174.8580  136.5200 C   0  0  0  0  0  0  0  0  0  0  0  0
  183.1450  174.6650  137.5350 N   0  0  0  0  0  0  0  0  0  0  0  0
  181.6100  170.9920  136.0850 C   0  0  0  0  0  2  0  0  0  0  0  0
  180.6860  177.5550  138.1180 C   0  0  1  0  0  3  0  0  0  0  0  0
  183.8160  169.8480  136.2410 C   0  0  0  0  0  1  0  0  0  0  0  0
  184.7600  176.5820  137.8310 C   0  0  0  0  0  2  0  0  0  0  0  0
  184.4900  175.0780  137.9580 C   0  0  0  0  0  2  0  0  0  0  0  0
  179.3640  176.7750  138.0430 C   0  0  0  0  0  2  0  0  0  0  0  0
  188.5900  175.6750  134.5960 O   0  0  0  0  0  0  0  0  0  0  0  0
  188.5840  176.3670  135.6480 C   0  0  0  0  0  0  0  0  0  0  0  0
  186.0470  176.5670  135.6790 C   0  0  0  0  0  0  0  0  0  0  0  0
  187.3490  176.8280  136.2140 N   0  0  0  0  0  2  0  0  0  0  0  0
  185.9030  175.8760  134.6340 O   0  0  0  0  0  0  0  0  0  0  0  0
  189.8880  177.4830  137.4910 C   0  0  0  0  0  1  0  0  0  0  0  0
  189.8240  176.6900  136.2750 N   0  0  0  0  0  2  0  0  0  0  0  0
  179.8850  178.3140  140.3580 C   0  0  0  0  0  3  0  0  0  0  0  0
  180.9560  177.9910  139.5220 C   0  0  0  0  0  0  0  0  0  0  0  0
  182.2670  178.0910  140.0070 C   0  0  0  0  0  3  0  0  0  0  0  0
  183.8640  178.6230  141.8490 C   0  0  0  0  0  1  0  0  0  0  0  0
  181.4210  178.8200  142.1170 N   0  0  0  0  0  0  0  0  0  0  0  0
  182.4790  178.5120  141.3210 C   0  0  0  0  0  0  0  0  0  0  0  0
  180.1400  178.7310  141.6670 C   0  0  0  0  0  3  0  0  0  0  0  0
  1 18  1  0  0  0  0
  1 20  1  0  0  0  0
  1 13  1  0  0  0  0
  2  5  2  0  0  0  0
  4  6  1  0  0  0  0
  5  7  1  0  0  0  0
  5 17  1  0  0  0  0
  6  2  1  0  0  0  0
  6  9  2  0  0  0  0
  7  3  1  6  0  0  0
  7 19  1  0  0  0  0
  8 12  1  0  0  0  0
  8  4  2  0  0  0  0
  9 17  1  0  0  0  0
 10  1  1  0  0  0  0
 11 23  1  0  0  0  0
 12 16  2  0  0  0  0
 13  9  1  0  0  0  0
 14 26  1  6  0  0  0
 14 21  1  0  0  0  0
 15  3  1  0  0  0  0
 15 14  1  0  0  0  0
 16 11  1  0  0  0  0
 16  2  1  0  0  0  0
 17 22  1  0  0  0  0
 18  4  1  0  0  0  0
 19 32  1  1  0  0  0
 21 22  1  0  0  0  0
 23 19  1  0  0  0  0
 24 25  2  0  0  0  0
 25 27  1  0  0  0  0
 25 30  1  0  0  0  0
 26 27  1  0  0  0  0
 28 26  2  0  0  0  0
 30 29  1  0  0  0  0
 31 37  1  0  0  0  0
 32 33  1  0  0  0  0
 32 31  2  0  0  0  0
 33 36  2  0  0  0  0
 36 34  1  0  0  0  0
 36 35  1  0  0  0  0
 37 35  2  0  0  0  0
M  END
>  <MODEL>
9

>  <REMARK>
 VINA RESULT:      -5.7      3.377      6.707
  Name = 
  2 active torsions:
  status: ('A' for Active; 'I' for Inactive)
    1  A    between atoms: C_8  and  C_18
    2  A    between atoms: C_23  and  C_30
                            x       y       z     vdW  Elec       q    Type
                         _______ _______ _______ _____ _____    ______ ____

>  <TORSDO>
F 2

$$$$
