=
 OpenBabel11122411233D

 37 44  0  0  1  0  0  0  0  0999 V2000
  187.2090  175.4920  137.5830 O   0  0  0  0  0  0  0  0  0  0  0  0
  192.1130  175.4310  136.0510 C   0  0  0  0  0  0  0  0  0  0  0  0
  190.6360  177.1430  139.5160 C   0  0  0  0  0  0  0  0  0  0  0  0
  186.4610  175.1100  136.5140 N   0  0  0  0  0  0  0  0  0  0  0  0
  187.1270  178.2150  139.6980 C   0  0  0  0  0  3  0  0  0  0  0  0
  192.6120  176.5320  138.2730 N   0  0  0  0  0  0  0  0  0  0  0  0
  189.2930  177.2790  139.2730 N   0  0  0  0  0  0  0  0  0  0  0  0
  184.9570  176.7740  137.5420 C   0  0  0  0  0  0  0  0  0  0  0  0
  191.2790  176.6860  138.4100 C   0  0  0  0  0  0  0  0  0  0  0  0
  188.3230  177.7770  140.1420 C   0  0  0  0  0  0  0  0  0  0  0  0
  193.4200  176.8580  139.3210 C   0  0  0  0  0  3  0  0  0  0  0  0
  185.0730  175.5050  136.7440 C   0  0  0  0  0  2  0  0  0  0  0  0
  190.3970  176.4660  137.4490 C   0  0  0  0  0  0  0  0  0  0  0  0
  192.1130  173.9560  136.4010 C   0  0  0  0  0  1  0  0  0  0  0  0
  190.9910  177.7660  141.9250 C   0  0  0  0  0  3  0  0  0  0  0  0
  192.8660  177.3080  140.5390 C   0  0  0  0  0  3  0  0  0  0  0  0
  190.7780  175.9530  136.2120 O   0  0  0  0  0  0  0  0  0  0  0  0
  185.7680  178.0100  137.2360 C   0  0  1  0  0  3  0  0  0  0  0  0
  186.7550  178.2300  138.3410 N   0  0  0  0  0  0  0  0  0  0  0  0
  191.4740  177.4600  140.6830 C   0  0  0  0  0  0  0  0  0  0  0  0
  189.1660  176.8250  137.9550 C   0  0  0  0  0  0  0  0  0  0  0  0
  193.1550  176.1620  136.9540 C   0  0  0  0  0  2  0  0  0  0  0  0
  188.4850  177.8940  141.5610 C   0  0  0  0  0  0  0  0  0  0  0  0
  192.5310  175.5790  134.6040 C   0  0  0  0  0  1  0  0  0  0  0  0
  187.1300  177.8880  136.9570 C   0  0  1  0  0  3  0  0  0  0  0  0
  184.1300  176.8200  138.4370 O   0  0  0  0  0  0  0  0  0  0  0  0
  187.9330  176.5980  137.1230 C   0  0  2  0  0  3  0  0  0  0  0  0
  189.6720  177.9090  142.2930 C   0  0  0  0  0  3  0  0  0  0  0  0
  186.1440  178.7180  141.9400 C   0  0  0  0  0  3  0  0  0  0  0  0
  187.2940  178.0890  142.4370 C   0  0  0  0  0  0  0  0  0  0  0  0
  187.3100  177.6380  143.7700 C   0  0  0  0  0  3  0  0  0  0  0  0
  186.2200  177.3650  145.9380 N   0  0  0  0  0  1  0  0  0  0  0  0
  185.0500  178.4480  144.0840 C   0  0  0  0  0  3  0  0  0  0  0  0
  186.1950  177.8230  144.5900 C   0  0  0  0  0  0  0  0  0  0  0  0
  185.0250  178.8960  142.7600 C   0  0  0  0  0  3  0  0  0  0  0  0
  185.6120  173.0950  137.5810 C   0  0  0  0  0  1  0  0  0  0  0  0
  186.4840  173.6590  136.4720 C   0  0  0  0  0  2  0  0  0  0  0  0
  2 17  1  0  0  0  0
  2 14  1  0  0  0  0
  2 22  1  0  0  0  0
  3 20  1  0  0  0  0
  4 12  1  0  0  0  0
  4  1  1  0  0  0  0
  5 10  2  0  0  0  0
  6  9  1  0  0  0  0
  6 11  1  0  0  0  0
  7  3  1  0  0  0  0
  7 10  1  0  0  0  0
  8 26  2  0  0  0  0
  9  3  2  0  0  0  0
 10 23  1  0  0  0  0
 11 16  2  0  0  0  0
 12  8  1  0  0  0  0
 13 21  2  0  0  0  0
 13  9  1  0  0  0  0
 15 28  1  0  0  0  0
 16 20  1  0  0  0  0
 17 13  1  0  0  0  0
 18  8  1  1  0  0  0
 18 19  1  0  0  0  0
 19  5  1  0  0  0  0
 20 15  2  0  0  0  0
 21  7  1  0  0  0  0
 22  6  1  0  0  0  0
 23 28  2  0  0  0  0
 23 30  1  0  0  0  0
 24  2  1  0  0  0  0
 25 27  1  0  0  0  0
 25 18  1  0  0  0  0
 25 19  1  1  0  0  0
 27  1  1  1  0  0  0
 27 21  1  0  0  0  0
 29 30  2  0  0  0  0
 29 35  1  0  0  0  0
 30 31  1  0  0  0  0
 31 34  2  0  0  0  0
 33 34  1  0  0  0  0
 34 32  1  0  0  0  0
 35 33  2  0  0  0  0
 37  4  1  0  0  0  0
 37 36  1  0  0  0  0
M  END
>  <MODEL>
1

>  <REMARK>
 VINA RESULT:      -9.4      0.000      0.000
  Name = 
  2 active torsions:
  status: ('A' for Active; 'I' for Inactive)
    1  A    between atoms: N_4  and  C_37
    2  A    between atoms: C_23  and  C_30
                            x       y       z     vdW  Elec       q    Type
                         _______ _______ _______ _____ _____    ______ ____

>  <TORSDO>
F 2

$$$$
=
 OpenBabel11122411233D

 37 44  0  0  1  0  0  0  0  0999 V2000
  184.3610  177.0390  138.4460 O   0  0  0  0  0  0  0  0  0  0  0  0
  188.9000  176.6090  136.0760 C   0  0  0  0  0  0  0  0  0  0  0  0
  188.2730  177.7020  140.0160 C   0  0  0  0  0  0  0  0  0  0  0  0
  183.4100  177.0170  137.4740 N   0  0  0  0  0  0  0  0  0  0  0  0
  185.0780  179.2050  141.0320 C   0  0  0  0  0  3  0  0  0  0  0  0
  189.9050  177.1020  138.3440 N   0  0  0  0  0  0  0  0  0  0  0  0
  186.9550  178.0820  140.0500 N   0  0  0  0  0  0  0  0  0  0  0  0
  182.3940  178.6110  139.0610 C   0  0  0  0  0  0  0  0  0  0  0  0
  188.6550  177.4140  138.7460 C   0  0  0  0  0  0  0  0  0  0  0  0
  186.2270  178.5100  141.1600 C   0  0  0  0  0  0  0  0  0  0  0  0
  190.9020  177.0650  139.2730 C   0  0  0  0  0  3  0  0  0  0  0  0
  182.1640  177.5490  138.0230 C   0  0  0  0  0  2  0  0  0  0  0  0
  187.6190  177.5440  137.9340 C   0  0  0  0  0  0  0  0  0  0  0  0
  188.6840  175.1090  136.1250 C   0  0  0  0  0  1  0  0  0  0  0  0
  189.0780  177.7140  142.3970 C   0  0  0  0  0  3  0  0  0  0  0  0
  190.6200  177.3080  140.6350 C   0  0  0  0  0  3  0  0  0  0  0  0
  187.7180  177.2700  136.5730 O   0  0  0  0  0  0  0  0  0  0  0  0
  183.3630  179.7530  138.8630 C   0  0  1  0  0  3  0  0  0  0  0  0
  184.5220  179.5760  139.7940 N   0  0  0  0  0  0  0  0  0  0  0  0
  189.3140  177.6260  141.0530 C   0  0  0  0  0  0  0  0  0  0  0  0
  186.5590  177.9570  138.7130 C   0  0  0  0  0  0  0  0  0  0  0  0
  190.1750  176.9610  136.9020 C   0  0  0  0  0  2  0  0  0  0  0  0
  186.6100  178.2820  142.5220 C   0  0  0  0  0  0  0  0  0  0  0  0
  189.1240  177.0130  134.6350 C   0  0  0  0  0  1  0  0  0  0  0  0
  184.6250  179.4990  138.3250 C   0  0  1  0  0  3  0  0  0  0  0  0
  181.7280  178.5770  140.0820 O   0  0  0  0  0  0  0  0  0  0  0  0
  185.1990  178.1020  138.0890 C   0  0  2  0  0  3  0  0  0  0  0  0
  187.8750  177.9610  143.0170 C   0  0  0  0  0  3  0  0  0  0  0  0
  184.2430  178.5110  143.3270 C   0  0  0  0  0  3  0  0  0  0  0  0
  185.6140  178.4480  143.6180 C   0  0  0  0  0  0  0  0  0  0  0  0
  186.0370  178.5370  144.9570 C   0  0  0  0  0  3  0  0  0  0  0  0
  185.5400  178.7860  147.3340 N   0  0  0  0  0  1  0  0  0  0  0  0
  183.7380  178.7530  145.6830 C   0  0  0  0  0  3  0  0  0  0  0  0
  185.1030  178.6950  145.9830 C   0  0  0  0  0  0  0  0  0  0  0  0
  183.3090  178.6610  144.3560 C   0  0  0  0  0  3  0  0  0  0  0  0
  181.9430  175.1230  137.8960 C   0  0  0  0  0  1  0  0  0  0  0  0
  183.1650  175.6240  137.1460 C   0  0  0  0  0  2  0  0  0  0  0  0
  2 14  1  0  0  0  0
  2 17  1  0  0  0  0
  2 22  1  0  0  0  0
  3  7  1  0  0  0  0
  3 20  1  0  0  0  0
  4 12  1  0  0  0  0
  4  1  1  0  0  0  0
  5 10  2  0  0  0  0
  6  9  1  0  0  0  0
  6 11  1  0  0  0  0
  7 10  1  0  0  0  0
  8 26  2  0  0  0  0
  9  3  2  0  0  0  0
 10 23  1  0  0  0  0
 11 16  2  0  0  0  0
 12  8  1  0  0  0  0
 13 21  2  0  0  0  0
 13  9  1  0  0  0  0
 15 28  1  0  0  0  0
 16 20  1  0  0  0  0
 17 13  1  0  0  0  0
 18  8  1  1  0  0  0
 18 19  1  0  0  0  0
 19  5  1  0  0  0  0
 20 15  2  0  0  0  0
 21  7  1  0  0  0  0
 22  6  1  0  0  0  0
 23 28  2  0  0  0  0
 23 30  1  0  0  0  0
 24  2  1  0  0  0  0
 25 18  1  0  0  0  0
 25 19  1  1  0  0  0
 27 25  1  0  0  0  0
 27  1  1  1  0  0  0
 27 21  1  0  0  0  0
 29 30  2  0  0  0  0
 29 35  1  0  0  0  0
 30 31  1  0  0  0  0
 31 34  2  0  0  0  0
 33 34  1  0  0  0  0
 34 32  1  0  0  0  0
 35 33  2  0  0  0  0
 37  4  1  0  0  0  0
 37 36  1  0  0  0  0
M  END
>  <MODEL>
2

>  <REMARK>
 VINA RESULT:      -9.4      1.960      2.925
  Name = 
  2 active torsions:
  status: ('A' for Active; 'I' for Inactive)
    1  A    between atoms: N_4  and  C_37
    2  A    between atoms: C_23  and  C_30
                            x       y       z     vdW  Elec       q    Type
                         _______ _______ _______ _____ _____    ______ ____

>  <TORSDO>
F 2

$$$$
=
 OpenBabel11122411233D

 37 44  0  0  1  0  0  0  0  0999 V2000
  184.4350  176.9550  138.6290 O   0  0  0  0  0  0  0  0  0  0  0  0
  188.8590  176.6090  136.0380 C   0  0  0  0  0  0  0  0  0  0  0  0
  188.4110  177.6370  140.0200 C   0  0  0  0  0  0  0  0  0  0  0  0
  183.4390  176.9370  137.7040 N   0  0  0  0  0  0  0  0  0  0  0  0
  185.2540  179.0900  141.2100 C   0  0  0  0  0  3  0  0  0  0  0  0
  189.9670  177.0800  138.2620 N   0  0  0  0  0  0  0  0  0  0  0  0
  187.0930  178.0020  140.1220 N   0  0  0  0  0  0  0  0  0  0  0  0
  182.4850  178.4960  139.3610 C   0  0  0  0  0  0  0  0  0  0  0  0
  188.7350  177.3720  138.7280 C   0  0  0  0  0  0  0  0  0  0  0  0
  186.4140  178.4060  141.2720 C   0  0  0  0  0  0  0  0  0  0  0  0
  191.0070  177.0400  139.1420 C   0  0  0  0  0  3  0  0  0  0  0  0
  182.2150  177.4470  138.3200 C   0  0  0  0  0  2  0  0  0  0  0  0
  187.6590  177.5020  137.9690 C   0  0  0  0  0  0  0  0  0  0  0  0
  188.6610  175.1060  136.0740 C   0  0  0  0  0  1  0  0  0  0  0  0
  189.3300  177.6230  142.3590 C   0  0  0  0  0  3  0  0  0  0  0  0
  190.7890  177.2600  140.5190 C   0  0  0  0  0  3  0  0  0  0  0  0
  187.6960  177.2500  136.6000 O   0  0  0  0  0  0  0  0  0  0  0  0
  183.4310  179.6510  139.1340 C   0  0  1  0  0  3  0  0  0  0  0  0
  184.6350  179.4730  140.0060 N   0  0  0  0  0  0  0  0  0  0  0  0
  189.5020  177.5570  141.0040 C   0  0  0  0  0  0  0  0  0  0  0  0
  186.6340  177.8920  138.8040 C   0  0  0  0  0  0  0  0  0  0  0  0
  190.1690  176.9620  136.8070 C   0  0  0  0  0  2  0  0  0  0  0  0
  186.8650  178.1630  142.6100 C   0  0  0  0  0  0  0  0  0  0  0  0
  189.0090  177.0360  134.5940 C   0  0  0  0  0  1  0  0  0  0  0  0
  184.6680  179.4190  138.5330 C   0  0  1  0  0  3  0  0  0  0  0  0
  181.8690  178.4390  140.4130 O   0  0  0  0  0  0  0  0  0  0  0  0
  185.2440  178.0320  138.2480 C   0  0  2  0  0  3  0  0  0  0  0  0
  188.1550  177.8480  143.0390 C   0  0  0  0  0  3  0  0  0  0  0  0
  186.3900  178.2140  145.0750 C   0  0  0  0  0  3  0  0  0  0  0  0
  185.9210  178.3010  143.7560 C   0  0  0  0  0  0  0  0  0  0  0  0
  184.5520  178.5270  143.5250 C   0  0  0  0  0  3  0  0  0  0  0  0
  182.2830  178.8810  144.3570 N   0  0  0  0  0  1  0  0  0  0  0  0
  184.1440  178.5700  145.9120 C   0  0  0  0  0  3  0  0  0  0  0  0
  183.6670  178.6540  144.5990 C   0  0  0  0  0  0  0  0  0  0  0  0
  185.5040  178.3500  146.1490 C   0  0  0  0  0  3  0  0  0  0  0  0
  184.5120  174.8120  137.1990 C   0  0  0  0  0  1  0  0  0  0  0  0
  183.1930  175.5460  137.3670 C   0  0  0  0  0  2  0  0  0  0  0  0
  2 14  1  0  0  0  0
  2 17  1  0  0  0  0
  2 22  1  0  0  0  0
  3  7  1  0  0  0  0
  3 20  1  0  0  0  0
  4 12  1  0  0  0  0
  4  1  1  0  0  0  0
  5 10  2  0  0  0  0
  6  9  1  0  0  0  0
  6 11  1  0  0  0  0
  7 10  1  0  0  0  0
  8 26  2  0  0  0  0
  9  3  2  0  0  0  0
 10 23  1  0  0  0  0
 11 16  2  0  0  0  0
 12  8  1  0  0  0  0
 13  9  1  0  0  0  0
 13 21  2  0  0  0  0
 15 28  1  0  0  0  0
 16 20  1  0  0  0  0
 17 13  1  0  0  0  0
 18  8  1  1  0  0  0
 18 19  1  0  0  0  0
 19  5  1  0  0  0  0
 20 15  2  0  0  0  0
 21  7  1  0  0  0  0
 22  6  1  0  0  0  0
 23 28  2  0  0  0  0
 23 30  1  0  0  0  0
 24  2  1  0  0  0  0
 25 18  1  0  0  0  0
 25 19  1  1  0  0  0
 27 25  1  0  0  0  0
 27  1  1  1  0  0  0
 27 21  1  0  0  0  0
 29 35  1  0  0  0  0
 30 29  2  0  0  0  0
 31 30  1  0  0  0  0
 31 34  2  0  0  0  0
 32 34  1  0  0  0  0
 33 35  2  0  0  0  0
 34 33  1  0  0  0  0
 36 37  1  0  0  0  0
 37  4  1  0  0  0  0
M  END
>  <MODEL>
3

>  <REMARK>
 VINA RESULT:      -9.3      1.973      2.987
  Name = 
  2 active torsions:
  status: ('A' for Active; 'I' for Inactive)
    1  A    between atoms: N_4  and  C_37
    2  A    between atoms: C_23  and  C_30
                            x       y       z     vdW  Elec       q    Type
                         _______ _______ _______ _____ _____    ______ ____

>  <TORSDO>
F 2

$$$$
=
 OpenBabel11122411233D

 37 44  0  0  1  0  0  0  0  0999 V2000
  188.7780  176.4960  138.2770 O   0  0  0  0  0  0  0  0  0  0  0  0
  190.4850  177.1490  143.0800 C   0  0  0  0  0  0  0  0  0  0  0  0
  186.7110  178.0750  141.6600 C   0  0  0  0  0  0  0  0  0  0  0  0
  189.8690  176.2450  137.5060 N   0  0  0  0  0  0  0  0  0  0  0  0
  186.2000  178.7790  138.0910 C   0  0  0  0  0  3  0  0  0  0  0  0
  188.1210  177.8750  143.6080 N   0  0  0  0  0  0  0  0  0  0  0  0
  186.8730  178.1310  140.2990 N   0  0  0  0  0  0  0  0  0  0  0  0
  188.4980  177.5570  135.9300 C   0  0  0  0  0  0  0  0  0  0  0  0
  187.9060  177.8820  142.2760 C   0  0  0  0  0  0  0  0  0  0  0  0
  185.8910  178.3770  139.3400 C   0  0  0  0  0  0  0  0  0  0  0  0
  187.0620  178.0790  144.4430 C   0  0  0  0  0  3  0  0  0  0  0  0
  189.5170  176.4670  136.1050 C   0  0  0  0  0  2  0  0  0  0  0  0
  188.8560  177.7590  141.3640 C   0  0  0  0  0  0  0  0  0  0  0  0
  190.4100  175.6400  143.2180 C   0  0  0  0  0  1  0  0  0  0  0  0
  184.2450  178.2870  142.0930 C   0  0  0  0  0  3  0  0  0  0  0  0
  185.7620  178.2530  143.9220 C   0  0  0  0  0  3  0  0  0  0  0  0
  190.1800  177.5120  141.7180 O   0  0  0  0  0  0  0  0  0  0  0  0
  188.6040  178.8960  136.6210 C   0  0  1  0  0  3  0  0  0  0  0  0
  187.5160  179.0030  137.6450 N   0  0  0  0  0  0  0  0  0  0  0  0
  185.5400  178.2520  142.5320 C   0  0  0  0  0  0  0  0  0  0  0  0
  188.2460  177.9110  140.1380 C   0  0  0  0  0  0  0  0  0  0  0  0
  189.5050  177.7970  144.1060 C   0  0  0  0  0  2  0  0  0  0  0  0
  184.4810  178.2530  139.5690 C   0  0  0  0  0  0  0  0  0  0  0  0
  191.8960  177.5890  143.4060 C   0  0  0  0  0  1  0  0  0  0  0  0
  188.9530  178.9480  137.9710 C   0  0  1  0  0  3  0  0  0  0  0  0
  187.5770  177.3690  135.1520 O   0  0  0  0  0  0  0  0  0  0  0  0
  189.0560  177.7260  138.8840 C   0  0  2  0  0  3  0  0  0  0  0  0
  183.8060  178.2430  140.7900 C   0  0  0  0  0  3  0  0  0  0  0  0
  182.5230  179.1370  138.2700 C   0  0  0  0  0  3  0  0  0  0  0  0
  183.5390  178.1810  138.4160 C   0  0  0  0  0  0  0  0  0  0  0  0
  183.6630  177.1570  137.4590 C   0  0  0  0  0  3  0  0  0  0  0  0
  182.9090  176.0480  135.4180 N   0  0  0  0  0  1  0  0  0  0  0  0
  181.7700  178.0490  136.2410 C   0  0  0  0  0  3  0  0  0  0  0  0
  182.7780  177.0890  136.3800 C   0  0  0  0  0  0  0  0  0  0  0  0
  181.6430  179.0720  137.1850 C   0  0  0  0  0  3  0  0  0  0  0  0
  189.1850  174.0070  136.8430 C   0  0  0  0  0  1  0  0  0  0  0  0
  190.1760  174.8330  137.6450 C   0  0  0  0  0  2  0  0  0  0  0  0
  2 14  1  0  0  0  0
  2 24  1  0  0  0  0
  2 22  1  0  0  0  0
  3  9  2  0  0  0  0
  3 20  1  0  0  0  0
  4 37  1  0  0  0  0
  4  1  1  0  0  0  0
  5 10  2  0  0  0  0
  6 22  1  0  0  0  0
  6 11  1  0  0  0  0
  7  3  1  0  0  0  0
  8 12  1  0  0  0  0
  9  6  1  0  0  0  0
 10 23  1  0  0  0  0
 10  7  1  0  0  0  0
 12  4  1  0  0  0  0
 13 17  1  0  0  0  0
 13  9  1  0  0  0  0
 15 20  2  0  0  0  0
 16 11  2  0  0  0  0
 17  2  1  0  0  0  0
 18  8  1  1  0  0  0
 18 19  1  0  0  0  0
 18 25  1  0  0  0  0
 19  5  1  0  0  0  0
 20 16  1  0  0  0  0
 21  7  1  0  0  0  0
 21 13  2  0  0  0  0
 23 28  2  0  0  0  0
 25 19  1  1  0  0  0
 25 27  1  0  0  0  0
 26  8  2  0  0  0  0
 27  1  1  6  0  0  0
 27 21  1  0  0  0  0
 28 15  1  0  0  0  0
 29 30  1  0  0  0  0
 30 23  1  0  0  0  0
 31 30  2  0  0  0  0
 32 34  1  0  0  0  0
 33 34  2  0  0  0  0
 33 35  1  0  0  0  0
 34 31  1  0  0  0  0
 35 29  2  0  0  0  0
 36 37  1  0  0  0  0
M  END
>  <MODEL>
4

>  <REMARK>
 VINA RESULT:      -9.1      2.320      5.846
  Name = 
  2 active torsions:
  status: ('A' for Active; 'I' for Inactive)
    1  A    between atoms: N_4  and  C_37
    2  A    between atoms: C_23  and  C_30
                            x       y       z     vdW  Elec       q    Type
                         _______ _______ _______ _____ _____    ______ ____

>  <TORSDO>
F 2

$$$$
=
 OpenBabel11122411233D

 37 44  0  0  1  0  0  0  0  0999 V2000
  182.3020  176.8260  140.2300 O   0  0  0  0  0  0  0  0  0  0  0  0
  185.0880  177.1490  135.9240 C   0  0  0  0  0  0  0  0  0  0  0  0
  186.3460  178.0990  139.7490 C   0  0  0  0  0  0  0  0  0  0  0  0
  181.0090  176.6570  139.8460 N   0  0  0  0  0  0  0  0  0  0  0  0
  183.8990  179.0600  142.3150 C   0  0  0  0  0  3  0  0  0  0  0  0
  187.0040  177.7820  137.4490 N   0  0  0  0  0  0  0  0  0  0  0  0
  185.1790  178.2620  140.4510 N   0  0  0  0  0  0  0  0  0  0  0  0
  180.7020  178.0550  141.8560 C   0  0  0  0  0  0  0  0  0  0  0  0
  186.0860  177.8860  138.4330 C   0  0  0  0  0  0  0  0  0  0  0  0
  185.0430  178.5590  141.8070 C   0  0  0  0  0  0  0  0  0  0  0  0
  188.3240  177.9000  137.7690 C   0  0  0  0  0  3  0  0  0  0  0  0
  180.1370  176.9780  140.9740 C   0  0  0  0  0  2  0  0  0  0  0  0
  184.7780  177.8520  138.2430 C   0  0  0  0  0  0  0  0  0  0  0  0
  185.1320  175.6330  135.9430 C   0  0  0  0  0  1  0  0  0  0  0  0
  188.2120  178.2250  141.4280 C   0  0  0  0  0  3  0  0  0  0  0  0
  188.7210  178.0850  139.1110 C   0  0  0  0  0  3  0  0  0  0  0  0
  184.2280  177.6080  136.9870 O   0  0  0  0  0  0  0  0  0  0  0  0
  181.2800  179.3400  141.3100 C   0  0  1  0  0  3  0  0  0  0  0  0
  182.7590  179.3450  141.5400 N   0  0  0  0  0  0  0  0  0  0  0  0
  187.7630  178.1850  140.1370 C   0  0  0  0  0  0  0  0  0  0  0  0
  184.1960  178.0830  139.4710 C   0  0  0  0  0  0  0  0  0  0  0  0
  186.5430  177.6960  136.0520 C   0  0  0  0  0  2  0  0  0  0  0  0
  186.0760  178.3870  142.7860 C   0  0  0  0  0  0  0  0  0  0  0  0
  184.5130  177.5940  134.5960 C   0  0  0  0  0  1  0  0  0  0  0  0
  182.1330  179.2970  140.2060 C   0  0  1  0  0  3  0  0  0  0  0  0
  180.6390  177.9070  143.0650 O   0  0  0  0  0  0  0  0  0  0  0  0
  182.6990  178.0120  139.6020 C   0  0  2  0  0  3  0  0  0  0  0  0
  187.4510  178.2700  142.5730 C   0  0  0  0  0  3  0  0  0  0  0  0
  184.4270  178.6390  144.6620 C   0  0  0  0  0  3  0  0  0  0  0  0
  185.7400  178.3820  144.2380 C   0  0  0  0  0  0  0  0  0  0  0  0
  186.7330  178.1140  145.1980 C   0  0  0  0  0  3  0  0  0  0  0  0
  187.4280  177.8430  147.5220 N   0  0  0  0  0  1  0  0  0  0  0  0
  185.1050  178.3660  146.9720 C   0  0  0  0  0  3  0  0  0  0  0  0
  186.4170  178.1130  146.5590 C   0  0  0  0  0  0  0  0  0  0  0  0
  184.1110  178.6290  146.0240 C   0  0  0  0  0  3  0  0  0  0  0  0
  179.4290  174.8110  139.9670 C   0  0  0  0  0  1  0  0  0  0  0  0
  180.8270  175.2450  139.5600 C   0  0  0  0  0  2  0  0  0  0  0  0
  2 14  1  0  0  0  0
  2 22  1  0  0  0  0
  2 17  1  0  0  0  0
  3 20  1  0  0  0  0
  3  7  1  0  0  0  0
  4  1  1  0  0  0  0
  4 12  1  0  0  0  0
  6 11  1  0  0  0  0
  6  9  1  0  0  0  0
  7 10  1  0  0  0  0
  8 26  2  0  0  0  0
  9  3  2  0  0  0  0
 10  5  2  0  0  0  0
 10 23  1  0  0  0  0
 11 16  2  0  0  0  0
 12  8  1  0  0  0  0
 13  9  1  0  0  0  0
 13 21  2  0  0  0  0
 15 28  1  0  0  0  0
 16 20  1  0  0  0  0
 17 13  1  0  0  0  0
 18 19  1  0  0  0  0
 18  8  1  1  0  0  0
 19  5  1  0  0  0  0
 20 15  2  0  0  0  0
 21  7  1  0  0  0  0
 22  6  1  0  0  0  0
 23 30  1  0  0  0  0
 24  2  1  0  0  0  0
 25 18  1  0  0  0  0
 25 19  1  1  0  0  0
 27 21  1  1  0  0  0
 27 25  1  0  0  0  0
 27  1  1  0  0  0  0
 28 23  2  0  0  0  0
 29 35  1  0  0  0  0
 30 29  2  0  0  0  0
 30 31  1  0  0  0  0
 31 34  2  0  0  0  0
 34 33  1  0  0  0  0
 34 32  1  0  0  0  0
 35 33  2  0  0  0  0
 37  4  1  0  0  0  0
 37 36  1  0  0  0  0
M  END
>  <MODEL>
5

>  <REMARK>
 VINA RESULT:      -8.0      3.076      5.241
  Name = 
  2 active torsions:
  status: ('A' for Active; 'I' for Inactive)
    1  A    between atoms: N_4  and  C_37
    2  A    between atoms: C_23  and  C_30
                            x       y       z     vdW  Elec       q    Type
                         _______ _______ _______ _____ _____    ______ ____

>  <TORSDO>
F 2

$$$$
=
 OpenBabel11122411233D

 37 44  0  0  1  0  0  0  0  0999 V2000
  184.4250  177.1560  140.1620 O   0  0  0  0  0  0  0  0  0  0  0  0
  187.2570  177.2210  135.8740 C   0  0  0  0  0  0  0  0  0  0  0  0
  188.6540  177.5490  139.7540 C   0  0  0  0  0  0  0  0  0  0  0  0
  183.1300  177.3080  139.7760 N   0  0  0  0  0  0  0  0  0  0  0  0
  186.4520  178.8050  142.4130 C   0  0  0  0  0  3  0  0  0  0  0  0
  189.2490  177.2890  137.4300 N   0  0  0  0  0  0  0  0  0  0  0  0
  187.5440  177.9040  140.4780 N   0  0  0  0  0  0  0  0  0  0  0  0
  183.1170  178.5660  141.8990 C   0  0  0  0  0  0  0  0  0  0  0  0
  188.3670  177.5080  138.4280 C   0  0  0  0  0  0  0  0  0  0  0  0
  187.4630  178.1090  141.8550 C   0  0  0  0  0  0  0  0  0  0  0  0
  190.5600  177.0880  137.7480 C   0  0  0  0  0  3  0  0  0  0  0  0
  182.3380  177.7160  140.9350 C   0  0  0  0  0  2  0  0  0  0  0  0
  187.0850  177.7780  138.2470 C   0  0  0  0  0  0  0  0  0  0  0  0
  186.9670  175.7360  135.7660 C   0  0  0  0  0  1  0  0  0  0  0  0
  190.4860  177.1220  141.4220 C   0  0  0  0  0  3  0  0  0  0  0  0
  190.9740  177.0680  139.0970 C   0  0  0  0  0  3  0  0  0  0  0  0
  186.5080  177.7660  136.9800 O   0  0  0  0  0  0  0  0  0  0  0  0
  183.9670  179.7340  141.4570 C   0  0  1  0  0  3  0  0  0  0  0  0
  185.4100  179.3960  141.6740 N   0  0  0  0  0  0  0  0  0  0  0  0
  190.0510  177.2890  140.1360 C   0  0  0  0  0  0  0  0  0  0  0  0
  186.5560  178.0280  139.4950 C   0  0  0  0  0  0  0  0  0  0  0  0
  188.7950  177.4230  136.0350 C   0  0  0  0  0  2  0  0  0  0  0  0
  188.4240  177.6340  142.8060 C   0  0  0  0  0  0  0  0  0  0  0  0
  186.8060  177.8900  134.5940 C   0  0  0  0  0  1  0  0  0  0  0  0
  184.8010  179.5980  140.3470 C   0  0  1  0  0  3  0  0  0  0  0  0
  183.0110  178.3350  143.0920 O   0  0  0  0  0  0  0  0  0  0  0  0
  185.0790  178.2750  139.6320 C   0  0  2  0  0  3  0  0  0  0  0  0
  189.7410  177.2370  142.5730 C   0  0  0  0  0  3  0  0  0  0  0  0
  186.7390  177.5520  144.6660 C   0  0  0  0  0  3  0  0  0  0  0  0
  188.0800  177.5810  144.2560 C   0  0  0  0  0  0  0  0  0  0  0  0
  189.0970  177.5550  145.2280 C   0  0  0  0  0  3  0  0  0  0  0  0
  189.8090  177.4830  147.5630 N   0  0  0  0  0  1  0  0  0  0  0  0
  187.4330  177.4760  146.9850 C   0  0  0  0  0  3  0  0  0  0  0  0
  188.7730  177.5080  146.5860 C   0  0  0  0  0  0  0  0  0  0  0  0
  186.4170  177.4980  146.0250 C   0  0  0  0  0  3  0  0  0  0  0  0
  182.2990  176.0060  137.8960 C   0  0  0  0  0  1  0  0  0  0  0  0
  182.6460  175.9990  139.3750 C   0  0  0  0  0  2  0  0  0  0  0  0
  2 22  1  0  0  0  0
  2 17  1  0  0  0  0
  3 20  1  0  0  0  0
  3  7  1  0  0  0  0
  4  1  1  0  0  0  0
  4 12  1  0  0  0  0
  6 11  1  0  0  0  0
  6  9  1  0  0  0  0
  7 10  1  0  0  0  0
  8 26  2  0  0  0  0
  9  3  2  0  0  0  0
 10  5  2  0  0  0  0
 10 23  1  0  0  0  0
 11 16  2  0  0  0  0
 12  8  1  0  0  0  0
 13  9  1  0  0  0  0
 13 21  2  0  0  0  0
 14  2  1  0  0  0  0
 15 28  1  0  0  0  0
 16 20  1  0  0  0  0
 17 13  1  0  0  0  0
 18 19  1  0  0  0  0
 18  8  1  6  0  0  0
 19  5  1  0  0  0  0
 20 15  2  0  0  0  0
 21  7  1  0  0  0  0
 22  6  1  0  0  0  0
 23 30  1  0  0  0  0
 24  2  1  0  0  0  0
 25 18  1  0  0  0  0
 25 19  1  1  0  0  0
 27 21  1  1  0  0  0
 27  1  1  0  0  0  0
 27 25  1  0  0  0  0
 28 23  2  0  0  0  0
 29 35  1  0  0  0  0
 30 29  2  0  0  0  0
 30 31  1  0  0  0  0
 31 34  2  0  0  0  0
 34 33  1  0  0  0  0
 34 32  1  0  0  0  0
 35 33  2  0  0  0  0
 36 37  1  0  0  0  0
 37  4  1  0  0  0  0
M  END
>  <MODEL>
6

>  <REMARK>
 VINA RESULT:      -7.7      2.267      3.854
  Name = 
  2 active torsions:
  status: ('A' for Active; 'I' for Inactive)
    1  A    between atoms: N_4  and  C_37
    2  A    between atoms: C_23  and  C_30
                            x       y       z     vdW  Elec       q    Type
                         _______ _______ _______ _____ _____    ______ ____

>  <TORSDO>
F 2

$$$$
=
 OpenBabel11122411233D

 37 44  0  0  1  0  0  0  0  0999 V2000
  185.0580  174.5070  136.1840 O   0  0  0  0  0  0  0  0  0  0  0  0
  190.1030  175.4500  136.4340 C   0  0  0  0  0  0  0  0  0  0  0  0
  187.1190  177.4500  138.4860 C   0  0  0  0  0  0  0  0  0  0  0  0
  184.8660  173.6920  135.1130 N   0  0  0  0  0  0  0  0  0  0  0  0
  183.6930  177.5190  137.1640 C   0  0  0  0  0  3  0  0  0  0  0  0
  189.4970  177.1360  138.2190 N   0  0  0  0  0  0  0  0  0  0  0  0
  185.9770  177.1470  137.7900 N   0  0  0  0  0  0  0  0  0  0  0  0
  182.8200  175.0670  135.0040 C   0  0  0  0  0  0  0  0  0  0  0  0
  188.2110  176.9430  137.8580 C   0  0  0  0  0  0  0  0  0  0  0  0
  184.6750  177.5470  138.0880 C   0  0  0  0  0  0  0  0  0  0  0  0
  189.7610  177.9110  139.3090 C   0  0  0  0  0  3  0  0  0  0  0  0
  183.4530  173.7300  134.7400 C   0  0  0  0  0  2  0  0  0  0  0  0
  187.8280  176.2670  136.7880 C   0  0  0  0  0  0  0  0  0  0  0  0
  190.2170  174.1580  137.2190 C   0  0  0  0  0  1  0  0  0  0  0  0
  186.3900  178.6960  140.5440 C   0  0  0  0  0  3  0  0  0  0  0  0
  188.7070  178.4630  140.0680 C   0  0  0  0  0  3  0  0  0  0  0  0
  188.7440  175.6040  135.9760 O   0  0  0  0  0  0  0  0  0  0  0  0
  183.4630  176.3720  134.5980 C   0  0  1  0  0  3  0  0  0  0  0  0
  183.8850  177.1100  135.8310 N   0  0  0  0  0  0  0  0  0  0  0  0
  187.3660  178.2530  139.6940 C   0  0  0  0  0  0  0  0  0  0  0  0
  186.4560  176.3790  136.7220 C   0  0  0  0  0  0  0  0  0  0  0  0
  190.5670  176.6320  137.3400 C   0  0  0  0  0  2  0  0  0  0  0  0
  184.2450  178.0340  139.3650 C   0  0  0  0  0  0  0  0  0  0  0  0
  191.0230  175.3630  135.2350 C   0  0  0  0  0  1  0  0  0  0  0  0
  184.8250  176.5700  134.8320 C   0  0  1  0  0  3  0  0  0  0  0  0
  181.7140  175.0920  135.5170 O   0  0  0  0  0  0  0  0  0  0  0  0
  185.7050  175.6300  135.6550 C   0  0  2  0  0  3  0  0  0  0  0  0
  185.0300  178.5500  140.3970 C   0  0  0  0  0  3  0  0  0  0  0  0
  182.0580  176.9090  139.8720 C   0  0  0  0  0  3  0  0  0  0  0  0
  182.7920  178.0920  139.6950 C   0  0  0  0  0  0  0  0  0  0  0  0
  182.1430  179.3320  139.8380 C   0  0  0  0  0  3  0  0  0  0  0  0
  180.1330  180.6440  140.2860 N   0  0  0  0  0  1  0  0  0  0  0  0
  180.0590  178.2010  140.3230 C   0  0  0  0  0  3  0  0  0  0  0  0
  180.7810  179.3850  140.1450 C   0  0  0  0  0  0  0  0  0  0  0  0
  180.6960  176.9640  140.1860 C   0  0  0  0  0  3  0  0  0  0  0  0
  184.0280  171.8340  136.4410 C   0  0  0  0  0  1  0  0  0  0  0  0
  185.1500  172.3370  135.5500 C   0  0  0  0  0  2  0  0  0  0  0  0
  2 14  1  0  0  0  0
  2 22  1  0  0  0  0
  3 20  1  0  0  0  0
  4 37  1  0  0  0  0
  4  1  1  0  0  0  0
  5 10  2  0  0  0  0
  6 11  1  0  0  0  0
  7 10  1  0  0  0  0
  7  3  1  0  0  0  0
  8 26  2  0  0  0  0
  9  6  1  0  0  0  0
  9  3  2  0  0  0  0
 10 23  1  0  0  0  0
 11 16  2  0  0  0  0
 12  8  1  0  0  0  0
 12  4  1  0  0  0  0
 13  9  1  0  0  0  0
 17  2  1  0  0  0  0
 17 13  1  0  0  0  0
 18 25  1  0  0  0  0
 18  8  1  1  0  0  0
 18 19  1  0  0  0  0
 19  5  1  0  0  0  0
 20 16  1  0  0  0  0
 20 15  2  0  0  0  0
 21 13  2  0  0  0  0
 21  7  1  0  0  0  0
 22  6  1  0  0  0  0
 23 30  1  0  0  0  0
 23 28  2  0  0  0  0
 24  2  1  0  0  0  0
 25 27  1  0  0  0  0
 25 19  1  1  0  0  0
 27  1  1  1  0  0  0
 27 21  1  0  0  0  0
 28 15  1  0  0  0  0
 29 35  1  0  0  0  0
 30 31  1  0  0  0  0
 30 29  2  0  0  0  0
 31 34  2  0  0  0  0
 34 32  1  0  0  0  0
 34 33  1  0  0  0  0
 35 33  2  0  0  0  0
 37 36  1  0  0  0  0
M  END
>  <MODEL>
7

>  <REMARK>
 VINA RESULT:      -7.1      2.842      4.216
  Name = 
  2 active torsions:
  status: ('A' for Active; 'I' for Inactive)
    1  A    between atoms: N_4  and  C_37
    2  A    between atoms: C_23  and  C_30
                            x       y       z     vdW  Elec       q    Type
                         _______ _______ _______ _____ _____    ______ ____

>  <TORSDO>
F 2

$$$$
=
 OpenBabel11122411233D

 37 44  0  0  1  0  0  0  0  0999 V2000
  187.3760  177.5110  138.7180 O   0  0  0  0  0  0  0  0  0  0  0  0
  182.3700  178.4400  139.4130 C   0  0  0  0  0  0  0  0  0  0  0  0
  184.0190  175.3210  137.2540 C   0  0  0  0  0  0  0  0  0  0  0  0
  188.0390  178.6280  139.1190 N   0  0  0  0  0  0  0  0  0  0  0  0
  187.3870  175.6410  135.8210 C   0  0  0  0  0  3  0  0  0  0  0  0
  181.9990  176.2680  138.1710 N   0  0  0  0  0  0  0  0  0  0  0  0
  185.3040  175.7310  137.0060 N   0  0  0  0  0  0  0  0  0  0  0  0
  189.4540  177.9200  137.2250 C   0  0  0  0  0  0  0  0  0  0  0  0
  183.3140  176.3030  137.8720 C   0  0  0  0  0  0  0  0  0  0  0  0
  186.3030  175.0250  136.3350 C   0  0  0  0  0  0  0  0  0  0  0  0
  181.2800  175.1600  137.8350 C   0  0  0  0  0  3  0  0  0  0  0  0
  189.3920  178.5960  138.5660 C   0  0  0  0  0  2  0  0  0  0  0  0
  184.1040  177.3420  138.0880 C   0  0  0  0  0  0  0  0  0  0  0  0
  182.5720  177.9780  140.8430 C   0  0  0  0  0  1  0  0  0  0  0  0
  183.8640  172.9430  136.4530 C   0  0  0  0  0  3  0  0  0  0  0  0
  181.9110  174.0560  137.2230 C   0  0  0  0  0  3  0  0  0  0  0  0
  183.6480  178.4810  138.7460 O   0  0  0  0  0  0  0  0  0  0  0  0
  188.4820  178.2230  136.1090 C   0  0  1  0  0  3  0  0  0  0  0  0
  187.6040  177.0300  135.8910 N   0  0  0  0  0  0  0  0  0  0  0  0
  183.2840  174.0910  136.9180 C   0  0  0  0  0  0  0  0  0  0  0  0
  185.3350  177.0150  137.5620 C   0  0  0  0  0  0  0  0  0  0  0  0
  181.3590  177.4810  138.7120 C   0  0  0  0  0  2  0  0  0  0  0  0
  186.2860  173.6110  136.1070 C   0  0  0  0  0  0  0  0  0  0  0  0
  181.7820  179.8350  139.4400 C   0  0  0  0  0  1  0  0  0  0  0  0
  187.1190  178.3280  136.3940 C   0  0  1  0  0  3  0  0  0  0  0  0
  190.3630  177.1350  137.0140 O   0  0  0  0  0  0  0  0  0  0  0  0
  186.4870  177.9670  137.7370 C   0  0  2  0  0  3  0  0  0  0  0  0
  185.1910  172.7460  136.1460 C   0  0  0  0  0  3  0  0  0  0  0  0
  187.4730  171.7150  134.9660 C   0  0  0  0  0  3  0  0  0  0  0  0
  187.5360  172.9000  135.7140 C   0  0  0  0  0  0  0  0  0  0  0  0
  188.7930  173.4140  136.0850 C   0  0  0  0  0  3  0  0  0  0  0  0
  191.2300  173.2720  136.1000 N   0  0  0  0  0  1  0  0  0  0  0  0
  189.8910  171.5670  134.9690 C   0  0  0  0  0  3  0  0  0  0  0  0
  189.9640  172.7460  135.7190 C   0  0  0  0  0  0  0  0  0  0  0  0
  188.6470  171.0520  134.5940 C   0  0  0  0  0  3  0  0  0  0  0  0
  189.2010  177.4980  140.9330 C   0  0  0  0  0  1  0  0  0  0  0  0
  188.1730  178.5520  140.5630 C   0  0  0  0  0  2  0  0  0  0  0  0
  1  4  1  0  0  0  0
  2 24  1  0  0  0  0
  2 14  1  0  0  0  0
  3  9  2  0  0  0  0
  4 37  1  0  0  0  0
  5 19  1  0  0  0  0
  5 10  2  0  0  0  0
  6 22  1  0  0  0  0
  7  3  1  0  0  0  0
  7 21  1  0  0  0  0
  8 12  1  0  0  0  0
  9 13  1  0  0  0  0
  9  6  1  0  0  0  0
 10  7  1  0  0  0  0
 11  6  1  0  0  0  0
 12  4  1  0  0  0  0
 13 17  1  0  0  0  0
 15 20  2  0  0  0  0
 16 11  2  0  0  0  0
 17  2  1  0  0  0  0
 18 25  1  0  0  0  0
 18  8  1  1  0  0  0
 19 18  1  0  0  0  0
 20 16  1  0  0  0  0
 20  3  1  0  0  0  0
 21 13  2  0  0  0  0
 22  2  1  0  0  0  0
 23 28  2  0  0  0  0
 23 10  1  0  0  0  0
 25 19  1  6  0  0  0
 25 27  1  0  0  0  0
 26  8  2  0  0  0  0
 27 21  1  6  0  0  0
 27  1  1  0  0  0  0
 28 15  1  0  0  0  0
 29 30  1  0  0  0  0
 30 31  2  0  0  0  0
 30 23  1  0  0  0  0
 33 34  2  0  0  0  0
 34 31  1  0  0  0  0
 34 32  1  0  0  0  0
 35 29  2  0  0  0  0
 35 33  1  0  0  0  0
 37 36  1  0  0  0  0
M  END
>  <MODEL>
8

>  <REMARK>
 VINA RESULT:      -7.0      2.757      8.421
  Name = 
  2 active torsions:
  status: ('A' for Active; 'I' for Inactive)
    1  A    between atoms: N_4  and  C_37
    2  A    between atoms: C_23  and  C_30
                            x       y       z     vdW  Elec       q    Type
                         _______ _______ _______ _____ _____    ______ ____

>  <TORSDO>
F 2

$$$$
=
 OpenBabel11122411233D

 37 44  0  0  1  0  0  0  0  0999 V2000
  184.7820  174.9750  137.0000 O   0  0  0  0  0  0  0  0  0  0  0  0
  189.8140  175.2180  135.9880 C   0  0  0  0  0  0  0  0  0  0  0  0
  187.7510  177.4700  138.7790 C   0  0  0  0  0  0  0  0  0  0  0  0
  184.2160  174.2590  135.9920 N   0  0  0  0  0  0  0  0  0  0  0  0
  184.1510  178.0760  138.3700 C   0  0  0  0  0  3  0  0  0  0  0  0
  189.9170  176.8580  137.9100 N   0  0  0  0  0  0  0  0  0  0  0  0
  186.4410  177.3650  138.3870 N   0  0  0  0  0  0  0  0  0  0  0  0
  182.4270  175.8990  136.4400 C   0  0  0  0  0  0  0  0  0  0  0  0
  188.5690  176.8600  137.8820 C   0  0  0  0  0  0  0  0  0  0  0  0
  185.3240  177.9160  139.0150 C   0  0  0  0  0  0  0  0  0  0  0  0
  190.5530  177.5220  138.9180 C   0  0  0  0  0  3  0  0  0  0  0  0
  182.7750  174.5080  135.9900 C   0  0  0  0  0  2  0  0  0  0  0  0
  187.8390  176.3080  136.9270 C   0  0  0  0  0  0  0  0  0  0  0  0
  189.9300  173.8760  136.6860 C   0  0  0  0  0  1  0  0  0  0  0  0
  187.7420  178.6740  140.9850 C   0  0  0  0  0  3  0  0  0  0  0  0
  189.8100  178.1630  139.9320 C   0  0  0  0  0  3  0  0  0  0  0  0
  188.4210  175.5790  135.8930 O   0  0  0  0  0  0  0  0  0  0  0  0
  183.1310  177.1290  135.9180 C   0  0  1  0  0  3  0  0  0  0  0  0
  183.9470  177.7280  137.0220 N   0  0  0  0  0  0  0  0  0  0  0  0
  188.4020  178.1570  139.9050 C   0  0  0  0  0  0  0  0  0  0  0  0
  186.5250  176.6060  137.2140 C   0  0  0  0  0  0  0  0  0  0  0  0
  190.6530  176.2690  136.7770 C   0  0  0  0  0  2  0  0  0  0  0  0
  185.2990  178.3780  140.3720 C   0  0  0  0  0  0  0  0  0  0  0  0
  190.3860  175.0820  134.5940 C   0  0  0  0  0  1  0  0  0  0  0  0
  184.5220  177.1280  135.8040 C   0  0  1  0  0  3  0  0  0  0  0  0
  181.4970  176.0400  137.2170 O   0  0  0  0  0  0  0  0  0  0  0  0
  185.4340  176.0310  136.3530 C   0  0  2  0  0  3  0  0  0  0  0  0
  186.3810  178.7200  141.1840 C   0  0  0  0  0  3  0  0  0  0  0  0
  182.8280  178.8170  140.3140 C   0  0  0  0  0  3  0  0  0  0  0  0
  183.9970  178.6090  141.0600 C   0  0  0  0  0  0  0  0  0  0  0  0
  183.9260  178.6140  142.4650 C   0  0  0  0  0  3  0  0  0  0  0  0
  182.6440  178.8380  144.5310 N   0  0  0  0  0  1  0  0  0  0  0  0
  181.5440  179.0360  142.3570 C   0  0  0  0  0  3  0  0  0  0  0  0
  182.7060  178.8320  143.1100 C   0  0  0  0  0  0  0  0  0  0  0  0
  181.6060  179.0280  140.9600 C   0  0  0  0  0  3  0  0  0  0  0  0
  185.8010  172.4160  135.9220 C   0  0  0  0  0  1  0  0  0  0  0  0
  184.4000  172.8540  136.3080 C   0  0  0  0  0  2  0  0  0  0  0  0
  2 14  1  0  0  0  0
  2 22  1  0  0  0  0
  3 20  1  0  0  0  0
  4 37  1  0  0  0  0
  4  1  1  0  0  0  0
  5 10  2  0  0  0  0
  6 11  1  0  0  0  0
  7  3  1  0  0  0  0
  7 10  1  0  0  0  0
  8 26  2  0  0  0  0
  9  6  1  0  0  0  0
  9  3  2  0  0  0  0
 10 23  1  0  0  0  0
 11 16  2  0  0  0  0
 12  4  1  0  0  0  0
 12  8  1  0  0  0  0
 13 21  2  0  0  0  0
 13  9  1  0  0  0  0
 15 28  1  0  0  0  0
 17  2  1  0  0  0  0
 17 13  1  0  0  0  0
 18  8  1  1  0  0  0
 18 19  1  0  0  0  0
 19  5  1  0  0  0  0
 20 16  1  0  0  0  0
 20 15  2  0  0  0  0
 21  7  1  0  0  0  0
 22  6  1  0  0  0  0
 23 30  1  0  0  0  0
 23 28  2  0  0  0  0
 24  2  1  0  0  0  0
 25 18  1  0  0  0  0
 25 27  1  0  0  0  0
 25 19  1  1  0  0  0
 27  1  1  1  0  0  0
 27 21  1  0  0  0  0
 29 35  2  0  0  0  0
 29 30  1  0  0  0  0
 30 31  2  0  0  0  0
 31 34  1  0  0  0  0
 33 34  2  0  0  0  0
 34 32  1  0  0  0  0
 35 33  1  0  0  0  0
 36 37  1  0  0  0  0
M  END
>  <MODEL>
9

>  <REMARK>
 VINA RESULT:      -6.7      2.124      3.058
  Name = 
  2 active torsions:
  status: ('A' for Active; 'I' for Inactive)
    1  A    between atoms: N_4  and  C_37
    2  A    between atoms: C_23  and  C_30
                            x       y       z     vdW  Elec       q    Type
                         _______ _______ _______ _____ _____    ______ ____

>  <TORSDO>
F 2

$$$$
