=
 OpenBabel11122412133D

 34 41  0  0  1  0  0  0  0  0999 V2000
  187.5860  178.6310  140.4940 C   0  0  1  0  0  3  0  0  0  0  0  0
  186.8080  178.2210  138.2380 C   0  0  0  0  0  2  0  0  0  0  0  0
  187.2690  178.2070  147.1230 C   0  0  0  0  0  0  0  0  0  0  0  0
  188.2150  177.8090  142.7740 C   0  0  0  0  0  0  0  0  0  0  0  0
  186.6310  178.1940  144.7460 C   0  0  2  0  0  3  0  0  0  0  0  0
  185.2220  178.8360  146.7020 C   0  0  0  0  0  2  0  0  0  0  0  0
  186.2860  179.2140  147.6760 C   0  0  0  0  0  2  0  0  0  0  0  0
  188.9320  176.6980  146.3530 C   0  0  0  0  0  2  0  0  0  0  0  0
  185.3200  178.4790  139.9340 C   0  0  2  0  0  3  0  0  0  0  0  0
  182.6520  176.7850  140.0260 C   0  0  0  0  0  2  0  0  0  0  0  0
  185.5250  177.9000  143.7440 C   0  0  0  0  0  2  0  0  0  0  0  0
  188.8970  177.0770  144.9370 N   0  0  0  0  0  0  0  0  0  0  0  0
  184.8370  178.0690  141.3360 C   0  0  1  0  0  3  0  0  0  0  0  0
  185.4350  178.0940  137.5910 C   0  0  0  0  0  2  0  0  0  0  0  0
  187.9480  177.6220  144.2170 C   0  0  0  0  0  0  0  0  0  0  0  0
  188.5190  177.8070  147.2580 C   0  0  0  0  0  3  0  0  0  0  0  0
  183.6620  176.8360  138.8610 C   0  0  2  0  0  3  0  0  0  0  0  0
  187.2730  178.3170  141.9480 C   0  0  0  0  0  0  0  0  0  0  0  0
  186.1800  177.8240  146.1600 C   0  0  2  0  0  3  0  0  0  0  0  0
  185.8390  178.5630  142.4000 C   0  0  2  0  0  3  0  0  0  0  0  0
  189.6450  177.2120  140.8640 C   0  0  0  0  0  2  0  0  0  0  0  0
  182.3540  178.1520  140.6440 C   0  0  0  0  0  2  0  0  0  0  0  0
  189.4590  177.4260  142.2580 O   0  0  0  0  0  0  0  0  0  0  0  0
  183.4280  178.5950  141.6450 C   0  0  0  0  0  2  0  0  0  0  0  0
  184.4350  178.1650  138.7340 C   0  0  1  0  0  3  0  0  0  0  0  0
  189.0520  178.3800  140.0950 C   0  0  0  0  0  2  0  0  0  0  0  0
  186.6300  177.9090  139.6500 N   0  0  2  0  0  0  0  0  0  0  0  0
  182.9870  176.5620  137.6680 O   0  0  0  0  0  0  0  0  0  0  0  0
  182.6810  175.2000  137.7310 C   0  0  0  0  0  2  0  0  0  0  0  0
  184.8820  173.1610  137.9510 O   0  0  0  0  0  0  0  0  0  0  0  0
  183.0410  173.0350  136.5720 C   0  0  0  0  0  2  0  0  0  0  0  0
  183.5570  174.4280  136.7570 C   0  0  2  0  0  3  0  0  0  0  0  0
  184.1540  172.2490  137.1800 C   0  0  0  0  0  2  0  0  0  0  0  0
  184.8560  174.3050  137.2740 O   0  0  0  0  0  0  0  0  0  0  0  0
  1 26  1  6  0  0  0
  1 18  1  0  0  0  0
  2 27  1  0  0  0  0
  3 16  2  0  0  0  0
  3  7  1  0  0  0  0
  4 15  1  0  0  0  0
  5 11  1  6  0  0  0
  5 19  1  0  0  0  0
  6  7  1  0  0  0  0
  8 16  1  0  0  0  0
  9 13  1  0  0  0  0
 10 22  1  0  0  0  0
 12  8  1  0  0  0  0
 13 24  1  0  0  0  0
 13 20  1  0  0  0  0
 14  2  1  0  0  0  0
 14 25  1  0  0  0  0
 15  5  1  0  0  0  0
 15 12  2  0  0  0  0
 17 10  1  0  0  0  0
 18 20  1  0  0  0  0
 18  4  2  0  0  0  0
 19  6  1  0  0  0  0
 19  3  1  0  0  0  0
 20 11  1  0  0  0  0
 21 23  1  0  0  0  0
 22 24  1  0  0  0  0
 23  4  1  0  0  0  0
 25 17  1  0  0  0  0
 25  9  1  0  0  0  0
 26 21  1  0  0  0  0
 27  9  1  0  0  0  0
 27  1  1  0  0  0  0
 28 29  1  0  0  0  0
 28 17  1  0  0  0  0
 31 32  1  0  0  0  0
 31 33  1  0  0  0  0
 32 34  1  0  0  0  0
 32 29  1  0  0  0  0
 33 30  1  0  0  0  0
 34 30  1  0  0  0  0
M  END
>  <MODEL>
1

>  <REMARK>
 VINA RESULT:      -9.0      0.000      0.000
  Name = 
  3 active torsions:
  status: ('A' for Active; 'I' for Inactive)
    1  A    between atoms: C_17  and  O_28
    2  A    between atoms: O_28  and  C_29
    3  A    between atoms: C_29  and  C_32
                            x       y       z     vdW  Elec       q    Type
                         _______ _______ _______ _____ _____    ______ ____

>  <TORSDO>
F 3

$$$$
=
 OpenBabel11122412133D

 34 41  0  0  1  0  0  0  0  0999 V2000
  190.8040  177.9100  141.7670 C   0  0  1  0  0  3  0  0  0  0  0  0
  192.1430  177.0300  139.9520 C   0  0  0  0  0  2  0  0  0  0  0  0
  185.1530  178.8770  145.1370 C   0  0  0  0  0  0  0  0  0  0  0  0
  189.1550  177.5890  143.6230 C   0  0  0  0  0  0  0  0  0  0  0  0
  186.7350  178.3620  143.3230 C   0  0  2  0  0  3  0  0  0  0  0  0
  184.4680  179.3850  143.1270 C   0  0  0  0  0  2  0  0  0  0  0  0
  184.3270  179.9680  144.4930 C   0  0  0  0  0  2  0  0  0  0  0  0
  186.4470  177.2560  146.2910 C   0  0  0  0  0  2  0  0  0  0  0  0
  189.9800  177.6230  139.5970 C   0  0  2  0  0  3  0  0  0  0  0  0
  188.1410  175.9610  137.6350 C   0  0  0  0  0  2  0  0  0  0  0  0
  186.8900  177.8550  141.8970 C   0  0  0  0  0  2  0  0  0  0  0  0
  187.6460  177.3310  145.4510 N   0  0  0  0  0  0  0  0  0  0  0  0
  188.5000  177.5110  140.0030 C   0  0  1  0  0  3  0  0  0  0  0  0
  191.8890  176.7580  138.4750 C   0  0  0  0  0  2  0  0  0  0  0  0
  187.7990  177.7040  144.2040 C   0  0  0  0  0  0  0  0  0  0  0  0
  185.6670  178.5260  146.2990 C   0  0  0  0  0  3  0  0  0  0  0  0
  189.6590  175.7760  137.8400 C   0  0  2  0  0  3  0  0  0  0  0  0
  189.3920  177.9040  142.3310 C   0  0  0  0  0  0  0  0  0  0  0  0
  185.2700  178.2910  143.7570 C   0  0  2  0  0  3  0  0  0  0  0  0
  188.2710  178.2250  141.3510 C   0  0  2  0  0  3  0  0  0  0  0  0
  191.4040  176.6190  143.8560 C   0  0  0  0  0  2  0  0  0  0  0  0
  187.7030  177.4240  137.5520 C   0  0  0  0  0  2  0  0  0  0  0  0
  190.2010  177.1180  144.4280 O   0  0  0  0  0  0  0  0  0  0  0  0
  187.5560  178.0760  138.9320 C   0  0  0  0  0  2  0  0  0  0  0  0
  190.4150  177.0570  138.2500 C   0  0  1  0  0  3  0  0  0  0  0  0
  191.9000  177.5960  142.8030 C   0  0  0  0  0  2  0  0  0  0  0  0
  190.8410  177.0190  140.6050 N   0  0  2  0  0  0  0  0  0  0  0  0
  190.2110  175.2540  136.6670 O   0  0  0  0  0  0  0  0  0  0  0  0
  190.2710  173.8740  136.8810 C   0  0  0  0  0  2  0  0  0  0  0  0
  187.6430  172.9340  135.7610 O   0  0  0  0  0  0  0  0  0  0  0  0
  189.2710  174.0960  134.6200 C   0  0  0  0  0  2  0  0  0  0  0  0
  189.8170  173.1370  135.6320 C   0  0  2  0  0  3  0  0  0  0  0  0
  187.8380  173.6800  134.5950 C   0  0  0  0  0  2  0  0  0  0  0  0
  188.7710  172.2560  135.9490 O   0  0  0  0  0  0  0  0  0  0  0  0
  1 18  1  0  0  0  0
  1 26  1  1  0  0  0
  2 27  1  0  0  0  0
  3 16  2  0  0  0  0
  4 15  1  0  0  0  0
  4 23  1  0  0  0  0
  5 11  1  6  0  0  0
  5 19  1  0  0  0  0
  5 15  1  0  0  0  0
  6 19  1  0  0  0  0
  6  7  1  0  0  0  0
  7  3  1  0  0  0  0
  8 16  1  0  0  0  0
  9 13  1  0  0  0  0
  9 27  1  0  0  0  0
 10 17  1  0  0  0  0
 12  8  1  0  0  0  0
 13 20  1  0  0  0  0
 14  2  1  0  0  0  0
 15 12  2  0  0  0  0
 17 25  1  0  0  0  0
 18  4  2  0  0  0  0
 19  3  1  0  0  0  0
 20 11  1  0  0  0  0
 20 18  1  0  0  0  0
 21 23  1  0  0  0  0
 22 10  1  0  0  0  0
 22 24  1  0  0  0  0
 24 13  1  0  0  0  0
 25 14  1  0  0  0  0
 25  9  1  0  0  0  0
 26 21  1  0  0  0  0
 27  1  1  0  0  0  0
 28 29  1  0  0  0  0
 28 17  1  0  0  0  0
 30 34  1  0  0  0  0
 31 32  1  0  0  0  0
 32 34  1  0  0  0  0
 32 29  1  0  0  0  0
 33 31  1  0  0  0  0
 33 30  1  0  0  0  0
M  END
>  <MODEL>
2

>  <REMARK>
 VINA RESULT:      -8.9      2.983      4.524
  Name = 
  3 active torsions:
  status: ('A' for Active; 'I' for Inactive)
    1  A    between atoms: C_17  and  O_28
    2  A    between atoms: O_28  and  C_29
    3  A    between atoms: C_29  and  C_32
                            x       y       z     vdW  Elec       q    Type
                         _______ _______ _______ _____ _____    ______ ____

>  <TORSDO>
F 3

$$$$
=
 OpenBabel11122412133D

 34 41  0  0  1  0  0  0  0  0999 V2000
  187.8060  178.6580  139.9420 C   0  0  1  0  0  3  0  0  0  0  0  0
  185.9690  178.8490  138.3770 C   0  0  0  0  0  2  0  0  0  0  0  0
  190.6350  176.8700  145.6890 C   0  0  0  0  0  0  0  0  0  0  0  0
  189.2530  177.2910  141.4600 C   0  0  0  0  0  0  0  0  0  0  0  0
  188.9470  177.4530  143.9950 C   0  0  2  0  0  3  0  0  0  0  0  0
  188.8390  177.8430  146.4570 C   0  0  0  0  0  2  0  0  0  0  0  0
  190.2940  177.8570  146.7820 C   0  0  0  0  0  2  0  0  0  0  0  0
  191.3350  175.3520  144.0030 C   0  0  0  0  0  2  0  0  0  0  0  0
  185.5830  178.9340  140.6120 C   0  0  2  0  0  3  0  0  0  0  0  0
  182.9880  177.6330  141.8630 C   0  0  0  0  0  2  0  0  0  0  0  0
  187.4610  177.5300  143.6770 C   0  0  0  0  0  2  0  0  0  0  0  0
  190.7100  176.0270  142.8620 N   0  0  0  0  0  0  0  0  0  0  0  0
  185.7570  178.3020  142.0040 C   0  0  1  0  0  3  0  0  0  0  0  0
  184.4660  179.0480  138.5170 C   0  0  0  0  0  2  0  0  0  0  0  0
  189.6800  176.8360  142.8010 C   0  0  0  0  0  0  0  0  0  0  0  0
  191.6700  176.2870  145.1150 C   0  0  0  0  0  3  0  0  0  0  0  0
  183.2930  177.7960  140.3600 C   0  0  2  0  0  3  0  0  0  0  0  0
  188.1710  178.0850  141.3020 C   0  0  0  0  0  0  0  0  0  0  0  0
  189.1630  176.8510  145.3850 C   0  0  2  0  0  3  0  0  0  0  0  0
  187.2290  178.4180  142.4510 C   0  0  2  0  0  3  0  0  0  0  0  0
  189.4120  176.9310  139.0320 C   0  0  0  0  0  2  0  0  0  0  0  0
  183.3380  178.8630  142.7010 C   0  0  0  0  0  2  0  0  0  0  0  0
  189.9730  176.8640  140.3370 O   0  0  0  0  0  0  0  0  0  0  0  0
  184.8300  178.9330  143.0520 C   0  0  0  0  0  2  0  0  0  0  0  0
  184.1840  179.0070  140.0100 C   0  0  1  0  0  3  0  0  0  0  0  0
  188.8010  178.3050  138.8200 C   0  0  0  0  0  2  0  0  0  0  0  0
  186.4290  178.2690  139.6310 N   0  0  2  0  0  0  0  0  0  0  0  0
  182.0850  177.8780  139.6610 O   0  0  0  0  0  0  0  0  0  0  0  0
  181.3500  176.7670  140.0820 C   0  0  0  0  0  2  0  0  0  0  0  0
  179.4390  177.5060  142.2840 O   0  0  0  0  0  0  0  0  0  0  0  0
  179.6990  178.6100  140.2800 C   0  0  0  0  0  2  0  0  0  0  0  0
  179.8760  177.1270  140.1740 C   0  0  2  0  0  3  0  0  0  0  0  0
  179.1420  178.7220  141.6590 C   0  0  0  0  0  2  0  0  0  0  0  0
  179.3200  176.5770  141.3400 O   0  0  0  0  0  0  0  0  0  0  0  0
  1 26  1  6  0  0  0
  1 18  1  0  0  0  0
  2 14  1  0  0  0  0
  2 27  1  0  0  0  0
  3  7  1  0  0  0  0
  4 15  1  0  0  0  0
  5 11  1  6  0  0  0
  5 19  1  0  0  0  0
  6  7  1  0  0  0  0
  8 16  1  0  0  0  0
  9 13  1  0  0  0  0
 10 22  1  0  0  0  0
 12  8  1  0  0  0  0
 13 20  1  0  0  0  0
 13 24  1  0  0  0  0
 14 25  1  0  0  0  0
 15 12  2  0  0  0  0
 15  5  1  0  0  0  0
 16  3  2  0  0  0  0
 17 10  1  0  0  0  0
 18  4  2  0  0  0  0
 18 20  1  0  0  0  0
 19  3  1  0  0  0  0
 19  6  1  0  0  0  0
 20 11  1  0  0  0  0
 21 23  1  0  0  0  0
 22 24  1  0  0  0  0
 23  4  1  0  0  0  0
 25 17  1  0  0  0  0
 25  9  1  0  0  0  0
 26 21  1  0  0  0  0
 27  1  1  0  0  0  0
 27  9  1  0  0  0  0
 28 29  1  0  0  0  0
 28 17  1  0  0  0  0
 29 32  1  0  0  0  0
 31 33  1  0  0  0  0
 32 31  1  0  0  0  0
 32 34  1  0  0  0  0
 33 30  1  0  0  0  0
 34 30  1  0  0  0  0
M  END
>  <MODEL>
3

>  <REMARK>
 VINA RESULT:      -8.8      2.618      3.704
  Name = 
  3 active torsions:
  status: ('A' for Active; 'I' for Inactive)
    1  A    between atoms: C_17  and  O_28
    2  A    between atoms: O_28  and  C_29
    3  A    between atoms: C_29  and  C_32
                            x       y       z     vdW  Elec       q    Type
                         _______ _______ _______ _____ _____    ______ ____

>  <TORSDO>
F 3

$$$$
=
 OpenBabel11122412133D

 34 41  0  0  1  0  0  0  0  0999 V2000
  190.8330  177.9770  141.9910 C   0  0  1  0  0  3  0  0  0  0  0  0
  192.2790  177.1360  140.2410 C   0  0  0  0  0  2  0  0  0  0  0  0
  185.0010  178.8140  145.0740 C   0  0  0  0  0  0  0  0  0  0  0  0
  189.0990  177.6120  143.7590 C   0  0  0  0  0  0  0  0  0  0  0  0
  186.6820  178.3420  143.3400 C   0  0  2  0  0  3  0  0  0  0  0  0
  184.4090  179.3220  143.0350 C   0  0  0  0  0  2  0  0  0  0  0  0
  184.1880  179.8930  144.3950 C   0  0  0  0  0  2  0  0  0  0  0  0
  186.2660  177.2100  146.2830 C   0  0  0  0  0  2  0  0  0  0  0  0
  190.1260  177.6900  139.7810 C   0  0  2  0  0  3  0  0  0  0  0  0
  188.4220  176.0060  137.7170 C   0  0  0  0  0  2  0  0  0  0  0  0
  186.9190  177.8470  141.9210 C   0  0  0  0  0  2  0  0  0  0  0  0
  187.5040  177.3130  145.5060 N   0  0  0  0  0  0  0  0  0  0  0  0
  188.6300  177.5470  140.1100 C   0  0  1  0  0  3  0  0  0  0  0  0
  192.1060  176.8690  138.7520 C   0  0  0  0  0  2  0  0  0  0  0  0
  187.7130  177.6980  144.2700 C   0  0  0  0  0  0  0  0  0  0  0  0
  185.4620  178.4650  146.2590 C   0  0  0  0  0  3  0  0  0  0  0  0
  189.9310  175.8500  137.9980 C   0  0  2  0  0  3  0  0  0  0  0  0
  189.3950  177.9410  142.4820 C   0  0  0  0  0  0  0  0  0  0  0  0
  185.1990  178.2390  143.6990 C   0  0  2  0  0  3  0  0  0  0  0  0
  188.3190  178.2480  141.4480 C   0  0  2  0  0  3  0  0  0  0  0  0
  191.3510  176.6850  144.1000 C   0  0  0  0  0  2  0  0  0  0  0  0
  187.9610  177.4610  137.6210 C   0  0  0  0  0  2  0  0  0  0  0  0
  190.1110  177.1560  144.6130 O   0  0  0  0  0  0  0  0  0  0  0  0
  187.7310  178.1010  138.9960 C   0  0  0  0  0  2  0  0  0  0  0  0
  190.6400  177.1420  138.4540 C   0  0  1  0  0  3  0  0  0  0  0  0
  191.8810  177.6770  143.0800 C   0  0  0  0  0  2  0  0  0  0  0  0
  190.9470  177.0960  140.8270 N   0  0  2  0  0  0  0  0  0  0  0  0
  190.5520  175.3450  136.8520 O   0  0  0  0  0  0  0  0  0  0  0  0
  190.8910  174.0290  137.1760 C   0  0  0  0  0  2  0  0  0  0  0  0
  193.0720  175.4000  135.6220 O   0  0  0  0  0  0  0  0  0  0  0  0
  193.3520  173.7000  137.1500 C   0  0  0  0  0  2  0  0  0  0  0  0
  192.0900  173.5860  136.3520 C   0  0  2  0  0  3  0  0  0  0  0  0
  194.0560  174.7770  136.3960 C   0  0  0  0  0  2  0  0  0  0  0  0
  192.2460  174.4310  135.2410 O   0  0  0  0  0  0  0  0  0  0  0  0
  1 18  1  0  0  0  0
  1 26  1  1  0  0  0
  2 27  1  0  0  0  0
  3 16  2  0  0  0  0
  4 15  1  0  0  0  0
  4 23  1  0  0  0  0
  5 11  1  6  0  0  0
  5 19  1  0  0  0  0
  5 15  1  0  0  0  0
  6 19  1  0  0  0  0
  6  7  1  0  0  0  0
  7  3  1  0  0  0  0
  9 13  1  0  0  0  0
  9 27  1  0  0  0  0
 10 17  1  0  0  0  0
 12  8  1  0  0  0  0
 13 20  1  0  0  0  0
 14  2  1  0  0  0  0
 15 12  2  0  0  0  0
 16  8  1  0  0  0  0
 17 25  1  0  0  0  0
 18  4  2  0  0  0  0
 19  3  1  0  0  0  0
 20 11  1  0  0  0  0
 20 18  1  0  0  0  0
 21 23  1  0  0  0  0
 22 10  1  0  0  0  0
 22 24  1  0  0  0  0
 24 13  1  0  0  0  0
 25 14  1  0  0  0  0
 25  9  1  0  0  0  0
 26 21  1  0  0  0  0
 27  1  1  0  0  0  0
 28 29  1  0  0  0  0
 28 17  1  0  0  0  0
 30 33  1  0  0  0  0
 32 31  1  0  0  0  0
 32 29  1  0  0  0  0
 33 31  1  0  0  0  0
 34 30  1  0  0  0  0
 34 32  1  0  0  0  0
M  END
>  <MODEL>
4

>  <REMARK>
 VINA RESULT:      -8.8      3.537      5.475
  Name = 
  3 active torsions:
  status: ('A' for Active; 'I' for Inactive)
    1  A    between atoms: C_17  and  O_28
    2  A    between atoms: O_28  and  C_29
    3  A    between atoms: C_29  and  C_32
                            x       y       z     vdW  Elec       q    Type
                         _______ _______ _______ _____ _____    ______ ____

>  <TORSDO>
F 3

$$$$
=
 OpenBabel11122412133D

 34 41  0  0  1  0  0  0  0  0999 V2000
  187.5310  178.6390  140.4120 C   0  0  1  0  0  3  0  0  0  0  0  0
  186.7250  178.2480  138.1640 C   0  0  0  0  0  2  0  0  0  0  0  0
  187.2820  178.1840  147.0430 C   0  0  0  0  0  0  0  0  0  0  0  0
  188.1770  177.8000  142.6810 C   0  0  0  0  0  0  0  0  0  0  0  0
  186.6180  178.1890  144.6730 C   0  0  2  0  0  3  0  0  0  0  0  0
  185.2360  178.8330  146.6470 C   0  0  0  0  0  2  0  0  0  0  0  0
  186.3140  179.1960  147.6110 C   0  0  0  0  0  2  0  0  0  0  0  0
  188.9220  176.6630  146.2470 C   0  0  0  0  0  2  0  0  0  0  0  0
  185.2580  178.5100  139.8760 C   0  0  2  0  0  3  0  0  0  0  0  0
  182.5760  176.8410  139.9880 C   0  0  0  0  0  2  0  0  0  0  0  0
  185.4990  177.9100  143.6810 C   0  0  0  0  0  2  0  0  0  0  0  0
  188.8760  177.0500  144.8330 N   0  0  0  0  0  0  0  0  0  0  0  0
  184.7870  178.0980  141.2810 C   0  0  1  0  0  3  0  0  0  0  0  0
  185.3450  178.1360  137.5310 C   0  0  0  0  0  2  0  0  0  0  0  0
  187.9240  177.6070  144.1260 C   0  0  0  0  0  0  0  0  0  0  0  0
  188.5290  177.7710  147.1620 C   0  0  0  0  0  3  0  0  0  0  0  0
  183.5730  176.8880  138.8130 C   0  0  2  0  0  3  0  0  0  0  0  0
  187.2310  178.3200  141.8680 C   0  0  0  0  0  0  0  0  0  0  0  0
  186.1790  177.8150  146.0890 C   0  0  2  0  0  3  0  0  0  0  0  0
  185.8040  178.5770  142.3370 C   0  0  2  0  0  3  0  0  0  0  0  0
  189.5810  177.2000  140.7530 C   0  0  0  0  0  2  0  0  0  0  0  0
  182.2970  178.2070  140.6160 C   0  0  0  0  0  2  0  0  0  0  0  0
  189.4120  177.4080  142.1500 O   0  0  0  0  0  0  0  0  0  0  0  0
  183.3860  178.6350  141.6080 C   0  0  0  0  0  2  0  0  0  0  0  0
  184.3570  178.2110  138.6840 C   0  0  1  0  0  3  0  0  0  0  0  0
  188.9910  178.3770  139.9960 C   0  0  0  0  0  2  0  0  0  0  0  0
  186.5600  177.9300  139.5750 N   0  0  2  0  0  0  0  0  0  0  0  0
  182.8830  176.6270  137.6260 O   0  0  0  0  0  0  0  0  0  0  0  0
  182.8280  175.2340  137.5400 C   0  0  0  0  0  2  0  0  0  0  0  0
  180.1750  174.3720  138.6670 O   0  0  0  0  0  0  0  0  0  0  0  0
  180.5060  175.9350  137.0080 C   0  0  0  0  0  2  0  0  0  0  0  0
  181.4860  174.8030  136.9690 C   0  0  2  0  0  3  0  0  0  0  0  0
  179.5190  175.4090  137.9940 C   0  0  0  0  0  2  0  0  0  0  0  0
  180.9380  173.7770  137.7550 O   0  0  0  0  0  0  0  0  0  0  0  0
  1 26  1  6  0  0  0
  1 18  1  0  0  0  0
  2 27  1  0  0  0  0
  3 16  2  0  0  0  0
  3  7  1  0  0  0  0
  4 15  1  0  0  0  0
  5 11  1  6  0  0  0
  5 19  1  0  0  0  0
  6  7  1  0  0  0  0
  8 16  1  0  0  0  0
  9 13  1  0  0  0  0
 10 22  1  0  0  0  0
 12  8  1  0  0  0  0
 13 24  1  0  0  0  0
 13 20  1  0  0  0  0
 14  2  1  0  0  0  0
 14 25  1  0  0  0  0
 15  5  1  0  0  0  0
 15 12  2  0  0  0  0
 17 10  1  0  0  0  0
 18 20  1  0  0  0  0
 18  4  2  0  0  0  0
 19  6  1  0  0  0  0
 19  3  1  0  0  0  0
 20 11  1  0  0  0  0
 21 23  1  0  0  0  0
 22 24  1  0  0  0  0
 23  4  1  0  0  0  0
 25 17  1  0  0  0  0
 25  9  1  0  0  0  0
 26 21  1  0  0  0  0
 27  9  1  0  0  0  0
 27  1  1  0  0  0  0
 28 17  1  0  0  0  0
 29 28  1  0  0  0  0
 31 33  1  0  0  0  0
 32 31  1  0  0  0  0
 32 29  1  0  0  0  0
 32 34  1  0  0  0  0
 33 30  1  0  0  0  0
 34 30  1  0  0  0  0
M  END
>  <MODEL>
5

>  <REMARK>
 VINA RESULT:      -8.8      1.138      1.644
  Name = 
  3 active torsions:
  status: ('A' for Active; 'I' for Inactive)
    1  A    between atoms: C_17  and  O_28
    2  A    between atoms: O_28  and  C_29
    3  A    between atoms: C_29  and  C_32
                            x       y       z     vdW  Elec       q    Type
                         _______ _______ _______ _____ _____    ______ ____

>  <TORSDO>
F 3

$$$$
=
 OpenBabel11122412133D

 34 41  0  0  1  0  0  0  0  0999 V2000
  182.1880  179.1000  143.4330 C   0  0  1  0  0  3  0  0  0  0  0  0
  183.4970  179.0770  145.4680 C   0  0  0  0  0  2  0  0  0  0  0  0
  180.8550  177.4380  137.1330 C   0  0  0  0  0  0  0  0  0  0  0  0
  181.0120  177.9030  141.5750 C   0  0  0  0  0  0  0  0  0  0  0  0
  182.0610  177.8340  139.2410 C   0  0  2  0  0  3  0  0  0  0  0  0
  182.9450  178.0300  136.9170 C   0  0  0  0  0  2  0  0  0  0  0  0
  181.6740  178.2740  136.1760 C   0  0  0  0  0  2  0  0  0  0  0  0
  179.4300  176.1840  138.5570 C   0  0  0  0  0  2  0  0  0  0  0  0
  184.5200  178.9400  143.4470 C   0  0  2  0  0  3  0  0  0  0  0  0
  187.0770  177.1260  143.0400 C   0  0  0  0  0  2  0  0  0  0  0  0
  183.3790  177.6760  139.9840 C   0  0  0  0  0  2  0  0  0  0  0  0
  179.8140  176.8170  139.8230 N   0  0  0  0  0  0  0  0  0  0  0  0
  184.6410  178.2540  142.0750 C   0  0  1  0  0  3  0  0  0  0  0  0
  184.9860  179.0030  145.7770 C   0  0  0  0  0  2  0  0  0  0  0  0
  180.9140  177.4380  140.1730 C   0  0  0  0  0  0  0  0  0  0  0  0
  179.6100  177.0830  137.3830 C   0  0  0  0  0  3  0  0  0  0  0  0
  186.3870  177.4430  144.3820 C   0  0  2  0  0  3  0  0  0  0  0  0
  182.1300  178.5070  142.0340 C   0  0  0  0  0  0  0  0  0  0  0  0
  182.1470  177.1850  137.8590 C   0  0  2  0  0  3  0  0  0  0  0  0
  183.4090  178.5920  141.2100 C   0  0  2  0  0  3  0  0  0  0  0  0
  180.0960  177.7440  143.8520 C   0  0  0  0  0  2  0  0  0  0  0  0
  187.2180  178.3380  142.1170 C   0  0  0  0  0  2  0  0  0  0  0  0
  179.9330  177.6860  142.4400 O   0  0  0  0  0  0  0  0  0  0  0  0
  185.9310  178.6410  141.3390 C   0  0  0  0  0  2  0  0  0  0  0  0
  185.6740  178.8110  144.4340 C   0  0  1  0  0  3  0  0  0  0  0  0
  180.8640  179.0030  144.2150 C   0  0  0  0  0  2  0  0  0  0  0  0
  183.3190  178.5000  144.1430 N   0  0  2  0  0  0  0  0  0  0  0  0
  187.3350  177.3620  145.4060 O   0  0  0  0  0  0  0  0  0  0  0  0
  188.5500  177.1330  144.7550 C   0  0  0  0  0  2  0  0  0  0  0  0
  190.0590  176.8080  147.3370 O   0  0  0  0  0  0  0  0  0  0  0  0
  190.9800  177.1870  145.2600 C   0  0  0  0  0  2  0  0  0  0  0  0
  189.6680  177.8770  145.4690 C   0  0  2  0  0  3  0  0  0  0  0  0
  191.2760  176.7370  146.6510 C   0  0  0  0  0  2  0  0  0  0  0  0
  189.4350  177.8770  146.8530 O   0  0  0  0  0  0  0  0  0  0  0  0
  1 27  1  0  0  0  0
  1 26  1  1  0  0  0
  2 14  1  0  0  0  0
  3 16  2  0  0  0  0
  3 19  1  0  0  0  0
  4 18  2  0  0  0  0
  4 23  1  0  0  0  0
  5 11  1  1  0  0  0
  5 15  1  0  0  0  0
  6 19  1  0  0  0  0
  7  6  1  0  0  0  0
  7  3  1  0  0  0  0
  8 12  1  0  0  0  0
  9 27  1  0  0  0  0
  9 25  1  0  0  0  0
 10 17  1  0  0  0  0
 11 20  1  0  0  0  0
 12 15  2  0  0  0  0
 13  9  1  0  0  0  0
 15  4  1  0  0  0  0
 16  8  1  0  0  0  0
 17 25  1  0  0  0  0
 17 28  1  0  0  0  0
 18  1  1  0  0  0  0
 19  5  1  0  0  0  0
 20 18  1  0  0  0  0
 20 13  1  0  0  0  0
 21 26  1  0  0  0  0
 22 10  1  0  0  0  0
 23 21  1  0  0  0  0
 24 13  1  0  0  0  0
 24 22  1  0  0  0  0
 25 14  1  0  0  0  0
 27  2  1  0  0  0  0
 29 28  1  0  0  0  0
 29 32  1  0  0  0  0
 31 32  1  0  0  0  0
 31 33  1  0  0  0  0
 32 34  1  0  0  0  0
 33 30  1  0  0  0  0
 34 30  1  0  0  0  0
M  END
>  <MODEL>
6

>  <REMARK>
 VINA RESULT:      -8.5      3.350      8.796
  Name = 
  3 active torsions:
  status: ('A' for Active; 'I' for Inactive)
    1  A    between atoms: C_17  and  O_28
    2  A    between atoms: O_28  and  C_29
    3  A    between atoms: C_29  and  C_32
                            x       y       z     vdW  Elec       q    Type
                         _______ _______ _______ _____ _____    ______ ____

>  <TORSDO>
F 3

$$$$
=
 OpenBabel11122412133D

 34 41  0  0  1  0  0  0  0  0999 V2000
  187.3840  178.3370  138.9600 C   0  0  1  0  0  3  0  0  0  0  0  0
  185.8940  178.6620  140.8400 C   0  0  0  0  0  2  0  0  0  0  0  0
  192.5990  175.6510  135.8280 C   0  0  0  0  0  0  0  0  0  0  0  0
  188.5650  176.8390  137.3390 C   0  0  0  0  0  0  0  0  0  0  0  0
  191.0720  176.4000  137.6060 C   0  0  2  0  0  3  0  0  0  0  0  0
  193.5580  176.2210  137.7040 C   0  0  0  0  0  2  0  0  0  0  0  0
  193.8830  176.3270  136.2520 C   0  0  0  0  0  2  0  0  0  0  0  0
  190.6210  174.6320  135.0010 C   0  0  0  0  0  2  0  0  0  0  0  0
  188.0910  178.2070  141.1850 C   0  0  2  0  0  3  0  0  0  0  0  0
  189.0120  176.3780  143.5940 C   0  0  0  0  0  2  0  0  0  0  0  0
  190.7740  176.3790  139.0980 C   0  0  0  0  0  2  0  0  0  0  0  0
  189.6560  175.4680  135.7220 N   0  0  0  0  0  0  0  0  0  0  0  0
  189.3080  177.3060  140.9120 C   0  0  1  0  0  3  0  0  0  0  0  0
  186.0700  178.6550  142.3530 C   0  0  0  0  0  2  0  0  0  0  0  0
  189.7740  176.1500  136.8350 C   0  0  0  0  0  0  0  0  0  0  0  0
  191.9140  175.3290  134.7480 C   0  0  0  0  0  3  0  0  0  0  0  0
  187.5850  176.9030  143.3410 C   0  0  2  0  0  3  0  0  0  0  0  0
  188.5840  177.5220  138.5050 C   0  0  0  0  0  0  0  0  0  0  0  0
  192.2940  175.5350  137.2950 C   0  0  2  0  0  3  0  0  0  0  0  0
  189.7750  177.4840  139.4530 C   0  0  2  0  0  3  0  0  0  0  0  0
  186.1180  177.0460  137.1940 C   0  0  0  0  0  2  0  0  0  0  0  0
  190.1040  177.4230  143.3630 C   0  0  0  0  0  2  0  0  0  0  0  0
  187.3780  176.7550  136.6000 O   0  0  0  0  0  0  0  0  0  0  0  0
  190.4670  177.5810  141.8810 C   0  0  0  0  0  2  0  0  0  0  0  0
  187.5160  178.2530  142.5960 C   0  0  1  0  0  3  0  0  0  0  0  0
  186.2150  178.3550  137.9570 C   0  0  0  0  0  2  0  0  0  0  0  0
  186.9900  177.8740  140.2930 N   0  0  2  0  0  0  0  0  0  0  0  0
  186.9170  177.0010  144.5650 O   0  0  0  0  0  0  0  0  0  0  0  0
  187.7600  177.7650  145.3750 C   0  0  0  0  0  2  0  0  0  0  0  0
  189.7890  177.5930  147.5890 O   0  0  0  0  0  0  0  0  0  0  0  0
  187.5930  178.2520  147.8030 C   0  0  0  0  0  2  0  0  0  0  0  0
  187.7990  177.1810  146.7780 C   0  0  2  0  0  3  0  0  0  0  0  0
  188.9260  178.2530  148.4710 C   0  0  0  0  0  2  0  0  0  0  0  0
  189.0650  176.6280  147.0310 O   0  0  0  0  0  0  0  0  0  0  0  0
  1 26  1  6  0  0  0
  1 27  1  0  0  0  0
  2 14  1  0  0  0  0
  3  7  1  0  0  0  0
  3 19  1  0  0  0  0
  4 18  2  0  0  0  0
  5 11  1  1  0  0  0
  7  6  1  0  0  0  0
  8 12  1  0  0  0  0
  9 25  1  0  0  0  0
 11 20  1  0  0  0  0
 12 15  2  0  0  0  0
 13  9  1  0  0  0  0
 13 24  1  0  0  0  0
 14 25  1  0  0  0  0
 15  4  1  0  0  0  0
 15  5  1  0  0  0  0
 16  8  1  0  0  0  0
 16  3  2  0  0  0  0
 17 10  1  0  0  0  0
 17 28  1  0  0  0  0
 18  1  1  0  0  0  0
 18 20  1  0  0  0  0
 19  5  1  0  0  0  0
 19  6  1  0  0  0  0
 20 13  1  0  0  0  0
 21 26  1  0  0  0  0
 22 10  1  0  0  0  0
 23 21  1  0  0  0  0
 23  4  1  0  0  0  0
 24 22  1  0  0  0  0
 25 17  1  0  0  0  0
 27  2  1  0  0  0  0
 27  9  1  0  0  0  0
 28 29  1  0  0  0  0
 29 32  1  0  0  0  0
 30 33  1  0  0  0  0
 31 33  1  0  0  0  0
 32 34  1  0  0  0  0
 32 31  1  0  0  0  0
 34 30  1  0  0  0  0
M  END
>  <MODEL>
7

>  <REMARK>
 VINA RESULT:      -8.5      3.356      8.674
  Name = 
  3 active torsions:
  status: ('A' for Active; 'I' for Inactive)
    1  A    between atoms: C_17  and  O_28
    2  A    between atoms: O_28  and  C_29
    3  A    between atoms: C_29  and  C_32
                            x       y       z     vdW  Elec       q    Type
                         _______ _______ _______ _____ _____    ______ ____

>  <TORSDO>
F 3

$$$$
=
 OpenBabel11122412133D

 34 41  0  0  1  0  0  0  0  0999 V2000
  187.6030  178.6440  140.4490 C   0  0  1  0  0  3  0  0  0  0  0  0
  186.8010  178.2370  138.2020 C   0  0  0  0  0  2  0  0  0  0  0  0
  187.3110  178.2880  147.0830 C   0  0  0  0  0  0  0  0  0  0  0  0
  188.2200  177.8240  142.7330 C   0  0  0  0  0  0  0  0  0  0  0  0
  186.6590  178.2730  144.7100 C   0  0  2  0  0  3  0  0  0  0  0  0
  185.2810  178.9730  146.6680 C   0  0  0  0  0  2  0  0  0  0  0  0
  186.3610  179.3280  147.6330 C   0  0  0  0  0  2  0  0  0  0  0  0
  188.9240  176.7230  146.3180 C   0  0  0  0  0  2  0  0  0  0  0  0
  185.3310  178.5540  139.9030 C   0  0  2  0  0  3  0  0  0  0  0  0
  182.6150  176.9410  140.0240 C   0  0  0  0  0  2  0  0  0  0  0  0
  185.5400  178.0030  143.7160 C   0  0  0  0  0  2  0  0  0  0  0  0
  188.8930  177.0910  144.8990 N   0  0  0  0  0  0  0  0  0  0  0  0
  184.8440  178.1710  141.3110 C   0  0  1  0  0  3  0  0  0  0  0  0
  185.4220  178.1450  137.5630 C   0  0  0  0  0  2  0  0  0  0  0  0
  187.9560  177.6570  144.1790 C   0  0  0  0  0  0  0  0  0  0  0  0
  188.5490  177.8520  147.2160 C   0  0  0  0  0  3  0  0  0  0  0  0
  183.6190  176.9520  138.8530 C   0  0  2  0  0  3  0  0  0  0  0  0
  187.2890  178.3520  141.9080 C   0  0  0  0  0  0  0  0  0  0  0  0
  186.2060  177.9280  146.1300 C   0  0  2  0  0  3  0  0  0  0  0  0
  185.8660  178.6450  142.3650 C   0  0  2  0  0  3  0  0  0  0  0  0
  189.6210  177.1690  140.8210 C   0  0  0  0  0  2  0  0  0  0  0  0
  182.3600  178.3210  140.6310 C   0  0  0  0  0  2  0  0  0  0  0  0
  189.4500  177.4000  142.2140 O   0  0  0  0  0  0  0  0  0  0  0  0
  183.4530  178.7410  141.6230 C   0  0  0  0  0  2  0  0  0  0  0  0
  184.4300  178.2570  138.7100 C   0  0  1  0  0  3  0  0  0  0  0  0
  189.0590  178.3470  140.0450 C   0  0  0  0  0  2  0  0  0  0  0  0
  186.6220  177.9440  139.6170 N   0  0  2  0  0  0  0  0  0  0  0  0
  182.9290  176.6880  137.6660 O   0  0  0  0  0  0  0  0  0  0  0  0
  181.5880  176.5850  138.0430 C   0  0  0  0  0  2  0  0  0  0  0  0
  180.2130  179.2520  137.8310 O   0  0  0  0  0  0  0  0  0  0  0  0
  181.5060  178.2540  136.2070 C   0  0  0  0  0  2  0  0  0  0  0  0
  180.7070  177.2810  137.0190 C   0  0  2  0  0  3  0  0  0  0  0  0
  180.8950  179.5420  136.6440 C   0  0  0  0  0  2  0  0  0  0  0  0
  179.7140  178.0300  137.6700 O   0  0  0  0  0  0  0  0  0  0  0  0
  1 26  1  6  0  0  0
  1 18  1  0  0  0  0
  2 27  1  0  0  0  0
  3 16  2  0  0  0  0
  3  7  1  0  0  0  0
  4 15  1  0  0  0  0
  5 11  1  6  0  0  0
  5 19  1  0  0  0  0
  6  7  1  0  0  0  0
  8 16  1  0  0  0  0
  9 13  1  0  0  0  0
 10 22  1  0  0  0  0
 12  8  1  0  0  0  0
 13 24  1  0  0  0  0
 13 20  1  0  0  0  0
 14  2  1  0  0  0  0
 14 25  1  0  0  0  0
 15  5  1  0  0  0  0
 15 12  2  0  0  0  0
 17 10  1  0  0  0  0
 18 20  1  0  0  0  0
 18  4  2  0  0  0  0
 19  6  1  0  0  0  0
 19  3  1  0  0  0  0
 20 11  1  0  0  0  0
 21 23  1  0  0  0  0
 22 24  1  0  0  0  0
 23  4  1  0  0  0  0
 25 17  1  0  0  0  0
 25  9  1  0  0  0  0
 26 21  1  0  0  0  0
 27  9  1  0  0  0  0
 27  1  1  0  0  0  0
 28 29  1  0  0  0  0
 28 17  1  0  0  0  0
 31 33  1  0  0  0  0
 31 32  1  0  0  0  0
 32 34  1  0  0  0  0
 32 29  1  0  0  0  0
 33 30  1  0  0  0  0
 34 30  1  0  0  0  0
M  END
>  <MODEL>
8

>  <REMARK>
 VINA RESULT:      -8.4      1.549      2.503
  Name = 
  3 active torsions:
  status: ('A' for Active; 'I' for Inactive)
    1  A    between atoms: C_17  and  O_28
    2  A    between atoms: O_28  and  C_29
    3  A    between atoms: C_29  and  C_32
                            x       y       z     vdW  Elec       q    Type
                         _______ _______ _______ _____ _____    ______ ____

>  <TORSDO>
F 3

$$$$
=
 OpenBabel11122412133D

 34 41  0  0  1  0  0  0  0  0999 V2000
  188.0030  178.6510  141.0570 C   0  0  1  0  0  3  0  0  0  0  0  0
  186.6890  178.5850  139.0250 C   0  0  0  0  0  2  0  0  0  0  0  0
  189.1210  177.5660  147.5220 C   0  0  0  0  0  0  0  0  0  0  0  0
  189.0000  177.5190  143.0550 C   0  0  0  0  0  0  0  0  0  0  0  0
  187.9710  177.8860  145.3690 C   0  0  2  0  0  3  0  0  0  0  0  0
  187.1460  178.4860  147.6450 C   0  0  0  0  0  2  0  0  0  0  0  0
  188.4440  178.6220  148.3650 C   0  0  0  0  0  2  0  0  0  0  0  0
  190.3300  175.9510  146.2700 C   0  0  0  0  0  2  0  0  0  0  0  0
  185.6730  178.8440  141.0390 C   0  0  2  0  0  3  0  0  0  0  0  0
  182.8750  177.4970  141.6320 C   0  0  0  0  0  2  0  0  0  0  0  0
  186.6390  177.8410  144.6380 C   0  0  0  0  0  2  0  0  0  0  0  0
  190.0350  176.4810  144.9350 N   0  0  0  0  0  0  0  0  0  0  0  0
  185.4620  178.3500  142.4800 C   0  0  1  0  0  3  0  0  0  0  0  0
  185.2030  178.7000  138.7130 C   0  0  0  0  0  2  0  0  0  0  0  0
  189.0380  177.2140  144.5020 C   0  0  0  0  0  0  0  0  0  0  0  0
  190.2960  177.0000  147.3280 C   0  0  0  0  0  3  0  0  0  0  0  0
  183.5940  177.5450  140.2680 C   0  0  2  0  0  3  0  0  0  0  0  0
  187.9820  178.2260  142.5160 C   0  0  0  0  0  0  0  0  0  0  0  0
  187.8000  177.4260  146.8180 C   0  0  2  0  0  3  0  0  0  0  0  0
  186.7370  178.5990  143.3110 C   0  0  2  0  0  3  0  0  0  0  0  0
  189.8630  176.9560  140.8220 C   0  0  0  0  0  2  0  0  0  0  0  0
  182.9260  178.8160  142.4030 C   0  0  0  0  0  2  0  0  0  0  0  0
  190.0270  177.0410  142.2320 O   0  0  0  0  0  0  0  0  0  0  0  0
  184.2500  179.0120  143.1520 C   0  0  0  0  0  2  0  0  0  0  0  0
  184.5050  178.7740  140.0620 C   0  0  1  0  0  3  0  0  0  0  0  0
  189.2910  178.2640  140.3050 C   0  0  0  0  0  2  0  0  0  0  0  0
  186.7880  178.1490  140.4110 N   0  0  2  0  0  0  0  0  0  0  0  0
  182.6370  177.4870  139.2510 O   0  0  0  0  0  0  0  0  0  0  0  0
  182.0020  176.2550  139.4250 C   0  0  0  0  0  2  0  0  0  0  0  0
  180.7140  175.0810  136.9730 O   0  0  0  0  0  0  0  0  0  0  0  0
  182.8010  176.0480  137.0830 C   0  0  0  0  0  2  0  0  0  0  0  0
  182.4230  175.2960  138.3220 C   0  0  2  0  0  3  0  0  0  0  0  0
  181.7190  175.6090  136.1560 C   0  0  0  0  0  2  0  0  0  0  0  0
  181.3450  174.4680  137.9700 O   0  0  0  0  0  0  0  0  0  0  0  0
  1 26  1  6  0  0  0
  1 18  1  0  0  0  0
  2 27  1  0  0  0  0
  3  7  1  0  0  0  0
  4 15  1  0  0  0  0
  5 11  1  6  0  0  0
  5 19  1  0  0  0  0
  6  7  1  0  0  0  0
  8 16  1  0  0  0  0
  9 13  1  0  0  0  0
 10 22  1  0  0  0  0
 12  8  1  0  0  0  0
 13 24  1  0  0  0  0
 13 20  1  0  0  0  0
 14  2  1  0  0  0  0
 14 25  1  0  0  0  0
 15 12  2  0  0  0  0
 15  5  1  0  0  0  0
 16  3  2  0  0  0  0
 17 10  1  0  0  0  0
 18  4  2  0  0  0  0
 18 20  1  0  0  0  0
 19  3  1  0  0  0  0
 19  6  1  0  0  0  0
 20 11  1  0  0  0  0
 21 23  1  0  0  0  0
 22 24  1  0  0  0  0
 23  4  1  0  0  0  0
 25 17  1  0  0  0  0
 25  9  1  0  0  0  0
 26 21  1  0  0  0  0
 27  9  1  0  0  0  0
 27  1  1  0  0  0  0
 28 29  1  0  0  0  0
 28 17  1  0  0  0  0
 30 34  1  0  0  0  0
 31 32  1  0  0  0  0
 32 29  1  0  0  0  0
 33 30  1  0  0  0  0
 33 31  1  0  0  0  0
 34 32  1  0  0  0  0
M  END
>  <MODEL>
9

>  <REMARK>
 VINA RESULT:      -8.0      1.605      1.968
  Name = 
  3 active torsions:
  status: ('A' for Active; 'I' for Inactive)
    1  A    between atoms: C_17  and  O_28
    2  A    between atoms: O_28  and  C_29
    3  A    between atoms: C_29  and  C_32
                            x       y       z     vdW  Elec       q    Type
                         _______ _______ _______ _____ _____    ______ ____

>  <TORSDO>
F 3

$$$$
