=
 OpenBabel11122411563D

 28 32  0  0  1  0  0  0  0  0999 V2000
  180.8670  179.1980  137.5750 C   0  0  0  0  0  0  0  0  0  0  0  0
  185.2220  176.7640  138.3230 F   0  0  0  0  0  0  0  0  0  0  0  0
  180.6180  178.6520  142.3660 O   0  0  0  0  0  0  0  0  0  0  0  0
  181.3190  181.8530  138.3460 C   0  0  0  0  0  3  0  0  0  0  0  0
  182.9250  178.7550  141.9270 N   0  0  0  0  0  0  0  0  0  0  0  0
  180.5700  177.7730  137.2200 C   0  0  0  0  0  2  0  0  0  0  0  0
  185.6920  178.3390  136.7880 F   0  0  0  0  0  0  0  0  0  0  0  0
  185.5690  178.0950  138.1430 C   0  0  0  0  0  0  0  0  0  0  0  0
  186.7220  178.2760  140.3170 C   0  0  1  0  0  3  0  0  0  0  0  0
  184.4970  179.0420  138.7260 C   0  0  2  0  0  3  0  0  0  0  0  0
  178.9310  178.6400  139.8260 O   0  0  0  0  0  1  0  0  0  0  0  0
  182.8310  177.6280  139.8270 C   0  0  1  0  0  3  0  0  0  0  0  0
  185.9400  179.3650  140.7430 O   0  0  0  0  0  0  0  0  0  0  0  0
  186.9130  178.3360  138.8090 C   0  0  0  0  0  2  0  0  0  0  0  0
  179.2260  177.3440  139.3960 C   0  0  2  0  0  3  0  0  0  0  0  0
  182.0560  179.5320  138.2560 C   0  0  0  0  0  0  0  0  0  0  0  0
  181.5920  178.4370  141.5960 C   0  0  0  0  0  0  0  0  0  0  0  0
  188.0720  178.3330  140.9980 C   0  0  0  0  0  1  0  0  0  0  0  0
  180.4500  176.7630  140.1090 C   0  0  0  0  0  2  0  0  0  0  0  0
  182.2580  180.8660  138.6550 C   0  0  0  0  0  3  0  0  0  0  0  0
  179.9400  180.1980  137.2520 C   0  0  0  0  0  3  0  0  0  0  0  0
  180.1650  181.5210  137.6350 C   0  0  0  0  0  3  0  0  0  0  0  0
  179.2810  177.2560  137.8660 C   0  0  0  0  0  2  0  0  0  0  0  0
  183.7890  178.1590  140.9200 C   0  0  1  0  0  3  0  0  0  0  0  0
  181.4750  177.7730  140.3520 N   0  0  0  0  0  0  0  0  0  0  0  0
  184.6200  179.2360  140.2440 C   0  0  2  0  0  3  0  0  0  0  0  0
  183.3330  179.0130  143.1900 O   0  0  0  0  0  1  0  0  0  0  0  0
  183.0940  178.4620  138.5530 C   0  0  1  0  0  3  0  0  0  0  0  0
  1 16  1  0  0  0  0
  4 20  1  0  0  0  0
  5 27  1  0  0  0  0
  6  1  1  0  0  0  0
  6 23  1  0  0  0  0
  7  8  1  0  0  0  0
  8  2  1  0  0  0  0
  8 14  1  0  0  0  0
  9 13  1  0  0  0  0
  9 18  1  1  0  0  0
 10  8  1  1  0  0  0
 10 26  1  0  0  0  0
 12 25  1  1  0  0  0
 12 24  1  0  0  0  0
 14  9  1  0  0  0  0
 15 11  1  6  0  0  0
 15 19  1  0  0  0  0
 16 20  2  0  0  0  0
 17  5  1  0  0  0  0
 17  3  2  0  0  0  0
 19 25  1  0  0  0  0
 21  1  2  0  0  0  0
 21 22  1  0  0  0  0
 22  4  2  0  0  0  0
 23 15  1  0  0  0  0
 24  5  1  1  0  0  0
 25 17  1  0  0  0  0
 26 13  1  1  0  0  0
 26 24  1  0  0  0  0
 28 16  1  1  0  0  0
 28 10  1  0  0  0  0
 28 12  1  0  0  0  0
M  END
>  <MODEL>
1

>  <REMARK>
 VINA RESULT:      -6.2      0.000      0.000
  Name = 
  0 active torsions:
  status: ('A' for Active; 'I' for Inactive)
                            x       y       z     vdW  Elec       q    Type
                         _______ _______ _______ _____ _____    ______ ____

>  <TORSDO>
F 0

$$$$
=
 OpenBabel11122411563D

 28 32  0  0  1  0  0  0  0  0999 V2000
  189.3620  178.2480  138.2760 C   0  0  0  0  0  0  0  0  0  0  0  0
  192.3740  176.1690  134.8040 F   0  0  0  0  0  0  0  0  0  0  0  0
  186.7030  174.3660  137.1910 O   0  0  0  0  0  0  0  0  0  0  0  0
  189.7530  176.7740  140.6260 C   0  0  0  0  0  3  0  0  0  0  0  0
  188.9120  173.6660  136.8000 N   0  0  0  0  0  0  0  0  0  0  0  0
  189.0760  179.0130  137.0200 C   0  0  0  0  0  2  0  0  0  0  0  0
  193.7630  176.9140  136.4080 F   0  0  0  0  0  0  0  0  0  0  0  0
  192.9530  175.8610  136.0270 C   0  0  0  0  0  0  0  0  0  0  0  0
  192.8930  173.4240  135.6470 C   0  0  1  0  0  3  0  0  0  0  0  0
  191.8830  175.6340  137.1180 C   0  0  2  0  0  3  0  0  0  0  0  0
  186.5090  177.3250  137.9070 O   0  0  0  0  0  1  0  0  0  0  0  0
  189.7060  175.7710  136.0080 C   0  0  1  0  0  3  0  0  0  0  0  0
  192.1700  173.1670  136.8270 O   0  0  0  0  0  0  0  0  0  0  0  0
  193.8110  174.6190  135.8540 C   0  0  0  0  0  2  0  0  0  0  0  0
  186.7880  177.8540  136.6440 C   0  0  2  0  0  3  0  0  0  0  0  0
  190.0930  177.0430  138.2280 C   0  0  0  0  0  0  0  0  0  0  0  0
  187.8870  174.6330  136.8530 C   0  0  0  0  0  0  0  0  0  0  0  0
  193.7230  172.2080  135.2950 C   0  0  0  0  0  1  0  0  0  0  0  0
  187.4000  176.8140  135.7030 C   0  0  0  0  0  2  0  0  0  0  0  0
  190.2620  176.3040  139.4130 C   0  0  0  0  0  3  0  0  0  0  0  0
  188.8710  178.7220  139.5000 C   0  0  0  0  0  3  0  0  0  0  0  0
  189.0670  177.9880  140.6710 C   0  0  0  0  0  3  0  0  0  0  0  0
  187.5780  179.1640  136.7440 C   0  0  0  0  0  2  0  0  0  0  0  0
  190.0640  174.2720  136.1520 C   0  0  1  0  0  3  0  0  0  0  0  0
  188.3050  175.9070  136.4020 N   0  0  0  0  0  0  0  0  0  0  0  0
  191.2670  174.2290  137.0800 C   0  0  2  0  0  3  0  0  0  0  0  0
  188.6750  172.3340  136.7890 O   0  0  0  0  0  1  0  0  0  0  0  0
  190.6820  176.5560  136.9140 C   0  0  1  0  0  3  0  0  0  0  0  0
  1 21  1  0  0  0  0
  2  8  1  0  0  0  0
  4 22  1  0  0  0  0
  5 17  1  0  0  0  0
  6  1  1  0  0  0  0
  8  7  1  0  0  0  0
  9 18  1  1  0  0  0
  9 14  1  0  0  0  0
  9 13  1  0  0  0  0
 10  8  1  6  0  0  0
 12 24  1  0  0  0  0
 12 25  1  1  0  0  0
 12 28  1  0  0  0  0
 14  8  1  0  0  0  0
 15 23  1  0  0  0  0
 15 11  1  1  0  0  0
 16  1  2  0  0  0  0
 16 20  1  0  0  0  0
 17  3  2  0  0  0  0
 19 25  1  0  0  0  0
 19 15  1  0  0  0  0
 20  4  2  0  0  0  0
 21 22  2  0  0  0  0
 23  6  1  0  0  0  0
 24  5  1  1  0  0  0
 24 26  1  0  0  0  0
 25 17  1  0  0  0  0
 26 13  1  6  0  0  0
 26 10  1  0  0  0  0
 27  5  1  0  0  0  0
 28 10  1  0  0  0  0
 28 16  1  1  0  0  0
M  END
>  <MODEL>
2

>  <REMARK>
 VINA RESULT:      -6.2      6.168      8.839
  Name = 
  0 active torsions:
  status: ('A' for Active; 'I' for Inactive)
                            x       y       z     vdW  Elec       q    Type
                         _______ _______ _______ _____ _____    ______ ____

>  <TORSDO>
F 0

$$$$
=
 OpenBabel11122411563D

 28 32  0  0  1  0  0  0  0  0999 V2000
  180.4200  177.7770  139.3130 C   0  0  0  0  0  0  0  0  0  0  0  0
  182.1210  180.1680  143.4170 F   0  0  0  0  0  0  0  0  0  0  0  0
  184.8290  178.9520  137.7340 O   0  0  0  0  0  0  0  0  0  0  0  0
  181.5960  175.2340  139.3530 C   0  0  0  0  0  3  0  0  0  0  0  0
  185.1010  178.7300  140.0580 N   0  0  0  0  0  0  0  0  0  0  0  0
  179.8290  179.1500  139.2220 C   0  0  0  0  0  2  0  0  0  0  0  0
  180.9870  178.3930  144.2050 F   0  0  0  0  0  0  0  0  0  0  0  0
  182.2080  178.8160  143.7140 C   0  0  0  0  0  0  0  0  0  0  0  0
  184.6300  178.8900  144.1800 C   0  0  1  0  0  3  0  0  0  0  0  0
  182.5580  177.9830  142.4610 C   0  0  2  0  0  3  0  0  0  0  0  0
  181.9230  178.6770  136.8520 O   0  0  0  0  0  1  0  0  0  0  0  0
  182.9490  179.5740  140.6440 C   0  0  1  0  0  3  0  0  0  0  0  0
  184.9320  177.8870  143.2400 O   0  0  0  0  0  0  0  0  0  0  0  0
  183.2620  178.6280  144.7920 C   0  0  0  0  0  2  0  0  0  0  0  0
  181.4500  179.8980  137.3410 C   0  0  2  0  0  3  0  0  0  0  0  0
  181.4540  177.5020  140.2320 C   0  0  0  0  0  0  0  0  0  0  0  0
  184.3580  179.0370  138.8990 C   0  0  0  0  0  0  0  0  0  0  0  0
  185.6790  178.8850  145.2710 C   0  0  0  0  0  1  0  0  0  0  0  0
  182.4160  180.5330  138.3430 C   0  0  0  0  0  2  0  0  0  0  0  0
  182.0490  176.2270  140.2240 C   0  0  0  0  0  3  0  0  0  0  0  0
  179.9590  176.7690  138.4550 C   0  0  0  0  0  3  0  0  0  0  0  0
  180.5440  175.5020  138.4760 C   0  0  0  0  0  3  0  0  0  0  0  0
  180.0040  179.7830  137.8390 C   0  0  0  0  0  2  0  0  0  0  0  0
  184.3290  179.1650  141.2110 C   0  0  1  0  0  3  0  0  0  0  0  0
  183.0660  179.5360  139.1880 N   0  0  0  0  0  0  0  0  0  0  0  0
  184.0570  177.9860  142.1310 C   0  0  2  0  0  3  0  0  0  0  0  0
  186.4500  178.6280  140.0680 O   0  0  0  0  0  1  0  0  0  0  0  0
  181.9150  178.5730  141.2080 C   0  0  1  0  0  3  0  0  0  0  0  0
  1 16  1  0  0  0  0
  2  8  1  0  0  0  0
  3 17  2  0  0  0  0
  4 20  1  0  0  0  0
  5 27  1  0  0  0  0
  6  1  1  0  0  0  0
  8  7  1  0  0  0  0
  8 14  1  0  0  0  0
  9 14  1  0  0  0  0
  9 18  1  1  0  0  0
 10  8  1  1  0  0  0
 12 25  1  6  0  0  0
 12 28  1  0  0  0  0
 12 24  1  0  0  0  0
 13  9  1  0  0  0  0
 15 11  1  1  0  0  0
 15 23  1  0  0  0  0
 15 19  1  0  0  0  0
 17 25  1  0  0  0  0
 17  5  1  0  0  0  0
 19 25  1  0  0  0  0
 20 16  2  0  0  0  0
 21 22  1  0  0  0  0
 21  1  2  0  0  0  0
 22  4  2  0  0  0  0
 23  6  1  0  0  0  0
 24  5  1  6  0  0  0
 24 26  1  0  0  0  0
 26 10  1  0  0  0  0
 26 13  1  1  0  0  0
 28 16  1  6  0  0  0
 28 10  1  0  0  0  0
M  END
>  <MODEL>
3

>  <REMARK>
 VINA RESULT:      -5.3      2.880      4.624
  Name = 
  0 active torsions:
  status: ('A' for Active; 'I' for Inactive)
                            x       y       z     vdW  Elec       q    Type
                         _______ _______ _______ _____ _____    ______ ____

>  <TORSDO>
F 0

$$$$
=
 OpenBabel11122411563D

 28 32  0  0  1  0  0  0  0  0999 V2000
  180.5700  177.6520  138.0150 C   0  0  0  0  0  0  0  0  0  0  0  0
  183.7870  173.8470  137.2260 F   0  0  0  0  0  0  0  0  0  0  0  0
  184.6640  179.8240  139.3750 O   0  0  0  0  0  0  0  0  0  0  0  0
  180.8860  179.3980  135.8470 C   0  0  0  0  0  3  0  0  0  0  0  0
  185.3600  178.2590  137.7660 N   0  0  0  0  0  0  0  0  0  0  0  0
  180.4260  176.7780  139.2230 C   0  0  0  0  0  2  0  0  0  0  0  0
  182.3670  173.7800  135.4830 F   0  0  0  0  0  0  0  0  0  0  0  0
  183.5180  174.3700  135.9690 C   0  0  0  0  0  0  0  0  0  0  0  0
  185.8860  174.8460  135.4610 C   0  0  1  0  0  3  0  0  0  0  0  0
  183.3090  175.9000  136.0260 C   0  0  2  0  0  3  0  0  0  0  0  0
  181.6940  179.6000  140.0330 O   0  0  0  0  0  1  0  0  0  0  0  0
  183.7570  176.5860  138.3320 C   0  0  1  0  0  3  0  0  0  0  0  0
  185.6490  176.2080  135.2020 O   0  0  0  0  0  0  0  0  0  0  0  0
  184.6740  174.0240  135.0460 C   0  0  0  0  0  2  0  0  0  0  0  0
  181.7390  178.4050  140.7560 C   0  0  2  0  0  3  0  0  0  0  0  0
  181.6460  177.4660  137.1220 C   0  0  0  0  0  0  0  0  0  0  0  0
  184.5110  178.7160  138.7950 C   0  0  0  0  0  0  0  0  0  0  0  0
  187.0960  174.3890  134.6760 C   0  0  0  0  0  1  0  0  0  0  0  0
  183.0510  177.6470  140.5390 C   0  0  0  0  0  2  0  0  0  0  0  0
  181.8030  178.3650  136.0510 C   0  0  0  0  0  3  0  0  0  0  0  0
  179.6440  178.6800  137.7920 C   0  0  0  0  0  3  0  0  0  0  0  0
  179.8010  179.5500  136.7110 C   0  0  0  0  0  3  0  0  0  0  0  0
  180.4760  177.5650  140.5360 C   0  0  0  0  0  2  0  0  0  0  0  0
  185.0350  176.8660  137.5040 C   0  0  1  0  0  3  0  0  0  0  0  0
  183.5320  177.7650  139.1660 N   0  0  0  0  0  0  0  0  0  0  0  0
  184.6240  176.6910  136.0520 C   0  0  2  0  0  3  0  0  0  0  0  0
  186.5800  178.7900  137.5200 O   0  0  0  0  0  1  0  0  0  0  0  0
  182.6180  176.3150  137.3240 C   0  0  1  0  0  3  0  0  0  0  0  0
  1  6  1  0  0  0  0
  4 20  2  0  0  0  0
  4 22  1  0  0  0  0
  5 17  1  0  0  0  0
  6 23  1  0  0  0  0
  7  8  1  0  0  0  0
  8  2  1  0  0  0  0
  9 18  1  6  0  0  0
 10  8  1  1  0  0  0
 10 26  1  0  0  0  0
 10 28  1  0  0  0  0
 12 25  1  6  0  0  0
 13  9  1  0  0  0  0
 14  9  1  0  0  0  0
 14  8  1  0  0  0  0
 15 11  1  6  0  0  0
 16  1  2  0  0  0  0
 17 25  1  0  0  0  0
 17  3  2  0  0  0  0
 19 15  1  0  0  0  0
 20 16  1  0  0  0  0
 21  1  1  0  0  0  0
 22 21  2  0  0  0  0
 23 15  1  0  0  0  0
 24  5  1  6  0  0  0
 24 12  1  0  0  0  0
 25 19  1  0  0  0  0
 26 13  1  6  0  0  0
 26 24  1  0  0  0  0
 27  5  1  0  0  0  0
 28 16  1  6  0  0  0
 28 12  1  0  0  0  0
M  END
>  <MODEL>
4

>  <REMARK>
 VINA RESULT:      -5.3      3.096      4.239
  Name = 
  0 active torsions:
  status: ('A' for Active; 'I' for Inactive)
                            x       y       z     vdW  Elec       q    Type
                         _______ _______ _______ _____ _____    ______ ____

>  <TORSDO>
F 0

$$$$
=
 OpenBabel11122411563D

 28 32  0  0  1  0  0  0  0  0999 V2000
  182.3680  178.0050  136.6640 C   0  0  0  0  0  0  0  0  0  0  0  0
  184.7970  177.4710  141.0530 F   0  0  0  0  0  0  0  0  0  0  0  0
  178.9350  175.6960  139.1540 O   0  0  0  0  0  0  0  0  0  0  0  0
  180.5770  180.1300  137.0210 C   0  0  0  0  0  3  0  0  0  0  0  0
  180.1260  176.8830  140.7970 N   0  0  0  0  0  0  0  0  0  0  0  0
  183.2630  176.8220  136.4590 C   0  0  0  0  0  2  0  0  0  0  0  0
  185.3180  179.5410  140.3470 F   0  0  0  0  0  0  0  0  0  0  0  0
  184.3740  178.7920  141.0230 C   0  0  0  0  0  0  0  0  0  0  0  0
  183.0930  178.6190  143.1250 C   0  0  1  0  0  3  0  0  0  0  0  0
  183.0150  178.9350  140.3030 C   0  0  2  0  0  3  0  0  0  0  0  0
  180.1940  175.9260  136.3850 O   0  0  0  0  0  1  0  0  0  0  0  0
  182.2640  176.6690  139.7620 C   0  0  1  0  0  3  0  0  0  0  0  0
  181.8930  179.0560  142.5340 O   0  0  0  0  0  0  0  0  0  0  0  0
  184.2770  179.2980  142.4520 C   0  0  0  0  0  2  0  0  0  0  0  0
  181.3120  175.1190  136.6070 C   0  0  2  0  0  3  0  0  0  0  0  0
  182.1490  178.5210  137.9580 C   0  0  0  0  0  0  0  0  0  0  0  0
  180.0150  176.1950  139.5710 C   0  0  0  0  0  0  0  0  0  0  0  0
  183.0830  178.9690  144.5970 C   0  0  0  0  0  1  0  0  0  0  0  0
  181.5610  174.8720  138.0970 C   0  0  0  0  0  2  0  0  0  0  0  0
  181.2300  179.5730  138.1230 C   0  0  0  0  0  3  0  0  0  0  0  0
  181.7230  178.5820  135.5610 C   0  0  0  0  0  3  0  0  0  0  0  0
  180.8310  179.6410  135.7390 C   0  0  0  0  0  3  0  0  0  0  0  0
  182.5350  175.6270  135.8350 C   0  0  0  0  0  2  0  0  0  0  0  0
  181.5390  177.1050  141.0580 C   0  0  1  0  0  3  0  0  0  0  0  0
  181.2550  176.0460  138.9070 N   0  0  0  0  0  0  0  0  0  0  0  0
  181.8160  178.5930  141.1980 C   0  0  2  0  0  3  0  0  0  0  0  0
  179.1980  176.8040  141.7780 O   0  0  0  0  0  1  0  0  0  0  0  0
  182.8940  177.9400  139.1490 C   0  0  1  0  0  3  0  0  0  0  0  0
  1 16  1  0  0  0  0
  3 17  2  0  0  0  0
  4 20  1  0  0  0  0
  5 27  1  0  0  0  0
  6  1  1  0  0  0  0
  7  8  1  0  0  0  0
  8  2  1  0  0  0  0
  8 14  1  0  0  0  0
  9 18  1  1  0  0  0
 10  8  1  1  0  0  0
 10 26  1  0  0  0  0
 12 25  1  6  0  0  0
 12 24  1  0  0  0  0
 13  9  1  0  0  0  0
 14  9  1  0  0  0  0
 15 11  1  1  0  0  0
 15 19  1  0  0  0  0
 16 20  2  0  0  0  0
 17  5  1  0  0  0  0
 19 25  1  0  0  0  0
 21 22  1  0  0  0  0
 21  1  2  0  0  0  0
 22  4  2  0  0  0  0
 23  6  1  0  0  0  0
 23 15  1  0  0  0  0
 24  5  1  6  0  0  0
 24 26  1  0  0  0  0
 25 17  1  0  0  0  0
 26 13  1  1  0  0  0
 28 16  1  6  0  0  0
 28 12  1  0  0  0  0
 28 10  1  0  0  0  0
M  END
>  <MODEL>
5

>  <REMARK>
 VINA RESULT:      -5.2      2.243      3.449
  Name = 
  0 active torsions:
  status: ('A' for Active; 'I' for Inactive)
                            x       y       z     vdW  Elec       q    Type
                         _______ _______ _______ _____ _____    ______ ____

>  <TORSDO>
F 0

$$$$
=
 OpenBabel11122411563D

 28 32  0  0  1  0  0  0  0  0999 V2000
  182.5600  177.9830  137.3800 C   0  0  0  0  0  0  0  0  0  0  0  0
  186.9480  177.9550  134.8920 F   0  0  0  0  0  0  0  0  0  0  0  0
  183.2790  173.2120  137.1630 O   0  0  0  0  0  0  0  0  0  0  0  0
  183.1880  177.5080  140.0690 C   0  0  0  0  0  3  0  0  0  0  0  0
  185.4500  174.1130  137.1780 N   0  0  0  0  0  0  0  0  0  0  0  0
  182.1810  178.1690  135.9430 C   0  0  0  0  0  2  0  0  0  0  0  0
  187.1160  179.6600  136.3490 F   0  0  0  0  0  0  0  0  0  0  0  0
  187.2670  178.2950  136.1990 C   0  0  0  0  0  0  0  0  0  0  0  0
  188.8380  176.4150  136.4960 C   0  0  1  0  0  3  0  0  0  0  0  0
  186.3460  177.5760  137.2110 C   0  0  2  0  0  3  0  0  0  0  0  0
  181.1130  175.3550  137.0240 O   0  0  0  0  0  1  0  0  0  0  0  0
  184.9210  176.0660  135.9160 C   0  0  1  0  0  3  0  0  0  0  0  0
  188.1700  175.9190  137.6310 O   0  0  0  0  0  0  0  0  0  0  0  0
  188.7210  177.9310  136.4500 C   0  0  0  0  0  2  0  0  0  0  0  0
  181.3010  175.7420  135.6950 C   0  0  2  0  0  3  0  0  0  0  0  0
  183.8660  177.5800  137.7290 C   0  0  0  0  0  0  0  0  0  0  0  0
  184.0740  174.1460  136.8730 C   0  0  0  0  0  0  0  0  0  0  0  0
  190.2980  176.0250  136.5650 C   0  0  0  0  0  1  0  0  0  0  0  0
  182.6370  175.2510  135.1320 C   0  0  0  0  0  2  0  0  0  0  0  0
  184.1590  177.3240  139.0810 C   0  0  0  0  0  3  0  0  0  0  0  0
  181.5970  178.1820  138.3800 C   0  0  0  0  0  3  0  0  0  0  0  0
  181.9110  177.9460  139.7190 C   0  0  0  0  0  3  0  0  0  0  0  0
  181.0440  177.2410  135.5030 C   0  0  0  0  0  2  0  0  0  0  0  0
  186.0860  175.2280  136.4950 C   0  0  1  0  0  3  0  0  0  0  0  0
  183.7010  175.2910  136.1300 N   0  0  0  0  0  0  0  0  0  0  0  0
  186.7760  176.1320  137.5030 C   0  0  2  0  0  3  0  0  0  0  0  0
  186.1090  172.9780  137.5100 O   0  0  0  0  0  1  0  0  0  0  0  0
  184.9310  177.4220  136.6560 C   0  0  1  0  0  3  0  0  0  0  0  0
  1 16  2  0  0  0  0
  1 21  1  0  0  0  0
  2  8  1  0  0  0  0
  5 27  1  0  0  0  0
  6  1  1  0  0  0  0
  8  7  1  0  0  0  0
  8 14  1  0  0  0  0
  9 18  1  1  0  0  0
  9 13  1  0  0  0  0
 10  8  1  6  0  0  0
 10 26  1  0  0  0  0
 12 25  1  1  0  0  0
 12 24  1  0  0  0  0
 12 28  1  0  0  0  0
 14  9  1  0  0  0  0
 15 11  1  1  0  0  0
 16 20  1  0  0  0  0
 17  3  2  0  0  0  0
 17  5  1  0  0  0  0
 19 15  1  0  0  0  0
 19 25  1  0  0  0  0
 20  4  2  0  0  0  0
 21 22  2  0  0  0  0
 22  4  1  0  0  0  0
 23 15  1  0  0  0  0
 23  6  1  0  0  0  0
 24  5  1  1  0  0  0
 24 26  1  0  0  0  0
 25 17  1  0  0  0  0
 26 13  1  6  0  0  0
 28 10  1  0  0  0  0
 28 16  1  1  0  0  0
M  END
>  <MODEL>
6

>  <REMARK>
 VINA RESULT:      -4.9      3.657      4.800
  Name = 
  0 active torsions:
  status: ('A' for Active; 'I' for Inactive)
                            x       y       z     vdW  Elec       q    Type
                         _______ _______ _______ _____ _____    ______ ____

>  <TORSDO>
F 0

$$$$
=
 OpenBabel11122411563D

 28 32  0  0  1  0  0  0  0  0999 V2000
  182.0510  178.9190  138.4090 C   0  0  0  0  0  0  0  0  0  0  0  0
  185.4050  177.4830  134.9260 F   0  0  0  0  0  0  0  0  0  0  0  0
  180.4150  174.4520  137.5770 O   0  0  0  0  0  0  0  0  0  0  0  0
  182.8480  177.7040  140.8040 C   0  0  0  0  0  3  0  0  0  0  0  0
  182.7200  174.3020  137.1410 N   0  0  0  0  0  0  0  0  0  0  0  0
  181.5550  179.5280  137.1330 C   0  0  0  0  0  2  0  0  0  0  0  0
  186.6010  178.6260  136.4500 F   0  0  0  0  0  0  0  0  0  0  0  0
  186.0700  177.3880  136.1410 C   0  0  0  0  0  0  0  0  0  0  0  0
  186.6090  174.9960  135.8650 C   0  0  1  0  0  3  0  0  0  0  0  0
  185.1150  176.9570  137.2760 C   0  0  2  0  0  3  0  0  0  0  0  0
  179.5090  177.3030  138.1760 O   0  0  0  0  0  1  0  0  0  0  0  0
  182.9480  176.4970  136.2360 C   0  0  1  0  0  3  0  0  0  0  0  0
  185.9990  174.6260  137.0780 O   0  0  0  0  0  0  0  0  0  0  0  0
  187.2060  176.3900  135.9910 C   0  0  0  0  0  2  0  0  0  0  0  0
  179.6180  177.8220  136.8840 C   0  0  2  0  0  3  0  0  0  0  0  0
  183.0570  177.9320  138.3870 C   0  0  0  0  0  0  0  0  0  0  0  0
  181.4880  174.9870  137.1890 C   0  0  0  0  0  0  0  0  0  0  0  0
  187.7070  174.0070  135.5360 C   0  0  0  0  0  1  0  0  0  0  0  0
  180.4490  176.9220  135.9660 C   0  0  0  0  0  2  0  0  0  0  0  0
  183.4300  177.3160  139.5950 C   0  0  0  0  0  3  0  0  0  0  0  0
  181.4850  179.3160  139.6290 C   0  0  0  0  0  3  0  0  0  0  0  0
  181.8830  178.7110  140.8220 C   0  0  0  0  0  3  0  0  0  0  0  0
  180.0600  179.2900  136.9020 C   0  0  0  0  0  2  0  0  0  0  0  0
  183.6700  175.1420  136.4300 C   0  0  1  0  0  3  0  0  0  0  0  0
  181.5660  176.3010  136.6710 N   0  0  0  0  0  0  0  0  0  0  0  0
  184.8670  175.4430  137.3170 C   0  0  2  0  0  3  0  0  0  0  0  0
  182.8210  172.9540  137.1940 O   0  0  0  0  0  1  0  0  0  0  0  0
  183.7180  177.5420  137.0750 C   0  0  1  0  0  3  0  0  0  0  0  0
  1 21  1  0  0  0  0
  2  8  1  0  0  0  0
  4 22  1  0  0  0  0
  5 17  1  0  0  0  0
  5 27  1  0  0  0  0
  6  1  1  0  0  0  0
  8  7  1  0  0  0  0
  9 18  1  1  0  0  0
  9 14  1  0  0  0  0
  9 13  1  0  0  0  0
 10  8  1  6  0  0  0
 10 26  1  0  0  0  0
 12 24  1  0  0  0  0
 12 25  1  1  0  0  0
 12 28  1  0  0  0  0
 14  8  1  0  0  0  0
 15 23  1  0  0  0  0
 15 11  1  1  0  0  0
 16  1  2  0  0  0  0
 16 20  1  0  0  0  0
 17  3  2  0  0  0  0
 19 25  1  0  0  0  0
 19 15  1  0  0  0  0
 20  4  2  0  0  0  0
 21 22  2  0  0  0  0
 23  6  1  0  0  0  0
 24  5  1  1  0  0  0
 24 26  1  0  0  0  0
 25 17  1  0  0  0  0
 26 13  1  6  0  0  0
 28 10  1  0  0  0  0
 28 16  1  1  0  0  0
M  END
>  <MODEL>
7

>  <REMARK>
 VINA RESULT:      -4.5      3.163      4.389
  Name = 
  0 active torsions:
  status: ('A' for Active; 'I' for Inactive)
                            x       y       z     vdW  Elec       q    Type
                         _______ _______ _______ _____ _____    ______ ____

>  <TORSDO>
F 0

$$$$
=
 OpenBabel11122411563D

 28 32  0  0  1  0  0  0  0  0999 V2000
  181.0670  178.9930  138.8930 C   0  0  0  0  0  0  0  0  0  0  0  0
  180.9380  173.9800  138.3420 F   0  0  0  0  0  0  0  0  0  0  0  0
  185.6800  178.2450  137.6750 O   0  0  0  0  0  0  0  0  0  0  0  0
  181.0190  180.0610  136.3030 C   0  0  0  0  0  3  0  0  0  0  0  0
  184.5210  176.5040  136.6020 N   0  0  0  0  0  0  0  0  0  0  0  0
  181.1640  178.4570  140.2880 C   0  0  0  0  0  2  0  0  0  0  0  0
  179.0140  174.7150  137.4390 F   0  0  0  0  0  0  0  0  0  0  0  0
  180.3550  174.4940  137.1920 C   0  0  0  0  0  0  0  0  0  0  0  0
  181.9480  173.3820  135.6700 C   0  0  1  0  0  3  0  0  0  0  0  0
  181.0120  175.8270  136.7710 C   0  0  2  0  0  3  0  0  0  0  0  0
  183.8800  179.9330  139.4680 O   0  0  0  0  0  1  0  0  0  0  0  0
  182.8800  176.2060  138.3070 C   0  0  1  0  0  3  0  0  0  0  0  0
  182.3350  174.5850  135.0520 O   0  0  0  0  0  0  0  0  0  0  0  0
  180.4860  173.4620  136.0840 C   0  0  0  0  0  2  0  0  0  0  0  0
  183.6910  179.0030  140.4930 C   0  0  2  0  0  3  0  0  0  0  0  0
  181.2400  178.1390  137.7840 C   0  0  0  0  0  0  0  0  0  0  0  0
  184.7120  177.4390  137.6410 C   0  0  0  0  0  0  0  0  0  0  0  0
  182.1330  172.2370  134.6970 C   0  0  0  0  0  1  0  0  0  0  0  0
  184.0930  177.5880  140.0720 C   0  0  0  0  0  2  0  0  0  0  0  0
  181.2350  178.6940  136.4920 C   0  0  0  0  0  3  0  0  0  0  0  0
  180.8330  180.3610  138.6940 C   0  0  0  0  0  3  0  0  0  0  0  0
  180.8080  180.8930  137.4030 C   0  0  0  0  0  3  0  0  0  0  0  0
  182.2870  179.1100  141.1000 C   0  0  0  0  0  2  0  0  0  0  0  0
  183.4590  175.5970  137.0070 C   0  0  1  0  0  3  0  0  0  0  0  0
  183.7580  177.3140  138.6780 N   0  0  0  0  0  0  0  0  0  0  0  0
  182.3240  175.6390  135.9980 C   0  0  2  0  0  3  0  0  0  0  0  0
  185.4940  176.1570  135.7290 O   0  0  0  0  0  1  0  0  0  0  0  0
  181.4320  176.6450  137.9920 C   0  0  1  0  0  3  0  0  0  0  0  0
  1  6  1  0  0  0  0
  4 20  2  0  0  0  0
  4 22  1  0  0  0  0
  5 17  1  0  0  0  0
  6 23  1  0  0  0  0
  8  7  1  0  0  0  0
  8  2  1  0  0  0  0
  9 18  1  6  0  0  0
  9 14  1  0  0  0  0
 10  8  1  1  0  0  0
 10 28  1  0  0  0  0
 12 25  1  6  0  0  0
 13  9  1  0  0  0  0
 14  8  1  0  0  0  0
 15 11  1  6  0  0  0
 15 23  1  0  0  0  0
 16  1  2  0  0  0  0
 17  3  2  0  0  0  0
 17 25  1  0  0  0  0
 19 15  1  0  0  0  0
 20 16  1  0  0  0  0
 21  1  1  0  0  0  0
 22 21  2  0  0  0  0
 24  5  1  6  0  0  0
 24 12  1  0  0  0  0
 25 19  1  0  0  0  0
 26 13  1  1  0  0  0
 26 10  1  0  0  0  0
 26 24  1  0  0  0  0
 27  5  1  0  0  0  0
 28 16  1  6  0  0  0
 28 12  1  0  0  0  0
M  END
>  <MODEL>
8

>  <REMARK>
 VINA RESULT:      -4.3      3.507      5.517
  Name = 
  0 active torsions:
  status: ('A' for Active; 'I' for Inactive)
                            x       y       z     vdW  Elec       q    Type
                         _______ _______ _______ _____ _____    ______ ____

>  <TORSDO>
F 0

$$$$
=
 OpenBabel11122411563D

 28 32  0  0  1  0  0  0  0  0999 V2000
  185.9710  174.8820  135.7310 C   0  0  0  0  0  0  0  0  0  0  0  0
  182.2520  178.2310  135.0960 F   0  0  0  0  0  0  0  0  0  0  0  0
  187.1130  177.9650  139.2680 O   0  0  0  0  0  0  0  0  0  0  0  0
  185.2390  173.3160  137.9360 C   0  0  0  0  0  3  0  0  0  0  0  0
  184.7790  178.1630  139.0760 N   0  0  0  0  0  0  0  0  0  0  0  0
  186.4280  175.7430  134.5940 C   0  0  0  0  0  2  0  0  0  0  0  0
  181.2830  176.2220  134.8050 F   0  0  0  0  0  0  0  0  0  0  0  0
  181.6710  177.1530  135.7490 C   0  0  0  0  0  0  0  0  0  0  0  0
  180.8900  178.5020  137.6630 C   0  0  1  0  0  3  0  0  0  0  0  0
  182.6610  176.4860  136.7300 C   0  0  2  0  0  3  0  0  0  0  0  0
  188.3250  176.1530  137.1350 O   0  0  0  0  0  1  0  0  0  0  0  0
  184.6940  177.8490  136.7130 C   0  0  1  0  0  3  0  0  0  0  0  0
  181.5490  177.6990  138.6120 O   0  0  0  0  0  0  0  0  0  0  0  0
  180.4380  177.6460  136.4880 C   0  0  0  0  0  2  0  0  0  0  0  0
  188.1720  177.0060  136.0390 C   0  0  2  0  0  3  0  0  0  0  0  0
  184.8770  175.2740  136.5300 C   0  0  0  0  0  0  0  0  0  0  0  0
  186.0700  177.9230  138.5630 C   0  0  0  0  0  0  0  0  0  0  0  0
  179.6830  179.1490  138.3060 C   0  0  0  0  0  1  0  0  0  0  0  0
  187.1950  178.1490  136.3270 C   0  0  0  0  0  2  0  0  0  0  0  0
  184.5360  174.4880  137.6460 C   0  0  0  0  0  3  0  0  0  0  0  0
  186.6590  173.6950  136.0170 C   0  0  0  0  0  3  0  0  0  0  0  0
  186.2930  172.9140  137.1150 C   0  0  0  0  0  3  0  0  0  0  0  0
  187.8730  176.2240  134.7540 C   0  0  0  0  0  2  0  0  0  0  0  0
  183.8630  178.2640  137.9510 C   0  0  1  0  0  3  0  0  0  0  0  0
  186.0790  177.7190  137.1630 N   0  0  0  0  0  0  0  0  0  0  0  0
  182.7680  177.2180  138.0750 C   0  0  2  0  0  3  0  0  0  0  0  0
  184.5550  178.7650  140.2670 O   0  0  0  0  0  1  0  0  0  0  0  0
  184.0890  176.5280  136.1870 C   0  0  1  0  0  3  0  0  0  0  0  0
  1 21  2  0  0  0  0
  1 16  1  0  0  0  0
  2  8  1  0  0  0  0
  5 27  1  0  0  0  0
  6 23  1  0  0  0  0
  6  1  1  0  0  0  0
  7  8  1  0  0  0  0
  8 14  1  0  0  0  0
  9 18  1  1  0  0  0
  9 13  1  0  0  0  0
 10  8  1  6  0  0  0
 10 26  1  0  0  0  0
 12 25  1  1  0  0  0
 12 24  1  0  0  0  0
 14  9  1  0  0  0  0
 15 19  1  0  0  0  0
 15 11  1  1  0  0  0
 16 20  2  0  0  0  0
 17  5  1  0  0  0  0
 17  3  2  0  0  0  0
 19 25  1  0  0  0  0
 20  4  1  0  0  0  0
 21 22  1  0  0  0  0
 22  4  2  0  0  0  0
 23 15  1  0  0  0  0
 24 26  1  0  0  0  0
 24  5  1  1  0  0  0
 25 17  1  0  0  0  0
 26 13  1  6  0  0  0
 28 16  1  1  0  0  0
 28 12  1  0  0  0  0
 28 10  1  0  0  0  0
M  END
>  <MODEL>
9

>  <REMARK>
 VINA RESULT:      -4.0      3.454      6.699
  Name = 
  0 active torsions:
  status: ('A' for Active; 'I' for Inactive)
                            x       y       z     vdW  Elec       q    Type
                         _______ _______ _______ _____ _____    ______ ____

>  <TORSDO>
F 0

$$$$
