=
 OpenBabel11122411503D

 28 32  0  0  1  0  0  0  0  0999 V2000
  180.6140  179.4880  142.2430 C   0  0  0  0  0  0  0  0  0  0  0  0
  182.7020  175.5860  139.7450 O   0  0  0  0  0  0  0  0  0  0  0  0
  186.6510  178.6920  140.9820 O   0  0  0  0  0  1  0  0  0  0  0  0
  179.1050  180.9490  140.3970 C   0  0  0  0  0  3  0  0  0  0  0  0
  184.9780  179.0720  139.2030 C   0  0  0  0  0  0  0  0  0  0  0  0
  181.4350  178.8040  143.1800 N   0  0  0  0  0  2  0  0  0  0  0  0
  180.2910  175.5590  139.3030 O   0  0  0  0  0  0  0  0  0  0  0  0
  181.6100  176.1280  138.8630 S   0  0  0  0  0  0  0  0  0  0  0  0
  182.1920  176.8190  136.4110 C   0  0  2  0  0  3  0  0  0  0  0  0
  181.5510  177.8700  138.9710 N   0  0  2  0  0  0  0  0  0  0  0  0
  184.7270  179.6580  144.2930 O   0  0  0  0  0  0  0  0  0  0  0  0
  183.1320  178.8120  140.4160 N   0  0  0  0  0  0  0  0  0  0  0  0
  183.2550  177.6840  137.0690 C   0  0  0  0  0  2  0  0  0  0  0  0
  181.9230  175.6400  137.2260 N   0  0  0  0  0  2  0  0  0  0  0  0
  183.8060  179.0980  143.6440 C   0  0  0  0  0  0  0  0  0  0  0  0
  180.7730  179.2390  140.8680 C   0  0  0  0  0  0  0  0  0  0  0  0
  185.3510  178.8440  140.5150 C   0  0  0  0  0  0  0  0  0  0  0  0
  182.6780  176.3810  135.0460 C   0  0  0  0  0  1  0  0  0  0  0  0
  184.1400  178.0610  142.6210 C   0  0  0  0  0  2  0  0  0  0  0  0
  180.0130  179.9860  139.9510 C   0  0  0  0  0  3  0  0  0  0  0  0
  179.7170  180.4660  142.6860 C   0  0  0  0  0  3  0  0  0  0  0  0
  178.9580  181.1900  141.7640 C   0  0  0  0  0  3  0  0  0  0  0  0
  182.4540  179.4980  143.8390 N   0  0  0  0  0  2  0  0  0  0  0  0
  183.5970  178.9940  139.1930 C   0  0  0  0  0  0  0  0  0  0  0  0
  184.1900  178.6570  141.2480 C   0  0  0  0  0  0  0  0  0  0  0  0
  182.6260  178.5370  138.1770 C   0  0  2  0  0  3  0  0  0  0  0  0
  185.8380  179.0020  138.0710 N   0  0  0  0  0  1  0  0  0  0  0  0
  181.8010  178.2330  140.3870 C   0  0  1  0  0  3  0  0  0  0  0  0
  1 21  1  0  0  0  0
  1  6  1  0  0  0  0
  4 22  1  0  0  0  0
  5 17  1  0  0  0  0
  6 23  1  0  0  0  0
  8  7  2  0  0  0  0
  8  2  2  0  0  0  0
  9 18  1  6  0  0  0
  9 13  1  0  0  0  0
  9 14  1  0  0  0  0
 10  8  1  1  0  0  0
 10 28  1  0  0  0  0
 12 25  1  0  0  0  0
 14  8  1  0  0  0  0
 15 23  1  0  0  0  0
 15 11  2  0  0  0  0
 16  1  2  0  0  0  0
 17  3  1  0  0  0  0
 17 25  2  0  0  0  0
 19 15  1  0  0  0  0
 20  4  2  0  0  0  0
 20 16  1  0  0  0  0
 22 21  2  0  0  0  0
 24  5  2  0  0  0  0
 24 12  1  0  0  0  0
 25 19  1  0  0  0  0
 26 13  1  6  0  0  0
 26 10  1  0  0  0  0
 26 24  1  0  0  0  0
 27  5  1  0  0  0  0
 28 12  1  0  0  0  0
 28 16  1  6  0  0  0
M  END
>  <MODEL>
1

>  <REMARK>
 VINA RESULT:      -6.7      0.000      0.000
  Name = 
  0 active torsions:
  status: ('A' for Active; 'I' for Inactive)
                            x       y       z     vdW  Elec       q    Type
                         _______ _______ _______ _____ _____    ______ ____

>  <TORSDO>
F 0

$$$$
=
 OpenBabel11122411503D

 28 32  0  0  1  0  0  0  0  0999 V2000
  180.4680  180.0990  140.2910 C   0  0  0  0  0  0  0  0  0  0  0  0
  183.0550  175.8570  139.2260 O   0  0  0  0  0  0  0  0  0  0  0  0
  185.7530  178.2050  142.9650 O   0  0  0  0  0  1  0  0  0  0  0  0
  180.6920  181.7920  138.0760 C   0  0  0  0  0  3  0  0  0  0  0  0
  185.6500  178.8640  140.5860 C   0  0  0  0  0  0  0  0  0  0  0  0
  180.4050  179.2870  141.4550 N   0  0  0  0  0  2  0  0  0  0  0  0
  181.4880  176.2640  137.3850 O   0  0  0  0  0  0  0  0  0  0  0  0
  182.8560  176.5790  137.9210 S   0  0  0  0  0  0  0  0  0  0  0  0
  184.9430  177.1280  136.4480 C   0  0  2  0  0  3  0  0  0  0  0  0
  183.0000  178.3040  138.1540 N   0  0  2  0  0  0  0  0  0  0  0  0
  182.3450  179.5390  144.4510 O   0  0  0  0  0  0  0  0  0  0  0  0
  183.4390  178.9570  140.3580 N   0  0  0  0  0  0  0  0  0  0  0  0
  185.4700  177.7910  137.7100 C   0  0  0  0  0  2  0  0  0  0  0  0
  184.0510  176.0250  136.7900 N   0  0  0  0  0  2  0  0  0  0  0  0
  181.9670  179.1490  143.3160 C   0  0  0  0  0  0  0  0  0  0  0  0
  181.4170  179.8110  139.2930 C   0  0  0  0  0  0  0  0  0  0  0  0
  185.0760  178.5860  141.8120 C   0  0  0  0  0  0  0  0  0  0  0  0
  186.1070  176.5940  135.6410 C   0  0  0  0  0  1  0  0  0  0  0  0
  182.7120  178.0580  142.6170 C   0  0  0  0  0  2  0  0  0  0  0  0
  181.5230  180.6740  138.1890 C   0  0  0  0  0  3  0  0  0  0  0  0
  179.6490  181.2280  140.1840 C   0  0  0  0  0  3  0  0  0  0  0  0
  179.7560  182.0690  139.0740 C   0  0  0  0  0  3  0  0  0  0  0  0
  180.8710  179.7910  142.6730 N   0  0  0  0  0  2  0  0  0  0  0  0
  184.5900  179.0390  139.7140 C   0  0  0  0  0  0  0  0  0  0  0  0
  183.7010  178.6200  141.6440 C   0  0  0  0  0  0  0  0  0  0  0  0
  184.4190  178.7560  138.2730 C   0  0  2  0  0  3  0  0  0  0  0  0
  187.0070  178.6280  140.2300 N   0  0  0  0  0  1  0  0  0  0  0  0
  182.3550  178.6300  139.4490 C   0  0  1  0  0  3  0  0  0  0  0  0
  1  6  1  0  0  0  0
  4 20  2  0  0  0  0
  4 22  1  0  0  0  0
  5 17  1  0  0  0  0
  6 23  1  0  0  0  0
  7  8  2  0  0  0  0
  8  2  2  0  0  0  0
  9 18  1  1  0  0  0
  9 14  1  0  0  0  0
  9 13  1  0  0  0  0
 10  8  1  1  0  0  0
 10 26  1  0  0  0  0
 10 28  1  0  0  0  0
 12 25  1  0  0  0  0
 14  8  1  0  0  0  0
 15 11  2  0  0  0  0
 16  1  2  0  0  0  0
 17  3  1  0  0  0  0
 19 15  1  0  0  0  0
 20 16  1  0  0  0  0
 21  1  1  0  0  0  0
 22 21  2  0  0  0  0
 23 15  1  0  0  0  0
 24 12  1  0  0  0  0
 24  5  2  0  0  0  0
 25 17  2  0  0  0  0
 25 19  1  0  0  0  0
 26 13  1  1  0  0  0
 26 24  1  0  0  0  0
 27  5  1  0  0  0  0
 28 16  1  6  0  0  0
 28 12  1  0  0  0  0
M  END
>  <MODEL>
2

>  <REMARK>
 VINA RESULT:      -6.3      1.770      2.073
  Name = 
  0 active torsions:
  status: ('A' for Active; 'I' for Inactive)
                            x       y       z     vdW  Elec       q    Type
                         _______ _______ _______ _____ _____    ______ ____

>  <TORSDO>
F 0

$$$$
=
 OpenBabel11122411503D

 28 32  0  0  1  0  0  0  0  0999 V2000
  180.9460  180.4620  136.4530 C   0  0  0  0  0  0  0  0  0  0  0  0
  183.6230  177.4690  139.5670 O   0  0  0  0  0  0  0  0  0  0  0  0
  179.0660  175.0930  138.9650 O   0  0  0  0  0  1  0  0  0  0  0  0
  180.3510  182.8070  137.8550 C   0  0  0  0  0  3  0  0  0  0  0  0
  179.5120  177.0990  140.3380 C   0  0  0  0  0  0  0  0  0  0  0  0
  181.1720  179.2490  135.7480 N   0  0  0  0  0  2  0  0  0  0  0  0
  184.7150  179.6630  139.5100 O   0  0  0  0  0  0  0  0  0  0  0  0
  183.6410  178.8460  140.1720 S   0  0  0  0  0  0  0  0  0  0  0  0
  182.8450  179.1530  142.6420 C   0  0  2  0  0  3  0  0  0  0  0  0
  182.0980  179.6300  139.9430 N   0  0  2  0  0  0  0  0  0  0  0  0
  178.9310  176.5000  135.2760 O   0  0  0  0  0  0  0  0  0  0  0  0
  180.5130  178.3480  138.7930 N   0  0  0  0  0  0  0  0  0  0  0  0
  181.5820  178.4570  142.1610 C   0  0  0  0  0  2  0  0  0  0  0  0
  183.9960  178.7060  141.8660 N   0  0  0  0  0  2  0  0  0  0  0  0
  179.8570  177.2010  135.7590 C   0  0  0  0  0  0  0  0  0  0  0  0
  181.1450  180.5050  137.8450 C   0  0  0  0  0  0  0  0  0  0  0  0
  179.5120  176.3970  139.1460 C   0  0  0  0  0  0  0  0  0  0  0  0
  183.0710  178.8250  144.1020 C   0  0  0  0  0  1  0  0  0  0  0  0
  180.6770  176.6740  136.8920 C   0  0  0  0  0  2  0  0  0  0  0  0
  180.8350  181.6880  138.5380 C   0  0  0  0  0  3  0  0  0  0  0  0
  180.4440  181.5780  135.7750 C   0  0  0  0  0  3  0  0  0  0  0  0
  180.1540  182.7520  136.4750 C   0  0  0  0  0  3  0  0  0  0  0  0
  180.0820  178.5180  135.2670 N   0  0  0  0  0  2  0  0  0  0  0  0
  180.1860  178.2770  140.0710 C   0  0  0  0  0  0  0  0  0  0  0  0
  180.1640  177.1780  138.2060 C   0  0  0  0  0  0  0  0  0  0  0  0
  181.0540  179.1450  140.8950 C   0  0  2  0  0  3  0  0  0  0  0  0
  179.2360  176.5540  141.6230 N   0  0  0  0  0  1  0  0  0  0  0  0
  181.6160  179.2700  138.5880 C   0  0  1  0  0  3  0  0  0  0  0  0
  1 16  1  0  0  0  0
  2  8  2  0  0  0  0
  3 17  1  0  0  0  0
  4 20  1  0  0  0  0
  5 27  1  0  0  0  0
  6  1  1  0  0  0  0
  7  8  2  0  0  0  0
  8 14  1  0  0  0  0
  9 18  1  1  0  0  0
 10  8  1  1  0  0  0
 10 26  1  0  0  0  0
 11 15  2  0  0  0  0
 12 24  1  0  0  0  0
 13  9  1  0  0  0  0
 14  9  1  0  0  0  0
 15 19  1  0  0  0  0
 16 20  2  0  0  0  0
 17  5  1  0  0  0  0
 19 25  1  0  0  0  0
 21  1  2  0  0  0  0
 21 22  1  0  0  0  0
 22  4  2  0  0  0  0
 23  6  1  0  0  0  0
 23 15  1  0  0  0  0
 24  5  2  0  0  0  0
 24 26  1  0  0  0  0
 25 12  1  0  0  0  0
 25 17  2  0  0  0  0
 26 13  1  1  0  0  0
 28 16  1  1  0  0  0
 28 12  1  0  0  0  0
 28 10  1  0  0  0  0
M  END
>  <MODEL>
3

>  <REMARK>
 VINA RESULT:      -6.1      2.705      6.173
  Name = 
  0 active torsions:
  status: ('A' for Active; 'I' for Inactive)
                            x       y       z     vdW  Elec       q    Type
                         _______ _______ _______ _____ _____    ______ ____

>  <TORSDO>
F 0

$$$$
=
 OpenBabel11122411503D

 28 32  0  0  1  0  0  0  0  0999 V2000
  189.3010  178.1550  139.2290 C   0  0  0  0  0  0  0  0  0  0  0  0
  191.9830  176.3740  135.2970 O   0  0  0  0  0  0  0  0  0  0  0  0
  187.1750  174.5950  134.5940 O   0  0  0  0  0  1  0  0  0  0  0  0
  190.2180  176.8490  141.5250 C   0  0  0  0  0  3  0  0  0  0  0  0
  188.8290  173.7660  136.2320 C   0  0  0  0  0  0  0  0  0  0  0  0
  188.7690  178.7740  138.0660 N   0  0  0  0  0  2  0  0  0  0  0  0
  193.5680  177.1220  137.0120 O   0  0  0  0  0  0  0  0  0  0  0  0
  192.7250  175.9700  136.5420 S   0  0  0  0  0  0  0  0  0  0  0  0
  193.3110  173.4500  136.9030 C   0  0  2  0  0  3  0  0  0  0  0  0
  191.5980  175.5310  137.8030 N   0  0  2  0  0  0  0  0  0  0  0  0
  185.8110  177.9140  136.2440 O   0  0  0  0  0  0  0  0  0  0  0  0
  189.3440  175.7020  137.2000 N   0  0  0  0  0  0  0  0  0  0  0  0
  191.8210  173.2310  136.6970 C   0  0  0  0  0  2  0  0  0  0  0  0
  193.7560  174.6260  136.1650 N   0  0  0  0  0  2  0  0  0  0  0  0
  187.0260  177.9770  136.5650 C   0  0  0  0  0  0  0  0  0  0  0  0
  190.1240  177.0220  139.0980 C   0  0  0  0  0  0  0  0  0  0  0  0
  188.0500  174.7560  135.6620 C   0  0  0  0  0  0  0  0  0  0  0  0
  194.0670  172.2360  136.4090 C   0  0  0  0  0  1  0  0  0  0  0  0
  188.0560  177.3080  135.7150 C   0  0  0  0  0  2  0  0  0  0  0  0
  190.5720  176.3710  140.2600 C   0  0  0  0  0  3  0  0  0  0  0  0
  188.9340  178.6210  140.4960 C   0  0  0  0  0  3  0  0  0  0  0  0
  189.3990  177.9730  141.6420 C   0  0  0  0  0  3  0  0  0  0  0  0
  187.4100  178.6310  137.7700 N   0  0  0  0  0  2  0  0  0  0  0  0
  189.6430  174.4160  137.1430 C   0  0  0  0  0  0  0  0  0  0  0  0
  188.4050  175.9560  136.2570 C   0  0  0  0  0  0  0  0  0  0  0  0
  191.0210  174.1650  137.6140 C   0  0  2  0  0  3  0  0  0  0  0  0
  189.0200  172.4560  135.7110 N   0  0  0  0  0  1  0  0  0  0  0  0
  190.4570  176.4730  137.7240 C   0  0  1  0  0  3  0  0  0  0  0  0
  1 21  1  0  0  0  0
  2  8  2  0  0  0  0
  3 17  1  0  0  0  0
  4 22  1  0  0  0  0
  5 24  2  0  0  0  0
  6  1  1  0  0  0  0
  8  7  2  0  0  0  0
  9 18  1  6  0  0  0
 10  8  1  6  0  0  0
 11 15  2  0  0  0  0
 12 28  1  0  0  0  0
 13  9  1  0  0  0  0
 14  8  1  0  0  0  0
 14  9  1  0  0  0  0
 15 23  1  0  0  0  0
 16  1  2  0  0  0  0
 16 20  1  0  0  0  0
 17  5  1  0  0  0  0
 17 25  2  0  0  0  0
 19 25  1  0  0  0  0
 19 15  1  0  0  0  0
 20  4  2  0  0  0  0
 21 22  2  0  0  0  0
 23  6  1  0  0  0  0
 24 12  1  0  0  0  0
 24 26  1  0  0  0  0
 25 12  1  0  0  0  0
 26 13  1  6  0  0  0
 26 10  1  0  0  0  0
 27  5  1  0  0  0  0
 28 10  1  0  0  0  0
 28 16  1  1  0  0  0
M  END
>  <MODEL>
4

>  <REMARK>
 VINA RESULT:      -5.9      6.866      9.645
  Name = 
  0 active torsions:
  status: ('A' for Active; 'I' for Inactive)
                            x       y       z     vdW  Elec       q    Type
                         _______ _______ _______ _____ _____    ______ ____

>  <TORSDO>
F 0

$$$$
=
 OpenBabel11122411503D

 28 32  0  0  1  0  0  0  0  0999 V2000
  183.1430  176.1010  136.8900 C   0  0  0  0  0  0  0  0  0  0  0  0
  182.1760  180.7410  138.7220 O   0  0  0  0  0  0  0  0  0  0  0  0
  186.4980  179.1970  141.1120 O   0  0  0  0  0  1  0  0  0  0  0  0
  181.1470  174.3930  137.8470 C   0  0  0  0  0  3  0  0  0  0  0  0
  184.1980  178.4210  141.5770 C   0  0  0  0  0  0  0  0  0  0  0  0
  184.2080  176.9340  136.4550 N   0  0  0  0  0  2  0  0  0  0  0  0
  180.1400  179.9240  137.6280 O   0  0  0  0  0  0  0  0  0  0  0  0
  180.9210  179.9330  138.9110 S   0  0  0  0  0  0  0  0  0  0  0  0
  179.8700  179.7720  141.2980 C   0  0  2  0  0  3  0  0  0  0  0  0
  181.3190  178.2910  139.3540 N   0  0  2  0  0  0  0  0  0  0  0  0
  187.4980  177.2410  137.8300 O   0  0  0  0  0  0  0  0  0  0  0  0
  183.6120  177.8500  139.5080 N   0  0  0  0  0  0  0  0  0  0  0  0
  181.2540  179.2960  141.7090 C   0  0  0  0  0  2  0  0  0  0  0  0
  179.9650  180.6750  140.1560 N   0  0  0  0  0  2  0  0  0  0  0  0
  186.2870  177.4880  137.5940 C   0  0  0  0  0  0  0  0  0  0  0  0
  182.2980  176.5370  137.9260 C   0  0  0  0  0  0  0  0  0  0  0  0
  185.2840  178.6280  140.7460 C   0  0  0  0  0  0  0  0  0  0  0  0
  179.2280  180.5030  142.4580 C   0  0  0  0  0  1  0  0  0  0  0  0
  185.6340  178.6780  138.2180 C   0  0  0  0  0  2  0  0  0  0  0  0
  181.3040  175.6650  138.4020 C   0  0  0  0  0  3  0  0  0  0  0  0
  182.9960  174.8190  136.3480 C   0  0  0  0  0  3  0  0  0  0  0  0
  181.9940  173.9700  136.8210 C   0  0  0  0  0  3  0  0  0  0  0  0
  185.5250  176.5980  136.7840 N   0  0  0  0  0  2  0  0  0  0  0  0
  183.1790  177.9840  140.7490 C   0  0  0  0  0  0  0  0  0  0  0  0
  184.8910  178.2940  139.4600 C   0  0  0  0  0  0  0  0  0  0  0  0
  181.7110  178.1570  140.7890 C   0  0  2  0  0  3  0  0  0  0  0  0
  184.0570  178.9240  142.9000 N   0  0  0  0  0  1  0  0  0  0  0  0
  182.5100  177.8970  138.5650 C   0  0  1  0  0  3  0  0  0  0  0  0
  1 16  1  0  0  0  0
  2  8  2  0  0  0  0
  4 20  1  0  0  0  0
  5 27  1  0  0  0  0
  6 23  1  0  0  0  0
  6  1  1  0  0  0  0
  7  8  2  0  0  0  0
  8 14  1  0  0  0  0
  9 13  1  0  0  0  0
  9 18  1  1  0  0  0
 10  8  1  1  0  0  0
 10 26  1  0  0  0  0
 12 24  1  0  0  0  0
 14  9  1  0  0  0  0
 15 11  2  0  0  0  0
 15 19  1  0  0  0  0
 16 20  2  0  0  0  0
 17  3  1  0  0  0  0
 17  5  1  0  0  0  0
 19 25  1  0  0  0  0
 21 22  1  0  0  0  0
 21  1  2  0  0  0  0
 22  4  2  0  0  0  0
 23 15  1  0  0  0  0
 24 26  1  0  0  0  0
 24  5  2  0  0  0  0
 25 12  1  0  0  0  0
 25 17  2  0  0  0  0
 26 13  1  1  0  0  0
 28 16  1  1  0  0  0
 28 10  1  0  0  0  0
 28 12  1  0  0  0  0
M  END
>  <MODEL>
5

>  <REMARK>
 VINA RESULT:      -5.8      2.365      5.555
  Name = 
  0 active torsions:
  status: ('A' for Active; 'I' for Inactive)
                            x       y       z     vdW  Elec       q    Type
                         _______ _______ _______ _____ _____    ______ ____

>  <TORSDO>
F 0

$$$$
=
 OpenBabel11122411503D

 28 32  0  0  1  0  0  0  0  0999 V2000
  190.3610  177.1720  137.8190 C   0  0  0  0  0  0  0  0  0  0  0  0
  194.1230  176.0470  134.5940 O   0  0  0  0  0  0  0  0  0  0  0  0
  191.0320  171.8970  134.5950 O   0  0  0  0  0  1  0  0  0  0  0  0
  191.4590  177.2470  140.3900 C   0  0  0  0  0  3  0  0  0  0  0  0
  192.6140  172.5570  136.3750 C   0  0  0  0  0  0  0  0  0  0  0  0
  189.7680  177.0640  136.5330 N   0  0  0  0  0  2  0  0  0  0  0  0
  194.8400  177.9600  135.9490 O   0  0  0  0  0  0  0  0  0  0  0  0
  194.7730  176.4600  135.8860 S   0  0  0  0  0  0  0  0  0  0  0  0
  196.4880  174.8420  137.0120 C   0  0  2  0  0  3  0  0  0  0  0  0
  193.8490  175.8680  137.2450 N   0  0  2  0  0  0  0  0  0  0  0  0
  187.9540  174.3110  135.1410 O   0  0  0  0  0  0  0  0  0  0  0  0
  191.9340  174.6540  136.6690 N   0  0  0  0  0  0  0  0  0  0  0  0
  195.3610  173.8270  136.9190 C   0  0  0  0  0  2  0  0  0  0  0  0
  196.3840  175.8150  135.9300 N   0  0  0  0  0  2  0  0  0  0  0  0
  188.9090  175.0890  135.3990 C   0  0  0  0  0  0  0  0  0  0  0  0
  191.6510  176.6560  138.0350 C   0  0  0  0  0  0  0  0  0  0  0  0
  191.5370  172.7840  135.5380 C   0  0  0  0  0  0  0  0  0  0  0  0
  197.8170  174.1250  136.9110 C   0  0  0  0  0  1  0  0  0  0  0  0
  190.2490  174.8540  134.7820 C   0  0  0  0  0  2  0  0  0  0  0  0
  192.1880  176.6940  139.3340 C   0  0  0  0  0  3  0  0  0  0  0  0
  189.6260  177.7080  138.8820 C   0  0  0  0  0  3  0  0  0  0  0  0
  190.1780  177.7530  140.1640 C   0  0  0  0  0  3  0  0  0  0  0  0
  188.7270  176.1540  136.3270 N   0  0  0  0  0  2  0  0  0  0  0  0
  192.8440  173.7620  137.0150 C   0  0  0  0  0  0  0  0  0  0  0  0
  191.1470  174.1020  135.7150 C   0  0  0  0  0  0  0  0  0  0  0  0
  194.0740  174.4150  137.5110 C   0  0  2  0  0  3  0  0  0  0  0  0
  193.5150  171.4580  136.2900 N   0  0  0  0  0  1  0  0  0  0  0  0
  192.4150  176.0050  136.8980 C   0  0  1  0  0  3  0  0  0  0  0  0
  1 16  2  0  0  0  0
  1 21  1  0  0  0  0
  2  8  2  0  0  0  0
  3 17  1  0  0  0  0
  5 24  2  0  0  0  0
  6  1  1  0  0  0  0
  8 14  1  0  0  0  0
  8  7  2  0  0  0  0
  9 18  1  6  0  0  0
 10  8  1  6  0  0  0
 10 26  1  0  0  0  0
 11 15  2  0  0  0  0
 12 28  1  0  0  0  0
 12 24  1  0  0  0  0
 13  9  1  0  0  0  0
 14  9  1  0  0  0  0
 15 23  1  0  0  0  0
 16 20  1  0  0  0  0
 17 25  2  0  0  0  0
 17  5  1  0  0  0  0
 19 15  1  0  0  0  0
 19 25  1  0  0  0  0
 20  4  2  0  0  0  0
 21 22  2  0  0  0  0
 22  4  1  0  0  0  0
 23  6  1  0  0  0  0
 24 26  1  0  0  0  0
 25 12  1  0  0  0  0
 26 13  1  6  0  0  0
 27  5  1  0  0  0  0
 28 10  1  0  0  0  0
 28 16  1  1  0  0  0
M  END
>  <MODEL>
6

>  <REMARK>
 VINA RESULT:      -5.7      9.073     11.934
  Name = 
  0 active torsions:
  status: ('A' for Active; 'I' for Inactive)
                            x       y       z     vdW  Elec       q    Type
                         _______ _______ _______ _____ _____    ______ ____

>  <TORSDO>
F 0

$$$$
=
 OpenBabel11122411503D

 28 32  0  0  1  0  0  0  0  0999 V2000
  188.5260  178.0310  139.2010 C   0  0  0  0  0  0  0  0  0  0  0  0
  189.3820  176.0670  134.5940 O   0  0  0  0  0  0  0  0  0  0  0  0
  184.6640  174.4170  135.9310 O   0  0  0  0  0  1  0  0  0  0  0  0
  190.2610  176.7590  140.9870 C   0  0  0  0  0  3  0  0  0  0  0  0
  186.8200  173.5820  136.8030 C   0  0  0  0  0  0  0  0  0  0  0  0
  187.5840  178.6350  138.3260 N   0  0  0  0  0  2  0  0  0  0  0  0
  191.5330  176.8120  135.5060 O   0  0  0  0  0  0  0  0  0  0  0  0
  190.5530  175.6740  135.4540 S   0  0  0  0  0  0  0  0  0  0  0  0
  191.1900  173.1470  135.6420 C   0  0  2  0  0  3  0  0  0  0  0  0
  190.0160  175.3020  137.0740 N   0  0  2  0  0  0  0  0  0  0  0  0
  184.1310  177.8180  137.8670 O   0  0  0  0  0  0  0  0  0  0  0  0
  187.7120  175.5260  137.4140 N   0  0  0  0  0  0  0  0  0  0  0  0
  189.7390  172.9680  136.0550 C   0  0  0  0  0  2  0  0  0  0  0  0
  191.3240  174.2900  134.7450 N   0  0  0  0  0  2  0  0  0  0  0  0
  185.3730  177.8530  137.6740 C   0  0  0  0  0  0  0  0  0  0  0  0
  189.2080  176.8710  138.7940 C   0  0  0  0  0  0  0  0  0  0  0  0
  185.8950  174.5790  136.5550 C   0  0  0  0  0  0  0  0  0  0  0  0
  191.6650  171.8980  134.9320 C   0  0  0  0  0  1  0  0  0  0  0  0
  185.9670  177.1300  136.5090 C   0  0  0  0  0  2  0  0  0  0  0  0
  190.0720  176.2380  139.7050 C   0  0  0  0  0  3  0  0  0  0  0  0
  188.7040  178.5410  140.4920 C   0  0  0  0  0  3  0  0  0  0  0  0
  189.5770  177.9100  141.3810 C   0  0  0  0  0  3  0  0  0  0  0  0
  186.2180  178.5260  138.6020 N   0  0  0  0  0  2  0  0  0  0  0  0
  187.9410  174.2310  137.2900 C   0  0  0  0  0  0  0  0  0  0  0  0
  186.4790  175.7830  136.9150 C   0  0  0  0  0  0  0  0  0  0  0  0
  189.3880  173.9500  137.1800 C   0  0  2  0  0  3  0  0  0  0  0  0
  186.7640  172.2530  136.2970 N   0  0  0  0  0  1  0  0  0  0  0  0
  188.9550  176.2760  137.4220 C   0  0  1  0  0  3  0  0  0  0  0  0
  1 21  1  0  0  0  0
  2  8  2  0  0  0  0
  3 17  1  0  0  0  0
  4 22  1  0  0  0  0
  5 24  2  0  0  0  0
  6 23  1  0  0  0  0
  6  1  1  0  0  0  0
  8  7  2  0  0  0  0
  9 18  1  6  0  0  0
  9 13  1  0  0  0  0
 10  8  1  6  0  0  0
 10 26  1  0  0  0  0
 10 28  1  0  0  0  0
 12 28  1  0  0  0  0
 14  8  1  0  0  0  0
 14  9  1  0  0  0  0
 15 11  2  0  0  0  0
 15 23  1  0  0  0  0
 16  1  2  0  0  0  0
 16 20  1  0  0  0  0
 17  5  1  0  0  0  0
 17 25  2  0  0  0  0
 19 25  1  0  0  0  0
 19 15  1  0  0  0  0
 20  4  2  0  0  0  0
 21 22  2  0  0  0  0
 24 12  1  0  0  0  0
 25 12  1  0  0  0  0
 26 13  1  6  0  0  0
 26 24  1  0  0  0  0
 27  5  1  0  0  0  0
 28 16  1  1  0  0  0
M  END
>  <MODEL>
7

>  <REMARK>
 VINA RESULT:      -5.5      5.783      8.496
  Name = 
  0 active torsions:
  status: ('A' for Active; 'I' for Inactive)
                            x       y       z     vdW  Elec       q    Type
                         _______ _______ _______ _____ _____    ______ ____

>  <TORSDO>
F 0

$$$$
=
 OpenBabel11122411503D

 28 32  0  0  1  0  0  0  0  0999 V2000
  190.8590  174.0410  135.6500 C   0  0  0  0  0  0  0  0  0  0  0  0
  189.4300  178.8480  136.4710 O   0  0  0  0  0  0  0  0  0  0  0  0
  192.3770  177.5810  140.5320 O   0  0  0  0  0  1  0  0  0  0  0  0
  188.5790  172.4400  135.8920 C   0  0  0  0  0  3  0  0  0  0  0  0
  190.0530  176.8520  140.1110 C   0  0  0  0  0  0  0  0  0  0  0  0
  192.0420  174.8260  135.5970 N   0  0  0  0  0  2  0  0  0  0  0  0
  187.9670  177.9130  134.7410 O   0  0  0  0  0  0  0  0  0  0  0  0
  188.1720  178.0620  136.2220 S   0  0  0  0  0  0  0  0  0  0  0  0
  186.2520  178.1540  137.9920 C   0  0  2  0  0  3  0  0  0  0  0  0
  188.2940  176.4780  136.9470 N   0  0  2  0  0  0  0  0  0  0  0  0
  194.5210  175.2870  138.1360 O   0  0  0  0  0  0  0  0  0  0  0  0
  190.3160  176.0620  138.0490 N   0  0  0  0  0  0  0  0  0  0  0  0
  187.3370  177.7280  138.9670 C   0  0  0  0  0  2  0  0  0  0  0  0
  186.8300  178.9300  136.8990 N   0  0  0  0  0  2  0  0  0  0  0  0
  193.5160  175.5040  137.4120 C   0  0  0  0  0  0  0  0  0  0  0  0
  189.6890  174.5830  136.2120 C   0  0  0  0  0  0  0  0  0  0  0  0
  191.3870  176.9720  139.7690 C   0  0  0  0  0  0  0  0  0  0  0  0
  185.2310  179.0030  138.7190 C   0  0  0  0  0  1  0  0  0  0  0  0
  192.7170  176.7530  137.6010 C   0  0  0  0  0  2  0  0  0  0  0  0
  188.5530  173.7650  136.3350 C   0  0  0  0  0  3  0  0  0  0  0  0
  190.8880  172.7080  135.2240 C   0  0  0  0  0  3  0  0  0  0  0  0
  189.7460  171.9120  135.3380 C   0  0  0  0  0  3  0  0  0  0  0  0
  193.1030  174.5310  136.4570 N   0  0  0  0  0  2  0  0  0  0  0  0
  189.4310  176.3270  138.9930 C   0  0  0  0  0  0  0  0  0  0  0  0
  191.5250  176.5020  138.4730 C   0  0  0  0  0  0  0  0  0  0  0  0
  188.0770  176.4990  138.4250 C   0  0  2  0  0  3  0  0  0  0  0  0
  189.4170  177.4940  141.2110 N   0  0  0  0  0  1  0  0  0  0  0  0
  189.6840  176.0040  136.7440 C   0  0  1  0  0  3  0  0  0  0  0  0
  1 16  1  0  0  0  0
  4 20  1  0  0  0  0
  5 27  1  0  0  0  0
  6  1  1  0  0  0  0
  6 23  1  0  0  0  0
  7  8  2  0  0  0  0
  8  2  2  0  0  0  0
  8 14  1  0  0  0  0
  9 18  1  1  0  0  0
  9 13  1  0  0  0  0
 10  8  1  1  0  0  0
 10 26  1  0  0  0  0
 12 25  1  0  0  0  0
 12 24  1  0  0  0  0
 14  9  1  0  0  0  0
 15 19  1  0  0  0  0
 15 11  2  0  0  0  0
 16 20  2  0  0  0  0
 17  5  1  0  0  0  0
 17  3  1  0  0  0  0
 19 25  1  0  0  0  0
 21 22  1  0  0  0  0
 21  1  2  0  0  0  0
 22  4  2  0  0  0  0
 23 15  1  0  0  0  0
 24  5  2  0  0  0  0
 25 17  2  0  0  0  0
 26 13  1  1  0  0  0
 26 24  1  0  0  0  0
 28 16  1  1  0  0  0
 28 10  1  0  0  0  0
 28 12  1  0  0  0  0
M  END
>  <MODEL>
8

>  <REMARK>
 VINA RESULT:      -5.5      6.479      9.725
  Name = 
  0 active torsions:
  status: ('A' for Active; 'I' for Inactive)
                            x       y       z     vdW  Elec       q    Type
                         _______ _______ _______ _____ _____    ______ ____

>  <TORSDO>
F 0

$$$$
=
 OpenBabel11122411503D

 28 32  0  0  1  0  0  0  0  0999 V2000
  185.8780  178.8630  140.8150 C   0  0  0  0  0  0  0  0  0  0  0  0
  187.1970  179.0160  135.9100 O   0  0  0  0  0  0  0  0  0  0  0  0
  183.1710  175.7730  136.1460 O   0  0  0  0  0  1  0  0  0  0  0  0
  187.9310  177.5550  142.1920 C   0  0  0  0  0  3  0  0  0  0  0  0
  185.4890  175.3010  136.8630 C   0  0  0  0  0  0  0  0  0  0  0  0
  184.7900  179.4610  140.1250 N   0  0  0  0  0  2  0  0  0  0  0  0
  189.0550  179.9350  137.2190 O   0  0  0  0  0  0  0  0  0  0  0  0
  188.4430  178.6730  136.6810 S   0  0  0  0  0  0  0  0  0  0  0  0
  189.7830  176.5260  136.0280 C   0  0  2  0  0  3  0  0  0  0  0  0
  188.0590  177.6080  138.0110 N   0  0  2  0  0  0  0  0  0  0  0  0
  181.7110  177.9570  139.0950 O   0  0  0  0  0  0  0  0  0  0  0  0
  185.7930  177.0550  138.1960 N   0  0  0  0  0  0  0  0  0  0  0  0
  188.4500  175.8210  136.2180 C   0  0  0  0  0  2  0  0  0  0  0  0
  189.5700  177.9060  135.6050 N   0  0  0  0  0  2  0  0  0  0  0  0
  182.8880  178.3970  139.0410 C   0  0  0  0  0  0  0  0  0  0  0  0
  186.8590  178.1620  140.0910 C   0  0  0  0  0  0  0  0  0  0  0  0
  184.3130  176.0270  136.8970 C   0  0  0  0  0  0  0  0  0  0  0  0
  190.5870  175.8000  134.9710 C   0  0  0  0  0  1  0  0  0  0  0  0
  183.6470  178.3370  137.7550 C   0  0  0  0  0  2  0  0  0  0  0  0
  187.8810  177.5030  140.7960 C   0  0  0  0  0  3  0  0  0  0  0  0
  185.9200  178.8980  142.2130 C   0  0  0  0  0  3  0  0  0  0  0  0
  186.9500  178.2520  142.9000 C   0  0  0  0  0  3  0  0  0  0  0  0
  183.5160  178.8910  140.2190 N   0  0  0  0  0  2  0  0  0  0  0  0
  186.3830  176.0090  137.6460 C   0  0  0  0  0  0  0  0  0  0  0  0
  184.5310  177.1290  137.7080 C   0  0  0  0  0  0  0  0  0  0  0  0
  187.8480  176.1930  137.5790 C   0  0  2  0  0  3  0  0  0  0  0  0
  185.8100  174.2850  135.9190 N   0  0  0  0  0  1  0  0  0  0  0  0
  186.7670  178.0600  138.5800 C   0  0  1  0  0  3  0  0  0  0  0  0
  1 21  1  0  0  0  0
  2  8  2  0  0  0  0
  3 17  1  0  0  0  0
  4 22  1  0  0  0  0
  5 17  1  0  0  0  0
  5 24  2  0  0  0  0
  6 23  1  0  0  0  0
  6  1  1  0  0  0  0
  8  7  2  0  0  0  0
  9 18  1  6  0  0  0
  9 13  1  0  0  0  0
 10  8  1  6  0  0  0
 10 28  1  0  0  0  0
 12 28  1  0  0  0  0
 14  9  1  0  0  0  0
 14  8  1  0  0  0  0
 15 11  2  0  0  0  0
 15 23  1  0  0  0  0
 16 20  1  0  0  0  0
 16  1  2  0  0  0  0
 17 25  2  0  0  0  0
 19 15  1  0  0  0  0
 20  4  2  0  0  0  0
 21 22  2  0  0  0  0
 24 12  1  0  0  0  0
 25 19  1  0  0  0  0
 25 12  1  0  0  0  0
 26 13  1  6  0  0  0
 26 24  1  0  0  0  0
 26 10  1  0  0  0  0
 27  5  1  0  0  0  0
 28 16  1  1  0  0  0
M  END
>  <MODEL>
9

>  <REMARK>
 VINA RESULT:      -5.2      3.780      6.425
  Name = 
  0 active torsions:
  status: ('A' for Active; 'I' for Inactive)
                            x       y       z     vdW  Elec       q    Type
                         _______ _______ _______ _____ _____    ______ ____

>  <TORSDO>
F 0

$$$$
