=
 OpenBabel11122412223D

 34 41  0  0  1  0  0  0  0  0999 V2000
  190.9750  177.3650  142.3920 C   0  0  2  0  0  3  0  0  0  0  0  0
  192.7690  177.0820  140.6670 C   0  0  0  0  0  2  0  0  0  0  0  0
  184.9880  179.1550  144.4470 C   0  0  1  0  0  3  0  0  0  0  0  0
  189.0650  177.4640  143.9940 C   0  0  1  0  0  3  0  0  0  0  0  0
  186.9040  178.6110  143.0820 C   0  0  2  0  0  3  0  0  0  0  0  0
  184.4500  179.3480  142.5440 C   0  0  0  0  0  2  0  0  0  0  0  0
  183.9560  179.8260  143.7760 O   0  0  0  0  0  0  0  0  0  0  0  0
  185.8780  177.5990  146.1380 C   0  0  0  0  0  2  0  0  0  0  0  0
  190.5520  177.7460  139.9110 N   0  0  2  0  0  0  0  0  0  0  0  0
  189.3660  175.5210  137.8520 C   0  0  0  0  0  2  0  0  0  0  0  0
  187.3770  178.0380  141.7740 C   0  0  0  0  0  3  0  0  0  0  0  0
  186.8740  176.9680  145.1420 C   0  0  0  0  0  2  0  0  0  0  0  0
  189.2030  177.2200  140.2630 C   0  0  1  0  0  3  0  0  0  0  0  0
  192.7190  176.9790  139.1730 C   0  0  0  0  0  2  0  0  0  0  0  0
  187.6670  178.0180  144.3220 C   0  0  1  0  0  3  0  0  0  0  0  0
  184.5890  178.1370  145.4910 C   0  0  0  0  0  2  0  0  0  0  0  0
  190.6890  175.5480  138.6350 C   0  0  2  0  0  3  0  0  0  0  0  0
  189.6420  178.0410  142.6920 C   0  0  2  0  0  3  0  0  0  0  0  0
  185.4080  178.4120  143.2260 C   0  0  2  0  0  3  0  0  0  0  0  0
  188.6850  177.8220  141.5570 C   0  0  0  0  0  0  0  0  0  0  0  0
  191.3990  177.1240  144.8470 C   0  0  0  0  0  2  0  0  0  0  0  0
  188.6690  176.8790  137.7570 C   0  0  0  0  0  2  0  0  0  0  0  0
  190.0300  177.7320  145.1490 C   0  0  0  0  0  2  0  0  0  0  0  0
  188.1940  177.4030  139.1120 C   0  0  0  0  0  2  0  0  0  0  0  0
  191.2410  176.9840  138.8420 C   0  0  1  0  0  3  0  0  0  0  0  0
  191.9520  177.6650  143.5290 C   0  0  0  0  0  2  0  0  0  0  0  0
  191.5140  177.8460  141.0390 C   0  0  1  0  0  3  0  0  0  0  0  0
  191.6190  174.7360  137.9780 O   0  0  0  0  0  0  0  0  0  0  0  0
  191.4930  175.0690  136.6260 C   0  0  0  0  0  2  0  0  0  0  0  0
  194.5350  176.2260  136.4130 O   0  0  0  0  0  0  0  0  0  0  0  0
  193.7350  174.0440  136.8150 C   0  0  0  0  0  2  0  0  0  0  0  0
  192.7760  174.7290  135.8860 C   0  0  2  0  0  3  0  0  0  0  0  0
  194.9420  174.9490  136.8210 C   0  0  0  0  0  2  0  0  0  0  0  0
  193.4890  176.0040  135.5030 C   0  0  0  0  0  2  0  0  0  0  0  0
  1 18  1  0  0  0  0
  1 26  1  1  0  0  0
  2 27  1  0  0  0  0
  3 16  1  1  0  0  0
  4 15  1  0  0  0  0
  4 23  1  1  0  0  0
  5 11  1  6  0  0  0
  5 19  1  0  0  0  0
  5 15  1  0  0  0  0
  6 19  1  0  0  0  0
  6  7  1  0  0  0  0
  7  3  1  0  0  0  0
  9 13  1  0  0  0  0
  9 27  1  0  0  0  0
 10 17  1  0  0  0  0
 12  8  1  0  0  0  0
 13 20  1  0  0  0  0
 14  2  1  0  0  0  0
 15 12  1  0  0  0  0
 16  8  1  0  0  0  0
 17 25  1  0  0  0  0
 18  4  1  0  0  0  0
 19  3  1  0  0  0  0
 20 11  2  0  0  0  0
 20 18  1  0  0  0  0
 21 23  1  0  0  0  0
 22 10  1  0  0  0  0
 22 24  1  0  0  0  0
 24 13  1  0  0  0  0
 25 14  1  0  0  0  0
 25  9  1  0  0  0  0
 26 21  1  0  0  0  0
 27  1  1  0  0  0  0
 28 17  1  0  0  0  0
 29 28  1  0  0  0  0
 30 33  1  0  0  0  0
 31 33  1  0  0  0  0
 32 29  1  0  0  0  0
 32 31  1  0  0  0  0
 34 32  1  0  0  0  0
 34 30  1  0  0  0  0
M  END
>  <MODEL>
1

>  <REMARK>
 VINA RESULT:      -8.6      0.000      0.000
  Name = 
  3 active torsions:
  status: ('A' for Active; 'I' for Inactive)
    1  A    between atoms: C_17  and  O_28
    2  A    between atoms: O_28  and  C_29
    3  A    between atoms: C_29  and  C_32
                            x       y       z     vdW  Elec       q    Type
                         _______ _______ _______ _____ _____    ______ ____

>  <TORSDO>
F 3

$$$$
=
 OpenBabel11122412223D

 34 41  0  0  1  0  0  0  0  0999 V2000
  188.6450  177.7790  139.4760 C   0  0  2  0  0  3  0  0  0  0  0  0
  188.7990  177.8910  136.9790 C   0  0  0  0  0  2  0  0  0  0  0  0
  185.7730  178.9600  145.2740 C   0  0  1  0  0  3  0  0  0  0  0  0
  188.3030  177.5070  141.9320 C   0  0  1  0  0  3  0  0  0  0  0  0
  186.2260  178.7480  142.9130 C   0  0  2  0  0  3  0  0  0  0  0  0
  184.1350  179.5080  144.2920 C   0  0  0  0  0  2  0  0  0  0  0  0
  184.6390  179.7200  145.5930 O   0  0  0  0  0  0  0  0  0  0  0  0
  187.3800  177.1280  145.6440 C   0  0  0  0  0  2  0  0  0  0  0  0
  186.7300  178.6280  138.0300 N   0  0  2  0  0  0  0  0  0  0  0  0
  184.2390  176.8170  136.9720 C   0  0  0  0  0  2  0  0  0  0  0  0
  185.6460  178.4580  141.5550 C   0  0  0  0  0  3  0  0  0  0  0  0
  187.3870  176.7340  144.1510 C   0  0  0  0  0  2  0  0  0  0  0  0
  185.9060  178.0040  139.1030 C   0  0  1  0  0  3  0  0  0  0  0  0
  187.7600  178.0820  135.9150 C   0  0  0  0  0  2  0  0  0  0  0  0
  187.5470  177.9460  143.1990 C   0  0  1  0  0  3  0  0  0  0  0  0
  186.0560  177.7460  146.1300 C   0  0  0  0  0  2  0  0  0  0  0  0
  185.7410  176.7270  136.6540 C   0  0  2  0  0  3  0  0  0  0  0  0
  187.9320  178.3450  140.6980 C   0  0  2  0  0  3  0  0  0  0  0  0
  185.1920  178.4830  143.9880 C   0  0  2  0  0  3  0  0  0  0  0  0
  186.4460  178.3260  140.4850 C   0  0  0  0  0  0  0  0  0  0  0  0
  190.5600  177.0730  140.9250 C   0  0  0  0  0  2  0  0  0  0  0  0
  183.8120  178.1470  137.5950 C   0  0  0  0  0  2  0  0  0  0  0  0
  189.8130  177.5710  142.1630 C   0  0  0  0  0  2  0  0  0  0  0  0
  184.4160  178.3810  138.9790 C   0  0  0  0  0  2  0  0  0  0  0  0
  186.4470  178.1100  136.6700 C   0  0  1  0  0  3  0  0  0  0  0  0
  190.1560  177.8780  139.6910 C   0  0  0  0  0  2  0  0  0  0  0  0
  188.2010  178.5310  138.2150 C   0  0  1  0  0  3  0  0  0  0  0  0
  185.9040  176.0870  135.4220 O   0  0  0  0  0  0  0  0  0  0  0  0
  185.8770  174.7220  135.7210 C   0  0  0  0  0  2  0  0  0  0  0  0
  187.5320  172.1520  136.8600 O   0  0  0  0  0  0  0  0  0  0  0  0
  188.2460  174.3330  136.3140 C   0  0  0  0  0  2  0  0  0  0  0  0
  186.8480  174.4200  136.8510 C   0  0  2  0  0  3  0  0  0  0  0  0
  188.6800  172.9300  136.6610 C   0  0  0  0  0  2  0  0  0  0  0  0
  186.5790  173.0340  137.3900 C   0  0  0  0  0  2  0  0  0  0  0  0
  1 26  1  1  0  0  0
  1 18  1  0  0  0  0
  2 27  1  0  0  0  0
  3  7  1  0  0  0  0
  3 16  1  1  0  0  0
  4 23  1  1  0  0  0
  4 15  1  0  0  0  0
  5 11  1  6  0  0  0
  5 15  1  0  0  0  0
  5 19  1  0  0  0  0
  6  7  1  0  0  0  0
  8 16  1  0  0  0  0
  9 27  1  0  0  0  0
  9 13  1  0  0  0  0
 10 22  1  0  0  0  0
 12  8  1  0  0  0  0
 13 20  1  0  0  0  0
 14 25  1  0  0  0  0
 14  2  1  0  0  0  0
 15 12  1  0  0  0  0
 17 25  1  0  0  0  0
 17 10  1  0  0  0  0
 18  4  1  0  0  0  0
 19  6  1  0  0  0  0
 19  3  1  0  0  0  0
 20 18  1  0  0  0  0
 20 11  2  0  0  0  0
 21 23  1  0  0  0  0
 22 24  1  0  0  0  0
 24 13  1  0  0  0  0
 25  9  1  0  0  0  0
 26 21  1  0  0  0  0
 27  1  1  0  0  0  0
 28 29  1  0  0  0  0
 28 17  1  0  0  0  0
 29 32  1  0  0  0  0
 30 34  1  0  0  0  0
 31 33  1  0  0  0  0
 31 32  1  0  0  0  0
 32 34  1  0  0  0  0
 33 30  1  0  0  0  0
M  END
>  <MODEL>
2

>  <REMARK>
 VINA RESULT:      -8.6      3.024      4.376
  Name = 
  3 active torsions:
  status: ('A' for Active; 'I' for Inactive)
    1  A    between atoms: C_17  and  O_28
    2  A    between atoms: O_28  and  C_29
    3  A    between atoms: C_29  and  C_32
                            x       y       z     vdW  Elec       q    Type
                         _______ _______ _______ _____ _____    ______ ____

>  <TORSDO>
F 3

$$$$
=
 OpenBabel11122412223D

 34 41  0  0  1  0  0  0  0  0999 V2000
  189.2060  177.7380  140.0200 C   0  0  2  0  0  3  0  0  0  0  0  0
  189.8040  177.7840  137.5880 C   0  0  0  0  0  2  0  0  0  0  0  0
  185.3400  179.0500  145.1770 C   0  0  1  0  0  3  0  0  0  0  0  0
  188.4320  177.5290  142.3820 C   0  0  1  0  0  3  0  0  0  0  0  0
  186.2090  178.7790  142.9410 C   0  0  2  0  0  3  0  0  0  0  0  0
  183.9010  179.5560  143.9030 C   0  0  0  0  0  2  0  0  0  0  0  0
  184.1640  179.8080  145.2660 O   0  0  0  0  0  0  0  0  0  0  0  0
  186.8610  177.2420  145.8780 C   0  0  0  0  0  2  0  0  0  0  0  0
  187.5770  178.5310  138.2320 N   0  0  2  0  0  0  0  0  0  0  0  0
  185.3230  176.6710  136.7980 C   0  0  0  0  0  2  0  0  0  0  0  0
  185.8810  178.4470  141.5100 C   0  0  0  0  0  3  0  0  0  0  0  0
  187.1370  176.8080  144.4220 C   0  0  0  0  0  2  0  0  0  0  0  0
  186.5770  177.9290  139.1580 C   0  0  1  0  0  3  0  0  0  0  0  0
  188.9720  177.9380  136.3510 C   0  0  0  0  0  2  0  0  0  0  0  0
  187.4600  177.9960  143.4810 C   0  0  1  0  0  3  0  0  0  0  0  0
  185.4700  177.8610  146.1030 C   0  0  0  0  0  2  0  0  0  0  0  0
  186.8580  176.5860  136.7550 C   0  0  2  0  0  3  0  0  0  0  0  0
  188.2840  178.3300  141.0790 C   0  0  2  0  0  3  0  0  0  0  0  0
  185.0000  178.5330  143.8210 C   0  0  2  0  0  3  0  0  0  0  0  0
  186.8610  178.2920  140.6040 C   0  0  0  0  0  0  0  0  0  0  0  0
  190.8340  177.0880  141.8070 C   0  0  0  0  0  2  0  0  0  0  0  0
  184.7860  178.0130  137.2970 C   0  0  0  0  0  2  0  0  0  0  0  0
  189.8760  177.6120  142.8770 C   0  0  0  0  0  2  0  0  0  0  0  0
  185.1320  178.2900  138.7590 C   0  0  0  0  0  2  0  0  0  0  0  0
  187.5440  177.9740  136.8580 C   0  0  1  0  0  3  0  0  0  0  0  0
  190.6540  177.8560  140.4980 C   0  0  0  0  0  2  0  0  0  0  0  0
  188.9920  178.4520  138.6800 C   0  0  1  0  0  3  0  0  0  0  0  0
  187.2400  175.9140  135.5900 O   0  0  0  0  0  0  0  0  0  0  0  0
  186.8340  174.5910  135.7900 C   0  0  0  0  0  2  0  0  0  0  0  0
  190.0920  174.6640  135.9240 O   0  0  0  0  0  0  0  0  0  0  0  0
  188.5410  173.1250  136.8130 C   0  0  0  0  0  2  0  0  0  0  0  0
  187.9910  173.6460  135.5170 C   0  0  2  0  0  3  0  0  0  0  0  0
  189.9800  173.5810  136.8060 C   0  0  0  0  0  2  0  0  0  0  0  0
  189.1430  174.4190  134.9190 C   0  0  0  0  0  2  0  0  0  0  0  0
  1 26  1  1  0  0  0
  1 18  1  0  0  0  0
  2 27  1  0  0  0  0
  3  7  1  0  0  0  0
  3 16  1  1  0  0  0
  4 23  1  1  0  0  0
  4 15  1  0  0  0  0
  5 11  1  6  0  0  0
  5 15  1  0  0  0  0
  5 19  1  0  0  0  0
  6  7  1  0  0  0  0
  8 16  1  0  0  0  0
  9 27  1  0  0  0  0
  9 13  1  0  0  0  0
 10 22  1  0  0  0  0
 12  8  1  0  0  0  0
 13 20  1  0  0  0  0
 14 25  1  0  0  0  0
 14  2  1  0  0  0  0
 15 12  1  0  0  0  0
 17 10  1  0  0  0  0
 17 25  1  0  0  0  0
 18  4  1  0  0  0  0
 19  6  1  0  0  0  0
 19  3  1  0  0  0  0
 20 18  1  0  0  0  0
 20 11  2  0  0  0  0
 21 23  1  0  0  0  0
 22 24  1  0  0  0  0
 24 13  1  0  0  0  0
 25  9  1  0  0  0  0
 26 21  1  0  0  0  0
 27  1  1  0  0  0  0
 28 29  1  0  0  0  0
 28 17  1  0  0  0  0
 30 33  1  0  0  0  0
 32 29  1  0  0  0  0
 32 31  1  0  0  0  0
 33 31  1  0  0  0  0
 34 32  1  0  0  0  0
 34 30  1  0  0  0  0
M  END
>  <MODEL>
3

>  <REMARK>
 VINA RESULT:      -8.5      2.298      3.382
  Name = 
  3 active torsions:
  status: ('A' for Active; 'I' for Inactive)
    1  A    between atoms: C_17  and  O_28
    2  A    between atoms: O_28  and  C_29
    3  A    between atoms: C_29  and  C_32
                            x       y       z     vdW  Elec       q    Type
                         _______ _______ _______ _____ _____    ______ ____

>  <TORSDO>
F 3

$$$$
=
 OpenBabel11122412223D

 34 41  0  0  1  0  0  0  0  0999 V2000
  187.8980  177.0020  138.3820 C   0  0  2  0  0  3  0  0  0  0  0  0
  186.5760  178.4270  139.9620 C   0  0  0  0  0  2  0  0  0  0  0  0
  193.4660  174.4820  135.9520 C   0  0  1  0  0  3  0  0  0  0  0  0
  189.2620  175.4350  137.0020 C   0  0  1  0  0  3  0  0  0  0  0  0
  191.8450  175.6140  137.3370 C   0  0  2  0  0  3  0  0  0  0  0  0
  194.4180  175.1800  137.5510 C   0  0  0  0  0  2  0  0  0  0  0  0
  194.8050  174.7620  136.2600 O   0  0  0  0  0  0  0  0  0  0  0  0
  191.6360  173.0250  135.1770 C   0  0  0  0  0  2  0  0  0  0  0  0
  188.9560  178.1490  140.3930 N   0  0  2  0  0  0  0  0  0  0  0  0
  189.4040  176.7720  143.3090 C   0  0  0  0  0  2  0  0  0  0  0  0
  191.4490  175.9840  138.7410 C   0  0  0  0  0  3  0  0  0  0  0  0
  190.6950  173.4760  136.3150 C   0  0  0  0  0  2  0  0  0  0  0  0
  189.8120  176.9290  140.3870 C   0  0  1  0  0  3  0  0  0  0  0  0
  186.8850  178.9700  141.3250 C   0  0  0  0  0  2  0  0  0  0  0  0
  190.6560  175.0140  136.5030 C   0  0  1  0  0  3  0  0  0  0  0  0
  193.1320  173.0670  135.5380 C   0  0  0  0  0  2  0  0  0  0  0  0
  188.1060  177.1140  142.5590 C   0  0  2  0  0  3  0  0  0  0  0  0
  189.2960  176.7180  137.8470 C   0  0  2  0  0  3  0  0  0  0  0  0
  193.0200  174.6580  137.3630 C   0  0  2  0  0  3  0  0  0  0  0  0
  190.2630  176.5660  138.9850 C   0  0  0  0  0  0  0  0  0  0  0  0
  186.9070  175.9740  136.3260 C   0  0  0  0  0  2  0  0  0  0  0  0
  190.6440  177.4870  142.7700 C   0  0  0  0  0  2  0  0  0  0  0  0
  188.3060  175.6200  135.8230 C   0  0  0  0  0  2  0  0  0  0  0  0
  191.0100  177.0610  141.3490 C   0  0  0  0  0  2  0  0  0  0  0  0
  188.2370  178.3790  141.6690 C   0  0  1  0  0  3  0  0  0  0  0  0
  186.9490  177.2250  137.2030 C   0  0  0  0  0  2  0  0  0  0  0  0
  187.9320  178.2160  139.3190 C   0  0  1  0  0  3  0  0  0  0  0  0
  187.0700  177.2490  143.4880 O   0  0  0  0  0  0  0  0  0  0  0  0
  187.7110  177.4890  144.7060 C   0  0  0  0  0  2  0  0  0  0  0  0
  187.0940  178.7980  147.6300 O   0  0  0  0  0  0  0  0  0  0  0  0
  185.6620  178.3090  145.8200 C   0  0  0  0  0  2  0  0  0  0  0  0
  186.7410  177.2680  145.8550 C   0  0  2  0  0  3  0  0  0  0  0  0
  185.7970  179.0160  147.1470 C   0  0  0  0  0  2  0  0  0  0  0  0
  187.4480  177.5210  147.1660 C   0  0  0  0  0  2  0  0  0  0  0  0
  1 26  1  6  0  0  0
  1 27  1  0  0  0  0
  2 14  1  0  0  0  0
  3 16  1  1  0  0  0
  3  7  1  0  0  0  0
  3 19  1  0  0  0  0
  4 23  1  6  0  0  0
  4 18  1  0  0  0  0
  5 19  1  0  0  0  0
  5 11  1  1  0  0  0
  7  6  1  0  0  0  0
  8 16  1  0  0  0  0
  8 12  1  0  0  0  0
  9 25  1  0  0  0  0
 11 20  2  0  0  0  0
 12 15  1  0  0  0  0
 13  9  1  0  0  0  0
 13 24  1  0  0  0  0
 14 25  1  0  0  0  0
 15  4  1  0  0  0  0
 15  5  1  0  0  0  0
 17 10  1  0  0  0  0
 17 28  1  0  0  0  0
 18  1  1  0  0  0  0
 18 20  1  0  0  0  0
 19  6  1  0  0  0  0
 20 13  1  0  0  0  0
 21 26  1  0  0  0  0
 22 10  1  0  0  0  0
 23 21  1  0  0  0  0
 24 22  1  0  0  0  0
 25 17  1  0  0  0  0
 27  2  1  0  0  0  0
 27  9  1  0  0  0  0
 28 29  1  0  0  0  0
 29 32  1  0  0  0  0
 31 32  1  0  0  0  0
 31 33  1  0  0  0  0
 32 34  1  0  0  0  0
 33 30  1  0  0  0  0
 34 30  1  0  0  0  0
M  END
>  <MODEL>
4

>  <REMARK>
 VINA RESULT:      -8.4      1.720      9.193
  Name = 
  3 active torsions:
  status: ('A' for Active; 'I' for Inactive)
    1  A    between atoms: C_17  and  O_28
    2  A    between atoms: O_28  and  C_29
    3  A    between atoms: C_29  and  C_32
                            x       y       z     vdW  Elec       q    Type
                         _______ _______ _______ _____ _____    ______ ____

>  <TORSDO>
F 3

$$$$
=
 OpenBabel11122412223D

 34 41  0  0  1  0  0  0  0  0999 V2000
  187.0850  178.0020  140.0230 C   0  0  2  0  0  3  0  0  0  0  0  0
  186.1970  178.1510  137.6860 C   0  0  0  0  0  2  0  0  0  0  0  0
  186.6810  178.7080  146.5500 C   0  0  1  0  0  3  0  0  0  0  0  0
  187.8080  177.6670  142.3870 C   0  0  1  0  0  3  0  0  0  0  0  0
  186.1620  178.5800  144.1960 C   0  0  2  0  0  3  0  0  0  0  0  0
  184.7280  179.0120  146.3440 C   0  0  0  0  0  2  0  0  0  0  0  0
  185.6830  179.2890  147.3450 O   0  0  0  0  0  0  0  0  0  0  0  0
  188.5280  177.1320  146.1250 C   0  0  0  0  0  2  0  0  0  0  0  0
  184.6540  178.5660  139.5230 N   0  0  2  0  0  0  0  0  0  0  0  0
  182.2140  176.4120  139.4340 C   0  0  0  0  0  2  0  0  0  0  0  0
  185.1250  178.2150  143.1680 C   0  0  0  0  0  3  0  0  0  0  0  0
  187.9820  176.7530  144.7310 C   0  0  0  0  0  2  0  0  0  0  0  0
  184.4270  177.8200  140.7930 C   0  0  1  0  0  3  0  0  0  0  0  0
  184.8010  178.1920  137.1420 C   0  0  0  0  0  2  0  0  0  0  0  0
  187.5790  177.9810  143.8760 C   0  0  1  0  0  3  0  0  0  0  0  0
  187.4450  177.5440  147.1390 C   0  0  0  0  0  2  0  0  0  0  0  0
  183.4550  176.5480  138.5360 C   0  0  2  0  0  3  0  0  0  0  0  0
  186.8600  178.4480  141.4630 C   0  0  2  0  0  3  0  0  0  0  0  0
  185.6970  178.1570  145.5750 C   0  0  2  0  0  3  0  0  0  0  0  0
  185.4330  178.2100  141.8610 C   0  0  0  0  0  0  0  0  0  0  0  0
  189.4980  177.5790  140.5360 C   0  0  0  0  0  2  0  0  0  0  0  0
  181.9020  177.6600  140.2620 C   0  0  0  0  0  2  0  0  0  0  0  0
  189.2580  177.9530  141.9980 C   0  0  0  0  0  2  0  0  0  0  0  0
  182.9790  177.9720  141.3000 C   0  0  0  0  0  2  0  0  0  0  0  0
  183.9150  178.0200  138.3590 C   0  0  1  0  0  3  0  0  0  0  0  0
  188.5260  178.3230  139.6210 C   0  0  0  0  0  2  0  0  0  0  0  0
  186.0720  178.6870  139.0980 C   0  0  1  0  0  3  0  0  0  0  0  0
  183.1880  175.9460  137.3020 O   0  0  0  0  0  0  0  0  0  0  0  0
  182.9850  174.5960  137.5990 C   0  0  0  0  0  2  0  0  0  0  0  0
  186.0580  174.7610  136.5180 O   0  0  0  0  0  0  0  0  0  0  0  0
  184.9220  173.0610  137.6950 C   0  0  0  0  0  2  0  0  0  0  0  0
  183.9380  173.7370  136.7850 C   0  0  2  0  0  3  0  0  0  0  0  0
  186.2630  173.5630  137.2160 C   0  0  0  0  0  2  0  0  0  0  0  0
  184.7990  174.6240  135.9150 C   0  0  0  0  0  2  0  0  0  0  0  0
  1 26  1  6  0  0  0
  1 18  1  0  0  0  0
  2 27  1  0  0  0  0
  3 16  1  1  0  0  0
  3  7  1  0  0  0  0
  4 23  1  6  0  0  0
  4 15  1  0  0  0  0
  5 11  1  6  0  0  0
  5 19  1  0  0  0  0
  6  7  1  0  0  0  0
  8 16  1  0  0  0  0
  9 13  1  0  0  0  0
 10 22  1  0  0  0  0
 12  8  1  0  0  0  0
 13 24  1  0  0  0  0
 13 20  1  0  0  0  0
 14  2  1  0  0  0  0
 14 25  1  0  0  0  0
 15  5  1  0  0  0  0
 15 12  1  0  0  0  0
 17 10  1  0  0  0  0
 18 20  1  0  0  0  0
 18  4  1  0  0  0  0
 19  6  1  0  0  0  0
 19  3  1  0  0  0  0
 20 11  2  0  0  0  0
 21 23  1  0  0  0  0
 22 24  1  0  0  0  0
 25 17  1  0  0  0  0
 25  9  1  0  0  0  0
 26 21  1  0  0  0  0
 27  9  1  0  0  0  0
 27  1  1  0  0  0  0
 28 29  1  0  0  0  0
 28 17  1  0  0  0  0
 30 33  1  0  0  0  0
 32 29  1  0  0  0  0
 32 31  1  0  0  0  0
 33 31  1  0  0  0  0
 34 30  1  0  0  0  0
 34 32  1  0  0  0  0
M  END
>  <MODEL>
5

>  <REMARK>
 VINA RESULT:      -8.3      3.696      5.881
  Name = 
  3 active torsions:
  status: ('A' for Active; 'I' for Inactive)
    1  A    between atoms: C_17  and  O_28
    2  A    between atoms: O_28  and  C_29
    3  A    between atoms: C_29  and  C_32
                            x       y       z     vdW  Elec       q    Type
                         _______ _______ _______ _____ _____    ______ ____

>  <TORSDO>
F 3

$$$$
=
 OpenBabel11122412223D

 34 41  0  0  1  0  0  0  0  0999 V2000
  187.0310  178.0150  140.0070 C   0  0  2  0  0  3  0  0  0  0  0  0
  186.1250  178.1680  137.6770 C   0  0  0  0  0  2  0  0  0  0  0  0
  186.6750  178.7010  146.5390 C   0  0  1  0  0  3  0  0  0  0  0  0
  187.7730  177.6760  142.3640 C   0  0  1  0  0  3  0  0  0  0  0  0
  186.1380  178.5780  144.1880 C   0  0  2  0  0  3  0  0  0  0  0  0
  184.7200  178.9990  146.3480 C   0  0  0  0  0  2  0  0  0  0  0  0
  185.6820  179.2760  147.3430 O   0  0  0  0  0  0  0  0  0  0  0  0
  188.5230  177.1320  146.0940 C   0  0  0  0  0  2  0  0  0  0  0  0
  184.5940  178.5730  139.5270 N   0  0  2  0  0  0  0  0  0  0  0  0
  182.1600  176.4120  139.4500 C   0  0  0  0  0  2  0  0  0  0  0  0
  185.0950  178.2130  143.1670 C   0  0  0  0  0  3  0  0  0  0  0  0
  187.9680  176.7550  144.7040 C   0  0  0  0  0  2  0  0  0  0  0  0
  184.3800  177.8230  140.7960 C   0  0  1  0  0  3  0  0  0  0  0  0
  184.7240  178.2070  137.1430 C   0  0  0  0  0  2  0  0  0  0  0  0
  187.5550  177.9850  143.8560 C   0  0  1  0  0  3  0  0  0  0  0  0
  187.4480  177.5370  147.1180 C   0  0  0  0  0  2  0  0  0  0  0  0
  183.3940  176.5540  138.5430 C   0  0  2  0  0  3  0  0  0  0  0  0
  186.8160  178.4560  141.4490 C   0  0  2  0  0  3  0  0  0  0  0  0
  185.6860  178.1500  145.5700 C   0  0  2  0  0  3  0  0  0  0  0  0
  185.3920  178.2120  141.8580 C   0  0  0  0  0  0  0  0  0  0  0  0
  189.4490  177.5980  140.4990 C   0  0  0  0  0  2  0  0  0  0  0  0
  181.8520  177.6560  140.2840 C   0  0  0  0  0  2  0  0  0  0  0  0
  189.2200  177.9670  141.9650 C   0  0  0  0  0  2  0  0  0  0  0  0
  182.9350  177.9690  141.3150 C   0  0  0  0  0  2  0  0  0  0  0  0
  183.8490  178.0280  138.3670 C   0  0  1  0  0  3  0  0  0  0  0  0
  188.4680  178.3410  139.5950 C   0  0  0  0  0  2  0  0  0  0  0  0
  186.0090  178.7000  139.0910 C   0  0  1  0  0  3  0  0  0  0  0  0
  183.1190  175.9550  137.3100 O   0  0  0  0  0  0  0  0  0  0  0  0
  182.3230  174.8490  137.6190 C   0  0  0  0  0  2  0  0  0  0  0  0
  184.1500  172.1890  137.1500 O   0  0  0  0  0  0  0  0  0  0  0  0
  181.8180  172.5090  137.0000 C   0  0  0  0  0  2  0  0  0  0  0  0
  182.4930  173.7750  136.5580 C   0  0  2  0  0  3  0  0  0  0  0  0
  182.9370  171.4970  137.0390 C   0  0  0  0  0  2  0  0  0  0  0  0
  183.9510  173.3920  136.4570 C   0  0  0  0  0  2  0  0  0  0  0  0
  1 26  1  6  0  0  0
  1 18  1  0  0  0  0
  2 27  1  0  0  0  0
  3 16  1  1  0  0  0
  3  7  1  0  0  0  0
  4 23  1  6  0  0  0
  4 15  1  0  0  0  0
  5 11  1  6  0  0  0
  5 19  1  0  0  0  0
  6  7  1  0  0  0  0
  8 16  1  0  0  0  0
  9 13  1  0  0  0  0
 10 22  1  0  0  0  0
 12  8  1  0  0  0  0
 13 24  1  0  0  0  0
 13 20  1  0  0  0  0
 14  2  1  0  0  0  0
 14 25  1  0  0  0  0
 15  5  1  0  0  0  0
 15 12  1  0  0  0  0
 17 10  1  0  0  0  0
 18 20  1  0  0  0  0
 18  4  1  0  0  0  0
 19  6  1  0  0  0  0
 19  3  1  0  0  0  0
 20 11  2  0  0  0  0
 21 23  1  0  0  0  0
 22 24  1  0  0  0  0
 25 17  1  0  0  0  0
 25  9  1  0  0  0  0
 26 21  1  0  0  0  0
 27  9  1  0  0  0  0
 27  1  1  0  0  0  0
 28 29  1  0  0  0  0
 28 17  1  0  0  0  0
 31 33  1  0  0  0  0
 32 31  1  0  0  0  0
 32 29  1  0  0  0  0
 33 30  1  0  0  0  0
 34 32  1  0  0  0  0
 34 30  1  0  0  0  0
M  END
>  <MODEL>
6

>  <REMARK>
 VINA RESULT:      -8.0      4.097      6.513
  Name = 
  3 active torsions:
  status: ('A' for Active; 'I' for Inactive)
    1  A    between atoms: C_17  and  O_28
    2  A    between atoms: O_28  and  C_29
    3  A    between atoms: C_29  and  C_32
                            x       y       z     vdW  Elec       q    Type
                         _______ _______ _______ _____ _____    ______ ____

>  <TORSDO>
F 3

$$$$
=
 OpenBabel11122412223D

 34 41  0  0  1  0  0  0  0  0999 V2000
  187.0620  178.0330  140.0280 C   0  0  2  0  0  3  0  0  0  0  0  0
  186.1680  178.1980  137.6940 C   0  0  0  0  0  2  0  0  0  0  0  0
  186.6770  178.7000  146.5610 C   0  0  1  0  0  3  0  0  0  0  0  0
  187.7910  177.6830  142.3880 C   0  0  1  0  0  3  0  0  0  0  0  0
  186.1510  178.5880  144.2070 C   0  0  2  0  0  3  0  0  0  0  0  0
  184.7240  179.0090  146.3620 C   0  0  0  0  0  2  0  0  0  0  0  0
  185.6820  179.2780  147.3620 O   0  0  0  0  0  0  0  0  0  0  0  0
  188.5200  177.1240  146.1200 C   0  0  0  0  0  2  0  0  0  0  0  0
  184.6300  178.6040  139.5390 N   0  0  2  0  0  0  0  0  0  0  0  0
  182.1860  176.4550  139.4430 C   0  0  0  0  0  2  0  0  0  0  0  0
  185.1110  178.2310  143.1800 C   0  0  0  0  0  3  0  0  0  0  0  0
  187.9700  176.7540  144.7260 C   0  0  0  0  0  2  0  0  0  0  0  0
  184.4060  177.8520  140.8040 C   0  0  1  0  0  3  0  0  0  0  0  0
  184.7700  178.2450  137.1540 C   0  0  0  0  0  2  0  0  0  0  0  0
  187.5670  177.9890  143.8800 C   0  0  1  0  0  3  0  0  0  0  0  0
  187.4410  177.5310  147.1400 C   0  0  0  0  0  2  0  0  0  0  0  0
  183.4250  176.5950  138.5420 C   0  0  2  0  0  3  0  0  0  0  0  0
  186.8420  178.4710  141.4710 C   0  0  2  0  0  3  0  0  0  0  0  0
  185.6900  178.1580  145.5850 C   0  0  2  0  0  3  0  0  0  0  0  0
  185.4150  178.2330  141.8720 C   0  0  0  0  0  0  0  0  0  0  0  0
  189.4760  177.6030  140.5310 C   0  0  0  0  0  2  0  0  0  0  0  0
  181.8790  177.6990  140.2790 C   0  0  0  0  0  2  0  0  0  0  0  0
  189.2410  177.9690  141.9970 C   0  0  0  0  0  2  0  0  0  0  0  0
  182.9590  178.0030  141.3170 C   0  0  0  0  0  2  0  0  0  0  0  0
  183.8880  178.0670  138.3730 C   0  0  1  0  0  3  0  0  0  0  0  0
  188.5020  178.3540  139.6240 C   0  0  0  0  0  2  0  0  0  0  0  0
  186.0480  178.7260  139.1100 C   0  0  1  0  0  3  0  0  0  0  0  0
  183.1540  176.0010  137.3060 O   0  0  0  0  0  0  0  0  0  0  0  0
  183.2940  174.6290  137.5290 C   0  0  0  0  0  2  0  0  0  0  0  0
  180.0540  174.3230  137.3080 O   0  0  0  0  0  0  0  0  0  0  0  0
  181.6810  174.7720  135.6600 C   0  0  0  0  0  2  0  0  0  0  0  0
  182.2930  173.8600  136.6830 C   0  0  2  0  0  3  0  0  0  0  0  0
  180.2070  174.7370  135.9780 C   0  0  0  0  0  2  0  0  0  0  0  0
  181.1220  173.4430  137.5430 C   0  0  0  0  0  2  0  0  0  0  0  0
  1 26  1  6  0  0  0
  1 18  1  0  0  0  0
  2 27  1  0  0  0  0
  3 16  1  1  0  0  0
  3  7  1  0  0  0  0
  4 23  1  6  0  0  0
  4 15  1  0  0  0  0
  5 11  1  6  0  0  0
  5 19  1  0  0  0  0
  6  7  1  0  0  0  0
  8 16  1  0  0  0  0
  9 13  1  0  0  0  0
 10 22  1  0  0  0  0
 12  8  1  0  0  0  0
 13 24  1  0  0  0  0
 13 20  1  0  0  0  0
 14  2  1  0  0  0  0
 14 25  1  0  0  0  0
 15  5  1  0  0  0  0
 15 12  1  0  0  0  0
 17 10  1  0  0  0  0
 18 20  1  0  0  0  0
 18  4  1  0  0  0  0
 19  6  1  0  0  0  0
 19  3  1  0  0  0  0
 20 11  2  0  0  0  0
 21 23  1  0  0  0  0
 22 24  1  0  0  0  0
 25 17  1  0  0  0  0
 25  9  1  0  0  0  0
 26 21  1  0  0  0  0
 27  9  1  0  0  0  0
 27  1  1  0  0  0  0
 28 29  1  0  0  0  0
 28 17  1  0  0  0  0
 30 34  1  0  0  0  0
 31 33  1  0  0  0  0
 31 32  1  0  0  0  0
 32 29  1  0  0  0  0
 32 34  1  0  0  0  0
 33 30  1  0  0  0  0
M  END
>  <MODEL>
7

>  <REMARK>
 VINA RESULT:      -7.8      4.304      6.951
  Name = 
  3 active torsions:
  status: ('A' for Active; 'I' for Inactive)
    1  A    between atoms: C_17  and  O_28
    2  A    between atoms: O_28  and  C_29
    3  A    between atoms: C_29  and  C_32
                            x       y       z     vdW  Elec       q    Type
                         _______ _______ _______ _____ _____    ______ ____

>  <TORSDO>
F 3

$$$$
=
 OpenBabel11122412223D

 34 41  0  0  1  0  0  0  0  0999 V2000
  186.7400  178.1510  141.4770 C   0  0  2  0  0  3  0  0  0  0  0  0
  189.2110  177.8310  141.2240 C   0  0  0  0  0  2  0  0  0  0  0  0
  180.7980  180.0960  139.4340 C   0  0  1  0  0  3  0  0  0  0  0  0
  184.2510  178.2920  141.5570 C   0  0  1  0  0  3  0  0  0  0  0  0
  183.1370  179.5080  139.5330 C   0  0  2  0  0  3  0  0  0  0  0  0
  181.5560  180.3210  137.6110 C   0  0  0  0  0  2  0  0  0  0  0  0
  180.4140  180.8020  138.2860 O   0  0  0  0  0  0  0  0  0  0  0  0
  180.4230  178.5010  141.2750 C   0  0  0  0  0  2  0  0  0  0  0  0
  187.9490  178.5660  139.2750 N   0  0  2  0  0  0  0  0  0  0  0  0
  188.2530  176.3930  136.8700 C   0  0  0  0  0  2  0  0  0  0  0  0
  184.3080  178.9340  138.7840 C   0  0  0  0  0  3  0  0  0  0  0  0
  181.8110  177.8500  141.0930 C   0  0  0  0  0  2  0  0  0  0  0  0
  186.6630  178.0760  138.7060 C   0  0  1  0  0  3  0  0  0  0  0  0
  190.0950  177.7430  140.0170 C   0  0  0  0  0  2  0  0  0  0  0  0
  182.9590  178.8840  140.9640 C   0  0  1  0  0  3  0  0  0  0  0  0
  179.8200  179.0810  139.9830 C   0  0  0  0  0  2  0  0  0  0  0  0
  188.8090  176.3750  138.3040 C   0  0  2  0  0  3  0  0  0  0  0  0
  185.5200  178.8630  140.9050 C   0  0  2  0  0  3  0  0  0  0  0  0
  181.8700  179.3510  138.7170 C   0  0  2  0  0  3  0  0  0  0  0  0
  185.4660  178.6810  139.4160 C   0  0  0  0  0  0  0  0  0  0  0  0
  185.5510  177.8780  143.6620 C   0  0  0  0  0  2  0  0  0  0  0  0
  187.7870  177.7720  136.3980 C   0  0  0  0  0  2  0  0  0  0  0  0
  184.2990  178.5230  143.0670 C   0  0  0  0  0  2  0  0  0  0  0  0
  186.5850  178.2970  137.1820 C   0  0  0  0  0  2  0  0  0  0  0  0
  189.1380  177.7930  138.8430 C   0  0  1  0  0  3  0  0  0  0  0  0
  186.8100  178.4140  142.9820 C   0  0  0  0  0  2  0  0  0  0  0  0
  188.0090  178.6280  140.7590 C   0  0  1  0  0  3  0  0  0  0  0  0
  189.9310  175.5420  138.3420 O   0  0  0  0  0  0  0  0  0  0  0  0
  189.8060  174.7210  137.2180 C   0  0  0  0  0  2  0  0  0  0  0  0
  192.2750  175.9450  135.4740 O   0  0  0  0  0  0  0  0  0  0  0  0
  192.2430  174.9110  137.5940 C   0  0  0  0  0  2  0  0  0  0  0  0
  191.1800  174.2740  136.7470 C   0  0  2  0  0  3  0  0  0  0  0  0
  193.0630  175.7060  136.6080 C   0  0  0  0  0  2  0  0  0  0  0  0
  191.4410  174.8220  135.3640 C   0  0  0  0  0  2  0  0  0  0  0  0
  1 26  1  1  0  0  0
  3 16  1  6  0  0  0
  4 23  1  1  0  0  0
  5 11  1  6  0  0  0
  5 15  1  0  0  0  0
  6  7  1  0  0  0  0
  6 19  1  0  0  0  0
  7  3  1  0  0  0  0
  9 27  1  0  0  0  0
 10 17  1  0  0  0  0
 11 20  2  0  0  0  0
 12  8  1  0  0  0  0
 13  9  1  0  0  0  0
 13 20  1  0  0  0  0
 14  2  1  0  0  0  0
 15 12  1  0  0  0  0
 15  4  1  0  0  0  0
 16  8  1  0  0  0  0
 17 28  1  0  0  0  0
 17 25  1  0  0  0  0
 18  1  1  0  0  0  0
 18  4  1  0  0  0  0
 19  3  1  0  0  0  0
 19  5  1  0  0  0  0
 20 18  1  0  0  0  0
 22 10  1  0  0  0  0
 22 24  1  0  0  0  0
 23 21  1  0  0  0  0
 24 13  1  0  0  0  0
 25  9  1  0  0  0  0
 25 14  1  0  0  0  0
 26 21  1  0  0  0  0
 27  2  1  0  0  0  0
 27  1  1  0  0  0  0
 29 28  1  0  0  0  0
 30 33  1  0  0  0  0
 32 29  1  0  0  0  0
 32 31  1  0  0  0  0
 33 31  1  0  0  0  0
 34 30  1  0  0  0  0
 34 32  1  0  0  0  0
M  END
>  <MODEL>
8

>  <REMARK>
 VINA RESULT:      -7.8      2.823      4.467
  Name = 
  3 active torsions:
  status: ('A' for Active; 'I' for Inactive)
    1  A    between atoms: C_17  and  O_28
    2  A    between atoms: O_28  and  C_29
    3  A    between atoms: C_29  and  C_32
                            x       y       z     vdW  Elec       q    Type
                         _______ _______ _______ _____ _____    ______ ____

>  <TORSDO>
F 3

$$$$
=
 OpenBabel11122412223D

 34 41  0  0  1  0  0  0  0  0999 V2000
  187.7770  177.8740  140.2290 C   0  0  2  0  0  3  0  0  0  0  0  0
  185.8880  178.8230  138.8850 C   0  0  0  0  0  2  0  0  0  0  0  0
  191.2810  177.0610  145.7360 C   0  0  1  0  0  3  0  0  0  0  0  0
  189.4870  176.7910  141.6870 C   0  0  1  0  0  3  0  0  0  0  0  0
  189.5610  177.6550  144.1490 C   0  0  2  0  0  3  0  0  0  0  0  0
  189.8050  177.9310  146.7410 C   0  0  0  0  0  2  0  0  0  0  0  0
  191.1720  177.6840  146.9870 O   0  0  0  0  0  0  0  0  0  0  0  0
  191.8700  175.1900  144.2430 C   0  0  0  0  0  2  0  0  0  0  0  0
  185.8740  179.1890  141.2930 N   0  0  2  0  0  0  0  0  0  0  0  0
  183.1960  177.8770  142.6010 C   0  0  0  0  0  2  0  0  0  0  0  0
  188.0860  177.8500  143.9280 C   0  0  0  0  0  3  0  0  0  0  0  0
  190.5600  175.3250  143.4360 C   0  0  0  0  0  2  0  0  0  0  0  0
  186.1220  178.2500  142.4230 C   0  0  1  0  0  3  0  0  0  0  0  0
  184.5520  179.3780  139.2800 C   0  0  0  0  0  2  0  0  0  0  0  0
  190.2400  176.7860  143.0290 C   0  0  1  0  0  3  0  0  0  0  0  0
  191.7550  175.6250  145.7150 C   0  0  0  0  0  2  0  0  0  0  0  0
  183.6940  177.8800  141.1460 C   0  0  2  0  0  3  0  0  0  0  0  0
  188.5530  178.0020  141.5340 C   0  0  2  0  0  3  0  0  0  0  0  0
  189.8070  177.0560  145.5190 C   0  0  2  0  0  3  0  0  0  0  0  0
  187.6040  178.0770  142.6950 C   0  0  0  0  0  0  0  0  0  0  0  0
  189.7240  176.6930  139.1910 C   0  0  0  0  0  2  0  0  0  0  0  0
  183.8670  178.9240  143.4930 C   0  0  0  0  0  2  0  0  0  0  0  0
  190.4750  176.7530  140.5210 C   0  0  0  0  0  2  0  0  0  0  0  0
  185.3590  178.6670  143.6960 C   0  0  0  0  0  2  0  0  0  0  0  0
  184.4830  179.1660  140.7790 C   0  0  1  0  0  3  0  0  0  0  0  0
  188.7630  177.8740  139.0600 C   0  0  0  0  0  2  0  0  0  0  0  0
  186.7580  179.0150  140.1110 C   0  0  1  0  0  3  0  0  0  0  0  0
  182.6010  177.6930  140.2940 O   0  0  0  0  0  0  0  0  0  0  0  0
  181.4930  178.1030  141.0390 C   0  0  0  0  0  2  0  0  0  0  0  0
  179.4250  180.6260  141.0340 O   0  0  0  0  0  0  0  0  0  0  0  0
  180.9820  179.8990  139.4180 C   0  0  0  0  0  2  0  0  0  0  0  0
  180.4360  178.6890  140.1170 C   0  0  2  0  0  3  0  0  0  0  0  0
  180.0570  181.0120  139.8450 C   0  0  0  0  0  2  0  0  0  0  0  0
  179.2930  179.2320  140.9420 C   0  0  0  0  0  2  0  0  0  0  0  0
  1 26  1  6  0  0  0
  1 18  1  0  0  0  0
  2 14  1  0  0  0  0
  2 27  1  0  0  0  0
  3 16  1  1  0  0  0
  3  7  1  0  0  0  0
  4 23  1  6  0  0  0
  4 15  1  0  0  0  0
  5 11  1  6  0  0  0
  5 19  1  0  0  0  0
  6  7  1  0  0  0  0
  8 16  1  0  0  0  0
  9 13  1  0  0  0  0
 10 22  1  0  0  0  0
 12  8  1  0  0  0  0
 13 20  1  0  0  0  0
 13 24  1  0  0  0  0
 14 25  1  0  0  0  0
 15 12  1  0  0  0  0
 15  5  1  0  0  0  0
 17 10  1  0  0  0  0
 18  4  1  0  0  0  0
 18 20  1  0  0  0  0
 19  3  1  0  0  0  0
 19  6  1  0  0  0  0
 20 11  2  0  0  0  0
 21 23  1  0  0  0  0
 22 24  1  0  0  0  0
 25 17  1  0  0  0  0
 25  9  1  0  0  0  0
 26 21  1  0  0  0  0
 27  1  1  0  0  0  0
 27  9  1  0  0  0  0
 28 29  1  0  0  0  0
 28 17  1  0  0  0  0
 31 33  1  0  0  0  0
 31 32  1  0  0  0  0
 32 34  1  0  0  0  0
 32 29  1  0  0  0  0
 33 30  1  0  0  0  0
 34 30  1  0  0  0  0
M  END
>  <MODEL>
9

>  <REMARK>
 VINA RESULT:      -7.5      3.623      8.230
  Name = 
  3 active torsions:
  status: ('A' for Active; 'I' for Inactive)
    1  A    between atoms: C_17  and  O_28
    2  A    between atoms: O_28  and  C_29
    3  A    between atoms: C_29  and  C_32
                            x       y       z     vdW  Elec       q    Type
                         _______ _______ _______ _____ _____    ______ ____

>  <TORSDO>
F 3

$$$$
