=
 OpenBabel11122410233D

 30 35  0  0  1  0  0  0  0  0999 V2000
  189.1700  177.5970  143.2180 C   0  0  1  0  0  3  0  0  0  0  0  0
  191.1030  176.7170  144.6460 C   0  0  0  0  0  0  0  0  0  0  0  0
  186.7160  178.0020  146.7780 C   0  0  0  0  0  2  0  0  0  0  0  0
  187.8690  178.4230  143.3010 C   0  0  1  0  0  3  0  0  0  0  0  0
  190.0510  178.2080  142.3050 O   0  0  0  0  0  0  0  0  0  0  0  0
  187.6610  178.6090  139.6660 O   0  0  0  0  0  0  0  0  0  0  0  0
  184.8420  178.0030  142.2290 C   0  0  1  0  0  3  0  0  0  0  0  0
  188.1100  178.3860  140.8230 C   0  0  0  0  0  0  0  0  0  0  0  0
  184.5420  177.9620  143.7050 C   0  0  2  0  0  3  0  0  0  0  0  0
  185.4910  178.3370  146.0070 C   0  0  0  0  0  0  0  0  0  0  0  0
  189.5590  177.9880  140.9910 C   0  0  2  0  0  3  0  0  0  0  0  0
  187.2490  178.4800  141.9740 N   0  0  0  0  0  0  0  0  0  0  0  0
  191.6390  176.3610  145.8880 C   0  0  0  0  0  3  0  0  0  0  0  0
  183.3970  178.9370  143.8320 C   0  0  0  0  0  2  0  0  0  0  0  0
  183.5080  178.3960  141.6330 C   0  0  0  0  0  2  0  0  0  0  0  0
  191.8490  176.4790  143.4990 O   0  0  0  0  0  1  0  0  0  0  0  0
  187.7380  178.1340  145.6730 C   0  0  2  0  0  3  0  0  0  0  0  0
  190.9070  176.5600  147.0590 C   0  0  0  0  0  3  0  0  0  0  0  0
  189.8210  177.2980  144.5690 C   0  0  0  0  0  0  0  0  0  0  0  0
  187.0120  177.7830  144.3880 C   0  0  1  0  0  3  0  0  0  0  0  0
  184.3830  178.5670  146.5590 O   0  0  0  0  0  0  0  0  0  0  0  0
  185.6650  178.3080  144.5850 N   0  0  0  0  0  0  0  0  0  0  0  0
  182.6650  178.9280  142.6320 O   0  0  0  0  0  0  0  0  0  0  0  0
  185.7680  180.2580  142.4150 O   0  0  0  0  0  1  0  0  0  0  0  0
  189.6250  177.1090  146.9980 C   0  0  0  0  0  3  0  0  0  0  0  0
  189.0660  177.4470  145.7610 C   0  0  0  0  0  0  0  0  0  0  0  0
  185.9040  179.0130  141.7900 C   0  0  2  0  0  3  0  0  0  0  0  0
  189.7950  176.5840  140.5260 C   0  0  0  0  0  3  0  0  0  0  0  0
  191.3260  176.1120  138.5520 O   0  0  0  0  0  0  0  0  0  0  0  0
  190.5810  176.3410  139.5130 C   0  0  0  0  0  0  0  0  0  0  0  0
  1  5  1  6  0  0  0
  1  4  1  0  0  0  0
  1 19  1  0  0  0  0
  2 13  1  0  0  0  0
  4 12  1  6  0  0  0
  4 20  1  0  0  0  0
  6  8  2  0  0  0  0
  7 15  1  6  0  0  0
  7  9  1  0  0  0  0
  8 11  1  0  0  0  0
  8 12  1  0  0  0  0
  9 14  1  6  0  0  0
  9 22  1  0  0  0  0
 10 21  2  0  0  0  0
 10  3  1  0  0  0  0
 11 28  1  1  0  0  0
 11  5  1  0  0  0  0
 13 18  2  0  0  0  0
 15 23  1  0  0  0  0
 16  2  1  0  0  0  0
 17 26  1  0  0  0  0
 17  3  1  1  0  0  0
 19  2  2  0  0  0  0
 19 26  1  0  0  0  0
 20 22  1  1  0  0  0
 20 17  1  0  0  0  0
 22 10  1  0  0  0  0
 23 14  1  0  0  0  0
 25 18  1  0  0  0  0
 26 25  2  0  0  0  0
 27 12  1  0  0  0  0
 27  7  1  0  0  0  0
 27 24  1  1  0  0  0
 29 30  2  0  0  0  0
 30 28  2  0  0  0  0
M  END
>  <MODEL>
1

>  <REMARK>
 VINA RESULT:     -10.9      0.000      0.000
  Name = 
  1 active torsions:
  status: ('A' for Active; 'I' for Inactive)
    1  A    between atoms: C_11  and  C_28
                            x       y       z     vdW  Elec       q    Type
                         _______ _______ _______ _____ _____    ______ ____

>  <TORSDO>
F 1

$$$$
=
 OpenBabel11122410233D

 30 35  0  0  1  0  0  0  0  0999 V2000
  186.5740  178.3040  142.6590 C   0  0  1  0  0  3  0  0  0  0  0  0
  187.1140  178.0530  145.1470 C   0  0  0  0  0  0  0  0  0  0  0  0
  182.3850  178.9250  143.6250 C   0  0  0  0  0  2  0  0  0  0  0  0
  185.5240  178.8920  141.6910 C   0  0  1  0  0  3  0  0  0  0  0  0
  187.8300  178.8800  142.3880 O   0  0  0  0  0  0  0  0  0  0  0  0
  187.7390  178.3660  138.8430 O   0  0  0  0  0  0  0  0  0  0  0  0
  183.9380  177.7610  139.1040 C   0  0  1  0  0  3  0  0  0  0  0  0
  187.3250  178.4410  140.0320 C   0  0  0  0  0  0  0  0  0  0  0  0
  182.7470  177.9410  140.0090 C   0  0  2  0  0  3  0  0  0  0  0  0
  181.9580  178.8930  142.2030 C   0  0  0  0  0  0  0  0  0  0  0  0
  188.3180  178.3400  141.1690 C   0  0  2  0  0  3  0  0  0  0  0  0
  185.9210  178.5940  140.3110 N   0  0  0  0  0  0  0  0  0  0  0  0
  186.7140  178.0310  146.4870 C   0  0  0  0  0  3  0  0  0  0  0  0
  181.7850  178.7080  139.1350 C   0  0  0  0  0  2  0  0  0  0  0  0
  183.3120  177.7990  137.7270 C   0  0  0  0  0  2  0  0  0  0  0  0
  188.4320  177.7410  144.8350 O   0  0  0  0  0  1  0  0  0  0  0  0
  183.8790  179.0270  143.4240 C   0  0  2  0  0  3  0  0  0  0  0  0
  185.3920  178.3120  146.8350 C   0  0  0  0  0  3  0  0  0  0  0  0
  186.1870  178.3770  144.1360 C   0  0  0  0  0  0  0  0  0  0  0  0
  184.1730  178.3240  142.1120 C   0  0  1  0  0  3  0  0  0  0  0  0
  180.7560  179.0250  141.8530 O   0  0  0  0  0  0  0  0  0  0  0  0
  183.0190  178.6340  141.2750 N   0  0  0  0  0  0  0  0  0  0  0  0
  182.0160  178.3510  137.7950 O   0  0  0  0  0  0  0  0  0  0  0  0
  184.4900  180.1370  139.2530 O   0  0  0  0  0  1  0  0  0  0  0  0
  184.4550  178.6080  145.8450 C   0  0  0  0  0  3  0  0  0  0  0  0
  184.8360  178.6100  144.4990 C   0  0  0  0  0  0  0  0  0  0  0  0
  185.0170  178.8420  139.1940 C   0  0  2  0  0  3  0  0  0  0  0  0
  188.8170  176.9370  141.3310 C   0  0  0  0  0  3  0  0  0  0  0  0
  190.9910  176.4690  142.5630 O   0  0  0  0  0  0  0  0  0  0  0  0
  189.9330  176.6960  141.9640 C   0  0  0  0  0  0  0  0  0  0  0  0
  1  5  1  1  0  0  0
  1 19  1  0  0  0  0
  2 13  1  0  0  0  0
  4 12  1  6  0  0  0
  4 20  1  0  0  0  0
  4  1  1  0  0  0  0
  6  8  2  0  0  0  0
  7 15  1  6  0  0  0
  7 27  1  0  0  0  0
  7  9  1  0  0  0  0
  8 12  1  0  0  0  0
  8 11  1  0  0  0  0
  9 14  1  6  0  0  0
  9 22  1  0  0  0  0
 10  3  1  0  0  0  0
 11 28  1  1  0  0  0
 11  5  1  0  0  0  0
 13 18  2  0  0  0  0
 15 23  1  0  0  0  0
 16  2  1  0  0  0  0
 17  3  1  1  0  0  0
 17 26  1  0  0  0  0
 19 26  1  0  0  0  0
 19  2  2  0  0  0  0
 20 22  1  6  0  0  0
 20 17  1  0  0  0  0
 21 10  2  0  0  0  0
 22 10  1  0  0  0  0
 23 14  1  0  0  0  0
 25 18  1  0  0  0  0
 26 25  2  0  0  0  0
 27 24  1  1  0  0  0
 27 12  1  0  0  0  0
 28 30  2  0  0  0  0
 30 29  2  0  0  0  0
M  END
>  <MODEL>
2

>  <REMARK>
 VINA RESULT:     -10.5      2.341      3.957
  Name = 
  1 active torsions:
  status: ('A' for Active; 'I' for Inactive)
    1  A    between atoms: C_11  and  C_28
                            x       y       z     vdW  Elec       q    Type
                         _______ _______ _______ _____ _____    ______ ____

>  <TORSDO>
F 1

$$$$
=
 OpenBabel11122410233D

 30 35  0  0  1  0  0  0  0  0999 V2000
  187.2360  178.1300  142.1660 C   0  0  1  0  0  3  0  0  0  0  0  0
  188.3060  177.7010  144.4500 C   0  0  0  0  0  0  0  0  0  0  0  0
  183.3690  178.6600  144.0700 C   0  0  0  0  0  2  0  0  0  0  0  0
  186.0060  178.7820  141.4970 C   0  0  1  0  0  3  0  0  0  0  0  0
  188.4080  178.7300  141.6680 O   0  0  0  0  0  0  0  0  0  0  0  0
  187.5360  178.4740  138.2020 O   0  0  0  0  0  0  0  0  0  0  0  0
  183.8790  177.8340  139.2470 C   0  0  1  0  0  3  0  0  0  0  0  0
  187.3950  178.4610  139.4550 C   0  0  0  0  0  0  0  0  0  0  0  0
  182.9170  177.9420  140.4020 C   0  0  2  0  0  3  0  0  0  0  0  0
  182.6390  178.7290  142.7780 C   0  0  0  0  0  0  0  0  0  0  0  0
  188.6110  178.2820  140.3360 C   0  0  2  0  0  3  0  0  0  0  0  0
  186.0870  178.5870  140.0460 N   0  0  0  0  0  0  0  0  0  0  0  0
  188.2090  177.5800  145.8400 C   0  0  0  0  0  3  0  0  0  0  0  0
  181.7960  178.7660  139.8180 C   0  0  0  0  0  2  0  0  0  0  0  0
  182.9660  177.9690  138.0470 C   0  0  0  0  0  2  0  0  0  0  0  0
  189.5190  177.4190  143.8350 O   0  0  0  0  0  1  0  0  0  0  0  0
  184.7830  178.7830  143.5540 C   0  0  2  0  0  3  0  0  0  0  0  0
  186.9990  177.8290  146.4890 C   0  0  0  0  0  3  0  0  0  0  0  0
  187.1840  178.0940  143.6930 C   0  0  0  0  0  0  0  0  0  0  0  0
  184.7740  178.1790  142.1630 C   0  0  1  0  0  3  0  0  0  0  0  0
  181.3910  178.8810  142.7110 O   0  0  0  0  0  0  0  0  0  0  0  0
  183.4680  178.5430  141.6240 N   0  0  0  0  0  0  0  0  0  0  0  0
  181.7230  178.5090  138.4380 O   0  0  0  0  0  0  0  0  0  0  0  0
  184.4770  180.1960  139.4410 O   0  0  0  0  0  1  0  0  0  0  0  0
  185.8710  178.1920  145.7530 C   0  0  0  0  0  3  0  0  0  0  0  0
  185.9470  178.2940  144.3600 C   0  0  0  0  0  0  0  0  0  0  0  0
  184.9640  178.9110  139.1760 C   0  0  2  0  0  3  0  0  0  0  0  0
  189.1180  176.8730  140.2840 C   0  0  0  0  0  3  0  0  0  0  0  0
  191.1990  176.2920  138.9460 O   0  0  0  0  0  0  0  0  0  0  0  0
  190.1860  176.5740  139.5970 C   0  0  0  0  0  0  0  0  0  0  0  0
  1  5  1  1  0  0  0
  1 19  1  0  0  0  0
  2 13  1  0  0  0  0
  4 12  1  6  0  0  0
  4 20  1  0  0  0  0
  4  1  1  0  0  0  0
  6  8  2  0  0  0  0
  7 15  1  6  0  0  0
  7  9  1  0  0  0  0
  8 12  1  0  0  0  0
  8 11  1  0  0  0  0
  9 14  1  6  0  0  0
  9 22  1  0  0  0  0
 10  3  1  0  0  0  0
 11 28  1  1  0  0  0
 11  5  1  0  0  0  0
 13 18  2  0  0  0  0
 15 23  1  0  0  0  0
 16  2  1  0  0  0  0
 17  3  1  1  0  0  0
 17 26  1  0  0  0  0
 19 26  1  0  0  0  0
 19  2  2  0  0  0  0
 20 22  1  6  0  0  0
 20 17  1  0  0  0  0
 21 10  2  0  0  0  0
 22 10  1  0  0  0  0
 23 14  1  0  0  0  0
 25 18  1  0  0  0  0
 26 25  2  0  0  0  0
 27  7  1  0  0  0  0
 27 24  1  1  0  0  0
 27 12  1  0  0  0  0
 29 30  2  0  0  0  0
 30 28  2  0  0  0  0
M  END
>  <MODEL>
3

>  <REMARK>
 VINA RESULT:     -10.4      1.959      3.173
  Name = 
  1 active torsions:
  status: ('A' for Active; 'I' for Inactive)
    1  A    between atoms: C_11  and  C_28
                            x       y       z     vdW  Elec       q    Type
                         _______ _______ _______ _____ _____    ______ ____

>  <TORSDO>
F 1

$$$$
=
 OpenBabel11122410233D

 30 35  0  0  1  0  0  0  0  0999 V2000
  188.4360  177.7960  142.4650 C   0  0  1  0  0  3  0  0  0  0  0  0
  187.3770  177.7680  144.7940 C   0  0  0  0  0  0  0  0  0  0  0  0
  184.6150  178.9250  140.7350 C   0  0  0  0  0  2  0  0  0  0  0  0
  188.2480  178.3740  141.0450 C   0  0  1  0  0  3  0  0  0  0  0  0
  189.6790  178.2140  142.9760 O   0  0  0  0  0  0  0  0  0  0  0  0
  191.6050  177.3260  140.0880 O   0  0  0  0  0  0  0  0  0  0  0  0
  188.3310  177.1260  138.0580 C   0  0  1  0  0  3  0  0  0  0  0  0
  190.5910  177.5710  140.7960 C   0  0  0  0  0  0  0  0  0  0  0  0
  186.8770  177.5190  138.0730 C   0  0  2  0  0  3  0  0  0  0  0  0
  185.1010  178.7790  139.3380 C   0  0  0  0  0  0  0  0  0  0  0  0
  190.7050  177.4980  142.3020 C   0  0  2  0  0  3  0  0  0  0  0  0
  189.3280  177.8900  140.1810 N   0  0  0  0  0  0  0  0  0  0  0  0
  186.2710  177.9320  145.6330 C   0  0  0  0  0  3  0  0  0  0  0  0
  186.7300  178.2760  136.7760 C   0  0  0  0  0  2  0  0  0  0  0  0
  188.6420  177.0740  136.5780 C   0  0  0  0  0  2  0  0  0  0  0  0
  188.5660  177.2970  145.3350 O   0  0  0  0  0  1  0  0  0  0  0  0
  185.9400  178.8570  141.4570 C   0  0  2  0  0  3  0  0  0  0  0  0
  185.0520  178.3770  145.1200 C   0  0  0  0  0  3  0  0  0  0  0  0
  187.2740  178.0690  143.4200 C   0  0  0  0  0  0  0  0  0  0  0  0
  186.8410  177.9900  140.5990 C   0  0  1  0  0  3  0  0  0  0  0  0
  184.3640  178.9880  138.3390 O   0  0  0  0  0  0  0  0  0  0  0  0
  186.4530  178.3170  139.2310 N   0  0  0  0  0  0  0  0  0  0  0  0
  187.6460  177.7540  135.8460 O   0  0  0  0  0  0  0  0  0  0  0  0
  189.0260  179.4390  138.4330 O   0  0  0  0  0  1  0  0  0  0  0  0
  184.9250  178.6530  143.7580 C   0  0  0  0  0  3  0  0  0  0  0  0
  186.0160  178.4700  142.9020 C   0  0  0  0  0  0  0  0  0  0  0  0
  189.2950  178.1010  138.7390 C   0  0  2  0  0  3  0  0  0  0  0  0
  190.8070  176.0800  142.7720 C   0  0  0  0  0  3  0  0  0  0  0  0
  192.0280  175.5130  144.9280 O   0  0  0  0  0  0  0  0  0  0  0  0
  191.4340  175.7890  143.8790 C   0  0  0  0  0  0  0  0  0  0  0  0
  1  5  1  1  0  0  0
  1 19  1  0  0  0  0
  2 16  1  0  0  0  0
  2 13  1  0  0  0  0
  4 12  1  6  0  0  0
  4  1  1  0  0  0  0
  6  8  2  0  0  0  0
  7 15  1  6  0  0  0
  7  9  1  0  0  0  0
  7 27  1  0  0  0  0
  8 11  1  0  0  0  0
  9 14  1  6  0  0  0
  9 22  1  0  0  0  0
 10  3  1  0  0  0  0
 11 28  1  1  0  0  0
 11  5  1  0  0  0  0
 12  8  1  0  0  0  0
 17  3  1  6  0  0  0
 17 26  1  0  0  0  0
 18 13  2  0  0  0  0
 19  2  2  0  0  0  0
 20 22  1  6  0  0  0
 20  4  1  0  0  0  0
 20 17  1  0  0  0  0
 21 10  2  0  0  0  0
 22 10  1  0  0  0  0
 23 15  1  0  0  0  0
 23 14  1  0  0  0  0
 25 18  1  0  0  0  0
 26 19  1  0  0  0  0
 26 25  2  0  0  0  0
 27 24  1  1  0  0  0
 27 12  1  0  0  0  0
 28 30  2  0  0  0  0
 30 29  2  0  0  0  0
M  END
>  <MODEL>
4

>  <REMARK>
 VINA RESULT:      -9.9      2.353      5.157
  Name = 
  1 active torsions:
  status: ('A' for Active; 'I' for Inactive)
    1  A    between atoms: C_11  and  C_28
                            x       y       z     vdW  Elec       q    Type
                         _______ _______ _______ _____ _____    ______ ____

>  <TORSDO>
F 1

$$$$
=
 OpenBabel11122410233D

 30 35  0  0  1  0  0  0  0  0999 V2000
  187.2870  178.0250  143.3940 C   0  0  1  0  0  3  0  0  0  0  0  0
  188.1260  177.7890  145.8000 C   0  0  0  0  0  0  0  0  0  0  0  0
  183.3280  179.0340  144.8670 C   0  0  0  0  0  2  0  0  0  0  0  0
  186.1730  178.6790  142.5490 C   0  0  1  0  0  3  0  0  0  0  0  0
  188.5410  178.4820  142.9450 O   0  0  0  0  0  0  0  0  0  0  0  0
  187.9440  177.8910  139.4610 O   0  0  0  0  0  0  0  0  0  0  0  0
  184.1730  177.6270  140.2290 C   0  0  1  0  0  3  0  0  0  0  0  0
  187.6980  178.0310  140.6900 C   0  0  0  0  0  0  0  0  0  0  0  0
  183.1300  177.9320  141.2720 C   0  0  2  0  0  3  0  0  0  0  0  0
  182.7170  179.0040  143.5130 C   0  0  0  0  0  0  0  0  0  0  0  0
  188.8180  177.8710  141.6930 C   0  0  2  0  0  3  0  0  0  0  0  0
  186.3590  178.3130  141.1410 N   0  0  0  0  0  0  0  0  0  0  0  0
  187.9030  177.8350  147.1800 C   0  0  0  0  0  3  0  0  0  0  0  0
  182.1300  178.7590  140.5020 C   0  0  0  0  0  2  0  0  0  0  0  0
  183.3780  177.6860  138.9420 C   0  0  0  0  0  2  0  0  0  0  0  0
  189.3600  177.3560  145.3330 O   0  0  0  0  0  1  0  0  0  0  0  0
  184.7860  178.9990  144.4720 C   0  0  2  0  0  3  0  0  0  0  0  0
  186.6670  178.2400  147.6850 C   0  0  0  0  0  3  0  0  0  0  0  0
  187.1050  178.1690  144.9050 C   0  0  0  0  0  0  0  0  0  0  0  0
  184.8460  178.2420  143.1600 C   0  0  1  0  0  3  0  0  0  0  0  0
  181.4940  179.2320  143.3160 O   0  0  0  0  0  0  0  0  0  0  0  0
  183.6220  178.6300  142.4670 N   0  0  0  0  0  0  0  0  0  0  0  0
  182.1520  178.3500  139.1560 O   0  0  0  0  0  0  0  0  0  0  0  0
  184.9370  179.9490  140.2200 O   0  0  0  0  0  1  0  0  0  0  0  0
  185.6370  178.5920  146.8130 C   0  0  0  0  0  3  0  0  0  0  0  0
  185.8370  178.5270  145.4300 C   0  0  0  0  0  0  0  0  0  0  0  0
  185.3410  178.6120  140.1410 C   0  0  2  0  0  3  0  0  0  0  0  0
  189.2160  176.4350  141.8400 C   0  0  0  0  0  3  0  0  0  0  0  0
  191.2470  175.7860  143.2240 O   0  0  0  0  0  0  0  0  0  0  0  0
  190.2580  176.1010  142.5500 C   0  0  0  0  0  0  0  0  0  0  0  0
  1  5  1  6  0  0  0
  1 19  1  0  0  0  0
  2 13  1  0  0  0  0
  4 12  1  6  0  0  0
  4 20  1  0  0  0  0
  4  1  1  0  0  0  0
  6  8  2  0  0  0  0
  7 15  1  6  0  0  0
  7  9  1  0  0  0  0
  8 12  1  0  0  0  0
  8 11  1  0  0  0  0
  9 14  1  6  0  0  0
  9 22  1  0  0  0  0
 10  3  1  0  0  0  0
 11 28  1  1  0  0  0
 11  5  1  0  0  0  0
 13 18  2  0  0  0  0
 15 23  1  0  0  0  0
 16  2  1  0  0  0  0
 17  3  1  1  0  0  0
 17 26  1  0  0  0  0
 19 26  1  0  0  0  0
 19  2  2  0  0  0  0
 20 22  1  6  0  0  0
 20 17  1  0  0  0  0
 21 10  2  0  0  0  0
 22 10  1  0  0  0  0
 23 14  1  0  0  0  0
 25 18  1  0  0  0  0
 26 25  2  0  0  0  0
 27 24  1  1  0  0  0
 27  7  1  0  0  0  0
 27 12  1  0  0  0  0
 28 30  2  0  0  0  0
 30 29  2  0  0  0  0
M  END
>  <MODEL>
5

>  <REMARK>
 VINA RESULT:      -9.8      1.952      3.034
  Name = 
  1 active torsions:
  status: ('A' for Active; 'I' for Inactive)
    1  A    between atoms: C_11  and  C_28
                            x       y       z     vdW  Elec       q    Type
                         _______ _______ _______ _____ _____    ______ ____

>  <TORSDO>
F 1

$$$$
=
 OpenBabel11122410233D

 30 35  0  0  1  0  0  0  0  0999 V2000
  187.3300  178.0020  141.2620 C   0  0  1  0  0  3  0  0  0  0  0  0
  185.0060  178.7580  140.5050 C   0  0  0  0  0  0  0  0  0  0  0  0
  185.9680  177.9260  145.3860 C   0  0  0  0  0  2  0  0  0  0  0  0
  188.0660  177.2940  142.4200 C   0  0  1  0  0  3  0  0  0  0  0  0
  187.5460  177.2880  140.0680 O   0  0  0  0  0  0  0  0  0  0  0  0
  191.1010  177.0070  140.4210 O   0  0  0  0  0  0  0  0  0  0  0  0
  190.7290  177.9380  144.1460 C   0  0  1  0  0  3  0  0  0  0  0  0
  189.9010  177.2280  140.7390 C   0  0  0  0  0  0  0  0  0  0  0  0
  189.7290  178.0530  145.2670 C   0  0  2  0  0  3  0  0  0  0  0  0
  187.3280  177.6740  145.9260 C   0  0  0  0  0  0  0  0  0  0  0  0
  188.8860  177.5050  139.6520 C   0  0  2  0  0  3  0  0  0  0  0  0
  189.5000  177.2470  142.1220 N   0  0  0  0  0  0  0  0  0  0  0  0
  183.6820  179.1070  140.7920 C   0  0  0  0  0  3  0  0  0  0  0  0
  190.3390  177.1850  146.3400 C   0  0  0  0  0  2  0  0  0  0  0  0
  192.0170  177.6410  144.8840 C   0  0  0  0  0  2  0  0  0  0  0  0
  185.4680  178.8930  139.2020 O   0  0  0  0  0  1  0  0  0  0  0  0
  186.2410  177.6710  143.9220 C   0  0  2  0  0  3  0  0  0  0  0  0
  183.1910  179.0100  142.0940 C   0  0  0  0  0  3  0  0  0  0  0  0
  185.8520  178.2870  141.5290 C   0  0  0  0  0  0  0  0  0  0  0  0
  187.6950  178.0400  143.6970 C   0  0  1  0  0  3  0  0  0  0  0  0
  187.5580  177.5570  147.1590 O   0  0  0  0  0  0  0  0  0  0  0  0
  188.3600  177.6400  144.9320 N   0  0  0  0  0  0  0  0  0  0  0  0
  191.7380  177.2170  146.2000 O   0  0  0  0  0  0  0  0  0  0  0  0
  190.0820  175.6190  143.7220 O   0  0  0  0  0  1  0  0  0  0  0  0
  184.0230  178.5720  143.1250 C   0  0  0  0  0  3  0  0  0  0  0  0
  185.3560  178.2430  142.8570 C   0  0  0  0  0  0  0  0  0  0  0  0
  190.4690  176.8260  143.1270 C   0  0  2  0  0  3  0  0  0  0  0  0
  189.0810  178.8680  139.0600 C   0  0  0  0  0  3  0  0  0  0  0  0
  189.0760  179.2010  136.5400 O   0  0  0  0  0  0  0  0  0  0  0  0
  189.0780  179.0390  137.7670 C   0  0  0  0  0  0  0  0  0  0  0  0
  1  5  1  6  0  0  0
  1 19  1  0  0  0  0
  1  4  1  0  0  0  0
  2 13  2  0  0  0  0
  2 19  1  0  0  0  0
  3 10  1  0  0  0  0
  4 12  1  6  0  0  0
  4 20  1  0  0  0  0
  6  8  2  0  0  0  0
  7 15  1  1  0  0  0
  7  9  1  0  0  0  0
  8 12  1  0  0  0  0
  9 14  1  1  0  0  0
 10 21  2  0  0  0  0
 11 28  1  1  0  0  0
 11  5  1  0  0  0  0
 11  8  1  0  0  0  0
 12 27  1  0  0  0  0
 13 18  1  0  0  0  0
 15 23  1  0  0  0  0
 16  2  1  0  0  0  0
 17  3  1  1  0  0  0
 18 25  2  0  0  0  0
 19 26  2  0  0  0  0
 20 17  1  0  0  0  0
 20 22  1  1  0  0  0
 22  9  1  0  0  0  0
 22 10  1  0  0  0  0
 23 14  1  0  0  0  0
 26 25  1  0  0  0  0
 26 17  1  0  0  0  0
 27 24  1  1  0  0  0
 27  7  1  0  0  0  0
 29 30  2  0  0  0  0
 30 28  2  0  0  0  0
M  END
>  <MODEL>
6

>  <REMARK>
 VINA RESULT:      -9.3      1.812      5.493
  Name = 
  1 active torsions:
  status: ('A' for Active; 'I' for Inactive)
    1  A    between atoms: C_11  and  C_28
                            x       y       z     vdW  Elec       q    Type
                         _______ _______ _______ _____ _____    ______ ____

>  <TORSDO>
F 1

$$$$
=
 OpenBabel11122410233D

 30 35  0  0  1  0  0  0  0  0999 V2000
  187.0630  177.9950  140.0250 C   0  0  1  0  0  3  0  0  0  0  0  0
  189.0150  177.0490  138.6680 C   0  0  0  0  0  0  0  0  0  0  0  0
  189.4320  177.6950  143.6530 C   0  0  0  0  0  2  0  0  0  0  0  0
  186.7320  178.7080  141.3540 C   0  0  1  0  0  3  0  0  0  0  0  0
  186.6310  178.7940  138.9490 O   0  0  0  0  0  0  0  0  0  0  0  0
  183.3400  179.4170  140.2220 O   0  0  0  0  0  0  0  0  0  0  0  0
  184.5420  178.2420  143.6940 C   0  0  1  0  0  3  0  0  0  0  0  0
  184.5480  179.0560  140.2100 C   0  0  0  0  0  0  0  0  0  0  0  0
  185.7760  177.9610  144.5120 C   0  0  2  0  0  3  0  0  0  0  0  0
  188.2920  178.0550  144.5360 C   0  0  0  0  0  0  0  0  0  0  0  0
  185.2130  178.7390  138.8900 C   0  0  2  0  0  3  0  0  0  0  0  0
  185.2840  178.9180  141.4410 N   0  0  0  0  0  0  0  0  0  0  0  0
  190.3190  176.5500  138.5910 C   0  0  0  0  0  3  0  0  0  0  0  0
  185.5630  178.8250  145.7320 C   0  0  0  0  0  2  0  0  0  0  0  0
  183.5280  178.6260  144.7500 C   0  0  0  0  0  2  0  0  0  0  0  0
  188.2220  177.0370  137.5270 O   0  0  0  0  0  1  0  0  0  0  0  0
  188.8250  178.0600  142.3180 C   0  0  2  0  0  3  0  0  0  0  0  0
  191.1340  176.5220  139.7220 C   0  0  0  0  0  3  0  0  0  0  0  0
  188.5170  177.5450  139.8900 C   0  0  0  0  0  0  0  0  0  0  0  0
  187.3300  177.8550  142.4690 C   0  0  1  0  0  3  0  0  0  0  0  0
  188.4000  178.1230  145.7880 O   0  0  0  0  0  0  0  0  0  0  0  0
  187.0520  178.2500  143.8450 N   0  0  0  0  0  0  0  0  0  0  0  0
  184.1810  178.9440  145.9600 O   0  0  0  0  0  0  0  0  0  0  0  0
  185.3190  180.5030  143.1830 O   0  0  0  0  0  1  0  0  0  0  0  0
  190.6480  176.9830  140.9460 C   0  0  0  0  0  3  0  0  0  0  0  0
  189.3380  177.4620  141.0440 C   0  0  0  0  0  0  0  0  0  0  0  0
  184.6590  179.3780  142.6750 C   0  0  2  0  0  3  0  0  0  0  0  0
  184.7210  177.4400  138.3300 C   0  0  0  0  0  3  0  0  0  0  0  0
  184.8220  176.9810  135.8320 O   0  0  0  0  0  0  0  0  0  0  0  0
  184.7730  177.2040  137.0480 C   0  0  0  0  0  0  0  0  0  0  0  0
  1  5  1  6  0  0  0
  1  4  1  0  0  0  0
  2 19  1  0  0  0  0
  3 10  1  0  0  0  0
  4 12  1  1  0  0  0
  4 20  1  0  0  0  0
  7  9  1  0  0  0  0
  7 15  1  1  0  0  0
  8  6  2  0  0  0  0
  8 12  1  0  0  0  0
  9 14  1  1  0  0  0
 10 21  2  0  0  0  0
 11 28  1  1  0  0  0
 11  5  1  0  0  0  0
 11  8  1  0  0  0  0
 12 27  1  0  0  0  0
 13  2  2  0  0  0  0
 13 18  1  0  0  0  0
 14 23  1  0  0  0  0
 15 23  1  0  0  0  0
 16  2  1  0  0  0  0
 17 20  1  0  0  0  0
 17  3  1  1  0  0  0
 18 25  2  0  0  0  0
 19  1  1  0  0  0  0
 19 26  2  0  0  0  0
 20 22  1  1  0  0  0
 22  9  1  0  0  0  0
 22 10  1  0  0  0  0
 25 26  1  0  0  0  0
 26 17  1  0  0  0  0
 27 24  1  1  0  0  0
 27  7  1  0  0  0  0
 29 30  2  0  0  0  0
 30 28  2  0  0  0  0
M  END
>  <MODEL>
7

>  <REMARK>
 VINA RESULT:      -8.5      2.115      4.513
  Name = 
  1 active torsions:
  status: ('A' for Active; 'I' for Inactive)
    1  A    between atoms: C_11  and  C_28
                            x       y       z     vdW  Elec       q    Type
                         _______ _______ _______ _____ _____    ______ ____

>  <TORSDO>
F 1

$$$$
=
 OpenBabel11122410233D

 30 35  0  0  1  0  0  0  0  0999 V2000
  188.7600  177.4380  142.9990 C   0  0  1  0  0  3  0  0  0  0  0  0
  187.8190  177.9080  140.6670 C   0  0  0  0  0  0  0  0  0  0  0  0
  184.9800  178.6390  144.7720 C   0  0  0  0  0  2  0  0  0  0  0  0
  188.3290  177.1290  144.4500 C   0  0  1  0  0  3  0  0  0  0  0  0
  189.5690  176.3890  142.5210 O   0  0  0  0  0  0  0  0  0  0  0  0
  191.7480  176.2540  145.3630 O   0  0  0  0  0  0  0  0  0  0  0  0
  189.1520  178.2940  147.3570 C   0  0  1  0  0  3  0  0  0  0  0  0
  190.7420  176.5560  144.6650 C   0  0  0  0  0  0  0  0  0  0  0  0
  187.7150  178.7460  147.3580 C   0  0  2  0  0  3  0  0  0  0  0  0
  185.5060  178.5750  146.1600 C   0  0  0  0  0  0  0  0  0  0  0  0
  190.8360  176.4750  143.1580 C   0  0  2  0  0  3  0  0  0  0  0  0
  189.5230  177.0010  145.2900 N   0  0  0  0  0  0  0  0  0  0  0  0
  186.7760  178.3200  139.8320 C   0  0  0  0  0  3  0  0  0  0  0  0
  187.2190  178.2570  148.6970 C   0  0  0  0  0  2  0  0  0  0  0  0
  189.4820  178.2490  148.8340 C   0  0  0  0  0  2  0  0  0  0  0  0
  189.0600  177.6340  140.1050 O   0  0  0  0  0  1  0  0  0  0  0  0
  186.1130  177.9430  144.0540 C   0  0  2  0  0  3  0  0  0  0  0  0
  185.5240  178.6300  140.3640 C   0  0  0  0  0  3  0  0  0  0  0  0
  187.6080  177.7830  142.0550 C   0  0  0  0  0  0  0  0  0  0  0  0
  187.3620  178.2330  144.8640 C   0  0  1  0  0  3  0  0  0  0  0  0
  184.8000  178.8490  147.1650 O   0  0  0  0  0  0  0  0  0  0  0  0
  186.8970  178.2410  146.2470 N   0  0  0  0  0  0  0  0  0  0  0  0
  188.2980  178.2530  149.5990 O   0  0  0  0  0  0  0  0  0  0  0  0
  188.4830  175.9540  147.1250 O   0  0  0  0  0  1  0  0  0  0  0  0
  185.3060  178.5390  141.7390 C   0  0  0  0  0  3  0  0  0  0  0  0
  186.3460  178.1510  142.5890 C   0  0  0  0  0  0  0  0  0  0  0  0
  189.4220  176.9180  146.7420 C   0  0  2  0  0  3  0  0  0  0  0  0
  191.6730  177.5870  142.6040 C   0  0  0  0  0  3  0  0  0  0  0  0
  192.5280  177.5000  140.2120 O   0  0  0  0  0  0  0  0  0  0  0  0
  192.1120  177.5430  141.3760 C   0  0  0  0  0  0  0  0  0  0  0  0
  1 19  1  6  0  0  0
  1  4  1  0  0  0  0
  2 19  1  0  0  0  0
  3 10  1  0  0  0  0
  4 20  1  0  0  0  0
  4 12  1  1  0  0  0
  5  1  1  0  0  0  0
  5 11  1  0  0  0  0
  7  9  1  0  0  0  0
  7 15  1  1  0  0  0
  8 12  1  0  0  0  0
  8  6  2  0  0  0  0
  9 14  1  1  0  0  0
 10 22  1  0  0  0  0
 10 21  2  0  0  0  0
 11 28  1  6  0  0  0
 11  8  1  0  0  0  0
 12 27  1  0  0  0  0
 13 18  1  0  0  0  0
 13  2  2  0  0  0  0
 14 23  1  0  0  0  0
 15 23  1  0  0  0  0
 16  2  1  0  0  0  0
 17  3  1  1  0  0  0
 17 20  1  0  0  0  0
 18 25  2  0  0  0  0
 19 26  2  0  0  0  0
 20 22  1  1  0  0  0
 22  9  1  0  0  0  0
 25 26  1  0  0  0  0
 26 17  1  0  0  0  0
 27 24  1  6  0  0  0
 27  7  1  0  0  0  0
 29 30  2  0  0  0  0
 30 28  2  0  0  0  0
M  END
>  <MODEL>
8

>  <REMARK>
 VINA RESULT:      -8.4      2.077      5.126
  Name = 
  1 active torsions:
  status: ('A' for Active; 'I' for Inactive)
    1  A    between atoms: C_11  and  C_28
                            x       y       z     vdW  Elec       q    Type
                         _______ _______ _______ _____ _____    ______ ____

>  <TORSDO>
F 1

$$$$
=
 OpenBabel11122410233D

 30 35  0  0  1  0  0  0  0  0999 V2000
  189.1340  177.4970  142.1260 C   0  0  1  0  0  3  0  0  0  0  0  0
  189.8150  177.7410  139.6710 C   0  0  0  0  0  0  0  0  0  0  0  0
  185.0560  178.5920  141.1100 C   0  0  0  0  0  2  0  0  0  0  0  0
  187.9080  177.2680  143.0360 C   0  0  1  0  0  3  0  0  0  0  0  0
  190.0710  176.4680  142.3400 O   0  0  0  0  0  0  0  0  0  0  0  0
  190.0580  176.6680  145.9180 O   0  0  0  0  0  0  0  0  0  0  0  0
  186.7760  178.6850  145.7180 C   0  0  1  0  0  3  0  0  0  0  0  0
  189.6880  176.8580  144.7270 C   0  0  0  0  0  0  0  0  0  0  0  0
  185.6370  179.0480  144.8020 C   0  0  2  0  0  3  0  0  0  0  0  0
  184.6230  178.6590  142.5290 C   0  0  0  0  0  0  0  0  0  0  0  0
  190.6840  176.6750  143.6040 C   0  0  2  0  0  3  0  0  0  0  0  0
  188.3390  177.2720  144.4360 N   0  0  0  0  0  0  0  0  0  0  0  0
  189.4990  178.0290  138.3400 C   0  0  0  0  0  3  0  0  0  0  0  0
  184.4280  178.6280  145.6010 C   0  0  0  0  0  2  0  0  0  0  0  0
  186.1350  178.7660  147.0870 C   0  0  0  0  0  2  0  0  0  0  0  0
  191.1410  177.5030  140.0100 O   0  0  0  0  0  1  0  0  0  0  0  0
  186.3940  177.9160  141.2990 C   0  0  2  0  0  3  0  0  0  0  0  0
  188.1810  178.3000  137.9680 C   0  0  0  0  0  3  0  0  0  0  0  0
  188.8000  177.7040  140.6490 C   0  0  0  0  0  0  0  0  0  0  0  0
  186.8850  178.3380  142.6710 C   0  0  1  0  0  3  0  0  0  0  0  0
  183.4490  178.9620  142.8670 O   0  0  0  0  0  0  0  0  0  0  0  0
  185.6710  178.4170  143.4760 N   0  0  0  0  0  0  0  0  0  0  0  0
  184.7290  178.7530  146.9690 O   0  0  0  0  0  0  0  0  0  0  0  0
  186.3980  176.2980  145.3470 O   0  0  0  0  0  1  0  0  0  0  0  0
  187.1680  178.2950  138.9280 C   0  0  0  0  0  3  0  0  0  0  0  0
  187.4740  178.0320  140.2670 C   0  0  0  0  0  0  0  0  0  0  0  0
  187.3710  177.2880  145.5260 C   0  0  2  0  0  3  0  0  0  0  0  0
  191.6800  177.7930  143.5730 C   0  0  0  0  0  3  0  0  0  0  0  0
  191.0350  180.1280  144.3430 O   0  0  0  0  0  0  0  0  0  0  0  0
  191.3490  178.9920  143.9680 C   0  0  0  0  0  0  0  0  0  0  0  0
  1 19  1  6  0  0  0
  1  5  1  0  0  0  0
  1  4  1  0  0  0  0
  2 16  1  0  0  0  0
  2 19  1  0  0  0  0
  3 10  1  0  0  0  0
  4 12  1  1  0  0  0
  5 11  1  0  0  0  0
  7 15  1  1  0  0  0
  8  6  2  0  0  0  0
  9 14  1  1  0  0  0
  9  7  1  0  0  0  0
 10 21  2  0  0  0  0
 10 22  1  0  0  0  0
 11 28  1  6  0  0  0
 11  8  1  0  0  0  0
 12  8  1  0  0  0  0
 12 27  1  0  0  0  0
 13  2  2  0  0  0  0
 14 23  1  0  0  0  0
 17  3  1  6  0  0  0
 17 20  1  0  0  0  0
 18 13  1  0  0  0  0
 18 25  2  0  0  0  0
 20  4  1  0  0  0  0
 20 22  1  1  0  0  0
 22  9  1  0  0  0  0
 23 15  1  0  0  0  0
 25 26  1  0  0  0  0
 26 19  2  0  0  0  0
 26 17  1  0  0  0  0
 27 24  1  6  0  0  0
 27  7  1  0  0  0  0
 28 30  2  0  0  0  0
 30 29  2  0  0  0  0
M  END
>  <MODEL>
9

>  <REMARK>
 VINA RESULT:      -8.3      1.746      4.904
  Name = 
  1 active torsions:
  status: ('A' for Active; 'I' for Inactive)
    1  A    between atoms: C_11  and  C_28
                            x       y       z     vdW  Elec       q    Type
                         _______ _______ _______ _____ _____    ______ ____

>  <TORSDO>
F 1

$$$$
