=
 OpenBabel11122411073D

 31 35  0  0  0  0  0  0  0  0999 V2000
  184.7160  178.8480  144.7270 C   0  0  0  0  0  0  0  0  0  0  0  0
  188.1780  177.5780  143.9480 C   0  0  0  0  0  0  0  0  0  0  0  0
  188.8610  177.4470  145.1990 C   0  0  0  0  0  0  0  0  0  0  0  0
  188.9590  177.6210  147.6360 C   0  0  0  0  0  0  0  0  0  0  0  0
  186.8290  178.0350  143.8040 C   0  0  0  0  0  0  0  0  0  0  0  0
  184.1710  178.9280  143.4470 C   0  0  0  0  0  3  0  0  0  0  0  0
  188.2640  177.7600  146.4340 C   0  0  0  0  0  3  0  0  0  0  0  0
  188.3050  177.3260  141.4990 C   0  0  0  0  0  0  0  0  0  0  0  0
  183.9530  179.2060  145.8300 O   0  0  0  0  0  1  0  0  0  0  0  0
  190.8370  176.6610  144.0290 C   0  0  0  0  0  3  0  0  0  0  0  0
  188.2960  177.9600  148.9220 C   0  0  0  0  0  1  0  0  0  0  0  0
  186.9900  177.7740  141.3870 C   0  0  0  0  0  3  0  0  0  0  0  0
  188.8990  177.2270  142.7670 C   0  0  0  0  0  0  0  0  0  0  0  0
  186.0290  178.4060  144.9010 C   0  0  0  0  0  3  0  0  0  0  0  0
  190.2770  177.1620  147.6310 C   0  0  0  0  0  3  0  0  0  0  0  0
  186.2550  178.1250  142.5100 C   0  0  0  0  0  0  0  0  0  0  0  0
  184.9400  178.5670  142.3410 C   0  0  0  0  0  3  0  0  0  0  0  0
  190.1840  176.7880  142.8510 N   0  0  0  0  0  0  0  0  0  0  0  0
  190.2000  176.9840  145.2170 C   0  0  0  0  0  0  0  0  0  0  0  0
  190.8960  176.8440  146.4210 C   0  0  0  0  0  3  0  0  0  0  0  0
  188.8990  178.9580  139.1220 O   0  0  0  0  0  0  0  0  0  0  0  0
  189.3430  177.7800  139.1860 C   0  0  0  0  0  0  0  0  0  0  0  0
  189.0670  176.9630  140.3350 N   0  0  0  0  0  2  0  0  0  0  0  0
  191.7700  176.1540  136.0370 C   0  0  0  0  0  0  0  0  0  0  0  0
  191.4650  176.8010  138.3460 C   0  0  0  0  0  3  0  0  0  0  0  0
  188.3670  177.5030  136.4290 O   0  0  0  0  0  1  0  0  0  0  0  0
  192.5670  175.6260  135.0310 O   0  0  0  0  0  1  0  0  0  0  0  0
  192.2680  176.2700  137.3340 C   0  0  0  0  0  3  0  0  0  0  0  0
  189.6570  177.1020  136.7580 C   0  0  0  0  0  0  0  0  0  0  0  0
  190.1530  177.2230  138.0770 C   0  0  0  0  0  0  0  0  0  0  0  0
  190.4690  176.5690  135.7510 C   0  0  0  0  0  3  0  0  0  0  0  0
  1 14  1  0  0  0  0
  1  9  1  0  0  0  0
  2  3  1  0  0  0  0
  3 19  2  0  0  0  0
  3  7  1  0  0  0  0
  4 11  1  0  0  0  0
  5  2  1  0  0  0  0
  5 14  2  0  0  0  0
  6  1  2  0  0  0  0
  7  4  2  0  0  0  0
  8 13  1  0  0  0  0
 10 19  1  0  0  0  0
 12  8  2  0  0  0  0
 12 16  1  0  0  0  0
 13 18  1  0  0  0  0
 13  2  2  0  0  0  0
 15  4  1  0  0  0  0
 16  5  1  0  0  0  0
 17 16  2  0  0  0  0
 17  6  1  0  0  0  0
 18 10  2  0  0  0  0
 19 20  1  0  0  0  0
 20 15  2  0  0  0  0
 21 22  2  0  0  0  0
 22 23  1  0  0  0  0
 23  8  1  0  0  0  0
 24 28  1  0  0  0  0
 26 29  1  0  0  0  0
 27 24  1  0  0  0  0
 28 25  2  0  0  0  0
 29 30  2  0  0  0  0
 30 25  1  0  0  0  0
 30 22  1  0  0  0  0
 31 24  2  0  0  0  0
 31 29  1  0  0  0  0
M  END
>  <MODEL>
1

>  <REMARK>
 VINA RESULT:     -11.4      0.000      0.000
  Name = 
  2 active torsions:
  status: ('A' for Active; 'I' for Inactive)
    1  A    between atoms: C_5  and  C_30
    2  A    between atoms: C_10  and  N_16
                            x       y       z     vdW  Elec       q    Type
                         _______ _______ _______ _____ _____    ______ ____

>  <TORSDO>
F 2

$$$$
=
 OpenBabel11122411073D

 31 35  0  0  0  0  0  0  0  0999 V2000
  184.9880  178.7560  144.5330 C   0  0  0  0  0  0  0  0  0  0  0  0
  188.5000  177.4940  144.0040 C   0  0  0  0  0  0  0  0  0  0  0  0
  189.1010  177.3910  145.2990 C   0  0  0  0  0  0  0  0  0  0  0  0
  189.0410  177.6100  147.7340 C   0  0  0  0  0  0  0  0  0  0  0  0
  187.1610  177.9390  143.7650 C   0  0  0  0  0  0  0  0  0  0  0  0
  184.5270  178.8090  143.2200 C   0  0  0  0  0  3  0  0  0  0  0  0
  188.4230  177.7220  146.4870 C   0  0  0  0  0  3  0  0  0  0  0  0
  188.7870  177.1960  141.5740 C   0  0  0  0  0  0  0  0  0  0  0  0
  184.1540  179.1300  145.5780 O   0  0  0  0  0  1  0  0  0  0  0  0
  191.1530  176.5950  144.2750 C   0  0  0  0  0  3  0  0  0  0  0  0
  188.2940  177.9700  148.9670 C   0  0  0  0  0  1  0  0  0  0  0  0
  187.4800  177.6340  141.3690 C   0  0  0  0  0  3  0  0  0  0  0  0
  189.2970  177.1250  142.8800 C   0  0  0  0  0  0  0  0  0  0  0  0
  186.2890  178.3260  144.8000 C   0  0  0  0  0  3  0  0  0  0  0  0
  190.3580  177.1600  147.8220 C   0  0  0  0  0  3  0  0  0  0  0  0
  186.6710  178.0010  142.4350 C   0  0  0  0  0  0  0  0  0  0  0  0
  185.3680  178.4320  142.1730 C   0  0  0  0  0  3  0  0  0  0  0  0
  190.5770  176.6950  143.0540 N   0  0  0  0  0  0  0  0  0  0  0  0
  190.4390  176.9360  145.4120 C   0  0  0  0  0  0  0  0  0  0  0  0
  191.0550  176.8240  146.6620 C   0  0  0  0  0  3  0  0  0  0  0  0
  189.3360  178.6920  139.0990 O   0  0  0  0  0  0  0  0  0  0  0  0
  189.8750  177.5660  139.2700 C   0  0  0  0  0  0  0  0  0  0  0  0
  189.6240  176.8160  140.4690 N   0  0  0  0  0  2  0  0  0  0  0  0
  192.4030  175.9220  136.2100 C   0  0  0  0  0  0  0  0  0  0  0  0
  190.2310  176.6340  136.9950 C   0  0  0  0  0  3  0  0  0  0  0  0
  192.7590  177.1640  139.6580 O   0  0  0  0  0  1  0  0  0  0  0  0
  193.2060  175.3900  135.2110 O   0  0  0  0  0  1  0  0  0  0  0  0
  191.0370  176.0980  135.9890 C   0  0  0  0  0  3  0  0  0  0  0  0
  192.1610  176.8190  138.4510 C   0  0  0  0  0  0  0  0  0  0  0  0
  190.7750  177.0020  138.2360 C   0  0  0  0  0  0  0  0  0  0  0  0
  192.9620  176.2810  137.4370 C   0  0  0  0  0  3  0  0  0  0  0  0
  1 14  1  0  0  0  0
  1  9  1  0  0  0  0
  2  3  1  0  0  0  0
  3 19  2  0  0  0  0
  3  7  1  0  0  0  0
  4 15  1  0  0  0  0
  4 11  1  0  0  0  0
  5  2  1  0  0  0  0
  5 14  2  0  0  0  0
  6  1  2  0  0  0  0
  7  4  2  0  0  0  0
  8 13  1  0  0  0  0
 10 19  1  0  0  0  0
 12  8  2  0  0  0  0
 12 16  1  0  0  0  0
 13 18  1  0  0  0  0
 13  2  2  0  0  0  0
 16  5  1  0  0  0  0
 17 16  2  0  0  0  0
 17  6  1  0  0  0  0
 18 10  2  0  0  0  0
 19 20  1  0  0  0  0
 20 15  2  0  0  0  0
 21 22  2  0  0  0  0
 22 23  1  0  0  0  0
 23  8  1  0  0  0  0
 24 31  1  0  0  0  0
 25 30  2  0  0  0  0
 27 24  1  0  0  0  0
 28 24  2  0  0  0  0
 28 25  1  0  0  0  0
 29 26  1  0  0  0  0
 30 29  1  0  0  0  0
 30 22  1  0  0  0  0
 31 29  2  0  0  0  0
M  END
>  <MODEL>
2

>  <REMARK>
 VINA RESULT:     -11.3      0.907      1.390
  Name = 
  2 active torsions:
  status: ('A' for Active; 'I' for Inactive)
    1  A    between atoms: C_5  and  C_30
    2  A    between atoms: C_10  and  N_16
                            x       y       z     vdW  Elec       q    Type
                         _______ _______ _______ _____ _____    ______ ____

>  <TORSDO>
F 2

$$$$
=
 OpenBabel11122411073D

 31 35  0  0  0  0  0  0  0  0999 V2000
  190.1410  177.1250  147.2150 C   0  0  0  0  0  0  0  0  0  0  0  0
  188.4920  177.3750  143.8350 C   0  0  0  0  0  0  0  0  0  0  0  0
  187.1580  177.8430  144.0600 C   0  0  0  0  0  0  0  0  0  0  0  0
  185.3460  178.5840  145.5250 C   0  0  0  0  0  0  0  0  0  0  0  0
  189.4550  177.1440  144.8680 C   0  0  0  0  0  0  0  0  0  0  0  0
  191.4070  176.6680  146.8570 C   0  0  0  0  0  3  0  0  0  0  0  0
  186.6530  178.1290  145.3410 C   0  0  0  0  0  3  0  0  0  0  0  0
  190.1690  176.6610  142.1750 C   0  0  0  0  0  0  0  0  0  0  0  0
  189.8360  177.3490  148.5510 O   0  0  0  0  0  1  0  0  0  0  0  0
  186.7370  177.7690  141.6700 C   0  0  0  0  0  3  0  0  0  0  0  0
  184.8460  178.8760  146.8940 C   0  0  0  0  0  1  0  0  0  0  0  0
  191.0880  176.4440  143.2000 C   0  0  0  0  0  3  0  0  0  0  0  0
  188.8800  177.1220  142.4850 C   0  0  0  0  0  0  0  0  0  0  0  0
  189.1790  177.3600  146.2310 C   0  0  0  0  0  3  0  0  0  0  0  0
  184.5090  178.7660  144.4230 C   0  0  0  0  0  3  0  0  0  0  0  0
  190.7500  176.6780  144.5260 C   0  0  0  0  0  0  0  0  0  0  0  0
  191.7100  176.4440  145.5140 C   0  0  0  0  0  3  0  0  0  0  0  0
  188.0000  177.3260  141.4670 N   0  0  0  0  0  0  0  0  0  0  0  0
  186.2910  178.0340  142.9550 C   0  0  0  0  0  0  0  0  0  0  0  0
  184.9830  178.4910  143.1400 C   0  0  0  0  0  3  0  0  0  0  0  0
  192.3360  177.8810  140.6000 O   0  0  0  0  0  0  0  0  0  0  0  0
  191.5830  177.0290  140.0550 C   0  0  0  0  0  0  0  0  0  0  0  0
  190.5190  176.4190  140.8020 N   0  0  0  0  0  2  0  0  0  0  0  0
  192.0740  175.9380  135.9290 C   0  0  0  0  0  0  0  0  0  0  0  0
  190.6820  176.6540  137.7710 C   0  0  0  0  0  3  0  0  0  0  0  0
  194.1830  176.2500  138.9310 O   0  0  0  0  0  1  0  0  0  0  0  0
  192.2150  175.5890  134.5940 O   0  0  0  0  0  1  0  0  0  0  0  0
  190.8230  176.3020  136.4270 C   0  0  0  0  0  3  0  0  0  0  0  0
  193.0510  176.2760  138.1230 C   0  0  0  0  0  0  0  0  0  0  0  0
  191.7870  176.6480  138.6380 C   0  0  0  0  0  0  0  0  0  0  0  0
  193.1840  175.9250  136.7750 C   0  0  0  0  0  3  0  0  0  0  0  0
  1  9  1  0  0  0  0
  2  3  1  0  0  0  0
  2  5  1  0  0  0  0
  3  7  2  0  0  0  0
  4 11  1  0  0  0  0
  5 14  1  0  0  0  0
  6  1  1  0  0  0  0
  7  4  1  0  0  0  0
  8 13  1  0  0  0  0
  8 12  2  0  0  0  0
 10 19  1  0  0  0  0
 12 16  1  0  0  0  0
 13  2  2  0  0  0  0
 14  1  2  0  0  0  0
 15  4  2  0  0  0  0
 16  5  2  0  0  0  0
 16 17  1  0  0  0  0
 17  6  2  0  0  0  0
 18 10  2  0  0  0  0
 18 13  1  0  0  0  0
 19 20  2  0  0  0  0
 19  3  1  0  0  0  0
 20 15  1  0  0  0  0
 22 21  2  0  0  0  0
 22 23  1  0  0  0  0
 23  8  1  0  0  0  0
 24 28  2  0  0  0  0
 24 31  1  0  0  0  0
 25 30  2  0  0  0  0
 27 24  1  0  0  0  0
 28 25  1  0  0  0  0
 29 30  1  0  0  0  0
 29 26  1  0  0  0  0
 30 22  1  0  0  0  0
 31 29  2  0  0  0  0
M  END
>  <MODEL>
3

>  <REMARK>
 VINA RESULT:     -10.7      1.939      4.305
  Name = 
  2 active torsions:
  status: ('A' for Active; 'I' for Inactive)
    1  A    between atoms: C_5  and  C_30
    2  A    between atoms: C_10  and  N_16
                            x       y       z     vdW  Elec       q    Type
                         _______ _______ _______ _____ _____    ______ ____

>  <TORSDO>
F 2

$$$$
=
 OpenBabel11122411073D

 31 35  0  0  0  0  0  0  0  0999 V2000
  190.3270  177.0180  142.2530 C   0  0  0  0  0  0  0  0  0  0  0  0
  186.9260  178.2490  143.3150 C   0  0  0  0  0  0  0  0  0  0  0  0
  186.8910  178.1820  144.7450 C   0  0  0  0  0  0  0  0  0  0  0  0
  187.9070  177.6740  146.9100 C   0  0  0  0  0  0  0  0  0  0  0  0
  188.0490  177.8690  142.5130 C   0  0  0  0  0  0  0  0  0  0  0  0
  190.2270  177.1340  140.8680 C   0  0  0  0  0  3  0  0  0  0  0  0
  187.9760  177.7270  145.5170 C   0  0  0  0  0  3  0  0  0  0  0  0
  185.7070  178.8280  141.2520 C   0  0  0  0  0  0  0  0  0  0  0  0
  191.4970  176.5420  142.8280 O   0  0  0  0  0  1  0  0  0  0  0  0
  184.6220  179.0440  144.7210 C   0  0  0  0  0  3  0  0  0  0  0  0
  189.0730  177.1880  147.6930 C   0  0  0  0  0  1  0  0  0  0  0  0
  186.8140  178.4500  140.4950 C   0  0  0  0  0  3  0  0  0  0  0  0
  185.7580  178.7300  142.6520 C   0  0  0  0  0  0  0  0  0  0  0  0
  189.2500  177.3820  143.0630 C   0  0  0  0  0  3  0  0  0  0  0  0
  186.7450  178.0790  147.5670 C   0  0  0  0  0  3  0  0  0  0  0  0
  187.9690  177.9780  141.1010 C   0  0  0  0  0  0  0  0  0  0  0  0
  189.0500  177.6140  140.2940 C   0  0  0  0  0  3  0  0  0  0  0  0
  184.6640  179.1040  143.3700 N   0  0  0  0  0  0  0  0  0  0  0  0
  185.7200  178.5870  145.4330 C   0  0  0  0  0  0  0  0  0  0  0  0
  185.6530  178.5340  146.8280 C   0  0  0  0  0  3  0  0  0  0  0  0
  183.3170  177.3110  140.4450 O   0  0  0  0  0  0  0  0  0  0  0  0
  183.3550  178.5540  140.2400 C   0  0  0  0  0  0  0  0  0  0  0  0
  184.5100  179.3170  140.6240 N   0  0  0  0  0  2  0  0  0  0  0  0
  180.0870  180.5500  138.2930 C   0  0  0  0  0  0  0  0  0  0  0  0
  182.2900  179.5560  138.2320 C   0  0  0  0  0  3  0  0  0  0  0  0
  180.9020  179.3170  141.6640 O   0  0  0  0  0  1  0  0  0  0  0  0
  179.0410  181.1950  137.6480 O   0  0  0  0  0  1  0  0  0  0  0  0
  181.2370  180.2040  137.5830 C   0  0  0  0  0  3  0  0  0  0  0  0
  181.0410  179.5990  140.3100 C   0  0  0  0  0  0  0  0  0  0  0  0
  182.2100  179.2430  139.5990 C   0  0  0  0  0  0  0  0  0  0  0  0
  179.9910  180.2480  139.6520 C   0  0  0  0  0  3  0  0  0  0  0  0
  1  9  1  0  0  0  0
  1 14  1  0  0  0  0
  2  3  1  0  0  0  0
  3 19  2  0  0  0  0
  3  7  1  0  0  0  0
  4 15  1  0  0  0  0
  4 11  1  0  0  0  0
  5 14  2  0  0  0  0
  5  2  1  0  0  0  0
  6  1  2  0  0  0  0
  7  4  2  0  0  0  0
  8 13  1  0  0  0  0
 10 19  1  0  0  0  0
 12 16  1  0  0  0  0
 12  8  2  0  0  0  0
 13  2  2  0  0  0  0
 13 18  1  0  0  0  0
 16  5  1  0  0  0  0
 17  6  1  0  0  0  0
 17 16  2  0  0  0  0
 18 10  2  0  0  0  0
 19 20  1  0  0  0  0
 20 15  2  0  0  0  0
 22 21  2  0  0  0  0
 22 23  1  0  0  0  0
 23  8  1  0  0  0  0
 24 31  1  0  0  0  0
 25 30  2  0  0  0  0
 27 24  1  0  0  0  0
 28 25  1  0  0  0  0
 28 24  2  0  0  0  0
 29 26  1  0  0  0  0
 30 22  1  0  0  0  0
 30 29  1  0  0  0  0
 31 29  2  0  0  0  0
M  END
>  <MODEL>
4

>  <REMARK>
 VINA RESULT:     -10.6      3.804      6.922
  Name = 
  2 active torsions:
  status: ('A' for Active; 'I' for Inactive)
    1  A    between atoms: C_5  and  C_30
    2  A    between atoms: C_10  and  N_16
                            x       y       z     vdW  Elec       q    Type
                         _______ _______ _______ _____ _____    ______ ____

>  <TORSDO>
F 2

$$$$
=
 OpenBabel11122411073D

 31 35  0  0  0  0  0  0  0  0999 V2000
  186.4840  177.9110  146.2010 C   0  0  0  0  0  0  0  0  0  0  0  0
  186.9520  178.1920  142.4720 C   0  0  0  0  0  0  0  0  0  0  0  0
  188.2910  177.7730  142.1910 C   0  0  0  0  0  0  0  0  0  0  0  0
  190.4880  176.9490  142.8810 C   0  0  0  0  0  0  0  0  0  0  0  0
  186.3720  178.2340  143.7800 C   0  0  0  0  0  0  0  0  0  0  0  0
  185.1650  178.3410  146.3340 C   0  0  0  0  0  3  0  0  0  0  0  0
  189.1870  177.3520  143.1900 C   0  0  0  0  0  3  0  0  0  0  0  0
  184.8200  179.0220  141.5520 C   0  0  0  0  0  0  0  0  0  0  0  0
  187.2080  177.5330  147.3240 O   0  0  0  0  0  1  0  0  0  0  0  0
  187.9140  178.1790  139.8270 C   0  0  0  0  0  3  0  0  0  0  0  0
  191.4060  176.5110  143.9630 C   0  0  0  0  0  1  0  0  0  0  0  0
  184.2800  179.0530  142.8360 C   0  0  0  0  0  3  0  0  0  0  0  0
  186.1450  178.5960  141.3660 C   0  0  0  0  0  0  0  0  0  0  0  0
  187.0770  177.8590  144.9390 C   0  0  0  0  0  3  0  0  0  0  0  0
  190.9230  176.9580  141.5560 C   0  0  0  0  0  3  0  0  0  0  0  0
  185.0310  178.6690  143.9380 C   0  0  0  0  0  0  0  0  0  0  0  0
  184.4410  178.7190  145.2030 C   0  0  0  0  0  3  0  0  0  0  0  0
  186.6490  178.5740  140.1020 N   0  0  0  0  0  0  0  0  0  0  0  0
  188.7550  177.7740  140.8510 C   0  0  0  0  0  0  0  0  0  0  0  0
  190.0570  177.3700  140.5430 C   0  0  0  0  0  3  0  0  0  0  0  0
  182.2780  177.8910  140.5900 O   0  0  0  0  0  0  0  0  0  0  0  0
  182.8010  178.8500  139.9620 C   0  0  0  0  0  0  0  0  0  0  0  0
  184.0420  179.4200  140.4100 N   0  0  0  0  0  2  0  0  0  0  0  0
  180.8850  180.5360  136.5070 C   0  0  0  0  0  0  0  0  0  0  0  0
  181.6880  180.7280  138.7780 C   0  0  0  0  0  3  0  0  0  0  0  0
  182.3890  177.3220  137.4880 O   0  0  0  0  0  1  0  0  0  0  0  0
  180.2630  181.0960  135.4000 O   0  0  0  0  0  1  0  0  0  0  0  0
  181.0620  181.2930  137.6650 C   0  0  0  0  0  3  0  0  0  0  0  0
  181.9590  178.6410  137.5740 C   0  0  0  0  0  0  0  0  0  0  0  0
  182.1450  179.4010  138.7530 C   0  0  0  0  0  0  0  0  0  0  0  0
  181.3320  179.2140  136.4630 C   0  0  0  0  0  3  0  0  0  0  0  0
  1  6  1  0  0  0  0
  1  9  1  0  0  0  0
  2  5  1  0  0  0  0
  3  2  1  0  0  0  0
  3  7  2  0  0  0  0
  4  7  1  0  0  0  0
  4 11  1  0  0  0  0
  5 16  2  0  0  0  0
  5 14  1  0  0  0  0
  8 12  2  0  0  0  0
 10 18  2  0  0  0  0
 10 19  1  0  0  0  0
 12 16  1  0  0  0  0
 13  8  1  0  0  0  0
 13  2  2  0  0  0  0
 14  1  2  0  0  0  0
 15  4  2  0  0  0  0
 16 17  1  0  0  0  0
 17  6  2  0  0  0  0
 18 13  1  0  0  0  0
 19  3  1  0  0  0  0
 20 19  2  0  0  0  0
 20 15  1  0  0  0  0
 22 23  1  0  0  0  0
 22 21  2  0  0  0  0
 23  8  1  0  0  0  0
 24 28  1  0  0  0  0
 26 29  1  0  0  0  0
 27 24  1  0  0  0  0
 28 25  2  0  0  0  0
 29 30  2  0  0  0  0
 30 25  1  0  0  0  0
 30 22  1  0  0  0  0
 31 24  2  0  0  0  0
 31 29  1  0  0  0  0
M  END
>  <MODEL>
5

>  <REMARK>
 VINA RESULT:     -10.5      3.882      6.426
  Name = 
  2 active torsions:
  status: ('A' for Active; 'I' for Inactive)
    1  A    between atoms: C_5  and  C_30
    2  A    between atoms: C_10  and  N_16
                            x       y       z     vdW  Elec       q    Type
                         _______ _______ _______ _____ _____    ______ ____

>  <TORSDO>
F 2

$$$$
=
 OpenBabel11122411073D

 31 35  0  0  0  0  0  0  0  0999 V2000
  183.2660  178.9160  138.9090 C   0  0  0  0  0  0  0  0  0  0  0  0
  186.9170  178.2600  139.5810 C   0  0  0  0  0  0  0  0  0  0  0  0
  187.5550  178.1350  138.3060 C   0  0  0  0  0  0  0  0  0  0  0  0
  187.5160  178.1240  135.8610 C   0  0  0  0  0  0  0  0  0  0  0  0
  185.5210  178.5150  139.7670 C   0  0  0  0  0  0  0  0  0  0  0  0
  182.7740  179.0150  140.2090 C   0  0  0  0  0  3  0  0  0  0  0  0
  186.8620  178.2520  137.0870 C   0  0  0  0  0  3  0  0  0  0  0  0
  187.1910  178.2290  142.0310 C   0  0  0  0  0  0  0  0  0  0  0  0
  182.4080  179.0640  137.8280 O   0  0  0  0  0  1  0  0  0  0  0  0
  189.6810  177.7580  139.4160 C   0  0  0  0  0  3  0  0  0  0  0  0
  186.7510  178.2530  134.5940 C   0  0  0  0  0  1  0  0  0  0  0  0
  185.8290  178.4760  142.1840 C   0  0  0  0  0  3  0  0  0  0  0  0
  187.7360  178.1210  140.7410 C   0  0  0  0  0  0  0  0  0  0  0  0
  184.6240  178.6690  138.6940 C   0  0  0  0  0  3  0  0  0  0  0  0
  188.8880  177.8750  135.8250 C   0  0  0  0  0  3  0  0  0  0  0  0
  184.9980  178.6190  141.0820 C   0  0  0  0  0  0  0  0  0  0  0  0
  183.6390  178.8670  141.2930 C   0  0  0  0  0  3  0  0  0  0  0  0
  189.0700  177.8780  140.6170 N   0  0  0  0  0  0  0  0  0  0  0  0
  188.9490  177.8820  138.2460 C   0  0  0  0  0  0  0  0  0  0  0  0
  189.6020  177.7540  137.0170 C   0  0  0  0  0  3  0  0  0  0  0  0
  188.2310  175.7470  143.2250 O   0  0  0  0  0  0  0  0  0  0  0  0
  188.5460  176.8560  143.7370 C   0  0  0  0  0  0  0  0  0  0  0  0
  188.0520  178.0810  143.1730 N   0  0  0  0  0  2  0  0  0  0  0  0
  191.1870  176.9880  147.1220 C   0  0  0  0  0  0  0  0  0  0  0  0
  190.8090  176.7140  144.7510 C   0  0  0  0  0  3  0  0  0  0  0  0
  187.5810  177.3430  146.4680 O   0  0  0  0  0  1  0  0  0  0  0  0
  192.0540  177.0270  148.2050 O   0  0  0  0  0  1  0  0  0  0  0  0
  191.6820  176.7530  145.8390 C   0  0  0  0  0  3  0  0  0  0  0  0
  188.9370  177.1440  146.2300 C   0  0  0  0  0  0  0  0  0  0  0  0
  189.4290  176.9080  144.9260 C   0  0  0  0  0  0  0  0  0  0  0  0
  189.8180  177.1820  147.3160 C   0  0  0  0  0  3  0  0  0  0  0  0
  1  6  1  0  0  0  0
  2  5  2  0  0  0  0
  2 13  1  0  0  0  0
  3  2  1  0  0  0  0
  4  7  1  0  0  0  0
  5 16  1  0  0  0  0
  6 17  2  0  0  0  0
  7  3  2  0  0  0  0
  8 12  1  0  0  0  0
  8 23  1  0  0  0  0
  9  1  1  0  0  0  0
 10 18  2  0  0  0  0
 11  4  1  0  0  0  0
 13  8  2  0  0  0  0
 14  1  2  0  0  0  0
 14  5  1  0  0  0  0
 15  4  2  0  0  0  0
 15 20  1  0  0  0  0
 16 17  1  0  0  0  0
 16 12  2  0  0  0  0
 18 13  1  0  0  0  0
 19  3  1  0  0  0  0
 19 10  1  0  0  0  0
 20 19  2  0  0  0  0
 21 22  2  0  0  0  0
 22 30  1  0  0  0  0
 23 22  1  0  0  0  0
 24 31  1  0  0  0  0
 24 27  1  0  0  0  0
 25 30  2  0  0  0  0
 25 28  1  0  0  0  0
 28 24  2  0  0  0  0
 29 26  1  0  0  0  0
 29 31  2  0  0  0  0
 30 29  1  0  0  0  0
M  END
>  <MODEL>
6

>  <REMARK>
 VINA RESULT:     -10.1      2.915      7.753
  Name = 
  2 active torsions:
  status: ('A' for Active; 'I' for Inactive)
    1  A    between atoms: C_5  and  C_30
    2  A    between atoms: C_10  and  N_16
                            x       y       z     vdW  Elec       q    Type
                         _______ _______ _______ _____ _____    ______ ____

>  <TORSDO>
F 2

$$$$
=
 OpenBabel11122411073D

 31 35  0  0  0  0  0  0  0  0999 V2000
  185.5240  178.2470  146.3940 C   0  0  0  0  0  0  0  0  0  0  0  0
  185.7990  178.3130  142.6350 C   0  0  0  0  0  0  0  0  0  0  0  0
  184.4850  178.5710  142.1300 C   0  0  0  0  0  0  0  0  0  0  0  0
  182.0980  179.0030  142.4350 C   0  0  0  0  0  0  0  0  0  0  0  0
  186.1270  178.2090  144.0240 C   0  0  0  0  0  0  0  0  0  0  0  0
  186.8460  177.9920  146.7500 C   0  0  0  0  0  3  0  0  0  0  0  0
  183.3660  178.7520  142.9620 C   0  0  0  0  0  3  0  0  0  0  0  0
  188.1670  177.8910  142.0920 C   0  0  0  0  0  0  0  0  0  0  0  0
  184.5560  178.3960  147.3780 O   0  0  0  0  0  1  0  0  0  0  0  0
  185.3490  178.4820  139.8620 C   0  0  0  0  0  3  0  0  0  0  0  0
  180.9380  179.1890  143.3460 C   0  0  0  0  0  1  0  0  0  0  0  0
  188.4590  177.7950  143.4510 C   0  0  0  0  0  3  0  0  0  0  0  0
  186.8480  178.1480  141.6820 C   0  0  0  0  0  0  0  0  0  0  0  0
  185.1710  178.3540  145.0470 C   0  0  0  0  0  3  0  0  0  0  0  0
  181.9190  179.0790  141.0540 C   0  0  0  0  0  3  0  0  0  0  0  0
  187.4670  177.9490  144.4090 C   0  0  0  0  0  0  0  0  0  0  0  0
  187.8160  177.8430  145.7580 C   0  0  0  0  0  3  0  0  0  0  0  0
  186.5870  178.2370  140.3490 N   0  0  0  0  0  0  0  0  0  0  0  0
  184.2810  178.6520  140.7290 C   0  0  0  0  0  0  0  0  0  0  0  0
  183.0110  178.9030  140.2030 C   0  0  0  0  0  3  0  0  0  0  0  0
  190.3130  175.8790  141.9900 O   0  0  0  0  0  0  0  0  0  0  0  0
  190.2320  176.7400  141.0720 C   0  0  0  0  0  0  0  0  0  0  0  0
  189.1940  177.7320  141.0990 N   0  0  0  0  0  2  0  0  0  0  0  0
  193.1290  176.7660  137.9010 C   0  0  0  0  0  0  0  0  0  0  0  0
  192.5300  177.1270  140.2150 C   0  0  0  0  0  3  0  0  0  0  0  0
  189.5610  175.9630  138.3200 O   0  0  0  0  0  1  0  0  0  0  0  0
  194.0780  176.7810  136.8890 O   0  0  0  0  0  1  0  0  0  0  0  0
  193.4850  177.1420  139.1970 C   0  0  0  0  0  3  0  0  0  0  0  0
  190.8550  176.3590  138.6400 C   0  0  0  0  0  0  0  0  0  0  0  0
  191.2060  176.7370  139.9560 C   0  0  0  0  0  0  0  0  0  0  0  0
  191.8180  176.3760  137.6250 C   0  0  0  0  0  3  0  0  0  0  0  0
  1  6  1  0  0  0  0
  1  9  1  0  0  0  0
  2  5  1  0  0  0  0
  3  2  1  0  0  0  0
  3  7  2  0  0  0  0
  4  7  1  0  0  0  0
  4 11  1  0  0  0  0
  5 16  2  0  0  0  0
  5 14  1  0  0  0  0
  8 12  2  0  0  0  0
 10 18  2  0  0  0  0
 10 19  1  0  0  0  0
 12 16  1  0  0  0  0
 13  8  1  0  0  0  0
 13  2  2  0  0  0  0
 14  1  2  0  0  0  0
 15  4  2  0  0  0  0
 16 17  1  0  0  0  0
 17  6  2  0  0  0  0
 18 13  1  0  0  0  0
 19  3  1  0  0  0  0
 20 19  2  0  0  0  0
 20 15  1  0  0  0  0
 22 23  1  0  0  0  0
 22 21  2  0  0  0  0
 23  8  1  0  0  0  0
 24 28  1  0  0  0  0
 26 29  1  0  0  0  0
 27 24  1  0  0  0  0
 28 25  2  0  0  0  0
 29 30  2  0  0  0  0
 30 25  1  0  0  0  0
 30 22  1  0  0  0  0
 31 24  2  0  0  0  0
 31 29  1  0  0  0  0
M  END
>  <MODEL>
7

>  <REMARK>
 VINA RESULT:     -10.1      1.959      4.848
  Name = 
  2 active torsions:
  status: ('A' for Active; 'I' for Inactive)
    1  A    between atoms: C_5  and  C_30
    2  A    between atoms: C_10  and  N_16
                            x       y       z     vdW  Elec       q    Type
                         _______ _______ _______ _____ _____    ______ ____

>  <TORSDO>
F 2

$$$$
=
 OpenBabel11122411073D

 31 35  0  0  0  0  0  0  0  0999 V2000
  187.3280  178.2290  136.3740 C   0  0  0  0  0  0  0  0  0  0  0  0
  186.2580  178.3570  139.9860 C   0  0  0  0  0  0  0  0  0  0  0  0
  184.8420  178.5630  139.9900 C   0  0  0  0  0  0  0  0  0  0  0  0
  182.7000  178.8830  138.8530 C   0  0  0  0  0  0  0  0  0  0  0  0
  187.0580  178.2490  138.8050 C   0  0  0  0  0  0  0  0  0  0  0  0
  188.6990  178.0280  136.5130 C   0  0  0  0  0  3  0  0  0  0  0  0
  184.0820  178.6820  138.8120 C   0  0  0  0  0  3  0  0  0  0  0  0
  188.2960  178.0510  141.3390 C   0  0  0  0  0  0  0  0  0  0  0  0
  186.7630  178.3190  135.1090 O   0  0  0  0  0  1  0  0  0  0  0  0
  184.8540  178.5430  142.4180 C   0  0  0  0  0  3  0  0  0  0  0  0
  181.9300  179.0040  137.5880 C   0  0  0  0  0  1  0  0  0  0  0  0
  189.0520  177.9500  140.1730 C   0  0  0  0  0  3  0  0  0  0  0  0
  186.9090  178.2530  141.2520 C   0  0  0  0  0  0  0  0  0  0  0  0
  186.5190  178.3370  137.5080 C   0  0  0  0  0  3  0  0  0  0  0  0
  182.0440  178.9690  140.0810 C   0  0  0  0  0  3  0  0  0  0  0  0
  188.4570  178.0450  138.9230 C   0  0  0  0  0  0  0  0  0  0  0  0
  189.2620  177.9360  137.7860 C   0  0  0  0  0  3  0  0  0  0  0  0
  186.1920  178.3490  142.4050 N   0  0  0  0  0  0  0  0  0  0  0  0
  184.1540  178.6540  141.2270 C   0  0  0  0  0  0  0  0  0  0  0  0
  182.7710  178.8540  141.2660 C   0  0  0  0  0  3  0  0  0  0  0  0
  188.3060  175.7590  143.1870 O   0  0  0  0  0  0  0  0  0  0  0  0
  188.9020  176.8190  143.5180 C   0  0  0  0  0  0  0  0  0  0  0  0
  188.9130  177.9520  142.6340 N   0  0  0  0  0  2  0  0  0  0  0  0
  191.0120  177.0560  147.2520 C   0  0  0  0  0  0  0  0  0  0  0  0
  190.9780  176.6480  144.8700 C   0  0  0  0  0  3  0  0  0  0  0  0
  187.5670  177.5180  146.0390 O   0  0  0  0  0  1  0  0  0  0  0  0
  191.7090  177.1280  148.4500 O   0  0  0  0  0  1  0  0  0  0  0  0
  191.6800  176.7200  146.0750 C   0  0  0  0  0  3  0  0  0  0  0  0
  188.9310  177.2480  146.0220 C   0  0  0  0  0  0  0  0  0  0  0  0
  189.6000  176.9100  144.8220 C   0  0  0  0  0  0  0  0  0  0  0  0
  189.6420  177.3180  147.2250 C   0  0  0  0  0  3  0  0  0  0  0  0
  1  6  2  0  0  0  0
  1 14  1  0  0  0  0
  2  3  2  0  0  0  0
  2 13  1  0  0  0  0
  3 19  1  0  0  0  0
  4 15  1  0  0  0  0
  5 16  1  0  0  0  0
  5  2  1  0  0  0  0
  6 17  1  0  0  0  0
  7  4  2  0  0  0  0
  7  3  1  0  0  0  0
  8 23  1  0  0  0  0
  9  1  1  0  0  0  0
 11  4  1  0  0  0  0
 12  8  2  0  0  0  0
 13  8  1  0  0  0  0
 13 18  2  0  0  0  0
 14  5  2  0  0  0  0
 15 20  2  0  0  0  0
 16 12  1  0  0  0  0
 17 16  2  0  0  0  0
 18 10  1  0  0  0  0
 19 20  1  0  0  0  0
 19 10  2  0  0  0  0
 21 22  2  0  0  0  0
 22 30  1  0  0  0  0
 23 22  1  0  0  0  0
 24 27  1  0  0  0  0
 25 28  1  0  0  0  0
 28 24  2  0  0  0  0
 29 26  1  0  0  0  0
 29 31  2  0  0  0  0
 30 25  2  0  0  0  0
 30 29  1  0  0  0  0
 31 24  1  0  0  0  0
M  END
>  <MODEL>
8

>  <REMARK>
 VINA RESULT:      -9.8      2.915      8.096
  Name = 
  2 active torsions:
  status: ('A' for Active; 'I' for Inactive)
    1  A    between atoms: C_5  and  C_30
    2  A    between atoms: C_10  and  N_16
                            x       y       z     vdW  Elec       q    Type
                         _______ _______ _______ _____ _____    ______ ____

>  <TORSDO>
F 2

$$$$
=
 OpenBabel11122411073D

 31 35  0  0  0  0  0  0  0  0999 V2000
  191.6230  176.2300  146.0420 C   0  0  0  0  0  0  0  0  0  0  0  0
  188.4330  177.3080  144.3480 C   0  0  0  0  0  0  0  0  0  0  0  0
  187.5570  177.7750  145.3780 C   0  0  0  0  0  0  0  0  0  0  0  0
  187.0320  178.2540  147.7180 C   0  0  0  0  0  0  0  0  0  0  0  0
  189.7550  176.8070  144.5730 C   0  0  0  0  0  0  0  0  0  0  0  0
  192.3720  175.8060  144.9470 C   0  0  0  0  0  3  0  0  0  0  0  0
  187.9130  177.7900  146.7380 C   0  0  0  0  0  3  0  0  0  0  0  0
  188.7430  176.9060  141.9350 C   0  0  0  0  0  0  0  0  0  0  0  0
  192.1620  176.1630  147.3200 O   0  0  0  0  0  1  0  0  0  0  0  0
  185.8640  178.2580  143.7060 C   0  0  0  0  0  3  0  0  0  0  0  0
  187.4430  178.2540  149.1460 C   0  0  0  0  0  1  0  0  0  0  0  0
  190.0270  176.4230  142.1830 C   0  0  0  0  0  3  0  0  0  0  0  0
  187.9490  177.3460  143.0060 C   0  0  0  0  0  0  0  0  0  0  0  0
  190.3310  176.7250  145.8550 C   0  0  0  0  0  3  0  0  0  0  0  0
  185.7670  178.7160  147.3550 C   0  0  0  0  0  3  0  0  0  0  0  0
  190.5350  176.3690  143.4730 C   0  0  0  0  0  0  0  0  0  0  0  0
  191.8280  175.8750  143.6640 C   0  0  0  0  0  3  0  0  0  0  0  0
  186.6990  177.8140  142.7390 N   0  0  0  0  0  0  0  0  0  0  0  0
  186.2660  178.2500  145.0320 C   0  0  0  0  0  0  0  0  0  0  0  0
  185.3860  178.7140  146.0130 C   0  0  0  0  0  3  0  0  0  0  0  0
  188.7490  179.1780  140.0630 O   0  0  0  0  0  0  0  0  0  0  0  0
  188.2320  178.0860  139.7040 C   0  0  0  0  0  0  0  0  0  0  0  0
  188.2170  176.9620  140.5980 N   0  0  0  0  0  2  0  0  0  0  0  0
  186.4050  177.6930  135.8360 C   0  0  0  0  0  0  0  0  0  0  0  0
  186.2350  177.9490  138.2340 C   0  0  0  0  0  3  0  0  0  0  0  0
  189.8070  177.8100  137.2400 O   0  0  0  0  0  1  0  0  0  0  0  0
  185.7990  177.5670  134.5940 O   0  0  0  0  0  1  0  0  0  0  0  0
  185.6240  177.8220  136.9850 C   0  0  0  0  0  3  0  0  0  0  0  0
  188.4170  177.8170  137.1850 C   0  0  0  0  0  0  0  0  0  0  0  0
  187.6340  177.9490  138.3550 C   0  0  0  0  0  0  0  0  0  0  0  0
  187.7970  177.6900  135.9370 C   0  0  0  0  0  3  0  0  0  0  0  0
  1  9  1  0  0  0  0
  2  5  1  0  0  0  0
  2  3  1  0  0  0  0
  3  7  1  0  0  0  0
  4 11  1  0  0  0  0
  5 14  2  0  0  0  0
  6  1  2  0  0  0  0
  7  4  2  0  0  0  0
  8 12  2  0  0  0  0
  8 13  1  0  0  0  0
 10 19  1  0  0  0  0
 12 16  1  0  0  0  0
 13  2  2  0  0  0  0
 14  1  1  0  0  0  0
 15  4  1  0  0  0  0
 16 17  2  0  0  0  0
 16  5  1  0  0  0  0
 17  6  1  0  0  0  0
 18 13  1  0  0  0  0
 18 10  2  0  0  0  0
 19  3  2  0  0  0  0
 19 20  1  0  0  0  0
 20 15  2  0  0  0  0
 22 21  2  0  0  0  0
 22 23  1  0  0  0  0
 23  8  1  0  0  0  0
 24 31  2  0  0  0  0
 24 28  1  0  0  0  0
 25 30  1  0  0  0  0
 27 24  1  0  0  0  0
 28 25  2  0  0  0  0
 29 26  1  0  0  0  0
 29 30  2  0  0  0  0
 30 22  1  0  0  0  0
 31 29  1  0  0  0  0
M  END
>  <MODEL>
9

>  <REMARK>
 VINA RESULT:      -9.6      2.436      4.548
  Name = 
  2 active torsions:
  status: ('A' for Active; 'I' for Inactive)
    1  A    between atoms: C_5  and  C_30
    2  A    between atoms: C_10  and  N_16
                            x       y       z     vdW  Elec       q    Type
                         _______ _______ _______ _____ _____    ______ ____

>  <TORSDO>
F 2

$$$$
