=
 OpenBabel11122410293D

 30 35  0  0  1  0  0  0  0  0999 V2000
  185.8200  178.4840  142.4690 C   0  0  0  0  0  0  0  0  0  0  0  0
  186.6560  178.3430  144.8470 C   0  0  0  0  0  0  0  0  0  0  0  0
  181.8500  178.7140  143.7480 N   0  0  0  0  0  2  0  0  0  0  0  0
  184.7200  178.5950  141.5670 C   0  0  0  0  0  0  0  0  0  0  0  0
  187.0700  178.4090  141.9490 N   0  0  0  0  0  0  0  0  0  0  0  0
  186.4600  178.5480  138.4870 O   0  0  0  0  0  0  0  0  0  0  0  0
  182.8280  177.5860  139.3260 C   0  0  1  0  0  3  0  0  0  0  0  0
  186.2340  178.5320  139.7300 C   0  0  0  0  0  0  0  0  0  0  0  0
  181.8390  177.6740  140.4850 C   0  0  2  0  0  3  0  0  0  0  0  0
  181.0970  178.7970  142.5610 N   0  0  0  0  0  0  0  0  0  0  0  0
  187.3070  178.4320  140.6140 C   0  0  0  0  0  0  0  0  0  0  0  0
  184.9510  178.6090  140.2060 N   0  0  0  0  0  0  0  0  0  0  0  0
  186.3540  178.3130  146.2120 C   0  0  0  0  0  3  0  0  0  0  0  0
  180.4880  177.8210  139.8180 C   0  0  0  0  0  2  0  0  0  0  0  0
  181.9790  177.5100  138.0720 C   0  0  0  0  0  2  0  0  0  0  0  0
  188.3710  178.2440  144.4560 Cl  0  0  0  0  0  0  0  0  0  0  0  0
  183.2260  178.6280  143.4580 C   0  0  0  0  0  0  0  0  0  0  0  0
  185.0380  178.3850  146.6600 C   0  0  0  0  0  3  0  0  0  0  0  0
  185.6070  178.4500  143.8860 C   0  0  0  0  0  0  0  0  0  0  0  0
  183.4300  178.6670  142.1220 C   0  0  0  0  0  0  0  0  0  0  0  0
  180.4440  180.0960  142.5650 C   0  0  0  0  0  1  0  0  0  0  0  0
  182.0950  178.8170  141.4660 C   0  0  1  0  0  3  0  0  0  0  0  0
  180.6020  177.2690  138.4780 N   0  0  0  0  0  2  0  0  0  0  0  0
  183.3180  180.1280  139.0930 C   0  0  0  0  0  1  0  0  0  0  0  0
  183.9980  178.4890  145.7420 C   0  0  0  0  0  3  0  0  0  0  0  0
  184.2680  178.5220  144.3720 C   0  0  0  0  0  0  0  0  0  0  0  0
  183.8730  178.7110  139.2090 C   0  0  2  0  0  3  0  0  0  0  0  0
  188.6130  178.3530  140.1220 O   0  0  0  0  0  0  0  0  0  0  0  0
  190.3940  177.1280  141.1530 C   0  0  0  0  0  1  0  0  0  0  0  0
  189.3300  177.1300  140.0770 C   0  0  0  0  0  2  0  0  0  0  0  0
  1 19  1  0  0  0  0
  2 13  1  0  0  0  0
  4 20  1  0  0  0  0
  4  1  2  0  0  0  0
  5  1  1  0  0  0  0
  6  8  2  0  0  0  0
  7 15  1  6  0  0  0
  7  9  1  0  0  0  0
  8 12  1  0  0  0  0
  8 11  1  0  0  0  0
  9 14  1  6  0  0  0
  9 22  1  0  0  0  0
 10 21  1  0  0  0  0
 10  3  1  0  0  0  0
 11  5  2  0  0  0  0
 12  4  1  0  0  0  0
 13 18  2  0  0  0  0
 15 23  1  0  0  0  0
 16  2  1  0  0  0  0
 17  3  1  0  0  0  0
 17 26  1  0  0  0  0
 19 26  1  0  0  0  0
 19  2  2  0  0  0  0
 20 17  2  0  0  0  0
 22 20  1  1  0  0  0
 22 10  1  0  0  0  0
 23 14  1  0  0  0  0
 25 18  1  0  0  0  0
 26 25  2  0  0  0  0
 27 24  1  1  0  0  0
 27  7  1  0  0  0  0
 27 12  1  0  0  0  0
 28 11  1  0  0  0  0
 30 28  1  0  0  0  0
 30 29  1  0  0  0  0
M  END
>  <MODEL>
1

>  <REMARK>
 VINA RESULT:      -8.8      0.000      0.000
  Name = 
  2 active torsions:
  status: ('A' for Active; 'I' for Inactive)
    1  A    between atoms: C_11  and  O_28
    2  A    between atoms: O_28  and  C_30
                            x       y       z     vdW  Elec       q    Type
                         _______ _______ _______ _____ _____    ______ ____

>  <TORSDO>
F 2

$$$$
=
 OpenBabel11122410293D

 30 35  0  0  1  0  0  0  0  0999 V2000
  186.0850  178.2950  142.2090 C   0  0  0  0  0  0  0  0  0  0  0  0
  183.6650  178.8770  142.6280 C   0  0  0  0  0  0  0  0  0  0  0  0
  186.8560  178.0130  146.3050 N   0  0  0  0  0  2  0  0  0  0  0  0
  187.3700  177.9660  142.7360 C   0  0  0  0  0  0  0  0  0  0  0  0
  185.9440  178.3680  140.8620 N   0  0  0  0  0  0  0  0  0  0  0  0
  189.1880  177.6260  139.7200 O   0  0  0  0  0  0  0  0  0  0  0  0
  190.3820  178.4670  143.2820 C   0  0  1  0  0  3  0  0  0  0  0  0
  188.2320  177.8290  140.5200 C   0  0  0  0  0  0  0  0  0  0  0  0
  189.8460  178.5040  144.7110 C   0  0  2  0  0  3  0  0  0  0  0  0
  188.2230  177.6870  146.3890 N   0  0  0  0  0  0  0  0  0  0  0  0
  186.9730  178.1430  140.0090 C   0  0  0  0  0  0  0  0  0  0  0  0
  188.4260  177.7450  141.8740 N   0  0  0  0  0  0  0  0  0  0  0  0
  182.6430  179.1080  143.5540 C   0  0  0  0  0  3  0  0  0  0  0  0
  191.0430  178.1610  145.5720 C   0  0  0  0  0  2  0  0  0  0  0  0
  191.8800  178.2820  143.4150 C   0  0  0  0  0  2  0  0  0  0  0  0
  183.1940  179.0240  140.9380 Cl  0  0  0  0  0  0  0  0  0  0  0  0
  186.4580  178.1420  144.9600 C   0  0  0  0  0  0  0  0  0  0  0  0
  182.8780  179.0230  144.9230 C   0  0  0  0  0  3  0  0  0  0  0  0
  184.9770  178.5460  143.0820 C   0  0  0  0  0  0  0  0  0  0  0  0
  187.5010  177.9000  144.1340 C   0  0  0  0  0  0  0  0  0  0  0  0
  188.3060  176.3670  146.9900 C   0  0  0  0  0  1  0  0  0  0  0  0
  188.6800  177.5560  144.9870 C   0  0  1  0  0  3  0  0  0  0  0  0
  192.2360  178.4930  144.8100 N   0  0  0  0  0  2  0  0  0  0  0  0
  189.9020  175.9600  142.7950 C   0  0  0  0  0  1  0  0  0  0  0  0
  184.1480  178.7020  145.3890 C   0  0  0  0  0  3  0  0  0  0  0  0
  185.1900  178.4640  144.4900 C   0  0  0  0  0  0  0  0  0  0  0  0
  189.7840  177.4110  142.3350 C   0  0  2  0  0  3  0  0  0  0  0  0
  186.7820  178.2270  138.6270 O   0  0  0  0  0  0  0  0  0  0  0  0
  185.3290  177.0180  137.1550 C   0  0  0  0  0  1  0  0  0  0  0  0
  185.4880  178.2330  138.0430 C   0  0  0  0  0  2  0  0  0  0  0  0
  1  4  2  0  0  0  0
  1 19  1  0  0  0  0
  2 19  2  0  0  0  0
  2 13  1  0  0  0  0
  3 10  1  0  0  0  0
  4 20  1  0  0  0  0
  5  1  1  0  0  0  0
  6  8  2  0  0  0  0
  7 15  1  1  0  0  0
  7  9  1  0  0  0  0
  8 12  1  0  0  0  0
  9 22  1  0  0  0  0
  9 14  1  1  0  0  0
 10 21  1  0  0  0  0
 11  8  1  0  0  0  0
 11  5  2  0  0  0  0
 12 27  1  0  0  0  0
 12  4  1  0  0  0  0
 13 18  2  0  0  0  0
 15 23  1  0  0  0  0
 16  2  1  0  0  0  0
 17  3  1  0  0  0  0
 18 25  1  0  0  0  0
 19 26  1  0  0  0  0
 20 17  2  0  0  0  0
 22 20  1  6  0  0  0
 22 10  1  0  0  0  0
 23 14  1  0  0  0  0
 26 17  1  0  0  0  0
 26 25  2  0  0  0  0
 27 24  1  1  0  0  0
 27  7  1  0  0  0  0
 28 11  1  0  0  0  0
 29 30  1  0  0  0  0
 30 28  1  0  0  0  0
M  END
>  <MODEL>
2

>  <REMARK>
 VINA RESULT:      -8.7      2.711      6.342
  Name = 
  2 active torsions:
  status: ('A' for Active; 'I' for Inactive)
    1  A    between atoms: C_11  and  O_28
    2  A    between atoms: O_28  and  C_30
                            x       y       z     vdW  Elec       q    Type
                         _______ _______ _______ _____ _____    ______ ____

>  <TORSDO>
F 2

$$$$
=
 OpenBabel11122410293D

 30 35  0  0  1  0  0  0  0  0999 V2000
  189.0760  177.4460  143.5920 C   0  0  0  0  0  0  0  0  0  0  0  0
  191.1220  176.4190  144.6580 C   0  0  0  0  0  0  0  0  0  0  0  0
  187.2810  178.0380  147.3170 N   0  0  0  0  0  2  0  0  0  0  0  0
  187.7880  178.0410  143.7470 C   0  0  0  0  0  0  0  0  0  0  0  0
  189.5650  177.2930  142.3360 N   0  0  0  0  0  0  0  0  0  0  0  0
  186.9770  178.6080  140.3500 O   0  0  0  0  0  0  0  0  0  0  0  0
  184.7060  178.1600  143.4270 C   0  0  1  0  0  3  0  0  0  0  0  0
  187.6150  178.2540  141.3810 C   0  0  0  0  0  0  0  0  0  0  0  0
  184.8090  178.0760  144.9480 C   0  0  2  0  0  3  0  0  0  0  0  0
  186.0370  178.6270  147.0230 N   0  0  0  0  0  0  0  0  0  0  0  0
  188.8770  177.6790  141.2340 C   0  0  0  0  0  0  0  0  0  0  0  0
  187.0760  178.4280  142.6290 N   0  0  0  0  0  0  0  0  0  0  0  0
  191.7830  176.0300  145.8270 C   0  0  0  0  0  3  0  0  0  0  0  0
  183.5150  178.6810  145.4480 C   0  0  0  0  0  2  0  0  0  0  0  0
  183.2960  178.6400  143.1420 C   0  0  0  0  0  2  0  0  0  0  0  0
  192.0010  176.1150  143.1620 Cl  0  0  0  0  0  0  0  0  0  0  0  0
  188.0000  177.7790  146.1330 C   0  0  0  0  0  0  0  0  0  0  0  0
  191.2010  176.2150  147.0780 C   0  0  0  0  0  3  0  0  0  0  0  0
  189.8290  177.0190  144.7340 C   0  0  0  0  0  0  0  0  0  0  0  0
  187.2940  178.1870  145.0550 C   0  0  0  0  0  0  0  0  0  0  0  0
  186.0560  179.9620  147.5980 C   0  0  0  0  0  1  0  0  0  0  0  0
  186.0190  178.7890  145.5520 C   0  0  1  0  0  3  0  0  0  0  0  0
  182.5360  178.5580  144.3800 N   0  0  0  0  0  2  0  0  0  0  0  0
  185.7900  180.5030  143.1320 C   0  0  0  0  0  1  0  0  0  0  0  0
  189.9430  176.7970  147.1780 C   0  0  0  0  0  3  0  0  0  0  0  0
  189.2580  177.1970  146.0290 C   0  0  0  0  0  0  0  0  0  0  0  0
  185.7390  179.0400  142.7010 C   0  0  2  0  0  3  0  0  0  0  0  0
  189.4200  177.5040  139.9590 O   0  0  0  0  0  0  0  0  0  0  0  0
  190.5780  176.1310  138.3740 C   0  0  0  0  0  1  0  0  0  0  0  0
  190.6190  176.7750  139.7420 C   0  0  0  0  0  2  0  0  0  0  0  0
  1  4  2  0  0  0  0
  1 19  1  0  0  0  0
  2 19  2  0  0  0  0
  2 13  1  0  0  0  0
  4 20  1  0  0  0  0
  5  1  1  0  0  0  0
  6  8  2  0  0  0  0
  7 15  1  1  0  0  0
  7  9  1  0  0  0  0
  8 12  1  0  0  0  0
  9 14  1  1  0  0  0
  9 22  1  0  0  0  0
 10  3  1  0  0  0  0
 10 21  1  0  0  0  0
 11  8  1  0  0  0  0
 11  5  2  0  0  0  0
 12 27  1  0  0  0  0
 12  4  1  0  0  0  0
 13 18  2  0  0  0  0
 15 23  1  0  0  0  0
 16  2  1  0  0  0  0
 17  3  1  0  0  0  0
 18 25  1  0  0  0  0
 19 26  1  0  0  0  0
 20 17  2  0  0  0  0
 22 20  1  6  0  0  0
 22 10  1  0  0  0  0
 23 14  1  0  0  0  0
 26 17  1  0  0  0  0
 26 25  2  0  0  0  0
 27 24  1  1  0  0  0
 27  7  1  0  0  0  0
 28 11  1  0  0  0  0
 29 30  1  0  0  0  0
 30 28  1  0  0  0  0
M  END
>  <MODEL>
3

>  <REMARK>
 VINA RESULT:      -8.0      2.763      4.862
  Name = 
  2 active torsions:
  status: ('A' for Active; 'I' for Inactive)
    1  A    between atoms: C_11  and  O_28
    2  A    between atoms: O_28  and  C_30
                            x       y       z     vdW  Elec       q    Type
                         _______ _______ _______ _____ _____    ______ ____

>  <TORSDO>
F 2

$$$$
=
 OpenBabel11122410293D

 30 35  0  0  1  0  0  0  0  0999 V2000
  187.9660  177.8780  142.5740 C   0  0  0  0  0  0  0  0  0  0  0  0
  186.8420  178.0430  144.8290 C   0  0  0  0  0  0  0  0  0  0  0  0
  184.4040  178.7970  140.5950 N   0  0  0  0  0  2  0  0  0  0  0  0
  187.8680  177.9650  141.1530 C   0  0  0  0  0  0  0  0  0  0  0  0
  189.1680  177.5650  143.1170 N   0  0  0  0  0  0  0  0  0  0  0  0
  191.2050  177.1870  140.2740 O   0  0  0  0  0  0  0  0  0  0  0  0
  187.9370  176.8250  138.2700 C   0  0  1  0  0  3  0  0  0  0  0  0
  190.1770  177.4090  140.9720 C   0  0  0  0  0  0  0  0  0  0  0  0
  186.4670  177.2260  138.3580 C   0  0  2  0  0  3  0  0  0  0  0  0
  184.7380  178.7670  139.2270 N   0  0  0  0  0  0  0  0  0  0  0  0
  190.2700  177.3320  142.3610 C   0  0  0  0  0  0  0  0  0  0  0  0
  188.9830  177.7190  140.3760 N   0  0  0  0  0  0  0  0  0  0  0  0
  185.6740  178.2830  145.5590 C   0  0  0  0  0  3  0  0  0  0  0  0
  186.0410  177.4190  136.9190 C   0  0  0  0  0  2  0  0  0  0  0  0
  188.2190  176.6390  136.7920 C   0  0  0  0  0  2  0  0  0  0  0  0
  188.2670  177.6740  145.7960 Cl  0  0  0  0  0  0  0  0  0  0  0  0
  185.5300  178.4980  141.3880 C   0  0  0  0  0  0  0  0  0  0  0  0
  184.4750  178.5870  144.9190 C   0  0  0  0  0  3  0  0  0  0  0  0
  186.8200  178.1100  143.4040 C   0  0  0  0  0  0  0  0  0  0  0  0
  186.6130  178.2840  140.6070 C   0  0  0  0  0  0  0  0  0  0  0  0
  184.5560  180.1160  138.7190 C   0  0  0  0  0  1  0  0  0  0  0  0
  186.1900  178.4810  139.1860 C   0  0  1  0  0  3  0  0  0  0  0  0
  186.9450  176.6380  136.0890 N   0  0  0  0  0  2  0  0  0  0  0  0
  188.9580  179.2120  138.3810 C   0  0  0  0  0  1  0  0  0  0  0  0
  184.4290  178.6580  143.5310 C   0  0  0  0  0  3  0  0  0  0  0  0
  185.5790  178.4250  142.7750 C   0  0  0  0  0  0  0  0  0  0  0  0
  188.9650  177.7790  138.9050 C   0  0  2  0  0  3  0  0  0  0  0  0
  191.4910  177.0150  142.9630 O   0  0  0  0  0  0  0  0  0  0  0  0
  191.6810  176.6400  145.3210 C   0  0  0  0  0  1  0  0  0  0  0  0
  191.6050  176.0030  143.9510 C   0  0  0  0  0  2  0  0  0  0  0  0
  1  5  1  0  0  0  0
  1 19  1  0  0  0  0
  2 13  1  0  0  0  0
  2 16  1  0  0  0  0
  3 17  1  0  0  0  0
  4  1  2  0  0  0  0
  6  8  2  0  0  0  0
  7 15  1  6  0  0  0
  7  9  1  0  0  0  0
  7 27  1  0  0  0  0
  8 11  1  0  0  0  0
  9 14  1  6  0  0  0
  9 22  1  0  0  0  0
 10  3  1  0  0  0  0
 11 28  1  0  0  0  0
 11  5  2  0  0  0  0
 12  8  1  0  0  0  0
 12  4  1  0  0  0  0
 17 26  1  0  0  0  0
 18 13  2  0  0  0  0
 19  2  2  0  0  0  0
 20  4  1  0  0  0  0
 20 17  2  0  0  0  0
 21 10  1  0  0  0  0
 22 10  1  0  0  0  0
 22 20  1  1  0  0  0
 23 15  1  0  0  0  0
 23 14  1  0  0  0  0
 25 18  1  0  0  0  0
 26 19  1  0  0  0  0
 26 25  2  0  0  0  0
 27 24  1  1  0  0  0
 27 12  1  0  0  0  0
 28 30  1  0  0  0  0
 30 29  1  0  0  0  0
M  END
>  <MODEL>
4

>  <REMARK>
 VINA RESULT:      -7.8      2.605      4.213
  Name = 
  2 active torsions:
  status: ('A' for Active; 'I' for Inactive)
    1  A    between atoms: C_11  and  O_28
    2  A    between atoms: O_28  and  C_30
                            x       y       z     vdW  Elec       q    Type
                         _______ _______ _______ _____ _____    ______ ____

>  <TORSDO>
F 2

$$$$
=
 OpenBabel11122410293D

 30 35  0  0  1  0  0  0  0  0999 V2000
  187.3680  178.0340  141.8180 C   0  0  0  0  0  0  0  0  0  0  0  0
  186.7130  178.1890  144.2510 C   0  0  0  0  0  0  0  0  0  0  0  0
  183.4740  178.9110  140.5860 N   0  0  0  0  0  2  0  0  0  0  0  0
  186.9890  178.1190  140.4440 C   0  0  0  0  0  0  0  0  0  0  0  0
  188.6580  177.7360  142.1100 N   0  0  0  0  0  0  0  0  0  0  0  0
  190.0940  177.3780  138.9190 O   0  0  0  0  0  0  0  0  0  0  0  0
  186.4980  176.9780  137.6030 C   0  0  1  0  0  3  0  0  0  0  0  0
  189.2220  177.5890  139.8070 C   0  0  0  0  0  0  0  0  0  0  0  0
  185.0700  177.3620  137.9820 C   0  0  2  0  0  3  0  0  0  0  0  0
  183.5310  178.8840  139.1790 N   0  0  0  0  0  0  0  0  0  0  0  0
  189.5900  177.5150  141.1500 C   0  0  0  0  0  0  0  0  0  0  0  0
  187.9300  177.8860  139.4610 N   0  0  0  0  0  0  0  0  0  0  0  0
  185.7100  178.4160  145.1980 C   0  0  0  0  0  3  0  0  0  0  0  0
  184.3650  177.5490  136.6560 C   0  0  0  0  0  2  0  0  0  0  0  0
  186.4830  176.7930  136.0980 C   0  0  0  0  0  2  0  0  0  0  0  0
  188.3060  177.8370  144.9150 Cl  0  0  0  0  0  0  0  0  0  0  0  0
  184.7380  178.6260  141.1390 C   0  0  0  0  0  0  0  0  0  0  0  0
  184.4050  178.7060  144.8100 C   0  0  0  0  0  3  0  0  0  0  0  0
  186.4080  178.2550  142.8580 C   0  0  0  0  0  0  0  0  0  0  0  0
  185.6470  178.4240  140.1590 C   0  0  0  0  0  0  0  0  0  0  0  0
  183.2360  180.2310  138.7180 C   0  0  0  0  0  1  0  0  0  0  0  0
  184.9490  178.6140  138.8500 C   0  0  1  0  0  3  0  0  0  0  0  0
  185.0950  176.7770  135.6620 N   0  0  0  0  0  2  0  0  0  0  0  0
  187.4930  179.3760  137.5120 C   0  0  0  0  0  1  0  0  0  0  0  0
  184.0830  178.7760  143.4590 C   0  0  0  0  0  3  0  0  0  0  0  0
  185.0630  178.5550  142.4890 C   0  0  0  0  0  0  0  0  0  0  0  0
  187.6200  177.9440  138.0230 C   0  0  2  0  0  3  0  0  0  0  0  0
  190.9100  177.2120  141.4970 O   0  0  0  0  0  0  0  0  0  0  0  0
  191.6710  176.3260  143.5890 C   0  0  0  0  0  1  0  0  0  0  0  0
  191.4610  177.5710  142.7550 C   0  0  0  0  0  2  0  0  0  0  0  0
  1  5  1  0  0  0  0
  1 19  1  0  0  0  0
  2 16  1  0  0  0  0
  2 13  1  0  0  0  0
  3 17  1  0  0  0  0
  4  1  2  0  0  0  0
  6  8  2  0  0  0  0
  7 15  1  6  0  0  0
  7  9  1  0  0  0  0
  7 27  1  0  0  0  0
  8 11  1  0  0  0  0
  9 14  1  6  0  0  0
  9 22  1  0  0  0  0
 10  3  1  0  0  0  0
 11 28  1  0  0  0  0
 11  5  2  0  0  0  0
 12  8  1  0  0  0  0
 12  4  1  0  0  0  0
 17 26  1  0  0  0  0
 18 13  2  0  0  0  0
 19  2  2  0  0  0  0
 20  4  1  0  0  0  0
 20 17  2  0  0  0  0
 21 10  1  0  0  0  0
 22 10  1  0  0  0  0
 22 20  1  1  0  0  0
 23 15  1  0  0  0  0
 23 14  1  0  0  0  0
 25 18  1  0  0  0  0
 26 19  1  0  0  0  0
 26 25  2  0  0  0  0
 27 24  1  1  0  0  0
 27 12  1  0  0  0  0
 28 30  1  0  0  0  0
 30 29  1  0  0  0  0
M  END
>  <MODEL>
5

>  <REMARK>
 VINA RESULT:      -7.7      2.113      3.326
  Name = 
  2 active torsions:
  status: ('A' for Active; 'I' for Inactive)
    1  A    between atoms: C_11  and  O_28
    2  A    between atoms: O_28  and  C_30
                            x       y       z     vdW  Elec       q    Type
                         _______ _______ _______ _____ _____    ______ ____

>  <TORSDO>
F 2

$$$$
=
 OpenBabel11122410293D

 30 35  0  0  1  0  0  0  0  0999 V2000
  187.7670  177.9620  139.9570 C   0  0  0  0  0  0  0  0  0  0  0  0
  185.6020  178.6920  138.8840 C   0  0  0  0  0  0  0  0  0  0  0  0
  186.1260  178.2950  143.7840 N   0  0  0  0  0  2  0  0  0  0  0  0
  188.5030  177.6720  141.1450 C   0  0  0  0  0  0  0  0  0  0  0  0
  188.3970  177.8290  138.7630 N   0  0  0  0  0  0  0  0  0  0  0  0
  191.6210  176.7980  139.7200 O   0  0  0  0  0  0  0  0  0  0  0  0
  190.7560  178.1400  143.2230 C   0  0  1  0  0  3  0  0  0  0  0  0
  190.4150  177.1590  139.8210 C   0  0  0  0  0  0  0  0  0  0  0  0
  189.5340  178.4200  144.0930 C   0  0  2  0  0  3  0  0  0  0  0  0
  187.1740  177.9360  144.6530 N   0  0  0  0  0  0  0  0  0  0  0  0
  189.6900  177.4360  138.6620 C   0  0  0  0  0  0  0  0  0  0  0  0
  189.8240  177.2810  141.0510 N   0  0  0  0  0  0  0  0  0  0  0  0
  184.2750  179.1030  139.0470 C   0  0  0  0  0  3  0  0  0  0  0  0
  190.0120  178.1710  145.5080 C   0  0  0  0  0  2  0  0  0  0  0  0
  191.9030  177.9220  144.1910 C   0  0  0  0  0  2  0  0  0  0  0  0
  186.1560  178.5910  137.2150 Cl  0  0  0  0  0  0  0  0  0  0  0  0
  186.5500  178.2270  142.4420 C   0  0  0  0  0  0  0  0  0  0  0  0
  183.7090  179.2240  140.3130 C   0  0  0  0  0  3  0  0  0  0  0  0
  186.4000  178.3870  140.0260 C   0  0  0  0  0  0  0  0  0  0  0  0
  187.8370  177.8200  142.3730 C   0  0  0  0  0  0  0  0  0  0  0  0
  186.7580  176.7230  145.3380 C   0  0  0  0  0  1  0  0  0  0  0  0
  188.3050  177.5700  143.7720 C   0  0  1  0  0  3  0  0  0  0  0  0
  191.4580  178.3360  145.5140 N   0  0  0  0  0  2  0  0  0  0  0  0
  190.3310  175.6080  142.8270 C   0  0  0  0  0  1  0  0  0  0  0  0
  184.4670  178.9320  141.4410 C   0  0  0  0  0  3  0  0  0  0  0  0
  185.7950  178.5190  141.3110 C   0  0  0  0  0  0  0  0  0  0  0  0
  190.6560  176.9720  142.2260 C   0  0  2  0  0  3  0  0  0  0  0  0
  190.3000  177.3100  137.4100 O   0  0  0  0  0  0  0  0  0  0  0  0
  189.2870  177.5270  135.2510 C   0  0  0  0  0  1  0  0  0  0  0  0
  189.7040  176.5760  136.3510 C   0  0  0  0  0  2  0  0  0  0  0  0
  1 19  2  0  0  0  0
  1  4  1  0  0  0  0
  2 13  2  0  0  0  0
  2 19  1  0  0  0  0
  3 10  1  0  0  0  0
  4 20  2  0  0  0  0
  5  1  1  0  0  0  0
  6  8  2  0  0  0  0
  7  9  1  0  0  0  0
  7 15  1  1  0  0  0
  8 12  1  0  0  0  0
  9 14  1  1  0  0  0
 10 21  1  0  0  0  0
 11  5  2  0  0  0  0
 11  8  1  0  0  0  0
 12  4  1  0  0  0  0
 12 27  1  0  0  0  0
 13 18  1  0  0  0  0
 14 23  1  0  0  0  0
 15 23  1  0  0  0  0
 16  2  1  0  0  0  0
 17  3  1  0  0  0  0
 18 25  2  0  0  0  0
 19 26  1  0  0  0  0
 20 17  1  0  0  0  0
 22 20  1  6  0  0  0
 22  9  1  0  0  0  0
 22 10  1  0  0  0  0
 26 25  1  0  0  0  0
 26 17  2  0  0  0  0
 27 24  1  1  0  0  0
 27  7  1  0  0  0  0
 28 11  1  0  0  0  0
 29 30  1  0  0  0  0
 30 28  1  0  0  0  0
M  END
>  <MODEL>
6

>  <REMARK>
 VINA RESULT:      -7.4      3.229      6.694
  Name = 
  2 active torsions:
  status: ('A' for Active; 'I' for Inactive)
    1  A    between atoms: C_11  and  O_28
    2  A    between atoms: O_28  and  C_30
                            x       y       z     vdW  Elec       q    Type
                         _______ _______ _______ _____ _____    ______ ____

>  <TORSDO>
F 2

$$$$
=
 OpenBabel11122410293D

 30 35  0  0  1  0  0  0  0  0999 V2000
  184.4670  178.6410  141.5200 C   0  0  0  0  0  0  0  0  0  0  0  0
  185.4570  178.5440  143.8410 C   0  0  0  0  0  0  0  0  0  0  0  0
  180.6090  179.1120  143.0520 N   0  0  0  0  0  2  0  0  0  0  0  0
  183.3130  178.7730  140.6900 C   0  0  0  0  0  0  0  0  0  0  0  0
  185.6730  178.4850  140.9210 N   0  0  0  0  0  0  0  0  0  0  0  0
  184.8340  178.5290  137.5050 O   0  0  0  0  0  0  0  0  0  0  0  0
  181.2260  177.7790  138.6230 C   0  0  1  0  0  3  0  0  0  0  0  0
  184.6920  178.5680  138.7600 C   0  0  0  0  0  0  0  0  0  0  0  0
  180.3240  177.9570  139.8410 C   0  0  2  0  0  3  0  0  0  0  0  0
  179.7810  179.1900  141.9160 N   0  0  0  0  0  0  0  0  0  0  0  0
  185.8180  178.4480  139.5740 C   0  0  0  0  0  0  0  0  0  0  0  0
  183.4510  178.7260  139.3170 N   0  0  0  0  0  0  0  0  0  0  0  0
  185.2480  178.5790  145.2230 C   0  0  0  0  0  3  0  0  0  0  0  0
  178.9390  178.1460  139.2610 C   0  0  0  0  0  2  0  0  0  0  0  0
  180.2900  177.6990  137.4330 C   0  0  0  0  0  2  0  0  0  0  0  0
  187.1340  178.3470  143.3400 Cl  0  0  0  0  0  0  0  0  0  0  0  0
  181.9560  178.9480  142.6740 C   0  0  0  0  0  0  0  0  0  0  0  0
  183.9710  178.7320  145.7550 C   0  0  0  0  0  3  0  0  0  0  0  0
  184.3500  178.6680  142.9480 C   0  0  0  0  0  0  0  0  0  0  0  0
  182.0700  178.9280  141.3270 C   0  0  0  0  0  0  0  0  0  0  0  0
  179.1910  180.5180  141.9130 C   0  0  0  0  0  1  0  0  0  0  0  0
  180.7010  179.1210  140.7570 C   0  0  1  0  0  3  0  0  0  0  0  0
  178.9350  177.5410  137.9380 N   0  0  0  0  0  2  0  0  0  0  0  0
  181.8180  180.2830  138.2580 C   0  0  0  0  0  1  0  0  0  0  0  0
  182.8760  178.8540  144.9050 C   0  0  0  0  0  3  0  0  0  0  0  0
  183.0530  178.8240  143.5200 C   0  0  0  0  0  0  0  0  0  0  0  0
  182.3120  178.8450  138.3910 C   0  0  2  0  0  3  0  0  0  0  0  0
  187.0820  178.2870  138.9990 O   0  0  0  0  0  0  0  0  0  0  0  0
  189.1390  177.2060  139.5790 C   0  0  0  0  0  1  0  0  0  0  0  0
  188.2770  178.4380  139.7490 C   0  0  0  0  0  2  0  0  0  0  0  0
  1 19  1  0  0  0  0
  2 13  1  0  0  0  0
  4 20  1  0  0  0  0
  4  1  2  0  0  0  0
  5  1  1  0  0  0  0
  6  8  2  0  0  0  0
  7 15  1  6  0  0  0
  7  9  1  0  0  0  0
  8 12  1  0  0  0  0
  8 11  1  0  0  0  0
  9 14  1  6  0  0  0
  9 22  1  0  0  0  0
 10  3  1  0  0  0  0
 11  5  2  0  0  0  0
 12  4  1  0  0  0  0
 13 18  2  0  0  0  0
 15 23  1  0  0  0  0
 16  2  1  0  0  0  0
 17  3  1  0  0  0  0
 17 26  1  0  0  0  0
 19 26  1  0  0  0  0
 19  2  2  0  0  0  0
 20 17  2  0  0  0  0
 21 10  1  0  0  0  0
 22 20  1  1  0  0  0
 22 10  1  0  0  0  0
 23 14  1  0  0  0  0
 25 18  1  0  0  0  0
 26 25  2  0  0  0  0
 27 24  1  1  0  0  0
 27  7  1  0  0  0  0
 27 12  1  0  0  0  0
 28 11  1  0  0  0  0
 28 30  1  0  0  0  0
 29 30  1  0  0  0  0
M  END
>  <MODEL>
7

>  <REMARK>
 VINA RESULT:      -7.4      1.256      1.676
  Name = 
  2 active torsions:
  status: ('A' for Active; 'I' for Inactive)
    1  A    between atoms: C_11  and  O_28
    2  A    between atoms: O_28  and  C_30
                            x       y       z     vdW  Elec       q    Type
                         _______ _______ _______ _____ _____    ______ ____

>  <TORSDO>
F 2

$$$$
=
 OpenBabel11122410293D

 30 35  0  0  1  0  0  0  0  0999 V2000
  188.2790  177.5940  142.4650 C   0  0  0  0  0  0  0  0  0  0  0  0
  186.0370  178.2770  143.4040 C   0  0  0  0  0  0  0  0  0  0  0  0
  187.0990  178.6030  138.5870 N   0  0  0  0  0  2  0  0  0  0  0  0
  189.1350  177.4520  141.3320 C   0  0  0  0  0  0  0  0  0  0  0  0
  188.7570  177.2300  143.6810 N   0  0  0  0  0  0  0  0  0  0  0  0
  192.0090  176.1260  142.9140 O   0  0  0  0  0  0  0  0  0  0  0  0
  190.7990  175.8430  139.2690 C   0  0  1  0  0  3  0  0  0  0  0  0
  190.8450  176.5900  142.7470 C   0  0  0  0  0  0  0  0  0  0  0  0
  189.7370  176.4330  138.3460 C   0  0  2  0  0  3  0  0  0  0  0  0
  188.2170  178.3020  137.7850 N   0  0  0  0  0  0  0  0  0  0  0  0
  190.0090  176.7380  143.8530 C   0  0  0  0  0  0  0  0  0  0  0  0
  190.4070  176.9420  141.4970 N   0  0  0  0  0  0  0  0  0  0  0  0
  184.7540  178.7800  143.1680 C   0  0  0  0  0  3  0  0  0  0  0  0
  190.3840  176.4320  136.9770 C   0  0  0  0  0  2  0  0  0  0  0  0
  191.9170  175.3760  138.3570 C   0  0  0  0  0  2  0  0  0  0  0  0
  186.3970  177.9010  145.0870 Cl  0  0  0  0  0  0  0  0  0  0  0  0
  187.3630  178.3050  139.9380 C   0  0  0  0  0  0  0  0  0  0  0  0
  184.3390  179.1190  141.8830 C   0  0  0  0  0  3  0  0  0  0  0  0
  186.9470  178.1050  142.3190 C   0  0  0  0  0  0  0  0  0  0  0  0
  188.6210  177.8290  140.0790 C   0  0  0  0  0  0  0  0  0  0  0  0
  188.6840  179.5580  137.2220 C   0  0  0  0  0  1  0  0  0  0  0  0
  189.2590  177.8340  138.7260 C   0  0  1  0  0  3  0  0  0  0  0  0
  191.4240  175.4160  136.9880 N   0  0  0  0  0  2  0  0  0  0  0  0
  191.9730  178.0680  139.9190 C   0  0  0  0  0  1  0  0  0  0  0  0
  185.2080  178.9600  140.8100 C   0  0  0  0  0  3  0  0  0  0  0  0
  186.4970  178.4610  141.0140 C   0  0  0  0  0  0  0  0  0  0  0  0
  191.3490  176.7550  140.3810 C   0  0  2  0  0  3  0  0  0  0  0  0
  190.4620  176.3770  145.1250 O   0  0  0  0  0  0  0  0  0  0  0  0
  189.5490  176.7450  147.3080 C   0  0  0  0  0  1  0  0  0  0  0  0
  190.4470  177.2830  146.2170 C   0  0  0  0  0  2  0  0  0  0  0  0
  1  5  1  0  0  0  0
  2 16  1  0  0  0  0
  3 17  1  0  0  0  0
  4 12  1  0  0  0  0
  4  1  2  0  0  0  0
  5 11  2  0  0  0  0
  7 15  1  6  0  0  0
  7 27  1  0  0  0  0
  8  6  2  0  0  0  0
  8 11  1  0  0  0  0
  9 14  1  6  0  0  0
  9 22  1  0  0  0  0
  9  7  1  0  0  0  0
 10  3  1  0  0  0  0
 10 22  1  0  0  0  0
 11 28  1  0  0  0  0
 12  8  1  0  0  0  0
 13  2  1  0  0  0  0
 14 23  1  0  0  0  0
 17 20  2  0  0  0  0
 17 26  1  0  0  0  0
 18 13  2  0  0  0  0
 19  1  1  0  0  0  0
 19  2  2  0  0  0  0
 20  4  1  0  0  0  0
 21 10  1  0  0  0  0
 22 20  1  1  0  0  0
 23 15  1  0  0  0  0
 25 26  2  0  0  0  0
 25 18  1  0  0  0  0
 26 19  1  0  0  0  0
 27 24  1  6  0  0  0
 27 12  1  0  0  0  0
 28 30  1  0  0  0  0
 30 29  1  0  0  0  0
M  END
>  <MODEL>
8

>  <REMARK>
 VINA RESULT:      -7.1      3.565      6.673
  Name = 
  2 active torsions:
  status: ('A' for Active; 'I' for Inactive)
    1  A    between atoms: C_11  and  O_28
    2  A    between atoms: O_28  and  C_30
                            x       y       z     vdW  Elec       q    Type
                         _______ _______ _______ _____ _____    ______ ____

>  <TORSDO>
F 2

$$$$
=
 OpenBabel11122410293D

 30 35  0  0  1  0  0  0  0  0999 V2000
  185.5730  178.4330  142.4240 C   0  0  0  0  0  0  0  0  0  0  0  0
  188.0680  178.1480  142.6860 C   0  0  0  0  0  0  0  0  0  0  0  0
  185.8600  178.2170  138.2620 N   0  0  0  0  0  2  0  0  0  0  0  0
  184.4390  178.5270  141.5620 C   0  0  0  0  0  0  0  0  0  0  0  0
  185.3710  178.5230  143.7620 N   0  0  0  0  0  0  0  0  0  0  0  0
  181.8880  178.9700  143.9720 O   0  0  0  0  0  0  0  0  0  0  0  0
  182.0290  179.9800  140.2590 C   0  0  1  0  0  3  0  0  0  0  0  0
  183.0310  178.8010  143.4630 C   0  0  0  0  0  0  0  0  0  0  0  0
  182.9020  179.7620  139.0270 C   0  0  2  0  0  3  0  0  0  0  0  0
  184.5370  178.3640  137.8060 N   0  0  0  0  0  0  0  0  0  0  0  0
  184.1400  178.7010  144.3020 C   0  0  0  0  0  0  0  0  0  0  0  0
  183.1840  178.7180  142.1040 N   0  0  0  0  0  0  0  0  0  0  0  0
  189.3130  177.9760  142.0750 C   0  0  0  0  0  3  0  0  0  0  0  0
  181.9310  179.7960  137.8660 C   0  0  0  0  0  2  0  0  0  0  0  0
  180.6470  180.3010  139.7270 C   0  0  0  0  0  2  0  0  0  0  0  0
  188.0980  178.2160  144.4460 Cl  0  0  0  0  0  0  0  0  0  0  0  0
  185.9090  178.2730  139.6700 C   0  0  0  0  0  0  0  0  0  0  0  0
  189.4330  177.9050  140.6900 C   0  0  0  0  0  3  0  0  0  0  0  0
  186.8900  178.2530  141.8880 C   0  0  0  0  0  0  0  0  0  0  0  0
  184.6670  178.4370  140.1780 C   0  0  0  0  0  0  0  0  0  0  0  0
  184.1750  177.1190  137.1490 C   0  0  0  0  0  1  0  0  0  0  0  0
  183.7100  178.4650  139.0300 C   0  0  1  0  0  3  0  0  0  0  0  0
  180.7630  180.5480  138.2970 N   0  0  0  0  0  2  0  0  0  0  0  0
  181.4910  177.4860  140.7510 C   0  0  0  0  0  1  0  0  0  0  0  0
  188.2990  178.0040  139.8910 C   0  0  0  0  0  3  0  0  0  0  0  0
  187.0410  178.1760  140.4720 C   0  0  0  0  0  0  0  0  0  0  0  0
  181.9650  178.8340  141.2860 C   0  0  2  0  0  3  0  0  0  0  0  0
  183.9770  178.7860  145.6880 O   0  0  0  0  0  0  0  0  0  0  0  0
  185.8430  179.3590  147.0760 C   0  0  0  0  0  1  0  0  0  0  0  0
  184.9300  178.2530  146.5940 C   0  0  0  0  0  2  0  0  0  0  0  0
  1  5  1  0  0  0  0
  2 16  1  0  0  0  0
  3 17  1  0  0  0  0
  4 12  1  0  0  0  0
  4  1  2  0  0  0  0
  5 11  2  0  0  0  0
  7 15  1  6  0  0  0
  7 27  1  0  0  0  0
  8  6  2  0  0  0  0
  8 11  1  0  0  0  0
  9 14  1  6  0  0  0
  9 22  1  0  0  0  0
  9  7  1  0  0  0  0
 10  3  1  0  0  0  0
 10 22  1  0  0  0  0
 11 28  1  0  0  0  0
 12  8  1  0  0  0  0
 13  2  1  0  0  0  0
 14 23  1  0  0  0  0
 17 20  2  0  0  0  0
 17 26  1  0  0  0  0
 18 13  2  0  0  0  0
 19  1  1  0  0  0  0
 19  2  2  0  0  0  0
 20  4  1  0  0  0  0
 21 10  1  0  0  0  0
 22 20  1  1  0  0  0
 23 15  1  0  0  0  0
 25 26  2  0  0  0  0
 25 18  1  0  0  0  0
 26 19  1  0  0  0  0
 27 24  1  6  0  0  0
 27 12  1  0  0  0  0
 28 30  1  0  0  0  0
 30 29  1  0  0  0  0
M  END
>  <MODEL>
9

>  <REMARK>
 VINA RESULT:      -7.0      2.389      4.817
  Name = 
  2 active torsions:
  status: ('A' for Active; 'I' for Inactive)
    1  A    between atoms: C_11  and  O_28
    2  A    between atoms: O_28  and  C_30
                            x       y       z     vdW  Elec       q    Type
                         _______ _______ _______ _____ _____    ______ ____

>  <TORSDO>
F 2

$$$$
