=
 OpenBabel11122411383D

 37 42  0  0  1  0  0  0  0  0999 V2000
  190.3180  176.7310  142.4400 S   0  0  0  0  0  0  0  0  0  0  0  0
  186.7430  178.1350  140.3780 C   0  0  0  0  0  0  0  0  0  0  0  0
  186.3880  177.6090  136.4320 C   0  0  0  0  0  2  0  0  0  0  0  0
  188.0450  178.2190  142.4310 C   0  0  0  0  0  0  0  0  0  0  0  0
  186.9140  177.5520  138.9920 C   0  0  1  0  0  3  0  0  0  0  0  0
  187.9020  177.8850  141.0760 C   0  0  0  0  0  0  0  0  0  0  0  0
  186.1730  178.2430  137.8250 C   0  0  2  0  0  3  0  0  0  0  0  0
  186.9680  178.8410  143.0720 C   0  0  0  0  0  3  0  0  0  0  0  0
  188.8930  177.2690  140.2650 N   0  0  0  0  0  0  0  0  0  0  0  0
  189.7480  175.3840  142.7750 O   0  0  0  0  0  0  0  0  0  0  0  0
  184.2850  178.9510  140.4050 C   0  0  0  0  0  2  0  0  0  0  0  0
  185.7740  179.0900  142.3750 C   0  0  0  0  0  3  0  0  0  0  0  0
  190.2630  176.9870  140.6820 C   0  0  0  0  0  2  0  0  0  0  0  0
  188.5540  177.8920  135.8350 C   0  0  1  0  0  3  0  0  0  0  0  0
  187.6250  176.9550  136.3230 O   0  0  0  0  0  0  0  0  0  0  0  0
  185.6390  178.7440  141.0220 C   0  0  0  0  0  0  0  0  0  0  0  0
  188.4620  177.3650  138.8780 C   0  0  2  0  0  3  0  0  0  0  0  0
  189.3270  178.0110  143.1840 C   0  0  0  0  0  2  0  0  0  0  0  0
  184.7440  178.3230  138.1210 N   0  0  0  0  0  0  0  0  0  0  0  0
  191.7340  176.8190  142.9320 O   0  0  0  0  0  0  0  0  0  0  0  0
  188.8310  179.0140  136.8490 C   0  0  0  0  0  2  0  0  0  0  0  0
  189.2410  178.5440  138.2490 C   0  0  0  0  0  2  0  0  0  0  0  0
  184.3420  179.4340  138.9670 C   0  0  0  0  0  2  0  0  0  0  0  0
  182.4580  177.4080  137.8560 C   0  0  0  0  0  3  0  0  0  0  0  0
  183.8480  177.2050  137.9300 C   0  0  0  0  0  0  0  0  0  0  0  0
  184.3390  175.9370  137.8340 N   0  0  0  0  0  0  0  0  0  0  0  0
  184.1130  173.4960  137.6020 C   0  0  0  0  0  1  0  0  0  0  0  0
  182.1390  175.0320  137.5970 C   0  0  0  0  0  3  0  0  0  0  0  0
  183.5270  174.8590  137.6720 C   0  0  0  0  0  0  0  0  0  0  0  0
  181.6060  176.3170  137.6870 C   0  0  0  0  0  3  0  0  0  0  0  0
  192.1180  175.5260  134.8430 O   0  0  0  0  0  0  0  0  0  0  0  0
  191.3010  175.1570  135.7270 C   0  0  0  0  0  0  0  0  0  0  0  0
  189.8200  177.2010  135.4390 C   0  0  0  0  0  0  0  0  0  0  0  0
  190.1370  175.9360  136.0290 N   0  0  0  0  0  2  0  0  0  0  0  0
  190.5930  177.7300  134.5950 O   0  0  0  0  0  0  0  0  0  0  0  0
  190.5490  173.7030  137.4180 O   0  0  0  0  0  1  0  0  0  0  0  0
  191.5280  173.8740  136.4420 C   0  0  0  0  0  2  0  0  0  0  0  0
  1 10  2  0  0  0  0
  1 20  2  0  0  0  0
  1 18  1  0  0  0  0
  2 16  2  0  0  0  0
  2  6  1  0  0  0  0
  4  8  1  0  0  0  0
  4 18  1  0  0  0  0
  5  2  1  1  0  0  0
  6  4  2  0  0  0  0
  7  3  1  6  0  0  0
  7 19  1  0  0  0  0
  7  5  1  0  0  0  0
  9 13  1  0  0  0  0
  9  6  1  0  0  0  0
 11 16  1  0  0  0  0
 12  8  2  0  0  0  0
 13  1  1  0  0  0  0
 14 33  1  1  0  0  0
 14 15  1  0  0  0  0
 14 21  1  0  0  0  0
 15  3  1  0  0  0  0
 16 12  1  0  0  0  0
 17 22  1  1  0  0  0
 17  5  1  0  0  0  0
 17  9  1  0  0  0  0
 19 23  1  0  0  0  0
 21 22  1  0  0  0  0
 23 11  1  0  0  0  0
 24 25  1  0  0  0  0
 25 19  1  0  0  0  0
 26 25  2  0  0  0  0
 27 29  1  0  0  0  0
 28 29  2  0  0  0  0
 28 30  1  0  0  0  0
 29 26  1  0  0  0  0
 30 24  2  0  0  0  0
 31 32  2  0  0  0  0
 32 34  1  0  0  0  0
 32 37  1  0  0  0  0
 33 34  1  0  0  0  0
 35 33  2  0  0  0  0
 37 36  1  0  0  0  0
M  END
>  <MODEL>
1

>  <REMARK>
 VINA RESULT:      -6.7      0.000      0.000
  Name = 
  3 active torsions:
  status: ('A' for Active; 'I' for Inactive)
    1  A    between atoms: C_4  and  C_37
    2  A    between atoms: C_8  and  C_18
    3  A    between atoms: N_23  and  C_30
                            x       y       z     vdW  Elec       q    Type
                         _______ _______ _______ _____ _____    ______ ____

>  <TORSDO>
F 3

$$$$
=
 OpenBabel11122411383D

 37 42  0  0  1  0  0  0  0  0999 V2000
  190.3250  177.1090  143.1000 S   0  0  0  0  0  0  0  0  0  0  0  0
  188.8050  177.0610  139.0140 C   0  0  0  0  0  0  0  0  0  0  0  0
  190.7060  174.9400  136.2110 C   0  0  0  0  0  2  0  0  0  0  0  0
  188.6930  178.1440  141.1900 C   0  0  0  0  0  0  0  0  0  0  0  0
  189.6570  175.9960  138.3600 C   0  0  1  0  0  3  0  0  0  0  0  0
  189.3080  177.2740  140.2770 C   0  0  0  0  0  0  0  0  0  0  0  0
  189.8200  176.0480  136.8240 C   0  0  2  0  0  3  0  0  0  0  0  0
  187.5400  178.8200  140.7790 C   0  0  0  0  0  3  0  0  0  0  0  0
  190.4900  176.5220  140.5160 N   0  0  0  0  0  0  0  0  0  0  0  0
  189.4900  175.9490  143.5580 O   0  0  0  0  0  0  0  0  0  0  0  0
  186.9120  177.4780  137.2960 C   0  0  0  0  0  2  0  0  0  0  0  0
  187.0070  178.6020  139.4980 C   0  0  0  0  0  3  0  0  0  0  0  0
  191.3210  176.6220  141.7110 C   0  0  0  0  0  2  0  0  0  0  0  0
  192.8370  175.2480  136.9110 C   0  0  1  0  0  3  0  0  0  0  0  0
  191.6810  174.4720  137.1060 O   0  0  0  0  0  0  0  0  0  0  0  0
  187.6260  177.7230  138.5950 C   0  0  0  0  0  0  0  0  0  0  0  0
  190.9490  175.9900  139.2420 C   0  0  2  0  0  3  0  0  0  0  0  0
  189.2710  178.4330  142.5450 C   0  0  0  0  0  2  0  0  0  0  0  0
  188.5060  176.0480  136.1850 N   0  0  0  0  0  0  0  0  0  0  0  0
  191.2000  177.5790  144.2260 O   0  0  0  0  0  0  0  0  0  0  0  0
  192.6330  176.7100  137.3380 C   0  0  0  0  0  2  0  0  0  0  0  0
  192.0990  176.9070  138.7620 C   0  0  0  0  0  2  0  0  0  0  0  0
  187.8470  177.3400  136.1090 C   0  0  0  0  0  2  0  0  0  0  0  0
  187.8140  174.1350  134.7720 C   0  0  0  0  0  3  0  0  0  0  0  0
  187.7390  174.8380  135.9880 C   0  0  0  0  0  0  0  0  0  0  0  0
  186.9240  174.3710  136.9760 N   0  0  0  0  0  0  0  0  0  0  0  0
  185.2810  172.7990  137.9200 C   0  0  0  0  0  1  0  0  0  0  0  0
  186.2280  172.5290  135.6210 C   0  0  0  0  0  3  0  0  0  0  0  0
  186.1750  173.2470  136.8220 C   0  0  0  0  0  0  0  0  0  0  0  0
  187.0550  172.9780  134.5940 C   0  0  0  0  0  3  0  0  0  0  0  0
  196.2110  173.1340  138.7660 O   0  0  0  0  0  0  0  0  0  0  0  0
  195.3870  172.5440  138.0180 C   0  0  0  0  0  0  0  0  0  0  0  0
  193.9940  174.6340  137.6330 C   0  0  0  0  0  0  0  0  0  0  0  0
  194.3000  173.2520  137.4110 N   0  0  0  0  0  2  0  0  0  0  0  0
  194.6890  175.3290  138.4230 O   0  0  0  0  0  0  0  0  0  0  0  0
  195.1190  170.3450  138.8130 O   0  0  0  0  0  1  0  0  0  0  0  0
  195.5700  171.0970  137.7300 C   0  0  0  0  0  2  0  0  0  0  0  0
  1 10  2  0  0  0  0
  1 20  2  0  0  0  0
  2  6  1  0  0  0  0
  3 15  1  0  0  0  0
  4 18  1  0  0  0  0
  5  2  1  1  0  0  0
  5 17  1  0  0  0  0
  6  9  1  0  0  0  0
  6  4  2  0  0  0  0
  7  3  1  6  0  0  0
  7  5  1  0  0  0  0
  8  4  1  0  0  0  0
  9 13  1  0  0  0  0
 11 16  1  0  0  0  0
 12  8  2  0  0  0  0
 13  1  1  0  0  0  0
 14 15  1  0  0  0  0
 14 21  1  0  0  0  0
 14 33  1  1  0  0  0
 16  2  2  0  0  0  0
 16 12  1  0  0  0  0
 17 22  1  6  0  0  0
 17  9  1  0  0  0  0
 18  1  1  0  0  0  0
 19  7  1  0  0  0  0
 21 22  1  0  0  0  0
 23 19  1  0  0  0  0
 23 11  1  0  0  0  0
 24 25  1  0  0  0  0
 25 19  1  0  0  0  0
 25 26  2  0  0  0  0
 28 29  2  0  0  0  0
 29 26  1  0  0  0  0
 29 27  1  0  0  0  0
 30 24  2  0  0  0  0
 30 28  1  0  0  0  0
 32 31  2  0  0  0  0
 33 35  2  0  0  0  0
 34 33  1  0  0  0  0
 34 32  1  0  0  0  0
 37 32  1  0  0  0  0
 37 36  1  0  0  0  0
M  END
>  <MODEL>
2

>  <REMARK>
 VINA RESULT:      -6.7      2.776      4.197
  Name = 
  3 active torsions:
  status: ('A' for Active; 'I' for Inactive)
    1  A    between atoms: C_4  and  C_37
    2  A    between atoms: C_8  and  C_18
    3  A    between atoms: N_23  and  C_30
                            x       y       z     vdW  Elec       q    Type
                         _______ _______ _______ _____ _____    ______ ____

>  <TORSDO>
F 3

$$$$
=
 OpenBabel11122411383D

 37 42  0  0  1  0  0  0  0  0999 V2000
  186.6150  177.8610  144.3770 S   0  0  0  0  0  0  0  0  0  0  0  0
  182.8230  178.3020  142.2720 C   0  0  0  0  0  0  0  0  0  0  0  0
  182.6220  177.5320  138.3560 C   0  0  0  0  0  2  0  0  0  0  0  0
  184.0590  178.7780  144.3130 C   0  0  0  0  0  0  0  0  0  0  0  0
  183.1330  177.7130  140.9130 C   0  0  1  0  0  3  0  0  0  0  0  0
  184.0050  178.3590  142.9750 C   0  0  0  0  0  0  0  0  0  0  0  0
  182.2580  178.1610  139.7200 C   0  0  2  0  0  3  0  0  0  0  0  0
  182.8640  179.1600  144.9310 C   0  0  0  0  0  3  0  0  0  0  0  0
  185.1160  177.9550  142.1870 N   0  0  0  0  0  0  0  0  0  0  0  0
  186.3730  176.4350  144.7740 O   0  0  0  0  0  0  0  0  0  0  0  0
  180.2420  178.5240  142.2760 C   0  0  0  0  0  2  0  0  0  0  0  0
  181.6490  179.0930  144.2300 C   0  0  0  0  0  3  0  0  0  0  0  0
  186.5120  178.0190  142.6090 C   0  0  0  0  0  2  0  0  0  0  0  0
  184.6660  178.2850  137.7360 C   0  0  1  0  0  3  0  0  0  0  0  0
  183.9780  177.1810  138.2690 O   0  0  0  0  0  0  0  0  0  0  0  0
  181.6040  178.6660  142.8940 C   0  0  0  0  0  0  0  0  0  0  0  0
  184.6830  177.8860  140.8000 C   0  0  2  0  0  3  0  0  0  0  0  0
  185.3500  178.9070  145.0670 C   0  0  0  0  0  2  0  0  0  0  0  0
  180.8480  177.9190  140.0190 N   0  0  0  0  0  0  0  0  0  0  0  0
  187.9700  178.2980  144.8570 O   0  0  0  0  0  0  0  0  0  0  0  0
  184.6680  179.4840  138.6970 C   0  0  0  0  0  2  0  0  0  0  0  0
  185.1690  179.1850  140.1140 C   0  0  0  0  0  2  0  0  0  0  0  0
  180.1940  178.9420  140.8170 C   0  0  0  0  0  2  0  0  0  0  0  0
  179.6980  176.2050  138.6510 C   0  0  0  0  0  3  0  0  0  0  0  0
  180.2370  176.6160  139.8830 C   0  0  0  0  0  0  0  0  0  0  0  0
  180.1660  175.7730  140.9530 N   0  0  0  0  0  0  0  0  0  0  0  0
  179.5080  173.6820  142.0720 C   0  0  0  0  0  1  0  0  0  0  0  0
  179.0370  174.1140  139.6540 C   0  0  0  0  0  3  0  0  0  0  0  0
  179.5850  174.5480  140.8680 C   0  0  0  0  0  0  0  0  0  0  0  0
  179.0990  174.9500  138.5410 C   0  0  0  0  0  3  0  0  0  0  0  0
  188.6120  176.7550  136.5620 O   0  0  0  0  0  0  0  0  0  0  0  0
  187.6640  175.9840  136.8690 C   0  0  0  0  0  0  0  0  0  0  0  0
  186.0600  177.8900  137.3640 C   0  0  0  0  0  0  0  0  0  0  0  0
  186.3800  176.5010  137.2380 N   0  0  0  0  0  2  0  0  0  0  0  0
  186.9360  178.7750  137.1630 O   0  0  0  0  0  0  0  0  0  0  0  0
  186.7310  173.8620  137.2740 O   0  0  0  0  0  1  0  0  0  0  0  0
  187.8730  174.5130  136.8120 C   0  0  0  0  0  2  0  0  0  0  0  0
  1 10  2  0  0  0  0
  1 20  2  0  0  0  0
  1 18  1  0  0  0  0
  2 16  2  0  0  0  0
  2  6  1  0  0  0  0
  4  8  1  0  0  0  0
  4 18  1  0  0  0  0
  5  2  1  1  0  0  0
  6  4  2  0  0  0  0
  7  3  1  6  0  0  0
  7 19  1  0  0  0  0
  7  5  1  0  0  0  0
  9 13  1  0  0  0  0
  9  6  1  0  0  0  0
 11 16  1  0  0  0  0
 12  8  2  0  0  0  0
 13  1  1  0  0  0  0
 14 33  1  1  0  0  0
 14 15  1  0  0  0  0
 14 21  1  0  0  0  0
 15  3  1  0  0  0  0
 16 12  1  0  0  0  0
 17 22  1  6  0  0  0
 17  5  1  0  0  0  0
 17  9  1  0  0  0  0
 19 23  1  0  0  0  0
 21 22  1  0  0  0  0
 23 11  1  0  0  0  0
 24 25  1  0  0  0  0
 25 19  1  0  0  0  0
 25 26  2  0  0  0  0
 28 29  2  0  0  0  0
 29 26  1  0  0  0  0
 29 27  1  0  0  0  0
 30 24  2  0  0  0  0
 30 28  1  0  0  0  0
 31 32  2  0  0  0  0
 32 34  1  0  0  0  0
 34 33  1  0  0  0  0
 35 33  2  0  0  0  0
 37 32  1  0  0  0  0
 37 36  1  0  0  0  0
M  END
>  <MODEL>
3

>  <REMARK>
 VINA RESULT:      -6.5      3.173      4.356
  Name = 
  3 active torsions:
  status: ('A' for Active; 'I' for Inactive)
    1  A    between atoms: C_4  and  C_37
    2  A    between atoms: C_8  and  C_18
    3  A    between atoms: N_23  and  C_30
                            x       y       z     vdW  Elec       q    Type
                         _______ _______ _______ _____ _____    ______ ____

>  <TORSDO>
F 3

$$$$
=
 OpenBabel11122411383D

 37 42  0  0  1  0  0  0  0  0999 V2000
  186.6620  177.8190  144.3330 S   0  0  0  0  0  0  0  0  0  0  0  0
  182.8070  178.2520  142.3440 C   0  0  0  0  0  0  0  0  0  0  0  0
  182.4940  177.5060  138.4300 C   0  0  0  0  0  2  0  0  0  0  0  0
  184.1000  178.7230  144.3500 C   0  0  0  0  0  0  0  0  0  0  0  0
  183.0790  177.6740  140.9720 C   0  0  1  0  0  3  0  0  0  0  0  0
  184.0090  178.3120  143.0110 C   0  0  0  0  0  0  0  0  0  0  0  0
  182.1670  178.1240  139.8080 C   0  0  2  0  0  3  0  0  0  0  0  0
  182.9220  179.0940  145.0060 C   0  0  0  0  0  3  0  0  0  0  0  0
  185.0980  177.9180  142.1890 N   0  0  0  0  0  0  0  0  0  0  0  0
  186.4390  176.3890  144.7280 O   0  0  0  0  0  0  0  0  0  0  0  0
  180.2260  178.4610  142.4250 C   0  0  0  0  0  2  0  0  0  0  0  0
  181.6870  179.0250  144.3400 C   0  0  0  0  0  3  0  0  0  0  0  0
  186.5050  177.9870  142.5700 C   0  0  0  0  0  2  0  0  0  0  0  0
  184.5150  178.2730  137.7550 C   0  0  1  0  0  3  0  0  0  0  0  0
  183.8490  177.1620  138.3020 O   0  0  0  0  0  0  0  0  0  0  0  0
  181.6050  178.6060  143.0030 C   0  0  0  0  0  0  0  0  0  0  0  0
  184.6240  177.8560  140.8150 C   0  0  2  0  0  3  0  0  0  0  0  0
  185.4120  178.8540  145.0670 C   0  0  0  0  0  2  0  0  0  0  0  0
  180.7680  177.8730  140.1480 N   0  0  0  0  0  0  0  0  0  0  0  0
  188.0280  178.2610  144.7750 O   0  0  0  0  0  0  0  0  0  0  0  0
  184.5390  179.4670  138.7230 C   0  0  0  0  0  2  0  0  0  0  0  0
  185.0830  179.1620  140.1230 C   0  0  0  0  0  2  0  0  0  0  0  0
  180.1320  178.8870  140.9720 C   0  0  0  0  0  2  0  0  0  0  0  0
  179.5250  176.1880  138.8260 C   0  0  0  0  0  3  0  0  0  0  0  0
  180.1600  176.5670  140.0220 C   0  0  0  0  0  0  0  0  0  0  0  0
  180.1850  175.6920  141.0670 N   0  0  0  0  0  0  0  0  0  0  0  0
  179.6400  173.5600  142.1710 C   0  0  0  0  0  1  0  0  0  0  0  0
  178.9690  174.0590  139.8140 C   0  0  0  0  0  3  0  0  0  0  0  0
  179.6100  174.4620  140.9920 C   0  0  0  0  0  0  0  0  0  0  0  0
  178.9310  174.9300  138.7260 C   0  0  0  0  0  3  0  0  0  0  0  0
  188.6880  177.1830  136.9280 O   0  0  0  0  0  0  0  0  0  0  0  0
  188.3550  177.7860  137.9830 C   0  0  0  0  0  0  0  0  0  0  0  0
  185.8990  177.8890  137.3400 C   0  0  0  0  0  0  0  0  0  0  0  0
  186.9870  178.1220  138.2420 N   0  0  0  0  0  2  0  0  0  0  0  0
  186.0990  177.3640  136.2110 O   0  0  0  0  0  0  0  0  0  0  0  0
  188.7820  178.5410  140.1700 O   0  0  0  0  0  1  0  0  0  0  0  0
  189.3940  178.1190  138.9920 C   0  0  0  0  0  2  0  0  0  0  0  0
  1 10  2  0  0  0  0
  1 20  2  0  0  0  0
  1 18  1  0  0  0  0
  2 16  2  0  0  0  0
  2  6  1  0  0  0  0
  4  8  1  0  0  0  0
  4 18  1  0  0  0  0
  5  2  1  1  0  0  0
  6  4  2  0  0  0  0
  7  3  1  6  0  0  0
  7 19  1  0  0  0  0
  7  5  1  0  0  0  0
  9 13  1  0  0  0  0
  9  6  1  0  0  0  0
 11 16  1  0  0  0  0
 12  8  2  0  0  0  0
 13  1  1  0  0  0  0
 14 33  1  1  0  0  0
 14 15  1  0  0  0  0
 14 21  1  0  0  0  0
 15  3  1  0  0  0  0
 16 12  1  0  0  0  0
 17 22  1  6  0  0  0
 17  5  1  0  0  0  0
 17  9  1  0  0  0  0
 19 23  1  0  0  0  0
 21 22  1  0  0  0  0
 23 11  1  0  0  0  0
 24 25  1  0  0  0  0
 25 19  1  0  0  0  0
 25 26  2  0  0  0  0
 28 29  2  0  0  0  0
 29 26  1  0  0  0  0
 29 27  1  0  0  0  0
 30 24  2  0  0  0  0
 30 28  1  0  0  0  0
 31 32  2  0  0  0  0
 32 34  1  0  0  0  0
 32 37  1  0  0  0  0
 33 34  1  0  0  0  0
 35 33  2  0  0  0  0
 37 36  1  0  0  0  0
M  END
>  <MODEL>
4

>  <REMARK>
 VINA RESULT:      -6.3      3.175      4.548
  Name = 
  3 active torsions:
  status: ('A' for Active; 'I' for Inactive)
    1  A    between atoms: C_4  and  C_37
    2  A    between atoms: C_8  and  C_18
    3  A    between atoms: N_23  and  C_30
                            x       y       z     vdW  Elec       q    Type
                         _______ _______ _______ _____ _____    ______ ____

>  <TORSDO>
F 3

$$$$
=
 OpenBabel11122411383D

 37 42  0  0  1  0  0  0  0  0999 V2000
  189.8200  177.4500  141.6450 S   0  0  0  0  0  0  0  0  0  0  0  0
  188.6250  176.2890  137.6160 C   0  0  0  0  0  0  0  0  0  0  0  0
  190.9320  173.8090  135.4960 C   0  0  0  0  0  2  0  0  0  0  0  0
  188.2440  177.8250  139.4640 C   0  0  0  0  0  0  0  0  0  0  0  0
  189.6250  175.2060  137.2770 C   0  0  1  0  0  3  0  0  0  0  0  0
  189.0090  176.8430  138.8160 C   0  0  0  0  0  0  0  0  0  0  0  0
  189.8980  174.9210  135.7830 C   0  0  2  0  0  3  0  0  0  0  0  0
  187.0640  178.2530  138.8470 C   0  0  0  0  0  3  0  0  0  0  0  0
  190.2380  176.3060  139.2860 N   0  0  0  0  0  0  0  0  0  0  0  0
  189.0710  176.3400  142.3220 O   0  0  0  0  0  0  0  0  0  0  0  0
  186.8360  176.0820  135.7550 C   0  0  0  0  0  2  0  0  0  0  0  0
  186.6540  177.6860  137.6290 C   0  0  0  0  0  3  0  0  0  0  0  0
  190.9620  176.7720  140.4640 C   0  0  0  0  0  2  0  0  0  0  0  0
  192.9640  174.5090  136.2090 C   0  0  1  0  0  3  0  0  0  0  0  0
  191.8770  173.6730  136.5240 O   0  0  0  0  0  0  0  0  0  0  0  0
  187.4220  176.6990  136.9930 C   0  0  0  0  0  0  0  0  0  0  0  0
  190.8410  175.5490  138.1990 C   0  0  2  0  0  3  0  0  0  0  0  0
  188.6860  178.4820  140.7390 C   0  0  0  0  0  2  0  0  0  0  0  0
  188.6430  174.6240  135.0960 N   0  0  0  0  0  0  0  0  0  0  0  0
  190.5580  178.2630  142.6700 O   0  0  0  0  0  0  0  0  0  0  0  0
  192.5850  175.9970  136.2660 C   0  0  0  0  0  2  0  0  0  0  0  0
  191.9280  176.4550  137.5740 C   0  0  0  0  0  2  0  0  0  0  0  0
  187.8670  175.7810  134.6830 C   0  0  0  0  0  2  0  0  0  0  0  0
  186.6680  173.1960  135.5380 C   0  0  0  0  0  3  0  0  0  0  0  0
  188.0150  173.3230  135.1540 C   0  0  0  0  0  0  0  0  0  0  0  0
  188.7260  172.2000  134.8500 N   0  0  0  0  0  0  0  0  0  0  0  0
  189.0050  169.7680  134.5950 C   0  0  0  0  0  1  0  0  0  0  0  0
  186.8370  170.8040  135.2900 C   0  0  0  0  0  3  0  0  0  0  0  0
  188.1750  170.9590  134.9090 C   0  0  0  0  0  0  0  0  0  0  0  0
  186.0820  171.9320  135.6030 C   0  0  0  0  0  3  0  0  0  0  0  0
  196.5620  173.9230  138.6590 O   0  0  0  0  0  0  0  0  0  0  0  0
  196.6090  174.4840  137.5320 C   0  0  0  0  0  0  0  0  0  0  0  0
  194.1180  174.2130  137.1140 C   0  0  0  0  0  0  0  0  0  0  0  0
  195.4230  174.6780  136.7520 N   0  0  0  0  0  2  0  0  0  0  0  0
  193.9370  173.5640  138.1800 O   0  0  0  0  0  0  0  0  0  0  0  0
  197.6880  176.0020  136.0940 O   0  0  0  0  0  1  0  0  0  0  0  0
  197.9110  174.9860  137.0210 C   0  0  0  0  0  2  0  0  0  0  0  0
  1 10  2  0  0  0  0
  1 20  2  0  0  0  0
  2  6  1  0  0  0  0
  3 15  1  0  0  0  0
  4 18  1  0  0  0  0
  5  2  1  6  0  0  0
  5 17  1  0  0  0  0
  6  9  1  0  0  0  0
  6  4  2  0  0  0  0
  7  3  1  1  0  0  0
  7  5  1  0  0  0  0
  8  4  1  0  0  0  0
  9 13  1  0  0  0  0
 11 16  1  0  0  0  0
 12  8  2  0  0  0  0
 13  1  1  0  0  0  0
 14 21  1  0  0  0  0
 14 15  1  0  0  0  0
 14 33  1  1  0  0  0
 16  2  2  0  0  0  0
 16 12  1  0  0  0  0
 17 22  1  6  0  0  0
 17  9  1  0  0  0  0
 18  1  1  0  0  0  0
 19 25  1  0  0  0  0
 19  7  1  0  0  0  0
 21 22  1  0  0  0  0
 23 19  1  0  0  0  0
 23 11  1  0  0  0  0
 24 30  1  0  0  0  0
 25 24  2  0  0  0  0
 26 29  2  0  0  0  0
 26 25  1  0  0  0  0
 27 29  1  0  0  0  0
 28 30  2  0  0  0  0
 29 28  1  0  0  0  0
 32 31  2  0  0  0  0
 33 35  2  0  0  0  0
 34 33  1  0  0  0  0
 34 32  1  0  0  0  0
 36 37  1  0  0  0  0
 37 32  1  0  0  0  0
M  END
>  <MODEL>
5

>  <REMARK>
 VINA RESULT:      -6.3      3.169      5.182
  Name = 
  3 active torsions:
  status: ('A' for Active; 'I' for Inactive)
    1  A    between atoms: C_4  and  C_37
    2  A    between atoms: C_8  and  C_18
    3  A    between atoms: N_23  and  C_30
                            x       y       z     vdW  Elec       q    Type
                         _______ _______ _______ _____ _____    ______ ____

>  <TORSDO>
F 3

$$$$
=
 OpenBabel11122411383D

 37 42  0  0  1  0  0  0  0  0999 V2000
  190.4840  177.3390  142.1250 S   0  0  0  0  0  0  0  0  0  0  0  0
  187.5700  177.2490  138.8830 C   0  0  0  0  0  0  0  0  0  0  0  0
  188.4050  175.2670  135.5150 C   0  0  0  0  0  2  0  0  0  0  0  0
  188.2160  178.3010  140.9800 C   0  0  0  0  0  0  0  0  0  0  0  0
  188.1720  176.2400  137.9300 C   0  0  1  0  0  3  0  0  0  0  0  0
  188.4930  177.4760  139.8790 C   0  0  0  0  0  0  0  0  0  0  0  0
  187.7550  176.3180  136.4440 C   0  0  2  0  0  3  0  0  0  0  0  0
  186.9610  178.9160  141.0420 C   0  0  0  0  0  3  0  0  0  0  0  0
  189.7140  176.7900  139.6440 N   0  0  0  0  0  0  0  0  0  0  0  0
  189.9330  176.1300  142.8220 O   0  0  0  0  0  0  0  0  0  0  0  0
  185.1600  177.5770  137.9940 C   0  0  0  0  0  2  0  0  0  0  0  0
  186.0050  178.6820  140.0400 C   0  0  0  0  0  3  0  0  0  0  0  0
  190.9210  176.9230  140.4530 C   0  0  0  0  0  2  0  0  0  0  0  0
  190.6270  175.6860  135.3930 C   0  0  1  0  0  3  0  0  0  0  0  0
  189.6620  174.8450  135.9750 O   0  0  0  0  0  0  0  0  0  0  0  0
  186.2890  177.8490  138.9460 C   0  0  0  0  0  0  0  0  0  0  0  0
  189.6970  176.2970  138.2750 C   0  0  2  0  0  3  0  0  0  0  0  0
  189.2370  178.6080  142.0360 C   0  0  0  0  0  2  0  0  0  0  0  0
  186.3000  176.2500  136.3320 N   0  0  0  0  0  0  0  0  0  0  0  0
  191.6890  177.8460  142.8650 O   0  0  0  0  0  0  0  0  0  0  0  0
  190.5240  177.1300  135.9090 C   0  0  0  0  0  2  0  0  0  0  0  0
  190.5430  177.2820  137.4340 C   0  0  0  0  0  2  0  0  0  0  0  0
  185.5970  177.5040  136.5420 C   0  0  0  0  0  2  0  0  0  0  0  0
  186.0060  173.9650  137.2410 C   0  0  0  0  0  3  0  0  0  0  0  0
  185.5730  175.0010  136.3940 C   0  0  0  0  0  0  0  0  0  0  0  0
  184.4660  174.8090  135.6220 N   0  0  0  0  0  0  0  0  0  0  0  0
  182.5860  173.4750  134.7580 C   0  0  0  0  0  1  0  0  0  0  0  0
  184.1780  172.5930  136.4730 C   0  0  0  0  0  3  0  0  0  0  0  0
  183.7680  173.6430  135.6420 C   0  0  0  0  0  0  0  0  0  0  0  0
  185.3030  172.7610  137.2780 C   0  0  0  0  0  3  0  0  0  0  0  0
  194.7910  174.4340  136.0120 O   0  0  0  0  0  0  0  0  0  0  0  0
  194.5010  175.5260  135.4560 C   0  0  0  0  0  0  0  0  0  0  0  0
  191.9970  175.1300  135.6200 C   0  0  0  0  0  0  0  0  0  0  0  0
  193.1370  175.9240  135.2730 N   0  0  0  0  0  2  0  0  0  0  0  0
  192.1390  173.9780  136.1140 O   0  0  0  0  0  0  0  0  0  0  0  0
  195.4260  177.6850  135.6050 O   0  0  0  0  0  1  0  0  0  0  0  0
  195.5930  176.4330  135.0170 C   0  0  0  0  0  2  0  0  0  0  0  0
  1 10  2  0  0  0  0
  1 20  2  0  0  0  0
  2 16  2  0  0  0  0
  2  6  1  0  0  0  0
  3 15  1  0  0  0  0
  4  8  1  0  0  0  0
  4 18  1  0  0  0  0
  5 17  1  0  0  0  0
  5  2  1  1  0  0  0
  6  4  2  0  0  0  0
  7  3  1  6  0  0  0
  7  5  1  0  0  0  0
  9  6  1  0  0  0  0
  9 13  1  0  0  0  0
 11 16  1  0  0  0  0
 12  8  2  0  0  0  0
 13  1  1  0  0  0  0
 14 33  1  1  0  0  0
 14 21  1  0  0  0  0
 14 15  1  0  0  0  0
 16 12  1  0  0  0  0
 17 22  1  6  0  0  0
 17  9  1  0  0  0  0
 18  1  1  0  0  0  0
 19 25  1  0  0  0  0
 19  7  1  0  0  0  0
 19 23  1  0  0  0  0
 21 22  1  0  0  0  0
 23 11  1  0  0  0  0
 24 30  1  0  0  0  0
 25 24  2  0  0  0  0
 26 29  2  0  0  0  0
 26 25  1  0  0  0  0
 27 29  1  0  0  0  0
 28 30  2  0  0  0  0
 29 28  1  0  0  0  0
 32 31  2  0  0  0  0
 33 35  2  0  0  0  0
 34 32  1  0  0  0  0
 34 33  1  0  0  0  0
 37 32  1  0  0  0  0
 37 36  1  0  0  0  0
M  END
>  <MODEL>
6

>  <REMARK>
 VINA RESULT:      -6.1      2.000      3.006
  Name = 
  3 active torsions:
  status: ('A' for Active; 'I' for Inactive)
    1  A    between atoms: C_4  and  C_37
    2  A    between atoms: C_8  and  C_18
    3  A    between atoms: N_23  and  C_30
                            x       y       z     vdW  Elec       q    Type
                         _______ _______ _______ _____ _____    ______ ____

>  <TORSDO>
F 3

$$$$
=
 OpenBabel11122411383D

 37 42  0  0  1  0  0  0  0  0999 V2000
  182.8610  172.8060  136.3080 S   0  0  0  0  0  0  0  0  0  0  0  0
  185.6310  176.1390  136.7800 C   0  0  0  0  0  0  0  0  0  0  0  0
  184.9480  178.9110  139.5770 C   0  0  0  0  0  2  0  0  0  0  0  0
  184.9280  174.2930  135.3600 C   0  0  0  0  0  0  0  0  0  0  0  0
  185.1380  176.7980  138.0500 C   0  0  1  0  0  3  0  0  0  0  0  0
  184.7250  175.1580  136.4460 C   0  0  0  0  0  0  0  0  0  0  0  0
  185.4810  178.2890  138.2660 C   0  0  2  0  0  3  0  0  0  0  0  0
  186.0870  174.4580  134.5950 C   0  0  0  0  0  3  0  0  0  0  0  0
  183.6020  175.1480  137.3160 N   0  0  0  0  0  0  0  0  0  0  0  0
  183.6010  171.8950  137.2440 O   0  0  0  0  0  0  0  0  0  0  0  0
  187.9360  177.2460  136.3650 C   0  0  0  0  0  2  0  0  0  0  0  0
  187.0260  175.4460  134.9330 C   0  0  0  0  0  3  0  0  0  0  0  0
  182.4210  174.3070  137.1520 C   0  0  0  0  0  2  0  0  0  0  0  0
  182.6860  178.9690  139.4800 C   0  0  1  0  0  3  0  0  0  0  0  0
  183.7800  178.2810  140.0350 O   0  0  0  0  0  0  0  0  0  0  0  0
  186.8180  176.3020  136.0250 C   0  0  0  0  0  0  0  0  0  0  0  0
  183.6350  176.3690  138.1060 C   0  0  2  0  0  3  0  0  0  0  0  0
  183.9160  173.2640  134.9480 C   0  0  0  0  0  2  0  0  0  0  0  0
  186.9270  178.4840  138.1740 N   0  0  0  0  0  0  0  0  0  0  0  0
  181.6270  172.1170  135.7990 O   0  0  0  0  0  0  0  0  0  0  0  0
  182.6080  178.7980  137.9550 C   0  0  0  0  0  2  0  0  0  0  0  0
  182.6280  177.3480  137.4570 C   0  0  0  0  0  2  0  0  0  0  0  0
  187.4570  178.6100  136.8270 C   0  0  0  0  0  2  0  0  0  0  0  0
  189.1770  177.9080  139.0340 C   0  0  0  0  0  3  0  0  0  0  0  0
  187.8210  178.1940  139.2730 C   0  0  0  0  0  0  0  0  0  0  0  0
  187.3560  178.1810  140.5550 N   0  0  0  0  0  0  0  0  0  0  0  0
  187.5970  177.8670  142.9840 C   0  0  0  0  0  1  0  0  0  0  0  0
  189.5160  177.6050  141.4020 C   0  0  0  0  0  3  0  0  0  0  0  0
  188.1630  177.8960  141.6110 C   0  0  0  0  0  0  0  0  0  0  0  0
  190.0230  177.6150  140.1040 C   0  0  0  0  0  3  0  0  0  0  0  0
  179.0790  177.8790  141.7370 O   0  0  0  0  0  0  0  0  0  0  0  0
  180.1240  178.2880  142.3100 C   0  0  0  0  0  0  0  0  0  0  0  0
  181.4160  178.5280  140.1360 C   0  0  0  0  0  0  0  0  0  0  0  0
  181.2870  178.6510  141.5570 N   0  0  0  0  0  2  0  0  0  0  0  0
  180.4750  178.0570  139.4410 O   0  0  0  0  0  0  0  0  0  0  0  0
  179.6780  177.2540  144.3760 O   0  0  0  0  0  1  0  0  0  0  0  0
  180.1360  178.4310  143.7900 C   0  0  0  0  0  2  0  0  0  0  0  0
  1 13  1  0  0  0  0
  1 10  2  0  0  0  0
  3 15  1  0  0  0  0
  4  6  2  0  0  0  0
  5  2  1  6  0  0  0
  5 17  1  0  0  0  0
  5  7  1  0  0  0  0
  6  2  1  0  0  0  0
  6  9  1  0  0  0  0
  7  3  1  1  0  0  0
  8 12  2  0  0  0  0
  8  4  1  0  0  0  0
  9 17  1  0  0  0  0
 11 23  1  0  0  0  0
 12 16  1  0  0  0  0
 13  9  1  0  0  0  0
 14 15  1  0  0  0  0
 14 33  1  1  0  0  0
 16 11  1  0  0  0  0
 16  2  2  0  0  0  0
 17 22  1  6  0  0  0
 18  4  1  0  0  0  0
 18  1  1  0  0  0  0
 19  7  1  0  0  0  0
 19 25  1  0  0  0  0
 20  1  2  0  0  0  0
 21 14  1  0  0  0  0
 22 21  1  0  0  0  0
 23 19  1  0  0  0  0
 24 25  2  0  0  0  0
 24 30  1  0  0  0  0
 25 26  1  0  0  0  0
 26 29  2  0  0  0  0
 28 29  1  0  0  0  0
 29 27  1  0  0  0  0
 30 28  2  0  0  0  0
 31 32  2  0  0  0  0
 32 37  1  0  0  0  0
 33 34  1  0  0  0  0
 34 32  1  0  0  0  0
 35 33  2  0  0  0  0
 37 36  1  0  0  0  0
M  END
>  <MODEL>
7

>  <REMARK>
 VINA RESULT:      -6.1      4.243      8.483
  Name = 
  3 active torsions:
  status: ('A' for Active; 'I' for Inactive)
    1  A    between atoms: C_4  and  C_37
    2  A    between atoms: C_8  and  C_18
    3  A    between atoms: N_23  and  C_30
                            x       y       z     vdW  Elec       q    Type
                         _______ _______ _______ _____ _____    ______ ____

>  <TORSDO>
F 3

$$$$
=
 OpenBabel11122411383D

 37 42  0  0  1  0  0  0  0  0999 V2000
  186.4560  173.3650  136.3420 S   0  0  0  0  0  0  0  0  0  0  0  0
  184.6720  176.9940  137.9700 C   0  0  0  0  0  0  0  0  0  0  0  0
  180.9830  176.8800  139.5020 C   0  0  0  0  0  2  0  0  0  0  0  0
  186.4750  176.0670  136.6260 C   0  0  0  0  0  0  0  0  0  0  0  0
  183.4110  176.4730  138.6260 C   0  0  1  0  0  3  0  0  0  0  0  0
  185.2400  175.9470  137.2810 C   0  0  0  0  0  0  0  0  0  0  0  0
  182.2460  177.4670  138.8340 C   0  0  2  0  0  3  0  0  0  0  0  0
  187.1280  177.3030  136.6740 C   0  0  0  0  0  3  0  0  0  0  0  0
  184.4340  174.7780  137.3220 N   0  0  0  0  0  0  0  0  0  0  0  0
  187.1150  172.9610  137.6290 O   0  0  0  0  0  0  0  0  0  0  0  0
  184.8790  179.4160  138.8650 C   0  0  0  0  0  2  0  0  0  0  0  0
  186.5650  178.3760  137.3850 C   0  0  0  0  0  3  0  0  0  0  0  0
  184.7060  173.5440  136.5920 C   0  0  0  0  0  2  0  0  0  0  0  0
  180.0540  175.3710  138.0920 C   0  0  1  0  0  3  0  0  0  0  0  0
  180.8320  175.5070  139.2560 O   0  0  0  0  0  0  0  0  0  0  0  0
  185.3330  178.2440  138.0430 C   0  0  0  0  0  0  0  0  0  0  0  0
  183.1250  175.1530  137.8380 C   0  0  2  0  0  3  0  0  0  0  0  0
  187.0720  174.9520  135.8180 C   0  0  0  0  0  2  0  0  0  0  0  0
  182.7130  178.6300  139.5860 N   0  0  0  0  0  0  0  0  0  0  0  0
  186.7250  172.3290  135.2880 O   0  0  0  0  0  0  0  0  0  0  0  0
  180.7890  175.8790  136.8420 C   0  0  0  0  0  2  0  0  0  0  0  0
  182.1840  175.2840  136.6170 C   0  0  0  0  0  2  0  0  0  0  0  0
  183.3810  179.6550  138.8020 C   0  0  0  0  0  2  0  0  0  0  0  0
  181.7830  178.9650  141.8560 C   0  0  0  0  0  3  0  0  0  0  0  0
  182.8620  178.6160  141.0240 C   0  0  0  0  0  0  0  0  0  0  0  0
  184.0540  178.2770  141.5910 N   0  0  0  0  0  0  0  0  0  0  0  0
  185.5650  177.9190  143.5010 C   0  0  0  0  0  1  0  0  0  0  0  0
  183.1810  178.6140  143.7900 C   0  0  0  0  0  3  0  0  0  0  0  0
  184.2360  178.2690  142.9380 C   0  0  0  0  0  0  0  0  0  0  0  0
  181.9470  178.9610  143.2410 C   0  0  0  0  0  3  0  0  0  0  0  0
  178.9310  171.2170  137.2100 O   0  0  0  0  0  0  0  0  0  0  0  0
  179.1270  172.0620  136.2960 C   0  0  0  0  0  0  0  0  0  0  0  0
  179.6270  173.9470  137.9240 C   0  0  0  0  0  0  0  0  0  0  0  0
  179.5050  173.4090  136.6020 N   0  0  0  0  0  2  0  0  0  0  0  0
  179.3820  173.2350  138.9350 O   0  0  0  0  0  0  0  0  0  0  0  0
  179.0260  170.2510  134.7970 O   0  0  0  0  0  1  0  0  0  0  0  0
  179.0010  171.6410  134.8760 C   0  0  0  0  0  2  0  0  0  0  0  0
  1 13  1  0  0  0  0
  1 10  2  0  0  0  0
  2 16  1  0  0  0  0
  4  8  2  0  0  0  0
  4  6  1  0  0  0  0
  5  2  1  6  0  0  0
  5  7  1  0  0  0  0
  6  9  1  0  0  0  0
  6  2  2  0  0  0  0
  7  3  1  1  0  0  0
  7 19  1  0  0  0  0
  8 12  1  0  0  0  0
  9 17  1  0  0  0  0
 12 16  2  0  0  0  0
 13  9  1  0  0  0  0
 14 33  1  6  0  0  0
 14 15  1  0  0  0  0
 15  3  1  0  0  0  0
 16 11  1  0  0  0  0
 17 22  1  6  0  0  0
 17  5  1  0  0  0  0
 18  1  1  0  0  0  0
 18  4  1  0  0  0  0
 19 25  1  0  0  0  0
 20  1  2  0  0  0  0
 21 14  1  0  0  0  0
 22 21  1  0  0  0  0
 23 11  1  0  0  0  0
 23 19  1  0  0  0  0
 24 30  1  0  0  0  0
 25 26  1  0  0  0  0
 25 24  2  0  0  0  0
 26 29  2  0  0  0  0
 29 27  1  0  0  0  0
 29 28  1  0  0  0  0
 30 28  2  0  0  0  0
 32 34  1  0  0  0  0
 32 31  2  0  0  0  0
 33 35  2  0  0  0  0
 34 33  1  0  0  0  0
 36 37  1  0  0  0  0
 37 32  1  0  0  0  0
M  END
>  <MODEL>
8

>  <REMARK>
 VINA RESULT:      -5.9      4.198      7.768
  Name = 
  3 active torsions:
  status: ('A' for Active; 'I' for Inactive)
    1  A    between atoms: C_4  and  C_37
    2  A    between atoms: C_8  and  C_18
    3  A    between atoms: N_23  and  C_30
                            x       y       z     vdW  Elec       q    Type
                         _______ _______ _______ _____ _____    ______ ____

>  <TORSDO>
F 3

$$$$
=
 OpenBabel11122411383D

 37 42  0  0  1  0  0  0  0  0999 V2000
  187.5070  177.8050  138.0780 S   0  0  0  0  0  0  0  0  0  0  0  0
  183.3630  177.8780  136.7280 C   0  0  0  0  0  0  0  0  0  0  0  0
  180.5140  179.3160  139.1330 C   0  0  0  0  0  2  0  0  0  0  0  0
  185.5980  177.0110  136.3150 C   0  0  0  0  0  0  0  0  0  0  0  0
  182.6790  178.6790  137.8140 C   0  0  1  0  0  3  0  0  0  0  0  0
  184.6590  177.6550  137.1340 C   0  0  0  0  0  0  0  0  0  0  0  0
  181.1580  178.4770  138.0070 C   0  0  2  0  0  3  0  0  0  0  0  0
  185.1810  176.5750  135.0540 C   0  0  0  0  0  3  0  0  0  0  0  0
  184.9000  178.1470  138.4460 N   0  0  0  0  0  0  0  0  0  0  0  0
  187.8480  179.1510  137.5060 O   0  0  0  0  0  0  0  0  0  0  0  0
  181.5920  177.7560  134.8410 C   0  0  0  0  0  2  0  0  0  0  0  0
  183.8660  176.8070  134.6210 C   0  0  0  0  0  3  0  0  0  0  0  0
  186.1360  177.9580  139.1980 C   0  0  0  0  0  2  0  0  0  0  0  0
  181.3290  178.6040  141.1220 C   0  0  1  0  0  3  0  0  0  0  0  0
  181.4190  179.6250  140.1600 O   0  0  0  0  0  0  0  0  0  0  0  0
  182.9350  177.4590  135.4450 C   0  0  0  0  0  0  0  0  0  0  0  0
  183.6150  178.4690  139.0480 C   0  0  2  0  0  3  0  0  0  0  0  0
  186.9940  176.7060  136.7740 C   0  0  0  0  0  2  0  0  0  0  0  0
  180.4610  178.7160  136.7450 N   0  0  0  0  0  0  0  0  0  0  0  0
  188.7010  177.2410  138.7940 O   0  0  0  0  0  0  0  0  0  0  0  0
  181.8420  177.2580  140.5870 C   0  0  0  0  0  2  0  0  0  0  0  0
  183.2500  177.2890  139.9810 C   0  0  0  0  0  2  0  0  0  0  0  0
  180.4410  177.5970  135.8190 C   0  0  0  0  0  2  0  0  0  0  0  0
  179.2380  180.2330  135.2160 C   0  0  0  0  0  3  0  0  0  0  0  0
  180.1500  180.0470  136.2700 C   0  0  0  0  0  0  0  0  0  0  0  0
  180.7470  181.1360  136.8320 N   0  0  0  0  0  0  0  0  0  0  0  0
  181.1940  183.5490  137.0290 C   0  0  0  0  0  1  0  0  0  0  0  0
  179.5910  182.6140  135.3510 C   0  0  0  0  0  3  0  0  0  0  0  0
  180.4920  182.4000  136.4010 C   0  0  0  0  0  0  0  0  0  0  0  0
  178.9600  181.5210  134.7600 C   0  0  0  0  0  3  0  0  0  0  0  0
  183.8180  179.6470  144.5870 O   0  0  0  0  0  0  0  0  0  0  0  0
  184.2160  178.8460  143.7000 C   0  0  0  0  0  0  0  0  0  0  0  0
  182.0600  179.0030  142.3640 C   0  0  0  0  0  0  0  0  0  0  0  0
  183.3950  178.5270  142.5700 N   0  0  0  0  0  2  0  0  0  0  0  0
  181.5040  179.7510  143.2140 O   0  0  0  0  0  0  0  0  0  0  0  0
  186.0510  178.4140  145.1080 O   0  0  0  0  0  1  0  0  0  0  0  0
  185.5740  178.2530  143.8090 C   0  0  0  0  0  2  0  0  0  0  0  0
  1 20  2  0  0  0  0
  1 13  1  0  0  0  0
  2  6  1  0  0  0  0
  3 15  1  0  0  0  0
  4 18  1  0  0  0  0
  4  6  2  0  0  0  0
  5  2  1  6  0  0  0
  5  7  1  0  0  0  0
  5 17  1  0  0  0  0
  6  9  1  0  0  0  0
  7  3  1  1  0  0  0
  8  4  1  0  0  0  0
  9 17  1  0  0  0  0
  9 13  1  0  0  0  0
 10  1  2  0  0  0  0
 11 16  1  0  0  0  0
 11 23  1  0  0  0  0
 12  8  2  0  0  0  0
 12 16  1  0  0  0  0
 14 33  1  1  0  0  0
 15 14  1  0  0  0  0
 16  2  2  0  0  0  0
 17 22  1  1  0  0  0
 18  1  1  0  0  0  0
 19  7  1  0  0  0  0
 21 14  1  0  0  0  0
 22 21  1  0  0  0  0
 23 19  1  0  0  0  0
 24 25  1  0  0  0  0
 25 19  1  0  0  0  0
 25 26  2  0  0  0  0
 28 29  2  0  0  0  0
 29 26  1  0  0  0  0
 29 27  1  0  0  0  0
 30 24  2  0  0  0  0
 30 28  1  0  0  0  0
 32 37  1  0  0  0  0
 32 31  2  0  0  0  0
 33 34  1  0  0  0  0
 33 35  2  0  0  0  0
 34 32  1  0  0  0  0
 37 36  1  0  0  0  0
M  END
>  <MODEL>
9

>  <REMARK>
 VINA RESULT:      -5.8      4.091      7.682
  Name = 
  3 active torsions:
  status: ('A' for Active; 'I' for Inactive)
    1  A    between atoms: C_4  and  C_37
    2  A    between atoms: C_8  and  C_18
    3  A    between atoms: N_23  and  C_30
                            x       y       z     vdW  Elec       q    Type
                         _______ _______ _______ _____ _____    ______ ____

>  <TORSDO>
F 3

$$$$
