=
 OpenBabel11122411333D

 37 43  0  0  1  0  0  0  0  0999 V2000
  190.4180  177.2110  143.3540 C   0  0  0  0  0  0  0  0  0  0  0  0
  186.5160  178.1390  142.1720 C   0  0  0  0  0  0  0  0  0  0  0  0
  185.7730  178.3550  138.3740 O   0  0  0  0  0  0  0  0  0  0  0  0
  188.0230  177.7490  144.0430 C   0  0  0  0  0  0  0  0  0  0  0  0
  186.7150  178.3430  140.7890 C   0  0  0  0  0  0  0  0  0  0  0  0
  187.7620  177.9620  142.7050 C   0  0  0  0  0  0  0  0  0  0  0  0
  185.6190  178.7570  139.7450 C   0  0  2  0  0  3  0  0  0  0  0  0
  186.9320  177.7350  144.9200 C   0  0  0  0  0  3  0  0  0  0  0  0
  188.6870  178.0430  141.7280 C   0  0  0  0  0  0  0  0  0  0  0  0
  190.2890  175.7130  143.1330 C   0  0  0  0  0  1  0  0  0  0  0  0
  183.9800  178.2520  142.5880 C   0  0  0  0  0  2  0  0  0  0  0  0
  185.6260  177.9130  144.4140 C   0  0  0  0  0  3  0  0  0  0  0  0
  190.1590  177.9510  142.0160 C   0  0  0  0  0  2  0  0  0  0  0  0
  187.6300  177.9330  136.9880 C   0  0  1  0  0  3  0  0  0  0  0  0
  186.9390  177.6870  138.2560 N   0  0  1  0  0  0  0  0  0  0  0  0
  185.3970  178.1290  143.0360 C   0  0  0  0  0  0  0  0  0  0  0  0
  188.0840  178.3050  140.5510 N   0  0  0  0  0  0  0  0  0  0  0  0
  189.4590  177.6480  144.4940 C   0  0  0  0  0  2  0  0  0  0  0  0
  184.1630  178.5230  140.1710 C   0  0  1  0  0  3  0  0  0  0  0  0
  191.8400  177.4990  143.7900 C   0  0  0  0  0  1  0  0  0  0  0  0
  187.9220  178.7760  138.1610 C   0  0  1  0  0  3  0  0  0  0  0  0
  188.8470  178.4340  139.2950 C   0  0  0  0  0  2  0  0  0  0  0  0
  183.8300  179.2400  141.4600 C   0  0  0  0  0  2  0  0  0  0  0  0
  182.7440  177.9840  138.1820 C   0  0  0  0  0  3  0  0  0  0  0  0
  183.1830  178.9350  139.1100 C   0  0  0  0  0  0  0  0  0  0  0  0
  182.7060  180.2530  139.0310 C   0  0  0  0  0  3  0  0  0  0  0  0
  181.3160  181.9480  137.9550 N   0  0  0  0  0  1  0  0  0  0  0  0
  181.3620  179.6580  137.1070 C   0  0  0  0  0  3  0  0  0  0  0  0
  181.7970  180.6120  138.0320 C   0  0  0  0  0  0  0  0  0  0  0  0
  181.8350  178.3440  137.1830 C   0  0  0  0  0  3  0  0  0  0  0  0
  188.6830  176.8960  136.7590 C   0  0  0  0  0  0  0  0  0  0  0  0
  188.4830  175.5640  137.2370 N   0  0  0  0  0  2  0  0  0  0  0  0
  189.7560  177.2090  136.1740 O   0  0  0  0  0  0  0  0  0  0  0  0
  188.8160  173.2430  137.0170 O   0  0  0  0  0  1  0  0  0  0  0  0
  189.4480  174.4930  137.0100 C   0  0  2  0  0  3  0  0  0  0  0  0
  191.7170  174.3530  137.2600 C   0  0  0  0  0  1  0  0  0  0  0  0
  190.5050  174.5450  137.9420 O   0  0  0  0  0  0  0  0  0  0  0  0
  1 20  1  0  0  0  0
  1 18  1  0  0  0  0
  2  6  1  0  0  0  0
  2 16  1  0  0  0  0
  4 18  1  0  0  0  0
  4  8  2  0  0  0  0
  5  2  2  0  0  0  0
  6  4  1  0  0  0  0
  7  3  1  6  0  0  0
  7 19  1  0  0  0  0
  7  5  1  0  0  0  0
  9 13  1  0  0  0  0
  9  6  2  0  0  0  0
 10  1  1  0  0  0  0
 11 16  1  0  0  0  0
 12  8  1  0  0  0  0
 13  1  1  0  0  0  0
 14 31  1  1  0  0  0
 14 21  1  0  0  0  0
 14 15  1  0  0  0  0
 15  3  1  6  0  0  0
 16 12  2  0  0  0  0
 17  5  1  0  0  0  0
 17  9  1  0  0  0  0
 19 25  1  6  0  0  0
 19 23  1  0  0  0  0
 21 15  1  0  0  0  0
 21 22  1  1  0  0  0
 22 17  1  0  0  0  0
 23 11  1  0  0  0  0
 24 25  1  0  0  0  0
 26 25  2  0  0  0  0
 27 29  1  0  0  0  0
 28 30  1  0  0  0  0
 28 29  2  0  0  0  0
 29 26  1  0  0  0  0
 30 24  2  0  0  0  0
 31 32  1  0  0  0  0
 33 31  2  0  0  0  0
 35 34  1  1  0  0  0
 35 32  1  0  0  0  0
 35 37  1  0  0  0  0
 36 37  1  0  0  0  0
M  END
>  <MODEL>
1

>  <REMARK>
 VINA RESULT:      -9.3      0.000      0.000
  Name = 
  4 active torsions:
  status: ('A' for Active; 'I' for Inactive)
    1  A    between atoms: C_4  and  N_12
    2  A    between atoms: C_4  and  O_37
    3  A    between atoms: C_8  and  C_18
    4  A    between atoms: C_23  and  C_30
                            x       y       z     vdW  Elec       q    Type
                         _______ _______ _______ _____ _____    ______ ____

>  <TORSDO>
F 4

$$$$
=
 OpenBabel11122411333D

 37 43  0  0  1  0  0  0  0  0999 V2000
  187.7180  177.6560  136.1790 C   0  0  0  0  0  0  0  0  0  0  0  0
  188.6250  177.4860  140.2570 C   0  0  0  0  0  0  0  0  0  0  0  0
  185.7530  178.1110  142.7830 O   0  0  0  0  0  0  0  0  0  0  0  0
  189.4760  177.2770  137.9860 C   0  0  0  0  0  0  0  0  0  0  0  0
  187.4200  177.9800  140.8030 C   0  0  0  0  0  0  0  0  0  0  0  0
  188.5050  177.6250  138.9030 C   0  0  0  0  0  0  0  0  0  0  0  0
  187.1120  178.1990  142.3260 C   0  0  2  0  0  3  0  0  0  0  0  0
  190.6800  176.7630  138.4830 C   0  0  0  0  0  3  0  0  0  0  0  0
  187.3050  178.1640  138.6090 C   0  0  0  0  0  0  0  0  0  0  0  0
  187.1300  176.2580  136.0980 C   0  0  0  0  0  1  0  0  0  0  0  0
  190.0800  176.7120  142.2330 C   0  0  0  0  0  2  0  0  0  0  0  0
  190.8480  176.6020  139.8760 C   0  0  0  0  0  3  0  0  0  0  0  0
  186.9060  178.4960  137.1990 C   0  0  0  0  0  2  0  0  0  0  0  0
  183.6600  178.5500  141.7970 C   0  0  1  0  0  3  0  0  0  0  0  0
  184.9600  177.8800  141.7160 N   0  0  1  0  0  0  0  0  0  0  0  0
  189.8310  176.9700  140.7850 C   0  0  0  0  0  0  0  0  0  0  0  0
  186.6310  178.4210  139.7470 N   0  0  0  0  0  0  0  0  0  0  0  0
  189.2290  177.5600  136.5260 C   0  0  0  0  0  2  0  0  0  0  0  0
  188.0170  177.4440  143.3100 C   0  0  1  0  0  3  0  0  0  0  0  0
  187.5820  178.3010  134.8150 C   0  0  0  0  0  1  0  0  0  0  0  0
  184.7960  179.2240  141.1440 C   0  0  1  0  0  3  0  0  0  0  0  0
  185.2750  179.0020  139.7370 C   0  0  0  0  0  2  0  0  0  0  0  0
  189.4770  177.7820  143.1070 C   0  0  0  0  0  2  0  0  0  0  0  0
  188.6300  177.5980  145.7310 C   0  0  0  0  0  3  0  0  0  0  0  0
  187.6450  177.7000  144.7420 C   0  0  0  0  0  0  0  0  0  0  0  0
  186.3300  178.0350  145.1040 C   0  0  0  0  0  3  0  0  0  0  0  0
  184.6760  178.6020  146.8080 N   0  0  0  0  0  1  0  0  0  0  0  0
  186.9970  178.1610  147.4280 C   0  0  0  0  0  3  0  0  0  0  0  0
  186.0090  178.2640  146.4450 C   0  0  0  0  0  0  0  0  0  0  0  0
  188.3070  177.8290  147.0710 C   0  0  0  0  0  3  0  0  0  0  0  0
  182.7080  177.9580  140.8060 C   0  0  0  0  0  0  0  0  0  0  0  0
  183.0170  176.7090  140.1840 N   0  0  0  0  0  2  0  0  0  0  0  0
  181.6530  178.5790  140.5010 O   0  0  0  0  0  0  0  0  0  0  0  0
  181.1400  175.3120  139.9230 O   0  0  0  0  0  1  0  0  0  0  0  0
  182.1140  176.0530  139.2420 C   0  0  2  0  0  3  0  0  0  0  0  0
  183.7800  176.0560  137.6770 C   0  0  0  0  0  1  0  0  0  0  0  0
  182.8210  175.2570  138.3180 O   0  0  0  0  0  0  0  0  0  0  0  0
  1 18  1  0  0  0  0
  1 13  1  0  0  0  0
  2 16  1  0  0  0  0
  2  5  2  0  0  0  0
  4  8  2  0  0  0  0
  4  6  1  0  0  0  0
  6  2  1  0  0  0  0
  7  5  1  6  0  0  0
  7  3  1  0  0  0  0
  7 19  1  0  0  0  0
  8 12  1  0  0  0  0
  9  6  2  0  0  0  0
  9 17  1  0  0  0  0
 10  1  1  0  0  0  0
 11 23  1  0  0  0  0
 12 16  2  0  0  0  0
 13  9  1  0  0  0  0
 14 31  1  6  0  0  0
 15 14  1  0  0  0  0
 15  3  1  1  0  0  0
 16 11  1  0  0  0  0
 17  5  1  0  0  0  0
 18  4  1  0  0  0  0
 19 25  1  1  0  0  0
 20  1  1  0  0  0  0
 21 22  1  6  0  0  0
 21 15  1  0  0  0  0
 21 14  1  0  0  0  0
 22 17  1  0  0  0  0
 23 19  1  0  0  0  0
 24 30  1  0  0  0  0
 25 26  1  0  0  0  0
 25 24  2  0  0  0  0
 26 29  2  0  0  0  0
 29 27  1  0  0  0  0
 29 28  1  0  0  0  0
 30 28  2  0  0  0  0
 32 31  1  0  0  0  0
 33 31  2  0  0  0  0
 35 34  1  1  0  0  0
 35 32  1  0  0  0  0
 36 37  1  0  0  0  0
 37 35  1  0  0  0  0
M  END
>  <MODEL>
2

>  <REMARK>
 VINA RESULT:      -9.2      3.035      7.084
  Name = 
  4 active torsions:
  status: ('A' for Active; 'I' for Inactive)
    1  A    between atoms: C_4  and  N_12
    2  A    between atoms: C_4  and  O_37
    3  A    between atoms: C_8  and  C_18
    4  A    between atoms: C_23  and  C_30
                            x       y       z     vdW  Elec       q    Type
                         _______ _______ _______ _____ _____    ______ ____

>  <TORSDO>
F 4

$$$$
=
 OpenBabel11122411333D

 37 43  0  0  1  0  0  0  0  0999 V2000
  187.7390  177.6400  136.2700 C   0  0  0  0  0  0  0  0  0  0  0  0
  188.7120  177.4600  140.3330 C   0  0  0  0  0  0  0  0  0  0  0  0
  185.8850  178.0990  142.9060 O   0  0  0  0  0  0  0  0  0  0  0  0
  189.5240  177.2490  138.0480 C   0  0  0  0  0  0  0  0  0  0  0  0
  187.5190  177.9600  140.8990 C   0  0  0  0  0  0  0  0  0  0  0  0
  188.5700  177.6010  138.9810 C   0  0  0  0  0  0  0  0  0  0  0  0
  187.2370  178.1790  142.4270 C   0  0  2  0  0  3  0  0  0  0  0  0
  190.7330  176.7280  138.5240 C   0  0  0  0  0  3  0  0  0  0  0  0
  187.3690  178.1470  138.7070 C   0  0  0  0  0  0  0  0  0  0  0  0
  187.1410  176.2450  136.1970 C   0  0  0  0  0  1  0  0  0  0  0  0
  190.1950  176.6760  142.2830 C   0  0  0  0  0  2  0  0  0  0  0  0
  190.9230  176.5650  139.9140 C   0  0  0  0  0  3  0  0  0  0  0  0
  186.9490  178.4840  137.3040 C   0  0  0  0  0  2  0  0  0  0  0  0
  183.7790  178.5510  141.9550 C   0  0  1  0  0  3  0  0  0  0  0  0
  185.0730  177.8730  141.8520 N   0  0  1  0  0  0  0  0  0  0  0  0
  189.9240  176.9370  140.8400 C   0  0  0  0  0  0  0  0  0  0  0  0
  186.7150  178.4080  139.8570 N   0  0  0  0  0  0  0  0  0  0  0  0
  189.2550  177.5350  136.5920 C   0  0  0  0  0  2  0  0  0  0  0  0
  188.1540  177.4180  143.3940 C   0  0  1  0  0  3  0  0  0  0  0  0
  187.5840  178.2880  134.9090 C   0  0  0  0  0  1  0  0  0  0  0  0
  184.9080  179.2190  141.2840 C   0  0  1  0  0  3  0  0  0  0  0  0
  185.3630  178.9960  139.8690 C   0  0  0  0  0  2  0  0  0  0  0  0
  189.6120  177.7480  143.1680 C   0  0  0  0  0  2  0  0  0  0  0  0
  188.8080  177.5670  145.8050 C   0  0  0  0  0  3  0  0  0  0  0  0
  187.8070  177.6750  144.8330 C   0  0  0  0  0  0  0  0  0  0  0  0
  186.5000  178.0160  145.2170 C   0  0  0  0  0  3  0  0  0  0  0  0
  184.8780  178.5910  146.9490 N   0  0  0  0  0  1  0  0  0  0  0  0
  187.2060  178.1370  147.5300 C   0  0  0  0  0  3  0  0  0  0  0  0
  186.2020  178.2460  146.5630 C   0  0  0  0  0  0  0  0  0  0  0  0
  188.5080  177.7980  147.1500 C   0  0  0  0  0  3  0  0  0  0  0  0
  182.8070  177.9650  140.9790 C   0  0  0  0  0  0  0  0  0  0  0  0
  181.6280  178.6930  140.6290 N   0  0  0  0  0  2  0  0  0  0  0  0
  183.0170  176.8200  140.4950 O   0  0  0  0  0  0  0  0  0  0  0  0
  180.5690  179.0750  138.5610 O   0  0  0  0  0  1  0  0  0  0  0  0
  180.6610  178.2020  139.6510 C   0  0  2  0  0  3  0  0  0  0  0  0
  179.3000  176.6140  140.5770 C   0  0  0  0  0  1  0  0  0  0  0  0
  179.4010  177.9740  140.2420 O   0  0  0  0  0  0  0  0  0  0  0  0
  1 18  1  0  0  0  0
  1 13  1  0  0  0  0
  2 16  1  0  0  0  0
  2  5  2  0  0  0  0
  4  8  2  0  0  0  0
  4  6  1  0  0  0  0
  6  2  1  0  0  0  0
  7  5  1  6  0  0  0
  7  3  1  0  0  0  0
  7 19  1  0  0  0  0
  8 12  1  0  0  0  0
  9  6  2  0  0  0  0
  9 17  1  0  0  0  0
 10  1  1  0  0  0  0
 11 23  1  0  0  0  0
 12 16  2  0  0  0  0
 13  9  1  0  0  0  0
 14 31  1  6  0  0  0
 15 14  1  0  0  0  0
 15  3  1  1  0  0  0
 16 11  1  0  0  0  0
 17 22  1  0  0  0  0
 17  5  1  0  0  0  0
 18  4  1  0  0  0  0
 19 25  1  1  0  0  0
 20  1  1  0  0  0  0
 21 22  1  6  0  0  0
 21 15  1  0  0  0  0
 21 14  1  0  0  0  0
 23 19  1  0  0  0  0
 24 30  1  0  0  0  0
 25 26  1  0  0  0  0
 25 24  2  0  0  0  0
 26 29  2  0  0  0  0
 29 27  1  0  0  0  0
 29 28  1  0  0  0  0
 30 28  2  0  0  0  0
 32 31  1  0  0  0  0
 33 31  2  0  0  0  0
 35 34  1  6  0  0  0
 35 37  1  0  0  0  0
 35 32  1  0  0  0  0
 37 36  1  0  0  0  0
M  END
>  <MODEL>
3

>  <REMARK>
 VINA RESULT:      -9.0      2.964      7.611
  Name = 
  4 active torsions:
  status: ('A' for Active; 'I' for Inactive)
    1  A    between atoms: C_4  and  N_12
    2  A    between atoms: C_4  and  O_37
    3  A    between atoms: C_8  and  C_18
    4  A    between atoms: C_23  and  C_30
                            x       y       z     vdW  Elec       q    Type
                         _______ _______ _______ _____ _____    ______ ____

>  <TORSDO>
F 4

$$$$
=
 OpenBabel11122411333D

 37 43  0  0  1  0  0  0  0  0999 V2000
  189.9580  177.3720  142.7510 C   0  0  0  0  0  0  0  0  0  0  0  0
  186.0750  178.2120  144.0540 C   0  0  0  0  0  0  0  0  0  0  0  0
  183.2930  178.5350  141.3750 O   0  0  0  0  0  0  0  0  0  0  0  0
  188.3840  177.8070  144.7080 C   0  0  0  0  0  0  0  0  0  0  0  0
  185.4450  178.4700  142.8170 C   0  0  0  0  0  0  0  0  0  0  0  0
  187.4030  178.0580  143.7710 C   0  0  0  0  0  0  0  0  0  0  0  0
  183.9470  178.8840  142.6050 C   0  0  2  0  0  3  0  0  0  0  0  0
  187.9910  177.7260  146.0500 C   0  0  0  0  0  3  0  0  0  0  0  0
  187.6020  178.2030  142.4460 C   0  0  0  0  0  0  0  0  0  0  0  0
  189.7370  175.8800  142.5730 C   0  0  0  0  0  1  0  0  0  0  0  0
  184.2320  178.2260  145.8480 C   0  0  0  0  0  2  0  0  0  0  0  0
  186.6280  177.8780  146.3880 C   0  0  0  0  0  3  0  0  0  0  0  0
  188.9750  178.1500  141.8380 C   0  0  0  0  0  2  0  0  0  0  0  0
  184.0260  178.2240  139.1590 C   0  0  1  0  0  3  0  0  0  0  0  0
  184.1860  177.9100  140.5810 N   0  0  1  0  0  0  0  0  0  0  0  0
  185.6510  178.1350  145.4010 C   0  0  0  0  0  0  0  0  0  0  0  0
  186.4330  178.4860  141.8380 N   0  0  0  0  0  0  0  0  0  0  0  0
  189.8200  177.7370  144.2540 C   0  0  0  0  0  2  0  0  0  0  0  0
  182.9980  178.5870  143.7750 C   0  0  1  0  0  3  0  0  0  0  0  0
  191.3720  177.6920  142.3110 C   0  0  0  0  0  1  0  0  0  0  0  0
  184.9300  179.0340  139.9940 C   0  0  1  0  0  3  0  0  0  0  0  0
  186.3400  178.6840  140.3800 C   0  0  0  0  0  2  0  0  0  0  0  0
  183.4570  179.2480  145.0560 C   0  0  0  0  0  2  0  0  0  0  0  0
  180.5610  178.5850  144.3430 C   0  0  0  0  0  3  0  0  0  0  0  0
  181.5840  179.0030  143.4840 C   0  0  0  0  0  0  0  0  0  0  0  0
  181.2730  179.7970  142.3680 C   0  0  0  0  0  3  0  0  0  0  0  0
  179.6380  180.9700  140.9870 N   0  0  0  0  0  1  0  0  0  0  0  0
  178.9310  179.7470  142.9780 C   0  0  0  0  0  3  0  0  0  0  0  0
  179.9490  180.1660  142.1180 C   0  0  0  0  0  0  0  0  0  0  0  0
  179.2370  178.9560  144.0910 C   0  0  0  0  0  3  0  0  0  0  0  0
  184.7670  177.2300  138.3210 C   0  0  0  0  0  0  0  0  0  0  0  0
  185.8350  177.6690  137.4790 N   0  0  0  0  0  2  0  0  0  0  0  0
  184.4250  176.0170  138.3370 O   0  0  0  0  0  0  0  0  0  0  0  0
  187.9290  176.6350  137.1760 O   0  0  0  0  0  1  0  0  0  0  0  0
  186.6280  176.7490  136.6700 C   0  0  2  0  0  3  0  0  0  0  0  0
  187.9620  177.2540  134.8830 C   0  0  0  0  0  1  0  0  0  0  0  0
  186.6320  177.1280  135.3110 O   0  0  0  0  0  0  0  0  0  0  0  0
  1 18  1  0  0  0  0
  2 16  1  0  0  0  0
  4  8  2  0  0  0  0
  5  2  2  0  0  0  0
  6  2  1  0  0  0  0
  6  4  1  0  0  0  0
  7  3  1  6  0  0  0
  7  5  1  0  0  0  0
  7 19  1  0  0  0  0
  8 12  1  0  0  0  0
  9  6  2  0  0  0  0
 10  1  1  0  0  0  0
 13  9  1  0  0  0  0
 13  1  1  0  0  0  0
 14 31  1  6  0  0  0
 14 21  1  0  0  0  0
 14 15  1  0  0  0  0
 15  3  1  1  0  0  0
 16 11  1  0  0  0  0
 16 12  2  0  0  0  0
 17  9  1  0  0  0  0
 17  5  1  0  0  0  0
 18  4  1  0  0  0  0
 19 25  1  6  0  0  0
 19 23  1  0  0  0  0
 20  1  1  0  0  0  0
 21 22  1  6  0  0  0
 21 15  1  0  0  0  0
 22 17  1  0  0  0  0
 23 11  1  0  0  0  0
 25 24  2  0  0  0  0
 26 25  1  0  0  0  0
 27 29  1  0  0  0  0
 28 30  2  0  0  0  0
 29 26  2  0  0  0  0
 29 28  1  0  0  0  0
 30 24  1  0  0  0  0
 31 33  2  0  0  0  0
 32 31  1  0  0  0  0
 35 34  1  1  0  0  0
 35 32  1  0  0  0  0
 36 37  1  0  0  0  0
 37 35  1  0  0  0  0
M  END
>  <MODEL>
4

>  <REMARK>
 VINA RESULT:      -8.8      2.359      3.690
  Name = 
  4 active torsions:
  status: ('A' for Active; 'I' for Inactive)
    1  A    between atoms: C_4  and  N_12
    2  A    between atoms: C_4  and  O_37
    3  A    between atoms: C_8  and  C_18
    4  A    between atoms: C_23  and  C_30
                            x       y       z     vdW  Elec       q    Type
                         _______ _______ _______ _____ _____    ______ ____

>  <TORSDO>
F 4

$$$$
=
 OpenBabel11122411333D

 37 43  0  0  1  0  0  0  0  0999 V2000
  190.3570  177.1990  143.6360 C   0  0  0  0  0  0  0  0  0  0  0  0
  186.4750  178.1270  142.3890 C   0  0  0  0  0  0  0  0  0  0  0  0
  185.7650  178.2150  138.5800 O   0  0  0  0  0  0  0  0  0  0  0  0
  187.9630  177.7880  144.2850 C   0  0  0  0  0  0  0  0  0  0  0  0
  186.6870  178.2790  141.0010 C   0  0  0  0  0  0  0  0  0  0  0  0
  187.7150  177.9560  142.9380 C   0  0  0  0  0  0  0  0  0  0  0  0
  185.6040  178.6670  139.9340 C   0  0  2  0  0  3  0  0  0  0  0  0
  186.8650  177.8160  145.1540 C   0  0  0  0  0  3  0  0  0  0  0  0
  188.6480  177.9910  141.9670 C   0  0  0  0  0  0  0  0  0  0  0  0
  190.2130  175.6960  143.4670 C   0  0  0  0  0  1  0  0  0  0  0  0
  183.9370  178.2820  142.7800 C   0  0  0  0  0  2  0  0  0  0  0  0
  185.5650  177.9900  144.6300 C   0  0  0  0  0  3  0  0  0  0  0  0
  190.1160  177.8940  142.2700 C   0  0  0  0  0  2  0  0  0  0  0  0
  187.6270  177.7240  137.2250 C   0  0  1  0  0  3  0  0  0  0  0  0
  186.9240  177.5300  138.4950 N   0  0  1  0  0  0  0  0  0  0  0  0
  185.3490  178.1590  143.2440 C   0  0  0  0  0  0  0  0  0  0  0  0
  188.0580  178.2180  140.7770 N   0  0  0  0  0  0  0  0  0  0  0  0
  189.3940  177.6870  144.7520 C   0  0  0  0  0  2  0  0  0  0  0  0
  184.1420  178.4640  140.3560 C   0  0  1  0  0  3  0  0  0  0  0  0
  191.7780  177.4880  144.0730 C   0  0  0  0  0  1  0  0  0  0  0  0
  187.9190  178.6050  138.3700 C   0  0  1  0  0  3  0  0  0  0  0  0
  188.8320  178.2940  139.5230 C   0  0  0  0  0  2  0  0  0  0  0  0
  183.8070  179.2300  141.6160 C   0  0  0  0  0  2  0  0  0  0  0  0
  182.6930  177.8590  138.4090 C   0  0  0  0  0  3  0  0  0  0  0  0
  183.1760  178.8480  139.2730 C   0  0  0  0  0  0  0  0  0  0  0  0
  182.7530  180.1780  139.1120 C   0  0  0  0  0  3  0  0  0  0  0  0
  181.4310  181.8570  137.9320 N   0  0  0  0  0  1  0  0  0  0  0  0
  181.3760  179.5180  137.2320 C   0  0  0  0  0  3  0  0  0  0  0  0
  181.8560  180.5100  138.0930 C   0  0  0  0  0  0  0  0  0  0  0  0
  181.7950  178.1930  137.3910 C   0  0  0  0  0  3  0  0  0  0  0  0
  188.6710  176.6680  137.0420 C   0  0  0  0  0  0  0  0  0  0  0  0
  189.9320  177.0100  136.4620 N   0  0  0  0  0  2  0  0  0  0  0  0
  188.4220  175.4760  137.3710 O   0  0  0  0  0  0  0  0  0  0  0  0
  192.1390  176.4190  137.0330 O   0  0  0  0  0  1  0  0  0  0  0  0
  191.0100  176.0400  136.2960 C   0  0  2  0  0  3  0  0  0  0  0  0
  191.0340  174.5130  134.5940 C   0  0  0  0  0  1  0  0  0  0  0  0
  191.3230  175.8440  134.9340 O   0  0  0  0  0  0  0  0  0  0  0  0
  1 20  1  0  0  0  0
  1 18  1  0  0  0  0
  2  6  1  0  0  0  0
  2 16  1  0  0  0  0
  4 18  1  0  0  0  0
  4  8  2  0  0  0  0
  5  2  2  0  0  0  0
  6  4  1  0  0  0  0
  7  3  1  6  0  0  0
  7 19  1  0  0  0  0
  7  5  1  0  0  0  0
  9 13  1  0  0  0  0
  9  6  2  0  0  0  0
 10  1  1  0  0  0  0
 11 16  1  0  0  0  0
 12  8  1  0  0  0  0
 13  1  1  0  0  0  0
 14 31  1  1  0  0  0
 14 21  1  0  0  0  0
 14 15  1  0  0  0  0
 15  3  1  6  0  0  0
 16 12  2  0  0  0  0
 17  5  1  0  0  0  0
 17  9  1  0  0  0  0
 19 25  1  6  0  0  0
 19 23  1  0  0  0  0
 21 15  1  0  0  0  0
 21 22  1  1  0  0  0
 22 17  1  0  0  0  0
 23 11  1  0  0  0  0
 24 25  1  0  0  0  0
 26 25  2  0  0  0  0
 27 29  1  0  0  0  0
 28 30  1  0  0  0  0
 28 29  2  0  0  0  0
 29 26  1  0  0  0  0
 30 24  2  0  0  0  0
 31 33  2  0  0  0  0
 32 31  1  0  0  0  0
 35 32  1  0  0  0  0
 35 34  1  1  0  0  0
 36 37  1  0  0  0  0
 37 35  1  0  0  0  0
M  END
>  <MODEL>
5

>  <REMARK>
 VINA RESULT:      -8.7      0.995      1.256
  Name = 
  4 active torsions:
  status: ('A' for Active; 'I' for Inactive)
    1  A    between atoms: C_4  and  N_12
    2  A    between atoms: C_4  and  O_37
    3  A    between atoms: C_8  and  C_18
    4  A    between atoms: C_23  and  C_30
                            x       y       z     vdW  Elec       q    Type
                         _______ _______ _______ _____ _____    ______ ____

>  <TORSDO>
F 4

$$$$
=
 OpenBabel11122411333D

 37 43  0  0  1  0  0  0  0  0999 V2000
  184.6080  178.4570  142.2440 C   0  0  0  0  0  0  0  0  0  0  0  0
  187.0800  177.9280  145.5750 C   0  0  0  0  0  0  0  0  0  0  0  0
  190.7160  176.7320  144.9650 O   0  0  0  0  0  0  0  0  0  0  0  0
  184.8750  178.5810  144.7770 C   0  0  0  0  0  0  0  0  0  0  0  0
  188.1850  177.2920  144.9690 C   0  0  0  0  0  0  0  0  0  0  0  0
  186.1280  178.0310  144.6000 C   0  0  0  0  0  0  0  0  0  0  0  0
  189.4810  176.7880  145.6970 C   0  0  2  0  0  3  0  0  0  0  0  0
  184.5490  179.0480  146.0560 C   0  0  0  0  0  3  0  0  0  0  0  0
  186.5990  177.5020  143.4530 C   0  0  0  0  0  0  0  0  0  0  0  0
  185.1610  179.8210  141.8630 C   0  0  0  0  0  1  0  0  0  0  0  0
  187.7330  178.3950  148.0190 C   0  0  0  0  0  2  0  0  0  0  0  0
  185.5020  178.9620  147.0950 C   0  0  0  0  0  3  0  0  0  0  0  0
  185.7540  177.4120  142.2140 C   0  0  0  0  0  2  0  0  0  0  0  0
  191.2670  176.3880  142.7020 C   0  0  1  0  0  3  0  0  0  0  0  0
  190.4750  177.1180  143.6950 N   0  0  1  0  0  0  0  0  0  0  0  0
  186.7760  178.3920  146.8760 C   0  0  0  0  0  0  0  0  0  0  0  0
  187.8390  177.0140  143.6520 N   0  0  0  0  0  0  0  0  0  0  0  0
  183.9030  178.5550  143.6250 C   0  0  0  0  0  2  0  0  0  0  0  0
  189.7500  177.3920  147.0820 C   0  0  1  0  0  3  0  0  0  0  0  0
  183.5760  178.0640  141.2080 C   0  0  0  0  0  1  0  0  0  0  0  0
  189.9340  175.8940  143.0890 C   0  0  1  0  0  3  0  0  0  0  0  0
  188.6140  176.3860  142.5650 C   0  0  0  0  0  2  0  0  0  0  0  0
  188.5970  177.1600  148.0330 C   0  0  0  0  0  2  0  0  0  0  0  0
  191.4930  175.6100  147.3080 C   0  0  0  0  0  3  0  0  0  0  0  0
  191.0140  176.8660  147.7000 C   0  0  0  0  0  0  0  0  0  0  0  0
  191.7170  177.6070  148.6640 C   0  0  0  0  0  3  0  0  0  0  0  0
  193.5970  177.8450  150.2030 N   0  0  0  0  0  1  0  0  0  0  0  0
  193.3620  175.8380  148.8310 C   0  0  0  0  0  3  0  0  0  0  0  0
  192.8880  177.0920  149.2270 C   0  0  0  0  0  0  0  0  0  0  0  0
  192.6640  175.0980  147.8710 C   0  0  0  0  0  3  0  0  0  0  0  0
  191.2450  177.1070  141.3900 C   0  0  0  0  0  0  0  0  0  0  0  0
  190.8320  176.4160  140.2090 N   0  0  0  0  0  2  0  0  0  0  0  0
  191.6210  178.3090  141.3270 O   0  0  0  0  0  0  0  0  0  0  0  0
  189.4150  177.3720  138.5890 O   0  0  0  0  0  1  0  0  0  0  0  0
  190.7450  177.0680  138.9050 C   0  0  2  0  0  3  0  0  0  0  0  0
  192.7450  176.4510  137.9850 C   0  0  0  0  0  1  0  0  0  0  0  0
  191.3540  176.2910  137.8980 O   0  0  0  0  0  0  0  0  0  0  0  0
  1 18  1  0  0  0  0
  2 16  1  0  0  0  0
  4  8  2  0  0  0  0
  5  2  2  0  0  0  0
  5  7  1  0  0  0  0
  6  4  1  0  0  0  0
  6  2  1  0  0  0  0
  7  3  1  6  0  0  0
  7 19  1  0  0  0  0
  8 12  1  0  0  0  0
  9 17  1  0  0  0  0
  9  6  2  0  0  0  0
 10  1  1  0  0  0  0
 11 23  1  0  0  0  0
 13  1  1  0  0  0  0
 13  9  1  0  0  0  0
 14 31  1  6  0  0  0
 14 21  1  0  0  0  0
 14 15  1  0  0  0  0
 15  3  1  1  0  0  0
 16 12  2  0  0  0  0
 16 11  1  0  0  0  0
 17  5  1  0  0  0  0
 18  4  1  0  0  0  0
 19 25  1  1  0  0  0
 19 23  1  0  0  0  0
 20  1  1  0  0  0  0
 21 22  1  6  0  0  0
 21 15  1  0  0  0  0
 22 17  1  0  0  0  0
 24 25  2  0  0  0  0
 24 30  1  0  0  0  0
 25 26  1  0  0  0  0
 26 29  2  0  0  0  0
 28 29  1  0  0  0  0
 29 27  1  0  0  0  0
 30 28  2  0  0  0  0
 32 31  1  0  0  0  0
 33 31  2  0  0  0  0
 35 34  1  6  0  0  0
 35 32  1  0  0  0  0
 37 36  1  0  0  0  0
 37 35  1  0  0  0  0
M  END
>  <MODEL>
6

>  <REMARK>
 VINA RESULT:      -8.1      3.568      8.205
  Name = 
  4 active torsions:
  status: ('A' for Active; 'I' for Inactive)
    1  A    between atoms: C_4  and  N_12
    2  A    between atoms: C_4  and  O_37
    3  A    between atoms: C_8  and  C_18
    4  A    between atoms: C_23  and  C_30
                            x       y       z     vdW  Elec       q    Type
                         _______ _______ _______ _____ _____    ______ ____

>  <TORSDO>
F 4

$$$$
=
 OpenBabel11122411333D

 37 43  0  0  1  0  0  0  0  0999 V2000
  183.8770  178.3520  139.1380 C   0  0  0  0  0  0  0  0  0  0  0  0
  187.2890  176.8580  137.2370 C   0  0  0  0  0  0  0  0  0  0  0  0
  190.4860  176.3660  139.3710 O   0  0  0  0  0  0  0  0  0  0  0  0
  184.9550  177.5040  136.9880 C   0  0  0  0  0  0  0  0  0  0  0  0
  188.2470  177.0450  138.2570 C   0  0  0  0  0  0  0  0  0  0  0  0
  186.1410  177.4440  137.6910 C   0  0  0  0  0  0  0  0  0  0  0  0
  189.7760  176.7040  138.1690 C   0  0  2  0  0  3  0  0  0  0  0  0
  184.9340  176.9410  135.7070 C   0  0  0  0  0  3  0  0  0  0  0  0
  186.3540  177.9620  138.9170 C   0  0  0  0  0  0  0  0  0  0  0  0
  183.4550  177.0270  139.7500 C   0  0  0  0  0  1  0  0  0  0  0  0
  188.4540  175.5620  135.3450 C   0  0  0  0  0  2  0  0  0  0  0  0
  186.0980  176.3240  135.1960 C   0  0  0  0  0  3  0  0  0  0  0  0
  185.2910  178.7290  139.6520 C   0  0  0  0  0  2  0  0  0  0  0  0
  190.2530  176.9620  141.6370 C   0  0  1  0  0  3  0  0  0  0  0  0
  189.6310  176.4580  140.4100 N   0  0  1  0  0  0  0  0  0  0  0  0
  187.2950  176.2820  135.9450 C   0  0  0  0  0  0  0  0  0  0  0  0
  187.6370  177.7630  139.2790 N   0  0  0  0  0  0  0  0  0  0  0  0
  183.7930  178.2530  137.5900 C   0  0  0  0  0  2  0  0  0  0  0  0
  190.1830  175.7260  137.0590 C   0  0  1  0  0  3  0  0  0  0  0  0
  182.9020  179.4140  139.6010 C   0  0  0  0  0  1  0  0  0  0  0  0
  189.6240  177.9000  140.6900 C   0  0  1  0  0  3  0  0  0  0  0  0
  188.1580  178.2120  140.5840 C   0  0  0  0  0  2  0  0  0  0  0  0
  189.7660  176.2190  135.6910 C   0  0  0  0  0  2  0  0  0  0  0  0
  192.1250  174.2360  137.5800 C   0  0  0  0  0  3  0  0  0  0  0  0
  191.6580  175.4470  137.0540 C   0  0  0  0  0  0  0  0  0  0  0  0
  192.5740  176.3780  136.5370 C   0  0  0  0  0  3  0  0  0  0  0  0
  194.8670  177.0410  136.0250 N   0  0  0  0  0  1  0  0  0  0  0  0
  194.4030  174.8850  137.0750 C   0  0  0  0  0  3  0  0  0  0  0  0
  193.9430  176.0950  136.5490 C   0  0  0  0  0  0  0  0  0  0  0  0
  193.4940  173.9560  137.5900 C   0  0  0  0  0  3  0  0  0  0  0  0
  189.3780  176.6790  142.8180 C   0  0  0  0  0  0  0  0  0  0  0  0
  189.3660  177.5830  143.9240 N   0  0  0  0  0  2  0  0  0  0  0  0
  188.6810  175.6280  142.8430 O   0  0  0  0  0  0  0  0  0  0  0  0
  187.2160  177.8820  144.8390 O   0  0  0  0  0  1  0  0  0  0  0  0
  188.5040  177.3910  145.0870 C   0  0  2  0  0  3  0  0  0  0  0  0
  189.9230  177.0310  146.8440 C   0  0  0  0  0  1  0  0  0  0  0  0
  189.0650  177.9670  146.2460 O   0  0  0  0  0  0  0  0  0  0  0  0
  1 20  1  0  0  0  0
  1 13  1  0  0  0  0
  1 10  1  0  0  0  0
  2  6  1  0  0  0  0
  2  5  2  0  0  0  0
  4 18  1  0  0  0  0
  4  6  1  0  0  0  0
  5 17  1  0  0  0  0
  6  9  2  0  0  0  0
  7  5  1  1  0  0  0
  7  3  1  0  0  0  0
  8  4  2  0  0  0  0
  9 17  1  0  0  0  0
  9 13  1  0  0  0  0
 11 23  1  0  0  0  0
 11 16  1  0  0  0  0
 12  8  1  0  0  0  0
 12 16  2  0  0  0  0
 14 31  1  1  0  0  0
 15  3  1  6  0  0  0
 15 21  1  0  0  0  0
 15 14  1  0  0  0  0
 16  2  1  0  0  0  0
 17 22  1  0  0  0  0
 18  1  1  0  0  0  0
 19 25  1  6  0  0  0
 19  7  1  0  0  0  0
 21 22  1  1  0  0  0
 21 14  1  0  0  0  0
 23 19  1  0  0  0  0
 24 30  1  0  0  0  0
 25 24  2  0  0  0  0
 26 29  2  0  0  0  0
 26 25  1  0  0  0  0
 27 29  1  0  0  0  0
 28 30  2  0  0  0  0
 29 28  1  0  0  0  0
 31 33  2  0  0  0  0
 31 32  1  0  0  0  0
 32 35  1  0  0  0  0
 35 34  1  6  0  0  0
 35 37  1  0  0  0  0
 37 36  1  0  0  0  0
M  END
>  <MODEL>
7

>  <REMARK>
 VINA RESULT:      -7.7      2.896      8.291
  Name = 
  4 active torsions:
  status: ('A' for Active; 'I' for Inactive)
    1  A    between atoms: C_4  and  N_12
    2  A    between atoms: C_4  and  O_37
    3  A    between atoms: C_8  and  C_18
    4  A    between atoms: C_23  and  C_30
                            x       y       z     vdW  Elec       q    Type
                         _______ _______ _______ _____ _____    ______ ____

>  <TORSDO>
F 4

$$$$
=
 OpenBabel11122411333D

 37 43  0  0  1  0  0  0  0  0999 V2000
  185.1290  179.0330  142.4610 C   0  0  0  0  0  0  0  0  0  0  0  0
  187.4880  177.8710  139.2100 C   0  0  0  0  0  0  0  0  0  0  0  0
  191.1210  176.7250  139.9220 O   0  0  0  0  0  0  0  0  0  0  0  0
  185.3100  178.6730  139.9430 C   0  0  0  0  0  0  0  0  0  0  0  0
  188.7470  177.7600  139.8400 C   0  0  0  0  0  0  0  0  0  0  0  0
  186.6440  178.3870  140.1520 C   0  0  0  0  0  0  0  0  0  0  0  0
  190.1010  177.3750  139.1480 C   0  0  2  0  0  3  0  0  0  0  0  0
  184.7910  178.4350  138.6650 C   0  0  0  0  0  3  0  0  0  0  0  0
  187.3180  178.5850  141.3020 C   0  0  0  0  0  0  0  0  0  0  0  0
  184.7670  177.6220  142.8940 C   0  0  0  0  0  1  0  0  0  0  0  0
  187.7780  177.0100  136.8030 C   0  0  0  0  0  2  0  0  0  0  0  0
  185.6270  177.9010  137.6600 C   0  0  0  0  0  3  0  0  0  0  0  0
  186.6700  179.2050  142.5080 C   0  0  0  0  0  2  0  0  0  0  0  0
  191.7350  176.7710  142.1950 C   0  0  1  0  0  3  0  0  0  0  0  0
  190.6810  176.6060  141.1920 N   0  0  1  0  0  0  0  0  0  0  0  0
  186.9890  177.6220  137.9100 C   0  0  0  0  0  0  0  0  0  0  0  0
  188.6110  178.2420  141.1370 N   0  0  0  0  0  0  0  0  0  0  0  0
  184.5220  179.3120  141.0590 C   0  0  0  0  0  2  0  0  0  0  0  0
  189.9840  176.6730  137.7880 C   0  0  1  0  0  3  0  0  0  0  0  0
  184.5110  180.0000  143.4490 C   0  0  0  0  0  1  0  0  0  0  0  0
  190.9550  177.9390  141.7480 C   0  0  1  0  0  3  0  0  0  0  0  0
  189.5900  178.3380  142.2360 C   0  0  0  0  0  2  0  0  0  0  0  0
  189.2040  177.4990  136.7910 C   0  0  0  0  0  2  0  0  0  0  0  0
  191.4720  176.2910  135.8120 C   0  0  0  0  0  3  0  0  0  0  0  0
  191.3250  176.3300  137.2040 C   0  0  0  0  0  0  0  0  0  0  0  0
  192.4270  176.0460  138.0270 C   0  0  0  0  0  3  0  0  0  0  0  0
  194.7760  175.4370  138.2940 N   0  0  0  0  0  1  0  0  0  0  0  0
  193.8040  175.6880  136.0670 C   0  0  0  0  0  3  0  0  0  0  0  0
  193.6620  175.7250  137.4580 C   0  0  0  0  0  0  0  0  0  0  0  0
  192.7080  175.9720  135.2450 C   0  0  0  0  0  3  0  0  0  0  0  0
  191.2740  176.2570  143.5230 C   0  0  0  0  0  0  0  0  0  0  0  0
  191.6000  176.9760  144.7140 N   0  0  0  0  0  2  0  0  0  0  0  0
  190.6290  175.1750  143.5860 O   0  0  0  0  0  0  0  0  0  0  0  0
  189.8940  177.1100  146.3320 O   0  0  0  0  0  1  0  0  0  0  0  0
  191.1460  176.5550  146.0360 C   0  0  2  0  0  3  0  0  0  0  0  0
  192.4730  175.6720  147.6750 C   0  0  0  0  0  1  0  0  0  0  0  0
  192.0980  176.8610  147.0310 O   0  0  0  0  0  0  0  0  0  0  0  0
  1 13  1  0  0  0  0
  1 10  1  0  0  0  0
  1 20  1  0  0  0  0
  2  5  2  0  0  0  0
  2  6  1  0  0  0  0
  4  6  1  0  0  0  0
  4 18  1  0  0  0  0
  5 17  1  0  0  0  0
  6  9  2  0  0  0  0
  7  5  1  1  0  0  0
  7  3  1  0  0  0  0
  8  4  2  0  0  0  0
  9 13  1  0  0  0  0
 11 16  1  0  0  0  0
 12 16  2  0  0  0  0
 12  8  1  0  0  0  0
 14 31  1  1  0  0  0
 15  3  1  6  0  0  0
 15 21  1  0  0  0  0
 15 14  1  0  0  0  0
 16  2  1  0  0  0  0
 17  9  1  0  0  0  0
 17 22  1  0  0  0  0
 18  1  1  0  0  0  0
 19 25  1  6  0  0  0
 19  7  1  0  0  0  0
 21 14  1  0  0  0  0
 21 22  1  1  0  0  0
 23 11  1  0  0  0  0
 23 19  1  0  0  0  0
 24 25  1  0  0  0  0
 25 26  2  0  0  0  0
 28 29  2  0  0  0  0
 29 26  1  0  0  0  0
 29 27  1  0  0  0  0
 30 24  2  0  0  0  0
 30 28  1  0  0  0  0
 31 33  2  0  0  0  0
 31 32  1  0  0  0  0
 32 35  1  0  0  0  0
 35 34  1  1  0  0  0
 35 37  1  0  0  0  0
 37 36  1  0  0  0  0
M  END
>  <MODEL>
8

>  <REMARK>
 VINA RESULT:      -7.1      3.224      7.690
  Name = 
  4 active torsions:
  status: ('A' for Active; 'I' for Inactive)
    1  A    between atoms: C_4  and  N_12
    2  A    between atoms: C_4  and  O_37
    3  A    between atoms: C_8  and  C_18
    4  A    between atoms: C_23  and  C_30
                            x       y       z     vdW  Elec       q    Type
                         _______ _______ _______ _____ _____    ______ ____

>  <TORSDO>
F 4

$$$$
=
 OpenBabel11122411333D

 37 43  0  0  1  0  0  0  0  0999 V2000
  188.0830  177.6110  147.7610 C   0  0  0  0  0  0  0  0  0  0  0  0
  189.5400  177.5890  143.8410 C   0  0  0  0  0  0  0  0  0  0  0  0
  186.9960  178.0680  140.9570 O   0  0  0  0  0  0  0  0  0  0  0  0
  190.0940  177.4210  146.2060 C   0  0  0  0  0  0  0  0  0  0  0  0
  188.3250  177.5560  143.1220 C   0  0  0  0  0  0  0  0  0  0  0  0
  189.1970  177.4570  145.1580 C   0  0  0  0  0  0  0  0  0  0  0  0
  188.1710  177.5050  141.5620 C   0  0  2  0  0  3  0  0  0  0  0  0
  191.4570  177.5050  145.8940 C   0  0  0  0  0  3  0  0  0  0  0  0
  187.8580  177.3540  145.2670 C   0  0  0  0  0  0  0  0  0  0  0  0
  187.9940  179.1230  147.8790 C   0  0  0  0  0  1  0  0  0  0  0  0
  191.4250  177.8780  142.1140 C   0  0  0  0  0  2  0  0  0  0  0  0
  191.8570  177.6430  144.5460 C   0  0  0  0  0  3  0  0  0  0  0  0
  187.1830  177.1340  146.5910 C   0  0  0  0  0  2  0  0  0  0  0  0
  184.7640  178.3440  141.6560 C   0  0  1  0  0  3  0  0  0  0  0  0
  186.1900  178.5240  141.9380 N   0  0  1  0  0  0  0  0  0  0  0  0
  190.9090  177.6750  143.4990 C   0  0  0  0  0  0  0  0  0  0  0  0
  187.2980  177.3790  144.0420 N   0  0  0  0  0  0  0  0  0  0  0  0
  189.5710  177.1940  147.6010 C   0  0  0  0  0  2  0  0  0  0  0  0
  189.4020  177.9340  140.7510 C   0  0  1  0  0  3  0  0  0  0  0  0
  187.5540  177.0100  149.0460 C   0  0  0  0  0  1  0  0  0  0  0  0
  185.5080  177.3000  142.3830 C   0  0  1  0  0  3  0  0  0  0  0  0
  185.8380  177.2990  143.8500 C   0  0  0  0  0  2  0  0  0  0  0  0
  190.6220  177.1090  141.0970 C   0  0  0  0  0  2  0  0  0  0  0  0
  189.0560  179.0570  138.5420 C   0  0  0  0  0  3  0  0  0  0  0  0
  189.1640  177.8660  139.2700 C   0  0  0  0  0  0  0  0  0  0  0  0
  189.0450  176.6340  138.6070 C   0  0  0  0  0  3  0  0  0  0  0  0
  188.6980  175.3490  136.5600 N   0  0  0  0  0  1  0  0  0  0  0  0
  188.7110  177.7910  136.5060 C   0  0  0  0  0  3  0  0  0  0  0  0
  188.8190  176.5990  137.2280 C   0  0  0  0  0  0  0  0  0  0  0  0
  188.8300  179.0190  137.1630 C   0  0  0  0  0  3  0  0  0  0  0  0
  183.9410  179.1950  142.5710 C   0  0  0  0  0  0  0  0  0  0  0  0
  182.5300  178.9850  142.6570 N   0  0  0  0  0  2  0  0  0  0  0  0
  184.4920  180.1140  143.2360 O   0  0  0  0  0  0  0  0  0  0  0  0
  181.0720  178.9070  144.5040 O   0  0  0  0  0  1  0  0  0  0  0  0
  181.6750  179.7490  143.5610 C   0  0  2  0  0  3  0  0  0  0  0  0
  180.2080  179.7150  141.8070 C   0  0  0  0  0  1  0  0  0  0  0  0
  180.7170  180.5030  142.8510 O   0  0  0  0  0  0  0  0  0  0  0  0
  1 10  1  0  0  0  0
  1 20  1  0  0  0  0
  2  6  1  0  0  0  0
  4 18  1  0  0  0  0
  5  2  2  0  0  0  0
  5 17  1  0  0  0  0
  6  9  2  0  0  0  0
  6  4  1  0  0  0  0
  7  3  1  1  0  0  0
  7  5  1  0  0  0  0
  8  4  2  0  0  0  0
  9 13  1  0  0  0  0
 11 16  1  0  0  0  0
 12  8  1  0  0  0  0
 13  1  1  0  0  0  0
 14 15  1  0  0  0  0
 14 21  1  0  0  0  0
 14 31  1  1  0  0  0
 15  3  1  6  0  0  0
 15 21  1  0  0  0  0
 16  2  1  0  0  0  0
 16 12  2  0  0  0  0
 17  9  1  0  0  0  0
 18  1  1  0  0  0  0
 19 25  1  6  0  0  0
 19 23  1  0  0  0  0
 19  7  1  0  0  0  0
 21 22  1  1  0  0  0
 22 17  1  0  0  0  0
 23 11  1  0  0  0  0
 24 25  1  0  0  0  0
 26 25  2  0  0  0  0
 27 29  1  0  0  0  0
 28 30  1  0  0  0  0
 28 29  2  0  0  0  0
 29 26  1  0  0  0  0
 30 24  2  0  0  0  0
 31 32  1  0  0  0  0
 31 33  2  0  0  0  0
 32 35  1  0  0  0  0
 35 34  1  1  0  0  0
 36 37  1  0  0  0  0
 37 35  1  0  0  0  0
M  END
>  <MODEL>
9

>  <REMARK>
 VINA RESULT:      -6.7      2.946      6.993
  Name = 
  4 active torsions:
  status: ('A' for Active; 'I' for Inactive)
    1  A    between atoms: C_4  and  N_12
    2  A    between atoms: C_4  and  O_37
    3  A    between atoms: C_8  and  C_18
    4  A    between atoms: C_23  and  C_30
                            x       y       z     vdW  Elec       q    Type
                         _______ _______ _______ _____ _____    ______ ____

>  <TORSDO>
F 4

$$$$
