=
 OpenBabel11122412013D

 28 32  0  0  1  0  0  0  0  0999 V2000
  187.9120  176.1780  136.5610 C   0  0  0  0  0  0  0  0  0  0  0  0
  189.5240  175.8820  139.0380 F   0  0  0  0  0  0  0  0  0  0  0  0
  184.1500  180.1370  139.3630 O   0  0  0  0  0  1  0  0  0  0  0  0
  189.8560  177.5390  135.0590 C   0  0  0  0  0  3  0  0  0  0  0  0
  185.7410  178.9720  140.7080 C   0  0  2  0  0  3  0  0  0  0  0  0
  186.8920  175.3700  137.3070 C   0  0  0  0  0  2  0  0  0  0  0  0
  191.1770  177.1850  139.7650 F   0  0  0  0  0  0  0  0  0  0  0  0
  189.8170  176.9400  139.8770 C   0  0  0  0  0  0  0  0  0  0  0  0
  189.7870  177.5890  142.0650 C   0  0  2  0  0  3  0  0  0  0  0  0
  189.0480  178.2440  139.4620 C   0  0  2  0  0  3  0  0  0  0  0  0
  183.8140  176.0130  138.2830 O   0  0  0  0  0  0  0  0  0  0  0  0
  186.7370  177.7270  138.9870 C   0  0  1  0  0  3  0  0  0  0  0  0
  188.6600  178.6100  141.9920 C   0  0  0  0  0  2  0  0  0  0  0  0
  189.5150  176.5240  141.1940 O   0  0  0  0  0  0  0  0  0  0  0  0
  184.6700  176.4510  137.4710 C   0  0  0  0  0  0  0  0  0  0  0  0
  188.4510  177.4060  137.0430 C   0  0  0  0  0  0  0  0  0  0  0  0
  184.7480  178.8920  139.5640 C   0  0  2  0  0  3  0  0  0  0  0  0
  189.9070  177.0950  143.4230 N   0  0  0  0  0  1  0  0  0  0  0  0
  184.9150  177.8220  137.3750 O   0  0  0  0  0  0  0  0  0  0  0  0
  189.4180  178.0680  136.2730 C   0  0  0  0  0  3  0  0  0  0  0  0
  188.3660  175.6610  135.3420 C   0  0  0  0  0  3  0  0  0  0  0  0
  189.3310  176.3350  134.5940 C   0  0  0  0  0  3  0  0  0  0  0  0
  185.5050  175.5000  136.6810 C   0  0  0  0  0  2  0  0  0  0  0  0
  186.8380  178.0490  140.4140 N   0  0  1  0  0  0  0  0  0  0  0  0
  185.6130  178.5460  138.3880 C   0  0  2  0  0  3  0  0  0  0  0  0
  188.1140  178.7540  140.5670 C   0  0  2  0  0  3  0  0  0  0  0  0
  185.0630  178.5730  142.0040 C   0  0  0  0  0  1  0  0  0  0  0  0
  188.0450  178.0920  138.3310 C   0  0  2  0  0  3  0  0  0  0  0  0
  1 16  1  0  0  0  0
  1  6  1  0  0  0  0
  2  8  1  0  0  0  0
  3 17  1  0  0  0  0
  4 20  1  0  0  0  0
  5 27  1  1  0  0  0
  7  8  1  0  0  0  0
  8 14  1  0  0  0  0
  9 18  1  1  0  0  0
 10  8  1  1  0  0  0
 10 26  1  0  0  0  0
 12 24  1  0  0  0  0
 13  9  1  0  0  0  0
 14  9  1  0  0  0  0
 15 11  2  0  0  0  0
 16 28  1  0  0  0  0
 17  5  1  0  0  0  0
 19 15  1  0  0  0  0
 19 25  1  0  0  0  0
 20 16  2  0  0  0  0
 21  1  2  0  0  0  0
 22  4  2  0  0  0  0
 22 21  1  0  0  0  0
 23  6  1  0  0  0  0
 23 15  1  0  0  0  0
 24 26  1  0  0  0  0
 24  5  1  0  0  0  0
 25 12  1  0  0  0  0
 25 17  1  0  0  0  0
 26 13  1  0  0  0  0
 28 12  1  0  0  0  0
 28 10  1  0  0  0  0
M  END
>  <MODEL>
1

>  <REMARK>
 VINA RESULT:      -6.4      0.000      0.000
  Name = 
  0 active torsions:
  status: ('A' for Active; 'I' for Inactive)
                            x       y       z     vdW  Elec       q    Type
                         _______ _______ _______ _____ _____    ______ ____

>  <TORSDO>
F 0

$$$$
=
 OpenBabel11122412013D

 28 32  0  0  1  0  0  0  0  0999 V2000
  191.3640  174.6240  137.0850 C   0  0  0  0  0  0  0  0  0  0  0  0
  190.7680  175.4750  139.8680 F   0  0  0  0  0  0  0  0  0  0  0  0
  186.9170  178.2570  134.9150 O   0  0  0  0  0  1  0  0  0  0  0  0
  193.8680  175.8790  136.8820 C   0  0  0  0  0  3  0  0  0  0  0  0
  187.0540  177.9580  137.2790 C   0  0  2  0  0  3  0  0  0  0  0  0
  190.0740  173.8660  137.2000 C   0  0  0  0  0  2  0  0  0  0  0  0
  191.5040  177.2830  140.9380 F   0  0  0  0  0  0  0  0  0  0  0  0
  190.4430  176.7750  140.2040 C   0  0  0  0  0  0  0  0  0  0  0  0
  188.9240  178.0310  141.3560 C   0  0  2  0  0  3  0  0  0  0  0  0
  190.2490  177.6750  138.9330 C   0  0  2  0  0  3  0  0  0  0  0  0
  187.2280  174.0410  135.5540 O   0  0  0  0  0  0  0  0  0  0  0  0
  188.9070  176.5170  137.2940 C   0  0  1  0  0  3  0  0  0  0  0  0
  188.2220  178.6900  140.1780 C   0  0  0  0  0  2  0  0  0  0  0  0
  189.2860  176.7190  141.0160 O   0  0  0  0  0  0  0  0  0  0  0  0
  188.4290  174.3980  135.4280 C   0  0  0  0  0  0  0  0  0  0  0  0
  191.4720  176.0300  137.2880 C   0  0  0  0  0  0  0  0  0  0  0  0
  187.1420  177.3070  135.9120 C   0  0  2  0  0  3  0  0  0  0  0  0
  188.0360  178.0120  142.5020 N   0  0  0  0  0  1  0  0  0  0  0  0
  188.7380  175.6940  135.0090 O   0  0  0  0  0  0  0  0  0  0  0  0
  192.7330  176.6340  137.1780 C   0  0  0  0  0  3  0  0  0  0  0  0
  192.5150  173.8820  136.7910 C   0  0  0  0  0  3  0  0  0  0  0  0
  193.7590  174.5040  136.6890 C   0  0  0  0  0  3  0  0  0  0  0  0
  189.5290  173.4750  135.8280 C   0  0  0  0  0  2  0  0  0  0  0  0
  187.9970  177.2710  138.1630 N   0  0  1  0  0  0  0  0  0  0  0  0
  188.5640  176.8320  135.8530 C   0  0  2  0  0  3  0  0  0  0  0  0
  188.8350  178.2650  138.8390 C   0  0  2  0  0  3  0  0  0  0  0  0
  185.6450  177.8230  137.8220 C   0  0  0  0  0  1  0  0  0  0  0  0
  190.3160  176.9600  137.5950 C   0  0  2  0  0  3  0  0  0  0  0  0
  1  6  1  0  0  0  0
  1 16  1  0  0  0  0
  2  8  1  0  0  0  0
  3 17  1  0  0  0  0
  4 20  1  0  0  0  0
  5 27  1  1  0  0  0
  5 24  1  0  0  0  0
  8  7  1  0  0  0  0
  8 14  1  0  0  0  0
  9 18  1  1  0  0  0
 10  8  1  1  0  0  0
 12 28  1  0  0  0  0
 12 24  1  0  0  0  0
 13  9  1  0  0  0  0
 14  9  1  0  0  0  0
 15 11  2  0  0  0  0
 15 23  1  0  0  0  0
 16 28  1  0  0  0  0
 17  5  1  0  0  0  0
 19 15  1  0  0  0  0
 19 25  1  0  0  0  0
 20 16  2  0  0  0  0
 21  1  2  0  0  0  0
 22 21  1  0  0  0  0
 22  4  2  0  0  0  0
 23  6  1  0  0  0  0
 24 26  1  0  0  0  0
 25 17  1  0  0  0  0
 25 12  1  0  0  0  0
 26 10  1  0  0  0  0
 26 13  1  0  0  0  0
 28 10  1  0  0  0  0
M  END
>  <MODEL>
2

>  <REMARK>
 VINA RESULT:      -6.4      2.759      3.597
  Name = 
  0 active torsions:
  status: ('A' for Active; 'I' for Inactive)
                            x       y       z     vdW  Elec       q    Type
                         _______ _______ _______ _____ _____    ______ ____

>  <TORSDO>
F 0

$$$$
=
 OpenBabel11122412013D

 28 32  0  0  1  0  0  0  0  0999 V2000
  182.0210  178.7400  141.1060 C   0  0  0  0  0  0  0  0  0  0  0  0
  181.2790  176.1370  139.8820 F   0  0  0  0  0  0  0  0  0  0  0  0
  186.7320  179.3420  137.2180 O   0  0  0  0  0  1  0  0  0  0  0  0
  179.7870  180.1820  140.2010 C   0  0  0  0  0  3  0  0  0  0  0  0
  185.5900  177.2470  137.2650 C   0  0  2  0  0  3  0  0  0  0  0  0
  183.1730  177.9710  141.6810 C   0  0  0  0  0  2  0  0  0  0  0  0
  180.0370  175.7770  138.0700 F   0  0  0  0  0  0  0  0  0  0  0  0
  181.3420  175.9000  138.5220 C   0  0  0  0  0  0  0  0  0  0  0  0
  182.1180  174.4210  136.9670 C   0  0  2  0  0  3  0  0  0  0  0  0
  182.0180  177.0890  137.7530 C   0  0  2  0  0  3  0  0  0  0  0  0
  186.4350  178.2530  141.3420 O   0  0  0  0  0  0  0  0  0  0  0  0
  184.0130  177.8000  138.9120 C   0  0  1  0  0  3  0  0  0  0  0  0
  183.2240  175.2730  136.3620 C   0  0  0  0  0  2  0  0  0  0  0  0
  182.0250  174.6760  138.3430 O   0  0  0  0  0  0  0  0  0  0  0  0
  185.3930  178.9320  141.1520 C   0  0  0  0  0  0  0  0  0  0  0  0
  181.7460  178.8230  139.7100 C   0  0  0  0  0  0  0  0  0  0  0  0
  186.1520  178.4020  138.0710 C   0  0  2  0  0  3  0  0  0  0  0  0
  182.4120  173.0170  136.7470 N   0  0  0  0  0  1  0  0  0  0  0  0
  185.2190  179.6370  139.9600 O   0  0  0  0  0  0  0  0  0  0  0  0
  180.6270  179.5510  139.2830 C   0  0  0  0  0  3  0  0  0  0  0  0
  181.1640  179.3780  142.0120 C   0  0  0  0  0  3  0  0  0  0  0  0
  180.0550  180.0950  141.5650 C   0  0  0  0  0  3  0  0  0  0  0  0
  184.2880  178.9010  142.1540 C   0  0  0  0  0  2  0  0  0  0  0  0
  184.3990  176.7540  137.9600 N   0  0  1  0  0  0  0  0  0  0  0  0
  184.9330  178.9870  138.7210 C   0  0  2  0  0  3  0  0  0  0  0  0
  183.2890  176.6620  137.0070 C   0  0  2  0  0  3  0  0  0  0  0  0
  186.6220  176.1410  137.1630 C   0  0  0  0  0  1  0  0  0  0  0  0
  182.5900  178.2000  138.6160 C   0  0  2  0  0  3  0  0  0  0  0  0
  1  6  1  0  0  0  0
  1 21  1  0  0  0  0
  3 17  1  0  0  0  0
  4 22  1  0  0  0  0
  5 27  1  1  0  0  0
  5 24  1  0  0  0  0
  5 17  1  0  0  0  0
  6 23  1  0  0  0  0
  7  8  1  0  0  0  0
  8  2  1  0  0  0  0
  9 18  1  1  0  0  0
  9 14  1  0  0  0  0
 10  8  1  1  0  0  0
 10 28  1  0  0  0  0
 13  9  1  0  0  0  0
 13 26  1  0  0  0  0
 14  8  1  0  0  0  0
 15 11  2  0  0  0  0
 15 23  1  0  0  0  0
 16  1  2  0  0  0  0
 17 25  1  0  0  0  0
 19 15  1  0  0  0  0
 20 16  1  0  0  0  0
 20  4  2  0  0  0  0
 22 21  2  0  0  0  0
 24 12  1  0  0  0  0
 25 12  1  0  0  0  0
 25 19  1  0  0  0  0
 26 10  1  0  0  0  0
 26 24  1  0  0  0  0
 28 12  1  0  0  0  0
 28 16  1  0  0  0  0
M  END
>  <MODEL>
3

>  <REMARK>
 VINA RESULT:      -6.0      3.861      7.478
  Name = 
  0 active torsions:
  status: ('A' for Active; 'I' for Inactive)
                            x       y       z     vdW  Elec       q    Type
                         _______ _______ _______ _____ _____    ______ ____

>  <TORSDO>
F 0

$$$$
=
 OpenBabel11122412013D

 28 32  0  0  1  0  0  0  0  0999 V2000
  186.2100  177.9290  143.7970 C   0  0  0  0  0  0  0  0  0  0  0  0
  183.8680  177.1110  142.1630 F   0  0  0  0  0  0  0  0  0  0  0  0
  189.3250  179.4790  138.7410 O   0  0  0  0  0  1  0  0  0  0  0  0
  185.0230  180.1880  144.9720 C   0  0  0  0  0  3  0  0  0  0  0  0
  187.2620  178.3130  138.4620 C   0  0  2  0  0  3  0  0  0  0  0  0
  186.8340  176.6760  143.2580 C   0  0  0  0  0  2  0  0  0  0  0  0
  182.2380  178.3980  141.3590 F   0  0  0  0  0  0  0  0  0  0  0  0
  183.4510  177.8070  141.0430 C   0  0  0  0  0  0  0  0  0  0  0  0
  182.8590  177.5440  138.8550 C   0  0  2  0  0  3  0  0  0  0  0  0
  184.4630  178.9410  140.6510 C   0  0  2  0  0  3  0  0  0  0  0  0
  189.4930  176.1310  141.3950 O   0  0  0  0  0  0  0  0  0  0  0  0
  186.7250  178.1010  140.7360 C   0  0  1  0  0  3  0  0  0  0  0  0
  184.0630  178.2090  138.2040 C   0  0  0  0  0  2  0  0  0  0  0  0
  183.2650  176.8600  140.0100 O   0  0  0  0  0  0  0  0  0  0  0  0
  189.0000  177.0390  142.1140 C   0  0  0  0  0  0  0  0  0  0  0  0
  185.6960  178.9720  142.9730 C   0  0  0  0  0  0  0  0  0  0  0  0
  188.5500  178.4380  139.2520 C   0  0  2  0  0  3  0  0  0  0  0  0
  182.2540  176.6140  137.9210 N   0  0  0  0  0  1  0  0  0  0  0  0
  188.9640  178.3580  141.6580 O   0  0  0  0  0  0  0  0  0  0  0  0
  185.1110  180.0900  143.5830 C   0  0  0  0  0  3  0  0  0  0  0  0
  186.1100  178.0430  145.1890 C   0  0  0  0  0  3  0  0  0  0  0  0
  185.5220  179.1640  145.7750 C   0  0  0  0  0  3  0  0  0  0  0  0
  188.3530  176.6950  143.4130 C   0  0  0  0  0  2  0  0  0  0  0  0
  186.2130  177.8680  139.3820 N   0  0  1  0  0  0  0  0  0  0  0  0
  188.0710  178.7870  140.6300 C   0  0  2  0  0  3  0  0  0  0  0  0
  185.0490  178.7480  139.2460 C   0  0  2  0  0  3  0  0  0  0  0  0
  187.4370  177.2980  137.3500 C   0  0  0  0  0  1  0  0  0  0  0  0
  185.7480  178.9940  141.4590 C   0  0  2  0  0  3  0  0  0  0  0  0
  1 21  1  0  0  0  0
  3 17  1  0  0  0  0
  4 22  1  0  0  0  0
  5 27  1  6  0  0  0
  5 17  1  0  0  0  0
  5 24  1  0  0  0  0
  6 23  1  0  0  0  0
  6  1  1  0  0  0  0
  8  7  1  0  0  0  0
  8  2  1  0  0  0  0
  9 18  1  6  0  0  0
  9 14  1  0  0  0  0
 10  8  1  1  0  0  0
 10 28  1  0  0  0  0
 11 15  2  0  0  0  0
 12 28  1  0  0  0  0
 13  9  1  0  0  0  0
 13 26  1  0  0  0  0
 14  8  1  0  0  0  0
 15 23  1  0  0  0  0
 16 20  1  0  0  0  0
 16  1  2  0  0  0  0
 17 25  1  0  0  0  0
 19 15  1  0  0  0  0
 20  4  2  0  0  0  0
 21 22  2  0  0  0  0
 24 12  1  0  0  0  0
 25 12  1  0  0  0  0
 25 19  1  0  0  0  0
 26 24  1  0  0  0  0
 26 10  1  0  0  0  0
 28 16  1  0  0  0  0
M  END
>  <MODEL>
4

>  <REMARK>
 VINA RESULT:      -5.9      2.946      6.844
  Name = 
  0 active torsions:
  status: ('A' for Active; 'I' for Inactive)
                            x       y       z     vdW  Elec       q    Type
                         _______ _______ _______ _____ _____    ______ ____

>  <TORSDO>
F 0

$$$$
=
 OpenBabel11122412013D

 28 32  0  0  1  0  0  0  0  0999 V2000
  183.1920  177.2300  137.1630 C   0  0  0  0  0  0  0  0  0  0  0  0
  184.1710  174.4510  136.7880 F   0  0  0  0  0  0  0  0  0  0  0  0
  188.9520  179.3490  137.2750 O   0  0  0  0  0  1  0  0  0  0  0  0
  182.0650  177.5340  134.6090 C   0  0  0  0  0  3  0  0  0  0  0  0
  188.6360  176.9850  137.3340 C   0  0  2  0  0  3  0  0  0  0  0  0
  183.7020  177.0610  138.5640 C   0  0  0  0  0  2  0  0  0  0  0  0
  184.7480  173.4420  134.8890 F   0  0  0  0  0  0  0  0  0  0  0  0
  185.2470  174.1330  135.9820 C   0  0  0  0  0  0  0  0  0  0  0  0
  187.2080  172.9660  135.9410 C   0  0  2  0  0  3  0  0  0  0  0  0
  185.9810  175.4180  135.4580 C   0  0  2  0  0  3  0  0  0  0  0  0
  186.0190  178.6270  140.3010 O   0  0  0  0  0  0  0  0  0  0  0  0
  186.2900  176.9920  137.2630 C   0  0  1  0  0  3  0  0  0  0  0  0
  188.1790  174.1380  135.9230 C   0  0  0  0  0  2  0  0  0  0  0  0
  186.0960  173.2880  136.7330 O   0  0  0  0  0  0  0  0  0  0  0  0
  185.3230  178.7950  139.2660 C   0  0  0  0  0  0  0  0  0  0  0  0
  184.0040  177.0610  136.0040 C   0  0  0  0  0  0  0  0  0  0  0  0
  188.1640  178.3390  137.8280 C   0  0  2  0  0  3  0  0  0  0  0  0
  187.8710  171.7940  136.4800 N   0  0  0  0  0  1  0  0  0  0  0  0
  185.9140  179.2520  138.0860 O   0  0  0  0  0  0  0  0  0  0  0  0
  183.4180  177.2210  134.7400 C   0  0  0  0  0  3  0  0  0  0  0  0
  181.8350  177.5410  137.0120 C   0  0  0  0  0  3  0  0  0  0  0  0
  181.2740  177.6930  135.7440 C   0  0  0  0  0  3  0  0  0  0  0  0
  183.8830  178.4070  139.2620 C   0  0  0  0  0  2  0  0  0  0  0  0
  187.4640  176.1130  137.2310 N   0  0  1  0  0  0  0  0  0  0  0  0
  186.7670  178.4290  137.2900 C   0  0  2  0  0  3  0  0  0  0  0  0
  187.4470  175.4840  135.9080 C   0  0  2  0  0  3  0  0  0  0  0  0
  189.6310  176.3980  138.3160 C   0  0  0  0  0  1  0  0  0  0  0  0
  185.4840  176.7410  136.0130 C   0  0  2  0  0  3  0  0  0  0  0  0
  1  6  1  0  0  0  0
  3 17  1  0  0  0  0
  4 20  2  0  0  0  0
  4 22  1  0  0  0  0
  5 17  1  0  0  0  0
  5 27  1  1  0  0  0
  6 23  1  0  0  0  0
  7  8  1  0  0  0  0
  8 14  1  0  0  0  0
  8  2  1  0  0  0  0
  9 18  1  1  0  0  0
  9 14  1  0  0  0  0
 10 26  1  0  0  0  0
 10  8  1  1  0  0  0
 10 28  1  0  0  0  0
 12 25  1  0  0  0  0
 13  9  1  0  0  0  0
 15 11  2  0  0  0  0
 16 28  1  0  0  0  0
 16  1  2  0  0  0  0
 19 15  1  0  0  0  0
 20 16  1  0  0  0  0
 21  1  1  0  0  0  0
 22 21  2  0  0  0  0
 23 15  1  0  0  0  0
 24 12  1  0  0  0  0
 24  5  1  0  0  0  0
 25 17  1  0  0  0  0
 25 19  1  0  0  0  0
 26 13  1  0  0  0  0
 26 24  1  0  0  0  0
 28 12  1  0  0  0  0
M  END
>  <MODEL>
5

>  <REMARK>
 VINA RESULT:      -5.5      3.213      5.772
  Name = 
  0 active torsions:
  status: ('A' for Active; 'I' for Inactive)
                            x       y       z     vdW  Elec       q    Type
                         _______ _______ _______ _____ _____    ______ ____

>  <TORSDO>
F 0

$$$$
=
 OpenBabel11122412013D

 28 32  0  0  1  0  0  0  0  0999 V2000
  184.1760  178.6270  138.8620 C   0  0  0  0  0  0  0  0  0  0  0  0
  182.8010  181.0860  137.9180 F   0  0  0  0  0  0  0  0  0  0  0  0
  179.6530  177.5100  142.8580 O   0  0  0  0  0  1  0  0  0  0  0  0
  183.8270  177.1280  136.5130 C   0  0  0  0  0  3  0  0  0  0  0  0
  179.6480  179.6150  141.7330 C   0  0  2  0  0  3  0  0  0  0  0  0
  184.4580  179.4390  140.0920 C   0  0  0  0  0  2  0  0  0  0  0  0
  181.1910  181.2580  136.3890 F   0  0  0  0  0  0  0  0  0  0  0  0
  181.4310  181.1650  137.7510 C   0  0  0  0  0  0  0  0  0  0  0  0
  179.6090  182.4450  138.2520 C   0  0  2  0  0  3  0  0  0  0  0  0
  180.7020  179.8850  138.2930 C   0  0  2  0  0  3  0  0  0  0  0  0
  183.6150  179.0670  143.2530 O   0  0  0  0  0  0  0  0  0  0  0  0
  181.5880  179.2790  140.4560 C   0  0  1  0  0  3  0  0  0  0  0  0
  178.9310  181.5110  139.2440 C   0  0  0  0  0  2  0  0  0  0  0  0
  181.0020  182.3500  138.3920 O   0  0  0  0  0  0  0  0  0  0  0  0
  183.6810  178.3880  142.1950 C   0  0  0  0  0  0  0  0  0  0  0  0
  182.8640  178.3910  138.3580 C   0  0  0  0  0  0  0  0  0  0  0  0
  180.4770  178.5500  142.4260 C   0  0  2  0  0  3  0  0  0  0  0  0
  179.1830  183.8090  138.5010 N   0  0  0  0  0  1  0  0  0  0  0  0
  182.6240  177.5540  141.8260 O   0  0  0  0  0  0  0  0  0  0  0  0
  182.7170  177.6370  137.1860 C   0  0  0  0  0  3  0  0  0  0  0  0
  185.2800  178.1120  138.1710 C   0  0  0  0  0  3  0  0  0  0  0  0
  185.1090  177.3660  137.0050 C   0  0  0  0  0  3  0  0  0  0  0  0
  184.8430  178.5510  141.2730 C   0  0  0  0  0  2  0  0  0  0  0  0
  180.4700  180.2030  140.6740 N   0  0  1  0  0  0  0  0  0  0  0  0
  181.3840  178.0630  141.3350 C   0  0  2  0  0  3  0  0  0  0  0  0
  179.7110  180.2040  139.4210 C   0  0  2  0  0  3  0  0  0  0  0  0
  179.2490  180.6850  142.7310 C   0  0  0  0  0  1  0  0  0  0  0  0
  181.5810  178.8710  139.0050 C   0  0  2  0  0  3  0  0  0  0  0  0
  1  6  1  0  0  0  0
  4 22  2  0  0  0  0
  4 20  1  0  0  0  0
  5 17  1  0  0  0  0
  5 27  1  1  0  0  0
  6 23  1  0  0  0  0
  7  8  1  0  0  0  0
  8  2  1  0  0  0  0
  8 14  1  0  0  0  0
  9 14  1  0  0  0  0
  9 18  1  1  0  0  0
  9 13  1  0  0  0  0
 10  8  1  1  0  0  0
 10 28  1  0  0  0  0
 10 26  1  0  0  0  0
 12 24  1  0  0  0  0
 12 25  1  0  0  0  0
 13 26  1  0  0  0  0
 15 11  2  0  0  0  0
 16  1  1  0  0  0  0
 16 28  1  0  0  0  0
 17  3  1  0  0  0  0
 19 15  1  0  0  0  0
 20 16  2  0  0  0  0
 21  1  2  0  0  0  0
 22 21  1  0  0  0  0
 23 15  1  0  0  0  0
 24  5  1  0  0  0  0
 25 19  1  0  0  0  0
 25 17  1  0  0  0  0
 26 24  1  0  0  0  0
 28 12  1  0  0  0  0
M  END
>  <MODEL>
6

>  <REMARK>
 VINA RESULT:      -5.3      4.992      7.609
  Name = 
  0 active torsions:
  status: ('A' for Active; 'I' for Inactive)
                            x       y       z     vdW  Elec       q    Type
                         _______ _______ _______ _____ _____    ______ ____

>  <TORSDO>
F 0

$$$$
=
 OpenBabel11122412013D

 28 32  0  0  1  0  0  0  0  0999 V2000
  182.7970  178.3640  138.7390 C   0  0  0  0  0  0  0  0  0  0  0  0
  182.2130  175.4740  138.3710 F   0  0  0  0  0  0  0  0  0  0  0  0
  188.1590  177.7570  135.8140 O   0  0  0  0  0  1  0  0  0  0  0  0
  180.8130  179.3280  137.0000 C   0  0  0  0  0  3  0  0  0  0  0  0
  186.9630  175.7670  136.3690 C   0  0  2  0  0  3  0  0  0  0  0  0
  183.8000  177.8790  139.7440 C   0  0  0  0  0  2  0  0  0  0  0  0
  181.3150  174.4700  136.5980 F   0  0  0  0  0  0  0  0  0  0  0  0
  182.5170  174.7860  137.2110 C   0  0  0  0  0  0  0  0  0  0  0  0
  183.5210  172.8910  136.4310 C   0  0  2  0  0  3  0  0  0  0  0  0
  183.3600  175.6620  136.2180 C   0  0  2  0  0  3  0  0  0  0  0  0
  187.0760  178.1410  139.9320 O   0  0  0  0  0  0  0  0  0  0  0  0
  185.1280  176.7970  137.4070 C   0  0  1  0  0  3  0  0  0  0  0  0
  184.7450  173.5220  135.7820 C   0  0  0  0  0  2  0  0  0  0  0  0
  183.1840  173.6000  137.5930 O   0  0  0  0  0  0  0  0  0  0  0  0
  186.1070  178.6770  139.3330 C   0  0  0  0  0  0  0  0  0  0  0  0
  182.7860  177.9520  137.3750 C   0  0  0  0  0  0  0  0  0  0  0  0
  187.4030  177.1480  136.8170 C   0  0  2  0  0  3  0  0  0  0  0  0
  183.8070  171.5090  136.7640 N   0  0  0  0  0  1  0  0  0  0  0  0
  186.1770  178.9230  137.9610 O   0  0  0  0  0  0  0  0  0  0  0  0
  181.7880  178.4500  136.5260 C   0  0  0  0  0  3  0  0  0  0  0  0
  181.8080  179.2430  139.1980 C   0  0  0  0  0  3  0  0  0  0  0  0
  180.8230  179.7240  138.3360 C   0  0  0  0  0  3  0  0  0  0  0  0
  184.8370  178.9530  140.0640 C   0  0  0  0  0  2  0  0  0  0  0  0
  185.6510  175.5020  136.9600 N   0  0  1  0  0  0  0  0  0  0  0  0
  186.1040  177.8780  136.9910 C   0  0  2  0  0  3  0  0  0  0  0  0
  184.7330  175.0500  135.9110 C   0  0  2  0  0  3  0  0  0  0  0  0
  187.9630  174.7310  136.8440 C   0  0  0  0  0  1  0  0  0  0  0  0
  183.7970  177.0210  136.7360 C   0  0  2  0  0  3  0  0  0  0  0  0
  1 21  1  0  0  0  0
  1  6  1  0  0  0  0
  3 17  1  0  0  0  0
  4 22  1  0  0  0  0
  5 17  1  0  0  0  0
  5 27  1  1  0  0  0
  5 24  1  0  0  0  0
  6 23  1  0  0  0  0
  7  8  1  0  0  0  0
  8 14  1  0  0  0  0
  8  2  1  0  0  0  0
  9 18  1  1  0  0  0
  9 14  1  0  0  0  0
 10 28  1  0  0  0  0
 10  8  1  1  0  0  0
 13 26  1  0  0  0  0
 13  9  1  0  0  0  0
 15 11  2  0  0  0  0
 15 23  1  0  0  0  0
 16  1  2  0  0  0  0
 17 25  1  0  0  0  0
 19 15  1  0  0  0  0
 20  4  2  0  0  0  0
 20 16  1  0  0  0  0
 22 21  2  0  0  0  0
 24 12  1  0  0  0  0
 25 12  1  0  0  0  0
 25 19  1  0  0  0  0
 26 10  1  0  0  0  0
 26 24  1  0  0  0  0
 28 16  1  0  0  0  0
 28 12  1  0  0  0  0
M  END
>  <MODEL>
7

>  <REMARK>
 VINA RESULT:      -5.2      3.590      6.868
  Name = 
  0 active torsions:
  status: ('A' for Active; 'I' for Inactive)
                            x       y       z     vdW  Elec       q    Type
                         _______ _______ _______ _____ _____    ______ ____

>  <TORSDO>
F 0

$$$$
=
 OpenBabel11122412013D

 28 32  0  0  1  0  0  0  0  0999 V2000
  189.7650  174.0260  136.0860 C   0  0  0  0  0  0  0  0  0  0  0  0
  189.6950  175.7910  138.4750 F   0  0  0  0  0  0  0  0  0  0  0  0
  183.9910  175.5500  134.6670 O   0  0  0  0  0  1  0  0  0  0  0  0
  191.5960  175.5520  134.5990 C   0  0  0  0  0  3  0  0  0  0  0  0
  184.8400  176.2570  136.7820 C   0  0  2  0  0  3  0  0  0  0  0  0
  188.8600  173.1450  136.8960 C   0  0  0  0  0  2  0  0  0  0  0  0
  190.0790  177.9820  138.5750 F   0  0  0  0  0  0  0  0  0  0  0  0
  189.0780  177.0280  138.4800 C   0  0  0  0  0  0  0  0  0  0  0  0
  187.6060  178.3210  139.6490 C   0  0  2  0  0  3  0  0  0  0  0  0
  188.2790  177.2860  137.1540 C   0  0  2  0  0  3  0  0  0  0  0  0
  185.7760  172.0920  136.4390 O   0  0  0  0  0  0  0  0  0  0  0  0
  186.9850  175.3310  136.5720 C   0  0  1  0  0  3  0  0  0  0  0  0
  186.4440  178.3030  138.6660 C   0  0  0  0  0  2  0  0  0  0  0  0
  188.2590  177.0800  139.6310 O   0  0  0  0  0  0  0  0  0  0  0  0
  186.7220  172.5930  135.7780 C   0  0  0  0  0  0  0  0  0  0  0  0
  189.4740  175.3880  135.7830 C   0  0  0  0  0  0  0  0  0  0  0  0
  184.7610  175.1430  135.7570 C   0  0  2  0  0  3  0  0  0  0  0  0
  187.1080  178.5940  140.9830 N   0  0  0  0  0  1  0  0  0  0  0  0
  186.4830  173.6440  134.8900 O   0  0  0  0  0  0  0  0  0  0  0  0
  190.4030  176.1270  135.0370 C   0  0  0  0  0  3  0  0  0  0  0  0
  190.9690  173.4660  135.6420 C   0  0  0  0  0  3  0  0  0  0  0  0
  191.8790  174.2220  134.9020 C   0  0  0  0  0  3  0  0  0  0  0  0
  188.1230  172.1390  136.0170 C   0  0  0  0  0  2  0  0  0  0  0  0
  186.1510  176.1800  137.4290 N   0  0  1  0  0  0  0  0  0  0  0  0
  186.1900  174.9680  135.3350 C   0  0  2  0  0  3  0  0  0  0  0  0
  186.7800  177.5030  137.4020 C   0  0  2  0  0  3  0  0  0  0  0  0
  183.7440  176.0840  137.8150 C   0  0  0  0  0  1  0  0  0  0  0  0
  188.2090  176.1200  136.1820 C   0  0  2  0  0  3  0  0  0  0  0  0
  1  6  1  0  0  0  0
  2  8  1  0  0  0  0
  3 17  1  0  0  0  0
  4 22  2  0  0  0  0
  4 20  1  0  0  0  0
  5 24  1  0  0  0  0
  5 27  1  1  0  0  0
  8  7  1  0  0  0  0
  8 14  1  0  0  0  0
  9 18  1  1  0  0  0
 10 26  1  0  0  0  0
 10  8  1  1  0  0  0
 12 24  1  0  0  0  0
 13  9  1  0  0  0  0
 14  9  1  0  0  0  0
 15 23  1  0  0  0  0
 15 11  2  0  0  0  0
 16  1  1  0  0  0  0
 16 28  1  0  0  0  0
 17  5  1  0  0  0  0
 19 25  1  0  0  0  0
 19 15  1  0  0  0  0
 20 16  2  0  0  0  0
 21  1  2  0  0  0  0
 22 21  1  0  0  0  0
 23  6  1  0  0  0  0
 25 17  1  0  0  0  0
 25 12  1  0  0  0  0
 26 24  1  0  0  0  0
 26 13  1  0  0  0  0
 28 12  1  0  0  0  0
 28 10  1  0  0  0  0
M  END
>  <MODEL>
8

>  <REMARK>
 VINA RESULT:      -5.1      2.416      3.778
  Name = 
  0 active torsions:
  status: ('A' for Active; 'I' for Inactive)
                            x       y       z     vdW  Elec       q    Type
                         _______ _______ _______ _____ _____    ______ ____

>  <TORSDO>
F 0

$$$$
=
 OpenBabel11122412013D

 28 32  0  0  1  0  0  0  0  0999 V2000
  190.1210  177.2180  138.1380 C   0  0  0  0  0  0  0  0  0  0  0  0
  188.5880  174.7320  137.5980 F   0  0  0  0  0  0  0  0  0  0  0  0
  194.7380  175.2590  134.6000 O   0  0  0  0  0  1  0  0  0  0  0  0
  188.4410  178.9610  136.7140 C   0  0  0  0  0  3  0  0  0  0  0  0
  192.9980  173.7100  135.1160 C   0  0  2  0  0  3  0  0  0  0  0  0
  190.9820  176.3250  138.9830 C   0  0  0  0  0  2  0  0  0  0  0  0
  187.2740  174.2790  135.8580 F   0  0  0  0  0  0  0  0  0  0  0  0
  188.5570  174.1200  136.3590 C   0  0  0  0  0  0  0  0  0  0  0  0
  188.8140  172.1060  135.3180 C   0  0  2  0  0  3  0  0  0  0  0  0
  189.5630  174.7860  135.3550 C   0  0  2  0  0  3  0  0  0  0  0  0
  194.1640  175.4970  138.8300 O   0  0  0  0  0  0  0  0  0  0  0  0
  191.6930  175.1480  136.4320 C   0  0  1  0  0  3  0  0  0  0  0  0
  190.1230  172.3800  134.5940 C   0  0  0  0  0  2  0  0  0  0  0  0
  188.8210  172.7470  136.5660 O   0  0  0  0  0  0  0  0  0  0  0  0
  193.3840  176.3800  138.3870 C   0  0  0  0  0  0  0  0  0  0  0  0
  189.8700  176.9900  136.7540 C   0  0  0  0  0  0  0  0  0  0  0  0
  193.9030  174.8150  135.6250 C   0  0  2  0  0  3  0  0  0  0  0  0
  188.6510  170.6760  135.5020 N   0  0  0  0  0  1  0  0  0  0  0  0
  193.4260  176.7470  137.0410 O   0  0  0  0  0  0  0  0  0  0  0  0
  189.0300  177.8760  136.0650 C   0  0  0  0  0  3  0  0  0  0  0  0
  189.5180  178.3100  138.7740 C   0  0  0  0  0  3  0  0  0  0  0  0
  188.6840  179.1770  138.0690 C   0  0  0  0  0  3  0  0  0  0  0  0
  192.3370  176.9650  139.2740 C   0  0  0  0  0  2  0  0  0  0  0  0
  191.7210  173.8140  135.8240 N   0  0  1  0  0  0  0  0  0  0  0  0
  192.9370  175.8980  136.0020 C   0  0  2  0  0  3  0  0  0  0  0  0
  190.6280  173.8040  134.8490 C   0  0  2  0  0  3  0  0  0  0  0  0
  193.6320  172.3600  135.3900 C   0  0  0  0  0  1  0  0  0  0  0  0
  190.4630  175.8640  135.9330 C   0  0  2  0  0  3  0  0  0  0  0  0
  1 21  1  0  0  0  0
  1  6  1  0  0  0  0
  3 17  1  0  0  0  0
  4 22  1  0  0  0  0
  5 27  1  1  0  0  0
  5 17  1  0  0  0  0
  5 24  1  0  0  0  0
  6 23  1  0  0  0  0
  7  8  1  0  0  0  0
  8 14  1  0  0  0  0
  8  2  1  0  0  0  0
  9 18  1  1  0  0  0
  9 14  1  0  0  0  0
 10 28  1  0  0  0  0
 10  8  1  1  0  0  0
 13 26  1  0  0  0  0
 13  9  1  0  0  0  0
 15 11  2  0  0  0  0
 15 23  1  0  0  0  0
 16  1  2  0  0  0  0
 17 25  1  0  0  0  0
 19 15  1  0  0  0  0
 20  4  2  0  0  0  0
 20 16  1  0  0  0  0
 22 21  2  0  0  0  0
 24 12  1  0  0  0  0
 25 12  1  0  0  0  0
 25 19  1  0  0  0  0
 26 10  1  0  0  0  0
 26 24  1  0  0  0  0
 28 12  1  0  0  0  0
 28 16  1  0  0  0  0
M  END
>  <MODEL>
9

>  <REMARK>
 VINA RESULT:      -5.0      4.298      7.535
  Name = 
  0 active torsions:
  status: ('A' for Active; 'I' for Inactive)
                            x       y       z     vdW  Elec       q    Type
                         _______ _______ _______ _____ _____    ______ ____

>  <TORSDO>
F 0

$$$$
