=
 OpenBabel11122410583D

 31 36  0  0  1  0  0  0  0  0999 V2000
  191.7230  176.4770  138.2970 C   0  0  0  0  0  0  0  0  0  0  0  0
  188.5560  177.2570  136.3520 C   0  0  2  0  0  3  0  0  0  0  0  0
  188.0770  175.8910  135.8070 C   0  0  1  0  0  3  0  0  0  0  0  0
  187.6340  173.6540  136.5580 C   0  0  0  0  0  0  0  0  0  0  0  0
  189.5380  177.1580  137.4900 C   0  0  0  0  0  0  0  0  0  0  0  0
  191.3570  176.8320  139.5980 C   0  0  0  0  0  3  0  0  0  0  0  0
  188.2600  174.7750  136.7150 N   0  0  0  0  0  0  0  0  0  0  0  0
  186.7920  177.9420  138.0190 C   0  0  2  0  0  3  0  0  0  0  0  0
  193.0750  175.9220  138.0320 C   0  0  0  0  0  1  0  0  0  0  0  0
  186.4510  177.1130  134.5940 O   0  0  0  0  0  0  0  0  0  0  0  0
  187.9410  172.3460  137.6840 Cl  0  0  0  0  0  0  0  0  0  0  0  0
  187.8560  178.1780  139.0980 C   0  0  0  0  0  2  0  0  0  0  0  0
  187.3950  178.2420  136.6310 C   0  0  2  0  0  3  0  0  0  0  0  0
  190.8170  176.6380  137.2480 C   0  0  0  0  0  3  0  0  0  0  0  0
  186.5320  173.4790  135.5250 C   0  0  0  0  0  2  0  0  0  0  0  0
  189.1680  177.5100  138.8040 C   0  0  0  0  0  0  0  0  0  0  0  0
  190.0850  177.3560  139.8470 C   0  0  0  0  0  3  0  0  0  0  0  0
  186.3230  178.1920  135.5020 C   0  0  0  0  0  2  0  0  0  0  0  0
  186.6270  175.9600  135.3660 C   0  0  1  0  0  3  0  0  0  0  0  0
  186.3450  174.6870  134.5940 C   0  0  0  0  0  2  0  0  0  0  0  0
  185.3780  178.6260  139.7560 C   0  0  0  0  0  2  0  0  0  0  0  0
  184.5430  177.9180  138.7980 C   0  0  2  0  0  3  0  0  0  0  0  0
  185.6340  178.7840  138.3140 N   0  0  2  0  0  0  0  0  0  0  0  0
  181.0410  176.6920  139.3490 C   0  0  1  0  0  3  0  0  0  0  0  0
  182.4830  178.5520  139.9560 O   0  0  0  0  0  0  0  0  0  0  0  0
  183.0330  177.8440  136.1810 O   0  0  0  0  0  0  0  0  0  0  0  0
  180.5900  175.3340  139.8440 C   0  0  0  0  0  1  0  0  0  0  0  0
  182.1830  177.1970  140.2280 C   0  0  0  0  0  2  0  0  0  0  0  0
  182.1110  178.1660  137.3480 S   0  0  2  0  0  0  0  0  0  0  0  0
  183.1890  178.6410  138.7340 C   0  0  2  0  0  3  0  0  0  0  0  0
  181.5090  176.5660  137.9060 C   0  0  0  0  0  2  0  0  0  0  0  0
  1  6  1  0  0  0  0
  2 13  1  0  0  0  0
  2  5  1  1  0  0  0
  3  2  1  0  0  0  0
  3  7  1  1  0  0  0
  4  7  2  0  0  0  0
  4 11  1  0  0  0  0
  5 16  2  0  0  0  0
  6 17  2  0  0  0  0
  8 23  1  0  0  0  0
  8 12  1  1  0  0  0
  9  1  1  0  0  0  0
 10 19  1  0  0  0  0
 10 18  1  0  0  0  0
 13 18  1  6  0  0  0
 13  8  1  0  0  0  0
 14  5  1  0  0  0  0
 14  1  2  0  0  0  0
 15  4  1  0  0  0  0
 16 12  1  0  0  0  0
 16 17  1  0  0  0  0
 19 20  1  6  0  0  0
 19  3  1  0  0  0  0
 20 15  1  0  0  0  0
 22 21  1  1  0  0  0
 23 22  1  0  0  0  0
 23 21  1  1  0  0  0
 24 27  1  1  0  0  0
 24 28  1  0  0  0  0
 25 28  1  0  0  0  0
 29 26  2  6  0  0  0
 29 31  1  0  0  0  0
 29 30  1  0  0  0  0
 30 22  1  0  0  0  0
 30 25  1  1  0  0  0
 31 24  1  0  0  0  0
M  END
>  <MODEL>
1

>  <REMARK>
 VINA RESULT:      -6.0      0.000      0.000
  Name = 
  2 active torsions:
  status: ('A' for Active; 'I' for Inactive)
    1  A    between atoms: C_5  and  C_30
    2  A    between atoms: C_10  and  N_16
                            x       y       z     vdW  Elec       q    Type
                         _______ _______ _______ _____ _____    ______ ____

>  <TORSDO>
F 2

$$$$
=
 OpenBabel11122410583D

 31 36  0  0  1  0  0  0  0  0999 V2000
  181.8110  171.7530  136.3700 C   0  0  0  0  0  0  0  0  0  0  0  0
  183.1580  175.1540  135.3500 C   0  0  2  0  0  3  0  0  0  0  0  0
  182.4410  176.1620  136.2800 C   0  0  1  0  0  3  0  0  0  0  0  0
  181.9690  176.5160  138.6080 C   0  0  0  0  0  0  0  0  0  0  0  0
  183.1150  173.7290  135.8340 C   0  0  0  0  0  0  0  0  0  0  0  0
  182.9610  171.1200  136.8480 C   0  0  0  0  0  3  0  0  0  0  0  0
  182.2460  175.7010  137.6410 N   0  0  0  0  0  0  0  0  0  0  0  0
  185.5810  175.2480  136.0420 C   0  0  2  0  0  3  0  0  0  0  0  0
  180.5050  171.0460  136.4050 C   0  0  0  0  0  1  0  0  0  0  0  0
  183.4440  177.8590  134.9680 O   0  0  0  0  0  0  0  0  0  0  0  0
  181.7160  175.8690  140.2170 Cl  0  0  0  0  0  0  0  0  0  0  0  0
  185.6280  173.7240  136.2030 C   0  0  0  0  0  2  0  0  0  0  0  0
  184.5750  175.6150  134.9320 C   0  0  2  0  0  3  0  0  0  0  0  0
  181.8880  173.0530  135.8670 C   0  0  0  0  0  3  0  0  0  0  0  0
  182.0030  178.0260  138.4290 C   0  0  0  0  0  2  0  0  0  0  0  0
  184.2740  173.0900  136.3220 C   0  0  0  0  0  0  0  0  0  0  0  0
  184.1900  171.7850  136.8150 C   0  0  0  0  0  3  0  0  0  0  0  0
  184.6010  177.1350  134.5940 C   0  0  0  0  0  2  0  0  0  0  0  0
  183.1580  177.4990  136.2880 C   0  0  1  0  0  3  0  0  0  0  0  0
  182.2360  178.4830  136.9800 C   0  0  0  0  0  2  0  0  0  0  0  0
  187.8470  174.7790  136.4020 C   0  0  0  0  0  2  0  0  0  0  0  0
  187.5890  176.0690  137.0240 C   0  0  2  0  0  3  0  0  0  0  0  0
  186.9300  175.7290  135.7490 N   0  0  2  0  0  0  0  0  0  0  0  0
  190.0550  177.5650  139.4210 C   0  0  1  0  0  3  0  0  0  0  0  0
  190.0000  176.3640  137.3090 O   0  0  0  0  0  0  0  0  0  0  0  0
  187.2170  179.0630  137.1780 O   0  0  0  0  0  0  0  0  0  0  0  0
  190.1740  177.3310  140.9120 C   0  0  0  0  0  1  0  0  0  0  0  0
  189.8830  176.2240  138.7100 C   0  0  0  0  0  2  0  0  0  0  0  0
  188.6740  178.6710  137.3740 S   0  0  2  0  0  0  0  0  0  0  0  0
  188.8230  176.9540  136.7940 C   0  0  2  0  0  3  0  0  0  0  0  0
  188.8520  178.4580  139.1510 C   0  0  0  0  0  2  0  0  0  0  0  0
  1  9  1  0  0  0  0
  1  6  1  0  0  0  0
  2  5  1  1  0  0  0
  2  3  1  0  0  0  0
  3 19  1  0  0  0  0
  3  7  1  1  0  0  0
  4 11  1  0  0  0  0
  5 14  1  0  0  0  0
  5 16  2  0  0  0  0
  7  4  2  0  0  0  0
  8 12  1  6  0  0  0
 10 19  1  0  0  0  0
 12 16  1  0  0  0  0
 13 18  1  1  0  0  0
 13  2  1  0  0  0  0
 13  8  1  0  0  0  0
 14  1  2  0  0  0  0
 15  4  1  0  0  0  0
 16 17  1  0  0  0  0
 17  6  2  0  0  0  0
 18 10  1  0  0  0  0
 19 20  1  6  0  0  0
 20 15  1  0  0  0  0
 22 21  1  6  0  0  0
 23  8  1  0  0  0  0
 23 21  1  1  0  0  0
 23 22  1  0  0  0  0
 24 27  1  1  0  0  0
 25 28  1  0  0  0  0
 28 24  1  0  0  0  0
 29 26  2  1  0  0  0
 29 31  1  0  0  0  0
 30 22  1  0  0  0  0
 30 25  1  1  0  0  0
 30 29  1  0  0  0  0
 31 24  1  0  0  0  0
M  END
>  <MODEL>
2

>  <REMARK>
 VINA RESULT:      -5.1      3.250      7.222
  Name = 
  2 active torsions:
  status: ('A' for Active; 'I' for Inactive)
    1  A    between atoms: C_5  and  C_30
    2  A    between atoms: C_10  and  N_16
                            x       y       z     vdW  Elec       q    Type
                         _______ _______ _______ _____ _____    ______ ____

>  <TORSDO>
F 2

$$$$
=
 OpenBabel11122410583D

 31 36  0  0  1  0  0  0  0  0999 V2000
  181.2380  178.4580  141.6230 C   0  0  0  0  0  0  0  0  0  0  0  0
  181.6360  177.5920  137.9470 C   0  0  2  0  0  3  0  0  0  0  0  0
  180.9270  178.7390  137.1890 C   0  0  1  0  0  3  0  0  0  0  0  0
  180.8620  181.1380  137.1070 C   0  0  0  0  0  0  0  0  0  0  0  0
  181.9800  177.9170  139.3770 C   0  0  0  0  0  0  0  0  0  0  0  0
  182.5640  178.6510  142.0180 C   0  0  0  0  0  3  0  0  0  0  0  0
  181.1020  180.0540  137.7730 N   0  0  0  0  0  0  0  0  0  0  0  0
  184.0770  177.8470  137.3680 C   0  0  2  0  0  3  0  0  0  0  0  0
  180.1370  178.6470  142.6020 C   0  0  0  0  0  1  0  0  0  0  0  0
  181.2830  177.4620  135.2260 O   0  0  0  0  0  0  0  0  0  0  0  0
  181.0690  182.6860  137.9020 Cl  0  0  0  0  0  0  0  0  0  0  0  0
  184.4640  177.8290  138.8510 C   0  0  0  0  0  2  0  0  0  0  0  0
  182.8180  176.9800  137.1570 C   0  0  2  0  0  3  0  0  0  0  0  0
  180.9480  178.0940  140.3070 C   0  0  0  0  0  3  0  0  0  0  0  0
  180.5520  181.1220  135.6180 C   0  0  0  0  0  2  0  0  0  0  0  0
  183.3180  178.1180  139.7760 C   0  0  0  0  0  0  0  0  0  0  0  0
  183.6010  178.4720  141.0980 C   0  0  0  0  0  3  0  0  0  0  0  0
  182.4670  176.8100  135.6490 C   0  0  0  0  0  2  0  0  0  0  0  0
  181.3430  178.7650  135.7300 C   0  0  1  0  0  3  0  0  0  0  0  0
  180.3960  179.7130  135.0230 C   0  0  0  0  0  2  0  0  0  0  0  0
  185.5700  176.0560  137.1440 C   0  0  0  0  0  2  0  0  0  0  0  0
  186.3710  177.2210  137.4860 C   0  0  2  0  0  3  0  0  0  0  0  0
  185.2140  177.3710  136.5830 N   0  0  2  0  0  0  0  0  0  0  0  0
  189.9440  177.0880  138.6180 C   0  0  1  0  0  3  0  0  0  0  0  0
  188.4410  175.9920  137.0540 O   0  0  0  0  0  0  0  0  0  0  0  0
  187.7810  179.8080  136.8150 O   0  0  0  0  0  0  0  0  0  0  0  0
  190.4760  176.9660  140.0300 C   0  0  0  0  0  1  0  0  0  0  0  0
  188.8140  176.0810  138.4150 C   0  0  0  0  0  2  0  0  0  0  0  0
  188.7310  178.6210  136.7470 S   0  0  2  0  0  0  0  0  0  0  0  0
  187.6860  177.1330  136.6980 C   0  0  2  0  0  3  0  0  0  0  0  0
  189.4280  178.5030  138.4010 C   0  0  0  0  0  2  0  0  0  0  0  0
  1  6  1  0  0  0  0
  1  9  1  0  0  0  0
  2  5  1  1  0  0  0
  3  7  1  1  0  0  0
  3  2  1  0  0  0  0
  4  7  2  0  0  0  0
  4 11  1  0  0  0  0
  5 16  2  0  0  0  0
  5 14  1  0  0  0  0
  8 12  1  1  0  0  0
 10 18  1  0  0  0  0
 10 19  1  0  0  0  0
 12 16  1  0  0  0  0
 13 18  1  6  0  0  0
 13  8  1  0  0  0  0
 13  2  1  0  0  0  0
 14  1  2  0  0  0  0
 15  4  1  0  0  0  0
 16 17  1  0  0  0  0
 17  6  2  0  0  0  0
 19 20  1  6  0  0  0
 19  3  1  0  0  0  0
 20 15  1  0  0  0  0
 22 21  1  6  0  0  0
 23 21  1  1  0  0  0
 23  8  1  0  0  0  0
 23 22  1  0  0  0  0
 24 27  1  1  0  0  0
 25 28  1  0  0  0  0
 28 24  1  0  0  0  0
 29 26  2  1  0  0  0
 29 31  1  0  0  0  0
 30 29  1  0  0  0  0
 30 25  1  1  0  0  0
 30 22  1  0  0  0  0
 31 24  1  0  0  0  0
M  END
>  <MODEL>
3

>  <REMARK>
 VINA RESULT:      -4.6      3.507      7.728
  Name = 
  2 active torsions:
  status: ('A' for Active; 'I' for Inactive)
    1  A    between atoms: C_5  and  C_30
    2  A    between atoms: C_10  and  N_16
                            x       y       z     vdW  Elec       q    Type
                         _______ _______ _______ _____ _____    ______ ____

>  <TORSDO>
F 2

$$$$
=
 OpenBabel11122410583D

 31 36  0  0  1  0  0  0  0  0999 V2000
  181.0480  178.9690  140.4150 C   0  0  0  0  0  0  0  0  0  0  0  0
  183.9710  178.2530  138.1000 C   0  0  2  0  0  3  0  0  0  0  0  0
  185.2290  178.6300  138.9180 C   0  0  1  0  0  3  0  0  0  0  0  0
  186.2210  178.2380  141.0690 C   0  0  0  0  0  0  0  0  0  0  0  0
  182.7320  178.0480  138.9310 C   0  0  0  0  0  0  0  0  0  0  0  0
  180.5040  177.6950  140.5940 C   0  0  0  0  0  3  0  0  0  0  0  0
  185.1620  178.2930  140.3270 N   0  0  0  0  0  0  0  0  0  0  0  0
  184.1140  175.7520  137.8110 C   0  0  2  0  0  3  0  0  0  0  0  0
  180.4490  180.1370  141.1120 C   0  0  0  0  0  1  0  0  0  0  0  0
  186.4540  178.2570  136.9250 O   0  0  0  0  0  0  0  0  0  0  0  0
  186.0440  177.8550  142.7710 Cl  0  0  0  0  0  0  0  0  0  0  0  0
  182.6890  175.5760  138.3480 C   0  0  0  0  0  2  0  0  0  0  0  0
  184.2240  177.1100  137.0870 C   0  0  2  0  0  3  0  0  0  0  0  0
  182.1590  179.1440  139.5890 C   0  0  0  0  0  3  0  0  0  0  0  0
  187.6230  178.3440  140.4910 C   0  0  0  0  0  2  0  0  0  0  0  0
  182.1850  176.7610  139.1170 C   0  0  0  0  0  0  0  0  0  0  0  0
  181.0660  176.5970  139.9390 C   0  0  0  0  0  3  0  0  0  0  0  0
  185.5940  177.2820  136.3660 C   0  0  0  0  0  2  0  0  0  0  0  0
  186.4770  178.0250  138.3040 C   0  0  1  0  0  3  0  0  0  0  0  0
  187.6600  178.6780  138.9900 C   0  0  0  0  0  2  0  0  0  0  0  0
  184.6680  173.4770  137.8150 C   0  0  0  0  0  2  0  0  0  0  0  0
  185.7960  174.1750  137.2190 C   0  0  2  0  0  3  0  0  0  0  0  0
  184.4230  174.6280  136.9290 N   0  0  2  0  0  0  0  0  0  0  0  0
  189.3070  173.3610  136.1790 C   0  0  1  0  0  3  0  0  0  0  0  0
  187.1750  172.2610  136.5720 O   0  0  0  0  0  0  0  0  0  0  0  0
  186.4500  175.5190  134.5940 O   0  0  0  0  0  0  0  0  0  0  0  0
  190.5990  173.7200  136.8800 C   0  0  0  0  0  1  0  0  0  0  0  0
  188.3080  172.8240  137.2020 C   0  0  0  0  0  2  0  0  0  0  0  0
  187.1730  174.1870  134.7340 S   0  0  2  0  0  0  0  0  0  0  0  0
  186.3440  173.2960  136.0850 C   0  0  2  0  0  3  0  0  0  0  0  0
  188.7450  174.6030  135.5030 C   0  0  0  0  0  2  0  0  0  0  0  0
  1  6  1  0  0  0  0
  1  9  1  0  0  0  0
  2  3  1  0  0  0  0
  2  5  1  1  0  0  0
  3  7  1  1  0  0  0
  4 11  1  0  0  0  0
  5 16  2  0  0  0  0
  5 14  1  0  0  0  0
  7  4  2  0  0  0  0
  8 12  1  6  0  0  0
 10 19  1  0  0  0  0
 12 16  1  0  0  0  0
 13 18  1  1  0  0  0
 13  8  1  0  0  0  0
 13  2  1  0  0  0  0
 14  1  2  0  0  0  0
 15  4  1  0  0  0  0
 16 17  1  0  0  0  0
 17  6  2  0  0  0  0
 18 10  1  0  0  0  0
 19  3  1  0  0  0  0
 19 20  1  1  0  0  0
 20 15  1  0  0  0  0
 22 21  1  1  0  0  0
 23 22  1  0  0  0  0
 23  8  1  0  0  0  0
 23 21  1  1  0  0  0
 24 27  1  1  0  0  0
 24 28  1  0  0  0  0
 25 28  1  0  0  0  0
 29 26  2  1  0  0  0
 29 31  1  0  0  0  0
 29 30  1  0  0  0  0
 30 25  1  1  0  0  0
 30 22  1  0  0  0  0
 31 24  1  0  0  0  0
M  END
>  <MODEL>
4

>  <REMARK>
 VINA RESULT:      -4.1      2.949      7.268
  Name = 
  2 active torsions:
  status: ('A' for Active; 'I' for Inactive)
    1  A    between atoms: C_5  and  C_30
    2  A    between atoms: C_10  and  N_16
                            x       y       z     vdW  Elec       q    Type
                         _______ _______ _______ _____ _____    ______ ____

>  <TORSDO>
F 2

$$$$
=
 OpenBabel11122410583D

 31 36  0  0  1  0  0  0  0  0999 V2000
  184.4910  179.2730  142.9200 C   0  0  0  0  0  0  0  0  0  0  0  0
  186.5700  179.0600  139.7490 C   0  0  2  0  0  3  0  0  0  0  0  0
  187.9520  178.5420  140.2130 C   0  0  1  0  0  3  0  0  0  0  0  0
  188.9180  176.7840  141.5330 C   0  0  0  0  0  0  0  0  0  0  0  0
  185.4590  178.8290  140.7400 C   0  0  0  0  0  0  0  0  0  0  0  0
  183.4860  178.3360  142.6690 C   0  0  0  0  0  3  0  0  0  0  0  0
  187.9060  177.5440  141.2640 N   0  0  0  0  0  0  0  0  0  0  0  0
  185.6190  177.1960  138.3440 C   0  0  2  0  0  3  0  0  0  0  0  0
  184.5180  180.0060  144.2130 C   0  0  0  0  0  1  0  0  0  0  0  0
  188.6800  178.9410  137.9950 O   0  0  0  0  0  0  0  0  0  0  0  0
  188.7870  175.6280  142.8430 Cl  0  0  0  0  0  0  0  0  0  0  0  0
  184.3200  177.2000  139.1580 C   0  0  0  0  0  2  0  0  0  0  0  0
  186.2070  178.6210  138.3100 C   0  0  2  0  0  3  0  0  0  0  0  0
  185.4740  179.5180  141.9600 C   0  0  0  0  0  3  0  0  0  0  0  0
  190.1630  176.7540  140.6600 C   0  0  0  0  0  2  0  0  0  0  0  0
  184.4480  177.8780  140.4900 C   0  0  0  0  0  0  0  0  0  0  0  0
  183.4610  177.6480  141.4530 C   0  0  0  0  0  3  0  0  0  0  0  0
  187.4340  178.7290  137.3570 C   0  0  0  0  0  2  0  0  0  0  0  0
  188.7560  178.0140  139.0400 C   0  0  1  0  0  3  0  0  0  0  0  0
  190.1710  177.8060  139.5390 C   0  0  0  0  0  2  0  0  0  0  0  0
  184.5460  175.4530  137.2050 C   0  0  0  0  0  2  0  0  0  0  0  0
  185.9580  175.3580  136.8690 C   0  0  2  0  0  3  0  0  0  0  0  0
  185.3280  176.6850  137.0050 N   0  0  2  0  0  0  0  0  0  0  0  0
  187.4010  172.2980  135.2490 C   0  0  1  0  0  3  0  0  0  0  0  0
  185.4200  173.7030  135.1500 O   0  0  0  0  0  0  0  0  0  0  0  0
  188.4960  176.0540  135.3860 O   0  0  0  0  0  0  0  0  0  0  0  0
  187.9310  171.0460  135.9150 C   0  0  0  0  0  1  0  0  0  0  0  0
  186.0660  172.6830  135.8850 C   0  0  0  0  0  2  0  0  0  0  0  0
  187.7410  174.9260  134.6990 S   0  0  2  0  0  0  0  0  0  0  0  0
  186.0600  174.9390  135.3950 C   0  0  2  0  0  3  0  0  0  0  0  0
  188.4090  173.4230  135.4280 C   0  0  0  0  0  2  0  0  0  0  0  0
  1  9  1  0  0  0  0
  2  3  1  0  0  0  0
  2  5  1  1  0  0  0
  3  7  1  1  0  0  0
  4 11  1  0  0  0  0
  5 14  1  0  0  0  0
  6  1  1  0  0  0  0
  7  4  2  0  0  0  0
  8 12  1  1  0  0  0
 10 19  1  0  0  0  0
 12 16  1  0  0  0  0
 13 18  1  6  0  0  0
 13  8  1  0  0  0  0
 13  2  1  0  0  0  0
 14  1  2  0  0  0  0
 15  4  1  0  0  0  0
 16  5  2  0  0  0  0
 16 17  1  0  0  0  0
 17  6  2  0  0  0  0
 18 10  1  0  0  0  0
 19 20  1  1  0  0  0
 19  3  1  0  0  0  0
 20 15  1  0  0  0  0
 22 23  1  0  0  0  0
 22 21  1  1  0  0  0
 23 21  1  1  0  0  0
 23  8  1  0  0  0  0
 24 31  1  0  0  0  0
 24 28  1  0  0  0  0
 24 27  1  1  0  0  0
 25 28  1  0  0  0  0
 29 26  2  1  0  0  0
 29 30  1  0  0  0  0
 29 31  1  0  0  0  0
 30 25  1  1  0  0  0
 30 22  1  0  0  0  0
M  END
>  <MODEL>
5

>  <REMARK>
 VINA RESULT:      -4.1      3.004      6.343
  Name = 
  2 active torsions:
  status: ('A' for Active; 'I' for Inactive)
    1  A    between atoms: C_5  and  C_30
    2  A    between atoms: C_10  and  N_16
                            x       y       z     vdW  Elec       q    Type
                         _______ _______ _______ _____ _____    ______ ____

>  <TORSDO>
F 2

$$$$
=
 OpenBabel11122410583D

 31 36  0  0  1  0  0  0  0  0999 V2000
  184.0160  179.0010  142.7130 C   0  0  0  0  0  0  0  0  0  0  0  0
  182.4350  177.0870  139.8400 C   0  0  2  0  0  3  0  0  0  0  0  0
  181.1820  177.9110  139.4550 C   0  0  1  0  0  3  0  0  0  0  0  0
  180.5410  180.1650  138.9330 C   0  0  0  0  0  0  0  0  0  0  0  0
  183.4470  177.8480  140.6550 C   0  0  0  0  0  0  0  0  0  0  0  0
  185.2460  179.3780  142.1660 C   0  0  0  0  0  3  0  0  0  0  0  0
  181.3550  179.3480  139.5210 N   0  0  0  0  0  0  0  0  0  0  0  0
  183.9760  177.2900  137.8550 C   0  0  2  0  0  3  0  0  0  0  0  0
  183.6600  179.4170  144.0940 C   0  0  0  0  0  1  0  0  0  0  0  0
  180.6370  176.1210  138.0010 O   0  0  0  0  0  0  0  0  0  0  0  0
  180.8060  181.8900  139.0940 Cl  0  0  0  0  0  0  0  0  0  0  0  0
  185.1310  177.7430  138.7560 C   0  0  0  0  0  2  0  0  0  0  0  0
  183.0580  176.3320  138.6420 C   0  0  2  0  0  3  0  0  0  0  0  0
  183.1200  178.2410  141.9600 C   0  0  0  0  0  3  0  0  0  0  0  0
  179.4520  179.6820  137.9880 C   0  0  0  0  0  2  0  0  0  0  0  0
  184.6850  178.2340  140.1020 C   0  0  0  0  0  0  0  0  0  0  0  0
  185.5810  178.9870  140.8670 C   0  0  0  0  0  3  0  0  0  0  0  0
  181.9610  175.6950  137.7380 C   0  0  0  0  0  2  0  0  0  0  0  0
  180.6760  177.5170  138.0800 C   0  0  1  0  0  3  0  0  0  0  0  0
  179.3100  178.1530  137.9210 C   0  0  0  0  0  2  0  0  0  0  0  0
  184.8720  175.2820  137.0470 C   0  0  0  0  0  2  0  0  0  0  0  0
  185.9300  176.2750  136.9480 C   0  0  2  0  0  3  0  0  0  0  0  0
  184.5370  176.6630  136.6590 N   0  0  2  0  0  0  0  0  0  0  0  0
  189.5750  175.6400  136.3330 C   0  0  1  0  0  3  0  0  0  0  0  0
  187.3970  174.7630  135.7050 O   0  0  0  0  0  0  0  0  0  0  0  0
  187.1810  178.6330  135.5330 O   0  0  0  0  0  0  0  0  0  0  0  0
  190.6780  175.4490  137.3520 C   0  0  0  0  0  1  0  0  0  0  0  0
  188.3630  174.8030  136.7360 C   0  0  0  0  0  2  0  0  0  0  0  0
  187.8370  177.3230  135.1210 S   0  0  2  0  0  0  0  0  0  0  0  0
  186.7110  175.9980  135.6550 C   0  0  2  0  0  3  0  0  0  0  0  0
  189.1970  177.1130  136.2790 C   0  0  0  0  0  2  0  0  0  0  0  0
  1  9  1  0  0  0  0
  2  5  1  6  0  0  0
  3  7  1  6  0  0  0
  3  2  1  0  0  0  0
  4 11  1  0  0  0  0
  4  7  2  0  0  0  0
  5 14  1  0  0  0  0
  6  1  1  0  0  0  0
  8 13  1  0  0  0  0
  8 12  1  1  0  0  0
 10 19  1  0  0  0  0
 12 16  1  0  0  0  0
 13 18  1  6  0  0  0
 13  2  1  0  0  0  0
 14  1  2  0  0  0  0
 15  4  1  0  0  0  0
 16  5  2  0  0  0  0
 16 17  1  0  0  0  0
 17  6  2  0  0  0  0
 18 10  1  0  0  0  0
 19 20  1  1  0  0  0
 19  3  1  0  0  0  0
 20 15  1  0  0  0  0
 22 21  1  1  0  0  0
 23 22  1  0  0  0  0
 23 21  1  1  0  0  0
 23  8  1  0  0  0  0
 24 28  1  0  0  0  0
 24 27  1  1  0  0  0
 25 28  1  0  0  0  0
 29 26  2  1  0  0  0
 29 30  1  0  0  0  0
 29 31  1  0  0  0  0
 30 25  1  1  0  0  0
 30 22  1  0  0  0  0
 31 24  1  0  0  0  0
M  END
>  <MODEL>
6

>  <REMARK>
 VINA RESULT:      -3.9      3.302      7.412
  Name = 
  2 active torsions:
  status: ('A' for Active; 'I' for Inactive)
    1  A    between atoms: C_5  and  C_30
    2  A    between atoms: C_10  and  N_16
                            x       y       z     vdW  Elec       q    Type
                         _______ _______ _______ _____ _____    ______ ____

>  <TORSDO>
F 2

$$$$
=
 OpenBabel11122410583D

 31 36  0  0  1  0  0  0  0  0999 V2000
  182.8550  176.7980  138.6620 C   0  0  0  0  0  0  0  0  0  0  0  0
  186.1030  177.5110  136.8280 C   0  0  2  0  0  3  0  0  0  0  0  0
  186.9740  178.2840  137.8470 C   0  0  1  0  0  3  0  0  0  0  0  0
  187.7360  178.1310  140.1190 C   0  0  0  0  0  0  0  0  0  0  0  0
  184.9540  176.7580  137.4450 C   0  0  0  0  0  0  0  0  0  0  0  0
  182.8570  175.4020  138.7190 C   0  0  0  0  0  3  0  0  0  0  0  0
  186.8580  177.8260  139.2180 N   0  0  0  0  0  0  0  0  0  0  0  0
  187.2890  175.3100  136.5030 C   0  0  2  0  0  3  0  0  0  0  0  0
  181.7440  177.5650  139.2820 C   0  0  0  0  0  1  0  0  0  0  0  0
  188.5040  178.6070  136.0680 O   0  0  0  0  0  0  0  0  0  0  0  0
  187.5000  177.5620  141.7600 Cl  0  0  0  0  0  0  0  0  0  0  0  0
  186.0000  174.5340  136.8000 C   0  0  0  0  0  2  0  0  0  0  0  0
  186.9350  176.6580  135.8410 C   0  0  2  0  0  3  0  0  0  0  0  0
  183.9000  177.4730  138.0290 C   0  0  0  0  0  3  0  0  0  0  0  0
  189.0380  178.8370  139.7760 C   0  0  0  0  0  2  0  0  0  0  0  0
  184.9580  175.3490  137.5080 C   0  0  0  0  0  0  0  0  0  0  0  0
  183.9020  174.6810  138.1350 C   0  0  0  0  0  3  0  0  0  0  0  0
  188.2000  177.4230  135.3540 C   0  0  0  0  0  2  0  0  0  0  0  0
  188.4320  178.2830  137.4270 C   0  0  1  0  0  3  0  0  0  0  0  0
  189.1410  179.2890  138.3100 C   0  0  0  0  0  2  0  0  0  0  0  0
  188.5620  173.3440  136.4900 C   0  0  0  0  0  2  0  0  0  0  0  0
  189.4900  174.4390  136.2580 C   0  0  2  0  0  3  0  0  0  0  0  0
  188.1450  174.4840  135.6540 N   0  0  2  0  0  0  0  0  0  0  0  0
  193.2090  174.0270  136.5340 C   0  0  1  0  0  3  0  0  0  0  0  0
  191.2550  172.8320  135.7200 O   0  0  0  0  0  0  0  0  0  0  0  0
  190.9040  176.5290  134.5950 O   0  0  0  0  0  0  0  0  0  0  0  0
  194.0790  174.1710  137.7640 C   0  0  0  0  0  1  0  0  0  0  0  0
  191.9780  173.1900  136.8800 C   0  0  0  0  0  2  0  0  0  0  0  0
  191.6910  175.2270  134.6420 S   0  0  2  0  0  0  0  0  0  0  0  0
  190.5390  173.9550  135.2450 C   0  0  2  0  0  3  0  0  0  0  0  0
  192.7840  175.4090  136.0590 C   0  0  0  0  0  2  0  0  0  0  0  0
  1  6  1  0  0  0  0
  1  9  1  0  0  0  0
  2  5  1  1  0  0  0
  2  3  1  0  0  0  0
  3  7  1  1  0  0  0
  4 11  1  0  0  0  0
  5 16  2  0  0  0  0
  5 14  1  0  0  0  0
  7  4  2  0  0  0  0
  8 12  1  6  0  0  0
 10 19  1  0  0  0  0
 12 16  1  0  0  0  0
 13 18  1  1  0  0  0
 13  8  1  0  0  0  0
 13  2  1  0  0  0  0
 14  1  2  0  0  0  0
 15  4  1  0  0  0  0
 16 17  1  0  0  0  0
 17  6  2  0  0  0  0
 18 10  1  0  0  0  0
 19  3  1  0  0  0  0
 19 20  1  1  0  0  0
 20 15  1  0  0  0  0
 22 21  1  1  0  0  0
 23 22  1  0  0  0  0
 23 21  1  1  0  0  0
 23  8  1  0  0  0  0
 24 28  1  0  0  0  0
 24 27  1  1  0  0  0
 25 28  1  0  0  0  0
 29 26  2  1  0  0  0
 29 30  1  0  0  0  0
 29 31  1  0  0  0  0
 30 25  1  1  0  0  0
 30 22  1  0  0  0  0
 31 24  1  0  0  0  0
M  END
>  <MODEL>
7

>  <REMARK>
 VINA RESULT:      -3.8      3.219      7.655
  Name = 
  2 active torsions:
  status: ('A' for Active; 'I' for Inactive)
    1  A    between atoms: C_5  and  C_30
    2  A    between atoms: C_10  and  N_16
                            x       y       z     vdW  Elec       q    Type
                         _______ _______ _______ _____ _____    ______ ____

>  <TORSDO>
F 2

$$$$
=
 OpenBabel11122410583D

 31 36  0  0  1  0  0  0  0  0999 V2000
  184.5110  179.3840  143.0350 C   0  0  0  0  0  0  0  0  0  0  0  0
  186.5850  179.1840  139.8610 C   0  0  2  0  0  3  0  0  0  0  0  0
  187.9510  178.6140  140.3130 C   0  0  1  0  0  3  0  0  0  0  0  0
  188.8650  176.8000  141.5920 C   0  0  0  0  0  0  0  0  0  0  0  0
  185.4670  178.9620  140.8460 C   0  0  0  0  0  0  0  0  0  0  0  0
  183.4790  178.4830  142.7620 C   0  0  0  0  0  3  0  0  0  0  0  0
  187.8750  177.5950  141.3410 N   0  0  0  0  0  0  0  0  0  0  0  0
  185.5810  177.3810  138.4120 C   0  0  2  0  0  3  0  0  0  0  0  0
  184.5570  180.0850  144.3450 C   0  0  0  0  0  1  0  0  0  0  0  0
  188.6930  179.0440  138.1050 O   0  0  0  0  0  0  0  0  0  0  0  0
  188.6980  175.6170  142.8750 Cl  0  0  0  0  0  0  0  0  0  0  0  0
  184.2820  177.4050  139.2260 C   0  0  0  0  0  2  0  0  0  0  0  0
  186.2120  178.7890  138.4120 C   0  0  2  0  0  3  0  0  0  0  0  0
  185.5020  179.6220  142.0810 C   0  0  0  0  0  3  0  0  0  0  0  0
  190.1080  176.7530  140.7190 C   0  0  0  0  0  2  0  0  0  0  0  0
  184.4290  178.0480  140.5740 C   0  0  0  0  0  0  0  0  0  0  0  0
  183.4350  177.8240  141.5310 C   0  0  0  0  0  3  0  0  0  0  0  0
  187.4420  178.8830  137.4620 C   0  0  0  0  0  2  0  0  0  0  0  0
  188.7400  178.0910  139.1280 C   0  0  1  0  0  3  0  0  0  0  0  0
  190.1490  177.8300  139.6230 C   0  0  0  0  0  2  0  0  0  0  0  0
  183.8600  176.5110  137.0840 C   0  0  0  0  0  2  0  0  0  0  0  0
  184.8930  175.4890  137.1430 C   0  0  2  0  0  3  0  0  0  0  0  0
  185.2780  176.9100  137.0620 N   0  0  2  0  0  0  0  0  0  0  0  0
  184.0700  171.9990  136.0390 C   0  0  1  0  0  3  0  0  0  0  0  0
  183.7060  174.3050  135.3610 O   0  0  0  0  0  0  0  0  0  0  0  0
  187.4190  173.9870  136.4400 O   0  0  0  0  0  0  0  0  0  0  0  0
  183.4300  170.8880  136.8430 C   0  0  0  0  0  1  0  0  0  0  0  0
  183.2950  173.2970  136.2620 C   0  0  0  0  0  2  0  0  0  0  0  0
  186.2470  173.5400  135.5800 S   0  0  2  0  0  0  0  0  0  0  0  0
  184.9620  174.8140  135.7650 C   0  0  2  0  0  3  0  0  0  0  0  0
  185.5150  172.1700  136.4870 C   0  0  0  0  0  2  0  0  0  0  0  0
  1  9  1  0  0  0  0
  2  3  1  0  0  0  0
  2  5  1  1  0  0  0
  3  7  1  1  0  0  0
  4 11  1  0  0  0  0
  5 14  1  0  0  0  0
  6  1  1  0  0  0  0
  7  4  2  0  0  0  0
  8 12  1  1  0  0  0
 10 19  1  0  0  0  0
 12 16  1  0  0  0  0
 13 18  1  6  0  0  0
 13  8  1  0  0  0  0
 13  2  1  0  0  0  0
 14  1  2  0  0  0  0
 15  4  1  0  0  0  0
 16  5  2  0  0  0  0
 16 17  1  0  0  0  0
 17  6  2  0  0  0  0
 18 10  1  0  0  0  0
 19 20  1  1  0  0  0
 19  3  1  0  0  0  0
 20 15  1  0  0  0  0
 22 21  1  6  0  0  0
 23 21  1  1  0  0  0
 23 22  1  0  0  0  0
 23  8  1  0  0  0  0
 24 28  1  0  0  0  0
 24 31  1  0  0  0  0
 24 27  1  1  0  0  0
 25 28  1  0  0  0  0
 29 30  1  0  0  0  0
 29 26  2  1  0  0  0
 29 31  1  0  0  0  0
 30 25  1  1  0  0  0
 30 22  1  0  0  0  0
M  END
>  <MODEL>
8

>  <REMARK>
 VINA RESULT:      -3.5      3.050      5.940
  Name = 
  2 active torsions:
  status: ('A' for Active; 'I' for Inactive)
    1  A    between atoms: C_5  and  C_30
    2  A    between atoms: C_10  and  N_16
                            x       y       z     vdW  Elec       q    Type
                         _______ _______ _______ _____ _____    ______ ____

>  <TORSDO>
F 2

$$$$
=
 OpenBabel11122410583D

 31 36  0  0  1  0  0  0  0  0999 V2000
  184.1650  179.1220  142.6700 C   0  0  0  0  0  0  0  0  0  0  0  0
  186.7350  179.0240  139.8760 C   0  0  2  0  0  3  0  0  0  0  0  0
  188.0340  178.5170  140.5470 C   0  0  1  0  0  3  0  0  0  0  0  0
  188.8100  176.7440  141.9680 C   0  0  0  0  0  0  0  0  0  0  0  0
  185.4830  178.7480  140.6670 C   0  0  0  0  0  0  0  0  0  0  0  0
  183.2340  178.1740  142.2380 C   0  0  0  0  0  3  0  0  0  0  0  0
  187.8390  177.4930  141.5550 N   0  0  0  0  0  0  0  0  0  0  0  0
  186.0640  177.1790  138.2930 C   0  0  2  0  0  3  0  0  0  0  0  0
  183.9660  179.8220  143.9650 C   0  0  0  0  0  1  0  0  0  0  0  0
  189.1040  178.9840  138.4860 O   0  0  0  0  0  0  0  0  0  0  0  0
  188.4910  175.5530  143.2140 Cl  0  0  0  0  0  0  0  0  0  0  0  0
  184.6500  177.1410  138.8850 C   0  0  0  0  0  2  0  0  0  0  0  0
  186.6210  178.6150  138.3880 C   0  0  2  0  0  3  0  0  0  0  0  0
  185.2860  179.4070  141.8880 C   0  0  0  0  0  3  0  0  0  0  0  0
  190.1800  176.7560  141.3090 C   0  0  0  0  0  2  0  0  0  0  0  0
  184.5460  177.7880  140.2350 C   0  0  0  0  0  0  0  0  0  0  0  0
  183.4210  177.5160  141.0190 C   0  0  0  0  0  3  0  0  0  0  0  0
  187.9830  178.7670  137.6490 C   0  0  0  0  0  2  0  0  0  0  0  0
  189.0290  178.0330  139.5090 C   0  0  1  0  0  3  0  0  0  0  0  0
  190.3480  177.8370  140.2280 C   0  0  0  0  0  2  0  0  0  0  0  0
  185.6210  175.2780  136.9990 C   0  0  0  0  0  2  0  0  0  0  0  0
  187.0110  175.6300  136.7540 C   0  0  2  0  0  3  0  0  0  0  0  0
  186.0060  176.6970  136.9140 N   0  0  2  0  0  0  0  0  0  0  0  0
  189.7840  173.7450  135.0720 C   0  0  1  0  0  3  0  0  0  0  0  0
  187.3660  173.9770  134.9850 O   0  0  0  0  0  0  0  0  0  0  0  0
  188.8610  177.5420  135.3220 O   0  0  0  0  0  0  0  0  0  0  0  0
  190.8690  172.9050  135.7120 C   0  0  0  0  0  1  0  0  0  0  0  0
  188.4370  173.3950  135.7010 C   0  0  0  0  0  2  0  0  0  0  0  0
  188.7680  176.2080  134.5970 S   0  0  2  0  0  0  0  0  0  0  0  0
  187.3060  175.3610  135.2700 C   0  0  2  0  0  3  0  0  0  0  0  0
  190.0980  175.2180  135.2940 C   0  0  0  0  0  2  0  0  0  0  0  0
  1  9  1  0  0  0  0
  2  3  1  0  0  0  0
  2  5  1  1  0  0  0
  3  7  1  1  0  0  0
  4 11  1  0  0  0  0
  5 14  1  0  0  0  0
  6  1  1  0  0  0  0
  7  4  2  0  0  0  0
  8 13  1  0  0  0  0
  8 12  1  6  0  0  0
 10 19  1  0  0  0  0
 12 16  1  0  0  0  0
 13 18  1  1  0  0  0
 13  2  1  0  0  0  0
 14  1  2  0  0  0  0
 15  4  1  0  0  0  0
 16  5  2  0  0  0  0
 16 17  1  0  0  0  0
 17  6  2  0  0  0  0
 18 10  1  0  0  0  0
 19 20  1  1  0  0  0
 19  3  1  0  0  0  0
 20 15  1  0  0  0  0
 22 23  1  0  0  0  0
 22 21  1  6  0  0  0
 23 21  1  1  0  0  0
 23  8  1  0  0  0  0
 24 31  1  0  0  0  0
 24 28  1  0  0  0  0
 24 27  1  1  0  0  0
 25 28  1  0  0  0  0
 29 30  1  0  0  0  0
 29 31  1  0  0  0  0
 29 26  2  1  0  0  0
 30 25  1  1  0  0  0
 30 22  1  0  0  0  0
M  END
>  <MODEL>
9

>  <REMARK>
 VINA RESULT:      -3.4      3.139      6.795
  Name = 
  2 active torsions:
  status: ('A' for Active; 'I' for Inactive)
    1  A    between atoms: C_5  and  C_30
    2  A    between atoms: C_10  and  N_16
                            x       y       z     vdW  Elec       q    Type
                         _______ _______ _______ _____ _____    ______ ____

>  <TORSDO>
F 2

$$$$
