=
 OpenBabel11122412163D

 34 41  0  0  1  0  0  0  0  0999 V2000
  184.1990  179.1000  144.4580 C   0  0  0  0  0  0  0  0  0  0  0  0
  181.7320  179.3790  143.7910 N   0  0  0  0  0  0  0  0  0  0  0  0
  190.4050  177.8000  142.7800 C   0  0  2  0  0  3  0  0  0  0  0  0
  186.5000  178.2160  144.7400 C   0  0  0  0  0  0  0  0  0  0  0  0
  187.9600  177.6440  142.7720 C   0  0  0  0  0  0  0  0  0  0  0  0
  189.6760  177.3510  140.4830 S   0  0  0  0  0  0  0  0  0  0  0  0
  191.1430  177.8350  141.4630 C   0  0  0  0  0  2  0  0  0  0  0  0
  189.9180  176.6490  144.9460 C   0  0  0  0  0  2  0  0  0  0  0  0
  183.2120  178.6480  142.2290 C   0  0  0  0  0  0  0  0  0  0  0  0
  182.3810  178.4820  139.1640 C   0  0  0  0  0  2  0  0  0  0  0  0
  186.9250  177.8160  141.9450 C   0  0  0  0  0  3  0  0  0  0  0  0
  188.9250  177.8050  145.1600 C   0  0  0  0  0  2  0  0  0  0  0  0
  184.5380  178.3280  141.6400 C   0  0  0  0  0  0  0  0  0  0  0  0
  180.9640  179.3180  142.5550 C   0  0  0  0  0  3  0  0  0  0  0  0
  187.7850  177.8020  144.2150 N   0  0  0  0  0  0  0  0  0  0  0  0
  191.0090  176.9930  143.9130 C   0  0  0  0  0  2  0  0  0  0  0  0
  182.0320  179.4100  140.2490 N   0  0  0  0  0  0  0  0  0  0  0  0
  185.4670  178.4670  143.9100 C   0  0  0  0  0  0  0  0  0  0  0  0
  189.2270  177.0590  142.2240 C   0  0  1  0  0  3  0  0  0  0  0  0
  185.6100  178.2310  142.4530 C   0  0  1  0  0  3  0  0  0  0  0  0
  185.0750  178.5550  146.7170 C   0  0  0  0  0  3  0  0  0  0  0  0
  183.5230  177.5100  139.4940 C   0  0  0  0  0  2  0  0  0  0  0  0
  186.2970  178.3810  146.2040 C   0  0  0  0  0  3  0  0  0  0  0  0
  184.7020  178.2150  140.1460 C   0  0  0  0  0  2  0  0  0  0  0  0
  181.8980  178.6630  141.5130 C   0  0  1  0  0  3  0  0  0  0  0  0
  183.8610  178.5160  145.8310 C   0  0  0  0  0  2  0  0  0  0  0  0
  183.0540  178.9740  143.4970 C   0  0  0  0  0  0  0  0  0  0  0  0
  180.7520  179.9830  139.8470 C   0  0  0  0  0  2  0  0  0  0  0  0
  180.6010  179.8870  138.3260 C   0  0  0  0  0  2  0  0  0  0  0  0
  180.7510  183.1400  137.2710 C   0  0  0  0  0  2  0  0  0  0  0  0
  179.5430  181.9990  138.7520 C   0  0  0  0  0  2  0  0  0  0  0  0
  179.8680  181.0110  137.7310 N   0  0  0  0  0  0  0  0  0  0  0  0
  179.7530  183.2880  138.2400 O   0  0  0  0  0  0  0  0  0  0  0  0
  180.7120  181.7140  136.7900 C   0  0  0  0  0  2  0  0  0  0  0  0
  1 26  1  0  0  0  0
  3  7  1  6  0  0  0
  3 16  1  0  0  0  0
  4 23  1  0  0  0  0
  5 15  1  0  0  0  0
  6  7  1  0  0  0  0
  8 12  1  0  0  0  0
  9 27  1  0  0  0  0
 10 22  1  0  0  0  0
 10 17  1  0  0  0  0
 11  5  2  0  0  0  0
 13  9  2  0  0  0  0
 13 20  1  0  0  0  0
 14  2  2  0  0  0  0
 15  4  1  0  0  0  0
 15 12  1  0  0  0  0
 16  8  1  0  0  0  0
 17 25  1  0  0  0  0
 18  1  1  0  0  0  0
 18  4  2  0  0  0  0
 19  6  1  6  0  0  0
 19  5  1  0  0  0  0
 19  3  1  0  0  0  0
 20 11  1  1  0  0  0
 20 18  1  0  0  0  0
 22 24  1  0  0  0  0
 23 21  2  0  0  0  0
 24 13  1  0  0  0  0
 25  9  1  0  0  0  0
 25 14  1  1  0  0  0
 26 21  1  0  0  0  0
 27  2  1  0  0  0  0
 27  1  2  0  0  0  0
 28 17  1  0  0  0  0
 29 28  1  0  0  0  0
 30 33  1  0  0  0  0
 32 29  1  0  0  0  0
 32 31  1  0  0  0  0
 33 31  1  0  0  0  0
 34 30  1  0  0  0  0
 34 32  1  0  0  0  0
M  END
>  <MODEL>
1

>  <REMARK>
 VINA RESULT:      -9.4      0.000      0.000
  Name = 
  3 active torsions:
  status: ('A' for Active; 'I' for Inactive)
    1  A    between atoms: N_17  and  C_28
    2  A    between atoms: C_28  and  C_29
    3  A    between atoms: C_29  and  N_32
                            x       y       z     vdW  Elec       q    Type
                         _______ _______ _______ _____ _____    ______ ____

>  <TORSDO>
F 3

$$$$
=
 OpenBabel11122412163D

 34 41  0  0  1  0  0  0  0  0999 V2000
  188.7890  177.1620  143.5630 C   0  0  0  0  0  0  0  0  0  0  0  0
  191.2180  176.9280  142.7500 N   0  0  0  0  0  0  0  0  0  0  0  0
  182.4730  178.3510  142.2540 C   0  0  2  0  0  3  0  0  0  0  0  0
  186.4940  178.0050  143.9810 C   0  0  0  0  0  0  0  0  0  0  0  0
  184.9110  178.5510  142.1030 C   0  0  0  0  0  0  0  0  0  0  0  0
  183.0570  178.8140  139.9190 S   0  0  0  0  0  0  0  0  0  0  0  0
  181.6590  178.3030  140.9840 C   0  0  0  0  0  2  0  0  0  0  0  0
  183.0660  179.5100  144.3900 C   0  0  0  0  0  2  0  0  0  0  0  0
  189.6360  177.6330  141.2790 C   0  0  0  0  0  0  0  0  0  0  0  0
  190.2810  177.8140  138.1710 C   0  0  0  0  0  2  0  0  0  0  0  0
  185.8970  178.3980  141.2160 C   0  0  0  0  0  3  0  0  0  0  0  0
  184.0900  178.3720  144.5440 C   0  0  0  0  0  2  0  0  0  0  0  0
  188.2720  177.9290  140.7700 C   0  0  0  0  0  0  0  0  0  0  0  0
  191.9110  177.0030  141.4720 C   0  0  0  0  0  3  0  0  0  0  0  0
  185.1720  178.3960  143.5330 N   0  0  0  0  0  0  0  0  0  0  0  0
  181.9230  179.1470  143.4230 C   0  0  0  0  0  2  0  0  0  0  0  0
  190.7100  176.8920  139.2320 N   0  0  0  0  0  0  0  0  0  0  0  0
  187.4800  177.7730  143.0910 C   0  0  0  0  0  0  0  0  0  0  0  0
  183.6030  179.1130  141.6310 C   0  0  1  0  0  3  0  0  0  0  0  0
  187.2470  178.0060  141.6450 C   0  0  1  0  0  3  0  0  0  0  0  0
  188.0390  177.6920  145.8700 C   0  0  0  0  0  3  0  0  0  0  0  0
  189.1440  178.7650  138.5700 C   0  0  0  0  0  2  0  0  0  0  0  0
  186.7850  177.8440  145.4300 C   0  0  0  0  0  3  0  0  0  0  0  0
  188.0180  178.0400  139.2880 C   0  0  0  0  0  2  0  0  0  0  0  0
  190.9050  177.6410  140.4870 C   0  0  1  0  0  3  0  0  0  0  0  0
  189.1970  177.7520  144.9140 C   0  0  0  0  0  2  0  0  0  0  0  0
  189.8730  177.3100  142.5360 C   0  0  0  0  0  0  0  0  0  0  0  0
  191.9740  176.3430  138.7560 C   0  0  0  0  0  2  0  0  0  0  0  0
  191.6990  175.1940  137.7800 C   0  0  0  0  0  2  0  0  0  0  0  0
  195.0630  174.6170  137.5010 C   0  0  0  0  0  2  0  0  0  0  0  0
  193.6260  176.1040  136.6750 C   0  0  0  0  0  2  0  0  0  0  0  0
  192.8170  174.9090  136.8710 N   0  0  0  0  0  0  0  0  0  0  0  0
  194.9860  175.7570  136.6940 O   0  0  0  0  0  0  0  0  0  0  0  0
  193.7140  173.9460  137.4720 C   0  0  0  0  0  2  0  0  0  0  0  0
  1 26  1  0  0  0  0
  3  7  1  6  0  0  0
  3 16  1  0  0  0  0
  4 23  1  0  0  0  0
  5 15  1  0  0  0  0
  6  7  1  0  0  0  0
  8 12  1  0  0  0  0
  9 27  1  0  0  0  0
 10 22  1  0  0  0  0
 10 17  1  0  0  0  0
 11  5  2  0  0  0  0
 13  9  2  0  0  0  0
 13 20  1  0  0  0  0
 14  2  2  0  0  0  0
 15  4  1  0  0  0  0
 15 12  1  0  0  0  0
 16  8  1  0  0  0  0
 17 25  1  0  0  0  0
 18  1  1  0  0  0  0
 18  4  2  0  0  0  0
 19  6  1  6  0  0  0
 19  5  1  0  0  0  0
 19  3  1  0  0  0  0
 20 11  1  1  0  0  0
 20 18  1  0  0  0  0
 22 24  1  0  0  0  0
 23 21  2  0  0  0  0
 24 13  1  0  0  0  0
 25  9  1  0  0  0  0
 25 14  1  1  0  0  0
 26 21  1  0  0  0  0
 27  2  1  0  0  0  0
 27  1  2  0  0  0  0
 28 17  1  0  0  0  0
 29 28  1  0  0  0  0
 31 33  1  0  0  0  0
 31 32  1  0  0  0  0
 32 34  1  0  0  0  0
 32 29  1  0  0  0  0
 33 30  1  0  0  0  0
 34 30  1  0  0  0  0
M  END
>  <MODEL>
2

>  <REMARK>
 VINA RESULT:      -9.3      4.460      8.802
  Name = 
  3 active torsions:
  status: ('A' for Active; 'I' for Inactive)
    1  A    between atoms: N_17  and  C_28
    2  A    between atoms: C_28  and  C_29
    3  A    between atoms: C_29  and  N_32
                            x       y       z     vdW  Elec       q    Type
                         _______ _______ _______ _____ _____    ______ ____

>  <TORSDO>
F 3

$$$$
=
 OpenBabel11122412163D

 34 41  0  0  1  0  0  0  0  0999 V2000
  185.5610  179.0010  142.0540 C   0  0  2  0  0  3  0  0  0  0  0  0
  185.2660  179.0220  139.4990 N   0  0  0  0  0  0  0  0  0  0  0  0
  189.3160  177.8570  147.3080 C   0  0  2  0  0  3  0  0  0  0  0  0
  186.0770  178.3140  144.3810 C   0  0  0  0  0  0  0  0  0  0  0  0
  188.3740  177.5490  145.0680 C   0  0  0  0  0  0  0  0  0  0  0  0
  191.0950  177.0270  145.8410 S   0  0  0  0  0  0  0  0  0  0  0  0
  190.8090  177.7420  147.5000 C   0  0  0  0  0  2  0  0  0  0  0  0
  187.0120  177.0130  147.7890 C   0  0  0  0  0  2  0  0  0  0  0  0
  187.1790  178.1610  140.3720 C   0  0  0  0  0  0  0  0  0  0  0  0
  189.6560  177.4900  138.4950 C   0  0  0  0  0  2  0  0  0  0  0  0
  188.7590  177.5310  143.7890 C   0  0  0  0  0  3  0  0  0  0  0  0
  186.5690  178.1230  146.8200 C   0  0  0  0  0  2  0  0  0  0  0  0
  188.1880  177.8410  141.4150 C   0  0  0  0  0  0  0  0  0  0  0  0
  186.1000  178.7300  138.3420 C   0  0  0  0  0  3  0  0  0  0  0  0
  187.0010  177.9090  145.4210 N   0  0  0  0  0  0  0  0  0  0  0  0
  188.4140  177.2670  148.3760 C   0  0  0  0  0  2  0  0  0  0  0  0
  188.6340  178.5450  138.4670 N   0  0  0  0  0  0  0  0  0  0  0  0
  186.4750  178.3740  143.0940 C   0  0  0  0  0  0  0  0  0  0  0  0
  189.2920  176.9700  146.1010 C   0  0  1  0  0  3  0  0  0  0  0  0
  187.8390  177.9340  142.7160 C   0  0  0  0  0  0  0  0  0  0  0  0
  183.7590  178.8530  143.7570 C   0  0  0  0  0  3  0  0  0  0  0  0
  189.6770  176.6520  139.7810 C   0  0  0  0  0  2  0  0  0  0  0  0
  184.6760  178.6810  144.7150 C   0  0  0  0  0  3  0  0  0  0  0  0
  189.6090  177.5170  141.0290 C   0  0  0  0  0  2  0  0  0  0  0  0
  187.3370  177.9870  138.8950 C   0  0  1  0  0  3  0  0  0  0  0  0
  184.1050  178.6070  142.3150 C   0  0  0  0  0  2  0  0  0  0  0  0
  185.9920  178.6610  140.6580 C   0  0  0  0  0  0  0  0  0  0  0  0
  188.5800  178.9710  137.0730 C   0  0  0  0  0  2  0  0  0  0  0  0
  189.3250  177.9580  136.1980 C   0  0  0  0  0  2  0  0  0  0  0  0
  186.2460  176.8710  135.1680 C   0  0  0  0  0  2  0  0  0  0  0  0
  188.2980  176.0090  135.2470 C   0  0  0  0  0  2  0  0  0  0  0  0
  188.5260  177.4380  135.0820 N   0  0  0  0  0  0  0  0  0  0  0  0
  186.9710  175.7030  134.9050 O   0  0  0  0  0  0  0  0  0  0  0  0
  187.2060  178.0290  135.0960 C   0  0  0  0  0  2  0  0  0  0  0  0
  1 26  1  1  0  0  0
  1 18  1  0  0  0  0
  2 27  1  0  0  0  0
  3  7  1  1  0  0  0
  3 16  1  0  0  0  0
  4 23  1  0  0  0  0
  4 15  1  0  0  0  0
  5 15  1  0  0  0  0
  6 19  1  0  0  0  0
  6  7  1  0  0  0  0
  8 16  1  0  0  0  0
  9 27  2  0  0  0  0
  9 13  1  0  0  0  0
 10 22  1  0  0  0  0
 11  5  2  0  0  0  0
 12  8  1  0  0  0  0
 13 20  2  0  0  0  0
 14  2  2  0  0  0  0
 15 12  1  0  0  0  0
 17 10  1  0  0  0  0
 17 25  1  0  0  0  0
 18  4  2  0  0  0  0
 19  5  1  6  0  0  0
 19  3  1  0  0  0  0
 20 18  1  0  0  0  0
 20 11  1  0  0  0  0
 21 23  2  0  0  0  0
 22 24  1  0  0  0  0
 24 13  1  0  0  0  0
 25 14  1  6  0  0  0
 25  9  1  0  0  0  0
 26 21  1  0  0  0  0
 27  1  1  0  0  0  0
 28 17  1  0  0  0  0
 29 28  1  0  0  0  0
 32 34  1  0  0  0  0
 32 31  1  0  0  0  0
 32 29  1  0  0  0  0
 33 30  1  0  0  0  0
 33 31  1  0  0  0  0
 34 30  1  0  0  0  0
M  END
>  <MODEL>
3

>  <REMARK>
 VINA RESULT:      -9.3      3.854      5.862
  Name = 
  3 active torsions:
  status: ('A' for Active; 'I' for Inactive)
    1  A    between atoms: N_17  and  C_28
    2  A    between atoms: C_28  and  C_29
    3  A    between atoms: C_29  and  N_32
                            x       y       z     vdW  Elec       q    Type
                         _______ _______ _______ _____ _____    ______ ____

>  <TORSDO>
F 3

$$$$
=
 OpenBabel11122412163D

 34 41  0  0  1  0  0  0  0  0999 V2000
  188.4680  177.1820  144.1130 C   0  0  0  0  0  0  0  0  0  0  0  0
  190.9410  176.9950  143.4290 N   0  0  0  0  0  0  0  0  0  0  0  0
  182.2050  178.2180  142.4670 C   0  0  2  0  0  3  0  0  0  0  0  0
  186.1370  177.9780  144.4030 C   0  0  0  0  0  0  0  0  0  0  0  0
  184.6420  178.4700  142.4400 C   0  0  0  0  0  0  0  0  0  0  0  0
  182.8990  178.6720  140.1600 S   0  0  0  0  0  0  0  0  0  0  0  0
  181.4590  178.1400  141.1560 C   0  0  0  0  0  2  0  0  0  0  0  0
  182.6610  179.4090  144.6180 C   0  0  0  0  0  2  0  0  0  0  0  0
  189.4220  177.6500  141.8710 C   0  0  0  0  0  0  0  0  0  0  0  0
  190.2240  177.8170  138.7990 C   0  0  0  0  0  2  0  0  0  0  0  0
  185.6760  178.3310  141.6060 C   0  0  0  0  0  3  0  0  0  0  0  0
  183.7000  178.2960  144.8360 C   0  0  0  0  0  2  0  0  0  0  0  0
  188.0800  177.9120  141.2890 C   0  0  0  0  0  0  0  0  0  0  0  0
  191.6970  177.0730  142.1880 C   0  0  0  0  0  3  0  0  0  0  0  0
  184.8320  178.3340  143.8830 N   0  0  0  0  0  0  0  0  0  0  0  0
  181.5770  179.0120  143.5970 C   0  0  0  0  0  2  0  0  0  0  0  0
  190.6170  176.9150  139.8900 N   0  0  0  0  0  0  0  0  0  0  0  0
  187.1720  177.7590  143.5670 C   0  0  0  0  0  0  0  0  0  0  0  0
  183.3480  178.9990  141.8950 C   0  0  1  0  0  3  0  0  0  0  0  0
  187.0100  177.9740  142.1090 C   0  0  1  0  0  3  0  0  0  0  0  0
  187.5880  177.7170  146.3720 C   0  0  0  0  0  3  0  0  0  0  0  0
  189.0470  178.7460  139.1280 C   0  0  0  0  0  2  0  0  0  0  0  0
  186.3560  177.8370  145.8660 C   0  0  0  0  0  3  0  0  0  0  0  0
  187.9010  178.0030  139.7950 C   0  0  0  0  0  2  0  0  0  0  0  0
  190.7300  177.6800  141.1460 C   0  0  1  0  0  3  0  0  0  0  0  0
  188.7930  177.7940  145.4770 C   0  0  0  0  0  2  0  0  0  0  0  0
  189.6010  177.3440  143.1420 C   0  0  0  0  0  0  0  0  0  0  0  0
  191.9150  176.3890  139.4850 C   0  0  0  0  0  2  0  0  0  0  0  0
  191.8500  175.9280  138.0260 C   0  0  0  0  0  2  0  0  0  0  0  0
  191.5100  173.2970  135.8610 C   0  0  0  0  0  2  0  0  0  0  0  0
  190.1550  174.4380  137.2100 C   0  0  0  0  0  2  0  0  0  0  0  0
  191.4530  174.5230  137.8660 N   0  0  0  0  0  0  0  0  0  0  0  0
  190.1750  173.4000  136.2660 O   0  0  0  0  0  0  0  0  0  0  0  0
  192.3660  173.8460  136.9710 C   0  0  0  0  0  2  0  0  0  0  0  0
  1 26  1  0  0  0  0
  3  7  1  6  0  0  0
  3 16  1  0  0  0  0
  4 23  1  0  0  0  0
  5 15  1  0  0  0  0
  6  7  1  0  0  0  0
  8 12  1  0  0  0  0
  9 27  1  0  0  0  0
 10 22  1  0  0  0  0
 10 17  1  0  0  0  0
 11  5  2  0  0  0  0
 13  9  2  0  0  0  0
 13 20  1  0  0  0  0
 14  2  2  0  0  0  0
 15  4  1  0  0  0  0
 15 12  1  0  0  0  0
 16  8  1  0  0  0  0
 17 25  1  0  0  0  0
 18  1  1  0  0  0  0
 18  4  2  0  0  0  0
 19  6  1  6  0  0  0
 19  5  1  0  0  0  0
 19  3  1  0  0  0  0
 20 11  1  1  0  0  0
 20 18  1  0  0  0  0
 22 24  1  0  0  0  0
 23 21  2  0  0  0  0
 24 13  1  0  0  0  0
 25  9  1  0  0  0  0
 25 14  1  1  0  0  0
 26 21  1  0  0  0  0
 27  2  1  0  0  0  0
 27  1  2  0  0  0  0
 28 17  1  0  0  0  0
 29 28  1  0  0  0  0
 30 33  1  0  0  0  0
 30 34  1  0  0  0  0
 31 32  1  0  0  0  0
 32 29  1  0  0  0  0
 33 31  1  0  0  0  0
 34 32  1  0  0  0  0
M  END
>  <MODEL>
4

>  <REMARK>
 VINA RESULT:      -9.0      4.044      8.290
  Name = 
  3 active torsions:
  status: ('A' for Active; 'I' for Inactive)
    1  A    between atoms: N_17  and  C_28
    2  A    between atoms: C_28  and  C_29
    3  A    between atoms: C_29  and  N_32
                            x       y       z     vdW  Elec       q    Type
                         _______ _______ _______ _____ _____    ______ ____

>  <TORSDO>
F 3

$$$$
=
 OpenBabel11122412163D

 34 41  0  0  1  0  0  0  0  0999 V2000
  187.1920  177.8870  140.2810 C   0  0  2  0  0  3  0  0  0  0  0  0
  185.0750  178.5730  138.9920 N   0  0  0  0  0  0  0  0  0  0  0  0
  190.2040  176.6800  145.9800 C   0  0  2  0  0  3  0  0  0  0  0  0
  189.0740  177.8200  141.8950 C   0  0  0  0  0  0  0  0  0  0  0  0
  188.6970  177.7650  144.3830 C   0  0  0  0  0  0  0  0  0  0  0  0
  188.1760  177.3520  147.1810 S   0  0  0  0  0  0  0  0  0  0  0  0
  189.6960  176.3500  147.3630 C   0  0  0  0  0  2  0  0  0  0  0  0
  191.7790  177.9500  144.5110 C   0  0  0  0  0  2  0  0  0  0  0  0
  185.0500  178.6620  141.2620 C   0  0  0  0  0  0  0  0  0  0  0  0
  182.3210  179.1050  142.8340 C   0  0  0  0  0  2  0  0  0  0  0  0
  187.3950  177.9970  144.1990 C   0  0  0  0  0  3  0  0  0  0  0  0
  191.0160  177.2680  143.3630 C   0  0  0  0  0  2  0  0  0  0  0  0
  185.5360  178.4410  142.6490 C   0  0  0  0  0  0  0  0  0  0  0  0
  183.7010  178.9130  139.3310 C   0  0  0  0  0  3  0  0  0  0  0  0
  189.6050  177.7010  143.2380 N   0  0  0  0  0  0  0  0  0  0  0  0
  191.6220  177.2030  145.8500 C   0  0  0  0  0  2  0  0  0  0  0  0
  182.6600  178.3930  141.5940 N   0  0  0  0  0  0  0  0  0  0  0  0
  187.7500  177.9770  141.6920 C   0  0  0  0  0  0  0  0  0  0  0  0
  189.2440  177.8110  145.7780 C   0  0  1  0  0  3  0  0  0  0  0  0
  186.8330  178.1250  142.8470 C   0  0  0  0  0  0  0  0  0  0  0  0
  189.5390  178.0760  139.4930 C   0  0  0  0  0  3  0  0  0  0  0  0
  183.5310  179.5650  143.6600 C   0  0  0  0  0  2  0  0  0  0  0  0
  189.9770  177.7600  140.7160 C   0  0  0  0  0  3  0  0  0  0  0  0
  184.5730  178.4670  143.8080 C   0  0  0  0  0  2  0  0  0  0  0  0
  183.6930  179.1470  140.8590 C   0  0  1  0  0  3  0  0  0  0  0  0
  188.1340  178.5700  139.2880 C   0  0  0  0  0  2  0  0  0  0  0  0
  185.7970  178.4350  140.2000 C   0  0  0  0  0  0  0  0  0  0  0  0
  181.4130  178.3540  140.8390 C   0  0  0  0  0  2  0  0  0  0  0  0
  180.3670  179.2370  141.5270 C   0  0  0  0  0  2  0  0  0  0  0  0
  180.0430  181.6750  139.1450 C   0  0  0  0  0  2  0  0  0  0  0  0
  179.0980  181.2310  141.1120 C   0  0  0  0  0  2  0  0  0  0  0  0
  179.4600  179.9180  140.5940 N   0  0  0  0  0  0  0  0  0  0  0  0
  179.1110  182.1660  140.0660 O   0  0  0  0  0  0  0  0  0  0  0  0
  180.1390  180.1860  139.3450 C   0  0  0  0  0  2  0  0  0  0  0  0
  1 26  1  6  0  0  0
  1 18  1  0  0  0  0
  2 14  2  0  0  0  0
  2 27  1  0  0  0  0
  3 16  1  1  0  0  0
  3  7  1  0  0  0  0
  4 15  1  0  0  0  0
  6  7  1  0  0  0  0
  8 16  1  0  0  0  0
  9 13  1  0  0  0  0
 10 22  1  0  0  0  0
 11  5  2  0  0  0  0
 12  8  1  0  0  0  0
 13 20  2  0  0  0  0
 13 24  1  0  0  0  0
 15 12  1  0  0  0  0
 15  5  1  0  0  0  0
 17 10  1  0  0  0  0
 18  4  2  0  0  0  0
 18 20  1  0  0  0  0
 19  5  1  6  0  0  0
 19  3  1  0  0  0  0
 19  6  1  0  0  0  0
 20 11  1  0  0  0  0
 21 23  2  0  0  0  0
 22 24  1  0  0  0  0
 23  4  1  0  0  0  0
 25 14  1  6  0  0  0
 25  9  1  0  0  0  0
 25 17  1  0  0  0  0
 26 21  1  0  0  0  0
 27  1  1  0  0  0  0
 27  9  2  0  0  0  0
 28 29  1  0  0  0  0
 28 17  1  0  0  0  0
 30 34  1  0  0  0  0
 30 33  1  0  0  0  0
 32 31  1  0  0  0  0
 32 29  1  0  0  0  0
 33 31  1  0  0  0  0
 34 32  1  0  0  0  0
M  END
>  <MODEL>
5

>  <REMARK>
 VINA RESULT:      -8.8      1.986      4.053
  Name = 
  3 active torsions:
  status: ('A' for Active; 'I' for Inactive)
    1  A    between atoms: N_17  and  C_28
    2  A    between atoms: C_28  and  C_29
    3  A    between atoms: C_29  and  N_32
                            x       y       z     vdW  Elec       q    Type
                         _______ _______ _______ _____ _____    ______ ____

>  <TORSDO>
F 3

$$$$
=
 OpenBabel11122412163D

 34 41  0  0  1  0  0  0  0  0999 V2000
  184.4230  179.0570  144.5720 C   0  0  0  0  0  0  0  0  0  0  0  0
  182.1010  179.2930  143.4900 N   0  0  0  0  0  0  0  0  0  0  0  0
  190.8560  177.9320  143.9760 C   0  0  2  0  0  3  0  0  0  0  0  0
  186.6620  178.2190  145.2350 C   0  0  0  0  0  0  0  0  0  0  0  0
  188.4540  177.7210  143.5410 C   0  0  0  0  0  0  0  0  0  0  0  0
  190.5490  177.5130  141.5800 S   0  0  0  0  0  0  0  0  0  0  0  0
  191.8110  178.0100  142.8080 C   0  0  0  0  0  2  0  0  0  0  0  0
  190.0320  176.7270  146.0060 C   0  0  0  0  0  2  0  0  0  0  0  0
  183.8480  178.6270  142.1970 C   0  0  0  0  0  0  0  0  0  0  0  0
  183.5650  178.5040  139.0330 C   0  0  0  0  0  2  0  0  0  0  0  0
  187.5750  177.8860  142.5490 C   0  0  0  0  0  3  0  0  0  0  0  0
  188.9880  177.8560  146.0630 C   0  0  0  0  0  2  0  0  0  0  0  0
  185.2640  178.3490  141.8430 C   0  0  0  0  0  0  0  0  0  0  0  0
  181.5610  179.2400  142.1400 C   0  0  0  0  0  3  0  0  0  0  0  0
  188.0290  177.8460  144.9340 N   0  0  0  0  0  0  0  0  0  0  0  0
  191.2760  177.1160  145.1840 C   0  0  0  0  0  2  0  0  0  0  0  0
  183.0090  179.4020  140.0550 N   0  0  0  0  0  0  0  0  0  0  0  0
  185.7820  178.4640  144.2420 C   0  0  0  0  0  0  0  0  0  0  0  0
  189.8120  177.1760  143.2120 C   0  0  1  0  0  3  0  0  0  0  0  0
  186.1810  178.2610  142.8280 C   0  0  1  0  0  3  0  0  0  0  0  0
  184.9070  178.4850  146.9390 C   0  0  0  0  0  3  0  0  0  0  0  0
  184.6570  177.5520  139.5410 C   0  0  0  0  0  2  0  0  0  0  0  0
  186.2050  178.3500  146.6430 C   0  0  0  0  0  3  0  0  0  0  0  0
  185.6870  178.2700  140.3980 C   0  0  0  0  0  2  0  0  0  0  0  0
  182.6780  178.6270  141.2650 C   0  0  1  0  0  3  0  0  0  0  0  0
  183.8670  178.4380  145.8560 C   0  0  0  0  0  2  0  0  0  0  0  0
  183.4650  178.9240  143.4240 C   0  0  0  0  0  0  0  0  0  0  0  0
  181.8040  179.9540  139.4470 C   0  0  0  0  0  2  0  0  0  0  0  0
  181.4980  179.2070  138.1450 C   0  0  0  0  0  2  0  0  0  0  0  0
  179.0810  177.6700  140.0220 C   0  0  0  0  0  2  0  0  0  0  0  0
  180.3600  177.0980  138.2910 C   0  0  0  0  0  2  0  0  0  0  0  0
  180.1910  178.5380  138.1400 N   0  0  0  0  0  0  0  0  0  0  0  0
  179.3860  176.6020  139.1710 O   0  0  0  0  0  0  0  0  0  0  0  0
  179.4180  178.9440  139.2930 C   0  0  0  0  0  2  0  0  0  0  0  0
  1 26  1  0  0  0  0
  3  7  1  6  0  0  0
  3 16  1  0  0  0  0
  4 23  1  0  0  0  0
  5 15  1  0  0  0  0
  6  7  1  0  0  0  0
  8 12  1  0  0  0  0
  9 27  1  0  0  0  0
 10 22  1  0  0  0  0
 10 17  1  0  0  0  0
 11  5  2  0  0  0  0
 13  9  2  0  0  0  0
 13 20  1  0  0  0  0
 14  2  2  0  0  0  0
 15  4  1  0  0  0  0
 15 12  1  0  0  0  0
 16  8  1  0  0  0  0
 17 25  1  0  0  0  0
 18  1  1  0  0  0  0
 18  4  2  0  0  0  0
 19  6  1  6  0  0  0
 19  5  1  0  0  0  0
 19  3  1  0  0  0  0
 20 11  1  1  0  0  0
 20 18  1  0  0  0  0
 22 24  1  0  0  0  0
 23 21  2  0  0  0  0
 24 13  1  0  0  0  0
 25 14  1  1  0  0  0
 25  9  1  0  0  0  0
 26 21  1  0  0  0  0
 27  2  1  0  0  0  0
 27  1  2  0  0  0  0
 28 17  1  0  0  0  0
 29 28  1  0  0  0  0
 31 33  1  0  0  0  0
 32 29  1  0  0  0  0
 32 31  1  0  0  0  0
 32 34  1  0  0  0  0
 33 30  1  0  0  0  0
 34 30  1  0  0  0  0
M  END
>  <MODEL>
6

>  <REMARK>
 VINA RESULT:      -8.7      1.786      2.150
  Name = 
  3 active torsions:
  status: ('A' for Active; 'I' for Inactive)
    1  A    between atoms: N_17  and  C_28
    2  A    between atoms: C_28  and  C_29
    3  A    between atoms: C_29  and  N_32
                            x       y       z     vdW  Elec       q    Type
                         _______ _______ _______ _____ _____    ______ ____

>  <TORSDO>
F 3

$$$$
=
 OpenBabel11122412163D

 34 41  0  0  1  0  0  0  0  0999 V2000
  187.4250  177.8270  140.1130 C   0  0  2  0  0  3  0  0  0  0  0  0
  185.3860  178.4820  138.6890 N   0  0  0  0  0  0  0  0  0  0  0  0
  190.0920  176.7020  145.9980 C   0  0  2  0  0  3  0  0  0  0  0  0
  189.2050  177.7930  141.8400 C   0  0  0  0  0  0  0  0  0  0  0  0
  188.6770  177.7580  144.3000 C   0  0  0  0  0  0  0  0  0  0  0  0
  187.9880  177.3670  147.0650 S   0  0  0  0  0  0  0  0  0  0  0  0
  189.5030  176.3810  147.3500 C   0  0  0  0  0  2  0  0  0  0  0  0
  191.7430  177.9740  144.6150 C   0  0  0  0  0  2  0  0  0  0  0  0
  185.2200  178.5920  140.9530 C   0  0  0  0  0  0  0  0  0  0  0  0
  182.3970  179.0250  142.3500 C   0  0  0  0  0  2  0  0  0  0  0  0
  187.3860  177.9760  144.0340 C   0  0  0  0  0  3  0  0  0  0  0  0
  191.0570  177.2730  143.4290 C   0  0  0  0  0  2  0  0  0  0  0  0
  185.6220  178.3890  142.3690 C   0  0  0  0  0  0  0  0  0  0  0  0
  183.9900  178.8120  138.9400 C   0  0  0  0  0  3  0  0  0  0  0  0
  189.6540  177.6920  143.2140 N   0  0  0  0  0  0  0  0  0  0  0  0
  191.5110  177.2370  145.9490 C   0  0  0  0  0  2  0  0  0  0  0  0
  182.8160  178.3050  141.1390 N   0  0  0  0  0  0  0  0  0  0  0  0
  187.8950  177.9360  141.5540 C   0  0  0  0  0  0  0  0  0  0  0  0
  189.1360  177.8230  145.7250 C   0  0  1  0  0  3  0  0  0  0  0  0
  186.9070  178.0870  142.6490 C   0  0  0  0  0  0  0  0  0  0  0  0
  189.8140  178.0310  139.4680 C   0  0  0  0  0  3  0  0  0  0  0  0
  183.5490  179.5030  143.2430 C   0  0  0  0  0  2  0  0  0  0  0  0
  190.1790  177.7310  140.7190 C   0  0  0  0  0  3  0  0  0  0  0  0
  184.5890  178.4170  143.4670 C   0  0  0  0  0  2  0  0  0  0  0  0
  183.8860  179.0610  140.4620 C   0  0  1  0  0  3  0  0  0  0  0  0
  188.4200  178.5100  139.1730 C   0  0  0  0  0  2  0  0  0  0  0  0
  186.0330  178.3620  139.9400 C   0  0  0  0  0  0  0  0  0  0  0  0
  181.6190  178.2460  140.3100 C   0  0  0  0  0  2  0  0  0  0  0  0
  180.4470  177.7080  141.1370 C   0  0  0  0  0  2  0  0  0  0  0  0
  179.7240  174.6230  139.8400 C   0  0  0  0  0  2  0  0  0  0  0  0
  180.0060  176.6720  139.0170 C   0  0  0  0  0  2  0  0  0  0  0  0
  179.4950  176.9030  140.3610 N   0  0  0  0  0  0  0  0  0  0  0  0
  179.7540  175.3440  138.6410 O   0  0  0  0  0  0  0  0  0  0  0  0
  179.3670  175.5850  140.9420 C   0  0  0  0  0  2  0  0  0  0  0  0
  1 26  1  6  0  0  0
  1 18  1  0  0  0  0
  2 14  2  0  0  0  0
  2 27  1  0  0  0  0
  3 16  1  1  0  0  0
  3  7  1  0  0  0  0
  4 15  1  0  0  0  0
  6  7  1  0  0  0  0
  8 16  1  0  0  0  0
  9 13  1  0  0  0  0
 10 22  1  0  0  0  0
 11  5  2  0  0  0  0
 12  8  1  0  0  0  0
 13 20  2  0  0  0  0
 13 24  1  0  0  0  0
 15 12  1  0  0  0  0
 15  5  1  0  0  0  0
 17 10  1  0  0  0  0
 18  4  2  0  0  0  0
 18 20  1  0  0  0  0
 19  5  1  6  0  0  0
 19  3  1  0  0  0  0
 19  6  1  0  0  0  0
 20 11  1  0  0  0  0
 21 23  2  0  0  0  0
 22 24  1  0  0  0  0
 23  4  1  0  0  0  0
 25 14  1  6  0  0  0
 25  9  1  0  0  0  0
 25 17  1  0  0  0  0
 26 21  1  0  0  0  0
 27  1  1  0  0  0  0
 27  9  2  0  0  0  0
 28 29  1  0  0  0  0
 28 17  1  0  0  0  0
 30 34  1  0  0  0  0
 31 32  1  0  0  0  0
 32 34  1  0  0  0  0
 32 29  1  0  0  0  0
 33 31  1  0  0  0  0
 33 30  1  0  0  0  0
M  END
>  <MODEL>
7

>  <REMARK>
 VINA RESULT:      -8.4      2.885      4.834
  Name = 
  3 active torsions:
  status: ('A' for Active; 'I' for Inactive)
    1  A    between atoms: N_17  and  C_28
    2  A    between atoms: C_28  and  C_29
    3  A    between atoms: C_29  and  N_32
                            x       y       z     vdW  Elec       q    Type
                         _______ _______ _______ _____ _____    ______ ____

>  <TORSDO>
F 3

$$$$
=
 OpenBabel11122412163D

 34 41  0  0  1  0  0  0  0  0999 V2000
  188.4830  177.3660  138.1110 C   0  0  2  0  0  3  0  0  0  0  0  0
  187.0170  178.4300  139.9360 N   0  0  0  0  0  0  0  0  0  0  0  0
  194.0440  174.3660  136.3520 C   0  0  2  0  0  3  0  0  0  0  0  0
  190.3890  176.7800  136.6350 C   0  0  0  0  0  0  0  0  0  0  0  0
  192.5660  175.9100  137.5500 C   0  0  0  0  0  0  0  0  0  0  0  0
  194.8800  174.5990  138.6450 S   0  0  0  0  0  0  0  0  0  0  0  0
  195.0880  173.5990  137.1270 C   0  0  0  0  0  2  0  0  0  0  0  0
  193.4730  176.0560  134.5990 C   0  0  0  0  0  2  0  0  0  0  0  0
  189.1230  177.7680  140.4730 C   0  0  0  0  0  0  0  0  0  0  0  0
  190.0620  177.6590  143.5090 C   0  0  0  0  0  2  0  0  0  0  0  0
  192.1620  176.1840  138.7930 C   0  0  0  0  0  3  0  0  0  0  0  0
  192.0210  175.7850  135.0300 C   0  0  0  0  0  2  0  0  0  0  0  0
  190.4410  177.1060  140.2910 C   0  0  0  0  0  0  0  0  0  0  0  0
  187.1120  178.6330  141.3750 C   0  0  0  0  0  3  0  0  0  0  0  0
  191.7100  176.2290  136.4080 N   0  0  0  0  0  0  0  0  0  0  0  0
  194.4260  174.9090  134.9880 C   0  0  0  0  0  2  0  0  0  0  0  0
  188.7760  177.3960  142.8470 N   0  0  0  0  0  0  0  0  0  0  0  0
  189.9390  176.9910  137.8890 C   0  0  0  0  0  0  0  0  0  0  0  0
  193.9910  175.4980  137.3330 C   0  0  1  0  0  3  0  0  0  0  0  0
  190.8290  176.7470  139.0490 C   0  0  0  0  0  0  0  0  0  0  0  0
  188.3750  177.8130  135.6710 C   0  0  0  0  0  3  0  0  0  0  0  0
  191.2520  177.8270  142.5550 C   0  0  0  0  0  2  0  0  0  0  0  0
  189.5020  177.1150  135.4910 C   0  0  0  0  0  3  0  0  0  0  0  0
  191.2860  176.7460  141.4870 C   0  0  0  0  0  2  0  0  0  0  0  0
  188.5870  178.3530  141.7410 C   0  0  1  0  0  3  0  0  0  0  0  0
  188.0120  178.3410  137.0300 C   0  0  0  0  0  2  0  0  0  0  0  0
  188.2530  177.9050  139.4920 C   0  0  0  0  0  0  0  0  0  0  0  0
  187.7760  177.6010  143.8870 C   0  0  0  0  0  2  0  0  0  0  0  0
  188.4110  177.3760  145.2630 C   0  0  0  0  0  2  0  0  0  0  0  0
  185.9390  178.9940  146.9930 C   0  0  0  0  0  2  0  0  0  0  0  0
  187.9010  178.0740  147.5020 C   0  0  0  0  0  2  0  0  0  0  0  0
  187.4370  177.2980  146.3600 N   0  0  0  0  0  0  0  0  0  0  0  0
  186.8230  178.7820  148.0560 O   0  0  0  0  0  0  0  0  0  0  0  0
  186.1930  177.9210  145.9670 C   0  0  0  0  0  2  0  0  0  0  0  0
  1 26  1  6  0  0  0
  1 27  1  0  0  0  0
  2 14  2  0  0  0  0
  3 16  1  6  0  0  0
  3  7  1  0  0  0  0
  3 19  1  0  0  0  0
  4 18  2  0  0  0  0
  5 11  2  0  0  0  0
  7  6  1  0  0  0  0
  8 16  1  0  0  0  0
  8 12  1  0  0  0  0
  9 25  1  0  0  0  0
 11 20  1  0  0  0  0
 12 15  1  0  0  0  0
 13  9  1  0  0  0  0
 13 24  1  0  0  0  0
 15  4  1  0  0  0  0
 15  5  1  0  0  0  0
 17 10  1  0  0  0  0
 17 28  1  0  0  0  0
 18  1  1  0  0  0  0
 18 20  1  0  0  0  0
 19  5  1  1  0  0  0
 19  6  1  0  0  0  0
 20 13  2  0  0  0  0
 21 26  1  0  0  0  0
 22 10  1  0  0  0  0
 23 21  2  0  0  0  0
 23  4  1  0  0  0  0
 24 22  1  0  0  0  0
 25 14  1  6  0  0  0
 25 17  1  0  0  0  0
 27  2  1  0  0  0  0
 27  9  2  0  0  0  0
 28 29  1  0  0  0  0
 29 32  1  0  0  0  0
 30 33  1  0  0  0  0
 31 33  1  0  0  0  0
 32 31  1  0  0  0  0
 34 32  1  0  0  0  0
 34 30  1  0  0  0  0
M  END
>  <MODEL>
8

>  <REMARK>
 VINA RESULT:      -8.4      4.997      8.970
  Name = 
  3 active torsions:
  status: ('A' for Active; 'I' for Inactive)
    1  A    between atoms: N_17  and  C_28
    2  A    between atoms: C_28  and  C_29
    3  A    between atoms: C_29  and  N_32
                            x       y       z     vdW  Elec       q    Type
                         _______ _______ _______ _____ _____    ______ ____

>  <TORSDO>
F 3

$$$$
=
 OpenBabel11122412163D

 34 41  0  0  1  0  0  0  0  0999 V2000
  186.0560  177.9380  144.0940 C   0  0  0  0  0  0  0  0  0  0  0  0
  188.6210  177.7800  144.0120 N   0  0  0  0  0  0  0  0  0  0  0  0
  180.3110  178.4050  140.9630 C   0  0  2  0  0  3  0  0  0  0  0  0
  183.7060  178.6480  143.7350 C   0  0  0  0  0  0  0  0  0  0  0  0
  182.6860  178.7750  141.4380 C   0  0  0  0  0  0  0  0  0  0  0  0
  181.5020  178.5560  138.8260 S   0  0  0  0  0  0  0  0  0  0  0  0
  179.8840  178.1010  139.5480 C   0  0  0  0  0  2  0  0  0  0  0  0
  180.2480  179.9170  142.9540 C   0  0  0  0  0  2  0  0  0  0  0  0
  187.4840  178.1250  142.0750 C   0  0  0  0  0  0  0  0  0  0  0  0
  188.9590  177.8880  139.2680 C   0  0  0  0  0  2  0  0  0  0  0  0
  183.8850  178.5690  140.8860 C   0  0  0  0  0  3  0  0  0  0  0  0
  181.2290  178.9010  143.5650 C   0  0  0  0  0  2  0  0  0  0  0  0
  186.3050  178.2310  141.1770 C   0  0  0  0  0  0  0  0  0  0  0  0
  189.6380  177.7170  142.9720 C   0  0  0  0  0  3  0  0  0  0  0  0
  182.5470  178.8590  142.8920 N   0  0  0  0  0  0  0  0  0  0  0  0
  179.4300  179.3210  141.7910 C   0  0  0  0  0  2  0  0  0  0  0  0
  189.1100  177.1730  140.5440 N   0  0  0  0  0  0  0  0  0  0  0  0
  184.9070  178.3640  143.1940 C   0  0  0  0  0  0  0  0  0  0  0  0
  181.5420  179.1530  140.5470 C   0  0  1  0  0  3  0  0  0  0  0  0
  185.0760  178.3570  141.7210 C   0  0  1  0  0  3  0  0  0  0  0  0
  184.6770  178.7480  145.9940 C   0  0  0  0  0  3  0  0  0  0  0  0
  187.7220  178.7930  139.1830 C   0  0  0  0  0  2  0  0  0  0  0  0
  183.5900  178.7310  145.2150 C   0  0  0  0  0  3  0  0  0  0  0  0
  186.4680  178.0960  139.6850 C   0  0  0  0  0  2  0  0  0  0  0  0
  188.9220  178.1170  141.6620 C   0  0  1  0  0  3  0  0  0  0  0  0
  186.0520  178.7560  145.3870 C   0  0  0  0  0  2  0  0  0  0  0  0
  187.3760  178.0160  143.3850 C   0  0  0  0  0  0  0  0  0  0  0  0
  190.4750  176.6610  140.5220 C   0  0  0  0  0  2  0  0  0  0  0  0
  191.1320  177.0100  139.1830 C   0  0  0  0  0  2  0  0  0  0  0  0
  192.9660  175.9260  136.5020 C   0  0  0  0  0  2  0  0  0  0  0  0
  191.1580  175.2150  137.5890 C   0  0  0  0  0  2  0  0  0  0  0  0
  191.9260  175.9150  138.6100 N   0  0  0  0  0  0  0  0  0  0  0  0
  191.9870  174.9270  136.4940 O   0  0  0  0  0  0  0  0  0  0  0  0
  193.0760  176.4460  137.9110 C   0  0  0  0  0  2  0  0  0  0  0  0
  1 26  1  0  0  0  0
  3  7  1  6  0  0  0
  3 16  1  0  0  0  0
  4 23  1  0  0  0  0
  5 15  1  0  0  0  0
  6  7  1  0  0  0  0
  8 12  1  0  0  0  0
  9 27  1  0  0  0  0
 10 17  1  0  0  0  0
 11  5  2  0  0  0  0
 13 20  1  0  0  0  0
 13  9  2  0  0  0  0
 14  2  2  0  0  0  0
 15 12  1  0  0  0  0
 15  4  1  0  0  0  0
 16  8  1  0  0  0  0
 17 25  1  0  0  0  0
 18  4  2  0  0  0  0
 18  1  1  0  0  0  0
 19  6  1  6  0  0  0
 19  3  1  0  0  0  0
 19  5  1  0  0  0  0
 20 11  1  1  0  0  0
 20 18  1  0  0  0  0
 22 10  1  0  0  0  0
 22 24  1  0  0  0  0
 23 21  2  0  0  0  0
 24 13  1  0  0  0  0
 25  9  1  0  0  0  0
 25 14  1  1  0  0  0
 26 21  1  0  0  0  0
 27  2  1  0  0  0  0
 27  1  2  0  0  0  0
 28 17  1  0  0  0  0
 29 28  1  0  0  0  0
 30 34  1  0  0  0  0
 31 32  1  0  0  0  0
 32 29  1  0  0  0  0
 33 30  1  0  0  0  0
 33 31  1  0  0  0  0
 34 32  1  0  0  0  0
M  END
>  <MODEL>
9

>  <REMARK>
 VINA RESULT:      -8.4      3.799      8.257
  Name = 
  3 active torsions:
  status: ('A' for Active; 'I' for Inactive)
    1  A    between atoms: N_17  and  C_28
    2  A    between atoms: C_28  and  C_29
    3  A    between atoms: C_29  and  N_32
                            x       y       z     vdW  Elec       q    Type
                         _______ _______ _______ _____ _____    ______ ____

>  <TORSDO>
F 3

$$$$
