=
 OpenBabel11122411493D

 37 42  0  0  1  0  0  0  0  0999 V2000
  187.4350  177.5240  141.9620 C   0  0  1  0  0  3  0  0  0  0  0  0
  190.3710  175.9740  142.1240 O   0  0  0  0  0  0  0  0  0  0  0  0
  185.3200  178.3530  143.2890 C   0  0  2  0  0  3  0  0  0  0  0  0
  188.8510  177.7730  142.4390 C   0  0  2  0  0  3  0  0  0  0  0  0
  186.6390  177.5490  143.2660 C   0  0  2  0  0  3  0  0  0  0  0  0
  189.9570  177.1920  141.5650 C   0  0  2  0  0  3  0  0  0  0  0  0
  185.2550  179.4800  142.2620 C   0  0  0  0  0  2  0  0  0  0  0  0
  187.6670  177.8530  144.3430 C   0  0  0  0  0  2  0  0  0  0  0  0
  187.6710  178.1960  139.5860 C   0  0  0  0  0  2  0  0  0  0  0  0
  185.6520  178.9540  140.8940 C   0  0  0  0  0  2  0  0  0  0  0  0
  192.1400  177.4880  143.1790 C   0  0  0  0  0  2  0  0  0  0  0  0
  191.4800  176.1220  143.0120 C   0  0  1  0  0  3  0  0  0  0  0  0
  187.1290  178.6230  140.9480 C   0  0  1  0  0  3  0  0  0  0  0  0
  188.9280  177.3120  143.8180 N   0  0  2  0  0  0  0  0  0  0  0  0
  189.5500  177.0410  140.0860 C   0  0  1  0  0  3  0  0  0  0  0  0
  191.2260  176.9750  144.2870 C   0  0  2  0  0  3  0  0  0  0  0  0
  190.0860  177.9100  144.3760 N   0  0  0  0  0  0  0  0  0  0  0  0
  189.0770  178.2660  139.5790 O   0  0  0  0  0  0  0  0  0  0  0  0
  191.9660  177.1260  139.4490 C   0  0  0  0  0  3  0  0  0  0  0  0
  190.7000  176.5580  139.2610 C   0  0  0  0  0  0  0  0  0  0  0  0
  190.5250  175.5580  138.2930 C   0  0  0  0  0  3  0  0  0  0  0  0
  191.4370  174.1640  136.5880 F   0  0  0  0  0  0  0  0  0  0  0  0
  192.8720  175.7000  137.7150 C   0  0  0  0  0  3  0  0  0  0  0  0
  191.6100  175.1300  137.5220 C   0  0  0  0  0  0  0  0  0  0  0  0
  193.0500  176.6970  138.6780 C   0  0  0  0  0  3  0  0  0  0  0  0
  189.9230  178.1320  145.8180 C   0  0  0  0  0  2  0  0  0  0  0  0
  190.3430  176.8980  146.6130 C   0  0  1  0  0  3  0  0  0  0  0  0
  192.0480  175.8940  147.6110 C   0  0  0  0  0  1  0  0  0  0  0  0
  191.5220  177.1530  147.3210 O   0  0  0  0  0  0  0  0  0  0  0  0
  189.2300  176.4740  147.5650 C   0  0  0  0  0  2  0  0  0  0  0  0
  188.4110  177.6710  148.0190 C   0  0  0  0  0  2  0  0  0  0  0  0
  189.0540  178.3250  149.0530 F   0  0  0  0  0  0  0  0  0  0  0  0
  185.0350  178.8450  144.5740 O   0  0  0  0  0  0  0  0  0  0  0  0
  183.6450  179.0640  144.6630 C   0  0  0  0  0  0  0  0  0  0  0  0
  183.3180  180.3410  144.2330 F   0  0  0  0  0  0  0  0  0  0  0  0
  182.9480  178.1240  143.9170 F   0  0  0  0  0  0  0  0  0  0  0  0
  183.2640  178.9390  145.9840 F   0  0  0  0  0  0  0  0  0  0  0  0
  1  4  1  0  0  0  0
  1  5  1  0  0  0  0
  2 12  1  0  0  0  0
  3 33  1  0  0  0  0
  4 14  1  0  0  0  0
  5  3  1  0  0  0  0
  5  8  1  0  0  0  0
  6  2  1  0  0  0  0
  6  4  1  0  0  0  0
  7  3  1  0  0  0  0
  9 13  1  0  0  0  0
 10 13  1  0  0  0  0
 10  7  1  0  0  0  0
 11 16  1  0  0  0  0
 12 11  1  0  0  0  0
 12 16  1  0  0  0  0
 13  1  1  0  0  0  0
 14  8  1  0  0  0  0
 14 17  1  0  0  0  0
 15  6  1  0  0  0  0
 16 17  1  0  0  0  0
 17 26  1  0  0  0  0
 18  9  1  0  0  0  0
 18 15  1  0  0  0  0
 20 19  1  0  0  0  0
 20 15  1  0  0  0  0
 21 20  2  0  0  0  0
 22 24  1  0  0  0  0
 23 25  1  0  0  0  0
 24 23  2  0  0  0  0
 24 21  1  0  0  0  0
 25 19  2  0  0  0  0
 26 27  1  0  0  0  0
 27 29  1  0  0  0  0
 27 30  1  0  0  0  0
 29 28  1  0  0  0  0
 30 31  1  0  0  0  0
 31 32  1  0  0  0  0
 33 34  1  0  0  0  0
 34 37  1  0  0  0  0
 35 34  1  0  0  0  0
 36 34  1  0  0  0  0
M  END
>  <MODEL>
1

>  <REMARK>
 VINA RESULT:      -9.1      0.000      0.000
  Name = 
  8 active torsions:
  status: ('A' for Active; 'I' for Inactive)
    1  A    between atoms: C_1  and  C_4
    2  A    between atoms: C_1  and  N_27
    3  A    between atoms: C_2  and  O_22
    4  A    between atoms: C_4  and  C_12
    5  A    between atoms: C_4  and  O_37
    6  A    between atoms: C_6  and  O_22
    7  A    between atoms: C_8  and  C_12
    8  A    between atoms: C_23  and  C_30
                            x       y       z     vdW  Elec       q    Type
                         _______ _______ _______ _____ _____    ______ ____

>  <TORSDO>
F 8

$$$$
=
 OpenBabel11122411493D

 37 42  0  0  1  0  0  0  0  0999 V2000
  186.2290  177.6710  144.9490 C   0  0  1  0  0  3  0  0  0  0  0  0
  184.4820  177.5650  142.1240 O   0  0  0  0  0  0  0  0  0  0  0  0
  188.5550  177.2530  146.1030 C   0  0  2  0  0  3  0  0  0  0  0  0
  186.0840  178.4330  143.6480 C   0  0  2  0  0  3  0  0  0  0  0  0
  187.6530  177.1260  144.8560 C   0  0  2  0  0  3  0  0  0  0  0  0
  184.6650  178.5520  143.1020 C   0  0  2  0  0  3  0  0  0  0  0  0
  188.1690  178.3910  147.0430 C   0  0  0  0  0  2  0  0  0  0  0  0
  188.1890  177.6650  143.5400 C   0  0  0  0  0  2  0  0  0  0  0  0
  184.4390  178.7660  146.2730 C   0  0  0  0  0  2  0  0  0  0  0  0
  186.6810  178.3300  147.3420 C   0  0  0  0  0  2  0  0  0  0  0  0
  185.1260  179.5010  140.5840 C   0  0  0  0  0  2  0  0  0  0  0  0
  184.7710  178.0340  140.8050 C   0  0  1  0  0  3  0  0  0  0  0  0
  185.9490  178.6770  146.0630 C   0  0  1  0  0  3  0  0  0  0  0  0
  187.0020  177.8290  142.6920 N   0  0  2  0  0  0  0  0  0  0  0  0
  183.5840  178.4870  144.1990 C   0  0  1  0  0  3  0  0  0  0  0  0
  186.2420  178.4630  140.5380 C   0  0  2  0  0  3  0  0  0  0  0  0
  187.1680  178.7720  141.6470 N   0  0  0  0  0  0  0  0  0  0  0  0
  183.8380  179.4460  145.1970 O   0  0  0  0  0  0  0  0  0  0  0  0
  181.0940  178.3200  144.3540 C   0  0  0  0  0  3  0  0  0  0  0  0
  182.2220  178.7040  143.6190 C   0  0  0  0  0  0  0  0  0  0  0  0
  182.0600  179.2690  142.3460 C   0  0  0  0  0  3  0  0  0  0  0  0
  180.6270  179.9970  140.5860 F   0  0  0  0  0  0  0  0  0  0  0  0
  179.6570  179.0670  142.5550 C   0  0  0  0  0  3  0  0  0  0  0  0
  180.7790  179.4510  141.8160 C   0  0  0  0  0  0  0  0  0  0  0  0
  179.8140  178.5010  143.8240 C   0  0  0  0  0  3  0  0  0  0  0  0
  188.4990  178.6550  141.0370 C   0  0  0  0  0  2  0  0  0  0  0  0
  188.3960  178.2210  139.5770 C   0  0  1  0  0  3  0  0  0  0  0  0
  188.8470  178.6790  137.4560 C   0  0  0  0  0  1  0  0  0  0  0  0
  188.8490  179.2400  138.7330 O   0  0  0  0  0  0  0  0  0  0  0  0
  189.1930  176.9420  139.3450 C   0  0  0  0  0  2  0  0  0  0  0  0
  190.3360  176.8200  140.3380 C   0  0  0  0  0  2  0  0  0  0  0  0
  191.4340  177.5330  139.8930 F   0  0  0  0  0  0  0  0  0  0  0  0
  189.9130  177.3470  145.7530 O   0  0  0  0  0  0  0  0  0  0  0  0
  190.6680  176.6680  146.7300 C   0  0  0  0  0  0  0  0  0  0  0  0
  191.6960  175.9440  146.1450 F   0  0  0  0  0  0  0  0  0  0  0  0
  191.1880  177.5560  147.6600 F   0  0  0  0  0  0  0  0  0  0  0  0
  189.8370  175.7840  147.3910 F   0  0  0  0  0  0  0  0  0  0  0  0
  1 13  1  0  0  0  0
  2  6  1  0  0  0  0
  3  7  1  0  0  0  0
  4  1  1  0  0  0  0
  5  1  1  0  0  0  0
  5  3  1  0  0  0  0
  6  4  1  0  0  0  0
  6 15  1  0  0  0  0
  7 10  1  0  0  0  0
  8  5  1  0  0  0  0
 11 12  1  0  0  0  0
 12  2  1  0  0  0  0
 13  9  1  0  0  0  0
 13 10  1  0  0  0  0
 14  8  1  0  0  0  0
 14  4  1  0  0  0  0
 15 18  1  0  0  0  0
 16 11  1  0  0  0  0
 16 12  1  0  0  0  0
 16 17  1  0  0  0  0
 17 14  1  0  0  0  0
 18  9  1  0  0  0  0
 20 15  1  0  0  0  0
 20 19  2  0  0  0  0
 21 20  1  0  0  0  0
 22 24  1  0  0  0  0
 23 25  2  0  0  0  0
 24 21  2  0  0  0  0
 24 23  1  0  0  0  0
 25 19  1  0  0  0  0
 26 17  1  0  0  0  0
 27 26  1  0  0  0  0
 28 29  1  0  0  0  0
 29 27  1  0  0  0  0
 30 27  1  0  0  0  0
 30 31  1  0  0  0  0
 32 31  1  0  0  0  0
 33  3  1  0  0  0  0
 33 34  1  0  0  0  0
 34 37  1  0  0  0  0
 34 36  1  0  0  0  0
 35 34  1  0  0  0  0
M  END
>  <MODEL>
2

>  <REMARK>
 VINA RESULT:      -8.6      2.588      8.163
  Name = 
  8 active torsions:
  status: ('A' for Active; 'I' for Inactive)
    1  A    between atoms: C_1  and  C_4
    2  A    between atoms: C_1  and  N_27
    3  A    between atoms: C_2  and  O_22
    4  A    between atoms: C_4  and  C_12
    5  A    between atoms: C_4  and  O_37
    6  A    between atoms: C_6  and  O_22
    7  A    between atoms: C_8  and  C_12
    8  A    between atoms: C_23  and  C_30
                            x       y       z     vdW  Elec       q    Type
                         _______ _______ _______ _____ _____    ______ ____

>  <TORSDO>
F 8

$$$$
=
 OpenBabel11122411493D

 37 42  0  0  1  0  0  0  0  0999 V2000
  186.5690  178.6220  142.5240 C   0  0  1  0  0  3  0  0  0  0  0  0
  189.8310  178.4230  143.1320 O   0  0  0  0  0  0  0  0  0  0  0  0
  184.7000  179.1060  140.7380 C   0  0  2  0  0  3  0  0  0  0  0  0
  187.7440  177.7040  142.2530 C   0  0  2  0  0  3  0  0  0  0  0  0
  186.1960  179.1010  141.1230 C   0  0  2  0  0  3  0  0  0  0  0  0
  188.7520  177.5650  143.3880 C   0  0  2  0  0  3  0  0  0  0  0  0
  183.8480  178.1120  141.5220 C   0  0  0  0  0  2  0  0  0  0  0  0
  187.1590  178.3790  140.1950 C   0  0  0  0  0  2  0  0  0  0  0  0
  185.8780  177.7690  144.7480 C   0  0  0  0  0  2  0  0  0  0  0  0
  184.1200  178.2620  143.0090 C   0  0  0  0  0  2  0  0  0  0  0  0
  190.8120  176.2840  142.1340 C   0  0  0  0  0  2  0  0  0  0  0  0
  190.8950  177.7780  142.4290 C   0  0  1  0  0  3  0  0  0  0  0  0
  185.5320  177.7780  143.2610 C   0  0  1  0  0  3  0  0  0  0  0  0
  188.3590  178.1490  141.0100 N   0  0  2  0  0  0  0  0  0  0  0  0
  188.1390  177.8070  144.7810 C   0  0  1  0  0  3  0  0  0  0  0  0
  190.5600  177.2690  140.9980 C   0  0  2  0  0  3  0  0  0  0  0  0
  189.1640  177.0730  140.5560 N   0  0  0  0  0  0  0  0  0  0  0  0
  187.0190  176.9760  144.9770 O   0  0  0  0  0  0  0  0  0  0  0  0
  188.9070  178.0560  147.1470 C   0  0  0  0  0  3  0  0  0  0  0  0
  189.1470  177.5640  145.8590 C   0  0  0  0  0  0  0  0  0  0  0  0
  190.3350  176.8670  145.5930 C   0  0  0  0  0  3  0  0  0  0  0  0
  192.4180  175.9880  146.3500 F   0  0  0  0  0  0  0  0  0  0  0  0
  191.0260  177.1540  147.8950 C   0  0  0  0  0  3  0  0  0  0  0  0
  191.2720  176.6620  146.6110 C   0  0  0  0  0  0  0  0  0  0  0  0
  189.8440  177.8510  148.1650 C   0  0  0  0  0  3  0  0  0  0  0  0
  189.2560  177.0650  139.0910 C   0  0  0  0  0  2  0  0  0  0  0  0
  190.3640  176.1280  138.6170 C   0  0  1  0  0  3  0  0  0  0  0  0
  189.2320  175.2860  136.9080 C   0  0  0  0  0  1  0  0  0  0  0  0
  189.8170  174.9380  138.1250 O   0  0  0  0  0  0  0  0  0  0  0  0
  191.2140  176.8060  137.5480 C   0  0  0  0  0  2  0  0  0  0  0  0
  192.6860  176.4790  137.7270 C   0  0  0  0  0  2  0  0  0  0  0  0
  193.1150  176.8770  138.9800 F   0  0  0  0  0  0  0  0  0  0  0  0
  184.5190  178.9210  139.3560 O   0  0  0  0  0  0  0  0  0  0  0  0
  183.3740  179.6420  138.9620 C   0  0  0  0  0  0  0  0  0  0  0  0
  183.6880  180.9690  138.7110 F   0  0  0  0  0  0  0  0  0  0  0  0
  182.7960  179.0740  137.8360 F   0  0  0  0  0  0  0  0  0  0  0  0
  182.4530  179.6000  139.9910 F   0  0  0  0  0  0  0  0  0  0  0  0
  1 13  1  0  0  0  0
  2  6  1  0  0  0  0
  3  5  1  0  0  0  0
  3  7  1  0  0  0  0
  4  1  1  0  0  0  0
  4  6  1  0  0  0  0
  5  1  1  0  0  0  0
  6 15  1  0  0  0  0
  7 10  1  0  0  0  0
  8 14  1  0  0  0  0
  8  5  1  0  0  0  0
  9 18  1  0  0  0  0
 10 13  1  0  0  0  0
 11 12  1  0  0  0  0
 12  2  1  0  0  0  0
 13  9  1  0  0  0  0
 14  4  1  0  0  0  0
 15 18  1  0  0  0  0
 15 20  1  0  0  0  0
 16 11  1  0  0  0  0
 16 12  1  0  0  0  0
 17 16  1  0  0  0  0
 17 14  1  0  0  0  0
 19 25  1  0  0  0  0
 20 19  2  0  0  0  0
 21 20  1  0  0  0  0
 21 24  2  0  0  0  0
 22 24  1  0  0  0  0
 23 25  2  0  0  0  0
 24 23  1  0  0  0  0
 26 17  1  0  0  0  0
 27 26  1  0  0  0  0
 28 29  1  0  0  0  0
 29 27  1  0  0  0  0
 30 31  1  0  0  0  0
 30 27  1  0  0  0  0
 31 32  1  0  0  0  0
 33  3  1  0  0  0  0
 34 33  1  0  0  0  0
 34 37  1  0  0  0  0
 35 34  1  0  0  0  0
 36 34  1  0  0  0  0
M  END
>  <MODEL>
3

>  <REMARK>
 VINA RESULT:      -8.3      2.550      6.601
  Name = 
  8 active torsions:
  status: ('A' for Active; 'I' for Inactive)
    1  A    between atoms: C_1  and  C_4
    2  A    between atoms: C_1  and  N_27
    3  A    between atoms: C_2  and  O_22
    4  A    between atoms: C_4  and  C_12
    5  A    between atoms: C_4  and  O_37
    6  A    between atoms: C_6  and  O_22
    7  A    between atoms: C_8  and  C_12
    8  A    between atoms: C_23  and  C_30
                            x       y       z     vdW  Elec       q    Type
                         _______ _______ _______ _____ _____    ______ ____

>  <TORSDO>
F 8

$$$$
=
 OpenBabel11122411493D

 37 42  0  0  1  0  0  0  0  0999 V2000
  190.0470  176.9740  141.5650 C   0  0  1  0  0  3  0  0  0  0  0  0
  187.1280  177.0910  143.1510 O   0  0  0  0  0  0  0  0  0  0  0  0
  191.2780  176.6410  139.2640 C   0  0  2  0  0  3  0  0  0  0  0  0
  188.8560  177.8950  141.7310 C   0  0  2  0  0  3  0  0  0  0  0  0
  189.9710  176.6010  140.0860 C   0  0  2  0  0  3  0  0  0  0  0  0
  188.2430  177.9410  143.1270 C   0  0  2  0  0  3  0  0  0  0  0  0
  192.3380  177.5860  139.8210 C   0  0  0  0  0  2  0  0  0  0  0  0
  188.7780  177.3760  139.5500 C   0  0  0  0  0  2  0  0  0  0  0  0
  191.3920  177.6740  143.5280 C   0  0  0  0  0  2  0  0  0  0  0  0
  192.5310  177.3270  141.3050 C   0  0  0  0  0  2  0  0  0  0  0  0
  185.9130  179.2850  142.6550 C   0  0  0  0  0  2  0  0  0  0  0  0
  185.9080  177.7730  142.8530 C   0  0  1  0  0  3  0  0  0  0  0  0
  191.2680  177.7750  142.0100 C   0  0  1  0  0  3  0  0  0  0  0  0
  187.8860  177.5340  140.7060 N   0  0  2  0  0  0  0  0  0  0  0  0
  189.2490  177.6080  144.2460 C   0  0  1  0  0  3  0  0  0  0  0  0
  185.7960  178.3870  141.4290 C   0  0  2  0  0  3  0  0  0  0  0  0
  186.9930  178.6300  140.5970 N   0  0  0  0  0  0  0  0  0  0  0  0
  190.3840  178.4350  144.1490 O   0  0  0  0  0  0  0  0  0  0  0  0
  189.3890  177.5350  146.7410 C   0  0  0  0  0  3  0  0  0  0  0  0
  188.6190  177.7610  145.5940 C   0  0  0  0  0  0  0  0  0  0  0  0
  187.2670  178.1100  145.7240 C   0  0  0  0  0  3  0  0  0  0  0  0
  185.3870  178.5720  147.1150 F   0  0  0  0  0  0  0  0  0  0  0  0
  187.4670  178.0100  148.1350 C   0  0  0  0  0  3  0  0  0  0  0  0
  186.6930  178.2350  146.9930 C   0  0  0  0  0  0  0  0  0  0  0  0
  188.8150  177.6600  148.0090 C   0  0  0  0  0  3  0  0  0  0  0  0
  186.4590  178.7410  139.2340 C   0  0  0  0  0  2  0  0  0  0  0  0
  184.9320  178.7590  139.2440 C   0  0  1  0  0  3  0  0  0  0  0  0
  183.0710  179.9410  139.0160 C   0  0  0  0  0  1  0  0  0  0  0  0
  184.4600  180.0630  139.0610 O   0  0  0  0  0  0  0  0  0  0  0  0
  184.3830  177.8360  138.1630 C   0  0  0  0  0  2  0  0  0  0  0  0
  185.5050  177.1950  137.3650 C   0  0  0  0  0  2  0  0  0  0  0  0
  185.3810  177.5150  136.0250 F   0  0  0  0  0  0  0  0  0  0  0  0
  191.0310  176.9270  137.9100 O   0  0  0  0  0  0  0  0  0  0  0  0
  191.7000  175.9630  137.1290 C   0  0  0  0  0  0  0  0  0  0  0  0
  192.8850  176.4740  136.6220 F   0  0  0  0  0  0  0  0  0  0  0  0
  191.9600  174.8200  137.8700 F   0  0  0  0  0  0  0  0  0  0  0  0
  190.8870  175.6170  136.0670 F   0  0  0  0  0  0  0  0  0  0  0  0
  1  4  1  0  0  0  0
  1 13  1  0  0  0  0
  3  7  1  0  0  0  0
  3  5  1  0  0  0  0
  4  6  1  0  0  0  0
  5  1  1  0  0  0  0
  6  2  1  0  0  0  0
  6 15  1  0  0  0  0
  7 10  1  0  0  0  0
  8  5  1  0  0  0  0
  8 14  1  0  0  0  0
  9 18  1  0  0  0  0
 10 13  1  0  0  0  0
 11 12  1  0  0  0  0
 12  2  1  0  0  0  0
 13  9  1  0  0  0  0
 14  4  1  0  0  0  0
 15 20  1  0  0  0  0
 16 11  1  0  0  0  0
 16 12  1  0  0  0  0
 17 14  1  0  0  0  0
 17 16  1  0  0  0  0
 18 15  1  0  0  0  0
 19 25  1  0  0  0  0
 20 21  1  0  0  0  0
 20 19  2  0  0  0  0
 21 24  2  0  0  0  0
 24 22  1  0  0  0  0
 24 23  1  0  0  0  0
 25 23  2  0  0  0  0
 26 27  1  0  0  0  0
 26 17  1  0  0  0  0
 28 29  1  0  0  0  0
 29 27  1  0  0  0  0
 30 27  1  0  0  0  0
 31 30  1  0  0  0  0
 32 31  1  0  0  0  0
 33  3  1  0  0  0  0
 34 36  1  0  0  0  0
 34 33  1  0  0  0  0
 35 34  1  0  0  0  0
 37 34  1  0  0  0  0
M  END
>  <MODEL>
4

>  <REMARK>
 VINA RESULT:      -7.9      2.382      8.591
  Name = 
  8 active torsions:
  status: ('A' for Active; 'I' for Inactive)
    1  A    between atoms: C_1  and  C_4
    2  A    between atoms: C_1  and  N_27
    3  A    between atoms: C_2  and  O_22
    4  A    between atoms: C_4  and  C_12
    5  A    between atoms: C_4  and  O_37
    6  A    between atoms: C_6  and  O_22
    7  A    between atoms: C_8  and  C_12
    8  A    between atoms: C_23  and  C_30
                            x       y       z     vdW  Elec       q    Type
                         _______ _______ _______ _____ _____    ______ ____

>  <TORSDO>
F 8

$$$$
=
 OpenBabel11122411493D

 37 42  0  0  1  0  0  0  0  0999 V2000
  189.8230  177.6850  143.0610 C   0  0  1  0  0  3  0  0  0  0  0  0
  187.3190  179.2380  141.5230 O   0  0  0  0  0  0  0  0  0  0  0  0
  190.9260  177.0560  145.3650 C   0  0  2  0  0  3  0  0  0  0  0  0
  188.3450  177.5050  142.7840 C   0  0  2  0  0  3  0  0  0  0  0  0
  189.8560  177.8470  144.5790 C   0  0  2  0  0  3  0  0  0  0  0  0
  187.8680  177.9540  141.4060 C   0  0  2  0  0  3  0  0  0  0  0  0
  191.4150  175.7940  144.6610 C   0  0  0  0  0  2  0  0  0  0  0  0
  188.4080  177.6990  145.0170 C   0  0  0  0  0  2  0  0  0  0  0  0
  190.7600  176.6800  140.9950 C   0  0  0  0  0  2  0  0  0  0  0  0
  191.7940  176.1190  143.2260 C   0  0  0  0  0  2  0  0  0  0  0  0
  185.1560  177.8890  141.7190 C   0  0  0  0  0  2  0  0  0  0  0  0
  185.9070  179.2170  141.7400 C   0  0  1  0  0  3  0  0  0  0  0  0
  190.5160  176.4520  142.4850 C   0  0  1  0  0  3  0  0  0  0  0  0
  187.6220  178.1580  143.8660 N   0  0  2  0  0  0  0  0  0  0  0  0
  188.9700  177.8920  140.3300 C   0  0  1  0  0  3  0  0  0  0  0  0
  185.4270  178.5550  143.0630 C   0  0  2  0  0  3  0  0  0  0  0  0
  186.3010  177.6440  143.8310 N   0  0  0  0  0  0  0  0  0  0  0  0
  189.5450  176.6080  140.2880 O   0  0  0  0  0  0  0  0  0  0  0  0
  189.2140  178.9940  138.1000 C   0  0  0  0  0  3  0  0  0  0  0  0
  188.4240  178.2510  138.9850 C   0  0  0  0  0  0  0  0  0  0  0  0
  187.1290  177.8680  138.6050 C   0  0  0  0  0  3  0  0  0  0  0  0
  185.3800  177.8540  136.9860 F   0  0  0  0  0  0  0  0  0  0  0  0
  187.4250  178.9660  136.4680 C   0  0  0  0  0  3  0  0  0  0  0  0
  186.6320  178.2260  137.3490 C   0  0  0  0  0  0  0  0  0  0  0  0
  188.7160  179.3510  136.8430 C   0  0  0  0  0  3  0  0  0  0  0  0
  185.7040  177.6310  145.1720 C   0  0  0  0  0  2  0  0  0  0  0  0
  185.1270  178.9990  145.5290 C   0  0  1  0  0  3  0  0  0  0  0  0
  183.0620  179.0020  144.7240 C   0  0  0  0  0  1  0  0  0  0  0  0
  183.7870  178.8770  145.9090 O   0  0  0  0  0  0  0  0  0  0  0  0
  185.9420  179.6450  146.6430 C   0  0  0  0  0  2  0  0  0  0  0  0
  186.3280  178.6270  147.7030 C   0  0  0  0  0  2  0  0  0  0  0  0
  187.6410  178.8200  148.0940 F   0  0  0  0  0  0  0  0  0  0  0  0
  190.4940  176.7530  146.6680 O   0  0  0  0  0  0  0  0  0  0  0  0
  191.6040  176.2880  147.4010 C   0  0  0  0  0  0  0  0  0  0  0  0
  192.7230  176.1800  146.5890 F   0  0  0  0  0  0  0  0  0  0  0  0
  191.8790  177.1300  148.4690 F   0  0  0  0  0  0  0  0  0  0  0  0
  191.3070  175.0350  147.9010 F   0  0  0  0  0  0  0  0  0  0  0  0
  1  5  1  0  0  0  0
  2 12  1  0  0  0  0
  3 33  1  0  0  0  0
  4  1  1  0  0  0  0
  4 14  1  0  0  0  0
  5  8  1  0  0  0  0
  5  3  1  0  0  0  0
  6  2  1  0  0  0  0
  6  4  1  0  0  0  0
  7  3  1  0  0  0  0
  9 13  1  0  0  0  0
 10  7  1  0  0  0  0
 11 12  1  0  0  0  0
 11 16  1  0  0  0  0
 12 16  1  0  0  0  0
 13  1  1  0  0  0  0
 13 10  1  0  0  0  0
 14  8  1  0  0  0  0
 15  6  1  0  0  0  0
 16 17  1  0  0  0  0
 17 14  1  0  0  0  0
 17 26  1  0  0  0  0
 18 15  1  0  0  0  0
 18  9  1  0  0  0  0
 19 20  1  0  0  0  0
 20 15  1  0  0  0  0
 21 20  2  0  0  0  0
 22 24  1  0  0  0  0
 23 25  1  0  0  0  0
 23 24  2  0  0  0  0
 24 21  1  0  0  0  0
 25 19  2  0  0  0  0
 26 27  1  0  0  0  0
 27 29  1  0  0  0  0
 27 30  1  0  0  0  0
 28 29  1  0  0  0  0
 30 31  1  0  0  0  0
 31 32  1  0  0  0  0
 33 34  1  0  0  0  0
 34 37  1  0  0  0  0
 34 36  1  0  0  0  0
 35 34  1  0  0  0  0
M  END
>  <MODEL>
5

>  <REMARK>
 VINA RESULT:      -7.8      2.662      5.764
  Name = 
  8 active torsions:
  status: ('A' for Active; 'I' for Inactive)
    1  A    between atoms: C_1  and  C_4
    2  A    between atoms: C_1  and  N_27
    3  A    between atoms: C_2  and  O_22
    4  A    between atoms: C_4  and  C_12
    5  A    between atoms: C_4  and  O_37
    6  A    between atoms: C_6  and  O_22
    7  A    between atoms: C_8  and  C_12
    8  A    between atoms: C_23  and  C_30
                            x       y       z     vdW  Elec       q    Type
                         _______ _______ _______ _____ _____    ______ ____

>  <TORSDO>
F 8

$$$$
=
 OpenBabel11122411493D

 37 42  0  0  1  0  0  0  0  0999 V2000
  188.0510  178.0810  141.8220 C   0  0  1  0  0  3  0  0  0  0  0  0
  189.2320  178.7170  138.7810 O   0  0  0  0  0  0  0  0  0  0  0  0
  186.0990  178.4760  143.5410 C   0  0  2  0  0  3  0  0  0  0  0  0
  187.8060  177.6890  140.3800 C   0  0  2  0  0  3  0  0  0  0  0  0
  186.7620  178.8150  142.1880 C   0  0  2  0  0  3  0  0  0  0  0  0
  189.0510  177.5350  139.5130 C   0  0  2  0  0  3  0  0  0  0  0  0
  186.4310  177.0840  144.0700 C   0  0  0  0  0  2  0  0  0  0  0  0
  185.8990  178.7300  140.9390 C   0  0  0  0  0  2  0  0  0  0  0  0
  189.8170  176.4390  142.4050 C   0  0  0  0  0  2  0  0  0  0  0  0
  187.9340  176.8640  144.0280 C   0  0  0  0  0  2  0  0  0  0  0  0
  187.9610  177.3760  137.0140 C   0  0  0  0  0  2  0  0  0  0  0  0
  188.6210  178.6670  137.4910 C   0  0  1  0  0  3  0  0  0  0  0  0
  188.3380  176.7820  142.5710 C   0  0  1  0  0  3  0  0  0  0  0  0
  186.8570  178.6470  139.8290 N   0  0  2  0  0  0  0  0  0  0  0  0
  190.3090  177.1550  140.3180 C   0  0  1  0  0  3  0  0  0  0  0  0
  187.0720  178.5270  137.4720 C   0  0  2  0  0  3  0  0  0  0  0  0
  186.3250  178.0540  138.6560 N   0  0  0  0  0  0  0  0  0  0  0  0
  190.0690  176.0030  141.0910 O   0  0  0  0  0  0  0  0  0  0  0  0
  192.7570  177.2970  139.8290 C   0  0  0  0  0  3  0  0  0  0  0  0
  191.4750  176.9240  139.4090 C   0  0  0  0  0  0  0  0  0  0  0  0
  191.2990  176.3570  138.1380 C   0  0  0  0  0  3  0  0  0  0  0  0
  192.2260  175.6140  136.0710 F   0  0  0  0  0  0  0  0  0  0  0  0
  193.6780  176.5350  137.7230 C   0  0  0  0  0  3  0  0  0  0  0  0
  192.4000  176.1630  137.2980 C   0  0  0  0  0  0  0  0  0  0  0  0
  193.8570  177.1020  138.9890 C   0  0  0  0  0  3  0  0  0  0  0  0
  184.9510  178.5090  138.4100 C   0  0  0  0  0  2  0  0  0  0  0  0
  184.0210  177.3260  138.1520 C   0  0  1  0  0  3  0  0  0  0  0  0
  182.6540  176.1670  139.4560 C   0  0  0  0  0  1  0  0  0  0  0  0
  182.8620  177.4410  138.9270 O   0  0  0  0  0  0  0  0  0  0  0  0
  183.6660  177.2420  136.6720 C   0  0  0  0  0  2  0  0  0  0  0  0
  184.4930  176.1790  135.9690 C   0  0  0  0  0  2  0  0  0  0  0  0
  185.1860  175.4220  136.8960 F   0  0  0  0  0  0  0  0  0  0  0  0
  184.7060  178.6620  143.4970 O   0  0  0  0  0  0  0  0  0  0  0  0
  184.3190  179.3620  144.6580 C   0  0  0  0  0  0  0  0  0  0  0  0
  183.5380  178.5620  145.4780 F   0  0  0  0  0  0  0  0  0  0  0  0
  185.4290  179.8100  145.3580 F   0  0  0  0  0  0  0  0  0  0  0  0
  183.5710  180.4600  144.2810 F   0  0  0  0  0  0  0  0  0  0  0  0
  1  5  1  0  0  0  0
  1 13  1  0  0  0  0
  2  6  1  0  0  0  0
  3  7  1  0  0  0  0
  4  1  1  0  0  0  0
  5  3  1  0  0  0  0
  6 15  1  0  0  0  0
  6  4  1  0  0  0  0
  8  5  1  0  0  0  0
  9 13  1  0  0  0  0
 10  7  1  0  0  0  0
 11 16  1  0  0  0  0
 11 12  1  0  0  0  0
 12  2  1  0  0  0  0
 13 10  1  0  0  0  0
 14  4  1  0  0  0  0
 14  8  1  0  0  0  0
 15 18  1  0  0  0  0
 16 12  1  0  0  0  0
 16 17  1  0  0  0  0
 17 14  1  0  0  0  0
 18  9  1  0  0  0  0
 20 19  1  0  0  0  0
 20 15  1  0  0  0  0
 21 20  2  0  0  0  0
 22 24  1  0  0  0  0
 23 25  1  0  0  0  0
 24 23  2  0  0  0  0
 24 21  1  0  0  0  0
 25 19  2  0  0  0  0
 26 17  1  0  0  0  0
 27 26  1  0  0  0  0
 27 29  1  0  0  0  0
 29 28  1  0  0  0  0
 30 27  1  0  0  0  0
 31 30  1  0  0  0  0
 31 32  1  0  0  0  0
 33  3  1  0  0  0  0
 33 34  1  0  0  0  0
 34 36  1  0  0  0  0
 34 35  1  0  0  0  0
 37 34  1  0  0  0  0
M  END
>  <MODEL>
6

>  <REMARK>
 VINA RESULT:      -7.5      2.712      6.055
  Name = 
  8 active torsions:
  status: ('A' for Active; 'I' for Inactive)
    1  A    between atoms: C_1  and  C_4
    2  A    between atoms: C_1  and  N_27
    3  A    between atoms: C_2  and  O_22
    4  A    between atoms: C_4  and  C_12
    5  A    between atoms: C_4  and  O_37
    6  A    between atoms: C_6  and  O_22
    7  A    between atoms: C_8  and  C_12
    8  A    between atoms: C_23  and  C_30
                            x       y       z     vdW  Elec       q    Type
                         _______ _______ _______ _____ _____    ______ ____

>  <TORSDO>
F 8

$$$$
=
 OpenBabel11122411493D

 37 42  0  0  1  0  0  0  0  0999 V2000
  184.5500  178.5070  139.4070 C   0  0  1  0  0  3  0  0  0  0  0  0
  183.8340  179.8000  142.3840 O   0  0  0  0  0  0  0  0  0  0  0  0
  186.4340  177.9410  137.6610 C   0  0  2  0  0  3  0  0  0  0  0  0
  184.6660  178.1610  140.8780 C   0  0  2  0  0  3  0  0  0  0  0  0
  186.0120  178.6230  138.9810 C   0  0  2  0  0  3  0  0  0  0  0  0
  183.4950  178.5940  141.7550 C   0  0  2  0  0  3  0  0  0  0  0  0
  185.5480  176.7680  137.2510 C   0  0  0  0  0  2  0  0  0  0  0  0
  186.8100  178.2910  140.2320 C   0  0  0  0  0  2  0  0  0  0  0  0
  182.2520  177.6850  138.9660 C   0  0  0  0  0  2  0  0  0  0  0  0
  184.0880  177.1810  137.3120 C   0  0  0  0  0  2  0  0  0  0  0  0
  184.5130  178.1980  144.2570 C   0  0  0  0  0  2  0  0  0  0  0  0
  184.4170  179.6040  143.6740 C   0  0  1  0  0  3  0  0  0  0  0  0
  183.7350  177.3830  138.7710 C   0  0  1  0  0  3  0  0  0  0  0  0
  185.9390  178.6900  141.3450 N   0  0  2  0  0  0  0  0  0  0  0  0
  182.1630  178.6970  140.9860 C   0  0  1  0  0  3  0  0  0  0  0  0
  185.7760  178.8490  143.7050 C   0  0  2  0  0  3  0  0  0  0  0  0
  186.2250  178.0240  142.5640 N   0  0  0  0  0  0  0  0  0  0  0  0
  181.8900  177.4920  140.3120 O   0  0  0  0  0  0  0  0  0  0  0  0
  180.2320  180.1430  141.6390 C   0  0  0  0  0  3  0  0  0  0  0  0
  181.0360  179.0310  141.9110 C   0  0  0  0  0  0  0  0  0  0  0  0
  180.7870  178.2570  143.0540 C   0  0  0  0  0  3  0  0  0  0  0  0
  179.4990  177.8430  145.0170 F   0  0  0  0  0  0  0  0  0  0  0  0
  178.9360  179.7050  143.6360 C   0  0  0  0  0  3  0  0  0  0  0  0
  179.7370  178.5940  143.9140 C   0  0  0  0  0  0  0  0  0  0  0  0
  179.1820  180.4790  142.4990 C   0  0  0  0  0  3  0  0  0  0  0  0
  187.6730  177.8980  142.7700 C   0  0  0  0  0  2  0  0  0  0  0  0
  187.9970  176.7140  143.6780 C   0  0  1  0  0  3  0  0  0  0  0  0
  189.9160  176.0040  142.8270 C   0  0  0  0  0  1  0  0  0  0  0  0
  188.5660  175.6730  142.9350 O   0  0  0  0  0  0  0  0  0  0  0  0
  188.9360  177.1440  144.7990 C   0  0  0  0  0  2  0  0  0  0  0  0
  188.1620  177.4990  146.0570 C   0  0  0  0  0  2  0  0  0  0  0  0
  188.7190  176.8660  147.1540 F   0  0  0  0  0  0  0  0  0  0  0  0
  187.7830  177.5470  137.6880 O   0  0  0  0  0  0  0  0  0  0  0  0
  188.5190  178.4420  136.8850 C   0  0  0  0  0  0  0  0  0  0  0  0
  189.4050  177.7560  136.0670 F   0  0  0  0  0  0  0  0  0  0  0  0
  187.6720  179.2210  136.1100 F   0  0  0  0  0  0  0  0  0  0  0  0
  189.2460  179.2780  137.7090 F   0  0  0  0  0  0  0  0  0  0  0  0
  1  4  1  0  0  0  0
  2 12  1  0  0  0  0
  3 33  1  0  0  0  0
  3  5  1  0  0  0  0
  4 14  1  0  0  0  0
  4  6  1  0  0  0  0
  5  1  1  0  0  0  0
  5  8  1  0  0  0  0
  6  2  1  0  0  0  0
  7 10  1  0  0  0  0
  7  3  1  0  0  0  0
  8 14  1  0  0  0  0
  9 18  1  0  0  0  0
 10 13  1  0  0  0  0
 12 16  1  0  0  0  0
 12 11  1  0  0  0  0
 13  9  1  0  0  0  0
 13  1  1  0  0  0  0
 14 17  1  0  0  0  0
 15  6  1  0  0  0  0
 15 20  1  0  0  0  0
 16 11  1  0  0  0  0
 17 26  1  0  0  0  0
 17 16  1  0  0  0  0
 18 15  1  0  0  0  0
 19 20  2  0  0  0  0
 19 25  1  0  0  0  0
 20 21  1  0  0  0  0
 21 24  2  0  0  0  0
 23 24  1  0  0  0  0
 24 22  1  0  0  0  0
 25 23  2  0  0  0  0
 26 27  1  0  0  0  0
 27 30  1  0  0  0  0
 28 29  1  0  0  0  0
 29 27  1  0  0  0  0
 30 31  1  0  0  0  0
 31 32  1  0  0  0  0
 34 33  1  0  0  0  0
 34 37  1  0  0  0  0
 35 34  1  0  0  0  0
 36 34  1  0  0  0  0
M  END
>  <MODEL>
7

>  <REMARK>
 VINA RESULT:      -7.4      3.317      8.093
  Name = 
  8 active torsions:
  status: ('A' for Active; 'I' for Inactive)
    1  A    between atoms: C_1  and  C_4
    2  A    between atoms: C_1  and  N_27
    3  A    between atoms: C_2  and  O_22
    4  A    between atoms: C_4  and  C_12
    5  A    between atoms: C_4  and  O_37
    6  A    between atoms: C_6  and  O_22
    7  A    between atoms: C_8  and  C_12
    8  A    between atoms: C_23  and  C_30
                            x       y       z     vdW  Elec       q    Type
                         _______ _______ _______ _____ _____    ______ ____

>  <TORSDO>
F 8

$$$$
=
 OpenBabel11122411493D

 37 42  0  0  1  0  0  0  0  0999 V2000
  188.1220  177.3720  145.9030 C   0  0  1  0  0  3  0  0  0  0  0  0
  186.7370  177.1640  142.8890 O   0  0  0  0  0  0  0  0  0  0  0  0
  190.2520  176.8990  147.3730 C   0  0  2  0  0  3  0  0  0  0  0  0
  188.1940  178.0430  144.5480 C   0  0  2  0  0  3  0  0  0  0  0  0
  189.5050  176.7370  146.0300 C   0  0  2  0  0  3  0  0  0  0  0  0
  186.8650  178.2080  143.8170 C   0  0  2  0  0  3  0  0  0  0  0  0
  189.8320  178.1250  148.1780 C   0  0  0  0  0  2  0  0  0  0  0  0
  190.2370  177.1440  144.7630 C   0  0  0  0  0  2  0  0  0  0  0  0
  186.2610  178.6680  146.9110 C   0  0  0  0  0  2  0  0  0  0  0  0
  188.3170  178.1760  148.2860 C   0  0  0  0  0  2  0  0  0  0  0  0
  187.7010  178.9400  141.3220 C   0  0  0  0  0  2  0  0  0  0  0  0
  187.2200  177.5170  141.5910 C   0  0  1  0  0  3  0  0  0  0  0  0
  187.7760  178.4720  146.9040 C   0  0  1  0  0  3  0  0  0  0  0  0
  189.1790  177.3160  143.7590 N   0  0  2  0  0  0  0  0  0  0  0  0
  185.6540  178.2900  144.7660 C   0  0  1  0  0  3  0  0  0  0  0  0
  188.7390  177.8350  141.4890 C   0  0  2  0  0  3  0  0  0  0  0  0
  189.5390  178.1690  142.6850 N   0  0  0  0  0  0  0  0  0  0  0  0
  185.8480  179.3020  145.7250 O   0  0  0  0  0  0  0  0  0  0  0  0
  183.1950  178.7360  144.7010 C   0  0  0  0  0  3  0  0  0  0  0  0
  184.3930  178.5450  144.0030 C   0  0  0  0  0  0  0  0  0  0  0  0
  184.3920  178.5790  142.6000 C   0  0  0  0  0  3  0  0  0  0  0  0
  183.2030  178.8370  140.5510 F   0  0  0  0  0  0  0  0  0  0  0  0
  182.0070  178.9970  142.6070 C   0  0  0  0  0  3  0  0  0  0  0  0
  183.2000  178.8050  141.9050 C   0  0  0  0  0  0  0  0  0  0  0  0
  182.0040  178.9630  144.0050 C   0  0  0  0  0  3  0  0  0  0  0  0
  190.9240  177.9270  142.2610 C   0  0  0  0  0  2  0  0  0  0  0  0
  191.0130  177.7690  140.7450 C   0  0  1  0  0  3  0  0  0  0  0  0
  193.1040  177.1140  141.0760 C   0  0  0  0  0  1  0  0  0  0  0  0
  192.3250  177.9820  140.3100 O   0  0  0  0  0  0  0  0  0  0  0  0
  190.5300  176.3850  140.3250 C   0  0  0  0  0  2  0  0  0  0  0  0
  190.4890  176.2530  138.8120 C   0  0  0  0  0  2  0  0  0  0  0  0
  189.6260  177.1910  138.2750 F   0  0  0  0  0  0  0  0  0  0  0  0
  191.6460  176.8850  147.1950 O   0  0  0  0  0  0  0  0  0  0  0  0
  192.1110  175.5840  147.4730 C   0  0  0  0  0  0  0  0  0  0  0  0
  192.4730  174.9300  146.3050 F   0  0  0  0  0  0  0  0  0  0  0  0
  193.1900  175.6200  148.3440 F   0  0  0  0  0  0  0  0  0  0  0  0
  191.0920  174.8710  148.0730 F   0  0  0  0  0  0  0  0  0  0  0  0
  1  5  1  0  0  0  0
  1 13  1  0  0  0  0
  2  6  1  0  0  0  0
  3  7  1  0  0  0  0
  4  1  1  0  0  0  0
  5  3  1  0  0  0  0
  6  4  1  0  0  0  0
  6 15  1  0  0  0  0
  7 10  1  0  0  0  0
  8  5  1  0  0  0  0
 11 16  1  0  0  0  0
 11 12  1  0  0  0  0
 12  2  1  0  0  0  0
 13  9  1  0  0  0  0
 13 10  1  0  0  0  0
 14  4  1  0  0  0  0
 14  8  1  0  0  0  0
 15 18  1  0  0  0  0
 16 12  1  0  0  0  0
 16 17  1  0  0  0  0
 17 14  1  0  0  0  0
 18  9  1  0  0  0  0
 20 19  2  0  0  0  0
 20 15  1  0  0  0  0
 21 20  1  0  0  0  0
 22 24  1  0  0  0  0
 23 25  2  0  0  0  0
 24 21  2  0  0  0  0
 24 23  1  0  0  0  0
 25 19  1  0  0  0  0
 26 17  1  0  0  0  0
 27 26  1  0  0  0  0
 29 27  1  0  0  0  0
 29 28  1  0  0  0  0
 30 27  1  0  0  0  0
 31 30  1  0  0  0  0
 32 31  1  0  0  0  0
 33  3  1  0  0  0  0
 33 34  1  0  0  0  0
 34 37  1  0  0  0  0
 34 36  1  0  0  0  0
 35 34  1  0  0  0  0
M  END
>  <MODEL>
8

>  <REMARK>
 VINA RESULT:      -7.4      2.172      7.577
  Name = 
  8 active torsions:
  status: ('A' for Active; 'I' for Inactive)
    1  A    between atoms: C_1  and  C_4
    2  A    between atoms: C_1  and  N_27
    3  A    between atoms: C_2  and  O_22
    4  A    between atoms: C_4  and  C_12
    5  A    between atoms: C_4  and  O_37
    6  A    between atoms: C_6  and  O_22
    7  A    between atoms: C_8  and  C_12
    8  A    between atoms: C_23  and  C_30
                            x       y       z     vdW  Elec       q    Type
                         _______ _______ _______ _____ _____    ______ ____

>  <TORSDO>
F 8

$$$$
=
 OpenBabel11122411493D

 37 42  0  0  1  0  0  0  0  0999 V2000
  187.2150  177.5310  141.9540 C   0  0  1  0  0  3  0  0  0  0  0  0
  190.1520  176.0490  142.4300 O   0  0  0  0  0  0  0  0  0  0  0  0
  184.8740  178.1370  142.9890 C   0  0  2  0  0  3  0  0  0  0  0  0
  188.5200  177.7560  142.6900 C   0  0  2  0  0  3  0  0  0  0  0  0
  186.2140  177.3770  143.0970 C   0  0  2  0  0  3  0  0  0  0  0  0
  189.7810  177.3150  141.9550 C   0  0  2  0  0  3  0  0  0  0  0  0
  184.9290  179.3800  142.1050 C   0  0  0  0  0  2  0  0  0  0  0  0
  187.0350  177.5720  144.3610 C   0  0  0  0  0  2  0  0  0  0  0  0
  187.8110  178.4960  139.7470 C   0  0  0  0  0  2  0  0  0  0  0  0
  185.5710  179.0350  140.7720 C   0  0  0  0  0  2  0  0  0  0  0  0
  191.6500  177.4670  143.9400 C   0  0  0  0  0  2  0  0  0  0  0  0
  191.0910  176.1160  143.5050 C   0  0  1  0  0  3  0  0  0  0  0  0
  187.0320  178.7390  141.0370 C   0  0  1  0  0  3  0  0  0  0  0  0
  188.3880  177.1320  143.9990 N   0  0  2  0  0  0  0  0  0  0  0  0
  189.6320  177.3370  140.4220 C   0  0  1  0  0  3  0  0  0  0  0  0
  190.5910  176.7990  144.8100 C   0  0  2  0  0  3  0  0  0  0  0  0
  189.4090  177.6870  144.8110 N   0  0  0  0  0  0  0  0  0  0  0  0
  189.1940  178.6020  139.9880 O   0  0  0  0  0  0  0  0  0  0  0  0
  190.9070  176.2130  138.5880 C   0  0  0  0  0  3  0  0  0  0  0  0
  190.9240  176.9880  139.7540 C   0  0  0  0  0  0  0  0  0  0  0  0
  192.1510  177.4120  140.2870 C   0  0  0  0  0  3  0  0  0  0  0  0
  194.5310  177.4750  140.1740 F   0  0  0  0  0  0  0  0  0  0  0  0
  193.3250  176.2900  138.4920 C   0  0  0  0  0  3  0  0  0  0  0  0
  193.3480  177.0630  139.6560 C   0  0  0  0  0  0  0  0  0  0  0  0
  192.1050  175.8650  137.9580 C   0  0  0  0  0  3  0  0  0  0  0  0
  189.0000  177.7260  146.2210 C   0  0  0  0  0  2  0  0  0  0  0  0
  190.2090  177.6130  147.1460 C   0  0  1  0  0  3  0  0  0  0  0  0
  188.5570  178.2540  148.4770 C   0  0  0  0  0  1  0  0  0  0  0  0
  189.9480  178.2450  148.3660 O   0  0  0  0  0  0  0  0  0  0  0  0
  190.5740  176.1500  147.3690 C   0  0  0  0  0  2  0  0  0  0  0  0
  192.0680  175.9830  147.5870 C   0  0  0  0  0  2  0  0  0  0  0  0
  192.5420  174.9170  146.8450 F   0  0  0  0  0  0  0  0  0  0  0  0
  184.3580  178.4610  144.2550 O   0  0  0  0  0  0  0  0  0  0  0  0
  183.0660  178.9980  144.0790 C   0  0  0  0  0  0  0  0  0  0  0  0
  182.5400  178.6240  142.8520 F   0  0  0  0  0  0  0  0  0  0  0  0
  182.2180  178.5890  145.0980 F   0  0  0  0  0  0  0  0  0  0  0  0
  183.1540  180.3750  144.1140 F   0  0  0  0  0  0  0  0  0  0  0  0
  1  4  1  0  0  0  0
  1  5  1  0  0  0  0
  2 12  1  0  0  0  0
  3  5  1  0  0  0  0
  3 33  1  0  0  0  0
  4 14  1  0  0  0  0
  5  8  1  0  0  0  0
  6  2  1  0  0  0  0
  6  4  1  0  0  0  0
  7  3  1  0  0  0  0
  9 18  1  0  0  0  0
  9 13  1  0  0  0  0
 10 13  1  0  0  0  0
 10  7  1  0  0  0  0
 11 16  1  0  0  0  0
 12 11  1  0  0  0  0
 12 16  1  0  0  0  0
 13  1  1  0  0  0  0
 14  8  1  0  0  0  0
 14 17  1  0  0  0  0
 15  6  1  0  0  0  0
 16 17  1  0  0  0  0
 17 26  1  0  0  0  0
 18 15  1  0  0  0  0
 19 20  1  0  0  0  0
 20 21  2  0  0  0  0
 20 15  1  0  0  0  0
 23 24  2  0  0  0  0
 24 22  1  0  0  0  0
 24 21  1  0  0  0  0
 25 23  1  0  0  0  0
 25 19  2  0  0  0  0
 26 27  1  0  0  0  0
 27 30  1  0  0  0  0
 27 29  1  0  0  0  0
 29 28  1  0  0  0  0
 30 31  1  0  0  0  0
 32 31  1  0  0  0  0
 34 37  1  0  0  0  0
 34 33  1  0  0  0  0
 34 36  1  0  0  0  0
 35 34  1  0  0  0  0
M  END
>  <MODEL>
9

>  <REMARK>
 VINA RESULT:      -7.3      1.520      2.036
  Name = 
  8 active torsions:
  status: ('A' for Active; 'I' for Inactive)
    1  A    between atoms: C_1  and  C_4
    2  A    between atoms: C_1  and  N_27
    3  A    between atoms: C_2  and  O_22
    4  A    between atoms: C_4  and  C_12
    5  A    between atoms: C_4  and  O_37
    6  A    between atoms: C_6  and  O_22
    7  A    between atoms: C_8  and  C_12
    8  A    between atoms: C_23  and  C_30
                            x       y       z     vdW  Elec       q    Type
                         _______ _______ _______ _____ _____    ______ ____

>  <TORSDO>
F 8

$$$$
