=
 OpenBabel11122412233D

 34 40  0  0  1  0  0  0  0  0999 V2000
  188.0920  177.9030  140.0590 C   0  0  0  0  0  0  0  0  0  0  0  0
  186.0090  178.2100  138.6510 C   0  0  0  0  0  2  0  0  0  0  0  0
  191.3340  177.0090  145.7260 C   0  0  1  0  0  3  0  0  0  0  0  0
  189.8540  177.2190  141.5500 C   0  0  0  0  0  0  0  0  0  0  0  0
  189.5460  177.7080  144.0220 C   0  0  2  0  0  3  0  0  0  0  0  0
  189.3200  178.1830  146.3480 O   0  0  0  0  0  1  0  0  0  0  0  0
  191.6070  177.1290  147.0910 O   0  0  0  0  0  1  0  0  0  0  0  0
  191.8030  175.5010  143.7560 C   0  0  0  0  0  2  0  0  0  0  0  0
  186.0060  179.0240  140.9360 C   0  0  2  0  0  3  0  0  0  0  0  0
  183.2080  178.6430  142.5190 C   0  0  0  0  0  2  0  0  0  0  0  0
  188.1200  177.5390  143.7390 N   0  0  0  0  0  2  0  0  0  0  0  0
  190.5250  175.6420  143.2040 O   0  0  0  0  0  0  0  0  0  0  0  0
  186.2930  178.2910  142.2620 C   0  0  1  0  0  3  0  0  0  0  0  0
  184.6190  178.7490  138.9420 C   0  0  0  0  0  2  0  0  0  0  0  0
  190.4030  177.0100  142.9370 C   0  0  1  0  0  3  0  0  0  0  0  0
  191.7400  175.6090  145.2760 C   0  0  0  0  0  2  0  0  0  0  0  0
  183.6120  178.0590  141.1700 C   0  0  2  0  0  3  0  0  0  0  0  0
  188.5860  177.7840  141.3620 C   0  0  0  0  0  0  0  0  0  0  0  0
  189.8390  177.2420  145.4570 C   0  0  2  0  0  3  0  0  0  0  0  0
  187.8030  178.3140  142.5400 C   0  0  2  0  0  3  0  0  0  0  0  0
  190.0670  176.9180  139.2120 C   0  0  0  0  0  3  0  0  0  0  0  0
  184.1990  178.2700  143.6120 C   0  0  0  0  0  2  0  0  0  0  0  0
  190.5660  176.7970  140.4720 N   0  0  0  0  0  0  0  0  0  0  0  0
  185.5430  178.9520  143.4080 C   0  0  0  0  0  2  0  0  0  0  0  0
  184.5480  179.0420  140.4450 C   0  0  1  0  0  3  0  0  0  0  0  0
  188.8370  177.4610  139.0120 N   0  0  0  0  0  0  0  0  0  0  0  0
  186.7790  178.4370  139.8540 N   0  0  0  0  0  0  0  0  0  0  0  0
  182.4520  177.8430  140.4200 O   0  0  0  0  0  0  0  0  0  0  0  0
  181.5770  178.8580  140.8150 C   0  0  0  0  0  2  0  0  0  0  0  0
  181.2820  180.4850  137.5850 C   0  0  0  0  0  2  0  0  0  0  0  0
  180.8150  178.3440  138.5570 N   0  0  0  0  0  2  0  0  0  0  0  0
  180.7630  179.3300  139.6250 C   0  0  2  0  0  3  0  0  0  0  0  0
  180.7120  179.1090  137.3240 C   0  0  0  0  0  2  0  0  0  0  0  0
  181.3420  180.6190  139.0870 C   0  0  0  0  0  2  0  0  0  0  0  0
  1 18  1  0  0  0  0
  2 14  1  0  0  0  0
  2 27  1  0  0  0  0
  3  7  1  1  0  0  0
  5 11  1  6  0  0  0
  5 19  1  0  0  0  0
  8 16  1  0  0  0  0
  9 27  1  6  0  0  0
  9 13  1  0  0  0  0
 10 22  1  0  0  0  0
 12  8  1  0  0  0  0
 13 20  1  0  0  0  0
 13 24  1  1  0  0  0
 15  4  1  6  0  0  0
 15 12  1  0  0  0  0
 15  5  1  0  0  0  0
 16  3  1  0  0  0  0
 17 28  1  6  0  0  0
 17 10  1  0  0  0  0
 18  4  2  0  0  0  0
 19  3  1  0  0  0  0
 19  6  1  1  0  0  0
 20 18  1  6  0  0  0
 20 11  1  0  0  0  0
 21 23  2  0  0  0  0
 23  4  1  0  0  0  0
 24 22  1  0  0  0  0
 25 14  1  6  0  0  0
 25  9  1  0  0  0  0
 25 17  1  0  0  0  0
 26 21  1  0  0  0  0
 26  1  2  0  0  0  0
 27  1  1  0  0  0  0
 28 29  1  0  0  0  0
 30 34  1  0  0  0  0
 31 32  1  0  0  0  0
 32 29  1  1  0  0  0
 33 30  1  0  0  0  0
 33 31  1  0  0  0  0
 34 32  1  0  0  0  0
M  END
>  <MODEL>
1

>  <REMARK>
 VINA RESULT:      -9.2      0.000      0.000
  Name = 
  3 active torsions:
  status: ('A' for Active; 'I' for Inactive)
    1  A    between atoms: C_17  and  O_28
    2  A    between atoms: O_28  and  C_29
    3  A    between atoms: C_29  and  C_32
                            x       y       z     vdW  Elec       q    Type
                         _______ _______ _______ _____ _____    ______ ____

>  <TORSDO>
F 3

$$$$
=
 OpenBabel11122412233D

 34 40  0  0  1  0  0  0  0  0999 V2000
  188.2960  177.9170  138.3000 C   0  0  0  0  0  0  0  0  0  0  0  0
  186.6340  178.4660  140.1310 C   0  0  0  0  0  2  0  0  0  0  0  0
  193.7770  175.1470  135.9090 C   0  0  1  0  0  3  0  0  0  0  0  0
  189.7990  176.9460  136.6880 C   0  0  0  0  0  0  0  0  0  0  0  0
  192.0860  176.2220  137.5140 C   0  0  2  0  0  3  0  0  0  0  0  0
  194.2630  175.5650  138.2350 O   0  0  0  0  0  1  0  0  0  0  0  0
  195.0960  174.6900  135.9040 O   0  0  0  0  0  1  0  0  0  0  0  0
  191.5680  174.7770  134.7430 C   0  0  0  0  0  2  0  0  0  0  0  0
  188.9670  178.1620  140.7220 C   0  0  2  0  0  3  0  0  0  0  0  0
  189.4770  176.6540  143.5400 C   0  0  0  0  0  2  0  0  0  0  0  0
  191.3980  175.9610  138.7790 N   0  0  0  0  0  2  0  0  0  0  0  0
  190.8030  174.9340  135.9040 O   0  0  0  0  0  0  0  0  0  0  0  0
  189.9190  176.9750  140.4720 C   0  0  1  0  0  3  0  0  0  0  0  0
  186.7410  178.5780  141.6420 C   0  0  0  0  0  2  0  0  0  0  0  0
  191.0790  176.2350  136.3380 C   0  0  1  0  0  3  0  0  0  0  0  0
  192.9310  174.1840  135.0800 C   0  0  0  0  0  2  0  0  0  0  0  0
  188.1640  176.8100  142.7810 C   0  0  2  0  0  3  0  0  0  0  0  0
  189.5250  177.3140  138.0110 C   0  0  0  0  0  0  0  0  0  0  0  0
  193.2410  175.2220  137.3470 C   0  0  2  0  0  3  0  0  0  0  0  0
  190.5670  177.1250  139.0880 C   0  0  2  0  0  3  0  0  0  0  0  0
  187.6770  177.7590  136.0230 C   0  0  0  0  0  3  0  0  0  0  0  0
  190.5500  176.0050  142.6780 C   0  0  0  0  0  2  0  0  0  0  0  0
  188.8680  177.1750  135.7240 N   0  0  0  0  0  0  0  0  0  0  0  0
  190.9930  176.9200  141.5470 C   0  0  0  0  0  2  0  0  0  0  0  0
  188.1610  178.1540  142.0320 C   0  0  1  0  0  3  0  0  0  0  0  0
  187.3940  178.1200  137.3030 N   0  0  0  0  0  0  0  0  0  0  0  0
  187.9840  178.2580  139.6550 N   0  0  0  0  0  0  0  0  0  0  0  0
  187.1150  176.7600  143.7040 O   0  0  0  0  0  0  0  0  0  0  0  0
  187.6890  177.1500  144.9170 C   0  0  0  0  0  2  0  0  0  0  0  0
  184.5660  178.5890  146.0770 C   0  0  0  0  0  2  0  0  0  0  0  0
  186.7350  178.0780  146.9600 N   0  0  0  0  0  2  0  0  0  0  0  0
  186.8830  178.2810  145.5280 C   0  0  2  0  0  3  0  0  0  0  0  0
  185.4510  178.6700  147.3000 C   0  0  0  0  0  2  0  0  0  0  0  0
  185.4970  178.3070  144.9230 C   0  0  0  0  0  2  0  0  0  0  0  0
  1 27  1  0  0  0  0
  2 14  1  0  0  0  0
  3  7  1  1  0  0  0
  3 19  1  0  0  0  0
  4 18  2  0  0  0  0
  5 11  1  1  0  0  0
  8 16  1  0  0  0  0
  8 12  1  0  0  0  0
  9 27  1  6  0  0  0
  9 25  1  0  0  0  0
 11 20  1  0  0  0  0
 13  9  1  0  0  0  0
 13 24  1  1  0  0  0
 15 12  1  1  0  0  0
 15  4  1  0  0  0  0
 15  5  1  0  0  0  0
 16  3  1  0  0  0  0
 17 10  1  0  0  0  0
 17 28  1  1  0  0  0
 18  1  1  0  0  0  0
 19  5  1  0  0  0  0
 19  6  1  1  0  0  0
 20 18  1  6  0  0  0
 20 13  1  0  0  0  0
 21 26  1  0  0  0  0
 22 10  1  0  0  0  0
 23 21  2  0  0  0  0
 23  4  1  0  0  0  0
 24 22  1  0  0  0  0
 25 14  1  6  0  0  0
 25 17  1  0  0  0  0
 26  1  2  0  0  0  0
 27  2  1  0  0  0  0
 28 29  1  0  0  0  0
 30 33  1  0  0  0  0
 31 33  1  0  0  0  0
 32 29  1  6  0  0  0
 32 31  1  0  0  0  0
 34 32  1  0  0  0  0
 34 30  1  0  0  0  0
M  END
>  <MODEL>
2

>  <REMARK>
 VINA RESULT:      -8.9      3.465      6.987
  Name = 
  3 active torsions:
  status: ('A' for Active; 'I' for Inactive)
    1  A    between atoms: C_17  and  O_28
    2  A    between atoms: O_28  and  C_29
    3  A    between atoms: C_29  and  C_32
                            x       y       z     vdW  Elec       q    Type
                         _______ _______ _______ _____ _____    ______ ____

>  <TORSDO>
F 3

$$$$
=
 OpenBabel11122412233D

 34 40  0  0  1  0  0  0  0  0999 V2000
  188.2870  177.8840  139.9820 C   0  0  0  0  0  0  0  0  0  0  0  0
  186.2590  178.1880  138.4960 C   0  0  0  0  0  2  0  0  0  0  0  0
  191.3120  176.9970  145.7700 C   0  0  1  0  0  3  0  0  0  0  0  0
  189.9920  177.2030  141.5400 C   0  0  0  0  0  0  0  0  0  0  0  0
  189.5890  177.6930  143.9980 C   0  0  2  0  0  3  0  0  0  0  0  0
  189.2740  178.1690  146.3140 O   0  0  0  0  0  1  0  0  0  0  0  0
  191.5320  177.1190  147.1430 O   0  0  0  0  0  1  0  0  0  0  0  0
  191.8570  175.4880  143.8200 C   0  0  0  0  0  2  0  0  0  0  0  0
  186.1680  179.0030  140.7790 C   0  0  2  0  0  3  0  0  0  0  0  0
  183.3120  178.6200  142.2530 C   0  0  0  0  0  2  0  0  0  0  0  0
  188.1750  177.5220  143.6610 N   0  0  0  0  0  2  0  0  0  0  0  0
  190.6010  175.6270  143.2190 O   0  0  0  0  0  0  0  0  0  0  0  0
  186.4050  178.2710  142.1150 C   0  0  1  0  0  3  0  0  0  0  0  0
  184.8580  178.7250  138.7330 C   0  0  0  0  0  2  0  0  0  0  0  0
  190.4870  176.9950  142.9470 C   0  0  1  0  0  3  0  0  0  0  0  0
  191.7360  175.5970  145.3360 C   0  0  0  0  0  2  0  0  0  0  0  0
  183.7680  178.0350  140.9210 C   0  0  2  0  0  3  0  0  0  0  0  0
  188.7310  177.7660  141.3030 C   0  0  0  0  0  0  0  0  0  0  0  0
  189.8280  177.2290  145.4430 C   0  0  2  0  0  3  0  0  0  0  0  0
  187.9040  178.2960  142.4500 C   0  0  2  0  0  3  0  0  0  0  0  0
  190.2950  176.9000  139.2120 C   0  0  0  0  0  3  0  0  0  0  0  0
  184.2610  178.2490  143.3830 C   0  0  0  0  0  2  0  0  0  0  0  0
  190.7440  176.7810  140.4900 N   0  0  0  0  0  0  0  0  0  0  0  0
  185.6110  178.9320  143.2310 C   0  0  0  0  0  2  0  0  0  0  0  0
  184.7300  179.0190  140.2320 C   0  0  1  0  0  3  0  0  0  0  0  0
  189.0720  177.4420  138.9640 N   0  0  0  0  0  0  0  0  0  0  0  0
  186.9820  178.4160  139.7270 N   0  0  0  0  0  0  0  0  0  0  0  0
  182.6370  177.8180  140.1280 O   0  0  0  0  0  0  0  0  0  0  0  0
  182.5190  176.4280  140.0490 C   0  0  0  0  0  2  0  0  0  0  0  0
  182.8930  174.2040  137.2050 C   0  0  0  0  0  2  0  0  0  0  0  0
  181.1320  175.0400  138.6020 N   0  0  0  0  0  2  0  0  0  0  0  0
  182.2080  176.0180  138.6210 C   0  0  2  0  0  3  0  0  0  0  0  0
  181.3990  174.2000  137.4450 C   0  0  0  0  0  2  0  0  0  0  0  0
  183.4240  175.3740  137.9960 C   0  0  0  0  0  2  0  0  0  0  0  0
  1 18  1  0  0  0  0
  2 14  1  0  0  0  0
  2 27  1  0  0  0  0
  3  7  1  1  0  0  0
  5 11  1  6  0  0  0
  5 19  1  0  0  0  0
  8 16  1  0  0  0  0
  9 27  1  6  0  0  0
  9 13  1  0  0  0  0
 10 22  1  0  0  0  0
 12  8  1  0  0  0  0
 13 20  1  0  0  0  0
 13 24  1  1  0  0  0
 15  4  1  6  0  0  0
 15 12  1  0  0  0  0
 15  5  1  0  0  0  0
 16  3  1  0  0  0  0
 17 28  1  6  0  0  0
 17 10  1  0  0  0  0
 18  4  2  0  0  0  0
 19  3  1  0  0  0  0
 19  6  1  1  0  0  0
 20 18  1  6  0  0  0
 20 11  1  0  0  0  0
 21 23  2  0  0  0  0
 23  4  1  0  0  0  0
 24 22  1  0  0  0  0
 25 14  1  6  0  0  0
 25  9  1  0  0  0  0
 25 17  1  0  0  0  0
 26 21  1  0  0  0  0
 26  1  2  0  0  0  0
 27  1  1  0  0  0  0
 29 28  1  0  0  0  0
 30 33  1  0  0  0  0
 30 34  1  0  0  0  0
 31 32  1  0  0  0  0
 32 29  1  1  0  0  0
 33 31  1  0  0  0  0
 34 32  1  0  0  0  0
M  END
>  <MODEL>
3

>  <REMARK>
 VINA RESULT:      -8.7      1.670      1.980
  Name = 
  3 active torsions:
  status: ('A' for Active; 'I' for Inactive)
    1  A    between atoms: C_17  and  O_28
    2  A    between atoms: O_28  and  C_29
    3  A    between atoms: C_29  and  C_32
                            x       y       z     vdW  Elec       q    Type
                         _______ _______ _______ _____ _____    ______ ____

>  <TORSDO>
F 3

$$$$
=
 OpenBabel11122412233D

 34 40  0  0  1  0  0  0  0  0999 V2000
  186.0620  178.3720  139.4280 C   0  0  0  0  0  0  0  0  0  0  0  0
  185.1210  177.7390  137.1630 C   0  0  0  0  0  2  0  0  0  0  0  0
  185.8030  179.0140  145.9810 C   0  0  1  0  0  3  0  0  0  0  0  0
  186.8480  178.5280  141.6990 C   0  0  0  0  0  0  0  0  0  0  0  0
  185.1070  178.8590  143.5150 C   0  0  2  0  0  3  0  0  0  0  0  0
  183.5110  179.2130  145.2530 O   0  0  0  0  0  1  0  0  0  0  0  0
  185.2330  179.2530  147.2340 O   0  0  0  0  0  1  0  0  0  0  0  0
  187.7610  177.8360  144.9090 C   0  0  0  0  0  2  0  0  0  0  0  0
  183.5970  178.4940  138.8930 C   0  0  2  0  0  3  0  0  0  0  0  0
  180.7470  176.9610  138.9660 C   0  0  0  0  0  2  0  0  0  0  0  0
  184.2320  178.0900  142.6290 N   0  0  0  0  0  2  0  0  0  0  0  0
  187.0340  177.4080  143.7930 O   0  0  0  0  0  0  0  0  0  0  0  0
  183.3650  177.9680  140.3240 C   0  0  1  0  0  3  0  0  0  0  0  0
  183.7120  177.6300  136.6080 C   0  0  0  0  0  2  0  0  0  0  0  0
  186.5940  178.5870  143.1820 C   0  0  1  0  0  3  0  0  0  0  0  0
  186.8560  177.9200  146.1330 C   0  0  0  0  0  2  0  0  0  0  0  0
  181.9910  176.5950  138.1640 C   0  0  2  0  0  3  0  0  0  0  0  0
  185.7800  178.4890  140.7930 C   0  0  0  0  0  0  0  0  0  0  0  0
  184.7240  178.5780  144.9770 C   0  0  2  0  0  3  0  0  0  0  0  0
  184.3590  178.6420  141.2800 C   0  0  2  0  0  3  0  0  0  0  0  0
  188.3780  178.3250  139.9040 C   0  0  0  0  0  3  0  0  0  0  0  0
  181.0480  177.0620  140.4540 C   0  0  0  0  0  2  0  0  0  0  0  0
  188.1220  178.4420  141.2340 N   0  0  0  0  0  0  0  0  0  0  0  0
  181.9390  178.2540  140.7690 C   0  0  0  0  0  2  0  0  0  0  0  0
  182.7440  177.8790  137.7700 C   0  0  1  0  0  3  0  0  0  0  0  0
  187.3530  178.2840  139.0110 N   0  0  0  0  0  0  0  0  0  0  0  0
  184.9790  178.2870  138.4940 N   0  0  0  0  0  0  0  0  0  0  0  0
  181.5870  175.8940  137.0240 O   0  0  0  0  0  0  0  0  0  0  0  0
  181.6850  174.5470  137.3800 C   0  0  0  0  0  2  0  0  0  0  0  0
  184.8640  172.8160  137.6400 C   0  0  0  0  0  2  0  0  0  0  0  0
  182.7470  172.5130  136.5560 N   0  0  0  0  0  2  0  0  0  0  0  0
  182.9310  173.9400  136.7640 C   0  0  2  0  0  3  0  0  0  0  0  0
  184.0700  171.9290  136.7060 C   0  0  0  0  0  2  0  0  0  0  0  0
  184.1050  174.1190  137.7000 C   0  0  0  0  0  2  0  0  0  0  0  0
  1 18  1  0  0  0  0
  2 27  1  0  0  0  0
  3 16  1  0  0  0  0
  3  7  1  1  0  0  0
  5 11  1  6  0  0  0
  5 19  1  0  0  0  0
  8 16  1  0  0  0  0
  9 27  1  6  0  0  0
  9 13  1  0  0  0  0
 10 22  1  0  0  0  0
 12  8  1  0  0  0  0
 13 24  1  1  0  0  0
 13 20  1  0  0  0  0
 14  2  1  0  0  0  0
 15  4  1  6  0  0  0
 15  5  1  0  0  0  0
 15 12  1  0  0  0  0
 17 28  1  6  0  0  0
 17 10  1  0  0  0  0
 18  4  2  0  0  0  0
 19  6  1  1  0  0  0
 19  3  1  0  0  0  0
 20 18  1  6  0  0  0
 20 11  1  0  0  0  0
 21 23  2  0  0  0  0
 22 24  1  0  0  0  0
 23  4  1  0  0  0  0
 25 14  1  6  0  0  0
 25 17  1  0  0  0  0
 25  9  1  0  0  0  0
 26  1  2  0  0  0  0
 26 21  1  0  0  0  0
 27  1  1  0  0  0  0
 28 29  1  0  0  0  0
 30 34  1  0  0  0  0
 31 33  1  0  0  0  0
 31 32  1  0  0  0  0
 32 29  1  1  0  0  0
 32 34  1  0  0  0  0
 33 30  1  0  0  0  0
M  END
>  <MODEL>
4

>  <REMARK>
 VINA RESULT:      -8.3      3.233      4.750
  Name = 
  3 active torsions:
  status: ('A' for Active; 'I' for Inactive)
    1  A    between atoms: C_17  and  O_28
    2  A    between atoms: O_28  and  C_29
    3  A    between atoms: C_29  and  C_32
                            x       y       z     vdW  Elec       q    Type
                         _______ _______ _______ _____ _____    ______ ____

>  <TORSDO>
F 3

$$$$
=
 OpenBabel11122412233D

 34 40  0  0  1  0  0  0  0  0999 V2000
  182.0550  178.7860  143.5460 C   0  0  0  0  0  0  0  0  0  0  0  0
  183.7400  178.8160  145.4370 C   0  0  0  0  0  2  0  0  0  0  0  0
  180.1990  177.9590  137.2780 C   0  0  1  0  0  3  0  0  0  0  0  0
  180.6090  178.3170  141.6790 C   0  0  0  0  0  0  0  0  0  0  0  0
  181.6190  178.4610  139.3560 C   0  0  2  0  0  3  0  0  0  0  0  0
  182.5140  178.6260  137.1510 O   0  0  0  0  0  1  0  0  0  0  0  0
  180.3050  177.9830  135.8850 O   0  0  0  0  0  1  0  0  0  0  0  0
  178.9320  176.7990  139.1290 C   0  0  0  0  0  2  0  0  0  0  0  0
  184.4890  179.3590  143.1950 C   0  0  2  0  0  3  0  0  0  0  0  0
  187.4330  178.2500  142.4320 C   0  0  0  0  0  2  0  0  0  0  0  0
  182.8560  178.0390  140.0140 N   0  0  0  0  0  2  0  0  0  0  0  0
  180.0320  176.7380  139.9920 O   0  0  0  0  0  0  0  0  0  0  0  0
  184.3820  178.5600  141.8800 C   0  0  1  0  0  3  0  0  0  0  0  0
  185.2430  179.0270  145.4970 C   0  0  0  0  0  2  0  0  0  0  0  0
  180.3880  178.0730  140.2100 C   0  0  1  0  0  3  0  0  0  0  0  0
  179.3910  176.7270  137.6770 C   0  0  0  0  0  2  0  0  0  0  0  0
  186.5880  177.9100  143.6550 C   0  0  2  0  0  3  0  0  0  0  0  0
  181.8840  178.6290  142.1670 C   0  0  0  0  0  0  0  0  0  0  0  0
  181.5940  177.9120  137.9210 C   0  0  2  0  0  3  0  0  0  0  0  0
  183.0320  178.8590  141.2130 C   0  0  2  0  0  3  0  0  0  0  0  0
  179.7630  178.3200  143.8900 C   0  0  0  0  0  3  0  0  0  0  0  0
  186.6850  177.9700  141.1370 C   0  0  0  0  0  2  0  0  0  0  0  0
  179.5780  178.1670  142.5520 N   0  0  0  0  0  0  0  0  0  0  0  0
  185.5200  178.9280  140.9410 C   0  0  0  0  0  2  0  0  0  0  0  0
  185.7460  179.1350  144.0530 C   0  0  1  0  0  3  0  0  0  0  0  0
  180.9950  178.6210  144.3800 N   0  0  0  0  0  0  0  0  0  0  0  0
  183.3620  179.0620  144.0630 N   0  0  0  0  0  0  0  0  0  0  0  0
  187.4480  177.5460  144.6950 O   0  0  0  0  0  0  0  0  0  0  0  0
  188.7280  177.6090  144.1380 C   0  0  0  0  0  2  0  0  0  0  0  0
  190.3220  176.8130  147.3000 C   0  0  0  0  0  2  0  0  0  0  0  0
  190.9480  177.0860  145.0020 N   0  0  0  0  0  2  0  0  0  0  0  0
  189.7500  177.8800  145.2270 C   0  0  2  0  0  3  0  0  0  0  0  0
  191.4800  176.8120  146.3270 C   0  0  0  0  0  2  0  0  0  0  0  0
  189.1840  177.4850  146.5710 C   0  0  0  0  0  2  0  0  0  0  0  0
  1 27  1  0  0  0  0
  1 26  1  0  0  0  0
  2 14  1  0  0  0  0
  3  7  1  6  0  0  0
  3 16  1  0  0  0  0
  3 19  1  0  0  0  0
  4 18  1  0  0  0  0
  4 23  2  0  0  0  0
  5 11  1  1  0  0  0
  5 15  1  0  0  0  0
  8 12  1  0  0  0  0
  9 25  1  0  0  0  0
  9 27  1  1  0  0  0
 10 17  1  0  0  0  0
 13 24  1  6  0  0  0
 13  9  1  0  0  0  0
 15 12  1  1  0  0  0
 15  4  1  0  0  0  0
 16  8  1  0  0  0  0
 17 25  1  0  0  0  0
 17 28  1  1  0  0  0
 18  1  2  0  0  0  0
 19  6  1  6  0  0  0
 19  5  1  0  0  0  0
 20 11  1  6  0  0  0
 20 13  1  0  0  0  0
 20 18  1  0  0  0  0
 21 26  2  0  0  0  0
 22 10  1  0  0  0  0
 23 21  1  0  0  0  0
 24 22  1  0  0  0  0
 25 14  1  1  0  0  0
 27  2  1  0  0  0  0
 29 28  1  0  0  0  0
 31 32  1  0  0  0  0
 31 33  1  0  0  0  0
 32 29  1  6  0  0  0
 32 34  1  0  0  0  0
 33 30  1  0  0  0  0
 34 30  1  0  0  0  0
M  END
>  <MODEL>
5

>  <REMARK>
 VINA RESULT:      -8.1      2.568      9.562
  Name = 
  3 active torsions:
  status: ('A' for Active; 'I' for Inactive)
    1  A    between atoms: C_17  and  O_28
    2  A    between atoms: O_28  and  C_29
    3  A    between atoms: C_29  and  C_32
                            x       y       z     vdW  Elec       q    Type
                         _______ _______ _______ _____ _____    ______ ____

>  <TORSDO>
F 3

$$$$
=
 OpenBabel11122412233D

 34 40  0  0  1  0  0  0  0  0999 V2000
  186.1760  178.6290  140.7810 C   0  0  0  0  0  0  0  0  0  0  0  0
  184.5490  178.6030  138.8390 C   0  0  0  0  0  2  0  0  0  0  0  0
  187.8060  178.1850  147.1510 C   0  0  1  0  0  3  0  0  0  0  0  0
  187.5410  178.2270  142.7230 C   0  0  0  0  0  0  0  0  0  0  0  0
  186.4740  178.6020  144.9960 C   0  0  2  0  0  3  0  0  0  0  0  0
  185.5280  178.9810  147.1520 O   0  0  0  0  0  1  0  0  0  0  0  0
  187.6620  178.3210  148.5330 O   0  0  0  0  0  1  0  0  0  0  0  0
  189.0580  176.8220  145.4330 C   0  0  0  0  0  2  0  0  0  0  0  0
  183.7680  179.3550  141.0090 C   0  0  2  0  0  3  0  0  0  0  0  0
  180.7480  178.4650  141.7580 C   0  0  0  0  0  2  0  0  0  0  0  0
  185.2350  178.1960  144.3310 N   0  0  0  0  0  2  0  0  0  0  0  0
  187.9820  176.7530  144.5420 O   0  0  0  0  0  0  0  0  0  0  0  0
  183.7940  178.6540  142.3830 C   0  0  1  0  0  3  0  0  0  0  0  0
  183.0630  178.8890  138.7160 C   0  0  0  0  0  2  0  0  0  0  0  0
  187.7070  178.0850  144.2130 C   0  0  1  0  0  3  0  0  0  0  0  0
  188.5550  176.8850  146.8710 C   0  0  0  0  0  2  0  0  0  0  0  0
  181.6060  177.9880  140.5920 C   0  0  2  0  0  3  0  0  0  0  0  0
  186.2990  178.5680  142.1730 C   0  0  0  0  0  0  0  0  0  0  0  0
  186.4290  178.1630  146.4680 C   0  0  2  0  0  3  0  0  0  0  0  0
  185.1390  178.9310  143.0700 C   0  0  2  0  0  3  0  0  0  0  0  0
  188.4480  178.0160  140.5470 C   0  0  0  0  0  3  0  0  0  0  0  0
  181.4420  178.2450  143.0940 C   0  0  0  0  0  2  0  0  0  0  0  0
  188.5860  177.9560  141.8980 N   0  0  0  0  0  0  0  0  0  0  0  0
  182.6520  179.1520  143.2550 C   0  0  0  0  0  2  0  0  0  0  0  0
  182.5250  179.1330  140.1300 C   0  0  1  0  0  3  0  0  0  0  0  0
  187.2490  178.3440  139.9960 N   0  0  0  0  0  0  0  0  0  0  0  0
  184.9010  178.9330  140.2030 N   0  0  0  0  0  0  0  0  0  0  0  0
  180.7570  177.5920  139.5540 O   0  0  0  0  0  0  0  0  0  0  0  0
  180.5380  176.2300  139.7730 C   0  0  0  0  0  2  0  0  0  0  0  0
  182.2450  175.9780  136.5800 C   0  0  0  0  0  2  0  0  0  0  0  0
  182.5810  175.2740  138.8480 N   0  0  0  0  0  2  0  0  0  0  0  0
  181.1490  175.4230  138.6430 C   0  0  2  0  0  3  0  0  0  0  0  0
  183.1540  175.2070  137.5120 C   0  0  0  0  0  2  0  0  0  0  0  0
  180.9450  176.1430  137.3300 C   0  0  0  0  0  2  0  0  0  0  0  0
  1 18  1  0  0  0  0
  2 27  1  0  0  0  0
  3  7  1  1  0  0  0
  5 11  1  6  0  0  0
  5 19  1  0  0  0  0
  8 16  1  0  0  0  0
  9 27  1  6  0  0  0
  9 13  1  0  0  0  0
 10 22  1  0  0  0  0
 12  8  1  0  0  0  0
 13 20  1  0  0  0  0
 13 24  1  1  0  0  0
 14  2  1  0  0  0  0
 15  4  1  6  0  0  0
 15 12  1  0  0  0  0
 15  5  1  0  0  0  0
 16  3  1  0  0  0  0
 17 28  1  6  0  0  0
 17 10  1  0  0  0  0
 18  4  2  0  0  0  0
 19  3  1  0  0  0  0
 19  6  1  1  0  0  0
 20 18  1  6  0  0  0
 20 11  1  0  0  0  0
 21 23  2  0  0  0  0
 22 24  1  0  0  0  0
 23  4  1  0  0  0  0
 25 14  1  6  0  0  0
 25 17  1  0  0  0  0
 25  9  1  0  0  0  0
 26 21  1  0  0  0  0
 26  1  2  0  0  0  0
 27  1  1  0  0  0  0
 28 29  1  0  0  0  0
 30 34  1  0  0  0  0
 30 33  1  0  0  0  0
 32 31  1  0  0  0  0
 32 29  1  1  0  0  0
 33 31  1  0  0  0  0
 34 32  1  0  0  0  0
M  END
>  <MODEL>
6

>  <REMARK>
 VINA RESULT:      -8.1      2.235      3.136
  Name = 
  3 active torsions:
  status: ('A' for Active; 'I' for Inactive)
    1  A    between atoms: C_17  and  O_28
    2  A    between atoms: O_28  and  C_29
    3  A    between atoms: C_29  and  C_32
                            x       y       z     vdW  Elec       q    Type
                         _______ _______ _______ _____ _____    ______ ____

>  <TORSDO>
F 3

$$$$
=
 OpenBabel11122412233D

 34 40  0  0  1  0  0  0  0  0999 V2000
  186.4440  178.6280  140.7350 C   0  0  0  0  0  0  0  0  0  0  0  0
  184.9120  178.6030  138.7180 C   0  0  0  0  0  2  0  0  0  0  0  0
  187.7660  178.1870  147.1760 C   0  0  1  0  0  3  0  0  0  0  0  0
  187.7130  178.2260  142.7410 C   0  0  0  0  0  0  0  0  0  0  0  0
  186.5400  178.6040  144.9600 C   0  0  2  0  0  3  0  0  0  0  0  0
  185.4920  178.9870  147.0680 O   0  0  0  0  0  1  0  0  0  0  0  0
  187.5550  178.3240  148.5500 O   0  0  0  0  0  1  0  0  0  0  0  0
  189.0970  176.8210  145.5220 C   0  0  0  0  0  2  0  0  0  0  0  0
  184.0290  179.3580  140.8470 C   0  0  2  0  0  3  0  0  0  0  0  0
  180.9750  178.4730  141.4510 C   0  0  0  0  0  2  0  0  0  0  0  0
  185.3330  178.2000  144.2370 N   0  0  0  0  0  2  0  0  0  0  0  0
  188.0640  176.7530  144.5800 O   0  0  0  0  0  0  0  0  0  0  0  0
  183.9880  178.6580  142.2210 C   0  0  1  0  0  3  0  0  0  0  0  0
  183.4340  178.8900  138.5230 C   0  0  0  0  0  2  0  0  0  0  0  0
  187.8070  178.0850  144.2380 C   0  0  1  0  0  3  0  0  0  0  0  0
  188.5260  176.8860  146.9340 C   0  0  0  0  0  2  0  0  0  0  0  0
  181.8870  177.9940  140.3280 C   0  0  2  0  0  3  0  0  0  0  0  0
  186.5000  178.5680  142.1320 C   0  0  0  0  0  0  0  0  0  0  0  0
  186.4230  178.1670  146.4280 C   0  0  2  0  0  3  0  0  0  0  0  0
  185.2990  178.9340  142.9720 C   0  0  2  0  0  3  0  0  0  0  0  0
  188.7230  178.0120  140.6110 C   0  0  0  0  0  3  0  0  0  0  0  0
  181.6030  178.2530  142.8190 C   0  0  0  0  0  2  0  0  0  0  0  0
  188.7970  177.9530  141.9680 N   0  0  0  0  0  0  0  0  0  0  0  0
  182.8060  179.1580  143.0370 C   0  0  0  0  0  2  0  0  0  0  0  0
  182.8290  179.1370  139.9090 C   0  0  1  0  0  3  0  0  0  0  0  0
  187.5520  178.3410  140.0030 N   0  0  0  0  0  0  0  0  0  0  0  0
  185.1990  178.9330  140.0970 N   0  0  0  0  0  0  0  0  0  0  0  0
  181.0880  177.5980  139.2510 O   0  0  0  0  0  0  0  0  0  0  0  0
  179.9070  178.3280  139.3960 C   0  0  0  0  0  2  0  0  0  0  0  0
  180.5530  180.7740  136.7940 C   0  0  0  0  0  2  0  0  0  0  0  0
  180.2910  178.3990  136.9890 N   0  0  0  0  0  2  0  0  0  0  0  0
  179.5590  179.0110  138.0860 C   0  0  2  0  0  3  0  0  0  0  0  0
  180.5090  179.4690  136.0300 C   0  0  0  0  0  2  0  0  0  0  0  0
  179.9590  180.4680  138.1470 C   0  0  0  0  0  2  0  0  0  0  0  0
  1 18  1  0  0  0  0
  2 27  1  0  0  0  0
  3  7  1  1  0  0  0
  5 11  1  6  0  0  0
  5 19  1  0  0  0  0
  8 16  1  0  0  0  0
  9 27  1  6  0  0  0
  9 13  1  0  0  0  0
 10 22  1  0  0  0  0
 12  8  1  0  0  0  0
 13 20  1  0  0  0  0
 13 24  1  1  0  0  0
 14  2  1  0  0  0  0
 15  4  1  6  0  0  0
 15 12  1  0  0  0  0
 15  5  1  0  0  0  0
 16  3  1  0  0  0  0
 17 28  1  6  0  0  0
 17 10  1  0  0  0  0
 18  4  2  0  0  0  0
 19  6  1  1  0  0  0
 19  3  1  0  0  0  0
 20 18  1  6  0  0  0
 20 11  1  0  0  0  0
 21 23  2  0  0  0  0
 22 24  1  0  0  0  0
 23  4  1  0  0  0  0
 25 14  1  6  0  0  0
 25 17  1  0  0  0  0
 25  9  1  0  0  0  0
 26 21  1  0  0  0  0
 26  1  2  0  0  0  0
 27  1  1  0  0  0  0
 28 29  1  0  0  0  0
 30 34  1  0  0  0  0
 31 32  1  0  0  0  0
 32 34  1  0  0  0  0
 32 29  1  1  0  0  0
 33 30  1  0  0  0  0
 33 31  1  0  0  0  0
M  END
>  <MODEL>
7

>  <REMARK>
 VINA RESULT:      -7.9      1.867      2.617
  Name = 
  3 active torsions:
  status: ('A' for Active; 'I' for Inactive)
    1  A    between atoms: C_17  and  O_28
    2  A    between atoms: O_28  and  C_29
    3  A    between atoms: C_29  and  C_32
                            x       y       z     vdW  Elec       q    Type
                         _______ _______ _______ _____ _____    ______ ____

>  <TORSDO>
F 3

$$$$
=
 OpenBabel11122412233D

 34 40  0  0  1  0  0  0  0  0999 V2000
  187.8310  178.2490  140.9890 C   0  0  0  0  0  0  0  0  0  0  0  0
  186.4330  178.2540  138.8780 C   0  0  0  0  0  2  0  0  0  0  0  0
  188.7160  177.8770  147.5090 C   0  0  1  0  0  3  0  0  0  0  0  0
  188.9490  177.8280  143.0800 C   0  0  0  0  0  0  0  0  0  0  0  0
  187.6550  178.3060  145.2110 C   0  0  2  0  0  3  0  0  0  0  0  0
  186.4940  178.7800  147.2400 O   0  0  0  0  0  1  0  0  0  0  0  0
  188.4250  178.0520  148.8640 O   0  0  0  0  0  1  0  0  0  0  0  0
  190.0830  176.4170  145.9680 C   0  0  0  0  0  2  0  0  0  0  0  0
  185.4520  179.0920  140.9320 C   0  0  2  0  0  3  0  0  0  0  0  0
  182.3270  178.3630  141.3510 C   0  0  0  0  0  2  0  0  0  0  0  0
  186.4800  177.9440  144.4180 N   0  0  0  0  0  2  0  0  0  0  0  0
  189.1110  176.3780  144.9630 O   0  0  0  0  0  0  0  0  0  0  0  0
  185.2900  178.4230  142.3120 C   0  0  1  0  0  3  0  0  0  0  0  0
  184.9850  178.6060  138.5820 C   0  0  0  0  0  2  0  0  0  0  0  0
  188.9400  177.7130  144.5820 C   0  0  1  0  0  3  0  0  0  0  0  0
  189.4260  176.5370  147.3390 C   0  0  0  0  0  2  0  0  0  0  0  0
  183.2850  177.8190  140.2980 C   0  0  2  0  0  3  0  0  0  0  0  0
  187.7950  178.2150  142.3870 C   0  0  0  0  0  0  0  0  0  0  0  0
  187.4240  177.9040  146.6760 C   0  0  2  0  0  3  0  0  0  0  0  0
  186.5610  178.6530  143.1410 C   0  0  2  0  0  3  0  0  0  0  0  0
  190.0820  177.5250  141.0240 C   0  0  0  0  0  3  0  0  0  0  0  0
  182.8550  178.1420  142.7600 C   0  0  0  0  0  2  0  0  0  0  0  0
  190.0660  177.4900  142.3840 N   0  0  0  0  0  0  0  0  0  0  0  0
  184.0830  178.9950  143.0400 C   0  0  0  0  0  2  0  0  0  0  0  0
  184.3060  178.9090  139.9220 C   0  0  1  0  0  3  0  0  0  0  0  0
  188.9700  177.8950  140.3360 N   0  0  0  0  0  0  0  0  0  0  0  0
  186.6460  178.5990  140.2660 N   0  0  0  0  0  0  0  0  0  0  0  0
  182.5390  177.4400  139.1780 O   0  0  0  0  0  0  0  0  0  0  0  0
  182.5790  176.0430  139.1800 C   0  0  0  0  0  2  0  0  0  0  0  0
  183.6310  176.5080  135.7380 C   0  0  0  0  0  2  0  0  0  0  0  0
  184.1780  175.0990  137.5990 N   0  0  0  0  0  2  0  0  0  0  0  0
  182.8000  175.5330  137.7680 C   0  0  2  0  0  3  0  0  0  0  0  0
  184.4900  175.3530  136.2020 C   0  0  0  0  0  2  0  0  0  0  0  0
  182.5430  176.6440  136.7760 C   0  0  0  0  0  2  0  0  0  0  0  0
  1 18  1  0  0  0  0
  2 27  1  0  0  0  0
  3  7  1  1  0  0  0
  5 11  1  6  0  0  0
  5 19  1  0  0  0  0
  8 16  1  0  0  0  0
  9 27  1  6  0  0  0
  9 13  1  0  0  0  0
 10 22  1  0  0  0  0
 12  8  1  0  0  0  0
 13 24  1  1  0  0  0
 13 20  1  0  0  0  0
 14  2  1  0  0  0  0
 15  4  1  6  0  0  0
 15 12  1  0  0  0  0
 15  5  1  0  0  0  0
 16  3  1  0  0  0  0
 17 28  1  6  0  0  0
 17 10  1  0  0  0  0
 18  4  2  0  0  0  0
 19  6  1  1  0  0  0
 19  3  1  0  0  0  0
 20 18  1  6  0  0  0
 20 11  1  0  0  0  0
 21 23  2  0  0  0  0
 22 24  1  0  0  0  0
 23  4  1  0  0  0  0
 25 14  1  6  0  0  0
 25 17  1  0  0  0  0
 25  9  1  0  0  0  0
 26  1  2  0  0  0  0
 26 21  1  0  0  0  0
 27  1  1  0  0  0  0
 28 29  1  0  0  0  0
 30 33  1  0  0  0  0
 30 34  1  0  0  0  0
 31 32  1  0  0  0  0
 32 29  1  1  0  0  0
 33 31  1  0  0  0  0
 34 32  1  0  0  0  0
M  END
>  <MODEL>
8

>  <REMARK>
 VINA RESULT:      -7.8      2.145      2.682
  Name = 
  3 active torsions:
  status: ('A' for Active; 'I' for Inactive)
    1  A    between atoms: C_17  and  O_28
    2  A    between atoms: O_28  and  C_29
    3  A    between atoms: C_29  and  C_32
                            x       y       z     vdW  Elec       q    Type
                         _______ _______ _______ _____ _____    ______ ____

>  <TORSDO>
F 3

$$$$
=
 OpenBabel11122412233D

 34 40  0  0  1  0  0  0  0  0999 V2000
  190.5890  177.4890  141.1670 C   0  0  0  0  0  0  0  0  0  0  0  0
  191.5760  176.8050  138.9370 C   0  0  0  0  0  2  0  0  0  0  0  0
  185.6220  178.8450  145.2810 C   0  0  1  0  0  3  0  0  0  0  0  0
  189.4060  177.7360  143.2500 C   0  0  0  0  0  0  0  0  0  0  0  0
  187.0090  178.5630  143.1390 C   0  0  2  0  0  3  0  0  0  0  0  0
  184.7670  179.3770  143.0880 O   0  0  0  0  0  1  0  0  0  0  0  0
  184.3690  179.3120  145.6820 O   0  0  0  0  0  1  0  0  0  0  0  0
  187.4310  177.2280  145.9810 C   0  0  0  0  0  2  0  0  0  0  0  0
  189.4640  177.9970  138.9640 C   0  0  2  0  0  3  0  0  0  0  0  0
  187.3150  177.0200  136.7490 C   0  0  0  0  0  2  0  0  0  0  0  0
  186.9740  177.8770  141.8470 N   0  0  0  0  0  2  0  0  0  0  0  0
  187.7290  176.8250  144.6750 O   0  0  0  0  0  0  0  0  0  0  0  0
  188.1390  177.6740  139.6820 C   0  0  1  0  0  3  0  0  0  0  0  0
  191.0850  176.8950  137.5030 C   0  0  0  0  0  2  0  0  0  0  0  0
  188.1420  177.9940  144.0270 C   0  0  1  0  0  3  0  0  0  0  0  0
  185.9570  177.6010  146.0990 C   0  0  0  0  0  2  0  0  0  0  0  0
  188.6290  176.3540  137.1410 C   0  0  2  0  0  3  0  0  0  0  0  0
  189.4070  177.7970  141.8500 C   0  0  0  0  0  0  0  0  0  0  0  0
  185.6140  178.5090  143.7810 C   0  0  2  0  0  3  0  0  0  0  0  0
  188.1760  178.2540  141.1040 C   0  0  2  0  0  3  0  0  0  0  0  0
  191.6790  177.0750  143.2240 C   0  0  0  0  0  3  0  0  0  0  0  0
  186.4050  177.2180  137.9520 C   0  0  0  0  0  2  0  0  0  0  0  0
  190.5410  177.3750  143.9050 N   0  0  0  0  0  0  0  0  0  0  0  0
  186.9620  178.2570  138.9140 C   0  0  0  0  0  2  0  0  0  0  0  0
  189.6510  177.4330  137.5440 C   0  0  1  0  0  3  0  0  0  0  0  0
  191.6970  177.1270  141.8650 N   0  0  0  0  0  0  0  0  0  0  0  0
  190.5930  177.5040  139.7350 N   0  0  0  0  0  0  0  0  0  0  0  0
  189.0950  175.6230  136.0450 O   0  0  0  0  0  0  0  0  0  0  0  0
  188.8730  174.2870  136.3870 C   0  0  0  0  0  2  0  0  0  0  0  0
  192.2410  173.9420  135.0820 C   0  0  0  0  0  2  0  0  0  0  0  0
  191.0620  173.5060  137.1240 N   0  0  0  0  0  2  0  0  0  0  0  0
  190.0940  173.4560  136.0400 C   0  0  2  0  0  3  0  0  0  0  0  0
  192.3620  173.3830  136.4820 C   0  0  0  0  0  2  0  0  0  0  0  0
  190.7600  174.0160  134.8030 C   0  0  0  0  0  2  0  0  0  0  0  0
  1 18  2  0  0  0  0
  1 26  1  0  0  0  0
  2 27  1  0  0  0  0
  3  7  1  1  0  0  0
  3 16  1  0  0  0  0
  4 23  2  0  0  0  0
  5 11  1  6  0  0  0
  5 19  1  0  0  0  0
  5 15  1  0  0  0  0
  8 16  1  0  0  0  0
  9 13  1  0  0  0  0
  9 27  1  1  0  0  0
 10 17  1  0  0  0  0
 10 22  1  0  0  0  0
 12  8  1  0  0  0  0
 13 24  1  6  0  0  0
 13 20  1  0  0  0  0
 14  2  1  0  0  0  0
 15  4  1  6  0  0  0
 15 12  1  0  0  0  0
 17 28  1  6  0  0  0
 17 25  1  0  0  0  0
 18  4  1  0  0  0  0
 19  6  1  6  0  0  0
 19  3  1  0  0  0  0
 20 11  1  1  0  0  0
 20 18  1  0  0  0  0
 21 23  1  0  0  0  0
 22 24  1  0  0  0  0
 25 14  1  1  0  0  0
 25  9  1  0  0  0  0
 26 21  2  0  0  0  0
 27  1  1  0  0  0  0
 28 29  1  0  0  0  0
 30 33  1  0  0  0  0
 32 29  1  1  0  0  0
 32 31  1  0  0  0  0
 33 31  1  0  0  0  0
 34 30  1  0  0  0  0
 34 32  1  0  0  0  0
M  END
>  <MODEL>
9

>  <REMARK>
 VINA RESULT:      -7.7      3.264      6.735
  Name = 
  3 active torsions:
  status: ('A' for Active; 'I' for Inactive)
    1  A    between atoms: C_17  and  O_28
    2  A    between atoms: O_28  and  C_29
    3  A    between atoms: C_29  and  C_32
                            x       y       z     vdW  Elec       q    Type
                         _______ _______ _______ _____ _____    ______ ____

>  <TORSDO>
F 3

$$$$
