=
 OpenBabel11122411553D

 28 32  0  0  1  0  0  0  0  0999 V2000
  180.4330  178.2750  141.9960 C   0  0  0  0  0  0  0  0  0  0  0  0
  180.6470  180.9440  139.7380 O   0  0  0  0  0  0  0  0  0  0  0  0
  182.0730  173.9480  137.6710 O   0  0  0  0  0  1  0  0  0  0  0  0
  182.7140  178.9410  143.4850 C   0  0  0  0  0  3  0  0  0  0  0  0
  183.4620  175.8770  137.6120 C   0  0  2  0  0  3  0  0  0  0  0  0
  179.1970  177.8900  141.2440 C   0  0  0  0  0  2  0  0  0  0  0  0
  182.6550  181.8190  138.6160 O   0  0  0  0  0  0  0  0  0  0  0  0
  181.7080  180.6570  138.7130 S   0  0  0  0  0  0  0  0  0  0  0  0
  181.1850  179.1370  136.4980 C   0  0  0  0  0  0  0  0  0  0  0  0
  182.6150  179.1900  139.1410 C   0  0  2  0  0  3  0  0  0  0  0  0
  179.3630  174.3050  140.4820 O   0  0  0  0  0  0  0  0  0  0  0  0
  182.5080  176.8150  139.6030 C   0  0  2  0  0  3  0  0  0  0  0  0
  182.0940  178.2860  136.8740 N   0  0  0  0  0  0  0  0  0  0  0  0
  180.9830  180.3730  137.1790 N   0  0  0  0  0  2  0  0  0  0  0  0
  179.5170  175.5420  140.3190 C   0  0  0  0  0  0  0  0  0  0  0  0
  181.6780  178.4050  141.3510 C   0  0  0  0  0  0  0  0  0  0  0  0
  182.0650  175.3360  137.8090 C   0  0  2  0  0  3  0  0  0  0  0  0
  180.3310  178.8020  135.4130 N   0  0  0  0  0  1  0  0  0  0  0  0
  180.2180  176.0360  139.0950 C   0  0  0  0  0  2  0  0  0  0  0  0
  182.8160  178.7310  142.1070 C   0  0  0  0  0  3  0  0  0  0  0  0
  180.3410  178.4820  143.3780 C   0  0  0  0  0  3  0  0  0  0  0  0
  181.4760  178.8180  144.1180 C   0  0  0  0  0  3  0  0  0  0  0  0
  179.0030  176.4480  141.3000 N   0  0  0  0  0  2  0  0  0  0  0  0
  183.5270  177.0980  138.5090 C   0  0  2  0  0  3  0  0  0  0  0  0
  181.6400  175.6960  139.1600 N   0  0  2  0  0  0  0  0  0  0  0  0
  183.1290  178.4600  137.9110 C   0  0  2  0  0  3  0  0  0  0  0  0
  183.7160  176.1700  136.2700 O   0  0  0  0  0  1  0  0  0  0  0  0
  181.7950  178.1460  139.8770 C   0  0  1  0  0  3  0  0  0  0  0  0
  1 21  1  0  0  0  0
  3 17  1  0  0  0  0
  4 22  1  0  0  0  0
  5 27  1  6  0  0  0
  5 17  1  0  0  0  0
  5 24  1  0  0  0  0
  6 23  1  0  0  0  0
  6  1  1  0  0  0  0
  7  8  2  0  0  0  0
  8  2  2  0  0  0  0
  9 13  2  0  0  0  0
  9 14  1  0  0  0  0
 10  8  1  6  0  0  0
 10 28  1  0  0  0  0
 12 28  1  0  0  0  0
 13 26  1  0  0  0  0
 14  8  1  0  0  0  0
 15 11  2  0  0  0  0
 15 23  1  0  0  0  0
 16  1  2  0  0  0  0
 16 20  1  0  0  0  0
 17 25  1  0  0  0  0
 18  9  1  0  0  0  0
 19 25  1  0  0  0  0
 19 15  1  0  0  0  0
 20  4  2  0  0  0  0
 21 22  2  0  0  0  0
 24 12  1  0  0  0  0
 25 12  1  0  0  0  0
 26 24  1  0  0  0  0
 26 10  1  0  0  0  0
 28 16  1  0  0  0  0
M  END
>  <MODEL>
1

>  <REMARK>
 VINA RESULT:      -6.4      0.000      0.000
  Name = 
  0 active torsions:
  status: ('A' for Active; 'I' for Inactive)
                            x       y       z     vdW  Elec       q    Type
                         _______ _______ _______ _____ _____    ______ ____

>  <TORSDO>
F 0

$$$$
=
 OpenBabel11122411553D

 28 32  0  0  1  0  0  0  0  0999 V2000
  185.5630  176.7760  137.4470 C   0  0  0  0  0  0  0  0  0  0  0  0
  183.2290  177.5570  134.9540 O   0  0  0  0  0  0  0  0  0  0  0  0
  181.9210  178.9980  142.1280 O   0  0  0  0  0  1  0  0  0  0  0  0
  185.2360  173.9940  137.3210 C   0  0  0  0  0  3  0  0  0  0  0  0
  180.7150  177.6400  140.5930 C   0  0  2  0  0  3  0  0  0  0  0  0
  185.7870  178.2530  137.5370 C   0  0  0  0  0  2  0  0  0  0  0  0
  180.9970  176.5790  134.6130 O   0  0  0  0  0  0  0  0  0  0  0  0
  181.8380  177.4430  135.5100 S   0  0  0  0  0  0  0  0  0  0  0  0
  180.6790  179.4930  136.9030 C   0  0  0  0  0  0  0  0  0  0  0  0
  181.8670  176.7440  137.1430 C   0  0  2  0  0  3  0  0  0  0  0  0
  185.6890  179.2350  141.0710 O   0  0  0  0  0  0  0  0  0  0  0  0
  182.6870  176.9540  139.4130 C   0  0  2  0  0  3  0  0  0  0  0  0
  180.5650  178.7170  137.9410 N   0  0  0  0  0  0  0  0  0  0  0  0
  181.1270  179.0030  135.6410 N   0  0  0  0  0  2  0  0  0  0  0  0
  185.2630  179.0030  139.9110 C   0  0  0  0  0  0  0  0  0  0  0  0
  184.2870  176.2100  137.6340 C   0  0  0  0  0  0  0  0  0  0  0  0
  181.8020  178.6740  140.7770 C   0  0  2  0  0  3  0  0  0  0  0  0
  180.4040  180.8800  137.0440 N   0  0  0  0  0  1  0  0  0  0  0  0
  183.8030  179.1490  139.6260 C   0  0  0  0  0  2  0  0  0  0  0  0
  184.1350  174.8150  137.5770 C   0  0  0  0  0  3  0  0  0  0  0  0
  186.6620  175.9440  137.1960 C   0  0  0  0  0  3  0  0  0  0  0  0
  186.4980  174.5590  137.1300 C   0  0  0  0  0  3  0  0  0  0  0  0
  186.1880  178.6200  138.8890 N   0  0  0  0  0  2  0  0  0  0  0  0
  181.1730  176.8140  139.4060 C   0  0  2  0  0  3  0  0  0  0  0  0
  183.0520  178.0870  140.2980 N   0  0  2  0  0  0  0  0  0  0  0  0
  180.7190  177.2510  138.0010 C   0  0  2  0  0  3  0  0  0  0  0  0
  179.4660  178.2350  140.3970 O   0  0  0  0  0  1  0  0  0  0  0  0
  183.1100  177.0890  137.9430 C   0  0  1  0  0  3  0  0  0  0  0  0
  1  6  1  0  0  0  0
  1 16  1  0  0  0  0
  2  8  2  0  0  0  0
  4 20  1  0  0  0  0
  5 27  1  6  0  0  0
  5 17  1  0  0  0  0
  6 23  1  0  0  0  0
  7  8  2  0  0  0  0
  8 14  1  0  0  0  0
  9 18  1  0  0  0  0
  9 13  2  0  0  0  0
 10  8  1  6  0  0  0
 10 28  1  0  0  0  0
 10 26  1  0  0  0  0
 12 25  1  0  0  0  0
 13 26  1  0  0  0  0
 14  9  1  0  0  0  0
 15 11  2  0  0  0  0
 16 28  1  0  0  0  0
 17  3  1  0  0  0  0
 19 15  1  0  0  0  0
 19 25  1  0  0  0  0
 20 16  2  0  0  0  0
 21  1  2  0  0  0  0
 22 21  1  0  0  0  0
 22  4  2  0  0  0  0
 23 15  1  0  0  0  0
 24 12  1  0  0  0  0
 24  5  1  0  0  0  0
 25 17  1  0  0  0  0
 26 24  1  0  0  0  0
 28 12  1  0  0  0  0
M  END
>  <MODEL>
2

>  <REMARK>
 VINA RESULT:      -5.5      2.499      5.662
  Name = 
  0 active torsions:
  status: ('A' for Active; 'I' for Inactive)
                            x       y       z     vdW  Elec       q    Type
                         _______ _______ _______ _____ _____    ______ ____

>  <TORSDO>
F 0

$$$$
=
 OpenBabel11122411553D

 28 32  0  0  1  0  0  0  0  0999 V2000
  180.7110  180.5520  138.4790 C   0  0  0  0  0  0  0  0  0  0  0  0
  184.1670  180.5580  139.0520 O   0  0  0  0  0  0  0  0  0  0  0  0
  180.7560  174.8250  135.7730 O   0  0  0  0  0  1  0  0  0  0  0  0
  179.9500  180.2520  141.1620 C   0  0  0  0  0  3  0  0  0  0  0  0
  182.0390  174.9050  137.7730 C   0  0  2  0  0  3  0  0  0  0  0  0
  181.0670  180.7310  137.0370 C   0  0  0  0  0  2  0  0  0  0  0  0
  185.4530  179.0960  140.5560 O   0  0  0  0  0  0  0  0  0  0  0  0
  184.6430  179.1530  139.2920 S   0  0  0  0  0  0  0  0  0  0  0  0
  185.2300  177.4660  137.2190 C   0  0  0  0  0  0  0  0  0  0  0  0
  183.2670  178.0360  139.4220 C   0  0  2  0  0  3  0  0  0  0  0  0
  179.1400  178.3230  135.0490 O   0  0  0  0  0  0  0  0  0  0  0  0
  181.3050  177.1170  138.3390 C   0  0  2  0  0  3  0  0  0  0  0  0
  184.3160  176.6410  137.6380 N   0  0  0  0  0  0  0  0  0  0  0  0
  185.6020  178.6220  137.9670 N   0  0  0  0  0  2  0  0  0  0  0  0
  180.1000  178.7820  135.7200 C   0  0  0  0  0  0  0  0  0  0  0  0
  181.1890  179.4570  139.2260 C   0  0  0  0  0  0  0  0  0  0  0  0
  181.6120  175.6340  136.5200 C   0  0  2  0  0  3  0  0  0  0  0  0
  185.8380  177.2400  135.9550 N   0  0  0  0  0  1  0  0  0  0  0  0
  181.2810  177.9070  135.9970 C   0  0  0  0  0  2  0  0  0  0  0  0
  180.7950  179.3120  140.5670 C   0  0  0  0  0  3  0  0  0  0  0  0
  179.8610  181.4860  139.0830 C   0  0  0  0  0  3  0  0  0  0  0  0
  179.4850  181.3390  140.4200 C   0  0  0  0  0  3  0  0  0  0  0  0
  180.0460  180.1330  136.1880 N   0  0  0  0  0  2  0  0  0  0  0  0
  182.2260  176.0000  138.8060 C   0  0  2  0  0  3  0  0  0  0  0  0
  180.9100  176.8470  136.9340 N   0  0  2  0  0  0  0  0  0  0  0  0
  183.6210  176.6380  138.9400 C   0  0  2  0  0  3  0  0  0  0  0  0
  183.1950  174.1490  137.5610 O   0  0  0  0  0  1  0  0  0  0  0  0
  182.0680  178.4280  138.5780 C   0  0  1  0  0  3  0  0  0  0  0  0
  1 21  2  0  0  0  0
  1 16  1  0  0  0  0
  2  8  2  0  0  0  0
  3 17  1  0  0  0  0
  5 27  1  6  0  0  0
  5 24  1  0  0  0  0
  6  1  1  0  0  0  0
  8  7  2  0  0  0  0
  9 13  2  0  0  0  0
  9 14  1  0  0  0  0
 10  8  1  6  0  0  0
 11 15  2  0  0  0  0
 12 28  1  0  0  0  0
 12 24  1  0  0  0  0
 13 26  1  0  0  0  0
 14  8  1  0  0  0  0
 15 19  1  0  0  0  0
 15 23  1  0  0  0  0
 16 20  2  0  0  0  0
 17 25  1  0  0  0  0
 17  5  1  0  0  0  0
 18  9  1  0  0  0  0
 19 25  1  0  0  0  0
 20  4  1  0  0  0  0
 21 22  1  0  0  0  0
 22  4  2  0  0  0  0
 23  6  1  0  0  0  0
 24 26  1  0  0  0  0
 25 12  1  0  0  0  0
 26 10  1  0  0  0  0
 28 16  1  0  0  0  0
 28 10  1  0  0  0  0
M  END
>  <MODEL>
3

>  <REMARK>
 VINA RESULT:      -5.5      2.490      3.902
  Name = 
  0 active torsions:
  status: ('A' for Active; 'I' for Inactive)
                            x       y       z     vdW  Elec       q    Type
                         _______ _______ _______ _____ _____    ______ ____

>  <TORSDO>
F 0

$$$$
=
 OpenBabel11122411553D

 28 32  0  0  1  0  0  0  0  0999 V2000
  180.3260  179.4790  141.4480 C   0  0  0  0  0  0  0  0  0  0  0  0
  179.3960  177.0910  139.0590 O   0  0  0  0  0  0  0  0  0  0  0  0
  186.5200  178.8110  140.3040 O   0  0  0  0  0  1  0  0  0  0  0  0
  179.4040  181.7150  140.0290 C   0  0  0  0  0  3  0  0  0  0  0  0
  185.2310  178.9690  138.3130 C   0  0  2  0  0  3  0  0  0  0  0  0
  180.8150  178.3150  142.2510 C   0  0  0  0  0  2  0  0  0  0  0  0
  179.6630  177.2140  136.6160 O   0  0  0  0  0  0  0  0  0  0  0  0
  180.3850  177.0950  137.9270 S   0  0  0  0  0  0  0  0  0  0  0  0
  182.7300  175.6920  138.0700 C   0  0  0  0  0  0  0  0  0  0  0  0
  181.5280  178.4460  138.0950 C   0  0  2  0  0  3  0  0  0  0  0  0
  184.1990  179.0660  143.4540 O   0  0  0  0  0  0  0  0  0  0  0  0
  183.2070  179.5080  139.4810 C   0  0  2  0  0  3  0  0  0  0  0  0
  183.3960  176.8000  137.9270 N   0  0  0  0  0  0  0  0  0  0  0  0
  181.3100  175.6450  137.9480 N   0  0  0  0  0  2  0  0  0  0  0  0
  183.3010  178.6280  142.6900 C   0  0  0  0  0  0  0  0  0  0  0  0
  180.8020  179.7290  140.1450 C   0  0  0  0  0  0  0  0  0  0  0  0
  185.3050  178.4410  139.7260 C   0  0  2  0  0  3  0  0  0  0  0  0
  183.4310  174.5030  138.4100 N   0  0  0  0  0  1  0  0  0  0  0  0
  183.6890  178.0090  141.3860 C   0  0  0  0  0  2  0  0  0  0  0  0
  180.3400  180.8570  139.4470 C   0  0  0  0  0  3  0  0  0  0  0  0
  179.3920  180.3480  142.0250 C   0  0  0  0  0  3  0  0  0  0  0  0
  178.9310  181.4600  141.3170 C   0  0  0  0  0  3  0  0  0  0  0  0
  181.9310  178.7190  143.0940 N   0  0  0  0  0  2  0  0  0  0  0  0
  183.7560  179.2460  138.0870 C   0  0  2  0  0  3  0  0  0  0  0  0
  184.2000  179.0340  140.4760 N   0  0  2  0  0  0  0  0  0  0  0  0
  182.8880  178.1180  137.5010 C   0  0  2  0  0  3  0  0  0  0  0  0
  185.7630  178.0590  137.3950 O   0  0  0  0  0  1  0  0  0  0  0  0
  181.8320  178.8260  139.5320 C   0  0  1  0  0  3  0  0  0  0  0  0
  1 21  1  0  0  0  0
  1  6  1  0  0  0  0
  4 22  1  0  0  0  0
  5 27  1  6  0  0  0
  5 17  1  0  0  0  0
  6 23  1  0  0  0  0
  7  8  2  0  0  0  0
  8 14  1  0  0  0  0
  8  2  2  0  0  0  0
  9 18  1  0  0  0  0
 10  8  1  1  0  0  0
 10 28  1  0  0  0  0
 12 28  1  0  0  0  0
 12 25  1  0  0  0  0
 13  9  2  0  0  0  0
 14  9  1  0  0  0  0
 15 23  1  0  0  0  0
 15 11  2  0  0  0  0
 16  1  2  0  0  0  0
 17  3  1  0  0  0  0
 17 25  1  0  0  0  0
 19 15  1  0  0  0  0
 20  4  2  0  0  0  0
 20 16  1  0  0  0  0
 22 21  2  0  0  0  0
 24  5  1  0  0  0  0
 24 12  1  0  0  0  0
 25 19  1  0  0  0  0
 26 13  1  0  0  0  0
 26 24  1  0  0  0  0
 26 10  1  0  0  0  0
 28 16  1  0  0  0  0
M  END
>  <MODEL>
4

>  <REMARK>
 VINA RESULT:      -5.0      2.818      4.175
  Name = 
  0 active torsions:
  status: ('A' for Active; 'I' for Inactive)
                            x       y       z     vdW  Elec       q    Type
                         _______ _______ _______ _____ _____    ______ ____

>  <TORSDO>
F 0

$$$$
=
 OpenBabel11122411553D

 28 32  0  0  1  0  0  0  0  0999 V2000
  185.3840  175.2560  136.1160 C   0  0  0  0  0  0  0  0  0  0  0  0
  182.1250  175.7840  134.9460 O   0  0  0  0  0  0  0  0  0  0  0  0
  184.9420  179.7200  140.5890 O   0  0  0  0  0  1  0  0  0  0  0  0
  184.8900  172.7650  137.3060 C   0  0  0  0  0  3  0  0  0  0  0  0
  183.0300  178.3080  140.5080 C   0  0  2  0  0  3  0  0  0  0  0  0
  185.7020  176.5730  135.4800 C   0  0  0  0  0  2  0  0  0  0  0  0
  180.0080  175.3670  136.1290 O   0  0  0  0  0  0  0  0  0  0  0  0
  181.2430  176.2200  136.0830 S   0  0  0  0  0  0  0  0  0  0  0  0
  181.1250  178.8340  136.8820 C   0  0  0  0  0  0  0  0  0  0  0  0
  182.1050  176.0940  137.6320 C   0  0  2  0  0  3  0  0  0  0  0  0
  187.5650  178.6170  137.8910 O   0  0  0  0  0  0  0  0  0  0  0  0
  184.0230  176.7930  138.9360 C   0  0  2  0  0  3  0  0  0  0  0  0
  181.5410  178.4860  138.0650 N   0  0  0  0  0  0  0  0  0  0  0  0
  180.7990  177.8690  135.8840 N   0  0  0  0  0  2  0  0  0  0  0  0
  186.5720  178.1470  137.2780 C   0  0  0  0  0  0  0  0  0  0  0  0
  184.3780  175.1330  137.0940 C   0  0  0  0  0  0  0  0  0  0  0  0
  184.1000  179.0250  139.7190 C   0  0  2  0  0  3  0  0  0  0  0  0
  181.0440  180.2150  136.5570 N   0  0  0  0  0  1  0  0  0  0  0  0
  185.1960  178.5710  137.6830 C   0  0  0  0  0  2  0  0  0  0  0  0
  184.1440  173.8820  137.6900 C   0  0  0  0  0  3  0  0  0  0  0  0
  186.1300  174.1320  135.7420 C   0  0  0  0  0  3  0  0  0  0  0  0
  185.8810  172.8910  136.3310 C   0  0  0  0  0  3  0  0  0  0  0  0
  186.7830  177.2320  136.1990 N   0  0  0  0  0  2  0  0  0  0  0  0
  182.7350  177.0580  139.7010 C   0  0  2  0  0  3  0  0  0  0  0  0
  184.8660  178.0130  138.9940 N   0  0  2  0  0  0  0  0  0  0  0  0
  181.6240  177.1290  138.6360 C   0  0  2  0  0  3  0  0  0  0  0  0
  181.9040  179.1140  140.7000 O   0  0  0  0  0  1  0  0  0  0  0  0
  183.5990  176.3390  137.5320 C   0  0  1  0  0  3  0  0  0  0  0  0
  1 16  1  0  0  0  0
  2  8  2  0  0  0  0
  4 20  1  0  0  0  0
  5 27  1  6  0  0  0
  6  1  1  0  0  0  0
  6 23  1  0  0  0  0
  8  7  2  0  0  0  0
  9 13  2  0  0  0  0
 10  8  1  6  0  0  0
 10 26  1  0  0  0  0
 12 25  1  0  0  0  0
 12 24  1  0  0  0  0
 13 26  1  0  0  0  0
 14  8  1  0  0  0  0
 14  9  1  0  0  0  0
 15 19  1  0  0  0  0
 15 11  2  0  0  0  0
 16 28  1  0  0  0  0
 16 20  2  0  0  0  0
 17  5  1  0  0  0  0
 17  3  1  0  0  0  0
 18  9  1  0  0  0  0
 19 25  1  0  0  0  0
 21  1  2  0  0  0  0
 21 22  1  0  0  0  0
 22  4  2  0  0  0  0
 23 15  1  0  0  0  0
 24  5  1  0  0  0  0
 25 17  1  0  0  0  0
 26 24  1  0  0  0  0
 28 10  1  0  0  0  0
 28 12  1  0  0  0  0
M  END
>  <MODEL>
5

>  <REMARK>
 VINA RESULT:      -4.9      2.743      6.342
  Name = 
  0 active torsions:
  status: ('A' for Active; 'I' for Inactive)
                            x       y       z     vdW  Elec       q    Type
                         _______ _______ _______ _____ _____    ______ ____

>  <TORSDO>
F 0

$$$$
=
 OpenBabel11122411553D

 28 32  0  0  1  0  0  0  0  0999 V2000
  180.3770  175.2320  138.6820 C   0  0  0  0  0  0  0  0  0  0  0  0
  183.6930  175.6400  137.6280 O   0  0  0  0  0  0  0  0  0  0  0  0
  179.8880  181.1800  140.8050 O   0  0  0  0  0  1  0  0  0  0  0  0
  179.2460  175.1160  136.1180 C   0  0  0  0  0  3  0  0  0  0  0  0
  180.9050  181.0520  138.6590 C   0  0  2  0  0  3  0  0  0  0  0  0
  180.9360  175.2690  140.0700 C   0  0  0  0  0  2  0  0  0  0  0  0
  184.5400  177.0860  135.8260 O   0  0  0  0  0  0  0  0  0  0  0  0
  183.9150  177.0610  137.1920 S   0  0  0  0  0  0  0  0  0  0  0  0
  184.4940  179.0380  138.9930 C   0  0  0  0  0  0  0  0  0  0  0  0
  182.3790  177.9540  137.1540 C   0  0  2  0  0  3  0  0  0  0  0  0
  178.9310  177.5960  142.0760 O   0  0  0  0  0  0  0  0  0  0  0  0
  180.4520  178.7090  138.4140 C   0  0  2  0  0  3  0  0  0  0  0  0
  183.4190  179.6750  138.6320 N   0  0  0  0  0  0  0  0  0  0  0  0
  184.9410  177.8670  138.3120 N   0  0  0  0  0  2  0  0  0  0  0  0
  179.8570  177.2030  141.3210 C   0  0  0  0  0  0  0  0  0  0  0  0
  180.5830  176.2910  137.7750 C   0  0  0  0  0  0  0  0  0  0  0  0
  180.7560  180.4180  140.0230 C   0  0  2  0  0  3  0  0  0  0  0  0
  185.2150  179.4890  140.1320 N   0  0  0  0  0  1  0  0  0  0  0  0
  180.8450  178.1950  140.7990 C   0  0  0  0  0  2  0  0  0  0  0  0
  180.0060  176.2260  136.4960 C   0  0  0  0  0  3  0  0  0  0  0  0
  179.6100  174.1260  138.2960 C   0  0  0  0  0  3  0  0  0  0  0  0
  179.0500  174.0670  137.0180 C   0  0  0  0  0  3  0  0  0  0  0  0
  179.9510  175.8130  140.9950 N   0  0  0  0  0  2  0  0  0  0  0  0
  181.1260  179.8830  137.7180 C   0  0  2  0  0  3  0  0  0  0  0  0
  180.2010  179.0800  139.8280 N   0  0  2  0  0  0  0  0  0  0  0  0
  182.5730  179.4330  137.4480 C   0  0  2  0  0  3  0  0  0  0  0  0
  181.9490  181.9800  138.6330 O   0  0  0  0  0  1  0  0  0  0  0  0
  181.3700  177.4990  138.1930 C   0  0  1  0  0  3  0  0  0  0  0  0
  1  6  1  0  0  0  0
  4 20  2  0  0  0  0
  4 22  1  0  0  0  0
  5 27  1  1  0  0  0
  5 17  1  0  0  0  0
  6 23  1  0  0  0  0
  7  8  2  0  0  0  0
  8  2  2  0  0  0  0
  8 14  1  0  0  0  0
  9 18  1  0  0  0  0
 10  8  1  1  0  0  0
 10 26  1  0  0  0  0
 10 28  1  0  0  0  0
 12 25  1  0  0  0  0
 13  9  2  0  0  0  0
 14  9  1  0  0  0  0
 15 11  2  0  0  0  0
 16 28  1  0  0  0  0
 16  1  2  0  0  0  0
 17  3  1  0  0  0  0
 19 15  1  0  0  0  0
 20 16  1  0  0  0  0
 21  1  1  0  0  0  0
 22 21  2  0  0  0  0
 23 15  1  0  0  0  0
 24 12  1  0  0  0  0
 24  5  1  0  0  0  0
 25 17  1  0  0  0  0
 25 19  1  0  0  0  0
 26 24  1  0  0  0  0
 26 13  1  0  0  0  0
 28 12  1  0  0  0  0
M  END
>  <MODEL>
6

>  <REMARK>
 VINA RESULT:      -4.8      2.362      5.145
  Name = 
  0 active torsions:
  status: ('A' for Active; 'I' for Inactive)
                            x       y       z     vdW  Elec       q    Type
                         _______ _______ _______ _____ _____    ______ ____

>  <TORSDO>
F 0

$$$$
=
 OpenBabel11122411553D

 28 32  0  0  1  0  0  0  0  0999 V2000
  181.5550  178.3180  137.2030 C   0  0  0  0  0  0  0  0  0  0  0  0
  181.1830  174.8800  136.6480 O   0  0  0  0  0  0  0  0  0  0  0  0
  187.8610  177.9760  137.6840 O   0  0  0  0  0  1  0  0  0  0  0  0
  180.9130  179.1280  134.5960 C   0  0  0  0  0  3  0  0  0  0  0  0
  187.0130  176.7430  135.8360 C   0  0  2  0  0  3  0  0  0  0  0  0
  181.8850  177.9370  138.6120 C   0  0  0  0  0  2  0  0  0  0  0  0
  181.9510  173.5690  134.7120 O   0  0  0  0  0  0  0  0  0  0  0  0
  182.3860  174.3520  135.9180 S   0  0  0  0  0  0  0  0  0  0  0  0
  184.6720  173.6480  137.2470 C   0  0  0  0  0  0  0  0  0  0  0  0
  183.4460  175.6830  135.4070 C   0  0  2  0  0  3  0  0  0  0  0  0
  184.9310  179.7170  139.6210 O   0  0  0  0  0  0  0  0  0  0  0  0
  184.7820  177.5800  136.1030 C   0  0  2  0  0  3  0  0  0  0  0  0
  185.3350  174.5370  136.5670 N   0  0  0  0  0  0  0  0  0  0  0  0
  183.3090  173.3420  136.9590 N   0  0  0  0  0  2  0  0  0  0  0  0
  184.2190  178.7920  139.1520 C   0  0  0  0  0  0  0  0  0  0  0  0
  182.2870  177.8130  136.1110 C   0  0  0  0  0  0  0  0  0  0  0  0
  186.8000  177.1710  137.2690 C   0  0  2  0  0  3  0  0  0  0  0  0
  185.3060  173.0030  138.3430 N   0  0  0  0  0  1  0  0  0  0  0  0
  184.8800  177.5830  138.5720 C   0  0  0  0  0  2  0  0  0  0  0  0
  181.9630  178.2320  134.8100 C   0  0  0  0  0  3  0  0  0  0  0  0
  180.5070  179.2210  136.9790 C   0  0  0  0  0  3  0  0  0  0  0  0
  180.1850  179.6200  135.6810 C   0  0  0  0  0  3  0  0  0  0  0  0
  182.7940  178.9130  139.1980 N   0  0  0  0  0  2  0  0  0  0  0  0
  185.6140  176.6240  135.2620 C   0  0  2  0  0  3  0  0  0  0  0  0
  185.5530  177.9320  137.3210 N   0  0  2  0  0  0  0  0  0  0  0  0
  184.9060  175.2600  135.3550 C   0  0  2  0  0  3  0  0  0  0  0  0
  187.7400  175.5520  135.7560 O   0  0  0  0  0  1  0  0  0  0  0  0
  183.4380  176.8770  136.3430 C   0  0  1  0  0  3  0  0  0  0  0  0
  1  6  1  0  0  0  0
  4 20  2  0  0  0  0
  4 22  1  0  0  0  0
  5 27  1  1  0  0  0
  5 17  1  0  0  0  0
  6 23  1  0  0  0  0
  7  8  2  0  0  0  0
  8  2  2  0  0  0  0
  8 14  1  0  0  0  0
  9 18  1  0  0  0  0
 10  8  1  1  0  0  0
 10 28  1  0  0  0  0
 12 28  1  0  0  0  0
 12 25  1  0  0  0  0
 13  9  2  0  0  0  0
 14  9  1  0  0  0  0
 15 23  1  0  0  0  0
 15 11  2  0  0  0  0
 16 28  1  0  0  0  0
 16  1  2  0  0  0  0
 17 25  1  0  0  0  0
 17  3  1  0  0  0  0
 19 15  1  0  0  0  0
 20 16  1  0  0  0  0
 21  1  1  0  0  0  0
 22 21  2  0  0  0  0
 24 26  1  0  0  0  0
 24  5  1  0  0  0  0
 24 12  1  0  0  0  0
 25 19  1  0  0  0  0
 26 10  1  0  0  0  0
 26 13  1  0  0  0  0
M  END
>  <MODEL>
7

>  <REMARK>
 VINA RESULT:      -4.7      3.516      6.152
  Name = 
  0 active torsions:
  status: ('A' for Active; 'I' for Inactive)
                            x       y       z     vdW  Elec       q    Type
                         _______ _______ _______ _____ _____    ______ ____

>  <TORSDO>
F 0

$$$$
=
 OpenBabel11122411553D

 28 32  0  0  1  0  0  0  0  0999 V2000
  182.4290  178.3420  141.6440 C   0  0  0  0  0  0  0  0  0  0  0  0
  181.3540  175.1900  140.5580 O   0  0  0  0  0  0  0  0  0  0  0  0
  181.1960  181.1290  136.0910 O   0  0  0  0  0  1  0  0  0  0  0  0
  180.2750  178.8290  143.3720 C   0  0  0  0  0  3  0  0  0  0  0  0
  179.4320  179.7110  136.8180 C   0  0  2  0  0  3  0  0  0  0  0  0
  183.6080  178.1200  140.7500 C   0  0  0  0  0  2  0  0  0  0  0  0
  179.0760  174.5020  139.9340 O   0  0  0  0  0  0  0  0  0  0  0  0
  180.2540  175.3500  139.5480 S   0  0  0  0  0  0  0  0  0  0  0  0
  180.7930  175.8130  136.9050 C   0  0  0  0  0  0  0  0  0  0  0  0
  179.7450  177.0490  139.4350 C   0  0  2  0  0  3  0  0  0  0  0  0
  184.1130  181.1280  138.7110 O   0  0  0  0  0  0  0  0  0  0  0  0
  180.4170  179.3300  138.9710 C   0  0  2  0  0  3  0  0  0  0  0  0
  180.1440  176.9380  136.9740 N   0  0  0  0  0  0  0  0  0  0  0  0
  180.8140  174.8870  137.9890 N   0  0  0  0  0  2  0  0  0  0  0  0
  183.6790  179.9910  139.0290 C   0  0  0  0  0  0  0  0  0  0  0  0
  181.1100  178.3050  141.1490 C   0  0  0  0  0  0  0  0  0  0  0  0
  180.9250  179.9230  136.7370 C   0  0  2  0  0  3  0  0  0  0  0  0
  181.5480  175.5220  135.7370 N   0  0  0  0  0  1  0  0  0  0  0  0
  182.7330  179.2880  138.1100 C   0  0  0  0  0  2  0  0  0  0  0  0
  180.0390  178.5590  142.0210 C   0  0  0  0  0  3  0  0  0  0  0  0
  182.6550  178.6200  142.9980 C   0  0  0  0  0  3  0  0  0  0  0  0
  181.5830  178.8580  143.8590 C   0  0  0  0  0  3  0  0  0  0  0  0
  184.1120  179.3930  140.2540 N   0  0  0  0  0  2  0  0  0  0  0  0
  179.2260  178.9400  138.1090 C   0  0  2  0  0  3  0  0  0  0  0  0
  181.4380  179.9690  138.1050 N   0  0  2  0  0  0  0  0  0  0  0  0
  179.2410  177.4020  138.0450 C   0  0  2  0  0  3  0  0  0  0  0  0
  178.9460  179.0360  135.6950 O   0  0  0  0  0  1  0  0  0  0  0  0
  180.8580  178.0480  139.6920 C   0  0  1  0  0  3  0  0  0  0  0  0
  1 21  1  0  0  0  0
  3 17  1  0  0  0  0
  4 22  1  0  0  0  0
  5 27  1  6  0  0  0
  5 24  1  0  0  0  0
  6  1  1  0  0  0  0
  8  7  2  0  0  0  0
  8  2  2  0  0  0  0
  9 13  2  0  0  0  0
  9 14  1  0  0  0  0
 10  8  1  6  0  0  0
 10 28  1  0  0  0  0
 11 15  2  0  0  0  0
 12 28  1  0  0  0  0
 13 26  1  0  0  0  0
 14  8  1  0  0  0  0
 15 23  1  0  0  0  0
 16  1  2  0  0  0  0
 16 20  1  0  0  0  0
 17  5  1  0  0  0  0
 17 25  1  0  0  0  0
 18  9  1  0  0  0  0
 19 15  1  0  0  0  0
 20  4  2  0  0  0  0
 21 22  2  0  0  0  0
 23  6  1  0  0  0  0
 24 12  1  0  0  0  0
 25 19  1  0  0  0  0
 25 12  1  0  0  0  0
 26 24  1  0  0  0  0
 26 10  1  0  0  0  0
 28 16  1  0  0  0  0
M  END
>  <MODEL>
8

>  <REMARK>
 VINA RESULT:      -4.7      2.279      4.727
  Name = 
  0 active torsions:
  status: ('A' for Active; 'I' for Inactive)
                            x       y       z     vdW  Elec       q    Type
                         _______ _______ _______ _____ _____    ______ ____

>  <TORSDO>
F 0

$$$$
=
 OpenBabel11122411553D

 28 32  0  0  1  0  0  0  0  0999 V2000
  190.1710  173.5880  136.3270 C   0  0  0  0  0  0  0  0  0  0  0  0
  191.3770  175.2640  139.1570 O   0  0  0  0  0  0  0  0  0  0  0  0
  185.2850  177.5440  135.5590 O   0  0  0  0  0  1  0  0  0  0  0  0
  192.2270  174.3810  134.5940 C   0  0  0  0  0  3  0  0  0  0  0  0
  187.3280  178.6820  135.9860 C   0  0  2  0  0  3  0  0  0  0  0  0
  189.0630  173.1230  137.2180 C   0  0  0  0  0  2  0  0  0  0  0  0
  192.3060  177.5390  139.2850 O   0  0  0  0  0  0  0  0  0  0  0  0
  191.0620  176.7300  139.0490 S   0  0  0  0  0  0  0  0  0  0  0  0
  188.6250  177.7300  139.7890 C   0  0  0  0  0  0  0  0  0  0  0  0
  190.4030  177.1160  137.4450 C   0  0  2  0  0  3  0  0  0  0  0  0
  185.8700  173.6680  135.4950 O   0  0  0  0  0  0  0  0  0  0  0  0
  188.6510  176.6880  135.8280 C   0  0  2  0  0  3  0  0  0  0  0  0
  188.4410  178.1640  138.5770 N   0  0  0  0  0  0  0  0  0  0  0  0
  189.8650  177.1610  140.2060 N   0  0  0  0  0  2  0  0  0  0  0  0
  186.8540  173.9160  136.2380 C   0  0  0  0  0  0  0  0  0  0  0  0
  190.4370  174.9580  136.1340 C   0  0  0  0  0  0  0  0  0  0  0  0
  186.4690  177.4780  136.2930 C   0  0  2  0  0  3  0  0  0  0  0  0
  187.5440  177.7730  140.7100 N   0  0  0  0  0  1  0  0  0  0  0  0
  186.9500  175.2520  136.9010 C   0  0  0  0  0  2  0  0  0  0  0  0
  191.4640  175.3440  135.2570 C   0  0  0  0  0  3  0  0  0  0  0  0
  190.9380  172.6300  135.6530 C   0  0  0  0  0  3  0  0  0  0  0  0
  191.9650  173.0240  134.7940 C   0  0  0  0  0  3  0  0  0  0  0  0
  187.8490  172.9080  136.4430 N   0  0  0  0  0  2  0  0  0  0  0  0
  188.7530  178.1770  136.1190 C   0  0  2  0  0  3  0  0  0  0  0  0
  187.2240  176.2880  135.9050 N   0  0  2  0  0  0  0  0  0  0  0  0
  189.4360  178.2880  137.4950 C   0  0  2  0  0  3  0  0  0  0  0  0
  187.0440  179.7490  136.8420 O   0  0  0  0  0  1  0  0  0  0  0  0
  189.5950  175.9930  136.8200 C   0  0  1  0  0  3  0  0  0  0  0  0
  1  6  1  0  0  0  0
  3 17  1  0  0  0  0
  4 22  2  0  0  0  0
  4 20  1  0  0  0  0
  5 24  1  0  0  0  0
  5 17  1  0  0  0  0
  5 27  1  1  0  0  0
  8  2  2  0  0  0  0
  8  7  2  0  0  0  0
  8 14  1  0  0  0  0
  9 14  1  0  0  0  0
  9 18  1  0  0  0  0
 10 26  1  0  0  0  0
 10  8  1  1  0  0  0
 11 15  2  0  0  0  0
 12 25  1  0  0  0  0
 12 24  1  0  0  0  0
 12 28  1  0  0  0  0
 13  9  2  0  0  0  0
 15 23  1  0  0  0  0
 15 19  1  0  0  0  0
 16  1  1  0  0  0  0
 16 28  1  0  0  0  0
 20 16  2  0  0  0  0
 21  1  2  0  0  0  0
 22 21  1  0  0  0  0
 23  6  1  0  0  0  0
 24 26  1  0  0  0  0
 25 17  1  0  0  0  0
 25 19  1  0  0  0  0
 26 13  1  0  0  0  0
 28 10  1  0  0  0  0
M  END
>  <MODEL>
9

>  <REMARK>
 VINA RESULT:      -4.6      6.757      9.516
  Name = 
  0 active torsions:
  status: ('A' for Active; 'I' for Inactive)
                            x       y       z     vdW  Elec       q    Type
                         _______ _______ _______ _____ _____    ______ ____

>  <TORSDO>
F 0

$$$$
