=
 OpenBabel11122411513D

 28 32  0  0  1  0  0  0  0  0999 V2000
  186.4280  177.4560  143.0970 C   0  0  0  0  0  0  0  0  0  0  0  0
  187.0310  178.1480  138.7130 O   0  0  0  0  0  0  0  0  0  0  0  0
  192.3100  179.0090  144.1020 O   0  0  0  0  0  1  0  0  0  0  0  0
  185.1830  179.6520  141.8730 C   0  0  0  0  0  3  0  0  0  0  0  0
  191.8250  177.3470  142.4100 C   0  0  1  0  0  3  0  0  0  0  0  0
  187.0440  176.3290  143.8670 C   0  0  0  0  0  2  0  0  0  0  0  0
  189.0720  179.4990  139.0600 O   0  0  0  0  0  0  0  0  0  0  0  0
  188.4960  178.1110  139.0420 S   0  0  0  0  0  0  0  0  0  0  0  0
  190.1920  176.0300  138.3360 C   0  0  0  0  0  0  0  0  0  0  0  0
  188.7640  177.2860  140.5860 C   0  0  1  0  0  3  0  0  0  0  0  0
  187.9990  178.4710  146.9090 C   0  0  0  0  0  1  0  0  0  0  0  0
  189.5060  177.2770  142.7950 C   0  0  1  0  0  3  0  0  0  0  0  0
  190.5740  175.8990  139.6170 C   0  0  0  0  0  2  0  0  0  0  0  0
  189.3460  177.1150  137.8990 N   0  0  0  0  0  0  0  0  0  0  0  0
  188.1540  177.9380  145.5000 C   0  0  1  0  0  3  0  0  0  0  0  0
  187.1800  178.3050  142.2410 C   0  0  0  0  0  0  0  0  0  0  0  0
  191.5900  177.8420  143.8270 C   0  0  2  0  0  3  0  0  0  0  0  0
  190.6260  175.0110  137.3470 C   0  0  0  0  0  1  0  0  0  0  0  0
  189.6140  177.5820  145.2650 C   0  0  0  0  0  2  0  0  0  0  0  0
  186.5360  179.3980  141.6440 C   0  0  0  0  0  3  0  0  0  0  0  0
  185.0700  177.7210  143.3180 C   0  0  0  0  0  3  0  0  0  0  0  0
  184.4490  178.8100  142.7060 C   0  0  0  0  0  3  0  0  0  0  0  0
  187.2580  176.7130  145.3330 C   0  0  0  0  0  2  0  0  0  0  0  0
  190.5830  176.6650  142.0010 N   0  0  1  0  0  0  0  0  0  0  0  0
  190.1070  178.1000  143.9200 C   0  0  2  0  0  3  0  0  0  0  0  0
  190.2230  176.9590  140.6140 C   0  0  2  0  0  3  0  0  0  0  0  0
  192.1480  178.4230  141.5660 O   0  0  0  0  0  1  0  0  0  0  0  0
  188.6270  178.0950  141.8440 C   0  0  2  0  0  3  0  0  0  0  0  0
  1 21  1  0  0  0  0
  1  6  1  0  0  0  0
  2  8  2  0  0  0  0
  4 22  1  0  0  0  0
  5 27  1  6  0  0  0
  5 17  1  0  0  0  0
  6 23  1  0  0  0  0
  8  7  2  0  0  0  0
  9 13  1  0  0  0  0
 10  8  1  6  0  0  0
 10 26  1  0  0  0  0
 10 28  1  0  0  0  0
 12 25  1  0  0  0  0
 13 26  1  0  0  0  0
 14  9  2  0  0  0  0
 14  8  1  0  0  0  0
 15 11  1  0  0  0  0
 16  1  2  0  0  0  0
 17 25  1  0  0  0  0
 17  3  1  0  0  0  0
 18  9  1  0  0  0  0
 19 15  1  0  0  0  0
 20  4  2  0  0  0  0
 20 16  1  0  0  0  0
 22 21  2  0  0  0  0
 23 15  1  0  0  0  0
 24  5  1  0  0  0  0
 24 12  1  0  0  0  0
 25 19  1  0  0  0  0
 26 24  1  0  0  0  0
 28 16  1  0  0  0  0
 28 12  1  0  0  0  0
M  END
>  <MODEL>
1

>  <REMARK>
 VINA RESULT:      -7.2      0.000      0.000
  Name = 
  0 active torsions:
  status: ('A' for Active; 'I' for Inactive)
                            x       y       z     vdW  Elec       q    Type
                         _______ _______ _______ _____ _____    ______ ____

>  <TORSDO>
F 0

$$$$
=
 OpenBabel11122411513D

 28 32  0  0  1  0  0  0  0  0999 V2000
  187.4740  177.5840  136.5900 C   0  0  0  0  0  0  0  0  0  0  0  0
  183.1060  176.7980  135.9870 O   0  0  0  0  0  0  0  0  0  0  0  0
  186.5420  177.8240  142.6800 O   0  0  0  0  0  1  0  0  0  0  0  0
  186.6450  175.0490  135.7180 C   0  0  0  0  0  3  0  0  0  0  0  0
  185.1320  179.1650  141.2400 C   0  0  1  0  0  3  0  0  0  0  0  0
  188.0410  178.8880  137.0590 C   0  0  0  0  0  2  0  0  0  0  0  0
  182.7600  176.1040  138.3350 O   0  0  0  0  0  0  0  0  0  0  0  0
  182.9590  177.2690  137.4070 S   0  0  0  0  0  0  0  0  0  0  0  0
  181.8110  179.6910  138.1260 C   0  0  0  0  0  0  0  0  0  0  0  0
  184.3620  178.2370  137.8860 C   0  0  1  0  0  3  0  0  0  0  0  0
  190.5720  177.3110  139.4790 C   0  0  0  0  0  1  0  0  0  0  0  0
  186.2260  178.6030  139.2350 C   0  0  1  0  0  3  0  0  0  0  0  0
  182.9110  180.0100  138.8290 C   0  0  0  0  0  2  0  0  0  0  0  0
  181.6340  178.3850  137.5380 N   0  0  0  0  0  0  0  0  0  0  0  0
  189.2010  177.7700  139.0330 C   0  0  1  0  0  3  0  0  0  0  0  0
  186.4030  176.9260  137.2530 C   0  0  0  0  0  0  0  0  0  0  0  0
  186.5370  178.7190  141.6060 C   0  0  2  0  0  3  0  0  0  0  0  0
  180.7620  180.7230  137.9210 C   0  0  0  0  0  1  0  0  0  0  0  0
  188.5290  178.5070  140.1810 C   0  0  0  0  0  2  0  0  0  0  0  0
  186.0100  175.6590  136.8010 C   0  0  0  0  0  3  0  0  0  0  0  0
  188.1020  176.9620  135.5030 C   0  0  0  0  0  3  0  0  0  0  0  0
  187.6880  175.7040  135.0650 C   0  0  0  0  0  3  0  0  0  0  0  0
  189.3550  178.6790  137.8140 C   0  0  0  0  0  2  0  0  0  0  0  0
  185.1500  179.4400  139.7910 N   0  0  1  0  0  0  0  0  0  0  0  0
  187.0840  178.0600  140.3640 C   0  0  2  0  0  3  0  0  0  0  0  0
  183.9390  178.9640  139.1230 C   0  0  2  0  0  3  0  0  0  0  0  0
  184.2010  178.1690  141.5840 O   0  0  0  0  0  1  0  0  0  0  0  0
  185.5780  177.5090  138.3830 C   0  0  2  0  0  3  0  0  0  0  0  0
  1  6  1  0  0  0  0
  1 16  1  0  0  0  0
  2  8  2  0  0  0  0
  4 20  1  0  0  0  0
  5 27  1  6  0  0  0
  5 17  1  0  0  0  0
  6 23  1  0  0  0  0
  8 14  1  0  0  0  0
  8  7  2  0  0  0  0
  9 13  1  0  0  0  0
 10  8  1  1  0  0  0
 10 28  1  0  0  0  0
 10 26  1  0  0  0  0
 12 24  1  0  0  0  0
 12 25  1  0  0  0  0
 13 26  1  0  0  0  0
 14  9  2  0  0  0  0
 15 11  1  0  0  0  0
 15 19  1  0  0  0  0
 16 28  1  0  0  0  0
 17  3  1  0  0  0  0
 18  9  1  0  0  0  0
 19 25  1  0  0  0  0
 20 16  2  0  0  0  0
 21  1  2  0  0  0  0
 22 21  1  0  0  0  0
 22  4  2  0  0  0  0
 23 15  1  0  0  0  0
 24  5  1  0  0  0  0
 25 17  1  0  0  0  0
 26 24  1  0  0  0  0
 28 12  1  0  0  0  0
M  END
>  <MODEL>
2

>  <REMARK>
 VINA RESULT:      -6.7      4.034      7.067
  Name = 
  0 active torsions:
  status: ('A' for Active; 'I' for Inactive)
                            x       y       z     vdW  Elec       q    Type
                         _______ _______ _______ _____ _____    ______ ____

>  <TORSDO>
F 0

$$$$
=
 OpenBabel11122411513D

 28 32  0  0  1  0  0  0  0  0999 V2000
  188.0780  177.1290  142.3280 C   0  0  0  0  0  0  0  0  0  0  0  0
  186.2220  177.4950  138.2680 O   0  0  0  0  0  0  0  0  0  0  0  0
  193.6130  178.2270  139.8430 O   0  0  0  0  0  1  0  0  0  0  0  0
  186.4540  179.3440  141.7590 C   0  0  0  0  0  3  0  0  0  0  0  0
  192.2210  176.5120  138.8540 C   0  0  1  0  0  3  0  0  0  0  0  0
  188.9700  176.0030  142.7510 C   0  0  0  0  0  2  0  0  0  0  0  0
  188.1730  178.6840  137.3250 O   0  0  0  0  0  0  0  0  0  0  0  0
  187.6280  177.3520  137.7570 S   0  0  0  0  0  0  0  0  0  0  0  0
  188.5820  175.0930  136.4570 C   0  0  0  0  0  0  0  0  0  0  0  0
  188.6610  176.6040  138.9850 C   0  0  1  0  0  3  0  0  0  0  0  0
  191.5100  178.2370  144.5680 C   0  0  0  0  0  1  0  0  0  0  0  0
  190.4850  176.6660  140.4330 C   0  0  1  0  0  3  0  0  0  0  0  0
  189.5950  175.0090  137.3350 C   0  0  0  0  0  2  0  0  0  0  0  0
  187.6780  176.2180  136.4410 N   0  0  0  0  0  0  0  0  0  0  0  0
  190.8520  177.6080  143.3600 C   0  0  1  0  0  3  0  0  0  0  0  0
  188.2750  177.8550  141.1230 C   0  0  0  0  0  0  0  0  0  0  0  0
  192.8150  177.1120  140.1170 C   0  0  2  0  0  3  0  0  0  0  0  0
  188.3670  173.9810  135.4960 C   0  0  0  0  0  1  0  0  0  0  0  0
  191.9320  177.1130  142.4110 C   0  0  0  0  0  2  0  0  0  0  0  0
  187.4530  178.9610  140.8630 C   0  0  0  0  0  3  0  0  0  0  0  0
  187.0710  177.5240  143.2180 C   0  0  0  0  0  3  0  0  0  0  0  0
  186.2600  178.6220  142.9340 C   0  0  0  0  0  3  0  0  0  0  0  0
  189.9620  176.4560  143.8240 C   0  0  0  0  0  2  0  0  0  0  0  0
  190.9310  175.9160  139.2480 N   0  0  1  0  0  0  0  0  0  0  0  0
  191.6330  177.5030  140.9690 C   0  0  2  0  0  3  0  0  0  0  0  0
  189.8850  176.1540  138.2530 C   0  0  2  0  0  3  0  0  0  0  0  0
  192.0730  177.5030  137.8680 O   0  0  0  0  0  1  0  0  0  0  0  0
  189.2630  177.4970  140.0310 C   0  0  2  0  0  3  0  0  0  0  0  0
  1  6  1  0  0  0  0
  1 21  1  0  0  0  0
  3 17  1  0  0  0  0
  4 22  1  0  0  0  0
  5 27  1  6  0  0  0
  5 24  1  0  0  0  0
  5 17  1  0  0  0  0
  6 23  1  0  0  0  0
  7  8  2  0  0  0  0
  8  2  2  0  0  0  0
  9 13  1  0  0  0  0
 10  8  1  6  0  0  0
 10 28  1  0  0  0  0
 12 25  1  0  0  0  0
 13 26  1  0  0  0  0
 14  9  2  0  0  0  0
 14  8  1  0  0  0  0
 15 23  1  0  0  0  0
 15 11  1  0  0  0  0
 16  1  2  0  0  0  0
 17 25  1  0  0  0  0
 18  9  1  0  0  0  0
 19 15  1  0  0  0  0
 20 16  1  0  0  0  0
 20  4  2  0  0  0  0
 22 21  2  0  0  0  0
 24 12  1  0  0  0  0
 25 19  1  0  0  0  0
 26 10  1  0  0  0  0
 26 24  1  0  0  0  0
 28 12  1  0  0  0  0
 28 16  1  0  0  0  0
M  END
>  <MODEL>
3

>  <REMARK>
 VINA RESULT:      -6.7      1.869      2.787
  Name = 
  0 active torsions:
  status: ('A' for Active; 'I' for Inactive)
                            x       y       z     vdW  Elec       q    Type
                         _______ _______ _______ _____ _____    ______ ____

>  <TORSDO>
F 0

$$$$
=
 OpenBabel11122411513D

 28 32  0  0  1  0  0  0  0  0999 V2000
  184.4040  175.2560  137.3100 C   0  0  0  0  0  0  0  0  0  0  0  0
  186.4480  178.6280  139.4350 O   0  0  0  0  0  0  0  0  0  0  0  0
  179.0010  178.1370  138.0370 O   0  0  0  0  0  1  0  0  0  0  0  0
  186.0780  176.9770  135.8580 C   0  0  0  0  0  3  0  0  0  0  0  0
  180.4180  177.8280  139.9750 C   0  0  1  0  0  3  0  0  0  0  0  0
  183.4810  174.2780  137.9680 C   0  0  0  0  0  2  0  0  0  0  0  0
  184.5550  180.1810  139.0940 O   0  0  0  0  0  0  0  0  0  0  0  0
  185.0660  179.0090  139.8840 S   0  0  0  0  0  0  0  0  0  0  0  0
  184.1450  178.7210  142.4870 C   0  0  0  0  0  0  0  0  0  0  0  0
  183.9690  177.6250  139.7580 C   0  0  1  0  0  3  0  0  0  0  0  0
  180.8860  174.2920  135.1370 C   0  0  0  0  0  1  0  0  0  0  0  0
  182.0810  176.5890  138.8670 C   0  0  1  0  0  3  0  0  0  0  0  0
  183.0920  178.0150  142.0420 C   0  0  0  0  0  2  0  0  0  0  0  0
  185.0620  179.3740  141.5830 N   0  0  0  0  0  0  0  0  0  0  0  0
  181.5920  174.8450  136.3560 C   0  0  1  0  0  3  0  0  0  0  0  0
  184.2710  176.6630  137.4620 C   0  0  0  0  0  0  0  0  0  0  0  0
  179.7730  177.2120  138.7450 C   0  0  2  0  0  3  0  0  0  0  0  0
  184.3910  178.8040  143.9490 C   0  0  0  0  0  1  0  0  0  0  0  0
  180.5500  175.3480  137.3430 C   0  0  0  0  0  2  0  0  0  0  0  0
  185.1170  177.5020  136.7230 C   0  0  0  0  0  3  0  0  0  0  0  0
  185.3740  174.7420  136.4390 C   0  0  0  0  0  3  0  0  0  0  0  0
  186.2100  175.5970  135.7200 C   0  0  0  0  0  3  0  0  0  0  0  0
  182.4460  173.7420  136.9770 C   0  0  0  0  0  2  0  0  0  0  0  0
  181.6820  177.0980  140.1890 N   0  0  1  0  0  0  0  0  0  0  0  0
  180.9190  176.7180  137.8980 C   0  0  2  0  0  3  0  0  0  0  0  0
  182.7740  177.9890  140.5800 C   0  0  2  0  0  3  0  0  0  0  0  0
  180.6210  179.2050  139.7780 O   0  0  0  0  0  1  0  0  0  0  0  0
  183.3300  177.3580  138.4250 C   0  0  2  0  0  3  0  0  0  0  0  0
  1 16  1  0  0  0  0
  1  6  1  0  0  0  0
  2  8  2  0  0  0  0
  3 17  1  0  0  0  0
  4 20  1  0  0  0  0
  5 27  1  6  0  0  0
  5 24  1  0  0  0  0
  7  8  2  0  0  0  0
  8 14  1  0  0  0  0
  9 18  1  0  0  0  0
 10  8  1  6  0  0  0
 10 26  1  0  0  0  0
 11 15  1  0  0  0  0
 12 24  1  0  0  0  0
 13  9  1  0  0  0  0
 14  9  2  0  0  0  0
 15 23  1  0  0  0  0
 15 19  1  0  0  0  0
 16 28  1  0  0  0  0
 17  5  1  0  0  0  0
 19 25  1  0  0  0  0
 20 16  2  0  0  0  0
 21  1  2  0  0  0  0
 22  4  2  0  0  0  0
 22 21  1  0  0  0  0
 23  6  1  0  0  0  0
 24 26  1  0  0  0  0
 25 17  1  0  0  0  0
 25 12  1  0  0  0  0
 26 13  1  0  0  0  0
 28 12  1  0  0  0  0
 28 10  1  0  0  0  0
M  END
>  <MODEL>
4

>  <REMARK>
 VINA RESULT:      -6.0      5.637      8.988
  Name = 
  0 active torsions:
  status: ('A' for Active; 'I' for Inactive)
                            x       y       z     vdW  Elec       q    Type
                         _______ _______ _______ _____ _____    ______ ____

>  <TORSDO>
F 0

$$$$
=
 OpenBabel11122411513D

 28 32  0  0  1  0  0  0  0  0999 V2000
  184.1240  175.0570  136.8540 C   0  0  0  0  0  0  0  0  0  0  0  0
  188.2250  176.8000  137.3160 O   0  0  0  0  0  0  0  0  0  0  0  0
  181.6900  180.6100  137.9760 O   0  0  0  0  0  1  0  0  0  0  0  0
  185.7690  175.3080  134.5950 C   0  0  0  0  0  3  0  0  0  0  0  0
  183.3440  179.7390  139.5140 C   0  0  1  0  0  3  0  0  0  0  0  0
  183.1500  174.8800  137.9770 C   0  0  0  0  0  2  0  0  0  0  0  0
  187.4320  179.1190  136.9960 O   0  0  0  0  0  0  0  0  0  0  0  0
  187.5160  177.9620  137.9510 S   0  0  0  0  0  0  0  0  0  0  0  0
  187.6160  178.5450  140.6630 C   0  0  0  0  0  0  0  0  0  0  0  0
  185.9080  177.4770  138.5130 C   0  0  1  0  0  3  0  0  0  0  0  0
  180.1030  176.1070  135.9870 C   0  0  0  0  0  1  0  0  0  0  0  0
  183.5860  177.6530  138.4570 C   0  0  1  0  0  3  0  0  0  0  0  0
  186.2730  178.5460  140.7180 C   0  0  0  0  0  2  0  0  0  0  0  0
  188.3280  178.4380  139.4130 N   0  0  0  0  0  0  0  0  0  0  0  0
  181.3830  176.2690  136.7770 C   0  0  1  0  0  3  0  0  0  0  0  0
  184.8000  176.2820  136.6070 C   0  0  0  0  0  0  0  0  0  0  0  0
  182.0740  179.4900  138.7180 C   0  0  2  0  0  3  0  0  0  0  0  0
  188.3890  178.6240  141.9290 C   0  0  0  0  0  1  0  0  0  0  0  0
  181.2000  177.3880  137.7910 C   0  0  0  0  0  2  0  0  0  0  0  0
  185.6140  176.3840  135.4700 C   0  0  0  0  0  3  0  0  0  0  0  0
  184.2900  173.9840  135.9680 C   0  0  0  0  0  3  0  0  0  0  0  0
  185.1110  174.1060  134.8470 C   0  0  0  0  0  3  0  0  0  0  0  0
  181.7070  174.9480  137.4720 C   0  0  0  0  0  2  0  0  0  0  0  0
  184.0260  178.4360  139.6220 N   0  0  1  0  0  0  0  0  0  0  0  0
  182.3940  178.3330  137.8050 C   0  0  2  0  0  3  0  0  0  0  0  0
  185.4740  178.5550  139.4540 C   0  0  2  0  0  3  0  0  0  0  0  0
  184.1360  180.7070  138.8720 O   0  0  0  0  0  1  0  0  0  0  0  0
  184.7850  177.4940  137.5170 C   0  0  2  0  0  3  0  0  0  0  0  0
  1  6  1  0  0  0  0
  2  8  2  0  0  0  0
  3 17  1  0  0  0  0
  4 22  2  0  0  0  0
  4 20  1  0  0  0  0
  5 27  1  6  0  0  0
  5 24  1  0  0  0  0
  7  8  2  0  0  0  0
  8 14  1  0  0  0  0
  9 13  1  0  0  0  0
  9 18  1  0  0  0  0
 10  8  1  6  0  0  0
 10 26  1  0  0  0  0
 11 15  1  0  0  0  0
 12 24  1  0  0  0  0
 14  9  2  0  0  0  0
 15 23  1  0  0  0  0
 15 19  1  0  0  0  0
 16  1  1  0  0  0  0
 16 28  1  0  0  0  0
 17  5  1  0  0  0  0
 19 25  1  0  0  0  0
 20 16  2  0  0  0  0
 21  1  2  0  0  0  0
 22 21  1  0  0  0  0
 23  6  1  0  0  0  0
 25 12  1  0  0  0  0
 25 17  1  0  0  0  0
 26 24  1  0  0  0  0
 26 13  1  0  0  0  0
 28 12  1  0  0  0  0
 28 10  1  0  0  0  0
M  END
>  <MODEL>
5

>  <REMARK>
 VINA RESULT:      -5.8      4.934      7.940
  Name = 
  0 active torsions:
  status: ('A' for Active; 'I' for Inactive)
                            x       y       z     vdW  Elec       q    Type
                         _______ _______ _______ _____ _____    ______ ____

>  <TORSDO>
F 0

$$$$
=
 OpenBabel11122411513D

 28 32  0  0  1  0  0  0  0  0999 V2000
  189.1290  177.8970  138.5280 C   0  0  0  0  0  0  0  0  0  0  0  0
  193.4650  176.9760  139.1690 O   0  0  0  0  0  0  0  0  0  0  0  0
  188.5990  172.7910  135.1120 O   0  0  0  0  0  1  0  0  0  0  0  0
  190.0000  177.1100  141.0750 C   0  0  0  0  0  3  0  0  0  0  0  0
  190.3830  174.3450  134.6010 C   0  0  1  0  0  3  0  0  0  0  0  0
  188.5390  178.3160  137.2170 C   0  0  0  0  0  2  0  0  0  0  0  0
  193.2050  174.6040  138.5250 O   0  0  0  0  0  0  0  0  0  0  0  0
  193.2960  176.0180  138.0250 S   0  0  0  0  0  0  0  0  0  0  0  0
  194.3720  176.4150  135.4970 C   0  0  0  0  0  0  0  0  0  0  0  0
  191.8750  176.4490  137.0600 C   0  0  1  0  0  3  0  0  0  0  0  0
  185.4230  176.0920  137.5120 C   0  0  0  0  0  1  0  0  0  0  0  0
  189.7670  175.9580  136.1970 C   0  0  1  0  0  3  0  0  0  0  0  0
  193.1560  176.2550  134.9480 C   0  0  0  0  0  3  0  0  0  0  0  0
  194.6110  176.1810  136.9010 N   0  0  0  0  0  2  0  0  0  0  0  0
  186.8840  176.3800  137.2440 C   0  0  1  0  0  3  0  0  0  0  0  0
  189.9730  176.7620  138.6640 C   0  0  0  0  0  0  0  0  0  0  0  0
  188.9080  174.1380  134.9020 C   0  0  2  0  0  3  0  0  0  0  0  0
  195.4940  176.8760  134.6400 C   0  0  0  0  0  1  0  0  0  0  0  0
  187.3040  175.6610  135.9720 C   0  0  0  0  0  2  0  0  0  0  0  0
  190.3920  176.3870  139.9480 C   0  0  0  0  0  3  0  0  0  0  0  0
  188.7430  178.6150  139.6670 C   0  0  0  0  0  3  0  0  0  0  0  0
  189.1800  178.2270  140.9340 C   0  0  0  0  0  3  0  0  0  0  0  0
  187.0740  177.8900  137.1090 C   0  0  0  0  0  2  0  0  0  0  0  0
  190.7240  175.6850  135.1140 N   0  0  1  0  0  0  0  0  0  0  0  0
  188.6360  174.9450  136.1460 C   0  0  2  0  0  3  0  0  0  0  0  0
  192.0310  175.7090  135.7700 C   0  0  2  0  0  3  0  0  0  0  0  0
  191.1490  173.3310  135.2010 O   0  0  0  0  0  1  0  0  0  0  0  0
  190.5380  175.9430  137.5210 C   0  0  2  0  0  3  0  0  0  0  0  0
  1 16  2  0  0  0  0
  1 21  1  0  0  0  0
  5 17  1  0  0  0  0
  5 24  1  0  0  0  0
  5 27  1  1  0  0  0
  6  1  1  0  0  0  0
  8  7  2  0  0  0  0
  8  2  2  0  0  0  0
  9 14  1  0  0  0  0
 10 28  1  0  0  0  0
 10  8  1  1  0  0  0
 12 28  1  0  0  0  0
 13  9  2  0  0  0  0
 13 26  1  0  0  0  0
 14  8  1  0  0  0  0
 15 11  1  0  0  0  0
 16 20  1  0  0  0  0
 17  3  1  0  0  0  0
 17 25  1  0  0  0  0
 18  9  1  0  0  0  0
 19 25  1  0  0  0  0
 19 15  1  0  0  0  0
 20  4  2  0  0  0  0
 21 22  2  0  0  0  0
 22  4  1  0  0  0  0
 23  6  1  0  0  0  0
 23 15  1  0  0  0  0
 24 26  1  0  0  0  0
 24 12  1  0  0  0  0
 25 12  1  0  0  0  0
 26 10  1  0  0  0  0
 28 16  1  0  0  0  0
M  END
>  <MODEL>
6

>  <REMARK>
 VINA RESULT:      -5.7      3.952      7.067
  Name = 
  0 active torsions:
  status: ('A' for Active; 'I' for Inactive)
                            x       y       z     vdW  Elec       q    Type
                         _______ _______ _______ _____ _____    ______ ____

>  <TORSDO>
F 0

$$$$
=
 OpenBabel11122411513D

 28 32  0  0  1  0  0  0  0  0999 V2000
  186.3510  177.7400  143.1650 C   0  0  0  0  0  0  0  0  0  0  0  0
  182.4890  178.6960  141.1070 O   0  0  0  0  0  0  0  0  0  0  0  0
  189.4300  179.7470  138.2150 O   0  0  0  0  0  1  0  0  0  0  0  0
  184.7920  179.8770  144.1000 C   0  0  0  0  0  3  0  0  0  0  0  0
  187.6540  178.1340  137.8970 C   0  0  1  0  0  3  0  0  0  0  0  0
  187.2750  176.6350  142.7570 C   0  0  0  0  0  2  0  0  0  0  0  0
  183.5680  180.2010  139.4690 O   0  0  0  0  0  0  0  0  0  0  0  0
  183.3240  178.7700  139.8590 S   0  0  0  0  0  0  0  0  0  0  0  0
  183.2460  176.8820  137.8270 C   0  0  0  0  0  0  0  0  0  0  0  0
  184.8490  177.8970  140.0810 C   0  0  1  0  0  3  0  0  0  0  0  0
  190.4870  178.7000  143.1680 C   0  0  0  0  0  1  0  0  0  0  0  0
  187.1760  177.8440  140.1800 C   0  0  1  0  0  3  0  0  0  0  0  0
  184.5770  176.7220  137.9170 C   0  0  0  0  0  3  0  0  0  0  0  0
  182.5500  177.9090  138.5630 N   0  0  0  0  0  2  0  0  0  0  0  0
  189.2210  178.2530  142.4690 C   0  0  1  0  0  3  0  0  0  0  0  0
  185.8360  178.6920  142.2440 C   0  0  0  0  0  0  0  0  0  0  0  0
  188.8980  178.5380  138.6700 C   0  0  2  0  0  3  0  0  0  0  0  0
  182.4660  175.9540  136.9690 C   0  0  0  0  0  1  0  0  0  0  0  0
  189.5220  178.0370  140.9930 C   0  0  0  0  0  2  0  0  0  0  0  0
  185.0620  179.7530  142.7370 C   0  0  0  0  0  3  0  0  0  0  0  0
  186.0710  177.8750  144.5310 C   0  0  0  0  0  3  0  0  0  0  0  0
  185.2920  178.9340  144.9970 C   0  0  0  0  0  3  0  0  0  0  0  0
  188.7240  176.9640  143.1200 C   0  0  0  0  0  2  0  0  0  0  0  0
  186.8140  177.3680  138.8360 N   0  0  1  0  0  0  0  0  0  0  0  0
  188.4540  178.6610  140.1060 C   0  0  2  0  0  3  0  0  0  0  0  0
  185.3950  177.6970  138.7030 C   0  0  2  0  0  3  0  0  0  0  0  0
  186.9990  179.2750  137.4010 O   0  0  0  0  0  1  0  0  0  0  0  0
  185.9840  178.6290  140.7370 C   0  0  2  0  0  3  0  0  0  0  0  0
  1 21  1  0  0  0  0
  3 17  1  0  0  0  0
  4 22  1  0  0  0  0
  5 27  1  1  0  0  0
  5 17  1  0  0  0  0
  5 24  1  0  0  0  0
  6 23  1  0  0  0  0
  6  1  1  0  0  0  0
  7  8  2  0  0  0  0
  8  2  2  0  0  0  0
  9 13  2  0  0  0  0
  9 14  1  0  0  0  0
 10  8  1  6  0  0  0
 10 28  1  0  0  0  0
 12 28  1  0  0  0  0
 13 26  1  0  0  0  0
 14  8  1  0  0  0  0
 15 23  1  0  0  0  0
 15 11  1  0  0  0  0
 16 20  1  0  0  0  0
 16  1  2  0  0  0  0
 17 25  1  0  0  0  0
 18  9  1  0  0  0  0
 19 15  1  0  0  0  0
 20  4  2  0  0  0  0
 21 22  2  0  0  0  0
 24 12  1  0  0  0  0
 25 12  1  0  0  0  0
 25 19  1  0  0  0  0
 26 24  1  0  0  0  0
 26 10  1  0  0  0  0
 28 16  1  0  0  0  0
M  END
>  <MODEL>
7

>  <REMARK>
 VINA RESULT:      -5.5      3.192      4.757
  Name = 
  0 active torsions:
  status: ('A' for Active; 'I' for Inactive)
                            x       y       z     vdW  Elec       q    Type
                         _______ _______ _______ _____ _____    ______ ____

>  <TORSDO>
F 0

$$$$
=
 OpenBabel11122411513D

 28 32  0  0  1  0  0  0  0  0999 V2000
  187.6390  172.7080  136.6010 C   0  0  0  0  0  0  0  0  0  0  0  0
  191.9040  173.9310  137.2160 O   0  0  0  0  0  0  0  0  0  0  0  0
  186.2480  178.5130  135.0560 O   0  0  0  0  0  1  0  0  0  0  0  0
  189.5940  171.8110  134.8010 C   0  0  0  0  0  3  0  0  0  0  0  0
  187.4640  178.1230  137.1120 C   0  0  1  0  0  3  0  0  0  0  0  0
  186.5040  173.1270  137.4840 C   0  0  0  0  0  2  0  0  0  0  0  0
  191.6480  176.0090  135.9020 O   0  0  0  0  0  0  0  0  0  0  0  0
  191.3650  175.3330  137.2140 S   0  0  0  0  0  0  0  0  0  0  0  0
  191.2080  176.9370  139.4740 C   0  0  0  0  0  0  0  0  0  0  0  0
  189.6310  175.3310  137.5730 C   0  0  1  0  0  3  0  0  0  0  0  0
  184.0700  173.8440  134.6010 C   0  0  0  0  0  1  0  0  0  0  0  0
  187.4220  175.7750  136.9790 C   0  0  1  0  0  3  0  0  0  0  0  0
  189.8980  177.1370  139.2480 C   0  0  0  0  0  2  0  0  0  0  0  0
  192.0480  176.2440  138.5270 N   0  0  0  0  0  0  0  0  0  0  0  0
  185.2370  174.1380  135.5190 C   0  0  1  0  0  3  0  0  0  0  0  0
  188.5760  173.6300  136.0630 C   0  0  0  0  0  0  0  0  0  0  0  0
  186.2910  177.7450  136.2230 C   0  0  2  0  0  3  0  0  0  0  0  0
  191.8000  177.4150  140.7500 C   0  0  0  0  0  1  0  0  0  0  0  0
  185.1460  175.5830  135.9850 C   0  0  0  0  0  2  0  0  0  0  0  0
  189.5420  173.1580  135.1620 C   0  0  0  0  0  3  0  0  0  0  0  0
  187.7040  171.3590  136.2320 C   0  0  0  0  0  3  0  0  0  0  0  0
  188.6780  170.9100  135.3400 C   0  0  0  0  0  3  0  0  0  0  0  0
  185.1880  173.1770  136.7060 C   0  0  0  0  0  2  0  0  0  0  0  0
  187.8470  176.8950  137.8340 N   0  0  1  0  0  0  0  0  0  0  0  0
  186.4930  176.2870  135.8920 C   0  0  2  0  0  3  0  0  0  0  0  0
  189.2980  176.7440  137.9350 C   0  0  2  0  0  3  0  0  0  0  0  0
  188.5160  178.6370  136.3350 O   0  0  0  0  0  1  0  0  0  0  0  0
  188.6810  175.0960  136.4330 C   0  0  2  0  0  3  0  0  0  0  0  0
  1  6  1  0  0  0  0
  3 17  1  0  0  0  0
  4 20  2  0  0  0  0
  4 22  1  0  0  0  0
  5 27  1  6  0  0  0
  5 24  1  0  0  0  0
  7  8  2  0  0  0  0
  8  2  2  0  0  0  0
  8 14  1  0  0  0  0
  9 18  1  0  0  0  0
 10  8  1  6  0  0  0
 10 26  1  0  0  0  0
 11 15  1  0  0  0  0
 12 24  1  0  0  0  0
 13  9  1  0  0  0  0
 14  9  2  0  0  0  0
 15 19  1  0  0  0  0
 15 23  1  0  0  0  0
 16 28  1  0  0  0  0
 16  1  2  0  0  0  0
 17  5  1  0  0  0  0
 20 16  1  0  0  0  0
 21  1  1  0  0  0  0
 22 21  2  0  0  0  0
 23  6  1  0  0  0  0
 24 26  1  0  0  0  0
 25 19  1  0  0  0  0
 25 17  1  0  0  0  0
 25 12  1  0  0  0  0
 26 13  1  0  0  0  0
 28 12  1  0  0  0  0
 28 10  1  0  0  0  0
M  END
>  <MODEL>
8

>  <REMARK>
 VINA RESULT:      -5.4      4.563      7.947
  Name = 
  0 active torsions:
  status: ('A' for Active; 'I' for Inactive)
                            x       y       z     vdW  Elec       q    Type
                         _______ _______ _______ _____ _____    ______ ____

>  <TORSDO>
F 0

$$$$
=
 OpenBabel11122411513D

 28 32  0  0  1  0  0  0  0  0999 V2000
  180.8360  175.2820  138.1940 C   0  0  0  0  0  0  0  0  0  0  0  0
  178.9310  178.3950  140.7910 O   0  0  0  0  0  0  0  0  0  0  0  0
  186.3120  177.9780  139.0620 O   0  0  0  0  0  1  0  0  0  0  0  0
  179.8570  174.5490  140.7190 C   0  0  0  0  0  3  0  0  0  0  0  0
  184.4480  179.3480  138.3520 C   0  0  1  0  0  3  0  0  0  0  0  0
  181.4040  175.5480  136.8340 C   0  0  0  0  0  2  0  0  0  0  0  0
  181.0790  179.0600  141.8170 O   0  0  0  0  0  0  0  0  0  0  0  0
  180.2120  179.1550  140.5930 S   0  0  0  0  0  0  0  0  0  0  0  0
  180.4320  181.4460  139.0410 C   0  0  0  0  0  0  0  0  0  0  0  0
  181.0650  178.5700  139.1560 C   0  0  1  0  0  3  0  0  0  0  0  0
  184.5590  173.4210  137.3560 C   0  0  0  0  0  1  0  0  0  0  0  0
  182.9130  177.5800  138.1390 C   0  0  1  0  0  3  0  0  0  0  0  0
  181.4300  180.8810  138.3400 C   0  0  0  0  0  3  0  0  0  0  0  0
  179.8750  180.8180  140.2140 N   0  0  0  0  0  2  0  0  0  0  0  0
  183.6860  174.6470  137.5180 C   0  0  1  0  0  3  0  0  0  0  0  0
  181.1580  176.0710  139.3300 C   0  0  0  0  0  0  0  0  0  0  0  0
  185.2540  178.0760  138.1550 C   0  0  2  0  0  3  0  0  0  0  0  0
  179.8660  182.7380  138.5760 C   0  0  0  0  0  1  0  0  0  0  0  0
  184.5340  175.8900  137.2920 C   0  0  0  0  0  2  0  0  0  0  0  0
  180.6600  175.6820  140.5820 C   0  0  0  0  0  3  0  0  0  0  0  0
  180.0280  174.1480  138.3440 C   0  0  0  0  0  3  0  0  0  0  0  0
  179.5360  173.7850  139.5980 C   0  0  0  0  0  3  0  0  0  0  0  0
  182.5400  174.5770  136.5110 C   0  0  0  0  0  2  0  0  0  0  0  0
  183.0670  179.0300  137.9420 N   0  0  1  0  0  0  0  0  0  0  0  0
  184.2750  176.9460  138.3580 C   0  0  2  0  0  3  0  0  0  0  0  0
  182.0750  179.6260  138.8370 C   0  0  2  0  0  3  0  0  0  0  0  0
  184.5260  179.7690  139.6910 O   0  0  0  0  0  1  0  0  0  0  0  0
  181.9470  177.3650  139.3090 C   0  0  2  0  0  3  0  0  0  0  0  0
  1 21  2  0  0  0  0
  1 16  1  0  0  0  0
  5 27  1  1  0  0  0
  6  1  1  0  0  0  0
  8  2  2  0  0  0  0
  8  7  2  0  0  0  0
  9 14  1  0  0  0  0
 10 28  1  0  0  0  0
 10  8  1  1  0  0  0
 11 15  1  0  0  0  0
 12 25  1  0  0  0  0
 12 28  1  0  0  0  0
 13 26  1  0  0  0  0
 13  9  2  0  0  0  0
 14  8  1  0  0  0  0
 16 20  2  0  0  0  0
 17  5  1  0  0  0  0
 17 25  1  0  0  0  0
 17  3  1  0  0  0  0
 18  9  1  0  0  0  0
 19 15  1  0  0  0  0
 19 25  1  0  0  0  0
 20  4  1  0  0  0  0
 21 22  1  0  0  0  0
 22  4  2  0  0  0  0
 23  6  1  0  0  0  0
 23 15  1  0  0  0  0
 24 12  1  0  0  0  0
 24  5  1  0  0  0  0
 24 26  1  0  0  0  0
 26 10  1  0  0  0  0
 28 16  1  0  0  0  0
M  END
>  <MODEL>
9

>  <REMARK>
 VINA RESULT:      -5.0      6.404      8.960
  Name = 
  0 active torsions:
  status: ('A' for Active; 'I' for Inactive)
                            x       y       z     vdW  Elec       q    Type
                         _______ _______ _______ _____ _____    ______ ____

>  <TORSDO>
F 0

$$$$
