=
 OpenBabel11122410393D

 32 37  0  0  1  0  0  0  0  0999 V2000
  191.0360  174.3140  136.5700 C   0  0  0  0  0  2  0  0  0  0  0  0
  189.4830  177.9870  140.2240 C   0  0  0  0  0  0  0  0  0  0  0  0
  191.4460  176.6480  144.4740 C   0  0  0  0  0  3  0  0  0  0  0  0
  190.1930  176.7390  145.0820 C   0  0  0  0  0  3  0  0  0  0  0  0
  186.9800  178.4660  140.0670 C   0  0  0  0  0  0  0  0  0  0  0  0
  185.7190  178.5340  140.8010 C   0  0  0  0  0  0  0  0  0  0  0  0
  190.3890  177.0160  138.0720 C   0  0  1  0  0  3  0  0  0  0  0  0
  192.2070  177.4890  140.1530 S   0  0  0  0  0  0  0  0  0  0  0  0
  184.3540  178.3400  142.6860 C   0  0  2  0  0  3  0  0  0  0  0  0
  192.5980  175.6990  138.0840 C   0  0  0  0  0  2  0  0  0  0  0  0
  191.5860  176.9420  143.1160 C   0  0  0  0  0  3  0  0  0  0  0  0
  190.6100  177.6330  140.9870 C   0  0  0  0  0  0  0  0  0  0  0  0
  190.4740  177.3280  142.3510 C   0  0  0  0  0  0  0  0  0  0  0  0
  188.0820  177.8010  142.2220 C   0  0  0  0  0  0  0  0  0  0  0  0
  183.5250  178.7290  141.4500 C   0  0  0  0  0  2  0  0  0  0  0  0
  189.8520  174.5590  137.5120 C   0  0  0  0  0  2  0  0  0  0  0  0
  191.4910  176.3440  138.9300 C   0  0  2  0  0  3  0  0  0  0  0  0
  184.5210  178.7990  140.3230 C   0  0  0  0  0  3  0  0  0  0  0  0
  189.3560  176.0110  137.5380 C   0  0  0  0  0  2  0  0  0  0  0  0
  192.1650  175.3540  136.6530 C   0  0  1  0  0  3  0  0  0  0  0  0
  189.0790  177.1230  144.3330 C   0  0  0  0  0  3  0  0  0  0  0  0
  189.2060  177.4190  142.9680 C   0  0  0  0  0  0  0  0  0  0  0  0
  186.8330  177.8870  142.8670 O   0  0  0  0  0  0  0  0  0  0  0  0
  189.6850  178.2040  138.7470 C   0  0  0  0  0  2  0  0  0  0  0  0
  187.0050  178.7220  138.8330 O   0  0  0  0  0  0  0  0  0  0  0  0
  184.2550  179.4330  143.7310 C   0  0  0  0  0  1  0  0  0  0  0  0
  188.2080  178.0860  140.8320 C   0  0  0  0  0  0  0  0  0  0  0  0
  185.7050  178.2700  142.1750 N   0  0  0  0  0  0  0  0  0  0  0  0
  193.3740  174.8860  135.8600 C   0  0  0  0  0  2  0  0  0  0  0  0
  194.5790  175.6940  136.2060 C   0  0  0  0  0  0  0  0  0  0  0  0
  195.5290  175.1670  136.8430 O   0  0  0  0  0  1  0  0  0  0  0  0
  194.6660  177.0200  135.8040 O   0  0  0  0  0  0  0  0  0  0  0  0
  1 20  1  0  0  0  0
  1 16  1  0  0  0  0
  2 27  2  0  0  0  0
  2 12  1  0  0  0  0
  3  4  1  0  0  0  0
  5  6  1  0  0  0  0
  5 27  1  0  0  0  0
  6 28  1  0  0  0  0
  7 19  1  1  0  0  0
  7 24  1  0  0  0  0
  7 17  1  0  0  0  0
  8 12  1  0  0  0  0
  9 26  1  1  0  0  0
 11  3  2  0  0  0  0
 12 13  2  0  0  0  0
 13 22  1  0  0  0  0
 13 11  1  0  0  0  0
 14 23  1  0  0  0  0
 14 22  2  0  0  0  0
 15  9  1  0  0  0  0
 16 19  1  0  0  0  0
 17 10  1  6  0  0  0
 17  8  1  0  0  0  0
 18  6  2  0  0  0  0
 18 15  1  0  0  0  0
 20 29  1  6  0  0  0
 20 10  1  0  0  0  0
 21  4  2  0  0  0  0
 22 21  1  0  0  0  0
 24  2  1  0  0  0  0
 25  5  2  0  0  0  0
 27 14  1  0  0  0  0
 28  9  1  0  0  0  0
 28 23  1  0  0  0  0
 29 30  1  0  0  0  0
 30 31  1  0  0  0  0
 32 30  2  0  0  0  0
M  END
>  <MODEL>
1

>  <REMARK>
 VINA RESULT:      -9.3      0.000      0.000
  Name = 
  2 active torsions:
  status: ('A' for Active; 'I' for Inactive)
    1  A    between atoms: C_20  and  C_29
    2  A    between atoms: C_29  and  C_30
                            x       y       z     vdW  Elec       q    Type
                         _______ _______ _______ _____ _____    ______ ____

>  <TORSDO>
F 2

$$$$
=
 OpenBabel11122410393D

 32 37  0  0  1  0  0  0  0  0999 V2000
  182.5420  176.1340  137.5470 C   0  0  0  0  0  2  0  0  0  0  0  0
  185.9390  178.6650  140.9090 C   0  0  0  0  0  0  0  0  0  0  0  0
  190.3470  176.7420  140.1530 C   0  0  0  0  0  3  0  0  0  0  0  0
  190.4850  176.5150  141.5230 C   0  0  0  0  0  3  0  0  0  0  0  0
  184.9920  178.7970  143.2770 C   0  0  0  0  0  0  0  0  0  0  0  0
  185.2390  178.5210  144.6890 C   0  0  0  0  0  0  0  0  0  0  0  0
  184.1190  178.3240  139.1880 C   0  0  1  0  0  3  0  0  0  0  0  0
  186.7500  178.5970  138.2620 S   0  0  0  0  0  0  0  0  0  0  0  0
  186.4730  177.7270  146.5070 C   0  0  2  0  0  3  0  0  0  0  0  0
  184.7000  177.3720  136.8720 C   0  0  0  0  0  2  0  0  0  0  0  0
  189.1870  177.3380  139.6570 C   0  0  0  0  0  3  0  0  0  0  0  0
  186.9850  178.3230  140.0330 C   0  0  0  0  0  0  0  0  0  0  0  0
  188.1500  177.7150  140.5250 C   0  0  0  0  0  0  0  0  0  0  0  0
  187.2660  177.8510  142.7970 C   0  0  0  0  0  0  0  0  0  0  0  0
  185.1010  178.2490  146.9650 C   0  0  0  0  0  2  0  0  0  0  0  0
  183.0360  175.9940  138.9920 C   0  0  0  0  0  2  0  0  0  0  0  0
  185.1940  177.6510  138.2980 C   0  0  2  0  0  3  0  0  0  0  0  0
  184.4190  178.7050  145.7030 C   0  0  0  0  0  3  0  0  0  0  0  0
  183.1090  177.3180  139.7640 C   0  0  0  0  0  2  0  0  0  0  0  0
  183.1740  177.2850  136.7470 C   0  0  1  0  0  3  0  0  0  0  0  0
  189.4620  176.8860  142.3990 C   0  0  0  0  0  3  0  0  0  0  0  0
  188.2900  177.4850  141.9130 C   0  0  0  0  0  0  0  0  0  0  0  0
  187.4380  177.6120  144.1750 O   0  0  0  0  0  0  0  0  0  0  0  0
  184.6780  179.2230  140.3030 C   0  0  0  0  0  2  0  0  0  0  0  0
  183.8990  179.3140  142.9180 O   0  0  0  0  0  0  0  0  0  0  0  0
  187.5720  178.5430  147.1580 C   0  0  0  0  0  1  0  0  0  0  0  0
  186.0700  178.4440  142.3030 C   0  0  0  0  0  0  0  0  0  0  0  0
  186.4630  177.9670  145.0810 N   0  0  0  0  0  0  0  0  0  0  0  0
  182.7920  177.1800  135.2800 C   0  0  0  0  0  2  0  0  0  0  0  0
  181.4470  177.7760  135.0400 C   0  0  0  0  0  0  0  0  0  0  0  0
  180.5120  177.0610  134.5950 O   0  0  0  0  0  0  0  0  0  0  0  0
  181.2170  179.1140  135.3330 O   0  0  0  0  0  1  0  0  0  0  0  0
  1 16  1  0  0  0  0
  2 27  1  0  0  0  0
  3  4  1  0  0  0  0
  4 21  2  0  0  0  0
  5  6  1  0  0  0  0
  6 28  1  0  0  0  0
  6 18  2  0  0  0  0
  7 19  1  1  0  0  0
  7 24  1  0  0  0  0
  8 17  1  0  0  0  0
  8 12  1  0  0  0  0
  9 15  1  0  0  0  0
  9 26  1  1  0  0  0
 11  3  2  0  0  0  0
 11 13  1  0  0  0  0
 12 13  1  0  0  0  0
 12  2  2  0  0  0  0
 13 22  2  0  0  0  0
 14 23  1  0  0  0  0
 16 19  1  0  0  0  0
 17 10  1  6  0  0  0
 17  7  1  0  0  0  0
 18 15  1  0  0  0  0
 20 29  1  6  0  0  0
 20 10  1  0  0  0  0
 20  1  1  0  0  0  0
 22 21  1  0  0  0  0
 22 14  1  0  0  0  0
 23 28  1  0  0  0  0
 24  2  1  0  0  0  0
 25  5  2  0  0  0  0
 27 14  2  0  0  0  0
 27  5  1  0  0  0  0
 28  9  1  0  0  0  0
 30 29  1  0  0  0  0
 30 32  1  0  0  0  0
 31 30  2  0  0  0  0
M  END
>  <MODEL>
2

>  <REMARK>
 VINA RESULT:      -8.4      3.930      6.756
  Name = 
  2 active torsions:
  status: ('A' for Active; 'I' for Inactive)
    1  A    between atoms: C_20  and  C_29
    2  A    between atoms: C_29  and  C_30
                            x       y       z     vdW  Elec       q    Type
                         _______ _______ _______ _____ _____    ______ ____

>  <TORSDO>
F 2

$$$$
=
 OpenBabel11122410393D

 32 37  0  0  1  0  0  0  0  0999 V2000
  188.5400  176.3700  144.7040 C   0  0  0  0  0  2  0  0  0  0  0  0
  184.9310  178.9750  141.6330 C   0  0  0  0  0  0  0  0  0  0  0  0
  180.6170  178.5010  143.8390 C   0  0  0  0  0  3  0  0  0  0  0  0
  180.0550  178.0450  142.6450 C   0  0  0  0  0  3  0  0  0  0  0  0
  185.1800  178.3610  139.1660 C   0  0  0  0  0  0  0  0  0  0  0  0
  184.4940  177.8780  137.9720 C   0  0  0  0  0  0  0  0  0  0  0  0
  187.0510  178.5190  142.9320 C   0  0  1  0  0  3  0  0  0  0  0  0
  184.9020  179.6710  144.3140 S   0  0  0  0  0  0  0  0  0  0  0  0
  182.6620  177.0900  136.7550 C   0  0  2  0  0  3  0  0  0  0  0  0
  186.9630  178.2530  145.4880 C   0  0  0  0  0  2  0  0  0  0  0  0
  181.9660  178.8530  143.8850 C   0  0  0  0  0  3  0  0  0  0  0  0
  184.1280  179.1130  142.7790 C   0  0  0  0  0  0  0  0  0  0  0  0
  182.7720  178.7520  142.7400 C   0  0  0  0  0  0  0  0  0  0  0  0
  182.9880  178.1780  140.3760 C   0  0  0  0  0  0  0  0  0  0  0  0
  183.9260  177.1190  135.8800 C   0  0  0  0  0  2  0  0  0  0  0  0
  187.6430  176.0750  143.4970 C   0  0  0  0  0  2  0  0  0  0  0  0
  186.1560  178.3560  144.1860 C   0  0  2  0  0  3  0  0  0  0  0  0
  185.0150  177.6240  136.7890 C   0  0  0  0  0  3  0  0  0  0  0  0
  187.6290  177.1830  142.4350 C   0  0  0  0  0  2  0  0  0  0  0  0
  188.4110  177.7870  145.2870 C   0  0  1  0  0  3  0  0  0  0  0  0
  180.8440  177.9400  141.4980 C   0  0  0  0  0  3  0  0  0  0  0  0
  182.2020  178.2890  141.5320 C   0  0  0  0  0  0  0  0  0  0  0  0
  182.3900  177.7180  139.1870 O   0  0  0  0  0  0  0  0  0  0  0  0
  186.3980  179.2860  141.7710 C   0  0  0  0  0  2  0  0  0  0  0  0
  186.4110  178.6280  139.1220 O   0  0  0  0  0  0  0  0  0  0  0  0
  181.6160  178.0190  136.1710 C   0  0  0  0  0  1  0  0  0  0  0  0
  184.3710  178.5170  140.4150 C   0  0  0  0  0  0  0  0  0  0  0  0
  183.1220  177.6050  138.0250 N   0  0  0  0  0  0  0  0  0  0  0  0
  189.1600  177.8860  146.6060 C   0  0  0  0  0  2  0  0  0  0  0  0
  190.4670  177.1730  146.5260 C   0  0  0  0  0  0  0  0  0  0  0  0
  190.7340  176.2540  147.3440 O   0  0  0  0  0  1  0  0  0  0  0  0
  191.3790  177.5030  145.5320 O   0  0  0  0  0  0  0  0  0  0  0  0
  1 20  1  0  0  0  0
  2 24  1  0  0  0  0
  2 12  1  0  0  0  0
  3 11  2  0  0  0  0
  4  3  1  0  0  0  0
  5 27  1  0  0  0  0
  6 28  1  0  0  0  0
  6  5  1  0  0  0  0
  7 24  1  6  0  0  0
  7 17  1  0  0  0  0
  9 26  1  6  0  0  0
  9 28  1  0  0  0  0
 12  8  1  0  0  0  0
 13 12  2  0  0  0  0
 13 11  1  0  0  0  0
 14 27  1  0  0  0  0
 14 22  2  0  0  0  0
 15  9  1  0  0  0  0
 15 18  1  0  0  0  0
 16  1  1  0  0  0  0
 17  8  1  0  0  0  0
 17 10  1  1  0  0  0
 18  6  2  0  0  0  0
 19  7  1  0  0  0  0
 19 16  1  0  0  0  0
 20 10  1  0  0  0  0
 20 29  1  1  0  0  0
 21 22  1  0  0  0  0
 21  4  2  0  0  0  0
 22 13  1  0  0  0  0
 23 14  1  0  0  0  0
 25  5  2  0  0  0  0
 27  2  2  0  0  0  0
 28 23  1  0  0  0  0
 30 29  1  0  0  0  0
 30 31  1  0  0  0  0
 32 30  2  0  0  0  0
M  END
>  <MODEL>
3

>  <REMARK>
 VINA RESULT:      -8.2      5.019      7.699
  Name = 
  2 active torsions:
  status: ('A' for Active; 'I' for Inactive)
    1  A    between atoms: C_20  and  C_29
    2  A    between atoms: C_29  and  C_30
                            x       y       z     vdW  Elec       q    Type
                         _______ _______ _______ _____ _____    ______ ____

>  <TORSDO>
F 2

$$$$
=
 OpenBabel11122410393D

 32 37  0  0  1  0  0  0  0  0999 V2000
  187.2040  176.8690  145.3780 C   0  0  0  0  0  2  0  0  0  0  0  0
  184.4640  178.8370  141.1510 C   0  0  0  0  0  0  0  0  0  0  0  0
  179.7820  177.7100  141.8730 C   0  0  0  0  0  3  0  0  0  0  0  0
  179.7170  177.1580  140.5930 C   0  0  0  0  0  3  0  0  0  0  0  0
  185.5940  178.2430  138.9400 C   0  0  0  0  0  0  0  0  0  0  0  0
  185.4170  177.6450  137.6200 C   0  0  0  0  0  0  0  0  0  0  0  0
  186.0830  178.7360  143.0900 C   0  0  1  0  0  3  0  0  0  0  0  0
  183.4550  179.5480  143.6310 S   0  0  0  0  0  0  0  0  0  0  0  0
  184.2220  176.5640  135.9290 C   0  0  2  0  0  3  0  0  0  0  0  0
  185.2000  178.4870  145.4920 C   0  0  0  0  0  2  0  0  0  0  0  0
  180.9750  178.2720  142.3300 C   0  0  0  0  0  3  0  0  0  0  0  0
  183.3170  178.8590  141.9660 C   0  0  0  0  0  0  0  0  0  0  0  0
  182.1170  178.2870  141.5140 C   0  0  0  0  0  0  0  0  0  0  0  0
  183.1790  177.7290  139.3870 C   0  0  0  0  0  0  0  0  0  0  0  0
  185.6840  176.7830  135.5080 C   0  0  0  0  0  2  0  0  0  0  0  0
  186.8060  176.4230  143.9660 C   0  0  0  0  0  2  0  0  0  0  0  0
  184.8590  178.4470  143.9960 C   0  0  2  0  0  3  0  0  0  0  0  0
  186.3280  177.4640  136.6870 C   0  0  0  0  0  3  0  0  0  0  0  0
  186.9790  177.5030  142.8900 C   0  0  0  0  0  2  0  0  0  0  0  0
  186.6850  178.2540  145.7990 C   0  0  1  0  0  3  0  0  0  0  0  0
  180.8450  177.1670  139.7700 C   0  0  0  0  0  3  0  0  0  0  0  0
  182.0500  177.7270  140.2190 C   0  0  0  0  0  0  0  0  0  0  0  0
  183.0780  177.1670  138.1000 O   0  0  0  0  0  0  0  0  0  0  0  0
  185.7420  179.3780  141.7360 C   0  0  0  0  0  2  0  0  0  0  0  0
  186.7190  178.7010  139.2780 O   0  0  0  0  0  0  0  0  0  0  0  0
  183.3020  177.3100  134.9830 C   0  0  0  0  0  1  0  0  0  0  0  0
  184.4070  178.2830  139.8490 C   0  0  0  0  0  0  0  0  0  0  0  0
  184.1590  177.1590  137.2460 N   0  0  0  0  0  0  0  0  0  0  0  0
  186.9370  178.4840  147.2800 C   0  0  0  0  0  2  0  0  0  0  0  0
  188.1870  177.7990  147.7160 C   0  0  0  0  0  0  0  0  0  0  0  0
  188.1230  176.7930  148.4700 O   0  0  0  0  0  1  0  0  0  0  0  0
  189.4210  178.2520  147.2680 O   0  0  0  0  0  0  0  0  0  0  0  0
  1 20  1  0  0  0  0
  2 24  1  0  0  0  0
  2 12  1  0  0  0  0
  3 11  2  0  0  0  0
  4  3  1  0  0  0  0
  5 25  2  0  0  0  0
  5 27  1  0  0  0  0
  6  5  1  0  0  0  0
  7 24  1  6  0  0  0
  7 17  1  0  0  0  0
  8 17  1  0  0  0  0
  9 26  1  6  0  0  0
  9 28  1  0  0  0  0
 10 20  1  0  0  0  0
 12  8  1  0  0  0  0
 13 12  2  0  0  0  0
 13 11  1  0  0  0  0
 14 27  1  0  0  0  0
 14 22  2  0  0  0  0
 15  9  1  0  0  0  0
 15 18  1  0  0  0  0
 16  1  1  0  0  0  0
 17 10  1  1  0  0  0
 18  6  2  0  0  0  0
 19  7  1  0  0  0  0
 19 16  1  0  0  0  0
 20 29  1  1  0  0  0
 21 22  1  0  0  0  0
 21  4  2  0  0  0  0
 22 13  1  0  0  0  0
 23 14  1  0  0  0  0
 27  2  2  0  0  0  0
 28  6  1  0  0  0  0
 28 23  1  0  0  0  0
 29 30  1  0  0  0  0
 30 31  1  0  0  0  0
 32 30  2  0  0  0  0
M  END
>  <MODEL>
4

>  <REMARK>
 VINA RESULT:      -8.1      4.912      8.651
  Name = 
  2 active torsions:
  status: ('A' for Active; 'I' for Inactive)
    1  A    between atoms: C_20  and  C_29
    2  A    between atoms: C_29  and  C_30
                            x       y       z     vdW  Elec       q    Type
                         _______ _______ _______ _____ _____    ______ ____

>  <TORSDO>
F 2

$$$$
=
 OpenBabel11122410393D

 32 37  0  0  1  0  0  0  0  0999 V2000
  186.8050  176.7530  144.9310 C   0  0  0  0  0  2  0  0  0  0  0  0
  188.0830  178.2130  139.8820 C   0  0  0  0  0  0  0  0  0  0  0  0
  184.2300  177.1490  137.1020 C   0  0  0  0  0  3  0  0  0  0  0  0
  185.0570  176.4540  136.2190 C   0  0  0  0  0  3  0  0  0  0  0  0
  190.4040  177.3780  139.2220 C   0  0  0  0  0  0  0  0  0  0  0  0
  191.1790  176.6330  138.2350 C   0  0  0  0  0  0  0  0  0  0  0  0
  187.8100  178.3420  142.3920 C   0  0  1  0  0  3  0  0  0  0  0  0
  185.6630  179.1950  140.8060 S   0  0  0  0  0  0  0  0  0  0  0  0
  191.4760  175.3600  136.2990 C   0  0  2  0  0  3  0  0  0  0  0  0
  185.4590  178.3620  143.4320 C   0  0  0  0  0  2  0  0  0  0  0  0
  184.7740  177.7650  138.2300 C   0  0  0  0  0  3  0  0  0  0  0  0
  186.7060  178.3200  139.6170 C   0  0  0  0  0  0  0  0  0  0  0  0
  186.1520  177.6940  138.4890 C   0  0  0  0  0  0  0  0  0  0  0  0
  188.3670  176.9040  137.8340 C   0  0  0  0  0  0  0  0  0  0  0  0
  192.8090  175.5380  137.0440 C   0  0  0  0  0  2  0  0  0  0  0  0
  187.5050  176.1470  143.7080 C   0  0  0  0  0  2  0  0  0  0  0  0
  186.2900  178.1500  142.1600 C   0  0  2  0  0  3  0  0  0  0  0  0
  192.4650  176.3520  138.2630 C   0  0  0  0  0  3  0  0  0  0  0  0
  188.4790  177.0990  143.0030 C   0  0  0  0  0  2  0  0  0  0  0  0
  186.2520  178.1740  144.7320 C   0  0  1  0  0  3  0  0  0  0  0  0
  186.4300  176.3760  136.4630 C   0  0  0  0  0  3  0  0  0  0  0  0
  186.9890  176.9900  137.5940 C   0  0  0  0  0  0  0  0  0  0  0  0
  189.1750  176.1990  136.9210 O   0  0  0  0  0  0  0  0  0  0  0  0
  188.5930  178.8240  141.1610 C   0  0  0  0  0  2  0  0  0  0  0  0
  190.9780  177.8780  140.2270 O   0  0  0  0  0  0  0  0  0  0  0  0
  191.5730  175.9880  134.9230 C   0  0  0  0  0  1  0  0  0  0  0  0
  188.9330  177.5140  138.9900 C   0  0  0  0  0  0  0  0  0  0  0  0
  190.5360  176.1000  137.1120 N   0  0  0  0  0  0  0  0  0  0  0  0
  185.3840  178.5730  145.9150 C   0  0  0  0  0  2  0  0  0  0  0  0
  186.2280  178.9960  147.0690 C   0  0  0  0  0  0  0  0  0  0  0  0
  186.0550  180.1280  147.5930 O   0  0  0  0  0  1  0  0  0  0  0  0
  187.1840  178.1320  147.5860 O   0  0  0  0  0  0  0  0  0  0  0  0
  2 24  1  0  0  0  0
  3 11  2  0  0  0  0
  4 21  2  0  0  0  0
  4  3  1  0  0  0  0
  5 25  2  0  0  0  0
  6 18  2  0  0  0  0
  6  5  1  0  0  0  0
  7 24  1  6  0  0  0
  7 19  1  0  0  0  0
  8 17  1  0  0  0  0
  9 26  1  6  0  0  0
  9 15  1  0  0  0  0
  9 28  1  0  0  0  0
 10 20  1  0  0  0  0
 11 13  1  0  0  0  0
 12  2  1  0  0  0  0
 12  8  1  0  0  0  0
 13 12  2  0  0  0  0
 14 27  1  0  0  0  0
 15 18  1  0  0  0  0
 16  1  1  0  0  0  0
 17  7  1  0  0  0  0
 17 10  1  1  0  0  0
 19 16  1  0  0  0  0
 20  1  1  0  0  0  0
 20 29  1  1  0  0  0
 21 22  1  0  0  0  0
 22 14  2  0  0  0  0
 22 13  1  0  0  0  0
 23 28  1  0  0  0  0
 23 14  1  0  0  0  0
 27  5  1  0  0  0  0
 27  2  2  0  0  0  0
 28  6  1  0  0  0  0
 29 30  1  0  0  0  0
 30 32  2  0  0  0  0
 30 31  1  0  0  0  0
M  END
>  <MODEL>
5

>  <REMARK>
 VINA RESULT:      -8.0      3.054      8.583
  Name = 
  2 active torsions:
  status: ('A' for Active; 'I' for Inactive)
    1  A    between atoms: C_20  and  C_29
    2  A    between atoms: C_29  and  C_30
                            x       y       z     vdW  Elec       q    Type
                         _______ _______ _______ _____ _____    ______ ____

>  <TORSDO>
F 2

$$$$
=
 OpenBabel11122410393D

 32 37  0  0  1  0  0  0  0  0999 V2000
  187.8710  174.9340  136.1440 C   0  0  0  0  0  2  0  0  0  0  0  0
  188.2200  178.2140  140.4300 C   0  0  0  0  0  0  0  0  0  0  0  0
  191.6160  176.3250  143.3630 C   0  0  0  0  0  3  0  0  0  0  0  0
  190.7270  176.3890  144.4370 C   0  0  0  0  0  3  0  0  0  0  0  0
  185.9130  178.7980  141.3560 C   0  0  0  0  0  0  0  0  0  0  0  0
  185.0650  178.8260  142.5450 C   0  0  0  0  0  0  0  0  0  0  0  0
  188.1010  177.4660  138.0180 C   0  0  1  0  0  3  0  0  0  0  0  0
  190.6350  177.6300  139.2050 S   0  0  0  0  0  0  0  0  0  0  0  0
  184.5650  178.4640  144.7970 C   0  0  2  0  0  3  0  0  0  0  0  0
  190.0140  176.0780  137.0050 C   0  0  0  0  0  2  0  0  0  0  0  0
  191.2200  176.7680  142.1000 C   0  0  0  0  0  3  0  0  0  0  0  0
  189.5270  177.7350  140.6290 C   0  0  0  0  0  0  0  0  0  0  0  0
  189.9290  177.2790  141.8950 C   0  0  0  0  0  0  0  0  0  0  0  0
  187.7340  177.8490  142.8000 C   0  0  0  0  0  0  0  0  0  0  0  0
  183.3430  179.0230  144.0500 C   0  0  0  0  0  2  0  0  0  0  0  0
  187.1900  175.1110  137.5060 C   0  0  0  0  0  2  0  0  0  0  0  0
  189.3980  176.6610  138.2840 C   0  0  2  0  0  3  0  0  0  0  0  0
  183.8020  179.1860  142.6260 C   0  0  0  0  0  3  0  0  0  0  0  0
  186.8640  176.5670  137.8650 C   0  0  0  0  0  2  0  0  0  0  0  0
  189.0160  175.9170  135.8510 C   0  0  1  0  0  3  0  0  0  0  0  0
  189.4400  176.8970  144.2470 C   0  0  0  0  0  3  0  0  0  0  0  0
  189.0290  177.3440  142.9830 C   0  0  0  0  0  0  0  0  0  0  0  0
  186.8620  177.9050  143.9050 O   0  0  0  0  0  0  0  0  0  0  0  0
  187.8260  178.5920  139.0270 C   0  0  0  0  0  2  0  0  0  0  0  0
  185.4590  179.1930  140.2480 O   0  0  0  0  0  0  0  0  0  0  0  0
  184.9830  179.4330  145.8860 C   0  0  0  0  0  1  0  0  0  0  0  0
  187.3110  178.2880  141.5130 C   0  0  0  0  0  0  0  0  0  0  0  0
  185.5850  178.4050  143.7740 N   0  0  0  0  0  0  0  0  0  0  0  0
  189.7610  175.5000  134.5940 C   0  0  0  0  0  2  0  0  0  0  0  0
  191.0200  174.7790  134.9400 C   0  0  0  0  0  0  0  0  0  0  0  0
  190.9770  173.5710  135.2900 O   0  0  0  0  0  1  0  0  0  0  0  0
  192.2420  175.4320  134.8500 O   0  0  0  0  0  0  0  0  0  0  0  0
  1 16  1  0  0  0  0
  2 12  2  0  0  0  0
  2 27  1  0  0  0  0
  3  4  1  0  0  0  0
  5 27  1  0  0  0  0
  5  6  1  0  0  0  0
  6 18  2  0  0  0  0
  6 28  1  0  0  0  0
  7 19  1  1  0  0  0
  7 17  1  0  0  0  0
  7 24  1  0  0  0  0
  8 12  1  0  0  0  0
  9 26  1  1  0  0  0
 11  3  2  0  0  0  0
 12 13  1  0  0  0  0
 13 11  1  0  0  0  0
 13 22  2  0  0  0  0
 14 22  1  0  0  0  0
 14 23  1  0  0  0  0
 15  9  1  0  0  0  0
 16 19  1  0  0  0  0
 17 10  1  6  0  0  0
 17  8  1  0  0  0  0
 18 15  1  0  0  0  0
 20 29  1  6  0  0  0
 20  1  1  0  0  0  0
 20 10  1  0  0  0  0
 21  4  2  0  0  0  0
 22 21  1  0  0  0  0
 24  2  1  0  0  0  0
 25  5  2  0  0  0  0
 27 14  2  0  0  0  0
 28 23  1  0  0  0  0
 28  9  1  0  0  0  0
 29 30  1  0  0  0  0
 30 31  1  0  0  0  0
 32 30  2  0  0  0  0
M  END
>  <MODEL>
6

>  <REMARK>
 VINA RESULT:      -7.9      1.763      2.320
  Name = 
  2 active torsions:
  status: ('A' for Active; 'I' for Inactive)
    1  A    between atoms: C_20  and  C_29
    2  A    between atoms: C_29  and  C_30
                            x       y       z     vdW  Elec       q    Type
                         _______ _______ _______ _____ _____    ______ ____

>  <TORSDO>
F 2

$$$$
=
 OpenBabel11122410393D

 32 37  0  0  1  0  0  0  0  0999 V2000
  188.0740  174.9720  136.4290 C   0  0  0  0  0  2  0  0  0  0  0  0
  186.0880  178.6270  139.8850 C   0  0  0  0  0  0  0  0  0  0  0  0
  188.0110  177.6190  144.2440 C   0  0  0  0  0  3  0  0  0  0  0  0
  186.7340  177.6220  144.8090 C   0  0  0  0  0  3  0  0  0  0  0  0
  183.5590  178.8810  139.6330 C   0  0  0  0  0  0  0  0  0  0  0  0
  182.2730  178.8660  140.3240 C   0  0  0  0  0  0  0  0  0  0  0  0
  187.1470  177.6600  137.8030 C   0  0  1  0  0  3  0  0  0  0  0  0
  188.8450  178.3650  139.9190 S   0  0  0  0  0  0  0  0  0  0  0  0
  180.8660  178.6230  142.1710 C   0  0  2  0  0  3  0  0  0  0  0  0
  189.4580  176.5420  137.9350 C   0  0  0  0  0  2  0  0  0  0  0  0
  188.1710  177.8740  142.8810 C   0  0  0  0  0  3  0  0  0  0  0  0
  187.2140  178.4000  140.6970 C   0  0  0  0  0  0  0  0  0  0  0  0
  187.0580  178.1340  142.0660 C   0  0  0  0  0  0  0  0  0  0  0  0
  184.6400  178.3930  141.8450 C   0  0  0  0  0  0  0  0  0  0  0  0
  180.0500  178.8940  140.8960 C   0  0  0  0  0  2  0  0  0  0  0  0
  186.8410  175.1470  137.3230 C   0  0  0  0  0  2  0  0  0  0  0  0
  188.2720  177.1180  138.7200 C   0  0  2  0  0  3  0  0  0  0  0  0
  181.0740  179.0090  139.7990 C   0  0  0  0  0  3  0  0  0  0  0  0
  186.2220  176.5510  137.2770 C   0  0  0  0  0  2  0  0  0  0  0  0
  189.1060  176.1090  136.5060 C   0  0  1  0  0  3  0  0  0  0  0  0
  185.6180  177.8810  144.0110 C   0  0  0  0  0  3  0  0  0  0  0  0
  185.7660  178.1370  142.6400 C   0  0  0  0  0  0  0  0  0  0  0  0
  183.3670  178.3940  142.4470 O   0  0  0  0  0  0  0  0  0  0  0  0
  186.3210  178.8060  138.4090 C   0  0  0  0  0  2  0  0  0  0  0  0
  183.6050  179.0930  138.3910 O   0  0  0  0  0  0  0  0  0  0  0  0
  180.6380  179.7410  143.1690 C   0  0  0  0  0  1  0  0  0  0  0  0
  184.7880  178.6370  140.4490 C   0  0  0  0  0  0  0  0  0  0  0  0
  182.2340  178.6520  141.7060 N   0  0  0  0  0  0  0  0  0  0  0  0
  190.3780  175.7180  135.7700 C   0  0  0  0  0  2  0  0  0  0  0  0
  191.4480  175.3320  136.7330 C   0  0  0  0  0  0  0  0  0  0  0  0
  192.4230  176.1030  136.9330 O   0  0  0  0  0  0  0  0  0  0  0  0
  191.3570  174.1350  137.4310 O   0  0  0  0  0  1  0  0  0  0  0  0
  1 20  1  0  0  0  0
  1 16  1  0  0  0  0
  2 27  2  0  0  0  0
  2 12  1  0  0  0  0
  3  4  1  0  0  0  0
  5  6  1  0  0  0  0
  5 27  1  0  0  0  0
  6 28  1  0  0  0  0
  7 19  1  1  0  0  0
  7 24  1  0  0  0  0
  7 17  1  0  0  0  0
  8 12  1  0  0  0  0
  9 26  1  1  0  0  0
 11  3  2  0  0  0  0
 12 13  2  0  0  0  0
 13 22  1  0  0  0  0
 13 11  1  0  0  0  0
 14 23  1  0  0  0  0
 14 22  2  0  0  0  0
 15  9  1  0  0  0  0
 17 10  1  6  0  0  0
 17  8  1  0  0  0  0
 18  6  2  0  0  0  0
 18 15  1  0  0  0  0
 19 16  1  0  0  0  0
 20 29  1  1  0  0  0
 20 10  1  0  0  0  0
 21  4  2  0  0  0  0
 22 21  1  0  0  0  0
 24  2  1  0  0  0  0
 25  5  2  0  0  0  0
 27 14  1  0  0  0  0
 28  9  1  0  0  0  0
 28 23  1  0  0  0  0
 29 30  1  0  0  0  0
 30 31  2  0  0  0  0
 30 32  1  0  0  0  0
M  END
>  <MODEL>
7

>  <REMARK>
 VINA RESULT:      -7.6      2.344      3.463
  Name = 
  2 active torsions:
  status: ('A' for Active; 'I' for Inactive)
    1  A    between atoms: C_20  and  C_29
    2  A    between atoms: C_29  and  C_30
                            x       y       z     vdW  Elec       q    Type
                         _______ _______ _______ _____ _____    ______ ____

>  <TORSDO>
F 2

$$$$
=
 OpenBabel11122410393D

 32 37  0  0  1  0  0  0  0  0999 V2000
  182.7370  178.7260  142.2590 C   0  0  0  0  0  2  0  0  0  0  0  0
  184.9170  176.9880  137.6250 C   0  0  0  0  0  0  0  0  0  0  0  0
  183.2940  172.4500  136.9330 C   0  0  0  0  0  3  0  0  0  0  0  0
  184.6050  172.0090  136.7430 C   0  0  0  0  0  3  0  0  0  0  0  0
  187.4210  177.4790  137.5230 C   0  0  0  0  0  0  0  0  0  0  0  0
  188.7500  176.9150  137.3050 C   0  0  0  0  0  0  0  0  0  0  0  0
  183.7310  178.4980  139.2700 C   0  0  1  0  0  3  0  0  0  0  0  0
  182.1700  176.6830  137.8100 S   0  0  0  0  0  0  0  0  0  0  0  0
  190.2780  175.2020  136.8770 C   0  0  2  0  0  3  0  0  0  0  0  0
  181.4420  177.8160  140.2230 C   0  0  0  0  0  2  0  0  0  0  0  0
  183.0420  173.7980  137.1920 C   0  0  0  0  0  3  0  0  0  0  0  0
  183.8480  176.0790  137.5190 C   0  0  0  0  0  0  0  0  0  0  0  0
  184.0970  174.7210  137.2670 C   0  0  0  0  0  0  0  0  0  0  0  0
  186.4930  175.1770  137.1480 C   0  0  0  0  0  0  0  0  0  0  0  0
  191.0060  176.5370  137.1060 C   0  0  0  0  0  2  0  0  0  0  0  0
  184.0250  178.0400  141.7880 C   0  0  0  0  0  2  0  0  0  0  0  0
  182.6730  177.3750  139.4190 C   0  0  2  0  0  3  0  0  0  0  0  0
  189.9110  177.5310  137.3850 C   0  0  0  0  0  3  0  0  0  0  0  0
  184.6280  178.6380  140.5100 C   0  0  0  0  0  2  0  0  0  0  0  0
  181.7020  179.0060  141.1560 C   0  0  1  0  0  3  0  0  0  0  0  0
  185.6640  172.9160  136.8130 C   0  0  0  0  0  3  0  0  0  0  0  0
  185.4240  174.2730  137.0750 C   0  0  0  0  0  0  0  0  0  0  0  0
  187.8030  174.7010  136.9470 O   0  0  0  0  0  0  0  0  0  0  0  0
  184.5860  178.4100  137.9950 C   0  0  0  0  0  2  0  0  0  0  0  0
  187.2910  178.7060  137.7810 O   0  0  0  0  0  0  0  0  0  0  0  0
  190.5630  174.7010  135.4750 C   0  0  0  0  0  1  0  0  0  0  0  0
  186.2510  176.5520  137.4300 C   0  0  0  0  0  0  0  0  0  0  0  0
  188.8820  175.5560  136.9980 N   0  0  0  0  0  0  0  0  0  0  0  0
  180.3890  179.4640  141.7680 C   0  0  0  0  0  2  0  0  0  0  0  0
  179.8660  180.6660  141.0580 C   0  0  0  0  0  0  0  0  0  0  0  0
  178.9820  181.3810  141.5990 O   0  0  0  0  0  1  0  0  0  0  0  0
  180.3730  181.0140  139.8140 O   0  0  0  0  0  0  0  0  0  0  0  0
  2 24  1  0  0  0  0
  3 11  2  0  0  0  0
  4 21  2  0  0  0  0
  4  3  1  0  0  0  0
  5 25  2  0  0  0  0
  6 18  2  0  0  0  0
  6  5  1  0  0  0  0
  7 24  1  6  0  0  0
  7 17  1  0  0  0  0
  7 19  1  0  0  0  0
  8 17  1  0  0  0  0
  9 26  1  6  0  0  0
  9 28  1  0  0  0  0
  9 15  1  0  0  0  0
 10 20  1  0  0  0  0
 11 13  1  0  0  0  0
 12  2  1  0  0  0  0
 12  8  1  0  0  0  0
 13 12  2  0  0  0  0
 14 27  1  0  0  0  0
 15 18  1  0  0  0  0
 16  1  1  0  0  0  0
 17 10  1  6  0  0  0
 19 16  1  0  0  0  0
 20 29  1  1  0  0  0
 20  1  1  0  0  0  0
 21 22  1  0  0  0  0
 22 14  2  0  0  0  0
 22 13  1  0  0  0  0
 23 28  1  0  0  0  0
 23 14  1  0  0  0  0
 27  5  1  0  0  0  0
 27  2  2  0  0  0  0
 28  6  1  0  0  0  0
 30 31  1  0  0  0  0
 30 29  1  0  0  0  0
 32 30  2  0  0  0  0
M  END
>  <MODEL>
8

>  <REMARK>
 VINA RESULT:      -7.0      4.411      9.705
  Name = 
  2 active torsions:
  status: ('A' for Active; 'I' for Inactive)
    1  A    between atoms: C_20  and  C_29
    2  A    between atoms: C_29  and  C_30
                            x       y       z     vdW  Elec       q    Type
                         _______ _______ _______ _____ _____    ______ ____

>  <TORSDO>
F 2

$$$$
=
 OpenBabel11122410393D

 32 37  0  0  1  0  0  0  0  0999 V2000
  190.1100  176.5030  144.5110 C   0  0  0  0  0  2  0  0  0  0  0  0
  191.1450  176.9160  139.2190 C   0  0  0  0  0  0  0  0  0  0  0  0
  187.0720  175.6120  136.8920 C   0  0  0  0  0  3  0  0  0  0  0  0
  187.8020  174.7130  136.1140 C   0  0  0  0  0  3  0  0  0  0  0  0
  193.3700  175.8220  138.6090 C   0  0  0  0  0  0  0  0  0  0  0  0
  194.0390  174.8580  137.7410 C   0  0  0  0  0  0  0  0  0  0  0  0
  191.0390  177.5250  141.6700 C   0  0  1  0  0  3  0  0  0  0  0  0
  188.8460  178.2100  140.0640 S   0  0  0  0  0  0  0  0  0  0  0  0
  194.1430  173.2320  136.0680 C   0  0  2  0  0  3  0  0  0  0  0  0
  188.7620  177.8920  142.8080 C   0  0  0  0  0  2  0  0  0  0  0  0
  187.7190  176.3900  137.8540 C   0  0  0  0  0  3  0  0  0  0  0  0
  189.7620  177.0630  139.0090 C   0  0  0  0  0  0  0  0  0  0  0  0
  189.1040  176.2770  138.0500 C   0  0  0  0  0  0  0  0  0  0  0  0
  191.2270  175.2350  137.4420 C   0  0  0  0  0  0  0  0  0  0  0  0
  195.5280  173.4570  136.6960 C   0  0  0  0  0  2  0  0  0  0  0  0
  190.6970  175.6370  143.3900 C   0  0  0  0  0  2  0  0  0  0  0  0
  189.4990  177.3940  141.5570 C   0  0  2  0  0  3  0  0  0  0  0  0
  195.3070  174.5030  137.7560 C   0  0  0  0  0  3  0  0  0  0  0  0
  191.6760  176.3750  142.4680 C   0  0  0  0  0  2  0  0  0  0  0  0
  189.6240  177.8960  144.0770 C   0  0  1  0  0  3  0  0  0  0  0  0
  189.1810  174.5910  136.2980 C   0  0  0  0  0  3  0  0  0  0  0  0
  189.8430  175.3660  137.2620 C   0  0  0  0  0  0  0  0  0  0  0  0
  191.9360  174.3220  136.6380 O   0  0  0  0  0  0  0  0  0  0  0  0
  191.7680  177.7180  140.3310 C   0  0  0  0  0  2  0  0  0  0  0  0
  194.0340  176.4600  139.4710 O   0  0  0  0  0  0  0  0  0  0  0  0
  194.1870  173.5870  134.5940 C   0  0  0  0  0  1  0  0  0  0  0  0
  191.8970  176.0100  138.4320 C   0  0  0  0  0  0  0  0  0  0  0  0
  193.2990  174.1700  136.7730 N   0  0  0  0  0  0  0  0  0  0  0  0
  188.8570  178.5630  145.2070 C   0  0  0  0  0  2  0  0  0  0  0  0
  188.0770  177.5560  145.9820 C   0  0  0  0  0  0  0  0  0  0  0  0
  188.6210  176.9350  146.9320 O   0  0  0  0  0  1  0  0  0  0  0  0
  186.7430  177.3230  145.6750 O   0  0  0  0  0  0  0  0  0  0  0  0
  2 24  1  0  0  0  0
  3 11  2  0  0  0  0
  4 21  2  0  0  0  0
  4  3  1  0  0  0  0
  5 25  2  0  0  0  0
  6 18  2  0  0  0  0
  6  5  1  0  0  0  0
  7 24  1  6  0  0  0
  7 19  1  0  0  0  0
  8 17  1  0  0  0  0
  9 26  1  6  0  0  0
  9 15  1  0  0  0  0
  9 28  1  0  0  0  0
 10 20  1  0  0  0  0
 11 13  1  0  0  0  0
 12  2  1  0  0  0  0
 12  8  1  0  0  0  0
 13 12  2  0  0  0  0
 14 27  1  0  0  0  0
 15 18  1  0  0  0  0
 16  1  1  0  0  0  0
 17  7  1  0  0  0  0
 17 10  1  1  0  0  0
 19 16  1  0  0  0  0
 20  1  1  0  0  0  0
 20 29  1  1  0  0  0
 21 22  1  0  0  0  0
 22 14  2  0  0  0  0
 22 13  1  0  0  0  0
 23 28  1  0  0  0  0
 23 14  1  0  0  0  0
 27  5  1  0  0  0  0
 27  2  2  0  0  0  0
 28  6  1  0  0  0  0
 29 30  1  0  0  0  0
 30 31  1  0  0  0  0
 32 30  2  0  0  0  0
M  END
>  <MODEL>
9

>  <REMARK>
 VINA RESULT:      -6.8      3.268      8.614
  Name = 
  2 active torsions:
  status: ('A' for Active; 'I' for Inactive)
    1  A    between atoms: C_20  and  C_29
    2  A    between atoms: C_29  and  C_30
                            x       y       z     vdW  Elec       q    Type
                         _______ _______ _______ _____ _____    ______ ____

>  <TORSDO>
F 2

$$$$
