=
 OpenBabel11122412253D

 34 40  0  0  1  0  0  0  0  0999 V2000
  181.0990  178.3760  137.1030 C   0  0  1  0  0  3  0  0  0  0  0  0
  183.2990  178.0480  138.1180 C   0  0  0  0  0  2  0  0  0  0  0  0
  180.7210  184.7180  136.8860 C   0  0  0  0  0  0  0  0  0  0  0  0
  180.4000  180.4660  135.9500 C   0  0  2  0  0  3  0  0  0  0  0  0
  179.6790  182.4430  137.3490 C   0  0  2  0  0  3  0  0  0  0  0  0
  179.3220  184.3610  138.8040 F   0  0  0  0  0  0  0  0  0  0  0  0
  181.5640  185.2330  137.6030 O   0  0  0  0  0  0  0  0  0  0  0  0
  179.7150  184.1090  134.6620 C   0  0  0  0  0  2  0  0  0  0  0  0
  181.4530  178.1780  139.5350 C   0  0  2  0  0  3  0  0  0  0  0  0
  181.6750  178.7030  142.6470 C   0  0  0  0  0  2  0  0  0  0  0  0
  180.4160  181.8370  138.5460 C   0  0  0  0  0  2  0  0  0  0  0  0
  179.7000  182.5750  134.7670 C   0  0  0  0  0  2  0  0  0  0  0  0
  181.1130  179.7000  139.6740 C   0  0  1  0  0  3  0  0  0  0  0  0
  183.8510  177.8470  139.5160 C   0  0  0  0  0  2  0  0  0  0  0  0
  180.3570  181.9930  136.0300 C   0  0  2  0  0  3  0  0  0  0  0  0
  180.8830  184.7800  135.3910 C   0  0  0  0  0  2  0  0  0  0  0  0
  182.8550  178.7000  141.6690 C   0  0  2  0  0  3  0  0  0  0  0  0
  181.1220  179.8950  137.1810 C   0  0  1  0  0  3  0  0  0  0  0  0
  179.5610  183.9720  137.4950 C   0  0  1  0  0  3  0  0  0  0  0  0
  180.4130  180.3110  138.4570 C   0  0  2  0  0  3  0  0  0  0  0  0
  180.8130  178.6720  134.6430 C   0  0  0  0  0  2  0  0  0  0  0  0
  180.3060  178.8960  141.9970 C   0  0  0  0  0  2  0  0  0  0  0  0
  181.0730  180.0480  134.7850 O   0  0  0  0  0  0  0  0  0  0  0  0
  180.2850  180.0030  140.9390 C   0  0  0  0  0  2  0  0  0  0  0  0
  182.6400  177.7980  140.4370 C   0  0  1  0  0  3  0  0  0  0  0  0
  181.5510  177.8810  135.7250 C   0  0  0  0  0  2  0  0  0  0  0  0
  181.8710  177.7560  138.1890 N   0  0  1  0  0  0  0  0  0  0  0  0
  184.0590  178.3050  142.3830 N   0  0  0  0  0  2  0  0  0  0  0  0
  183.8640  178.6740  143.7750 C   0  0  0  0  0  2  0  0  0  0  0  0
  186.1900  177.7080  146.2950 C   0  0  0  0  0  2  0  0  0  0  0  0
  186.2350  177.9630  143.9100 C   0  0  0  0  0  2  0  0  0  0  0  0
  185.2050  178.9420  144.4330 C   0  0  0  0  0  3  0  0  0  0  0  0
  187.1060  177.6240  145.0960 C   0  0  0  0  0  2  0  0  0  0  0  0
  185.1180  178.7200  145.9360 C   0  0  0  0  0  2  0  0  0  0  0  0
  1 26  1  6  0  0  0
  1 18  1  0  0  0  0
  1 27  1  0  0  0  0
  2 27  1  0  0  0  0
  2 14  1  0  0  0  0
  3 19  1  0  0  0  0
  3  7  2  0  0  0  0
  4 23  1  6  0  0  0
  4 15  1  0  0  0  0
  4 18  1  0  0  0  0
  5 19  1  0  0  0  0
  5 11  1  1  0  0  0
  8 12  1  0  0  0  0
  8 16  1  0  0  0  0
  9 13  1  0  0  0  0
  9 25  1  0  0  0  0
 12 15  1  0  0  0  0
 13 24  1  0  0  0  0
 14 25  1  0  0  0  0
 15  5  1  0  0  0  0
 16  3  1  0  0  0  0
 17 28  1  0  0  0  0
 17 10  1  0  0  0  0
 18 20  1  0  0  0  0
 19  6  1  0  0  0  0
 20 11  1  0  0  0  0
 20 13  1  0  0  0  0
 21 23  1  0  0  0  0
 21 26  1  0  0  0  0
 22 10  1  0  0  0  0
 24 22  1  0  0  0  0
 25 17  1  0  0  0  0
 27  9  1  0  0  0  0
 28 29  1  0  0  0  0
 29 32  1  0  0  0  0
 31 32  1  0  0  0  0
 31 33  1  0  0  0  0
 32 34  1  0  0  0  0
 33 30  1  0  0  0  0
 34 30  1  0  0  0  0
M  END
>  <MODEL>
1

>  <REMARK>
 VINA RESULT:      -8.8      0.000      0.000
  Name = 
  3 active torsions:
  status: ('A' for Active; 'I' for Inactive)
    1  A    between atoms: C_17  and  N_28
    2  A    between atoms: N_28  and  C_29
    3  A    between atoms: C_29  and  C_32
                            x       y       z     vdW  Elec       q    Type
                         _______ _______ _______ _____ _____    ______ ____

>  <TORSDO>
F 3

$$$$
=
 OpenBabel11122412253D

 34 40  0  0  1  0  0  0  0  0999 V2000
  187.4260  178.6580  141.0430 C   0  0  1  0  0  3  0  0  0  0  0  0
  187.0500  177.2010  142.9690 C   0  0  0  0  0  2  0  0  0  0  0  0
  190.2120  174.6730  136.9480 C   0  0  0  0  0  0  0  0  0  0  0  0
  187.7750  177.8300  138.7240 C   0  0  2  0  0  3  0  0  0  0  0  0
  190.0530  176.9470  138.0790 C   0  0  2  0  0  3  0  0  0  0  0  0
  192.1810  175.8330  137.6840 F   0  0  0  0  0  0  0  0  0  0  0  0
  190.6010  173.6630  137.5130 O   0  0  0  0  0  0  0  0  0  0  0  0
  188.6940  175.9530  135.4020 C   0  0  0  0  0  2  0  0  0  0  0  0
  189.0520  178.3900  142.8770 C   0  0  2  0  0  3  0  0  0  0  0  0
  191.5800  177.6940  144.6480 C   0  0  0  0  0  2  0  0  0  0  0  0
  190.3710  176.7440  139.5620 C   0  0  0  0  0  2  0  0  0  0  0  0
  188.1100  176.9920  136.3740 C   0  0  0  0  0  2  0  0  0  0  0  0
  189.9830  177.6060  141.8920 C   0  0  1  0  0  3  0  0  0  0  0  0
  187.7850  176.8490  144.2490 C   0  0  0  0  0  2  0  0  0  0  0  0
  188.5260  176.8280  137.8450 C   0  0  2  0  0  3  0  0  0  0  0  0
  189.0110  174.5980  136.0430 C   0  0  0  0  0  2  0  0  0  0  0  0
  190.2790  176.8830  144.6130 C   0  0  2  0  0  3  0  0  0  0  0  0
  188.1410  177.6120  140.2010 C   0  0  1  0  0  3  0  0  0  0  0  0
  190.8900  175.9950  137.2040 C   0  0  1  0  0  3  0  0  0  0  0  0
  189.6350  177.7800  140.4110 C   0  0  2  0  0  3  0  0  0  0  0  0
  185.7900  178.8110  139.1660 C   0  0  0  0  0  2  0  0  0  0  0  0
  191.7950  178.6090  143.4430 C   0  0  0  0  0  2  0  0  0  0  0  0
  186.3830  177.6840  138.5670 O   0  0  0  0  0  0  0  0  0  0  0  0
  191.4740  177.9390  142.1050 C   0  0  0  0  0  2  0  0  0  0  0  0
  189.0330  177.7200  144.2630 C   0  0  1  0  0  3  0  0  0  0  0  0
  185.9370  178.7380  140.6880 C   0  0  0  0  0  2  0  0  0  0  0  0
  187.6360  178.4450  142.4820 N   0  0  1  0  0  0  0  0  0  0  0  0
  190.1010  176.2210  145.8960 N   0  0  0  0  0  2  0  0  0  0  0  0
  190.7040  177.0800  146.9010 C   0  0  0  0  0  2  0  0  0  0  0  0
  187.7100  178.6770  147.9870 C   0  0  0  0  0  2  0  0  0  0  0  0
  188.5160  176.4210  147.8610 C   0  0  0  0  0  2  0  0  0  0  0  0
  189.7290  177.3070  148.0420 C   0  0  0  0  0  3  0  0  0  0  0  0
  187.3410  177.2500  148.3210 C   0  0  0  0  0  2  0  0  0  0  0  0
  189.2240  178.7420  148.0380 C   0  0  0  0  0  2  0  0  0  0  0  0
  1 26  1  1  0  0  0
  1 27  1  0  0  0  0
  2 14  1  0  0  0  0
  3 19  1  0  0  0  0
  3  7  2  0  0  0  0
  4 23  1  1  0  0  0
  4 18  1  0  0  0  0
  5 11  1  1  0  0  0
  8 16  1  0  0  0  0
  8 12  1  0  0  0  0
  9 25  1  0  0  0  0
 11 20  1  0  0  0  0
 12 15  1  0  0  0  0
 13 24  1  0  0  0  0
 13  9  1  0  0  0  0
 14 25  1  0  0  0  0
 15  5  1  0  0  0  0
 15  4  1  0  0  0  0
 16  3  1  0  0  0  0
 17 10  1  0  0  0  0
 17 28  1  0  0  0  0
 18 20  1  0  0  0  0
 18  1  1  0  0  0  0
 19  6  1  0  0  0  0
 19  5  1  0  0  0  0
 20 13  1  0  0  0  0
 21 26  1  0  0  0  0
 22 10  1  0  0  0  0
 23 21  1  0  0  0  0
 24 22  1  0  0  0  0
 25 17  1  0  0  0  0
 27  9  1  0  0  0  0
 27  2  1  0  0  0  0
 28 29  1  0  0  0  0
 29 32  1  0  0  0  0
 30 34  1  0  0  0  0
 30 33  1  0  0  0  0
 31 32  1  0  0  0  0
 31 33  1  0  0  0  0
 34 32  1  0  0  0  0
M  END
>  <MODEL>
2

>  <REMARK>
 VINA RESULT:      -8.4      6.303      9.440
  Name = 
  3 active torsions:
  status: ('A' for Active; 'I' for Inactive)
    1  A    between atoms: C_17  and  N_28
    2  A    between atoms: N_28  and  C_29
    3  A    between atoms: C_29  and  C_32
                            x       y       z     vdW  Elec       q    Type
                         _______ _______ _______ _____ _____    ______ ____

>  <TORSDO>
F 3

$$$$
=
 OpenBabel11122412253D

 34 40  0  0  1  0  0  0  0  0999 V2000
  184.8670  179.1920  142.3540 C   0  0  1  0  0  3  0  0  0  0  0  0
  186.3930  177.5360  143.3060 C   0  0  0  0  0  2  0  0  0  0  0  0
  181.6690  175.6980  138.1150 C   0  0  0  0  0  0  0  0  0  0  0  0
  182.7550  178.6160  141.1750 C   0  0  2  0  0  3  0  0  0  0  0  0
  182.8760  177.8380  138.7730 C   0  0  2  0  0  3  0  0  0  0  0  0
  183.1560  176.8030  136.5890 F   0  0  0  0  0  0  0  0  0  0  0  0
  182.2390  174.6400  137.8980 O   0  0  0  0  0  0  0  0  0  0  0  0
  179.8120  177.1100  139.0590 C   0  0  0  0  0  2  0  0  0  0  0  0
  187.1240  178.7580  141.4610 C   0  0  2  0  0  3  0  0  0  0  0  0
  189.6000  177.9160  139.6800 C   0  0  0  0  0  2  0  0  0  0  0  0
  184.3510  177.4860  138.9840 C   0  0  0  0  0  2  0  0  0  0  0  0
  180.6070  178.0330  139.9970 C   0  0  0  0  0  2  0  0  0  0  0  0
  186.4630  178.0950  140.2060 C   0  0  1  0  0  3  0  0  0  0  0  0
  187.8100  177.0630  143.0480 C   0  0  0  0  0  2  0  0  0  0  0  0
  182.1080  177.7220  140.1140 C   0  0  2  0  0  3  0  0  0  0  0  0
  180.3950  175.7000  138.9180 C   0  0  0  0  0  2  0  0  0  0  0  0
  189.0340  177.0950  140.8440 C   0  0  2  0  0  3  0  0  0  0  0  0
  184.2380  178.2510  141.3380 C   0  0  1  0  0  3  0  0  0  0  0  0
  182.2690  176.9950  137.6360 C   0  0  1  0  0  3  0  0  0  0  0  0
  184.9770  178.4170  140.0220 C   0  0  2  0  0  3  0  0  0  0  0  0
  182.5560  179.5170  143.2360 C   0  0  0  0  0  2  0  0  0  0  0  0
  188.6390  178.9550  139.1040 C   0  0  0  0  0  2  0  0  0  0  0  0
  182.1030  178.4670  142.4150 O   0  0  0  0  0  0  0  0  0  0  0  0
  187.2180  178.4250  138.9020 C   0  0  0  0  0  2  0  0  0  0  0  0
  188.3450  177.9470  141.9290 C   0  0  1  0  0  3  0  0  0  0  0  0
  184.0190  179.2880  143.6260 C   0  0  0  0  0  2  0  0  0  0  0  0
  186.2610  178.8330  142.6500 N   0  0  1  0  0  0  0  0  0  0  0  0
  190.1040  176.3010  141.4260 N   0  0  0  0  0  2  0  0  0  0  0  0
  191.2920  177.1360  141.4350 C   0  0  0  0  0  2  0  0  0  0  0  0
  190.8120  178.1140  144.8280 C   0  0  0  0  0  2  0  0  0  0  0  0
  191.3020  176.0700  143.6730 C   0  0  0  0  0  2  0  0  0  0  0  0
  191.8770  177.1910  142.8350 C   0  0  0  0  0  3  0  0  0  0  0  0
  191.1200  176.6520  145.0540 C   0  0  0  0  0  2  0  0  0  0  0  0
  191.4930  178.4910  143.5260 C   0  0  0  0  0  2  0  0  0  0  0  0
  1 27  1  0  0  0  0
  1 26  1  1  0  0  0
  3 16  1  0  0  0  0
  4 18  1  0  0  0  0
  4 23  1  1  0  0  0
  5 11  1  1  0  0  0
  5 15  1  0  0  0  0
  6 19  1  0  0  0  0
  7  3  2  0  0  0  0
  8 12  1  0  0  0  0
  9 25  1  0  0  0  0
  9 27  1  0  0  0  0
 10 17  1  0  0  0  0
 11 20  1  0  0  0  0
 12 15  1  0  0  0  0
 13  9  1  0  0  0  0
 14  2  1  0  0  0  0
 15  4  1  0  0  0  0
 16  8  1  0  0  0  0
 17 28  1  0  0  0  0
 17 25  1  0  0  0  0
 18  1  1  0  0  0  0
 19  3  1  0  0  0  0
 19  5  1  0  0  0  0
 20 13  1  0  0  0  0
 20 18  1  0  0  0  0
 21 26  1  0  0  0  0
 22 10  1  0  0  0  0
 23 21  1  0  0  0  0
 24 22  1  0  0  0  0
 24 13  1  0  0  0  0
 25 14  1  0  0  0  0
 27  2  1  0  0  0  0
 28 29  1  0  0  0  0
 29 32  1  0  0  0  0
 30 33  1  0  0  0  0
 31 33  1  0  0  0  0
 32 34  1  0  0  0  0
 32 31  1  0  0  0  0
 34 30  1  0  0  0  0
M  END
>  <MODEL>
3

>  <REMARK>
 VINA RESULT:      -8.2      4.465      7.109
  Name = 
  3 active torsions:
  status: ('A' for Active; 'I' for Inactive)
    1  A    between atoms: C_17  and  N_28
    2  A    between atoms: N_28  and  C_29
    3  A    between atoms: C_29  and  C_32
                            x       y       z     vdW  Elec       q    Type
                         _______ _______ _______ _____ _____    ______ ____

>  <TORSDO>
F 3

$$$$
=
 OpenBabel11122412253D

 34 40  0  0  1  0  0  0  0  0999 V2000
  191.6050  176.7870  138.1890 C   0  0  1  0  0  3  0  0  0  0  0  0
  191.0960  174.5230  137.4220 C   0  0  0  0  0  2  0  0  0  0  0  0
  188.3890  177.0380  143.6670 C   0  0  0  0  0  0  0  0  0  0  0  0
  191.4130  177.5280  140.5550 C   0  0  2  0  0  3  0  0  0  0  0  0
  189.1250  178.0910  141.4710 C   0  0  2  0  0  3  0  0  0  0  0  0
  186.8520  178.2900  142.3140 F   0  0  0  0  0  0  0  0  0  0  0  0
  187.5770  176.1300  143.7420 O   0  0  0  0  0  0  0  0  0  0  0  0
  190.5110  178.2290  144.3100 C   0  0  0  0  0  2  0  0  0  0  0  0
  189.6860  176.2490  136.7380 C   0  0  2  0  0  3  0  0  0  0  0  0
  186.7990  175.7710  135.5340 C   0  0  0  0  0  2  0  0  0  0  0  0
  188.4950  177.2770  140.3380 C   0  0  0  0  0  2  0  0  0  0  0  0
  191.2350  178.2710  142.9550 C   0  0  0  0  0  2  0  0  0  0  0  0
  188.7340  176.5420  137.9450 C   0  0  1  0  0  3  0  0  0  0  0  0
  190.0660  173.8670  136.5220 C   0  0  0  0  0  2  0  0  0  0  0  0
  190.5300  177.5300  141.8060 C   0  0  2  0  0  3  0  0  0  0  0  0
  189.6310  176.9920  144.5180 C   0  0  0  0  0  2  0  0  0  0  0  0
  187.7190  174.6720  136.0780 C   0  0  2  0  0  3  0  0  0  0  0  0
  190.7340  176.7240  139.4340 C   0  0  1  0  0  3  0  0  0  0  0  0
  188.1810  178.1630  142.6850 C   0  0  1  0  0  3  0  0  0  0  0  0
  189.3810  177.3210  139.0930 C   0  0  2  0  0  3  0  0  0  0  0  0
  193.5010  177.2600  139.7400 C   0  0  0  0  0  2  0  0  0  0  0  0
  187.1380  177.1820  136.0120 C   0  0  0  0  0  2  0  0  0  0  0  0
  192.6700  176.9580  140.8360 O   0  0  0  0  0  0  0  0  0  0  0  0
  187.4400  177.2610  137.5110 C   0  0  0  0  0  2  0  0  0  0  0  0
  189.2200  175.0030  135.9630 C   0  0  1  0  0  3  0  0  0  0  0  0
  193.0660  176.4560  138.5110 C   0  0  0  0  0  2  0  0  0  0  0  0
  191.0790  175.9470  137.1050 N   0  0  1  0  0  0  0  0  0  0  0  0
  187.4200  173.4250  135.3920 N   0  0  0  0  0  2  0  0  0  0  0  0
  185.9730  173.3020  135.3490 C   0  0  0  0  0  2  0  0  0  0  0  0
  183.2890  171.7130  137.0710 C   0  0  0  0  0  2  0  0  0  0  0  0
  184.8090  171.1140  135.3140 C   0  0  0  0  0  2  0  0  0  0  0  0
  185.5280  172.1180  136.1890 C   0  0  0  0  0  3  0  0  0  0  0  0
  183.6880  170.5690  136.1670 C   0  0  0  0  0  2  0  0  0  0  0  0
  184.5340  172.5590  137.2530 C   0  0  0  0  0  2  0  0  0  0  0  0
  1 26  1  1  0  0  0
  1 18  1  0  0  0  0
  3  7  2  0  0  0  0
  3 16  1  0  0  0  0
  4 23  1  1  0  0  0
  4 15  1  0  0  0  0
  5 11  1  6  0  0  0
  5 15  1  0  0  0  0
  5 19  1  0  0  0  0
  6 19  1  0  0  0  0
  8 16  1  0  0  0  0
  9 27  1  0  0  0  0
  9 13  1  0  0  0  0
 10 22  1  0  0  0  0
 10 17  1  0  0  0  0
 12  8  1  0  0  0  0
 13 20  1  0  0  0  0
 14  2  1  0  0  0  0
 15 12  1  0  0  0  0
 18  4  1  0  0  0  0
 19  3  1  0  0  0  0
 20 18  1  0  0  0  0
 20 11  1  0  0  0  0
 21 23  1  0  0  0  0
 22 24  1  0  0  0  0
 24 13  1  0  0  0  0
 25 17  1  0  0  0  0
 25 14  1  0  0  0  0
 25  9  1  0  0  0  0
 26 21  1  0  0  0  0
 27  2  1  0  0  0  0
 27  1  1  0  0  0  0
 28 17  1  0  0  0  0
 29 28  1  0  0  0  0
 29 32  1  0  0  0  0
 30 34  1  0  0  0  0
 31 33  1  0  0  0  0
 31 32  1  0  0  0  0
 32 34  1  0  0  0  0
 33 30  1  0  0  0  0
M  END
>  <MODEL>
4

>  <REMARK>
 VINA RESULT:      -8.0      7.612     11.062
  Name = 
  3 active torsions:
  status: ('A' for Active; 'I' for Inactive)
    1  A    between atoms: C_17  and  N_28
    2  A    between atoms: N_28  and  C_29
    3  A    between atoms: C_29  and  C_32
                            x       y       z     vdW  Elec       q    Type
                         _______ _______ _______ _____ _____    ______ ____

>  <TORSDO>
F 3

$$$$
=
 OpenBabel11122412253D

 34 40  0  0  1  0  0  0  0  0999 V2000
  184.1060  179.3910  139.2060 C   0  0  1  0  0  3  0  0  0  0  0  0
  184.4970  178.4460  141.4260 C   0  0  0  0  0  2  0  0  0  0  0  0
  183.8460  174.1530  135.6130 C   0  0  0  0  0  0  0  0  0  0  0  0
  183.1340  178.1140  137.3060 C   0  0  2  0  0  3  0  0  0  0  0  0
  184.6280  176.5430  136.0070 C   0  0  2  0  0  3  0  0  0  0  0  0
  186.0780  174.8370  135.0530 F   0  0  0  0  0  0  0  0  0  0  0  0
  184.2960  173.1880  136.2100 O   0  0  0  0  0  0  0  0  0  0  0  0
  181.9910  175.5150  134.5960 C   0  0  0  0  0  2  0  0  0  0  0  0
  186.3560  179.0070  140.1360 C   0  0  2  0  0  3  0  0  0  0  0  0
  189.2800  177.9570  140.7400 C   0  0  0  0  0  2  0  0  0  0  0  0
  185.5960  176.5180  137.1930 C   0  0  0  0  0  2  0  0  0  0  0  0
  182.1330  176.8260  135.3880 C   0  0  0  0  0  2  0  0  0  0  0  0
  186.5450  177.8400  139.1090 C   0  0  1  0  0  3  0  0  0  0  0  0
  185.6990  178.1310  142.2960 C   0  0  0  0  0  2  0  0  0  0  0  0
  183.1860  176.8090  136.5090 C   0  0  2  0  0  3  0  0  0  0  0  0
  182.3610  174.2560  135.3870 C   0  0  0  0  0  2  0  0  0  0  0  0
  188.0200  177.5420  141.5070 C   0  0  2  0  0  3  0  0  0  0  0  0
  184.1380  178.0610  138.4680 C   0  0  1  0  0  3  0  0  0  0  0  0
  184.7630  175.2620  135.1620 C   0  0  1  0  0  3  0  0  0  0  0  0
  185.5480  177.8460  137.9470 C   0  0  2  0  0  3  0  0  0  0  0  0
  181.8080  179.6630  138.2750 C   0  0  0  0  0  2  0  0  0  0  0  0
  189.0180  178.5580  139.3590 C   0  0  0  0  0  2  0  0  0  0  0  0
  181.8410  178.3310  137.8210 O   0  0  0  0  0  0  0  0  0  0  0  0
  187.9790  177.7820  138.5450 C   0  0  0  0  0  2  0  0  0  0  0  0
  186.9140  178.6160  141.5170 C   0  0  1  0  0  3  0  0  0  0  0  0
  182.6690  179.8150  139.5310 C   0  0  0  0  0  2  0  0  0  0  0  0
  184.9580  179.3790  140.4030 N   0  0  1  0  0  0  0  0  0  0  0  0
  188.3920  177.1850  142.8670 N   0  0  0  0  0  2  0  0  0  0  0  0
  189.7120  177.7420  143.1030 C   0  0  0  0  0  2  0  0  0  0  0  0
  188.8630  177.0390  146.4910 C   0  0  0  0  0  2  0  0  0  0  0  0
  190.8920  177.2950  145.2370 C   0  0  0  0  0  2  0  0  0  0  0  0
  189.8490  178.1560  144.5580 C   0  0  0  0  0  3  0  0  0  0  0  0
  190.3670  177.0550  146.6330 C   0  0  0  0  0  2  0  0  0  0  0  0
  188.5430  177.9280  145.3040 C   0  0  0  0  0  2  0  0  0  0  0  0
  1 26  1  1  0  0  0
  1 27  1  0  0  0  0
  2 14  1  0  0  0  0
  3  7  2  0  0  0  0
  4 23  1  1  0  0  0
  4 18  1  0  0  0  0
  5 15  1  0  0  0  0
  5 11  1  1  0  0  0
  6 19  1  0  0  0  0
  8 16  1  0  0  0  0
  8 12  1  0  0  0  0
  9 27  1  0  0  0  0
  9 25  1  0  0  0  0
 10 17  1  0  0  0  0
 11 20  1  0  0  0  0
 12 15  1  0  0  0  0
 13  9  1  0  0  0  0
 15  4  1  0  0  0  0
 16  3  1  0  0  0  0
 17 25  1  0  0  0  0
 17 28  1  0  0  0  0
 18  1  1  0  0  0  0
 19  3  1  0  0  0  0
 19  5  1  0  0  0  0
 20 18  1  0  0  0  0
 20 13  1  0  0  0  0
 21 26  1  0  0  0  0
 22 10  1  0  0  0  0
 23 21  1  0  0  0  0
 24 13  1  0  0  0  0
 24 22  1  0  0  0  0
 25 14  1  0  0  0  0
 27  2  1  0  0  0  0
 28 29  1  0  0  0  0
 29 32  1  0  0  0  0
 30 33  1  0  0  0  0
 31 33  1  0  0  0  0
 32 31  1  0  0  0  0
 32 34  1  0  0  0  0
 34 30  1  0  0  0  0
M  END
>  <MODEL>
5

>  <REMARK>
 VINA RESULT:      -7.8      3.916      6.735
  Name = 
  3 active torsions:
  status: ('A' for Active; 'I' for Inactive)
    1  A    between atoms: C_17  and  N_28
    2  A    between atoms: N_28  and  C_29
    3  A    between atoms: C_29  and  C_32
                            x       y       z     vdW  Elec       q    Type
                         _______ _______ _______ _____ _____    ______ ____

>  <TORSDO>
F 3

$$$$
=
 OpenBabel11122412253D

 34 40  0  0  1  0  0  0  0  0999 V2000
  190.9470  176.5980  136.8800 C   0  0  1  0  0  3  0  0  0  0  0  0
  189.9300  174.5330  136.0570 C   0  0  0  0  0  2  0  0  0  0  0  0
  188.9830  176.6690  142.9260 C   0  0  0  0  0  0  0  0  0  0  0  0
  191.3580  177.0790  139.2860 C   0  0  2  0  0  3  0  0  0  0  0  0
  189.4250  177.8540  140.7180 C   0  0  2  0  0  3  0  0  0  0  0  0
  187.4310  178.2750  142.0470 F   0  0  0  0  0  0  0  0  0  0  0  0
  188.0650  175.8830  143.0990 O   0  0  0  0  0  0  0  0  0  0  0  0
  191.3560  177.4630  143.1910 C   0  0  0  0  0  2  0  0  0  0  0  0
  188.7130  176.5100  135.8400 C   0  0  2  0  0  3  0  0  0  0  0  0
  185.6040  176.5910  135.2540 C   0  0  0  0  0  2  0  0  0  0  0  0
  188.4550  177.2730  139.6850 C   0  0  0  0  0  2  0  0  0  0  0  0
  191.7900  177.5570  141.7190 C   0  0  0  0  0  2  0  0  0  0  0  0
  188.0840  176.7940  137.2450 C   0  0  1  0  0  3  0  0  0  0  0  0
  188.6470  174.1390  135.3490 C   0  0  0  0  0  2  0  0  0  0  0  0
  190.7570  177.0630  140.6930 C   0  0  2  0  0  3  0  0  0  0  0  0
  190.3450  176.3480  143.4810 C   0  0  0  0  0  2  0  0  0  0  0  0
  186.4220  175.3160  135.4930 C   0  0  2  0  0  3  0  0  0  0  0  0
  190.3450  176.5160  138.2750 C   0  0  1  0  0  3  0  0  0  0  0  0
  188.7680  177.9180  142.1100 C   0  0  1  0  0  3  0  0  0  0  0  0
  189.0670  177.3350  138.2860 C   0  0  2  0  0  3  0  0  0  0  0  0
  193.1660  176.6120  138.0180 C   0  0  0  0  0  2  0  0  0  0  0  0
  186.2590  177.8740  135.7630 C   0  0  0  0  0  2  0  0  0  0  0  0
  192.5350  176.3080  139.2390 O   0  0  0  0  0  0  0  0  0  0  0  0
  186.8650  177.7350  137.1620 C   0  0  0  0  0  2  0  0  0  0  0  0
  187.9030  175.4410  135.0830 C   0  0  1  0  0  3  0  0  0  0  0  0
  192.3680  176.0270  136.8500 C   0  0  0  0  0  2  0  0  0  0  0  0
  190.0830  175.9720  135.8700 N   0  0  1  0  0  0  0  0  0  0  0  0
  185.7920  174.2120  134.7860 N   0  0  0  0  0  2  0  0  0  0  0  0
  184.6850  173.7600  135.6110 C   0  0  0  0  0  2  0  0  0  0  0  0
  183.3220  170.5790  136.4580 C   0  0  0  0  0  2  0  0  0  0  0  0
  185.0120  171.3910  134.9610 C   0  0  0  0  0  2  0  0  0  0  0  0
  184.9590  172.3580  136.1240 C   0  0  0  0  0  3  0  0  0  0  0  0
  184.3650  170.1220  135.4640 C   0  0  0  0  0  2  0  0  0  0  0  0
  183.8310  171.8880  137.0300 C   0  0  0  0  0  2  0  0  0  0  0  0
  1 26  1  1  0  0  0
  1 18  1  0  0  0  0
  3  7  2  0  0  0  0
  3 16  1  0  0  0  0
  4 23  1  1  0  0  0
  4 15  1  0  0  0  0
  5 11  1  6  0  0  0
  5 19  1  0  0  0  0
  6 19  1  0  0  0  0
  8 16  1  0  0  0  0
  9 27  1  0  0  0  0
  9 13  1  0  0  0  0
 10 17  1  0  0  0  0
 10 22  1  0  0  0  0
 12  8  1  0  0  0  0
 13 20  1  0  0  0  0
 14  2  1  0  0  0  0
 15  5  1  0  0  0  0
 15 12  1  0  0  0  0
 18 20  1  0  0  0  0
 18  4  1  0  0  0  0
 19  3  1  0  0  0  0
 20 11  1  0  0  0  0
 21 23  1  0  0  0  0
 22 24  1  0  0  0  0
 24 13  1  0  0  0  0
 25 14  1  0  0  0  0
 25 17  1  0  0  0  0
 25  9  1  0  0  0  0
 26 21  1  0  0  0  0
 27  2  1  0  0  0  0
 27  1  1  0  0  0  0
 28 17  1  0  0  0  0
 28 29  1  0  0  0  0
 29 32  1  0  0  0  0
 30 34  1  0  0  0  0
 31 33  1  0  0  0  0
 31 32  1  0  0  0  0
 32 34  1  0  0  0  0
 33 30  1  0  0  0  0
M  END
>  <MODEL>
6

>  <REMARK>
 VINA RESULT:      -7.5      7.178     10.897
  Name = 
  3 active torsions:
  status: ('A' for Active; 'I' for Inactive)
    1  A    between atoms: C_17  and  N_28
    2  A    between atoms: N_28  and  C_29
    3  A    between atoms: C_29  and  C_32
                            x       y       z     vdW  Elec       q    Type
                         _______ _______ _______ _____ _____    ______ ____

>  <TORSDO>
F 3

$$$$
=
 OpenBabel11122412253D

 34 40  0  0  1  0  0  0  0  0999 V2000
  187.2140  178.7080  140.5580 C   0  0  1  0  0  3  0  0  0  0  0  0
  186.9340  177.3790  142.5910 C   0  0  0  0  0  2  0  0  0  0  0  0
  188.8840  174.2550  136.3390 C   0  0  0  0  0  0  0  0  0  0  0  0
  187.1300  177.7620  138.2590 C   0  0  2  0  0  3  0  0  0  0  0  0
  189.1680  176.5680  137.3610 C   0  0  2  0  0  3  0  0  0  0  0  0
  191.0650  175.1740  136.7420 F   0  0  0  0  0  0  0  0  0  0  0  0
  189.2200  173.2230  136.8990 O   0  0  0  0  0  0  0  0  0  0  0  0
  187.3350  175.6670  134.9470 C   0  0  0  0  0  2  0  0  0  0  0  0
  189.0350  178.2940  142.1680 C   0  0  2  0  0  3  0  0  0  0  0  0
  191.6800  177.3360  143.6170 C   0  0  0  0  0  2  0  0  0  0  0  0
  189.6630  176.3770  138.7970 C   0  0  0  0  0  2  0  0  0  0  0  0
  187.0260  176.8060  135.9320 C   0  0  0  0  0  2  0  0  0  0  0  0
  189.7150  177.3620  141.1090 C   0  0  1  0  0  3  0  0  0  0  0  0
  187.7920  176.9790  143.7760 C   0  0  0  0  0  2  0  0  0  0  0  0
  187.6200  176.6400  137.3410 C   0  0  2  0  0  3  0  0  0  0  0  0
  187.5680  174.3050  135.6090 C   0  0  0  0  0  2  0  0  0  0  0  0
  190.2970  176.7010  143.8000 C   0  0  2  0  0  3  0  0  0  0  0  0
  187.6700  177.5500  139.6830 C   0  0  1  0  0  3  0  0  0  0  0  0
  189.7500  175.4850  136.4320 C   0  0  1  0  0  3  0  0  0  0  0  0
  189.1870  177.5290  139.6820 C   0  0  2  0  0  3  0  0  0  0  0  0
  185.3640  179.0080  138.9120 C   0  0  0  0  0  2  0  0  0  0  0  0
  191.8360  178.1730  142.3480 C   0  0  0  0  0  2  0  0  0  0  0  0
  185.7220  177.7930  138.2980 O   0  0  0  0  0  0  0  0  0  0  0  0
  191.2500  177.5050  141.1020 C   0  0  0  0  0  2  0  0  0  0  0  0
  189.1280  177.6810  143.5770 C   0  0  1  0  0  3  0  0  0  0  0  0
  185.7130  178.9690  140.4020 C   0  0  0  0  0  2  0  0  0  0  0  0
  187.5960  178.5190  141.9640 N   0  0  1  0  0  0  0  0  0  0  0  0
  190.2200  176.1130  145.1280 N   0  0  0  0  0  2  0  0  0  0  0  0
  190.4350  177.1900  146.0790 C   0  0  0  0  0  2  0  0  0  0  0  0
  188.6960  178.6270  148.8370 C   0  0  0  0  0  2  0  0  0  0  0  0
  188.1530  177.1290  147.0440 C   0  0  0  0  0  2  0  0  0  0  0  0
  189.6250  176.9400  147.3380 C   0  0  0  0  0  3  0  0  0  0  0  0
  187.5770  177.7790  148.2790 C   0  0  0  0  0  2  0  0  0  0  0  0
  189.9870  177.9490  148.4180 C   0  0  0  0  0  2  0  0  0  0  0  0
  1 26  1  1  0  0  0
  1 27  1  0  0  0  0
  2 14  1  0  0  0  0
  3 19  1  0  0  0  0
  3  7  2  0  0  0  0
  4 23  1  1  0  0  0
  4 18  1  0  0  0  0
  5 11  1  1  0  0  0
  8 16  1  0  0  0  0
  8 12  1  0  0  0  0
  9 25  1  0  0  0  0
 10 17  1  0  0  0  0
 11 20  1  0  0  0  0
 12 15  1  0  0  0  0
 13  9  1  0  0  0  0
 15  5  1  0  0  0  0
 15  4  1  0  0  0  0
 16  3  1  0  0  0  0
 17 28  1  0  0  0  0
 18  1  1  0  0  0  0
 19  6  1  0  0  0  0
 19  5  1  0  0  0  0
 20 18  1  0  0  0  0
 20 13  1  0  0  0  0
 21 26  1  0  0  0  0
 22 10  1  0  0  0  0
 23 21  1  0  0  0  0
 24 13  1  0  0  0  0
 24 22  1  0  0  0  0
 25 14  1  0  0  0  0
 25 17  1  0  0  0  0
 27  9  1  0  0  0  0
 27  2  1  0  0  0  0
 28 29  1  0  0  0  0
 29 32  1  0  0  0  0
 31 32  1  0  0  0  0
 31 33  1  0  0  0  0
 32 34  1  0  0  0  0
 33 30  1  0  0  0  0
 34 30  1  0  0  0  0
M  END
>  <MODEL>
7

>  <REMARK>
 VINA RESULT:      -7.5      5.959      9.054
  Name = 
  3 active torsions:
  status: ('A' for Active; 'I' for Inactive)
    1  A    between atoms: C_17  and  N_28
    2  A    between atoms: N_28  and  C_29
    3  A    between atoms: C_29  and  C_32
                            x       y       z     vdW  Elec       q    Type
                         _______ _______ _______ _____ _____    ______ ____

>  <TORSDO>
F 3

$$$$
=
 OpenBabel11122412253D

 34 40  0  0  1  0  0  0  0  0999 V2000
  183.6760  179.0140  138.6810 C   0  0  1  0  0  3  0  0  0  0  0  0
  184.4810  178.6810  140.9640 C   0  0  0  0  0  2  0  0  0  0  0  0
  183.3320  173.0320  136.5580 C   0  0  0  0  0  0  0  0  0  0  0  0
  182.5420  177.2540  137.3380 C   0  0  2  0  0  3  0  0  0  0  0  0
  183.9530  175.4770  136.2250 C   0  0  2  0  0  3  0  0  0  0  0  0
  185.3850  173.6550  135.4820 F   0  0  0  0  0  0  0  0  0  0  0  0
  183.9500  172.2710  137.2860 O   0  0  0  0  0  0  0  0  0  0  0  0
  181.2320  174.0040  135.5700 C   0  0  0  0  0  2  0  0  0  0  0  0
  186.0660  178.9830  139.2830 C   0  0  2  0  0  3  0  0  0  0  0  0
  189.1280  178.2580  139.6200 C   0  0  0  0  0  2  0  0  0  0  0  0
  185.0880  175.7970  137.2000 C   0  0  0  0  0  2  0  0  0  0  0  0
  181.3780  175.4770  135.9860 C   0  0  0  0  0  2  0  0  0  0  0  0
  186.1980  177.6050  138.5520 C   0  0  1  0  0  3  0  0  0  0  0  0
  185.8230  178.6520  141.6690 C   0  0  0  0  0  2  0  0  0  0  0  0
  182.5860  175.7930  136.8830 C   0  0  2  0  0  3  0  0  0  0  0  0
  181.8270  173.0050  136.5680 C   0  0  0  0  0  2  0  0  0  0  0  0
  188.0400  177.9910  140.6660 C   0  0  2  0  0  3  0  0  0  0  0  0
  183.7120  177.5440  138.2920 C   0  0  1  0  0  3  0  0  0  0  0  0
  184.0700  174.0320  135.7050 C   0  0  1  0  0  3  0  0  0  0  0  0
  185.0390  177.2700  137.6090 C   0  0  2  0  0  3  0  0  0  0  0  0
  181.2480  178.9340  138.1130 C   0  0  0  0  0  2  0  0  0  0  0  0
  188.6080  178.4760  138.2000 C   0  0  0  0  0  2  0  0  0  0  0  0
  181.3290  177.5340  137.9960 O   0  0  0  0  0  0  0  0  0  0  0  0
  187.5300  177.4730  137.7850 C   0  0  0  0  0  2  0  0  0  0  0  0
  186.8590  178.9800  140.6020 C   0  0  1  0  0  3  0  0  0  0  0  0
  182.2740  179.4390  139.1310 C   0  0  0  0  0  2  0  0  0  0  0  0
  184.6970  179.3440  139.6830 N   0  0  1  0  0  0  0  0  0  0  0  0
  188.6440  178.0080  141.9900 N   0  0  0  0  0  2  0  0  0  0  0  0
  189.0520  176.6450  142.2840 C   0  0  0  0  0  2  0  0  0  0  0  0
  189.4000  177.8940  145.6020 C   0  0  0  0  0  2  0  0  0  0  0  0
  187.6170  176.9950  144.2740 C   0  0  0  0  0  2  0  0  0  0  0  0
  188.8960  176.3650  143.7680 C   0  0  0  0  0  3  0  0  0  0  0  0
  187.9410  177.5060  145.6570 C   0  0  0  0  0  2  0  0  0  0  0  0
  190.0340  176.9980  144.5550 C   0  0  0  0  0  2  0  0  0  0  0  0
  1 26  1  1  0  0  0
  1 27  1  0  0  0  0
  2 14  1  0  0  0  0
  3 16  1  0  0  0  0
  3  7  2  0  0  0  0
  4 23  1  1  0  0  0
  4 18  1  0  0  0  0
  5 15  1  0  0  0  0
  5 11  1  1  0  0  0
  6 19  1  0  0  0  0
  8 12  1  0  0  0  0
  8 16  1  0  0  0  0
  9 27  1  0  0  0  0
  9 25  1  0  0  0  0
 10 17  1  0  0  0  0
 11 20  1  0  0  0  0
 12 15  1  0  0  0  0
 13  9  1  0  0  0  0
 15  4  1  0  0  0  0
 17 28  1  0  0  0  0
 18  1  1  0  0  0  0
 19  5  1  0  0  0  0
 19  3  1  0  0  0  0
 20 18  1  0  0  0  0
 20 13  1  0  0  0  0
 21 26  1  0  0  0  0
 22 10  1  0  0  0  0
 23 21  1  0  0  0  0
 24 22  1  0  0  0  0
 24 13  1  0  0  0  0
 25 17  1  0  0  0  0
 25 14  1  0  0  0  0
 27  2  1  0  0  0  0
 28 29  1  0  0  0  0
 29 32  1  0  0  0  0
 30 33  1  0  0  0  0
 31 33  1  0  0  0  0
 32 31  1  0  0  0  0
 32 34  1  0  0  0  0
 34 30  1  0  0  0  0
M  END
>  <MODEL>
8

>  <REMARK>
 VINA RESULT:      -7.3      4.132      6.986
  Name = 
  3 active torsions:
  status: ('A' for Active; 'I' for Inactive)
    1  A    between atoms: C_17  and  N_28
    2  A    between atoms: N_28  and  C_29
    3  A    between atoms: C_29  and  C_32
                            x       y       z     vdW  Elec       q    Type
                         _______ _______ _______ _____ _____    ______ ____

>  <TORSDO>
F 3

$$$$
=
 OpenBabel11122412253D

 34 40  0  0  1  0  0  0  0  0999 V2000
  186.7430  178.6280  139.4940 C   0  0  1  0  0  3  0  0  0  0  0  0
  186.9510  177.6730  141.7350 C   0  0  0  0  0  2  0  0  0  0  0  0
  186.7100  173.4020  135.8740 C   0  0  0  0  0  0  0  0  0  0  0  0
  185.9100  177.3660  137.5200 C   0  0  2  0  0  3  0  0  0  0  0  0
  187.4840  175.7820  136.3360 C   0  0  2  0  0  3  0  0  0  0  0  0
  188.9860  174.0640  135.4920 F   0  0  0  0  0  0  0  0  0  0  0  0
  187.1020  172.4310  136.5010 O   0  0  0  0  0  0  0  0  0  0  0  0
  184.9540  174.7870  134.7200 C   0  0  0  0  0  2  0  0  0  0  0  0
  188.9100  178.2170  140.5960 C   0  0  2  0  0  3  0  0  0  0  0  0
  191.7670  177.1350  141.4220 C   0  0  0  0  0  2  0  0  0  0  0  0
  188.3560  175.7440  137.5930 C   0  0  0  0  0  2  0  0  0  0  0  0
  185.0480  176.0930  135.5250 C   0  0  0  0  0  2  0  0  0  0  0  0
  189.1660  177.0510  139.5830 C   0  0  1  0  0  3  0  0  0  0  0  0
  188.0780  177.3420  142.6950 C   0  0  0  0  0  2  0  0  0  0  0  0
  186.0100  176.0620  136.7250 C   0  0  2  0  0  3  0  0  0  0  0  0
  185.2480  173.5220  135.5330 C   0  0  0  0  0  2  0  0  0  0  0  0
  190.4460  176.7300  142.0870 C   0  0  2  0  0  3  0  0  0  0  0  0
  186.8190  177.2990  138.7570 C   0  0  1  0  0  3  0  0  0  0  0  0
  187.6710  174.5020  135.5000 C   0  0  1  0  0  3  0  0  0  0  0  0
  188.2630  177.0710  138.3470 C   0  0  2  0  0  3  0  0  0  0  0  0
  184.5280  178.9260  138.3880 C   0  0  0  0  0  2  0  0  0  0  0  0
  191.6200  177.7410  140.0270 C   0  0  0  0  0  2  0  0  0  0  0  0
  184.5830  177.5950  137.9330 O   0  0  0  0  0  0  0  0  0  0  0  0
  190.6400  176.9790  139.1320 C   0  0  0  0  0  2  0  0  0  0  0  0
  189.3550  177.8160  142.0140 C   0  0  1  0  0  3  0  0  0  0  0  0
  185.2910  179.0660  139.7070 C   0  0  0  0  0  2  0  0  0  0  0  0
  187.4990  178.6030  140.7540 N   0  0  1  0  0  0  0  0  0  0  0  0
  190.7080  176.3660  143.4710 N   0  0  0  0  0  2  0  0  0  0  0  0
  191.6470  177.3430  143.9940 C   0  0  0  0  0  2  0  0  0  0  0  0
  189.3800  176.9040  146.7070 C   0  0  0  0  0  2  0  0  0  0  0  0
  191.6800  176.3790  146.2780 C   0  0  0  0  0  2  0  0  0  0  0  0
  191.3550  177.6100  145.4600 C   0  0  0  0  0  3  0  0  0  0  0  0
  190.6150  176.3130  147.3460 C   0  0  0  0  0  2  0  0  0  0  0  0
  189.8750  177.8920  145.6690 C   0  0  0  0  0  2  0  0  0  0  0  0
  1 26  1  1  0  0  0
  1 27  1  0  0  0  0
  2 14  1  0  0  0  0
  3  7  2  0  0  0  0
  4 23  1  1  0  0  0
  4 18  1  0  0  0  0
  5 15  1  0  0  0  0
  5 11  1  1  0  0  0
  6 19  1  0  0  0  0
  8 12  1  0  0  0  0
  8 16  1  0  0  0  0
  9 27  1  0  0  0  0
  9 25  1  0  0  0  0
 10 17  1  0  0  0  0
 11 20  1  0  0  0  0
 12 15  1  0  0  0  0
 13  9  1  0  0  0  0
 15  4  1  0  0  0  0
 16  3  1  0  0  0  0
 17 28  1  0  0  0  0
 18  1  1  0  0  0  0
 19  3  1  0  0  0  0
 19  5  1  0  0  0  0
 20 18  1  0  0  0  0
 20 13  1  0  0  0  0
 21 26  1  0  0  0  0
 22 10  1  0  0  0  0
 23 21  1  0  0  0  0
 24 13  1  0  0  0  0
 24 22  1  0  0  0  0
 25 17  1  0  0  0  0
 25 14  1  0  0  0  0
 27  2  1  0  0  0  0
 28 29  1  0  0  0  0
 29 32  1  0  0  0  0
 30 33  1  0  0  0  0
 31 33  1  0  0  0  0
 32 34  1  0  0  0  0
 32 31  1  0  0  0  0
 34 30  1  0  0  0  0
M  END
>  <MODEL>
9

>  <REMARK>
 VINA RESULT:      -7.1      5.521      8.664
  Name = 
  3 active torsions:
  status: ('A' for Active; 'I' for Inactive)
    1  A    between atoms: C_17  and  N_28
    2  A    between atoms: N_28  and  C_29
    3  A    between atoms: C_29  and  C_32
                            x       y       z     vdW  Elec       q    Type
                         _______ _______ _______ _____ _____    ______ ____

>  <TORSDO>
F 3

$$$$
