=
 OpenBabel11122410583D

 31 35  0  0  1  0  0  0  0  0999 V2000
  189.9460  175.8780  142.7470 C   0  0  0  0  0  0  0  0  0  0  0  0
  186.5090  177.1340  143.7740 C   0  0  2  0  0  3  0  0  0  0  0  0
  186.7200  177.8160  145.1160 C   0  0  0  0  0  0  0  0  0  0  0  0
  188.0490  178.0630  147.0800 C   0  0  0  0  0  0  0  0  0  0  0  0
  187.7940  176.9750  142.9980 C   0  0  0  0  0  0  0  0  0  0  0  0
  190.2470  176.7040  141.6620 C   0  0  0  0  0  3  0  0  0  0  0  0
  187.8390  177.5390  145.8440 N   0  0  0  0  0  0  0  0  0  0  0  0
  185.9370  179.0810  142.2590 C   0  0  2  0  0  3  0  0  0  0  0  0
  190.8630  174.9240  143.1680 O   0  0  0  0  0  1  0  0  0  0  0  0
  184.4740  179.0090  144.9360 C   0  0  0  0  0  2  0  0  0  0  0  0
  189.5160  177.6800  147.9530 Cl  0  0  0  0  0  0  0  0  0  0  0  0
  187.0890  178.7510  141.3130 C   0  0  0  0  0  2  0  0  0  0  0  0
  185.4080  177.7990  142.9260 C   0  0  2  0  0  3  0  0  0  0  0  0
  188.7250  176.0110  143.4100 C   0  0  0  0  0  3  0  0  0  0  0  0
  187.0940  178.9010  147.6550 C   0  0  0  0  0  3  0  0  0  0  0  0
  188.0990  177.8080  141.8980 C   0  0  0  0  0  0  0  0  0  0  0  0
  189.3210  177.6590  141.2340 C   0  0  0  0  0  3  0  0  0  0  0  0
  184.1710  178.0400  143.7960 C   0  0  0  0  0  2  0  0  0  0  0  0
  185.7180  178.6340  145.6840 C   0  0  0  0  0  0  0  0  0  0  0  0
  185.9270  179.1870  146.9490 C   0  0  0  0  0  3  0  0  0  0  0  0
  184.8920  179.7520  141.4920 N   0  0  0  0  0  2  0  0  0  0  0  0
  182.7590  178.7330  140.9050 C   0  0  0  0  0  1  0  0  0  0  0  0
  184.2550  178.7690  140.6220 C   0  0  1  0  0  3  0  0  0  0  0  0
  181.9000  179.9120  137.9050 C   0  0  1  0  0  3  0  0  0  0  0  0
  184.0860  180.4390  138.8200 O   0  0  0  0  0  0  0  0  0  0  0  0
  183.8330  176.5680  138.5490 O   0  0  0  0  0  0  0  0  0  0  0  0
  180.4410  180.2930  138.0330 C   0  0  0  0  0  1  0  0  0  0  0  0
  182.6960  180.5710  139.0290 C   0  0  0  0  0  2  0  0  0  0  0  0
  183.7700  177.9540  137.9260 S   0  0  2  0  0  0  0  0  0  0  0  0
  184.4850  179.1170  139.1360 C   0  0  2  0  0  3  0  0  0  0  0  0
  182.0290  178.3990  137.9940 C   0  0  0  0  0  2  0  0  0  0  0  0
  1  9  1  0  0  0  0
  1 14  1  0  0  0  0
  2  5  1  6  0  0  0
  2  3  1  0  0  0  0
  3 19  2  0  0  0  0
  3  7  1  0  0  0  0
  4 15  1  0  0  0  0
  4 11  1  0  0  0  0
  5 14  2  0  0  0  0
  6  1  2  0  0  0  0
  7  4  2  0  0  0  0
  8 21  1  6  0  0  0
  8 13  1  0  0  0  0
 10 19  1  0  0  0  0
 12 16  1  0  0  0  0
 12  8  1  0  0  0  0
 13  2  1  0  0  0  0
 13 18  1  1  0  0  0
 16  5  1  0  0  0  0
 17  6  1  0  0  0  0
 17 16  2  0  0  0  0
 18 10  1  0  0  0  0
 19 20  1  0  0  0  0
 20 15  2  0  0  0  0
 23 22  1  6  0  0  0
 23 21  1  0  0  0  0
 24 31  1  0  0  0  0
 24 27  1  1  0  0  0
 24 28  1  0  0  0  0
 25 28  1  0  0  0  0
 25 30  1  0  0  0  0
 29 31  1  0  0  0  0
 29 26  2  1  0  0  0
 29 30  1  0  0  0  0
 30 23  1  1  0  0  0
M  END
>  <MODEL>
1

>  <REMARK>
 VINA RESULT:      -9.6      0.000      0.000
  Name = 
  3 active torsions:
  status: ('A' for Active; 'I' for Inactive)
    1  A    between atoms: C_5  and  N_16
    2  A    between atoms: C_5  and  C_30
    3  A    between atoms: C_10  and  N_16
                            x       y       z     vdW  Elec       q    Type
                         _______ _______ _______ _____ _____    ______ ____

>  <TORSDO>
F 3

$$$$
=
 OpenBabel11122410583D

 31 35  0  0  1  0  0  0  0  0999 V2000
  191.3520  176.5560  145.2190 C   0  0  0  0  0  0  0  0  0  0  0  0
  187.7970  177.0610  143.9730 C   0  0  2  0  0  3  0  0  0  0  0  0
  187.0860  177.8050  145.0910 C   0  0  0  0  0  0  0  0  0  0  0  0
  186.9880  178.3830  147.4030 C   0  0  0  0  0  0  0  0  0  0  0  0
  189.3000  177.1660  144.0720 C   0  0  0  0  0  0  0  0  0  0  0  0
  192.0790  177.4010  144.3790 C   0  0  0  0  0  3  0  0  0  0  0  0
  187.6130  177.7960  146.3490 N   0  0  0  0  0  0  0  0  0  0  0  0
  187.8860  178.8010  142.1340 C   0  0  2  0  0  3  0  0  0  0  0  0
  192.0040  175.8340  146.2100 O   0  0  0  0  0  1  0  0  0  0  0  0
  185.1900  178.4780  143.5260 C   0  0  0  0  0  2  0  0  0  0  0  0
  187.7290  178.3480  148.9870 Cl  0  0  0  0  0  0  0  0  0  0  0  0
  189.4070  178.7050  142.0460 C   0  0  0  0  0  2  0  0  0  0  0  0
  187.2890  177.4510  142.5710 C   0  0  2  0  0  3  0  0  0  0  0  0
  189.9690  176.4370  145.0650 C   0  0  0  0  0  3  0  0  0  0  0  0
  185.7540  179.0080  147.2230 C   0  0  0  0  0  3  0  0  0  0  0  0
  190.0380  178.0180  143.2210 C   0  0  0  0  0  0  0  0  0  0  0  0
  191.4240  178.1220  143.3770 C   0  0  0  0  0  3  0  0  0  0  0  0
  185.7580  177.4390  142.5630 C   0  0  0  0  0  2  0  0  0  0  0  0
  185.8210  178.4010  144.8830 C   0  0  0  0  0  0  0  0  0  0  0  0
  185.1740  179.0160  145.9560 C   0  0  0  0  0  3  0  0  0  0  0  0
  187.3750  179.2100  140.8290 N   0  0  0  0  0  2  0  0  0  0  0  0
  186.6010  177.9880  138.8700 C   0  0  0  0  0  1  0  0  0  0  0  0
  187.7500  178.1970  139.8490 C   0  0  1  0  0  3  0  0  0  0  0  0
  188.9200  177.4510  136.3400 C   0  0  1  0  0  3  0  0  0  0  0  0
  188.7050  179.3190  137.8760 O   0  0  0  0  0  0  0  0  0  0  0  0
  190.1560  176.3180  139.8780 O   0  0  0  0  0  0  0  0  0  0  0  0
  188.1700  176.7340  135.2380 C   0  0  0  0  0  1  0  0  0  0  0  0
  187.9920  178.4650  137.0060 C   0  0  0  0  0  2  0  0  0  0  0  0
  190.2120  177.2950  138.7130 S   0  0  2  0  0  0  0  0  0  0  0  0
  189.0130  178.6220  139.0700 C   0  0  2  0  0  3  0  0  0  0  0  0
  189.3960  176.4320  137.3630 C   0  0  0  0  0  2  0  0  0  0  0  0
  1  9  1  0  0  0  0
  2  5  1  6  0  0  0
  2  3  1  0  0  0  0
  3  7  1  0  0  0  0
  4 11  1  0  0  0  0
  5 14  2  0  0  0  0
  6  1  2  0  0  0  0
  7  4  2  0  0  0  0
  8 21  1  6  0  0  0
  8 13  1  0  0  0  0
 10 19  1  0  0  0  0
 12  8  1  0  0  0  0
 12 16  1  0  0  0  0
 13 18  1  1  0  0  0
 13  2  1  0  0  0  0
 14  1  1  0  0  0  0
 15  4  1  0  0  0  0
 16 17  2  0  0  0  0
 16  5  1  0  0  0  0
 17  6  1  0  0  0  0
 18 10  1  0  0  0  0
 19  3  2  0  0  0  0
 19 20  1  0  0  0  0
 20 15  2  0  0  0  0
 23 22  1  6  0  0  0
 23 21  1  0  0  0  0
 24 27  1  6  0  0  0
 24 28  1  0  0  0  0
 24 31  1  0  0  0  0
 25 30  1  0  0  0  0
 28 25  1  0  0  0  0
 29 30  1  0  0  0  0
 29 26  2  1  0  0  0
 30 23  1  6  0  0  0
 31 29  1  0  0  0  0
M  END
>  <MODEL>
2

>  <REMARK>
 VINA RESULT:      -9.0      3.042      3.969
  Name = 
  3 active torsions:
  status: ('A' for Active; 'I' for Inactive)
    1  A    between atoms: C_5  and  N_16
    2  A    between atoms: C_5  and  C_30
    3  A    between atoms: C_10  and  N_16
                            x       y       z     vdW  Elec       q    Type
                         _______ _______ _______ _____ _____    ______ ____

>  <TORSDO>
F 3

$$$$
=
 OpenBabel11122410583D

 31 35  0  0  1  0  0  0  0  0999 V2000
  189.3810  176.5210  142.0920 C   0  0  0  0  0  0  0  0  0  0  0  0
  186.6840  177.1450  144.6970 C   0  0  2  0  0  3  0  0  0  0  0  0
  187.4310  177.6000  145.9400 C   0  0  0  0  0  0  0  0  0  0  0  0
  189.4680  177.6590  147.1760 C   0  0  0  0  0  0  0  0  0  0  0  0
  187.5110  177.2850  143.4420 C   0  0  0  0  0  0  0  0  0  0  0  0
  189.1540  177.5560  141.1830 C   0  0  0  0  0  3  0  0  0  0  0  0
  188.7640  177.3390  146.0600 N   0  0  0  0  0  0  0  0  0  0  0  0
  185.4460  179.2440  144.0070 C   0  0  2  0  0  3  0  0  0  0  0  0
  190.4230  175.6280  141.8810 O   0  0  0  0  0  1  0  0  0  0  0  0
  185.2870  178.5220  146.9680 C   0  0  0  0  0  2  0  0  0  0  0  0
  191.1810  177.3100  147.2570 Cl  0  0  0  0  0  0  0  0  0  0  0  0
  186.0850  179.2290  142.6220 C   0  0  0  0  0  2  0  0  0  0  0  0
  185.3020  177.8090  144.5460 C   0  0  2  0  0  3  0  0  0  0  0  0
  188.5620  176.3850  143.2140 C   0  0  0  0  0  3  0  0  0  0  0  0
  188.8270  178.2590  148.2600 C   0  0  0  0  0  3  0  0  0  0  0  0
  187.2820  178.3290  142.5190 C   0  0  0  0  0  0  0  0  0  0  0  0
  188.1010  178.4500  141.3920 C   0  0  0  0  0  3  0  0  0  0  0  0
  184.5560  177.7390  145.8810 C   0  0  0  0  0  2  0  0  0  0  0  0
  186.7440  178.1770  147.0330 C   0  0  0  0  0  0  0  0  0  0  0  0
  187.4600  178.5190  148.1810 C   0  0  0  0  0  3  0  0  0  0  0  0
  184.1480  179.9050  143.9060 N   0  0  0  0  0  2  0  0  0  0  0  0
  182.0990  178.6270  144.2180 C   0  0  0  0  0  1  0  0  0  0  0  0
  183.2160  178.9960  143.2490 C   0  0  1  0  0  3  0  0  0  0  0  0
  180.5180  177.8480  140.8750 C   0  0  1  0  0  3  0  0  0  0  0  0
  181.2050  179.8290  142.0980 O   0  0  0  0  0  0  0  0  0  0  0  0
  184.3980  178.2530  140.5350 O   0  0  0  0  0  0  0  0  0  0  0  0
  179.6210  176.6350  140.9960 C   0  0  0  0  0  1  0  0  0  0  0  0
  180.5750  178.5710  142.2180 C   0  0  0  0  0  2  0  0  0  0  0  0
  182.9960  178.8310  140.4050 S   0  0  2  0  0  0  0  0  0  0  0  0
  182.6050  179.6450  141.9900 C   0  0  2  0  0  3  0  0  0  0  0  0
  181.9120  177.3980  140.4660 C   0  0  0  0  0  2  0  0  0  0  0  0
  1 14  1  0  0  0  0
  2  5  1  6  0  0  0
  2  3  1  0  0  0  0
  3  7  2  0  0  0  0
  3 19  1  0  0  0  0
  4 11  1  0  0  0  0
  4 15  2  0  0  0  0
  6 17  1  0  0  0  0
  6  1  2  0  0  0  0
  7  4  1  0  0  0  0
  8 21  1  6  0  0  0
  8 13  1  0  0  0  0
  9  1  1  0  0  0  0
 10 19  1  0  0  0  0
 12  8  1  0  0  0  0
 13  2  1  0  0  0  0
 13 18  1  1  0  0  0
 14  5  2  0  0  0  0
 16 12  1  0  0  0  0
 16  5  1  0  0  0  0
 17 16  2  0  0  0  0
 18 10  1  0  0  0  0
 19 20  2  0  0  0  0
 20 15  1  0  0  0  0
 23 21  1  0  0  0  0
 23 22  1  1  0  0  0
 24 27  1  1  0  0  0
 24 28  1  0  0  0  0
 25 28  1  0  0  0  0
 29 31  1  0  0  0  0
 29 26  2  1  0  0  0
 29 30  1  0  0  0  0
 30 25  1  0  0  0  0
 30 23  1  1  0  0  0
 31 24  1  0  0  0  0
M  END
>  <MODEL>
3

>  <REMARK>
 VINA RESULT:      -8.4      1.930      2.433
  Name = 
  3 active torsions:
  status: ('A' for Active; 'I' for Inactive)
    1  A    between atoms: C_5  and  N_16
    2  A    between atoms: C_5  and  C_30
    3  A    between atoms: C_10  and  N_16
                            x       y       z     vdW  Elec       q    Type
                         _______ _______ _______ _____ _____    ______ ____

>  <TORSDO>
F 3

$$$$
=
 OpenBabel11122410583D

 31 35  0  0  1  0  0  0  0  0999 V2000
  183.7520  178.7650  142.8260 C   0  0  0  0  0  0  0  0  0  0  0  0
  182.8210  177.6820  139.3030 C   0  0  2  0  0  3  0  0  0  0  0  0
  181.8420  178.7340  138.8100 C   0  0  0  0  0  0  0  0  0  0  0  0
  180.2680  180.4470  139.3350 C   0  0  0  0  0  0  0  0  0  0  0  0
  183.6430  178.1610  140.4760 C   0  0  0  0  0  0  0  0  0  0  0  0
  185.0850  179.1470  142.6710 C   0  0  0  0  0  3  0  0  0  0  0  0
  181.2050  179.5370  139.7100 N   0  0  0  0  0  0  0  0  0  0  0  0
  184.8430  178.0900  137.8340 C   0  0  2  0  0  3  0  0  0  0  0  0
  183.1370  178.8770  144.0660 O   0  0  0  0  0  1  0  0  0  0  0  0
  182.1550  177.9860  136.3930 C   0  0  0  0  0  2  0  0  0  0  0  0
  179.5020  181.4570  140.5400 Cl  0  0  0  0  0  0  0  0  0  0  0  0
  185.7450  178.3090  139.0450 C   0  0  0  0  0  2  0  0  0  0  0  0
  183.7080  177.1100  138.1810 C   0  0  2  0  0  3  0  0  0  0  0  0
  183.0350  178.2720  141.7340 C   0  0  0  0  0  3  0  0  0  0  0  0
  179.9130  180.5720  137.9920 C   0  0  0  0  0  3  0  0  0  0  0  0
  184.9930  178.5450  140.3220 C   0  0  0  0  0  0  0  0  0  0  0  0
  185.7060  179.0270  141.4250 C   0  0  0  0  0  3  0  0  0  0  0  0
  182.8350  176.7500  136.9760 C   0  0  0  0  0  2  0  0  0  0  0  0
  181.4800  178.8120  137.4460 C   0  0  0  0  0  0  0  0  0  0  0  0
  180.5260  179.7510  137.0480 C   0  0  0  0  0  3  0  0  0  0  0  0
  185.6630  177.5860  136.7360 N   0  0  0  0  0  2  0  0  0  0  0  0
  186.3460  175.2840  137.1420 C   0  0  0  0  0  1  0  0  0  0  0  0
  186.7220  176.7530  137.2960 C   0  0  1  0  0  3  0  0  0  0  0  0
  190.2110  177.3140  138.6170 C   0  0  1  0  0  3  0  0  0  0  0  0
  189.0470  176.0450  136.9050 O   0  0  0  0  0  0  0  0  0  0  0  0
  187.5900  179.6500  136.8830 O   0  0  0  0  0  0  0  0  0  0  0  0
  190.6980  177.2030  140.0450 C   0  0  0  0  0  1  0  0  0  0  0  0
  189.3330  176.1090  138.2870 C   0  0  0  0  0  2  0  0  0  0  0  0
  188.7630  178.6860  136.7860 S   0  0  2  0  0  0  0  0  0  0  0  0
  188.0650  177.0130  136.5830 C   0  0  2  0  0  3  0  0  0  0  0  0
  189.4110  178.5980  138.4620 C   0  0  0  0  0  2  0  0  0  0  0  0
  1  9  1  0  0  0  0
  2  3  1  6  0  0  0
  2  5  1  0  0  0  0
  3  7  1  0  0  0  0
  4  7  2  0  0  0  0
  4 11  1  0  0  0  0
  5 14  1  0  0  0  0
  6  1  1  0  0  0  0
  8 21  1  6  0  0  0
  8 13  1  0  0  0  0
  8 12  1  0  0  0  0
 10 18  1  0  0  0  0
 10 19  1  0  0  0  0
 12 16  1  0  0  0  0
 13 18  1  6  0  0  0
 13  2  1  0  0  0  0
 14  1  2  0  0  0  0
 15  4  1  0  0  0  0
 16  5  2  0  0  0  0
 16 17  1  0  0  0  0
 17  6  2  0  0  0  0
 19  3  2  0  0  0  0
 20 19  1  0  0  0  0
 20 15  2  0  0  0  0
 21 23  1  0  0  0  0
 23 22  1  6  0  0  0
 24 27  1  1  0  0  0
 25 28  1  0  0  0  0
 28 24  1  0  0  0  0
 29 26  2  1  0  0  0
 29 31  1  0  0  0  0
 30 29  1  0  0  0  0
 30 25  1  0  0  0  0
 30 23  1  1  0  0  0
 31 24  1  0  0  0  0
M  END
>  <MODEL>
4

>  <REMARK>
 VINA RESULT:      -8.3      4.264      7.623
  Name = 
  3 active torsions:
  status: ('A' for Active; 'I' for Inactive)
    1  A    between atoms: C_5  and  N_16
    2  A    between atoms: C_5  and  C_30
    3  A    between atoms: C_10  and  N_16
                            x       y       z     vdW  Elec       q    Type
                         _______ _______ _______ _____ _____    ______ ____

>  <TORSDO>
F 3

$$$$
=
 OpenBabel11122410583D

 31 35  0  0  1  0  0  0  0  0999 V2000
  179.7420  177.9180  141.7670 C   0  0  0  0  0  0  0  0  0  0  0  0
  182.9950  178.7910  140.0050 C   0  0  2  0  0  3  0  0  0  0  0  0
  184.0720  178.6530  141.0690 C   0  0  0  0  0  0  0  0  0  0  0  0
  184.6460  178.6180  143.3830 C   0  0  0  0  0  0  0  0  0  0  0  0
  181.7250  178.0610  140.3710 C   0  0  0  0  0  0  0  0  0  0  0  0
  179.4060  176.7010  141.1720 C   0  0  0  0  0  3  0  0  0  0  0  0
  183.7230  178.6660  142.3880 N   0  0  0  0  0  0  0  0  0  0  0  0
  183.5360  176.8780  138.4360 C   0  0  2  0  0  3  0  0  0  0  0  0
  178.9310  178.4540  142.7590 O   0  0  0  0  0  1  0  0  0  0  0  0
  185.9050  178.5960  139.2990 C   0  0  0  0  0  2  0  0  0  0  0  0
  184.1290  178.6200  145.0540 Cl  0  0  0  0  0  0  0  0  0  0  0  0
  182.1390  176.2830  138.5960 C   0  0  0  0  0  2  0  0  0  0  0  0
  183.4870  178.4080  138.5970 C   0  0  2  0  0  3  0  0  0  0  0  0
  180.8950  178.5960  141.3670 C   0  0  0  0  0  3  0  0  0  0  0  0
  186.0060  178.5720  143.0740 C   0  0  0  0  0  3  0  0  0  0  0  0
  181.3810  176.8310  139.7690 C   0  0  0  0  0  0  0  0  0  0  0  0
  180.2180  176.1650  140.1690 C   0  0  0  0  0  3  0  0  0  0  0  0
  184.8340  179.0840  138.3270 C   0  0  0  0  0  2  0  0  0  0  0  0
  185.4420  178.6420  140.7240 C   0  0  0  0  0  0  0  0  0  0  0  0
  186.4000  178.5810  141.7380 C   0  0  0  0  0  3  0  0  0  0  0  0
  184.0480  176.4970  137.1230 N   0  0  0  0  0  2  0  0  0  0  0  0
  184.4900  174.1490  137.5930 C   0  0  0  0  0  1  0  0  0  0  0  0
  185.1080  175.5120  137.3090 C   0  0  1  0  0  3  0  0  0  0  0  0
  188.1780  177.4290  136.2400 C   0  0  1  0  0  3  0  0  0  0  0  0
  187.3540  175.1480  136.3670 O   0  0  0  0  0  0  0  0  0  0  0  0
  184.4790  177.3540  134.9570 O   0  0  0  0  0  0  0  0  0  0  0  0
  188.9660  178.4470  137.0350 C   0  0  0  0  0  1  0  0  0  0  0  0
  187.8800  176.2190  137.1240 C   0  0  0  0  0  2  0  0  0  0  0  0
  185.9050  176.8250  134.8990 S   0  0  2  0  0  0  0  0  0  0  0  0
  185.9990  175.4160  136.0520 C   0  0  2  0  0  3  0  0  0  0  0  0
  186.8780  178.0620  135.7700 C   0  0  0  0  0  2  0  0  0  0  0  0
  1  9  1  0  0  0  0
  2  5  1  1  0  0  0
  2  3  1  0  0  0  0
  3  7  1  0  0  0  0
  4 11  1  0  0  0  0
  5 14  2  0  0  0  0
  6  1  2  0  0  0  0
  7  4  2  0  0  0  0
  8 21  1  6  0  0  0
  8 12  1  0  0  0  0
  8 13  1  0  0  0  0
 10 19  1  0  0  0  0
 12 16  1  0  0  0  0
 13 18  1  1  0  0  0
 13  2  1  0  0  0  0
 14  1  1  0  0  0  0
 15  4  1  0  0  0  0
 16 17  2  0  0  0  0
 16  5  1  0  0  0  0
 17  6  1  0  0  0  0
 18 10  1  0  0  0  0
 19  3  2  0  0  0  0
 19 20  1  0  0  0  0
 20 15  2  0  0  0  0
 21 23  1  0  0  0  0
 23 22  1  6  0  0  0
 24 27  1  1  0  0  0
 24 28  1  0  0  0  0
 25 28  1  0  0  0  0
 29 26  2  1  0  0  0
 29 31  1  0  0  0  0
 29 30  1  0  0  0  0
 30 25  1  0  0  0  0
 30 23  1  1  0  0  0
 31 24  1  0  0  0  0
M  END
>  <MODEL>
5

>  <REMARK>
 VINA RESULT:      -7.9      3.521      6.720
  Name = 
  3 active torsions:
  status: ('A' for Active; 'I' for Inactive)
    1  A    between atoms: C_5  and  N_16
    2  A    between atoms: C_5  and  C_30
    3  A    between atoms: C_10  and  N_16
                            x       y       z     vdW  Elec       q    Type
                         _______ _______ _______ _____ _____    ______ ____

>  <TORSDO>
F 3

$$$$
=
 OpenBabel11122410583D

 31 35  0  0  1  0  0  0  0  0999 V2000
  191.1110  177.0300  141.8150 C   0  0  0  0  0  0  0  0  0  0  0  0
  189.9200  178.1340  138.3780 C   0  0  2  0  0  3  0  0  0  0  0  0
  190.2420  176.9700  137.4540 C   0  0  0  0  0  0  0  0  0  0  0  0
  191.5360  175.0130  137.0290 C   0  0  0  0  0  0  0  0  0  0  0  0
  189.8940  177.7270  139.8320 C   0  0  0  0  0  0  0  0  0  0  0  0
  189.9070  176.8650  142.5010 C   0  0  0  0  0  3  0  0  0  0  0  0
  191.1560  176.0350  137.8400 N   0  0  0  0  0  0  0  0  0  0  0  0
  187.3880  178.1130  138.4180 C   0  0  2  0  0  3  0  0  0  0  0  0
  192.3160  176.7640  142.4510 O   0  0  0  0  0  1  0  0  0  0  0  0
  188.6740  177.8780  135.6600 C   0  0  0  0  0  2  0  0  0  0  0  0
  192.7020  173.8380  137.5940 Cl  0  0  0  0  0  0  0  0  0  0  0  0
  187.3620  177.9740  139.9380 C   0  0  0  0  0  2  0  0  0  0  0  0
  188.6410  178.8900  137.9730 C   0  0  2  0  0  3  0  0  0  0  0  0
  191.1050  177.4620  140.4870 C   0  0  0  0  0  3  0  0  0  0  0  0
  191.0000  174.9030  135.7460 C   0  0  0  0  0  3  0  0  0  0  0  0
  188.6770  177.5620  140.5300 C   0  0  0  0  0  0  0  0  0  0  0  0
  188.6950  177.1400  141.8630 C   0  0  0  0  0  3  0  0  0  0  0  0
  188.6710  179.1720  136.4690 C   0  0  0  0  0  2  0  0  0  0  0  0
  189.7060  176.9060  136.1480 C   0  0  0  0  0  0  0  0  0  0  0  0
  190.0800  175.8540  135.3100 C   0  0  0  0  0  3  0  0  0  0  0  0
  186.1660  178.7910  137.9970 N   0  0  0  0  0  2  0  0  0  0  0  0
  185.9510  176.4870  137.2380 C   0  0  0  0  0  1  0  0  0  0  0  0
  185.2120  177.7840  137.5440 C   0  0  1  0  0  3  0  0  0  0  0  0
  181.4910  178.4040  137.5990 C   0  0  1  0  0  3  0  0  0  0  0  0
  183.1010  176.6730  138.1520 O   0  0  0  0  0  0  0  0  0  0  0  0
  184.5130  180.0480  139.4680 O   0  0  0  0  0  0  0  0  0  0  0  0
  180.6060  178.8770  136.4660 C   0  0  0  0  0  1  0  0  0  0  0  0
  182.4230  177.3070  137.0880 C   0  0  0  0  0  2  0  0  0  0  0  0
  183.4160  178.9950  139.4080 S   0  0  2  0  0  0  0  0  0  0  0  0
  184.1370  177.5170  138.6190 C   0  0  2  0  0  3  0  0  0  0  0  0
  182.3050  179.5780  138.1190 C   0  0  0  0  0  2  0  0  0  0  0  0
  1  9  1  0  0  0  0
  1  6  1  0  0  0  0
  2  3  1  6  0  0  0
  2  5  1  0  0  0  0
  3  7  1  0  0  0  0
  4 11  1  0  0  0  0
  4  7  2  0  0  0  0
  5 14  1  0  0  0  0
  5 16  2  0  0  0  0
  8 21  1  1  0  0  0
  8 12  1  0  0  0  0
 10 19  1  0  0  0  0
 10 18  1  0  0  0  0
 12 16  1  0  0  0  0
 13 18  1  6  0  0  0
 13  2  1  0  0  0  0
 13  8  1  0  0  0  0
 14  1  2  0  0  0  0
 15  4  1  0  0  0  0
 16 17  1  0  0  0  0
 17  6  2  0  0  0  0
 19  3  2  0  0  0  0
 20 15  2  0  0  0  0
 20 19  1  0  0  0  0
 23 22  1  1  0  0  0
 23 21  1  0  0  0  0
 24 27  1  6  0  0  0
 24 31  1  0  0  0  0
 25 30  1  0  0  0  0
 28 24  1  0  0  0  0
 28 25  1  0  0  0  0
 29 26  2  6  0  0  0
 30 23  1  6  0  0  0
 30 29  1  0  0  0  0
 31 29  1  0  0  0  0
M  END
>  <MODEL>
6

>  <REMARK>
 VINA RESULT:      -7.9      3.996      6.444
  Name = 
  3 active torsions:
  status: ('A' for Active; 'I' for Inactive)
    1  A    between atoms: C_5  and  N_16
    2  A    between atoms: C_5  and  C_30
    3  A    between atoms: C_10  and  N_16
                            x       y       z     vdW  Elec       q    Type
                         _______ _______ _______ _____ _____    ______ ____

>  <TORSDO>
F 3

$$$$
=
 OpenBabel11122410583D

 31 35  0  0  1  0  0  0  0  0999 V2000
  189.5140  173.3530  135.5520 C   0  0  0  0  0  0  0  0  0  0  0  0
  187.5720  176.4950  136.4500 C   0  0  2  0  0  3  0  0  0  0  0  0
  186.2190  176.0010  136.9340 C   0  0  0  0  0  0  0  0  0  0  0  0
  184.5800  174.2690  136.9560 C   0  0  0  0  0  0  0  0  0  0  0  0
  188.6270  175.4150  136.4800 C   0  0  0  0  0  0  0  0  0  0  0  0
  190.4930  173.3210  136.5470 C   0  0  0  0  0  3  0  0  0  0  0  0
  185.8070  174.7410  136.6130 N   0  0  0  0  0  0  0  0  0  0  0  0
  188.5970  177.4310  138.5680 C   0  0  2  0  0  3  0  0  0  0  0  0
  189.4600  172.3460  134.5980 O   0  0  0  0  0  1  0  0  0  0  0  0
  185.7100  178.2530  138.0160 C   0  0  0  0  0  2  0  0  0  0  0  0
  184.1220  172.6360  136.5270 Cl  0  0  0  0  0  0  0  0  0  0  0  0
  189.8120  176.5160  138.4470 C   0  0  0  0  0  2  0  0  0  0  0  0
  188.0420  177.7710  137.1730 C   0  0  2  0  0  3  0  0  0  0  0  0
  188.5870  174.3970  135.5180 C   0  0  0  0  0  3  0  0  0  0  0  0
  183.6840  175.0860  137.6460 C   0  0  0  0  0  3  0  0  0  0  0  0
  189.6200  175.3820  137.4840 C   0  0  0  0  0  0  0  0  0  0  0  0
  190.5510  174.3380  137.5030 C   0  0  0  0  0  3  0  0  0  0  0  0
  186.8950  178.7850  137.2140 C   0  0  0  0  0  2  0  0  0  0  0  0
  185.3220  176.8650  137.6020 C   0  0  0  0  0  0  0  0  0  0  0  0
  184.0630  176.3880  137.9690 C   0  0  0  0  0  3  0  0  0  0  0  0
  189.0000  178.6360  139.2880 N   0  0  0  0  0  2  0  0  0  0  0  0
  187.1710  178.6270  140.8960 C   0  0  0  0  0  1  0  0  0  0  0  0
  188.6720  178.4620  140.6990 C   0  0  1  0  0  3  0  0  0  0  0  0
  189.5200  177.1630  144.1390 C   0  0  1  0  0  3  0  0  0  0  0  0
  188.2230  176.5470  142.1800 O   0  0  0  0  0  0  0  0  0  0  0  0
  191.6590  177.8790  140.9380 O   0  0  0  0  0  0  0  0  0  0  0  0
  189.3900  177.8790  145.4650 C   0  0  0  0  0  1  0  0  0  0  0  0
  188.2490  177.3810  143.3200 C   0  0  0  0  0  2  0  0  0  0  0  0
  190.8250  176.9240  141.7780 S   0  0  2  0  0  0  0  0  0  0  0  0
  189.1020  177.0660  141.1980 C   0  0  2  0  0  3  0  0  0  0  0  0
  190.7220  177.7160  143.3900 C   0  0  0  0  0  2  0  0  0  0  0  0
  1  6  1  0  0  0  0
  2  5  1  1  0  0  0
  2  3  1  0  0  0  0
  2 13  1  0  0  0  0
  3 19  1  0  0  0  0
  4 15  2  0  0  0  0
  5 16  2  0  0  0  0
  6 17  2  0  0  0  0
  7  3  2  0  0  0  0
  7  4  1  0  0  0  0
  8 21  1  6  0  0  0
  9  1  1  0  0  0  0
 11  4  1  0  0  0  0
 12  8  1  0  0  0  0
 13 18  1  1  0  0  0
 13  8  1  0  0  0  0
 14  1  2  0  0  0  0
 14  5  1  0  0  0  0
 15 20  1  0  0  0  0
 16 17  1  0  0  0  0
 16 12  1  0  0  0  0
 18 10  1  0  0  0  0
 19 20  2  0  0  0  0
 19 10  1  0  0  0  0
 21 23  1  0  0  0  0
 23 22  1  6  0  0  0
 24 27  1  1  0  0  0
 25 28  1  0  0  0  0
 28 24  1  0  0  0  0
 29 26  2  6  0  0  0
 29 31  1  0  0  0  0
 30 23  1  1  0  0  0
 30 29  1  0  0  0  0
 30 25  1  0  0  0  0
 31 24  1  0  0  0  0
M  END
>  <MODEL>
7

>  <REMARK>
 VINA RESULT:      -7.7      4.992      8.096
  Name = 
  3 active torsions:
  status: ('A' for Active; 'I' for Inactive)
    1  A    between atoms: C_5  and  N_16
    2  A    between atoms: C_5  and  C_30
    3  A    between atoms: C_10  and  N_16
                            x       y       z     vdW  Elec       q    Type
                         _______ _______ _______ _____ _____    ______ ____

>  <TORSDO>
F 3

$$$$
=
 OpenBabel11122410583D

 31 35  0  0  1  0  0  0  0  0999 V2000
  188.9750  178.0940  143.0470 C   0  0  0  0  0  0  0  0  0  0  0  0
  186.3740  179.0190  140.4330 C   0  0  2  0  0  3  0  0  0  0  0  0
  186.6640  178.1130  139.2480 C   0  0  0  0  0  0  0  0  0  0  0  0
  188.2230  176.7470  138.0700 C   0  0  0  0  0  0  0  0  0  0  0  0
  186.9860  178.5060  141.7150 C   0  0  0  0  0  0  0  0  0  0  0  0
  188.1960  177.4770  144.0270 C   0  0  0  0  0  3  0  0  0  0  0  0
  187.8820  177.5100  139.1410 N   0  0  0  0  0  0  0  0  0  0  0  0
  184.1430  178.1460  141.2520 C   0  0  2  0  0  3  0  0  0  0  0  0
  190.3500  178.1950  143.2130 O   0  0  0  0  0  1  0  0  0  0  0  0
  184.3700  178.5890  138.2420 C   0  0  0  0  0  2  0  0  0  0  0  0
  189.7980  175.9890  138.0040 Cl  0  0  0  0  0  0  0  0  0  0  0  0
  184.7000  177.8790  142.6480 C   0  0  0  0  0  2  0  0  0  0  0  0
  184.8760  179.3330  140.6010 C   0  0  2  0  0  3  0  0  0  0  0  0
  188.3720  178.6080  141.8970 C   0  0  0  0  0  3  0  0  0  0  0  0
  187.3210  176.5720  137.0210 C   0  0  0  0  0  3  0  0  0  0  0  0
  186.2000  177.8840  142.7100 C   0  0  0  0  0  0  0  0  0  0  0  0
  186.8120  177.3820  143.8630 C   0  0  0  0  0  3  0  0  0  0  0  0
  184.2850  179.7340  139.2470 C   0  0  0  0  0  2  0  0  0  0  0  0
  185.7400  177.9830  138.1860 C   0  0  0  0  0  0  0  0  0  0  0  0
  186.0740  177.1920  137.0850 C   0  0  0  0  0  3  0  0  0  0  0  0
  182.7120  178.4070  141.3730 N   0  0  0  0  0  2  0  0  0  0  0  0
  182.2770  176.3130  140.2070 C   0  0  0  0  0  1  0  0  0  0  0  0
  182.0360  177.8170  140.2220 C   0  0  1  0  0  3  0  0  0  0  0  0
  179.8770  180.3880  138.5000 C   0  0  1  0  0  3  0  0  0  0  0  0
  179.9100  178.0120  138.9950 O   0  0  0  0  0  0  0  0  0  0  0  0
  181.0160  179.8930  142.2140 O   0  0  0  0  0  0  0  0  0  0  0  0
  180.2780  181.3790  137.4290 C   0  0  0  0  0  1  0  0  0  0  0  0
  180.4480  179.0140  138.1580 C   0  0  0  0  0  2  0  0  0  0  0  0
  180.0140  179.6370  141.0970 S   0  0  2  0  0  0  0  0  0  0  0  0
  180.5180  178.0900  140.2720 C   0  0  2  0  0  3  0  0  0  0  0  0
  180.4200  180.8570  139.8410 C   0  0  0  0  0  2  0  0  0  0  0  0
  1  9  1  0  0  0  0
  1  6  1  0  0  0  0
  2  3  1  6  0  0  0
  2 13  1  0  0  0  0
  2  5  1  0  0  0  0
  4  7  2  0  0  0  0
  5 14  1  0  0  0  0
  5 16  2  0  0  0  0
  7  3  1  0  0  0  0
  8 21  1  1  0  0  0
  8 12  1  0  0  0  0
 10 18  1  0  0  0  0
 11  4  1  0  0  0  0
 12 16  1  0  0  0  0
 13 18  1  6  0  0  0
 13  8  1  0  0  0  0
 14  1  2  0  0  0  0
 15 20  2  0  0  0  0
 15  4  1  0  0  0  0
 16 17  1  0  0  0  0
 17  6  2  0  0  0  0
 19 10  1  0  0  0  0
 19  3  2  0  0  0  0
 20 19  1  0  0  0  0
 23 22  1  1  0  0  0
 23 21  1  0  0  0  0
 24 27  1  6  0  0  0
 24 31  1  0  0  0  0
 25 30  1  0  0  0  0
 28 24  1  0  0  0  0
 28 25  1  0  0  0  0
 29 26  2  1  0  0  0
 30 23  1  6  0  0  0
 30 29  1  0  0  0  0
 31 29  1  0  0  0  0
M  END
>  <MODEL>
8

>  <REMARK>
 VINA RESULT:      -7.5      3.213      5.239
  Name = 
  3 active torsions:
  status: ('A' for Active; 'I' for Inactive)
    1  A    between atoms: C_5  and  N_16
    2  A    between atoms: C_5  and  C_30
    3  A    between atoms: C_10  and  N_16
                            x       y       z     vdW  Elec       q    Type
                         _______ _______ _______ _____ _____    ______ ____

>  <TORSDO>
F 3

$$$$
=
 OpenBabel11122410583D

 31 35  0  0  1  0  0  0  0  0999 V2000
  181.9430  178.0870  138.9280 C   0  0  0  0  0  0  0  0  0  0  0  0
  185.6300  178.5500  138.1230 C   0  0  2  0  0  3  0  0  0  0  0  0
  186.3460  178.4260  139.4580 C   0  0  0  0  0  0  0  0  0  0  0  0
  186.2420  178.5530  141.8360 C   0  0  0  0  0  0  0  0  0  0  0  0
  184.2420  177.9550  138.1540 C   0  0  0  0  0  0  0  0  0  0  0  0
  181.6700  176.8510  138.3400 C   0  0  0  0  0  3  0  0  0  0  0  0
  185.6440  178.5820  140.6170 N   0  0  0  0  0  0  0  0  0  0  0  0
  186.3980  176.4700  136.9000 C   0  0  2  0  0  3  0  0  0  0  0  0
  180.9440  178.7690  139.6080 O   0  0  0  0  0  1  0  0  0  0  0  0
  188.5880  178.0720  138.2960 C   0  0  0  0  0  2  0  0  0  0  0  0
  185.2790  178.7430  143.2850 Cl  0  0  0  0  0  0  0  0  0  0  0  0
  184.9610  175.9990  136.6890 C   0  0  0  0  0  2  0  0  0  0  0  0
  186.4570  178.0070  136.9420 C   0  0  2  0  0  3  0  0  0  0  0  0
  183.2230  178.6380  138.8330 C   0  0  0  0  0  3  0  0  0  0  0  0
  187.6220  178.3760  141.9350 C   0  0  0  0  0  3  0  0  0  0  0  0
  183.9620  176.7060  137.5570 C   0  0  0  0  0  0  0  0  0  0  0  0
  182.6740  176.1680  137.6480 C   0  0  0  0  0  3  0  0  0  0  0  0
  187.8850  178.5520  137.0280 C   0  0  0  0  0  2  0  0  0  0  0  0
  187.7500  178.2790  139.5220 C   0  0  0  0  0  0  0  0  0  0  0  0
  188.3740  178.2370  140.7700 C   0  0  0  0  0  3  0  0  0  0  0  0
  187.2180  175.9360  135.8160 N   0  0  0  0  0  2  0  0  0  0  0  0
  187.3310  173.7490  136.8800 C   0  0  0  0  0  1  0  0  0  0  0  0
  188.1300  174.9430  136.3730 C   0  0  1  0  0  3  0  0  0  0  0  0
  191.8850  174.5840  136.4500 C   0  0  1  0  0  3  0  0  0  0  0  0
  189.9090  173.3580  135.7510 O   0  0  0  0  0  0  0  0  0  0  0  0
  189.4610  177.0480  134.6090 O   0  0  0  0  0  0  0  0  0  0  0  0
  192.8150  174.7540  137.6310 C   0  0  0  0  0  1  0  0  0  0  0  0
  190.6840  173.7400  136.8690 C   0  0  0  0  0  2  0  0  0  0  0  0
  190.2480  175.7470  134.6330 S   0  0  2  0  0  0  0  0  0  0  0  0
  189.1420  174.4650  135.3110 C   0  0  2  0  0  3  0  0  0  0  0  0
  191.4190  175.9540  135.9820 C   0  0  0  0  0  2  0  0  0  0  0  0
  1  9  1  0  0  0  0
  2  5  1  1  0  0  0
  2  3  1  0  0  0  0
  3 19  2  0  0  0  0
  3  7  1  0  0  0  0
  4 15  1  0  0  0  0
  4 11  1  0  0  0  0
  5 14  2  0  0  0  0
  6  1  2  0  0  0  0
  7  4  2  0  0  0  0
  8 21  1  6  0  0  0
  8 13  1  0  0  0  0
 10 19  1  0  0  0  0
 12  8  1  0  0  0  0
 12 16  1  0  0  0  0
 13 18  1  1  0  0  0
 13  2  1  0  0  0  0
 14  1  1  0  0  0  0
 16 17  2  0  0  0  0
 16  5  1  0  0  0  0
 17  6  1  0  0  0  0
 18 10  1  0  0  0  0
 19 20  1  0  0  0  0
 20 15  2  0  0  0  0
 21 23  1  0  0  0  0
 23 22  1  6  0  0  0
 24 28  1  0  0  0  0
 24 27  1  1  0  0  0
 25 28  1  0  0  0  0
 29 26  2  1  0  0  0
 29 30  1  0  0  0  0
 29 31  1  0  0  0  0
 30 25  1  0  0  0  0
 30 23  1  1  0  0  0
 31 24  1  0  0  0  0
M  END
>  <MODEL>
9

>  <REMARK>
 VINA RESULT:      -7.5      4.446      7.936
  Name = 
  3 active torsions:
  status: ('A' for Active; 'I' for Inactive)
    1  A    between atoms: C_5  and  N_16
    2  A    between atoms: C_5  and  C_30
    3  A    between atoms: C_10  and  N_16
                            x       y       z     vdW  Elec       q    Type
                         _______ _______ _______ _____ _____    ______ ____

>  <TORSDO>
F 3

$$$$
