=
 OpenBabel11122411003D

 31 35  0  0  1  0  0  0  0  0999 V2000
  188.7750  178.1780  139.9430 C   0  0  0  0  0  0  0  0  0  0  0  0
  185.9020  179.1300  142.2530 C   0  0  2  0  0  3  0  0  0  0  0  0
  184.6050  178.6500  141.6170 C   0  0  0  0  0  0  0  0  0  0  0  0
  183.3550  177.8830  139.6750 C   0  0  0  0  0  0  0  0  0  0  0  0
  187.1220  178.4320  141.6980 C   0  0  0  0  0  0  0  0  0  0  0  0
  189.3570  177.1150  140.6400 C   0  0  0  0  0  3  0  0  0  0  0  0
  184.5560  178.2930  140.2600 C   0  0  0  0  0  3  0  0  0  0  0  0
  186.0230  177.5330  144.2000 C   0  0  2  0  0  3  0  0  0  0  0  0
  189.4380  178.6820  138.4040 Cl  0  0  0  0  0  0  0  0  0  0  0  0
  183.4190  179.0270  143.7420 N   0  0  0  0  0  2  0  0  0  0  0  0
  183.3190  177.4240  137.9860 Cl  0  0  0  0  0  0  0  0  0  0  0  0
  187.2250  176.9850  143.6570 O   0  0  0  0  0  0  0  0  0  0  0  0
  185.8750  179.0070  143.7920 C   0  0  2  0  0  3  0  0  0  0  0  0
  187.6610  178.8360  140.4700 C   0  0  0  0  0  3  0  0  0  0  0  0
  182.1870  177.8380  140.4370 C   0  0  0  0  0  3  0  0  0  0  0  0
  187.7150  177.3670  142.4030 C   0  0  0  0  0  0  0  0  0  0  0  0
  188.8300  176.7120  141.8700 C   0  0  0  0  0  3  0  0  0  0  0  0
  184.5970  179.6320  144.3540 C   0  0  0  0  0  2  0  0  0  0  0  0
  183.4110  178.6380  142.3680 C   0  0  0  0  0  0  0  0  0  0  0  0
  182.2140  178.2150  141.7820 C   0  0  0  0  0  3  0  0  0  0  0  0
  186.0320  177.4050  145.5930 O   0  0  0  0  0  0  0  0  0  0  0  0
  186.3960  179.0820  147.2580 C   0  0  0  0  0  1  0  0  0  0  0  0
  186.9520  178.3600  146.0440 C   0  0  1  0  0  3  0  0  0  0  0  0
  190.7180  176.5380  147.0480 C   0  0  0  0  0  0  0  0  0  0  0  0
  188.3540  176.8590  147.4550 C   0  0  0  0  0  3  0  0  0  0  0  0
  189.3840  178.8320  144.5350 F   0  0  0  0  0  0  0  0  0  0  0  0
  192.0140  175.9110  147.4160 C   0  0  0  0  0  1  0  0  0  0  0  0
  189.5730  176.2670  147.7990 C   0  0  0  0  0  3  0  0  0  0  0  0
  189.4310  177.9940  145.6000 C   0  0  0  0  0  0  0  0  0  0  0  0
  188.2750  177.7260  146.3580 C   0  0  0  0  0  0  0  0  0  0  0  0
  190.6470  177.4000  145.9500 C   0  0  0  0  0  3  0  0  0  0  0  0
  1 14  2  0  0  0  0
  1  6  1  0  0  0  0
  2  3  1  6  0  0  0
  2 13  1  0  0  0  0
  3 19  1  0  0  0  0
  4  7  1  0  0  0  0
  4 15  2  0  0  0  0
  5  2  1  0  0  0  0
  5 16  2  0  0  0  0
  6 17  2  0  0  0  0
  7  3  2  0  0  0  0
  8 21  1  1  0  0  0
  9  1  1  0  0  0  0
 10 18  1  0  0  0  0
 11  4  1  0  0  0  0
 12  8  1  0  0  0  0
 13  8  1  0  0  0  0
 13 18  1  6  0  0  0
 14  5  1  0  0  0  0
 15 20  1  0  0  0  0
 16 12  1  0  0  0  0
 17 16  1  0  0  0  0
 19 10  1  0  0  0  0
 20 19  2  0  0  0  0
 21 23  1  0  0  0  0
 23 30  1  0  0  0  0
 23 22  1  1  0  0  0
 24 27  1  0  0  0  0
 24 28  1  0  0  0  0
 25 28  2  0  0  0  0
 26 29  1  0  0  0  0
 29 31  1  0  0  0  0
 29 30  2  0  0  0  0
 30 25  1  0  0  0  0
 31 24  2  0  0  0  0
M  END
>  <MODEL>
1

>  <REMARK>
 VINA RESULT:      -9.1      0.000      0.000
  Name = 
  3 active torsions:
  status: ('A' for Active; 'I' for Inactive)
    1  A    between atoms: C_5  and  O_16
    2  A    between atoms: C_5  and  C_30
    3  A    between atoms: C_10  and  O_16
                            x       y       z     vdW  Elec       q    Type
                         _______ _______ _______ _____ _____    ______ ____

>  <TORSDO>
F 3

$$$$
=
 OpenBabel11122411003D

 31 35  0  0  1  0  0  0  0  0999 V2000
  188.7370  177.6250  136.8280 C   0  0  0  0  0  0  0  0  0  0  0  0
  185.2070  178.5600  137.9060 C   0  0  2  0  0  3  0  0  0  0  0  0
  184.3410  177.3100  137.8210 C   0  0  0  0  0  0  0  0  0  0  0  0
  183.9530  175.0540  136.9960 C   0  0  0  0  0  0  0  0  0  0  0  0
  186.6850  178.2460  137.9590 C   0  0  0  0  0  0  0  0  0  0  0  0
  189.4140  177.6220  138.0510 C   0  0  0  0  0  3  0  0  0  0  0  0
  184.7660  176.1860  137.0970 C   0  0  0  0  0  3  0  0  0  0  0  0
  185.2990  178.8280  140.4110 C   0  0  2  0  0  3  0  0  0  0  0  0
  189.5940  177.2300  135.3540 Cl  0  0  0  0  0  0  0  0  0  0  0  0
  182.5780  178.4400  139.1190 N   0  0  0  0  0  2  0  0  0  0  0  0
  184.5090  173.6550  136.1050 Cl  0  0  0  0  0  0  0  0  0  0  0  0
  186.7100  178.6120  140.3680 O   0  0  0  0  0  0  0  0  0  0  0  0
  184.8140  179.4590  139.0980 C   0  0  2  0  0  3  0  0  0  0  0  0
  187.3760  177.9370  136.7810 C   0  0  0  0  0  3  0  0  0  0  0  0
  182.6980  175.0400  137.6080 C   0  0  0  0  0  3  0  0  0  0  0  0
  187.3710  178.2520  139.1890 C   0  0  0  0  0  0  0  0  0  0  0  0
  188.7330  177.9390  139.2290 C   0  0  0  0  0  3  0  0  0  0  0  0
  183.3040  179.7060  139.1030 C   0  0  0  0  0  2  0  0  0  0  0  0
  183.0550  177.3000  138.4030 C   0  0  0  0  0  0  0  0  0  0  0  0
  182.2490  176.1620  138.3100 C   0  0  0  0  0  3  0  0  0  0  0  0
  184.9780  179.6460  141.5000 O   0  0  0  0  0  0  0  0  0  0  0  0
  183.9420  177.5030  141.7220 C   0  0  0  0  0  1  0  0  0  0  0  0
  184.3070  178.8100  142.4010 C   0  0  1  0  0  3  0  0  0  0  0  0
  186.7280  178.0120  145.8670 C   0  0  0  0  0  0  0  0  0  0  0  0
  186.3580  177.8930  143.4790 C   0  0  0  0  0  3  0  0  0  0  0  0
  183.5360  179.6090  145.0810 F   0  0  0  0  0  0  0  0  0  0  0  0
  187.5700  177.7180  147.0550 C   0  0  0  0  0  1  0  0  0  0  0  0
  187.1520  177.6190  144.5960 C   0  0  0  0  0  3  0  0  0  0  0  0
  184.7150  178.9620  144.9080 C   0  0  0  0  0  0  0  0  0  0  0  0
  185.1380  178.5620  143.6260 C   0  0  0  0  0  0  0  0  0  0  0  0
  185.5120  178.6840  146.0220 C   0  0  0  0  0  3  0  0  0  0  0  0
  1  6  1  0  0  0  0
  2  3  1  1  0  0  0
  2  5  1  0  0  0  0
  2 13  1  0  0  0  0
  3 19  1  0  0  0  0
  4  7  1  0  0  0  0
  4 15  2  0  0  0  0
  5 16  2  0  0  0  0
  6 17  2  0  0  0  0
  7  3  2  0  0  0  0
  8 21  1  1  0  0  0
  9  1  1  0  0  0  0
 11  4  1  0  0  0  0
 12  8  1  0  0  0  0
 13 18  1  1  0  0  0
 13  8  1  0  0  0  0
 14  1  2  0  0  0  0
 14  5  1  0  0  0  0
 15 20  1  0  0  0  0
 16 17  1  0  0  0  0
 16 12  1  0  0  0  0
 18 10  1  0  0  0  0
 19 10  1  0  0  0  0
 20 19  2  0  0  0  0
 21 23  1  0  0  0  0
 23 22  1  6  0  0  0
 23 30  1  0  0  0  0
 24 31  1  0  0  0  0
 24 27  1  0  0  0  0
 25 30  2  0  0  0  0
 25 28  1  0  0  0  0
 28 24  2  0  0  0  0
 29 26  1  0  0  0  0
 29 31  2  0  0  0  0
 30 29  1  0  0  0  0
M  END
>  <MODEL>
2

>  <REMARK>
 VINA RESULT:      -8.3      2.728      4.348
  Name = 
  3 active torsions:
  status: ('A' for Active; 'I' for Inactive)
    1  A    between atoms: C_5  and  O_16
    2  A    between atoms: C_5  and  C_30
    3  A    between atoms: C_10  and  O_16
                            x       y       z     vdW  Elec       q    Type
                         _______ _______ _______ _____ _____    ______ ____

>  <TORSDO>
F 3

$$$$
=
 OpenBabel11122411003D

 31 35  0  0  1  0  0  0  0  0999 V2000
  192.7230  175.9890  136.6600 C   0  0  0  0  0  0  0  0  0  0  0  0
  189.0680  177.0040  136.9890 C   0  0  2  0  0  3  0  0  0  0  0  0
  188.2170  175.7460  136.8790 C   0  0  0  0  0  0  0  0  0  0  0  0
  187.9560  173.4140  136.2340 C   0  0  0  0  0  0  0  0  0  0  0  0
  190.5080  176.7090  137.3360 C   0  0  0  0  0  0  0  0  0  0  0  0
  193.1700  176.1180  137.9780 C   0  0  0  0  0  3  0  0  0  0  0  0
  188.7520  174.5560  136.3620 C   0  0  0  0  0  3  0  0  0  0  0  0
  188.7140  177.5300  139.4280 C   0  0  2  0  0  3  0  0  0  0  0  0
  193.8240  175.4520  135.4110 Cl  0  0  0  0  0  0  0  0  0  0  0  0
  186.2630  176.9900  137.7180 N   0  0  0  0  0  2  0  0  0  0  0  0
  188.6470  171.9350  135.6040 Cl  0  0  0  0  0  0  0  0  0  0  0  0
  190.1070  177.3210  139.6610 O   0  0  0  0  0  0  0  0  0  0  0  0
  188.4780  178.0190  137.9920 C   0  0  2  0  0  3  0  0  0  0  0  0
  191.3960  176.2850  136.3390 C   0  0  0  0  0  3  0  0  0  0  0  0
  186.6130  173.4540  136.6100 C   0  0  0  0  0  3  0  0  0  0  0  0
  190.9640  176.8460  138.6620 C   0  0  0  0  0  0  0  0  0  0  0  0
  192.2930  176.5490  138.9770 C   0  0  0  0  0  3  0  0  0  0  0  0
  186.9940  178.2530  137.7020 C   0  0  0  0  0  2  0  0  0  0  0  0
  186.8480  175.7860  137.2190 C   0  0  0  0  0  0  0  0  0  0  0  0
  186.0590  174.6380  137.1020 C   0  0  0  0  0  3  0  0  0  0  0  0
  188.2120  178.4530  140.3530 O   0  0  0  0  0  0  0  0  0  0  0  0
  189.5500  178.2530  142.3230 C   0  0  0  0  0  1  0  0  0  0  0  0
  188.2950  177.8110  141.5940 C   0  0  1  0  0  3  0  0  0  0  0  0
  184.7800  178.6820  143.9190 C   0  0  0  0  0  0  0  0  0  0  0  0
  186.0640  178.8850  141.8780 C   0  0  0  0  0  3  0  0  0  0  0  0
  187.8900  176.7970  144.2810 F   0  0  0  0  0  0  0  0  0  0  0  0
  183.5670  179.0030  144.7130 C   0  0  0  0  0  1  0  0  0  0  0  0
  184.9200  179.1840  142.6240 C   0  0  0  0  0  3  0  0  0  0  0  0
  186.9270  177.5740  143.7270 C   0  0  0  0  0  0  0  0  0  0  0  0
  187.0730  178.0820  142.4220 C   0  0  0  0  0  0  0  0  0  0  0  0
  185.7820  177.8780  144.4700 C   0  0  0  0  0  3  0  0  0  0  0  0
  1  6  1  0  0  0  0
  2  3  1  1  0  0  0
  2  5  1  0  0  0  0
  2 13  1  0  0  0  0
  3 19  1  0  0  0  0
  4  7  1  0  0  0  0
  4 15  2  0  0  0  0
  5 16  2  0  0  0  0
  6 17  2  0  0  0  0
  7  3  2  0  0  0  0
  8 12  1  0  0  0  0
  8 21  1  1  0  0  0
  9  1  1  0  0  0  0
 11  4  1  0  0  0  0
 13 18  1  6  0  0  0
 13  8  1  0  0  0  0
 14  1  2  0  0  0  0
 14  5  1  0  0  0  0
 15 20  1  0  0  0  0
 16 17  1  0  0  0  0
 16 12  1  0  0  0  0
 18 10  1  0  0  0  0
 19 10  1  0  0  0  0
 20 19  2  0  0  0  0
 21 23  1  0  0  0  0
 23 22  1  1  0  0  0
 23 30  1  0  0  0  0
 24 31  1  0  0  0  0
 24 27  1  0  0  0  0
 25 30  2  0  0  0  0
 25 28  1  0  0  0  0
 28 24  2  0  0  0  0
 29 26  1  0  0  0  0
 29 31  2  0  0  0  0
 30 29  1  0  0  0  0
M  END
>  <MODEL>
3

>  <REMARK>
 VINA RESULT:      -8.2      3.928      6.194
  Name = 
  3 active torsions:
  status: ('A' for Active; 'I' for Inactive)
    1  A    between atoms: C_5  and  O_16
    2  A    between atoms: C_5  and  C_30
    3  A    between atoms: C_10  and  O_16
                            x       y       z     vdW  Elec       q    Type
                         _______ _______ _______ _____ _____    ______ ____

>  <TORSDO>
F 3

$$$$
=
 OpenBabel11122411003D

 31 35  0  0  1  0  0  0  0  0999 V2000
  191.0920  176.0900  143.6660 C   0  0  0  0  0  0  0  0  0  0  0  0
  187.3990  177.0020  143.5070 C   0  0  2  0  0  3  0  0  0  0  0  0
  187.0310  177.7090  144.8050 C   0  0  0  0  0  0  0  0  0  0  0  0
  187.5070  178.2570  147.1280 C   0  0  0  0  0  0  0  0  0  0  0  0
  188.8860  177.0020  143.2410 C   0  0  0  0  0  0  0  0  0  0  0  0
  191.6510  177.0230  142.7870 C   0  0  0  0  0  3  0  0  0  0  0  0
  187.8660  177.6320  145.9300 C   0  0  0  0  0  3  0  0  0  0  0  0
  187.2360  178.9500  141.9160 C   0  0  2  0  0  3  0  0  0  0  0  0
  192.1210  174.9400  144.4890 Cl  0  0  0  0  0  0  0  0  0  0  0  0
  184.9080  178.4530  143.8010 N   0  0  0  0  0  2  0  0  0  0  0  0
  188.5710  178.1650  148.5140 Cl  0  0  0  0  0  0  0  0  0  0  0  0
  188.6330  178.8280  141.6470 O   0  0  0  0  0  0  0  0  0  0  0  0
  186.6430  177.5850  142.2940 C   0  0  2  0  0  3  0  0  0  0  0  0
  189.7140  176.0790  143.8920 C   0  0  0  0  0  3  0  0  0  0  0  0
  186.3010  178.9550  147.2160 C   0  0  0  0  0  3  0  0  0  0  0  0
  189.4500  177.9350  142.3480 C   0  0  0  0  0  0  0  0  0  0  0  0
  190.8300  177.9410  142.1260 C   0  0  0  0  0  3  0  0  0  0  0  0
  185.1450  177.6730  142.5920 C   0  0  0  0  0  2  0  0  0  0  0  0
  185.7970  178.3840  144.9170 C   0  0  0  0  0  0  0  0  0  0  0  0
  185.4470  179.0180  146.1130 C   0  0  0  0  0  3  0  0  0  0  0  0
  186.5830  179.4800  140.7980 O   0  0  0  0  0  0  0  0  0  0  0  0
  184.6930  178.5080  139.7030 C   0  0  0  0  0  1  0  0  0  0  0  0
  186.1620  178.3680  140.0580 C   0  0  1  0  0  3  0  0  0  0  0  0
  188.4660  177.8940  136.4550 C   0  0  0  0  0  0  0  0  0  0  0  0
  186.6010  178.8620  137.6540 C   0  0  0  0  0  3  0  0  0  0  0  0
  188.5440  176.7200  139.9140 F   0  0  0  0  0  0  0  0  0  0  0  0
  189.2430  177.7310  135.1990 C   0  0  0  0  0  1  0  0  0  0  0  0
  187.3340  178.7110  136.4740 C   0  0  0  0  0  3  0  0  0  0  0  0
  188.1410  177.3780  138.8000 C   0  0  0  0  0  0  0  0  0  0  0  0
  186.9960  178.1980  138.8220 C   0  0  0  0  0  0  0  0  0  0  0  0
  188.8690  177.2290  137.6160 C   0  0  0  0  0  3  0  0  0  0  0  0
  1 14  1  0  0  0  0
  1  9  1  0  0  0  0
  2  5  1  6  0  0  0
  2  3  1  0  0  0  0
  3 19  2  0  0  0  0
  3  7  1  0  0  0  0
  4 15  1  0  0  0  0
  4 11  1  0  0  0  0
  5 14  2  0  0  0  0
  6  1  2  0  0  0  0
  7  4  2  0  0  0  0
  8 21  1  6  0  0  0
  8 13  1  0  0  0  0
 10 19  1  0  0  0  0
 12  8  1  0  0  0  0
 12 16  1  0  0  0  0
 13 18  1  1  0  0  0
 13  2  1  0  0  0  0
 16  5  1  0  0  0  0
 17 16  2  0  0  0  0
 17  6  1  0  0  0  0
 18 10  1  0  0  0  0
 19 20  1  0  0  0  0
 20 15  2  0  0  0  0
 23 22  1  6  0  0  0
 23 21  1  0  0  0  0
 24 28  2  0  0  0  0
 24 31  1  0  0  0  0
 25 30  2  0  0  0  0
 27 24  1  0  0  0  0
 28 25  1  0  0  0  0
 29 30  1  0  0  0  0
 29 26  1  0  0  0  0
 30 23  1  0  0  0  0
 31 29  2  0  0  0  0
M  END
>  <MODEL>
4

>  <REMARK>
 VINA RESULT:      -7.5      3.314      6.729
  Name = 
  3 active torsions:
  status: ('A' for Active; 'I' for Inactive)
    1  A    between atoms: C_5  and  O_16
    2  A    between atoms: C_5  and  C_30
    3  A    between atoms: C_10  and  O_16
                            x       y       z     vdW  Elec       q    Type
                         _______ _______ _______ _____ _____    ______ ____

>  <TORSDO>
F 3

$$$$
=
 OpenBabel11122411003D

 31 35  0  0  1  0  0  0  0  0999 V2000
  179.8800  178.5550  142.1580 C   0  0  0  0  0  0  0  0  0  0  0  0
  183.1820  179.0380  140.3240 C   0  0  2  0  0  3  0  0  0  0  0  0
  184.3120  178.7360  141.3000 C   0  0  0  0  0  0  0  0  0  0  0  0
  185.1250  178.4400  143.5740 C   0  0  0  0  0  0  0  0  0  0  0  0
  181.8590  178.4530  140.7610 C   0  0  0  0  0  0  0  0  0  0  0  0
  179.4250  177.3530  141.6080 C   0  0  0  0  0  3  0  0  0  0  0  0
  184.0770  178.6860  142.6830 C   0  0  0  0  0  3  0  0  0  0  0  0
  183.4170  177.0510  138.7910 C   0  0  2  0  0  3  0  0  0  0  0  0
  178.9320  179.3700  143.3820 Cl  0  0  0  0  0  0  0  0  0  0  0  0
  185.9110  178.6630  139.4280 N   0  0  0  0  0  2  0  0  0  0  0  0
  184.8090  178.3630  145.2930 Cl  0  0  0  0  0  0  0  0  0  0  0  0
  182.1180  176.6100  139.1870 O   0  0  0  0  0  0  0  0  0  0  0  0
  183.5160  178.5810  138.8880 C   0  0  2  0  0  3  0  0  0  0  0  0
  181.0930  179.1040  141.7360 C   0  0  0  0  0  3  0  0  0  0  0  0
  186.4220  178.2530  143.0920 C   0  0  0  0  0  3  0  0  0  0  0  0
  181.3940  177.2470  140.2010 C   0  0  0  0  0  0  0  0  0  0  0  0
  180.1790  176.7020  140.6280 C   0  0  0  0  0  3  0  0  0  0  0  0
  184.8950  179.0940  138.4730 C   0  0  0  0  0  2  0  0  0  0  0  0
  185.6320  178.5850  140.8260 C   0  0  0  0  0  0  0  0  0  0  0  0
  186.6760  178.3270  141.7200 C   0  0  0  0  0  3  0  0  0  0  0  0
  183.6870  176.6210  137.4880 O   0  0  0  0  0  0  0  0  0  0  0  0
  182.7220  174.6420  136.5570 C   0  0  0  0  0  1  0  0  0  0  0  0
  183.7030  175.2220  137.5590 C   0  0  1  0  0  3  0  0  0  0  0  0
  187.6800  173.7620  136.8080 C   0  0  0  0  0  0  0  0  0  0  0  0
  186.0690  175.5680  136.8570 C   0  0  0  0  0  3  0  0  0  0  0  0
  184.4750  172.4600  137.9850 F   0  0  0  0  0  0  0  0  0  0  0  0
  189.0550  173.2710  136.5320 C   0  0  0  0  0  1  0  0  0  0  0  0
  187.3630  175.1060  136.6000 C   0  0  0  0  0  3  0  0  0  0  0  0
  185.4090  173.3340  137.5370 C   0  0  0  0  0  0  0  0  0  0  0  0
  185.0850  174.6880  137.3230 C   0  0  0  0  0  0  0  0  0  0  0  0
  186.7040  172.8780  137.2770 C   0  0  0  0  0  3  0  0  0  0  0  0
  1  9  1  0  0  0  0
  2  5  1  1  0  0  0
  2  3  1  0  0  0  0
  3  7  1  0  0  0  0
  4 11  1  0  0  0  0
  5 14  2  0  0  0  0
  6  1  2  0  0  0  0
  7  4  2  0  0  0  0
  8 21  1  6  0  0  0
  8 13  1  0  0  0  0
  8 12  1  0  0  0  0
 10 19  1  0  0  0  0
 12 16  1  0  0  0  0
 13 18  1  1  0  0  0
 13  2  1  0  0  0  0
 14  1  1  0  0  0  0
 15  4  1  0  0  0  0
 16 17  2  0  0  0  0
 16  5  1  0  0  0  0
 17  6  1  0  0  0  0
 18 10  1  0  0  0  0
 19  3  2  0  0  0  0
 19 20  1  0  0  0  0
 20 15  2  0  0  0  0
 21 23  1  0  0  0  0
 23 22  1  6  0  0  0
 24 31  1  0  0  0  0
 25 30  2  0  0  0  0
 27 24  1  0  0  0  0
 28 24  2  0  0  0  0
 28 25  1  0  0  0  0
 29 26  1  0  0  0  0
 30 29  1  0  0  0  0
 30 23  1  0  0  0  0
 31 29  2  0  0  0  0
M  END
>  <MODEL>
5

>  <REMARK>
 VINA RESULT:      -7.4      4.519      8.177
  Name = 
  3 active torsions:
  status: ('A' for Active; 'I' for Inactive)
    1  A    between atoms: C_5  and  O_16
    2  A    between atoms: C_5  and  C_30
    3  A    between atoms: C_10  and  O_16
                            x       y       z     vdW  Elec       q    Type
                         _______ _______ _______ _____ _____    ______ ____

>  <TORSDO>
F 3

$$$$
=
 OpenBabel11122411003D

 31 35  0  0  1  0  0  0  0  0999 V2000
  189.5090  177.2250  136.8260 C   0  0  0  0  0  0  0  0  0  0  0  0
  185.7550  177.6120  137.3320 C   0  0  2  0  0  3  0  0  0  0  0  0
  185.1480  176.2200  137.4420 C   0  0  0  0  0  0  0  0  0  0  0  0
  185.2870  173.8150  137.1020 C   0  0  0  0  0  0  0  0  0  0  0  0
  187.2440  177.6240  137.5920 C   0  0  0  0  0  0  0  0  0  0  0  0
  190.0030  177.6020  138.0780 C   0  0  0  0  0  3  0  0  0  0  0  0
  185.8630  175.0860  137.0270 C   0  0  0  0  0  3  0  0  0  0  0  0
  185.4560  178.3830  139.7130 C   0  0  2  0  0  3  0  0  0  0  0  0
  190.6150  176.7300  135.5630 Cl  0  0  0  0  0  0  0  0  0  0  0  0
  183.0510  177.2000  138.2860 N   0  0  0  0  0  2  0  0  0  0  0  0
  186.2020  172.4110  136.5980 Cl  0  0  0  0  0  0  0  0  0  0  0  0
  186.8750  178.4570  139.8530 O   0  0  0  0  0  0  0  0  0  0  0  0
  185.0480  178.6300  138.2530 C   0  0  2  0  0  3  0  0  0  0  0  0
  188.1340  177.2360  136.5820 C   0  0  0  0  0  3  0  0  0  0  0  0
  183.9840  173.6660  137.5810 C   0  0  0  0  0  3  0  0  0  0  0  0
  187.7440  178.0130  138.8500 C   0  0  0  0  0  0  0  0  0  0  0  0
  189.1220  177.9990  139.0870 C   0  0  0  0  0  3  0  0  0  0  0  0
  183.5330  178.5580  138.0600 C   0  0  0  0  0  2  0  0  0  0  0  0
  183.8180  176.0620  137.8870 C   0  0  0  0  0  0  0  0  0  0  0  0
  183.2500  174.7880  137.9720 C   0  0  0  0  0  3  0  0  0  0  0  0
  184.8480  179.3170  140.5590 O   0  0  0  0  0  0  0  0  0  0  0  0
  185.8380  179.4810  142.7290 C   0  0  0  0  0  1  0  0  0  0  0  0
  184.8720  178.7300  141.8310 C   0  0  1  0  0  3  0  0  0  0  0  0
  180.8980  178.6920  143.4800 C   0  0  0  0  0  0  0  0  0  0  0  0
  182.3930  178.7590  141.5780 C   0  0  0  0  0  3  0  0  0  0  0  0
  184.3480  178.5700  144.6790 F   0  0  0  0  0  0  0  0  0  0  0  0
  179.5190  178.6930  144.0330 C   0  0  0  0  0  1  0  0  0  0  0  0
  181.0960  178.7570  142.0990 C   0  0  0  0  0  3  0  0  0  0  0  0
  183.2960  178.6280  143.8260 C   0  0  0  0  0  0  0  0  0  0  0  0
  183.4990  178.6970  142.4340 C   0  0  0  0  0  0  0  0  0  0  0  0
  181.9960  178.6270  144.3410 C   0  0  0  0  0  3  0  0  0  0  0  0
  1  6  1  0  0  0  0
  2  3  1  1  0  0  0
  2  5  1  0  0  0  0
  2 13  1  0  0  0  0
  3 19  1  0  0  0  0
  4 15  2  0  0  0  0
  5 16  2  0  0  0  0
  6 17  2  0  0  0  0
  7  4  1  0  0  0  0
  7  3  2  0  0  0  0
  8 12  1  0  0  0  0
  8 21  1  1  0  0  0
  9  1  1  0  0  0  0
 11  4  1  0  0  0  0
 13 18  1  1  0  0  0
 13  8  1  0  0  0  0
 14  1  2  0  0  0  0
 14  5  1  0  0  0  0
 15 20  1  0  0  0  0
 16 17  1  0  0  0  0
 16 12  1  0  0  0  0
 18 10  1  0  0  0  0
 19 20  2  0  0  0  0
 19 10  1  0  0  0  0
 21 23  1  0  0  0  0
 23 30  1  0  0  0  0
 23 22  1  1  0  0  0
 24 27  1  0  0  0  0
 24 31  1  0  0  0  0
 25 28  1  0  0  0  0
 25 30  2  0  0  0  0
 28 24  2  0  0  0  0
 29 31  2  0  0  0  0
 29 26  1  0  0  0  0
 30 29  1  0  0  0  0
M  END
>  <MODEL>
6

>  <REMARK>
 VINA RESULT:      -7.3      4.128      6.179
  Name = 
  3 active torsions:
  status: ('A' for Active; 'I' for Inactive)
    1  A    between atoms: C_5  and  O_16
    2  A    between atoms: C_5  and  C_30
    3  A    between atoms: C_10  and  O_16
                            x       y       z     vdW  Elec       q    Type
                         _______ _______ _______ _____ _____    ______ ____

>  <TORSDO>
F 3

$$$$
=
 OpenBabel11122411003D

 31 35  0  0  1  0  0  0  0  0999 V2000
  187.6220  177.6420  136.2930 C   0  0  0  0  0  0  0  0  0  0  0  0
  186.3440  178.8990  139.6530 C   0  0  2  0  0  3  0  0  0  0  0  0
  184.9870  178.2570  139.9120 C   0  0  0  0  0  0  0  0  0  0  0  0
  183.0080  177.0910  139.1100 C   0  0  0  0  0  0  0  0  0  0  0  0
  187.1550  178.1560  138.6160 C   0  0  0  0  0  0  0  0  0  0  0  0
  188.6250  176.7520  136.6890 C   0  0  0  0  0  3  0  0  0  0  0  0
  184.2660  177.6500  138.8720 C   0  0  0  0  0  3  0  0  0  0  0  0
  187.7070  177.7010  141.4020 C   0  0  2  0  0  3  0  0  0  0  0  0
  187.2790  177.8730  134.5940 Cl  0  0  0  0  0  0  0  0  0  0  0  0
  185.0910  178.9800  142.2640 N   0  0  0  0  0  2  0  0  0  0  0  0
  182.1320  176.3230  137.8040 Cl  0  0  0  0  0  0  0  0  0  0  0  0
  188.4900  177.1070  140.3650 O   0  0  0  0  0  0  0  0  0  0  0  0
  187.1650  179.0650  140.9500 C   0  0  2  0  0  3  0  0  0  0  0  0
  186.8890  178.3430  137.2540 C   0  0  0  0  0  3  0  0  0  0  0  0
  182.4510  177.1450  140.3890 C   0  0  0  0  0  3  0  0  0  0  0  0
  188.1730  177.2660  139.0120 C   0  0  0  0  0  0  0  0  0  0  0  0
  188.9030  176.5670  138.0460 C   0  0  0  0  0  3  0  0  0  0  0  0
  186.3190  179.7340  142.0330 C   0  0  0  0  0  2  0  0  0  0  0  0
  184.3990  178.3400  141.1910 C   0  0  0  0  0  0  0  0  0  0  0  0
  183.1450  177.7690  141.4280 C   0  0  0  0  0  3  0  0  0  0  0  0
  188.4810  177.8370  142.5600 O   0  0  0  0  0  0  0  0  0  0  0  0
  189.0530  175.5930  143.1510 C   0  0  0  0  0  1  0  0  0  0  0  0
  188.1120  176.7610  143.3770 C   0  0  1  0  0  3  0  0  0  0  0  0
  188.1580  177.8590  147.5370 C   0  0  0  0  0  0  0  0  0  0  0  0
  189.3190  177.2620  145.4990 C   0  0  0  0  0  3  0  0  0  0  0  0
  185.7000  177.3290  144.8850 F   0  0  0  0  0  0  0  0  0  0  0  0
  188.1910  178.2240  148.9770 C   0  0  0  0  0  1  0  0  0  0  0  0
  189.3490  177.6090  146.8530 C   0  0  0  0  0  3  0  0  0  0  0  0
  186.8980  177.4200  145.5140 C   0  0  0  0  0  0  0  0  0  0  0  0
  188.0970  177.1630  144.8220 C   0  0  0  0  0  0  0  0  0  0  0  0
  186.9340  177.7650  146.8680 C   0  0  0  0  0  3  0  0  0  0  0  0
  1  6  2  0  0  0  0
  1 14  1  0  0  0  0
  2  5  1  6  0  0  0
  2  3  1  0  0  0  0
  2 13  1  0  0  0  0
  3 19  1  0  0  0  0
  4 15  2  0  0  0  0
  5 16  1  0  0  0  0
  6 17  1  0  0  0  0
  7  4  1  0  0  0  0
  7  3  2  0  0  0  0
  8 21  1  1  0  0  0
  9  1  1  0  0  0  0
 11  4  1  0  0  0  0
 12  8  1  0  0  0  0
 13  8  1  0  0  0  0
 13 18  1  1  0  0  0
 14  5  2  0  0  0  0
 15 20  1  0  0  0  0
 16 12  1  0  0  0  0
 17 16  2  0  0  0  0
 18 10  1  0  0  0  0
 19 20  2  0  0  0  0
 19 10  1  0  0  0  0
 21 23  1  0  0  0  0
 23 22  1  1  0  0  0
 23 30  1  0  0  0  0
 24 27  1  0  0  0  0
 25 28  1  0  0  0  0
 26 29  1  0  0  0  0
 28 24  2  0  0  0  0
 29 31  2  0  0  0  0
 30 25  2  0  0  0  0
 30 29  1  0  0  0  0
 31 24  1  0  0  0  0
M  END
>  <MODEL>
7

>  <REMARK>
 VINA RESULT:      -7.3      2.096      3.143
  Name = 
  3 active torsions:
  status: ('A' for Active; 'I' for Inactive)
    1  A    between atoms: C_5  and  O_16
    2  A    between atoms: C_5  and  C_30
    3  A    between atoms: C_10  and  O_16
                            x       y       z     vdW  Elec       q    Type
                         _______ _______ _______ _____ _____    ______ ____

>  <TORSDO>
F 3

$$$$
=
 OpenBabel11122411003D

 31 35  0  0  1  0  0  0  0  0999 V2000
  188.7990  177.2820  135.7320 C   0  0  0  0  0  0  0  0  0  0  0  0
  185.1310  176.2830  135.9400 C   0  0  2  0  0  3  0  0  0  0  0  0
  185.0640  174.7850  136.2080 C   0  0  0  0  0  0  0  0  0  0  0  0
  186.1070  172.5870  136.2230 C   0  0  0  0  0  0  0  0  0  0  0  0
  186.4740  176.8810  136.2890 C   0  0  0  0  0  0  0  0  0  0  0  0
  188.9780  177.9500  136.9460 C   0  0  0  0  0  3  0  0  0  0  0  0
  186.1850  173.9650  136.0050 C   0  0  0  0  0  3  0  0  0  0  0  0
  184.3070  177.1380  138.1630 C   0  0  2  0  0  3  0  0  0  0  0  0
  190.1420  177.1050  134.6250 Cl  0  0  0  0  0  0  0  0  0  0  0  0
  182.6740  174.9900  136.7700 N   0  0  0  0  0  2  0  0  0  0  0  0
  187.5200  171.5840  135.9830 Cl  0  0  0  0  0  0  0  0  0  0  0  0
  185.5770  177.7540  138.3800 O   0  0  0  0  0  0  0  0  0  0  0  0
  184.0030  177.0530  136.6600 C   0  0  2  0  0  3  0  0  0  0  0  0
  187.5510  176.7490  135.4030 C   0  0  0  0  0  3  0  0  0  0  0  0
  184.9030  172.0120  136.6350 C   0  0  0  0  0  3  0  0  0  0  0  0
  186.6540  177.5640  137.5080 C   0  0  0  0  0  0  0  0  0  0  0  0
  187.9070  178.0950  137.8310 C   0  0  0  0  0  3  0  0  0  0  0  0
  182.6500  176.3970  136.3840 C   0  0  0  0  0  2  0  0  0  0  0  0
  183.8420  174.1890  136.5870 C   0  0  0  0  0  0  0  0  0  0  0  0
  183.7720  172.8110  136.8160 C   0  0  0  0  0  3  0  0  0  0  0  0
  183.3110  177.8610  138.8280 O   0  0  0  0  0  0  0  0  0  0  0  0
  183.3220  180.2510  138.8760 C   0  0  0  0  0  1  0  0  0  0  0  0
  183.9660  178.9710  139.3760 C   0  0  1  0  0  3  0  0  0  0  0  0
  183.8330  178.8600  143.6750 C   0  0  0  0  0  0  0  0  0  0  0  0
  182.7190  178.7990  141.5270 C   0  0  0  0  0  3  0  0  0  0  0  0
  186.3420  179.1200  141.0310 F   0  0  0  0  0  0  0  0  0  0  0  0
  183.7680  178.8340  145.1590 C   0  0  0  0  0  1  0  0  0  0  0  0
  182.6590  178.7710  142.9240 C   0  0  0  0  0  3  0  0  0  0  0  0
  185.1350  179.0020  141.6360 C   0  0  0  0  0  0  0  0  0  0  0  0
  183.9520  178.9170  140.8750 C   0  0  0  0  0  0  0  0  0  0  0  0
  185.0680  178.9750  143.0320 C   0  0  0  0  0  3  0  0  0  0  0  0
  1  6  1  0  0  0  0
  2  3  1  1  0  0  0
  2  5  1  0  0  0  0
  2 13  1  0  0  0  0
  3 19  1  0  0  0  0
  4 15  2  0  0  0  0
  5 16  2  0  0  0  0
  6 17  2  0  0  0  0
  7  3  2  0  0  0  0
  7  4  1  0  0  0  0
  8 12  1  0  0  0  0
  8 21  1  1  0  0  0
  9  1  1  0  0  0  0
 11  4  1  0  0  0  0
 13 18  1  1  0  0  0
 13  8  1  0  0  0  0
 14  1  2  0  0  0  0
 14  5  1  0  0  0  0
 15 20  1  0  0  0  0
 16 17  1  0  0  0  0
 16 12  1  0  0  0  0
 18 10  1  0  0  0  0
 19 10  1  0  0  0  0
 19 20  2  0  0  0  0
 21 23  1  0  0  0  0
 23 22  1  1  0  0  0
 23 30  1  0  0  0  0
 24 27  1  0  0  0  0
 25 28  1  0  0  0  0
 26 29  1  0  0  0  0
 28 24  2  0  0  0  0
 29 31  2  0  0  0  0
 30 25  2  0  0  0  0
 30 29  1  0  0  0  0
 31 24  1  0  0  0  0
M  END
>  <MODEL>
8

>  <REMARK>
 VINA RESULT:      -7.2      4.537      6.866
  Name = 
  3 active torsions:
  status: ('A' for Active; 'I' for Inactive)
    1  A    between atoms: C_5  and  O_16
    2  A    between atoms: C_5  and  C_30
    3  A    between atoms: C_10  and  O_16
                            x       y       z     vdW  Elec       q    Type
                         _______ _______ _______ _____ _____    ______ ____

>  <TORSDO>
F 3

$$$$
=
 OpenBabel11122411003D

 31 35  0  0  1  0  0  0  0  0999 V2000
  189.9510  176.0560  142.8490 C   0  0  0  0  0  0  0  0  0  0  0  0
  186.3280  177.1750  143.2020 C   0  0  2  0  0  3  0  0  0  0  0  0
  186.1790  177.8750  144.5460 C   0  0  0  0  0  0  0  0  0  0  0  0
  186.9930  178.3490  146.7900 C   0  0  0  0  0  0  0  0  0  0  0  0
  187.7640  177.0980  142.7380 C   0  0  0  0  0  0  0  0  0  0  0  0
  190.4390  176.9730  141.9140 C   0  0  0  0  0  3  0  0  0  0  0  0
  187.1520  177.7300  145.5470 C   0  0  0  0  0  3  0  0  0  0  0  0
  186.0660  179.1600  141.6710 C   0  0  2  0  0  3  0  0  0  0  0  0
  191.0130  174.8340  143.5120 Cl  0  0  0  0  0  0  0  0  0  0  0  0
  183.9870  178.7560  143.8470 N   0  0  0  0  0  2  0  0  0  0  0  0
  188.2260  178.1710  148.0180 Cl  0  0  0  0  0  0  0  0  0  0  0  0
  187.4050  178.9660  141.2140 O   0  0  0  0  0  0  0  0  0  0  0  0
  185.4510  177.8230  142.1090 C   0  0  2  0  0  3  0  0  0  0  0  0
  188.6160  176.1170  143.2600 C   0  0  0  0  0  3  0  0  0  0  0  0
  185.8530  179.1110  147.0490 C   0  0  0  0  0  3  0  0  0  0  0  0
  188.2550  178.0150  141.7880 C   0  0  0  0  0  0  0  0  0  0  0  0
  189.5920  177.9490  141.3820 C   0  0  0  0  0  3  0  0  0  0  0  0
  184.0150  177.9880  142.6070 C   0  0  0  0  0  2  0  0  0  0  0  0
  185.0120  178.6150  144.8320 C   0  0  0  0  0  0  0  0  0  0  0  0
  184.8630  179.2440  146.0720 C   0  0  0  0  0  3  0  0  0  0  0  0
  185.3010  179.7470  140.6580 O   0  0  0  0  0  0  0  0  0  0  0  0
  183.0860  179.1950  139.9480 C   0  0  0  0  0  1  0  0  0  0  0  0
  184.5100  178.7100  140.1480 C   0  0  1  0  0  3  0  0  0  0  0  0
  186.1720  177.2940  136.4400 C   0  0  0  0  0  0  0  0  0  0  0  0
  186.1830  178.8370  138.3040 C   0  0  0  0  0  3  0  0  0  0  0  0
  183.4510  176.4200  138.7180 F   0  0  0  0  0  0  0  0  0  0  0  0
  186.7500  176.8260  135.1540 C   0  0  0  0  0  1  0  0  0  0  0  0
  186.7290  178.3940  137.0960 C   0  0  0  0  0  3  0  0  0  0  0  0
  184.5220  177.0700  138.2020 C   0  0  0  0  0  0  0  0  0  0  0  0
  185.0790  178.1820  138.8630 C   0  0  0  0  0  0  0  0  0  0  0  0
  185.0710  176.6330  136.9930 C   0  0  0  0  0  3  0  0  0  0  0  0
  1 14  1  0  0  0  0
  1  9  1  0  0  0  0
  2  5  1  6  0  0  0
  2  3  1  0  0  0  0
  3 19  2  0  0  0  0
  3  7  1  0  0  0  0
  4 15  1  0  0  0  0
  4 11  1  0  0  0  0
  5 14  2  0  0  0  0
  6  1  2  0  0  0  0
  7  4  2  0  0  0  0
  8 21  1  6  0  0  0
  8 13  1  0  0  0  0
 10 19  1  0  0  0  0
 12  8  1  0  0  0  0
 12 16  1  0  0  0  0
 13 18  1  1  0  0  0
 13  2  1  0  0  0  0
 16  5  1  0  0  0  0
 17 16  2  0  0  0  0
 17  6  1  0  0  0  0
 18 10  1  0  0  0  0
 19 20  1  0  0  0  0
 20 15  2  0  0  0  0
 23 22  1  6  0  0  0
 23 21  1  0  0  0  0
 24 31  2  0  0  0  0
 24 28  1  0  0  0  0
 25 30  1  0  0  0  0
 27 24  1  0  0  0  0
 28 25  2  0  0  0  0
 29 26  1  0  0  0  0
 29 30  2  0  0  0  0
 30 23  1  0  0  0  0
 31 29  1  0  0  0  0
M  END
>  <MODEL>
9

>  <REMARK>
 VINA RESULT:      -7.2      3.372      6.836
  Name = 
  3 active torsions:
  status: ('A' for Active; 'I' for Inactive)
    1  A    between atoms: C_5  and  O_16
    2  A    between atoms: C_5  and  C_30
    3  A    between atoms: C_10  and  O_16
                            x       y       z     vdW  Elec       q    Type
                         _______ _______ _______ _____ _____    ______ ____

>  <TORSDO>
F 3

$$$$
