=
 OpenBabel11122411033D

 31 36  0  0  1  0  0  0  0  0999 V2000
  191.0470  176.0980  143.4300 C   0  0  0  0  0  0  0  0  0  0  0  0
  187.3980  177.0270  143.9630 C   0  0  2  0  0  3  0  0  0  0  0  0
  187.3220  177.7590  145.3050 C   0  0  0  0  0  0  0  0  0  0  0  0
  188.0910  177.8140  147.7190 C   0  0  1  0  0  3  0  0  0  0  0  0
  188.7880  176.9910  143.3750 C   0  0  0  0  0  0  0  0  0  0  0  0
  191.4120  176.9450  142.3820 C   0  0  0  0  0  3  0  0  0  0  0  0
  188.4910  177.6330  146.2620 C   0  0  0  0  0  2  0  0  0  0  0  0
  186.8220  178.8490  142.3020 C   0  0  2  0  0  3  0  0  0  0  0  0
  191.9610  175.2590  143.9730 F   0  0  0  0  0  0  0  0  0  0  0  0
  185.0340  178.6340  144.7430 C   0  0  0  0  0  2  0  0  0  0  0  0
  189.2350  177.8640  148.5120 O   0  0  0  0  0  1  0  0  0  0  0  0
  188.1480  178.6630  141.5620 C   0  0  0  0  0  2  0  0  0  0  0  0
  186.3660  177.5190  142.9330 C   0  0  2  0  0  3  0  0  0  0  0  0
  189.7390  176.1190  143.9220 C   0  0  0  0  0  3  0  0  0  0  0  0
  187.3280  179.1170  147.8470 C   0  0  0  0  0  2  0  0  0  0  0  0
  189.1570  177.8380  142.3060 C   0  0  0  0  0  0  0  0  0  0  0  0
  190.4670  177.8030  141.8150 C   0  0  0  0  0  3  0  0  0  0  0  0
  185.0020  177.6100  143.6130 C   0  0  0  0  0  2  0  0  0  0  0  0
  186.1990  178.4390  145.6760 C   0  0  0  0  0  0  0  0  0  0  0  0
  186.0240  179.0120  147.0630 C   0  0  0  0  0  2  0  0  0  0  0  0
  184.6380  178.6050  141.3800 O   0  0  0  0  0  0  0  0  0  0  0  0
  185.4800  178.3850  140.2760 C   0  0  2  0  0  3  0  0  0  0  0  0
  185.8020  179.3950  141.3100 C   0  0  2  0  0  3  0  0  0  0  0  0
  183.6110  176.8160  137.5110 C   0  0  1  0  0  3  0  0  0  0  0  0
  183.3290  178.7850  139.0520 C   0  0  0  0  0  2  0  0  0  0  0  0
  186.8560  178.7580  137.6360 N   0  0  0  0  0  1  0  0  0  0  0  0
  183.3140  175.3420  137.3360 C   0  0  0  0  0  1  0  0  0  0  0  0
  183.0020  177.3070  138.8230 C   0  0  0  0  0  2  0  0  0  0  0  0
  185.4270  178.5150  137.7160 C   0  0  2  0  0  3  0  0  0  0  0  0
  184.8420  179.0270  139.0420 C   0  0  2  0  0  3  0  0  0  0  0  0
  185.1220  177.0330  137.5050 C   0  0  0  0  0  2  0  0  0  0  0  0
  1 14  1  0  0  0  0
  1  9  1  0  0  0  0
  2  5  1  6  0  0  0
  2  3  1  0  0  0  0
  3 19  2  0  0  0  0
  3  7  1  0  0  0  0
  4 15  1  0  0  0  0
  4 11  1  1  0  0  0
  5 14  2  0  0  0  0
  6  1  2  0  0  0  0
  7  4  1  0  0  0  0
  8 12  1  6  0  0  0
  8 13  1  0  0  0  0
 10 19  1  0  0  0  0
 12 16  1  0  0  0  0
 13 18  1  1  0  0  0
 13  2  1  0  0  0  0
 16  5  1  0  0  0  0
 17 16  2  0  0  0  0
 17  6  1  0  0  0  0
 18 10  1  0  0  0  0
 19 20  1  0  0  0  0
 20 15  1  0  0  0  0
 22 23  1  0  0  0  0
 22 21  1  1  0  0  0
 23 21  1  1  0  0  0
 23  8  1  0  0  0  0
 24 27  1  1  0  0  0
 24 28  1  0  0  0  0
 28 25  1  0  0  0  0
 29 26  1  1  0  0  0
 29 30  1  0  0  0  0
 30 25  1  6  0  0  0
 30 22  1  0  0  0  0
 31 24  1  0  0  0  0
 31 29  1  0  0  0  0
M  END
>  <MODEL>
1

>  <REMARK>
 VINA RESULT:      -9.4      0.000      0.000
  Name = 
  2 active torsions:
  status: ('A' for Active; 'I' for Inactive)
    1  A    between atoms: C_5  and  C_30
    2  A    between atoms: C_10  and  C_16
                            x       y       z     vdW  Elec       q    Type
                         _______ _______ _______ _____ _____    ______ ____

>  <TORSDO>
F 2

$$$$
=
 OpenBabel11122411033D

 31 36  0  0  1  0  0  0  0  0999 V2000
  190.0040  176.0020  142.6570 C   0  0  0  0  0  0  0  0  0  0  0  0
  186.8200  177.0280  144.4640 C   0  0  2  0  0  3  0  0  0  0  0  0
  187.2520  177.7280  145.7550 C   0  0  0  0  0  0  0  0  0  0  0  0
  188.8290  177.6980  147.7380 C   0  0  1  0  0  3  0  0  0  0  0  0
  187.9080  176.9650  143.4200 C   0  0  0  0  0  0  0  0  0  0  0  0
  190.0050  176.8630  141.5580 C   0  0  0  0  0  3  0  0  0  0  0  0
  188.6800  177.5430  146.2320 C   0  0  0  0  0  2  0  0  0  0  0  0
  185.7610  178.9080  143.1400 C   0  0  2  0  0  3  0  0  0  0  0  0
  191.0200  175.1220  142.8280 F   0  0  0  0  0  0  0  0  0  0  0  0
  184.9490  178.6860  146.0540 C   0  0  0  0  0  2  0  0  0  0  0  0
  190.1820  177.6940  148.0730 O   0  0  0  0  0  1  0  0  0  0  0  0
  186.7290  178.7000  141.9750 C   0  0  0  0  0  2  0  0  0  0  0  0
  185.5090  177.5770  143.8760 C   0  0  2  0  0  3  0  0  0  0  0  0
  188.9580  176.0510  143.5810 C   0  0  0  0  0  3  0  0  0  0  0  0
  188.2110  179.0210  148.1460 C   0  0  0  0  0  2  0  0  0  0  0  0
  187.9050  177.8260  142.3010 C   0  0  0  0  0  0  0  0  0  0  0  0
  188.9530  177.7640  141.3760 C   0  0  0  0  0  3  0  0  0  0  0  0
  184.4790  177.6930  144.9970 C   0  0  0  0  0  2  0  0  0  0  0  0
  186.3610  178.4330  146.5100 C   0  0  0  0  0  0  0  0  0  0  0  0
  186.7110  178.9760  147.8760 C   0  0  0  0  0  2  0  0  0  0  0  0
  183.4070  178.6410  142.8750 O   0  0  0  0  0  0  0  0  0  0  0  0
  183.8840  178.6260  141.5520 C   0  0  2  0  0  3  0  0  0  0  0  0
  184.4750  179.5100  142.5830 C   0  0  2  0  0  3  0  0  0  0  0  0
  181.9130  177.4240  138.6760 C   0  0  1  0  0  3  0  0  0  0  0  0
  181.5010  178.7390  140.7820 C   0  0  0  0  0  2  0  0  0  0  0  0
  184.5960  180.0710  139.0210 N   0  0  0  0  0  1  0  0  0  0  0  0
  181.9290  176.0320  138.0820 C   0  0  0  0  0  1  0  0  0  0  0  0
  181.4790  177.3500  140.1380 C   0  0  0  0  0  2  0  0  0  0  0  0
  183.3020  179.4320  139.1900 C   0  0  2  0  0  3  0  0  0  0  0  0
  182.8880  179.3800  140.6690 C   0  0  2  0  0  3  0  0  0  0  0  0
  183.3050  178.0410  138.5600 C   0  0  0  0  0  2  0  0  0  0  0  0
  1  9  1  0  0  0  0
  1 14  1  0  0  0  0
  2  5  1  6  0  0  0
  2  3  1  0  0  0  0
  3  7  1  0  0  0  0
  3 19  2  0  0  0  0
  4 11  1  6  0  0  0
  4 15  1  0  0  0  0
  5 14  2  0  0  0  0
  6  1  2  0  0  0  0
  7  4  1  0  0  0  0
  8 12  1  6  0  0  0
  8 13  1  0  0  0  0
 10 19  1  0  0  0  0
 12 16  1  0  0  0  0
 13  2  1  0  0  0  0
 13 18  1  1  0  0  0
 16  5  1  0  0  0  0
 17  6  1  0  0  0  0
 17 16  2  0  0  0  0
 18 10  1  0  0  0  0
 19 20  1  0  0  0  0
 20 15  1  0  0  0  0
 22 23  1  0  0  0  0
 22 21  1  1  0  0  0
 23 21  1  1  0  0  0
 23  8  1  0  0  0  0
 24 27  1  1  0  0  0
 24 28  1  0  0  0  0
 28 25  1  0  0  0  0
 29 26  1  1  0  0  0
 29 30  1  0  0  0  0
 30 25  1  6  0  0  0
 30 22  1  0  0  0  0
 31 24  1  0  0  0  0
 31 29  1  0  0  0  0
M  END
>  <MODEL>
2

>  <REMARK>
 VINA RESULT:      -9.3      1.367      1.652
  Name = 
  2 active torsions:
  status: ('A' for Active; 'I' for Inactive)
    1  A    between atoms: C_5  and  C_30
    2  A    between atoms: C_10  and  C_16
                            x       y       z     vdW  Elec       q    Type
                         _______ _______ _______ _____ _____    ______ ____

>  <TORSDO>
F 2

$$$$
=
 OpenBabel11122411033D

 31 36  0  0  1  0  0  0  0  0999 V2000
  187.0520  178.1520  147.3860 C   0  0  0  0  0  0  0  0  0  0  0  0
  189.8320  178.2130  144.7930 C   0  0  2  0  0  3  0  0  0  0  0  0
  190.6700  176.9520  145.0160 C   0  0  0  0  0  0  0  0  0  0  0  0
  191.7620  175.4260  146.7180 C   0  0  1  0  0  3  0  0  0  0  0  0
  188.4520  178.1350  145.4010 C   0  0  0  0  0  0  0  0  0  0  0  0
  185.9240  177.9100  146.5980 C   0  0  0  0  0  3  0  0  0  0  0  0
  190.5170  176.2080  146.3290 C   0  0  0  0  0  2  0  0  0  0  0  0
  188.7780  177.7870  142.5300 C   0  0  2  0  0  3  0  0  0  0  0  0
  186.9250  178.2710  148.7290 F   0  0  0  0  0  0  0  0  0  0  0  0
  191.7490  177.2220  142.7630 C   0  0  0  0  0  2  0  0  0  0  0  0
  191.4840  174.6330  147.8300 O   0  0  0  0  0  1  0  0  0  0  0  0
  187.3680  177.9280  143.1050 C   0  0  0  0  0  2  0  0  0  0  0  0
  189.7720  178.6610  143.3220 C   0  0  2  0  0  3  0  0  0  0  0  0
  188.3090  178.2680  146.7890 C   0  0  0  0  0  3  0  0  0  0  0  0
  192.1550  174.5410  145.5510 C   0  0  0  0  0  2  0  0  0  0  0  0
  187.3090  177.9030  144.6050 C   0  0  0  0  0  0  0  0  0  0  0  0
  186.0530  177.7980  145.2110 C   0  0  0  0  0  3  0  0  0  0  0  0
  191.1860  178.6380  142.7450 C   0  0  0  0  0  2  0  0  0  0  0  0
  191.5960  176.5470  144.0990 C   0  0  0  0  0  0  0  0  0  0  0  0
  192.5630  175.4190  144.3730 C   0  0  0  0  0  2  0  0  0  0  0  0
  187.7650  177.3620  140.4160 O   0  0  0  0  0  0  0  0  0  0  0  0
  189.1120  177.0220  140.2010 C   0  0  2  0  0  3  0  0  0  0  0  0
  188.7250  178.1680  141.0550 C   0  0  2  0  0  3  0  0  0  0  0  0
  189.5360  175.0400  137.1200 C   0  0  1  0  0  3  0  0  0  0  0  0
  188.3810  177.1670  137.8080 C   0  0  0  0  0  2  0  0  0  0  0  0
  191.9280  177.1340  139.1730 N   0  0  0  0  0  1  0  0  0  0  0  0
  189.3650  173.5430  136.9710 C   0  0  0  0  0  1  0  0  0  0  0  0
  188.2240  175.6580  137.6000 C   0  0  0  0  0  2  0  0  0  0  0  0
  190.8120  176.8350  138.2920 C   0  0  2  0  0  3  0  0  0  0  0  0
  189.5100  177.4770  138.7960 C   0  0  2  0  0  3  0  0  0  0  0  0
  190.6590  175.3260  138.1130 C   0  0  0  0  0  2  0  0  0  0  0  0
  1  9  1  0  0  0  0
  2  3  1  6  0  0  0
  2  5  1  0  0  0  0
  3  7  1  0  0  0  0
  4 11  1  1  0  0  0
  5 14  2  0  0  0  0
  6  1  2  0  0  0  0
  7  4  1  0  0  0  0
  8 12  1  1  0  0  0
  8 13  1  0  0  0  0
 10 19  1  0  0  0  0
 12 16  1  0  0  0  0
 13 18  1  6  0  0  0
 13  2  1  0  0  0  0
 14  1  1  0  0  0  0
 15  4  1  0  0  0  0
 16 17  2  0  0  0  0
 16  5  1  0  0  0  0
 17  6  1  0  0  0  0
 18 10  1  0  0  0  0
 19 20  1  0  0  0  0
 19  3  2  0  0  0  0
 20 15  1  0  0  0  0
 22 21  1  6  0  0  0
 22 23  1  0  0  0  0
 23 21  1  6  0  0  0
 23  8  1  0  0  0  0
 24 27  1  1  0  0  0
 24 28  1  0  0  0  0
 24 31  1  0  0  0  0
 28 25  1  0  0  0  0
 29 30  1  0  0  0  0
 29 26  1  1  0  0  0
 30 25  1  6  0  0  0
 30 22  1  0  0  0  0
 31 29  1  0  0  0  0
M  END
>  <MODEL>
3

>  <REMARK>
 VINA RESULT:      -9.0      3.133      5.151
  Name = 
  2 active torsions:
  status: ('A' for Active; 'I' for Inactive)
    1  A    between atoms: C_5  and  C_30
    2  A    between atoms: C_10  and  C_16
                            x       y       z     vdW  Elec       q    Type
                         _______ _______ _______ _____ _____    ______ ____

>  <TORSDO>
F 2

$$$$
=
 OpenBabel11122411033D

 31 36  0  0  1  0  0  0  0  0999 V2000
  179.6340  178.9360  143.1120 C   0  0  0  0  0  0  0  0  0  0  0  0
  182.8450  179.2720  141.1030 C   0  0  2  0  0  3  0  0  0  0  0  0
  183.9850  178.8090  142.0150 C   0  0  0  0  0  0  0  0  0  0  0  0
  184.9770  178.8820  144.3450 C   0  0  1  0  0  3  0  0  0  0  0  0
  181.4860  178.7870  141.5450 C   0  0  0  0  0  0  0  0  0  0  0  0
  179.0000  177.8700  142.4690 C   0  0  0  0  0  3  0  0  0  0  0  0
  183.7210  178.7090  143.5040 C   0  0  0  0  0  2  0  0  0  0  0  0
  182.8130  177.4890  139.3050 C   0  0  2  0  0  3  0  0  0  0  0  0
  179.0530  179.5220  144.1850 F   0  0  0  0  0  0  0  0  0  0  0  0
  185.5330  178.6110  140.0450 C   0  0  0  0  0  2  0  0  0  0  0  0
  184.6860  178.6000  145.6780 O   0  0  0  0  0  1  0  0  0  0  0  0
  181.3540  177.1440  139.6040 C   0  0  0  0  0  2  0  0  0  0  0  0
  183.0890  178.9750  139.6130 C   0  0  2  0  0  3  0  0  0  0  0  0
  180.8700  179.3940  142.6490 C   0  0  0  0  0  3  0  0  0  0  0  0
  186.0280  177.9130  143.8390 C   0  0  0  0  0  2  0  0  0  0  0  0
  180.8370  177.7180  140.8910 C   0  0  0  0  0  0  0  0  0  0  0  0
  179.5950  177.2720  141.3560 C   0  0  0  0  0  3  0  0  0  0  0  0
  184.5070  179.4130  139.2520 C   0  0  0  0  0  2  0  0  0  0  0  0
  185.2340  178.5740  141.5200 C   0  0  0  0  0  0  0  0  0  0  0  0
  186.4190  178.2980  142.4160 C   0  0  0  0  0  2  0  0  0  0  0  0
  182.7110  175.8070  137.6200 O   0  0  0  0  0  0  0  0  0  0  0  0
  184.0900  176.0550  137.7430 C   0  0  2  0  0  3  0  0  0  0  0  0
  183.0900  177.1440  137.8460 C   0  0  2  0  0  3  0  0  0  0  0  0
  186.5800  173.7010  136.3810 C   0  0  1  0  0  3  0  0  0  0  0  0
  184.3700  174.6730  135.6720 C   0  0  0  0  0  2  0  0  0  0  0  0
  186.6330  177.4410  136.9600 N   0  0  0  0  0  1  0  0  0  0  0  0
  187.2370  172.5500  137.1110 C   0  0  0  0  0  1  0  0  0  0  0  0
  185.0670  173.4970  136.3610 C   0  0  0  0  0  2  0  0  0  0  0  0
  186.2470  176.1740  136.3630 C   0  0  2  0  0  3  0  0  0  0  0  0
  184.7200  176.0010  136.3510 C   0  0  2  0  0  3  0  0  0  0  0  0
  186.9350  175.0130  137.0770 C   0  0  0  0  0  2  0  0  0  0  0  0
  1  9  1  0  0  0  0
  2  5  1  1  0  0  0
  2  3  1  0  0  0  0
  3  7  1  0  0  0  0
  4 11  1  1  0  0  0
  5 14  2  0  0  0  0
  6  1  2  0  0  0  0
  7  4  1  0  0  0  0
  8 12  1  6  0  0  0
  8 13  1  0  0  0  0
 10 19  1  0  0  0  0
 12 16  1  0  0  0  0
 13 18  1  1  0  0  0
 13  2  1  0  0  0  0
 14  1  1  0  0  0  0
 15  4  1  0  0  0  0
 16 17  2  0  0  0  0
 16  5  1  0  0  0  0
 17  6  1  0  0  0  0
 18 10  1  0  0  0  0
 19  3  2  0  0  0  0
 19 20  1  0  0  0  0
 20 15  1  0  0  0  0
 22 21  1  6  0  0  0
 22 23  1  0  0  0  0
 23 21  1  1  0  0  0
 23  8  1  0  0  0  0
 24 31  1  0  0  0  0
 24 27  1  1  0  0  0
 25 28  1  0  0  0  0
 28 24  1  0  0  0  0
 29 26  1  1  0  0  0
 29 31  1  0  0  0  0
 30 25  1  1  0  0  0
 30 29  1  0  0  0  0
 30 22  1  0  0  0  0
M  END
>  <MODEL>
4

>  <REMARK>
 VINA RESULT:      -9.0      3.725      6.628
  Name = 
  2 active torsions:
  status: ('A' for Active; 'I' for Inactive)
    1  A    between atoms: C_5  and  C_30
    2  A    between atoms: C_10  and  C_16
                            x       y       z     vdW  Elec       q    Type
                         _______ _______ _______ _____ _____    ______ ____

>  <TORSDO>
F 2

$$$$
=
 OpenBabel11122411033D

 31 36  0  0  1  0  0  0  0  0999 V2000
  181.6920  171.9720  136.6570 C   0  0  0  0  0  0  0  0  0  0  0  0
  183.3160  175.4100  136.5830 C   0  0  2  0  0  3  0  0  0  0  0  0
  182.9350  176.1050  137.8930 C   0  0  0  0  0  0  0  0  0  0  0  0
  181.0890  176.5860  139.5600 C   0  0  1  0  0  3  0  0  0  0  0  0
  183.1590  173.9090  136.6300 C   0  0  0  0  0  0  0  0  0  0  0  0
  182.7970  171.1320  136.8020 C   0  0  0  0  0  3  0  0  0  0  0  0
  181.7820  175.5400  138.7000 C   0  0  0  0  0  2  0  0  0  0  0  0
  185.8140  175.0810  136.8340 C   0  0  2  0  0  3  0  0  0  0  0  0
  180.4440  171.4480  136.6070 F   0  0  0  0  0  0  0  0  0  0  0  0
  184.7350  177.8240  137.5500 C   0  0  0  0  0  2  0  0  0  0  0  0
  180.1680  175.9600  140.3980 O   0  0  0  0  0  1  0  0  0  0  0  0
  185.6830  173.5680  136.6590 C   0  0  0  0  0  2  0  0  0  0  0  0
  184.7030  175.8120  136.0530 C   0  0  2  0  0  3  0  0  0  0  0  0
  181.8730  173.3540  136.5680 C   0  0  0  0  0  3  0  0  0  0  0  0
  182.1390  177.2890  140.3960 C   0  0  0  0  0  2  0  0  0  0  0  0
  184.2760  173.0560  136.7640 C   0  0  0  0  0  0  0  0  0  0  0  0
  184.0850  171.6720  136.8440 C   0  0  0  0  0  3  0  0  0  0  0  0
  184.8270  177.3330  136.1100 C   0  0  0  0  0  2  0  0  0  0  0  0
  183.5550  177.2530  138.2890 C   0  0  0  0  0  0  0  0  0  0  0  0
  183.0780  178.0600  139.4750 C   0  0  0  0  0  2  0  0  0  0  0  0
  188.1540  174.6650  137.0080 O   0  0  0  0  0  0  0  0  0  0  0  0
  188.0220  175.9720  137.5100 C   0  0  2  0  0  3  0  0  0  0  0  0
  187.2080  175.4900  136.3700 C   0  0  2  0  0  3  0  0  0  0  0  0
  190.7980  177.4200  139.4580 C   0  0  1  0  0  3  0  0  0  0  0  0
  190.5220  176.0620  137.3580 C   0  0  0  0  0  2  0  0  0  0  0  0
  188.0720  178.9670  137.3370 N   0  0  0  0  0  1  0  0  0  0  0  0
  190.9980  177.3370  140.9560 C   0  0  0  0  0  1  0  0  0  0  0  0
  190.7720  176.0120  138.8670 C   0  0  0  0  0  2  0  0  0  0  0  0
  189.2690  178.2070  137.6490 C   0  0  2  0  0  3  0  0  0  0  0  0
  189.2180  176.7990  137.0360 C   0  0  2  0  0  3  0  0  0  0  0  0
  189.4920  178.1510  139.1590 C   0  0  0  0  0  2  0  0  0  0  0  0
  1  6  1  0  0  0  0
  2  5  1  1  0  0  0
  2  3  1  0  0  0  0
  3 19  2  0  0  0  0
  3  7  1  0  0  0  0
  4 15  1  0  0  0  0
  4 11  1  1  0  0  0
  5 16  2  0  0  0  0
  6 17  2  0  0  0  0
  7  4  1  0  0  0  0
  8 12  1  6  0  0  0
  9  1  1  0  0  0  0
 10 19  1  0  0  0  0
 12 16  1  0  0  0  0
 13 18  1  1  0  0  0
 13  2  1  0  0  0  0
 13  8  1  0  0  0  0
 14  5  1  0  0  0  0
 14  1  2  0  0  0  0
 16 17  1  0  0  0  0
 18 10  1  0  0  0  0
 19 20  1  0  0  0  0
 20 15  1  0  0  0  0
 22 21  1  6  0  0  0
 23  8  1  0  0  0  0
 23 21  1  1  0  0  0
 23 22  1  0  0  0  0
 24 27  1  1  0  0  0
 25 28  1  0  0  0  0
 28 24  1  0  0  0  0
 29 26  1  1  0  0  0
 29 31  1  0  0  0  0
 30 25  1  1  0  0  0
 30 22  1  0  0  0  0
 30 29  1  0  0  0  0
 31 24  1  0  0  0  0
M  END
>  <MODEL>
5

>  <REMARK>
 VINA RESULT:      -8.6      5.247      8.649
  Name = 
  2 active torsions:
  status: ('A' for Active; 'I' for Inactive)
    1  A    between atoms: C_5  and  C_30
    2  A    between atoms: C_10  and  C_16
                            x       y       z     vdW  Elec       q    Type
                         _______ _______ _______ _____ _____    ______ ____

>  <TORSDO>
F 2

$$$$
=
 OpenBabel11122411033D

 31 36  0  0  1  0  0  0  0  0999 V2000
  191.4090  177.3830  140.9230 C   0  0  0  0  0  0  0  0  0  0  0  0
  189.0730  177.7960  137.9520 C   0  0  2  0  0  3  0  0  0  0  0  0
  188.9910  176.4310  137.2640 C   0  0  0  0  0  0  0  0  0  0  0  0
  190.2720  174.3960  136.4670 C   0  0  1  0  0  3  0  0  0  0  0  0
  189.5670  177.7230  139.3760 C   0  0  0  0  0  0  0  0  0  0  0  0
  190.5290  177.4890  142.0020 C   0  0  0  0  0  3  0  0  0  0  0  0
  190.0450  175.3930  137.5930 C   0  0  0  0  0  2  0  0  0  0  0  0
  186.7290  178.1040  138.8590 C   0  0  2  0  0  3  0  0  0  0  0  0
  192.7270  177.1590  141.1440 F   0  0  0  0  0  0  0  0  0  0  0  0
  186.9510  177.1540  135.9870 C   0  0  0  0  0  2  0  0  0  0  0  0
  191.1140  173.3780  136.9110 O   0  0  0  0  0  1  0  0  0  0  0  0
  187.2480  178.2530  140.2890 C   0  0  0  0  0  2  0  0  0  0  0  0
  187.7760  178.6170  137.8500 C   0  0  2  0  0  3  0  0  0  0  0  0
  190.9300  177.5030  139.6170 C   0  0  0  0  0  3  0  0  0  0  0  0
  188.9310  173.8080  136.0720 C   0  0  0  0  0  2  0  0  0  0  0  0
  188.6810  177.8420  140.4700 C   0  0  0  0  0  0  0  0  0  0  0  0
  189.1720  177.7300  141.7750 C   0  0  0  0  0  3  0  0  0  0  0  0
  187.2870  178.5820  136.4030 C   0  0  0  0  0  2  0  0  0  0  0  0
  188.0470  176.1760  136.3120 C   0  0  0  0  0  0  0  0  0  0  0  0
  188.0550  174.9100  135.4860 C   0  0  0  0  0  2  0  0  0  0  0  0
  184.7520  178.7910  139.9980 O   0  0  0  0  0  0  0  0  0  0  0  0
  184.2620  177.9530  138.9800 C   0  0  2  0  0  3  0  0  0  0  0  0
  185.4100  178.8620  138.7550 C   0  0  2  0  0  3  0  0  0  0  0  0
  180.8230  176.6350  139.1600 C   0  0  1  0  0  3  0  0  0  0  0  0
  181.9930  178.8180  139.6020 C   0  0  0  0  0  2  0  0  0  0  0  0
  183.1250  177.4100  136.2580 N   0  0  0  0  0  1  0  0  0  0  0  0
  180.3810  175.3300  139.7870 C   0  0  0  0  0  1  0  0  0  0  0  0
  181.4900  177.5100  140.2190 C   0  0  0  0  0  2  0  0  0  0  0  0
  182.2640  177.6610  137.4010 C   0  0  2  0  0  3  0  0  0  0  0  0
  182.9600  178.5500  138.4440 C   0  0  2  0  0  3  0  0  0  0  0  0
  181.7900  176.3460  138.0150 C   0  0  0  0  0  2  0  0  0  0  0  0
  1  9  1  0  0  0  0
  1  6  1  0  0  0  0
  2  3  1  1  0  0  0
  2  5  1  0  0  0  0
  3  7  1  0  0  0  0
  4 11  1  1  0  0  0
  4  7  1  0  0  0  0
  5 14  1  0  0  0  0
  5 16  2  0  0  0  0
  8 12  1  1  0  0  0
 10 19  1  0  0  0  0
 10 18  1  0  0  0  0
 12 16  1  0  0  0  0
 13 18  1  6  0  0  0
 13  2  1  0  0  0  0
 13  8  1  0  0  0  0
 14  1  2  0  0  0  0
 15  4  1  0  0  0  0
 16 17  1  0  0  0  0
 17  6  2  0  0  0  0
 19  3  2  0  0  0  0
 20 15  1  0  0  0  0
 20 19  1  0  0  0  0
 22 21  1  1  0  0  0
 23  8  1  0  0  0  0
 23 22  1  0  0  0  0
 23 21  1  1  0  0  0
 24 27  1  1  0  0  0
 24 28  1  0  0  0  0
 25 28  1  0  0  0  0
 29 26  1  6  0  0  0
 29 31  1  0  0  0  0
 29 30  1  0  0  0  0
 30 22  1  0  0  0  0
 30 25  1  1  0  0  0
 31 24  1  0  0  0  0
M  END
>  <MODEL>
6

>  <REMARK>
 VINA RESULT:      -8.5      3.617      6.355
  Name = 
  2 active torsions:
  status: ('A' for Active; 'I' for Inactive)
    1  A    between atoms: C_5  and  C_30
    2  A    between atoms: C_10  and  C_16
                            x       y       z     vdW  Elec       q    Type
                         _______ _______ _______ _____ _____    ______ ____

>  <TORSDO>
F 2

$$$$
=
 OpenBabel11122411033D

 31 36  0  0  1  0  0  0  0  0999 V2000
  184.2500  179.3350  142.8230 C   0  0  0  0  0  0  0  0  0  0  0  0
  187.4370  178.7980  140.8190 C   0  0  2  0  0  3  0  0  0  0  0  0
  188.2910  177.8040  141.6100 C   0  0  0  0  0  0  0  0  0  0  0  0
  189.1490  177.1170  143.8930 C   0  0  1  0  0  3  0  0  0  0  0  0
  185.9780  178.7800  141.2080 C   0  0  0  0  0  0  0  0  0  0  0  0
  183.2950  178.7000  142.0250 C   0  0  0  0  0  3  0  0  0  0  0  0
  187.9510  177.5600  143.0680 C   0  0  0  0  0  2  0  0  0  0  0  0
  186.8250  177.4790  138.7470 C   0  0  2  0  0  3  0  0  0  0  0  0
  183.8820  179.9060  143.9950 F   0  0  0  0  0  0  0  0  0  0  0  0
  189.7350  177.3830  139.5970 C   0  0  0  0  0  2  0  0  0  0  0  0
  188.7230  176.7430  145.1660 O   0  0  0  0  0  1  0  0  0  0  0  0
  185.3300  177.6490  139.0190 C   0  0  0  0  0  2  0  0  0  0  0  0
  187.6130  178.6860  139.2950 C   0  0  2  0  0  3  0  0  0  0  0  0
  185.5840  179.3770  142.4130 C   0  0  0  0  0  3  0  0  0  0  0  0
  189.7910  175.9290  143.2040 C   0  0  0  0  0  2  0  0  0  0  0  0
  185.0080  178.1490  140.3980 C   0  0  0  0  0  0  0  0  0  0  0  0
  183.6720  178.1200  140.8120 C   0  0  0  0  0  3  0  0  0  0  0  0
  189.1050  178.6260  138.9780 C   0  0  0  0  0  2  0  0  0  0  0  0
  189.3860  177.2120  141.0510 C   0  0  0  0  0  0  0  0  0  0  0  0
  190.3510  176.3740  141.8570 C   0  0  0  0  0  2  0  0  0  0  0  0
  186.0560  176.3840  136.7740 O   0  0  0  0  0  0  0  0  0  0  0  0
  187.3710  175.9050  136.9170 C   0  0  2  0  0  3  0  0  0  0  0  0
  187.0120  177.3050  137.2430 C   0  0  2  0  0  3  0  0  0  0  0  0
  188.3840  172.9070  135.0230 C   0  0  1  0  0  3  0  0  0  0  0  0
  187.0740  175.0120  134.5940 C   0  0  0  0  0  2  0  0  0  0  0  0
  190.3220  175.8630  136.3760 N   0  0  0  0  0  1  0  0  0  0  0  0
  188.2780  171.4670  135.4770 C   0  0  0  0  0  1  0  0  0  0  0  0
  186.9940  173.5390  135.0010 C   0  0  0  0  0  2  0  0  0  0  0  0
  189.3880  175.1330  135.5360 C   0  0  2  0  0  3  0  0  0  0  0  0
  188.0020  175.7970  135.5280 C   0  0  2  0  0  3  0  0  0  0  0  0
  189.3060  173.6710  135.9700 C   0  0  0  0  0  2  0  0  0  0  0  0
  1  9  1  0  0  0  0
  2  5  1  6  0  0  0
  2  3  1  0  0  0  0
  3  7  1  0  0  0  0
  4 11  1  1  0  0  0
  5 14  2  0  0  0  0
  6  1  2  0  0  0  0
  7  4  1  0  0  0  0
  8 12  1  6  0  0  0
  8 13  1  0  0  0  0
 10 19  1  0  0  0  0
 12 16  1  0  0  0  0
 13 18  1  1  0  0  0
 13  2  1  0  0  0  0
 14  1  1  0  0  0  0
 15  4  1  0  0  0  0
 16 17  2  0  0  0  0
 16  5  1  0  0  0  0
 17  6  1  0  0  0  0
 18 10  1  0  0  0  0
 19  3  2  0  0  0  0
 19 20  1  0  0  0  0
 20 15  1  0  0  0  0
 22 21  1  6  0  0  0
 22 23  1  0  0  0  0
 23 21  1  6  0  0  0
 23  8  1  0  0  0  0
 24 27  1  1  0  0  0
 24 31  1  0  0  0  0
 25 28  1  0  0  0  0
 28 24  1  0  0  0  0
 29 31  1  0  0  0  0
 29 26  1  1  0  0  0
 30 25  1  6  0  0  0
 30 29  1  0  0  0  0
 30 22  1  0  0  0  0
M  END
>  <MODEL>
7

>  <REMARK>
 VINA RESULT:      -8.4      3.569      5.745
  Name = 
  2 active torsions:
  status: ('A' for Active; 'I' for Inactive)
    1  A    between atoms: C_5  and  C_30
    2  A    between atoms: C_10  and  C_16
                            x       y       z     vdW  Elec       q    Type
                         _______ _______ _______ _____ _____    ______ ____

>  <TORSDO>
F 2

$$$$
=
 OpenBabel11122411033D

 31 36  0  0  1  0  0  0  0  0999 V2000
  183.9130  178.6300  143.8390 C   0  0  0  0  0  0  0  0  0  0  0  0
  182.6610  177.9410  140.3150 C   0  0  2  0  0  3  0  0  0  0  0  0
  181.6310  179.0270  139.9940 C   0  0  0  0  0  0  0  0  0  0  0  0
  179.6650  180.3800  140.8450 C   0  0  1  0  0  3  0  0  0  0  0  0
  183.5830  178.3040  141.4540 C   0  0  0  0  0  0  0  0  0  0  0  0
  185.2230  179.0530  143.6050 C   0  0  0  0  0  3  0  0  0  0  0  0
  181.0540  179.8360  141.1400 C   0  0  0  0  0  2  0  0  0  0  0  0
  184.5490  178.4750  138.7150 C   0  0  2  0  0  3  0  0  0  0  0  0
  183.4310  178.5890  145.1040 F   0  0  0  0  0  0  0  0  0  0  0  0
  181.7500  178.4720  137.5460 C   0  0  0  0  0  2  0  0  0  0  0  0
  179.2820  181.2520  141.8620 O   0  0  0  0  0  1  0  0  0  0  0  0
  185.5460  178.6280  139.8640 C   0  0  0  0  0  2  0  0  0  0  0  0
  183.4510  177.4590  139.0860 C   0  0  2  0  0  3  0  0  0  0  0  0
  183.0980  178.2550  142.7680 C   0  0  0  0  0  3  0  0  0  0  0  0
  179.7150  181.1290  139.5280 C   0  0  0  0  0  2  0  0  0  0  0  0
  184.9120  178.7210  141.2210 C   0  0  0  0  0  0  0  0  0  0  0  0
  185.7230  179.0860  142.3010 C   0  0  0  0  0  3  0  0  0  0  0  0
  182.4690  177.1890  137.9480 C   0  0  0  0  0  2  0  0  0  0  0  0
  181.1730  179.2130  138.7220 C   0  0  0  0  0  0  0  0  0  0  0  0
  180.0260  180.1450  138.4050 C   0  0  0  0  0  2  0  0  0  0  0  0
  185.6620  176.6950  137.5890 O   0  0  0  0  0  0  0  0  0  0  0  0
  186.6940  177.6200  137.8260 C   0  0  2  0  0  3  0  0  0  0  0  0
  185.3240  178.0560  137.4700 C   0  0  2  0  0  3  0  0  0  0  0  0
  190.1140  176.2890  137.4610 C   0  0  1  0  0  3  0  0  0  0  0  0
  187.9480  176.2010  136.1840 C   0  0  0  0  0  2  0  0  0  0  0  0
  188.6820  179.7840  137.2180 N   0  0  0  0  0  1  0  0  0  0  0  0
  190.9400  175.6010  138.5260 C   0  0  0  0  0  1  0  0  0  0  0  0
  188.8280  175.5000  137.2220 C   0  0  0  0  0  2  0  0  0  0  0  0
  188.9330  178.4010  136.8520 C   0  0  2  0  0  3  0  0  0  0  0  0
  187.6220  177.6360  136.6100 C   0  0  2  0  0  3  0  0  0  0  0  0
  189.7950  177.7140  137.9080 C   0  0  0  0  0  2  0  0  0  0  0  0
  1  9  1  0  0  0  0
  2  3  1  6  0  0  0
  2  5  1  0  0  0  0
  3  7  1  0  0  0  0
  4  7  1  0  0  0  0
  4 11  1  1  0  0  0
  5 14  1  0  0  0  0
  6  1  1  0  0  0  0
  8 13  1  0  0  0  0
  8 12  1  1  0  0  0
 10 18  1  0  0  0  0
 10 19  1  0  0  0  0
 12 16  1  0  0  0  0
 13 18  1  6  0  0  0
 13  2  1  0  0  0  0
 14  1  2  0  0  0  0
 15  4  1  0  0  0  0
 16  5  2  0  0  0  0
 16 17  1  0  0  0  0
 17  6  2  0  0  0  0
 19  3  2  0  0  0  0
 20 19  1  0  0  0  0
 20 15  1  0  0  0  0
 22 21  1  6  0  0  0
 23 21  1  1  0  0  0
 23 22  1  0  0  0  0
 23  8  1  0  0  0  0
 24 31  1  0  0  0  0
 24 27  1  1  0  0  0
 25 28  1  0  0  0  0
 28 24  1  0  0  0  0
 29 26  1  1  0  0  0
 29 31  1  0  0  0  0
 30 25  1  1  0  0  0
 30 29  1  0  0  0  0
 30 22  1  0  0  0  0
M  END
>  <MODEL>
8

>  <REMARK>
 VINA RESULT:      -8.3      3.960      7.017
  Name = 
  2 active torsions:
  status: ('A' for Active; 'I' for Inactive)
    1  A    between atoms: C_5  and  C_30
    2  A    between atoms: C_10  and  C_16
                            x       y       z     vdW  Elec       q    Type
                         _______ _______ _______ _____ _____    ______ ____

>  <TORSDO>
F 2

$$$$
=
 OpenBabel11122411033D

 31 36  0  0  1  0  0  0  0  0999 V2000
  191.2830  177.2810  142.1190 C   0  0  0  0  0  0  0  0  0  0  0  0
  190.2350  177.8570  138.5090 C   0  0  2  0  0  3  0  0  0  0  0  0
  190.6940  176.6310  137.7170 C   0  0  0  0  0  0  0  0  0  0  0  0
  192.5570  174.9610  137.3160 C   0  0  1  0  0  3  0  0  0  0  0  0
  190.1480  177.6150  139.9970 C   0  0  0  0  0  0  0  0  0  0  0  0
  190.0540  177.0780  142.7500 C   0  0  0  0  0  3  0  0  0  0  0  0
  191.7240  175.7110  138.3440 C   0  0  0  0  0  2  0  0  0  0  0  0
  187.7120  177.6730  138.4060 C   0  0  2  0  0  3  0  0  0  0  0  0
  192.4310  177.2120  142.8350 F   0  0  0  0  0  0  0  0  0  0  0  0
  189.2020  177.2640  135.7960 C   0  0  0  0  0  2  0  0  0  0  0  0
  193.3470  174.0120  137.9630 O   0  0  0  0  0  1  0  0  0  0  0  0
  187.6020  177.6500  139.9310 C   0  0  0  0  0  2  0  0  0  0  0  0
  188.9420  178.4920  137.9680 C   0  0  2  0  0  3  0  0  0  0  0  0
  191.3290  177.5520  140.7490 C   0  0  0  0  0  3  0  0  0  0  0  0
  191.6160  174.2650  136.3530 C   0  0  0  0  0  2  0  0  0  0  0  0
  188.9050  177.4210  140.6390 C   0  0  0  0  0  0  0  0  0  0  0  0
  188.8690  177.1600  142.0130 C   0  0  0  0  0  3  0  0  0  0  0  0
  189.0640  178.6330  136.4520 C   0  0  0  0  0  2  0  0  0  0  0  0
  190.2590  176.4090  136.4430 C   0  0  0  0  0  0  0  0  0  0  0  0
  190.8340  175.3160  135.5720 C   0  0  0  0  0  2  0  0  0  0  0  0
  185.3720  177.9600  138.7530 O   0  0  0  0  0  0  0  0  0  0  0  0
  185.4300  177.1640  137.5960 C   0  0  2  0  0  3  0  0  0  0  0  0
  186.4120  178.2430  137.8490 C   0  0  2  0  0  3  0  0  0  0  0  0
  182.5210  175.3040  136.3000 C   0  0  1  0  0  3  0  0  0  0  0  0
  182.9670  177.5530  137.3360 C   0  0  0  0  0  2  0  0  0  0  0  0
  185.5270  176.8640  134.6120 N   0  0  0  0  0  1  0  0  0  0  0  0
  182.1550  173.8660  136.5990 C   0  0  0  0  0  1  0  0  0  0  0  0
  182.5510  176.1040  137.6000 C   0  0  0  0  0  2  0  0  0  0  0  0
  184.2710  176.8000  135.3380 C   0  0  2  0  0  3  0  0  0  0  0  0
  184.3290  177.6210  136.6360 C   0  0  2  0  0  3  0  0  0  0  0  0
  183.8830  175.3490  135.6110 C   0  0  0  0  0  2  0  0  0  0  0  0
  1  6  1  0  0  0  0
  1  9  1  0  0  0  0
  2  3  1  6  0  0  0
  2  5  1  0  0  0  0
  3  7  1  0  0  0  0
  4 11  1  1  0  0  0
  4  7  1  0  0  0  0
  5 16  2  0  0  0  0
  5 14  1  0  0  0  0
  8 12  1  1  0  0  0
 10 19  1  0  0  0  0
 10 18  1  0  0  0  0
 12 16  1  0  0  0  0
 13 18  1  6  0  0  0
 13  8  1  0  0  0  0
 13  2  1  0  0  0  0
 14  1  2  0  0  0  0
 15  4  1  0  0  0  0
 16 17  1  0  0  0  0
 17  6  2  0  0  0  0
 19  3  2  0  0  0  0
 20 15  1  0  0  0  0
 20 19  1  0  0  0  0
 22 23  1  0  0  0  0
 22 21  1  1  0  0  0
 23  8  1  0  0  0  0
 23 21  1  1  0  0  0
 24 27  1  1  0  0  0
 24 28  1  0  0  0  0
 25 28  1  0  0  0  0
 29 26  1  1  0  0  0
 29 31  1  0  0  0  0
 29 30  1  0  0  0  0
 30 25  1  1  0  0  0
 30 22  1  0  0  0  0
 31 24  1  0  0  0  0
M  END
>  <MODEL>
9

>  <REMARK>
 VINA RESULT:      -8.2      3.647      6.394
  Name = 
  2 active torsions:
  status: ('A' for Active; 'I' for Inactive)
    1  A    between atoms: C_5  and  C_30
    2  A    between atoms: C_10  and  C_16
                            x       y       z     vdW  Elec       q    Type
                         _______ _______ _______ _____ _____    ______ ____

>  <TORSDO>
F 2

$$$$
