=
 OpenBabel11122410273D

 30 35  0  0  1  0  0  0  0  0999 V2000
  186.0510  178.3380  141.7950 C   0  0  0  0  0  0  0  0  0  0  0  0
  183.5670  178.8150  141.8230 C   0  0  2  0  0  3  0  0  0  0  0  0
  186.4310  177.6010  145.8920 C   0  0  0  0  0  3  0  0  0  0  0  0
  187.2940  177.9610  142.4150 C   0  0  0  0  0  0  0  0  0  0  0  0
  186.0280  178.5200  140.4130 C   0  0  0  0  0  3  0  0  0  0  0  0
  189.4130  177.9350  139.5600 O   0  0  0  0  0  0  0  0  0  0  0  0
  190.1100  178.5620  143.3660 C   0  0  1  0  0  3  0  0  0  0  0  0
  188.3740  178.0480  140.2720 C   0  0  0  0  0  0  0  0  0  0  0  0
  189.5640  178.0420  144.6120 N   0  0  0  0  0  0  0  0  0  0  0  0
  187.6940  177.2040  145.9840 C   0  0  0  0  0  0  0  0  0  0  0  0
  187.1720  178.3660  139.6450 C   0  0  0  0  0  0  0  0  0  0  0  0
  188.4400  177.8680  141.6320 N   0  0  0  0  0  0  0  0  0  0  0  0
  182.5210  179.3320  142.7760 C   0  0  0  0  0  3  0  0  0  0  0  0
  190.6310  177.8940  145.5350 C   0  0  0  0  0  3  0  0  0  0  0  0
  191.6140  178.6770  143.5980 C   0  0  0  0  0  2  0  0  0  0  0  0
  183.0340  177.5590  141.1550 C   0  0  0  0  0  1  0  0  0  0  0  0
  186.1380  177.9170  144.5440 N   0  0  0  0  0  0  0  0  0  0  0  0
  182.6500  179.2460  144.1040 C   0  0  0  0  0  3  0  0  0  0  0  0
  184.8960  178.5170  142.5000 C   0  0  0  0  0  0  0  0  0  0  0  0
  187.2960  177.7140  143.7580 C   0  0  0  0  0  0  0  0  0  0  0  0
  188.2890  176.7130  147.2570 C   0  0  0  0  0  1  0  0  0  0  0  0
  188.3860  177.1770  144.6410 C   0  0  1  0  0  3  0  0  0  0  0  0
  191.7870  178.2570  145.0180 C   0  0  0  0  0  3  0  0  0  0  0  0
  190.0940  176.1660  142.3850 C   0  0  0  0  0  1  0  0  0  0  0  0
  183.8690  178.7000  144.7190 C   0  0  0  0  0  3  0  0  0  0  0  0
  184.9190  178.3620  143.9680 C   0  0  0  0  0  0  0  0  0  0  0  0
  189.7910  177.6470  142.1770 C   0  0  2  0  0  3  0  0  0  0  0  0
  187.1310  178.5380  138.2580 O   0  0  0  0  0  0  0  0  0  0  0  0
  186.9560  176.5770  137.1260 C   0  0  0  0  0  1  0  0  0  0  0  0
  186.2710  177.8110  137.4650 N   0  0  0  0  0  2  0  0  0  0  0  0
  1  4  1  0  0  0  0
  1 19  2  0  0  0  0
  2 16  1  1  0  0  0
  2 19  1  0  0  0  0
  2 13  1  0  0  0  0
  3 10  2  0  0  0  0
  4 20  2  0  0  0  0
  5  1  1  0  0  0  0
  6  8  2  0  0  0  0
  7 15  1  1  0  0  0
  7  9  1  0  0  0  0
  8 12  1  0  0  0  0
  9 22  1  0  0  0  0
  9 14  1  0  0  0  0
 10 21  1  0  0  0  0
 11  8  1  0  0  0  0
 11  5  2  0  0  0  0
 12 27  1  0  0  0  0
 12  4  1  0  0  0  0
 13 18  2  0  0  0  0
 15 23  1  0  0  0  0
 17  3  1  0  0  0  0
 18 25  1  0  0  0  0
 19 26  1  0  0  0  0
 20 17  1  0  0  0  0
 22 20  1  6  0  0  0
 22 10  1  0  0  0  0
 23 14  2  0  0  0  0
 26 17  1  0  0  0  0
 26 25  2  0  0  0  0
 27 24  1  1  0  0  0
 27  7  1  0  0  0  0
 28 11  1  0  0  0  0
 29 30  1  0  0  0  0
 30 28  1  0  0  0  0
M  END
>  <MODEL>
1

>  <REMARK>
 VINA RESULT:      -9.6      0.000      0.000
  Name = 
  2 active torsions:
  status: ('A' for Active; 'I' for Inactive)
    1  A    between atoms: C_11  and  O_28
    2  A    between atoms: O_28  and  N_30
                            x       y       z     vdW  Elec       q    Type
                         _______ _______ _______ _____ _____    ______ ____

>  <TORSDO>
F 2

$$$$
=
 OpenBabel11122410273D

 30 35  0  0  1  0  0  0  0  0999 V2000
  187.4960  178.0850  139.8790 C   0  0  0  0  0  0  0  0  0  0  0  0
  185.3960  178.6930  138.6060 C   0  0  2  0  0  3  0  0  0  0  0  0
  185.7470  178.0550  143.6760 C   0  0  0  0  0  3  0  0  0  0  0  0
  188.2220  177.7560  141.0770 C   0  0  0  0  0  0  0  0  0  0  0  0
  188.1680  178.0250  138.6590 C   0  0  0  0  0  3  0  0  0  0  0  0
  191.4310  177.1190  139.6870 O   0  0  0  0  0  0  0  0  0  0  0  0
  190.2790  178.3620  143.2210 C   0  0  1  0  0  3  0  0  0  0  0  0
  190.2030  177.4090  139.7660 C   0  0  0  0  0  0  0  0  0  0  0  0
  189.1350  178.0980  144.0830 N   0  0  0  0  0  0  0  0  0  0  0  0
  186.7430  177.6130  144.4330 C   0  0  0  0  0  0  0  0  0  0  0  0
  189.5070  177.6780  138.5890 C   0  0  0  0  0  0  0  0  0  0  0  0
  189.5780  177.4670  140.9880 N   0  0  0  0  0  0  0  0  0  0  0  0
  184.0980  179.4240  138.8380 C   0  0  0  0  0  3  0  0  0  0  0  0
  189.5930  178.0550  145.4250 C   0  0  0  0  0  3  0  0  0  0  0  0
  191.4840  178.4340  144.1550 C   0  0  0  0  0  2  0  0  0  0  0  0
  185.0890  177.3700  137.9240 C   0  0  0  0  0  1  0  0  0  0  0  0
  186.1860  178.1470  142.3330 N   0  0  0  0  0  0  0  0  0  0  0  0
  183.5570  179.5640  140.0520 C   0  0  0  0  0  3  0  0  0  0  0  0
  186.1790  178.4460  139.8860 C   0  0  0  0  0  0  0  0  0  0  0  0
  187.5410  177.7470  142.2620 C   0  0  0  0  0  0  0  0  0  0  0  0
  186.5780  177.3200  145.8830 C   0  0  0  0  0  1  0  0  0  0  0  0
  187.9860  177.3150  143.6300 C   0  0  1  0  0  3  0  0  0  0  0  0
  190.8920  178.2600  145.5120 C   0  0  0  0  0  3  0  0  0  0  0  0
  190.4210  175.8350  142.6710 C   0  0  0  0  0  1  0  0  0  0  0  0
  184.2420  179.0690  141.2560 C   0  0  0  0  0  3  0  0  0  0  0  0
  185.4690  178.5490  141.1770 C   0  0  0  0  0  0  0  0  0  0  0  0
  190.4550  177.2720  142.1570 C   0  0  2  0  0  3  0  0  0  0  0  0
  190.1660  177.6070  137.3570 O   0  0  0  0  0  0  0  0  0  0  0  0
  189.4710  177.1320  135.2490 C   0  0  0  0  0  1  0  0  0  0  0  0
  189.9600  176.5580  136.4880 N   0  0  0  0  0  2  0  0  0  0  0  0
  1 19  2  0  0  0  0
  1  4  1  0  0  0  0
  2 16  1  1  0  0  0
  2 13  1  0  0  0  0
  2 19  1  0  0  0  0
  3 10  2  0  0  0  0
  4 20  2  0  0  0  0
  5  1  1  0  0  0  0
  6  8  2  0  0  0  0
  7  9  1  0  0  0  0
  7 15  1  1  0  0  0
  8 12  1  0  0  0  0
  9 14  1  0  0  0  0
 10 21  1  0  0  0  0
 11  5  2  0  0  0  0
 11  8  1  0  0  0  0
 12  4  1  0  0  0  0
 12 27  1  0  0  0  0
 13 18  2  0  0  0  0
 14 23  2  0  0  0  0
 15 23  1  0  0  0  0
 17  3  1  0  0  0  0
 18 25  1  0  0  0  0
 19 26  1  0  0  0  0
 20 17  1  0  0  0  0
 22 20  1  6  0  0  0
 22  9  1  0  0  0  0
 22 10  1  0  0  0  0
 26 25  2  0  0  0  0
 26 17  1  0  0  0  0
 27 24  1  1  0  0  0
 27  7  1  0  0  0  0
 28 11  1  0  0  0  0
 29 30  1  0  0  0  0
 30 28  1  0  0  0  0
M  END
>  <MODEL>
2

>  <REMARK>
 VINA RESULT:      -8.6      1.687      2.520
  Name = 
  2 active torsions:
  status: ('A' for Active; 'I' for Inactive)
    1  A    between atoms: C_11  and  O_28
    2  A    between atoms: O_28  and  N_30
                            x       y       z     vdW  Elec       q    Type
                         _______ _______ _______ _____ _____    ______ ____

>  <TORSDO>
F 2

$$$$
=
 OpenBabel11122410273D

 30 35  0  0  1  0  0  0  0  0999 V2000
  187.7870  177.9990  142.1020 C   0  0  0  0  0  0  0  0  0  0  0  0
  189.4190  177.6410  144.0010 C   0  0  2  0  0  3  0  0  0  0  0  0
  184.3960  178.5130  144.4920 C   0  0  0  0  0  3  0  0  0  0  0  0
  186.4820  178.2850  141.5660 C   0  0  0  0  0  0  0  0  0  0  0  0
  188.8580  177.8870  141.2160 C   0  0  0  0  0  3  0  0  0  0  0  0
  187.2530  178.3500  138.0960 O   0  0  0  0  0  0  0  0  0  0  0  0
  183.9690  177.5030  140.0600 C   0  0  1  0  0  3  0  0  0  0  0  0
  187.4020  178.2530  139.3470 C   0  0  0  0  0  0  0  0  0  0  0  0
  183.3500  177.9860  141.2860 N   0  0  0  0  0  0  0  0  0  0  0  0
  183.4760  178.8440  143.5950 C   0  0  0  0  0  0  0  0  0  0  0  0
  188.6810  178.0240  139.8490 C   0  0  0  0  0  0  0  0  0  0  0  0
  186.3200  178.3620  140.1870 N   0  0  0  0  0  0  0  0  0  0  0  0
  189.4180  177.1280  145.4180 C   0  0  0  0  0  3  0  0  0  0  0  0
  181.9460  178.0380  141.0820 C   0  0  0  0  0  3  0  0  0  0  0  0
  182.8210  177.3050  139.0740 C   0  0  0  0  0  2  0  0  0  0  0  0
  190.1850  178.9530  143.9640 C   0  0  0  0  0  1  0  0  0  0  0  0
  185.6270  178.2780  143.8330 N   0  0  0  0  0  0  0  0  0  0  0  0
  188.3260  177.1420  146.1890 C   0  0  0  0  0  3  0  0  0  0  0  0
  188.0210  177.8410  143.4370 C   0  0  0  0  0  0  0  0  0  0  0  0
  185.4510  178.4650  142.4420 C   0  0  0  0  0  0  0  0  0  0  0  0
  182.0930  179.2430  143.9750 C   0  0  0  0  0  1  0  0  0  0  0  0
  184.0360  178.9050  142.1930 C   0  0  1  0  0  3  0  0  0  0  0  0
  181.6080  177.6460  139.8710 C   0  0  0  0  0  3  0  0  0  0  0  0
  184.5550  179.9430  139.4210 C   0  0  0  0  0  1  0  0  0  0  0  0
  187.0280  177.5980  145.6670 C   0  0  0  0  0  3  0  0  0  0  0  0
  186.8870  177.9210  144.3800 C   0  0  0  0  0  0  0  0  0  0  0  0
  185.0120  178.4900  139.5200 C   0  0  2  0  0  3  0  0  0  0  0  0
  189.7660  177.9230  138.9720 O   0  0  0  0  0  0  0  0  0  0  0  0
  190.1360  175.9220  137.9660 C   0  0  0  0  0  1  0  0  0  0  0  0
  190.6100  176.8340  138.9900 N   0  0  0  0  0  2  0  0  0  0  0  0
  1 19  2  0  0  0  0
  2 16  1  1  0  0  0
  2 13  1  0  0  0  0
  4  1  1  0  0  0  0
  4 20  2  0  0  0  0
  5  1  1  0  0  0  0
  6  8  2  0  0  0  0
  7 15  1  6  0  0  0
  7  9  1  0  0  0  0
  8 11  1  0  0  0  0
  8 12  1  0  0  0  0
  9 22  1  0  0  0  0
 10 21  1  0  0  0  0
 10  3  2  0  0  0  0
 11  5  2  0  0  0  0
 12  4  1  0  0  0  0
 13 18  2  0  0  0  0
 14  9  1  0  0  0  0
 15 23  1  0  0  0  0
 17 26  1  0  0  0  0
 17  3  1  0  0  0  0
 19  2  1  0  0  0  0
 19 26  1  0  0  0  0
 20 17  1  0  0  0  0
 22 20  1  1  0  0  0
 22 10  1  0  0  0  0
 23 14  2  0  0  0  0
 25 18  1  0  0  0  0
 26 25  2  0  0  0  0
 27 24  1  1  0  0  0
 27  7  1  0  0  0  0
 27 12  1  0  0  0  0
 28 30  1  0  0  0  0
 28 11  1  0  0  0  0
 29 30  1  0  0  0  0
M  END
>  <MODEL>
3

>  <REMARK>
 VINA RESULT:      -8.6      1.632      5.581
  Name = 
  2 active torsions:
  status: ('A' for Active; 'I' for Inactive)
    1  A    between atoms: C_11  and  O_28
    2  A    between atoms: O_28  and  N_30
                            x       y       z     vdW  Elec       q    Type
                         _______ _______ _______ _____ _____    ______ ____

>  <TORSDO>
F 2

$$$$
=
 OpenBabel11122410273D

 30 35  0  0  1  0  0  0  0  0999 V2000
  188.0680  178.1220  141.1480 C   0  0  0  0  0  0  0  0  0  0  0  0
  189.2040  178.2770  143.4020 C   0  0  0  0  0  0  0  0  0  0  0  0
  191.2820  176.3780  139.1240 C   0  0  0  0  0  3  0  0  0  0  0  0
  188.0120  177.7450  139.7600 C   0  0  0  0  0  0  0  0  0  0  0  0
  186.9230  178.6600  141.7350 C   0  0  0  0  0  3  0  0  0  0  0  0
  184.6820  178.7260  138.9960 O   0  0  0  0  0  0  0  0  0  0  0  0
  187.9130  178.4020  136.8020 C   0  0  1  0  0  3  0  0  0  0  0  0
  185.7430  178.5230  139.6520 C   0  0  0  0  0  0  0  0  0  0  0  0
  189.0640  177.5100  136.7900 N   0  0  0  0  0  0  0  0  0  0  0  0
  190.7520  176.1230  137.9340 C   0  0  0  0  0  0  0  0  0  0  0  0
  185.7600  178.8510  141.0060 C   0  0  0  0  0  0  0  0  0  0  0  0
  186.8530  177.9990  139.0360 N   0  0  0  0  0  0  0  0  0  0  0  0
  190.5970  178.3960  143.9670 C   0  0  0  0  0  3  0  0  0  0  0  0
  189.4090  177.2500  135.4390 C   0  0  0  0  0  3  0  0  0  0  0  0
  187.5590  178.6280  135.3340 C   0  0  0  0  0  2  0  0  0  0  0  0
  188.4660  177.1890  144.1630 C   0  0  0  0  0  1  0  0  0  0  0  0
  190.3120  177.0030  139.9440 N   0  0  0  0  0  0  0  0  0  0  0  0
  191.6800  177.9780  143.3060 C   0  0  0  0  0  3  0  0  0  0  0  0
  189.1880  177.9700  141.9130 C   0  0  0  0  0  0  0  0  0  0  0  0
  189.1130  177.1530  139.2090 C   0  0  0  0  0  0  0  0  0  0  0  0
  191.4880  175.3870  136.8700 C   0  0  0  0  0  1  0  0  0  0  0  0
  189.3010  176.5340  137.8530 C   0  0  1  0  0  3  0  0  0  0  0  0
  188.6090  177.8710  134.5950 C   0  0  0  0  0  3  0  0  0  0  0  0
  186.3680  176.3660  137.2190 C   0  0  0  0  0  1  0  0  0  0  0  0
  191.5810  177.4360  141.9410 C   0  0  0  0  0  3  0  0  0  0  0  0
  190.4160  177.4370  141.2910 C   0  0  2  0  0  3  0  0  0  0  0  0
  186.7350  177.8030  137.5800 C   0  0  2  0  0  3  0  0  0  0  0  0
  184.6140  179.3780  141.6110 O   0  0  0  0  0  0  0  0  0  0  0  0
  183.7750  179.0010  143.6870 C   0  0  0  0  0  1  0  0  0  0  0  0
  183.7290  178.5780  142.3000 N   0  0  0  0  0  2  0  0  0  0  0  0
  1  5  1  0  0  0  0
  1 19  2  0  0  0  0
  2 13  2  0  0  0  0
  2 16  1  0  0  0  0
  3 17  1  0  0  0  0
  4  1  1  0  0  0  0
  6  8  2  0  0  0  0
  7 15  1  6  0  0  0
  7 27  1  0  0  0  0
  8 11  1  0  0  0  0
  9  7  1  0  0  0  0
  9 22  1  0  0  0  0
 10  3  2  0  0  0  0
 11 28  1  0  0  0  0
 11  5  2  0  0  0  0
 12  8  1  0  0  0  0
 12  4  1  0  0  0  0
 14  9  1  0  0  0  0
 17 26  1  0  0  0  0
 18 13  1  0  0  0  0
 19  2  1  0  0  0  0
 20  4  2  0  0  0  0
 20 17  1  0  0  0  0
 21 10  1  0  0  0  0
 22 10  1  1  0  0  0
 22 20  1  0  0  0  0
 23 15  1  0  0  0  0
 23 14  2  0  0  0  0
 25 18  2  0  0  0  0
 26 19  1  0  0  0  0
 26 25  1  6  0  0  0
 27 24  1  1  0  0  0
 27 12  1  0  0  0  0
 28 30  1  0  0  0  0
 30 29  1  0  0  0  0
M  END
>  <MODEL>
4

>  <REMARK>
 VINA RESULT:      -7.9      2.297      6.789
  Name = 
  2 active torsions:
  status: ('A' for Active; 'I' for Inactive)
    1  A    between atoms: C_11  and  O_28
    2  A    between atoms: O_28  and  N_30
                            x       y       z     vdW  Elec       q    Type
                         _______ _______ _______ _____ _____    ______ ____

>  <TORSDO>
F 2

$$$$
=
 OpenBabel11122410273D

 30 35  0  0  1  0  0  0  0  0999 V2000
  189.0760  177.5350  140.8730 C   0  0  0  0  0  0  0  0  0  0  0  0
  189.6940  177.4710  143.3250 C   0  0  0  0  0  0  0  0  0  0  0  0
  185.0920  178.6740  141.4250 C   0  0  0  0  0  3  0  0  0  0  0  0
  188.1680  177.7770  139.7820 C   0  0  0  0  0  0  0  0  0  0  0  0
  190.3960  177.1990  140.5740 C   0  0  0  0  0  3  0  0  0  0  0  0
  190.3310  177.1280  137.0360 O   0  0  0  0  0  0  0  0  0  0  0  0
  186.4460  176.8450  137.4680 C   0  0  1  0  0  3  0  0  0  0  0  0
  189.9240  177.2680  138.2250 C   0  0  0  0  0  0  0  0  0  0  0  0
  185.4360  177.5880  138.2080 N   0  0  0  0  0  0  0  0  0  0  0  0
  184.6870  178.8700  140.1770 C   0  0  0  0  0  0  0  0  0  0  0  0
  190.8320  177.0770  139.2640 C   0  0  0  0  0  0  0  0  0  0  0  0
  188.6140  177.5920  138.4780 N   0  0  0  0  0  0  0  0  0  0  0  0
  189.0290  177.2440  144.6580 C   0  0  0  0  0  3  0  0  0  0  0  0
  184.2690  177.6690  137.4050 C   0  0  0  0  0  3  0  0  0  0  0  0
  185.8050  176.5180  136.1210 C   0  0  0  0  0  2  0  0  0  0  0  0
  190.5680  178.7100  143.4260 C   0  0  0  0  0  1  0  0  0  0  0  0
  186.4450  178.2540  141.4170 N   0  0  0  0  0  0  0  0  0  0  0  0
  187.7260  177.4620  144.8600 C   0  0  0  0  0  3  0  0  0  0  0  0
  188.7030  177.6280  142.1820 C   0  0  0  0  0  0  0  0  0  0  0  0
  186.8960  178.1760  140.0790 C   0  0  0  0  0  0  0  0  0  0  0  0
  183.3380  179.4050  139.8470 C   0  0  0  0  0  1  0  0  0  0  0  0
  185.7880  178.6290  139.1720 C   0  0  1  0  0  3  0  0  0  0  0  0
  184.4240  177.0670  136.2430 C   0  0  0  0  0  3  0  0  0  0  0  0
  187.5580  179.0820  136.7840 C   0  0  0  0  0  1  0  0  0  0  0  0
  186.8410  177.8730  143.7590 C   0  0  0  0  0  3  0  0  0  0  0  0
  187.2980  177.9470  142.5080 C   0  0  2  0  0  3  0  0  0  0  0  0
  187.7370  177.6550  137.2950 C   0  0  2  0  0  3  0  0  0  0  0  0
  192.1620  176.7530  138.9790 O   0  0  0  0  0  0  0  0  0  0  0  0
  193.5560  175.8990  137.4030 C   0  0  0  0  0  1  0  0  0  0  0  0
  192.4980  175.5780  138.3430 N   0  0  0  0  0  2  0  0  0  0  0  0
  1 19  2  0  0  0  0
  2 16  1  0  0  0  0
  2 13  2  0  0  0  0
  4 20  2  0  0  0  0
  4  1  1  0  0  0  0
  5  1  1  0  0  0  0
  6  8  2  0  0  0  0
  7 15  1  6  0  0  0
  7  9  1  0  0  0  0
  8 12  1  0  0  0  0
  8 11  1  0  0  0  0
  9 22  1  0  0  0  0
 10  3  2  0  0  0  0
 11  5  2  0  0  0  0
 12  4  1  0  0  0  0
 13 18  1  0  0  0  0
 14  9  1  0  0  0  0
 15 23  1  0  0  0  0
 17  3  1  0  0  0  0
 17 26  1  0  0  0  0
 19 26  1  0  0  0  0
 19  2  1  0  0  0  0
 20 17  1  0  0  0  0
 21 10  1  0  0  0  0
 22 20  1  1  0  0  0
 22 10  1  0  0  0  0
 23 14  2  0  0  0  0
 25 18  2  0  0  0  0
 26 25  1  6  0  0  0
 27 24  1  1  0  0  0
 27  7  1  0  0  0  0
 27 12  1  0  0  0  0
 28 11  1  0  0  0  0
 29 30  1  0  0  0  0
 30 28  1  0  0  0  0
M  END
>  <MODEL>
5

>  <REMARK>
 VINA RESULT:      -7.7      2.302      6.193
  Name = 
  2 active torsions:
  status: ('A' for Active; 'I' for Inactive)
    1  A    between atoms: C_11  and  O_28
    2  A    between atoms: O_28  and  N_30
                            x       y       z     vdW  Elec       q    Type
                         _______ _______ _______ _____ _____    ______ ____

>  <TORSDO>
F 2

$$$$
=
 OpenBabel11122410273D

 30 35  0  0  1  0  0  0  0  0999 V2000
  184.9610  178.5400  142.3400 C   0  0  0  0  0  0  0  0  0  0  0  0
  187.4690  178.2530  142.4930 C   0  0  0  0  0  0  0  0  0  0  0  0
  184.6800  178.0030  138.2040 C   0  0  0  0  0  3  0  0  0  0  0  0
  183.7110  178.5590  141.6270 C   0  0  0  0  0  0  0  0  0  0  0  0
  184.9360  178.6890  143.7260 C   0  0  0  0  0  3  0  0  0  0  0  0
  181.4770  179.1310  144.3330 O   0  0  0  0  0  0  0  0  0  0  0  0
  181.2790  179.9870  140.5130 C   0  0  1  0  0  3  0  0  0  0  0  0
  182.5520  178.9370  143.6960 C   0  0  0  0  0  0  0  0  0  0  0  0
  181.7360  179.3440  139.2890 N   0  0  0  0  0  0  0  0  0  0  0  0
  183.3670  178.0030  138.0160 C   0  0  0  0  0  0  0  0  0  0  0  0
  183.7450  178.8740  144.4110 C   0  0  0  0  0  0  0  0  0  0  0  0
  182.5360  178.8030  142.3290 N   0  0  0  0  0  0  0  0  0  0  0  0
  188.6890  178.4460  141.6290 C   0  0  0  0  0  3  0  0  0  0  0  0
  180.7430  179.5330  138.2930 C   0  0  0  0  0  3  0  0  0  0  0  0
  179.8970  180.5490  140.1870 C   0  0  0  0  0  2  0  0  0  0  0  0
  187.5560  176.8860  143.1510 C   0  0  0  0  0  1  0  0  0  0  0  0
  184.9550  178.2000  139.5790 N   0  0  0  0  0  0  0  0  0  0  0  0
  188.6380  178.4200  140.2940 C   0  0  0  0  0  3  0  0  0  0  0  0
  186.1650  178.3740  141.7190 C   0  0  0  0  0  0  0  0  0  0  0  0
  183.7340  178.3410  140.2790 C   0  0  0  0  0  0  0  0  0  0  0  0
  182.7470  177.7280  136.6900 C   0  0  0  0  0  1  0  0  0  0  0  0
  182.6020  178.1660  139.3080 C   0  0  1  0  0  3  0  0  0  0  0  0
  179.7120  180.2180  138.7450 C   0  0  0  0  0  3  0  0  0  0  0  0
  180.5100  177.6830  141.4110 C   0  0  0  0  0  1  0  0  0  0  0  0
  187.3600  178.2700  139.5800 C   0  0  0  0  0  3  0  0  0  0  0  0
  186.2050  178.2530  140.2480 C   0  0  2  0  0  3  0  0  0  0  0  0
  181.2230  179.0030  141.6880 C   0  0  2  0  0  3  0  0  0  0  0  0
  183.7330  179.0080  145.8030 O   0  0  0  0  0  0  0  0  0  0  0  0
  185.6800  179.0940  146.9670 C   0  0  0  0  0  1  0  0  0  0  0  0
  184.5560  178.2510  146.6080 N   0  0  0  0  0  2  0  0  0  0  0  0
  1  5  1  0  0  0  0
  2 16  1  0  0  0  0
  3 17  1  0  0  0  0
  4 12  1  0  0  0  0
  4  1  1  0  0  0  0
  5 11  2  0  0  0  0
  7 15  1  6  0  0  0
  7 27  1  0  0  0  0
  8  6  2  0  0  0  0
  8 11  1  0  0  0  0
  9 22  1  0  0  0  0
  9  7  1  0  0  0  0
 10  3  2  0  0  0  0
 11 28  1  0  0  0  0
 12  8  1  0  0  0  0
 13  2  2  0  0  0  0
 14 23  2  0  0  0  0
 14  9  1  0  0  0  0
 17 26  1  0  0  0  0
 17 20  1  0  0  0  0
 18 13  1  0  0  0  0
 19  1  2  0  0  0  0
 19  2  1  0  0  0  0
 20  4  2  0  0  0  0
 21 10  1  0  0  0  0
 22 10  1  6  0  0  0
 22 20  1  0  0  0  0
 23 15  1  0  0  0  0
 25 18  2  0  0  0  0
 26 25  1  6  0  0  0
 26 19  1  0  0  0  0
 27 24  1  6  0  0  0
 27 12  1  0  0  0  0
 28 30  1  0  0  0  0
 30 29  1  0  0  0  0
M  END
>  <MODEL>
6

>  <REMARK>
 VINA RESULT:      -7.5      3.264      8.017
  Name = 
  2 active torsions:
  status: ('A' for Active; 'I' for Inactive)
    1  A    between atoms: C_11  and  O_28
    2  A    between atoms: O_28  and  N_30
                            x       y       z     vdW  Elec       q    Type
                         _______ _______ _______ _____ _____    ______ ____

>  <TORSDO>
F 2

$$$$
=
 OpenBabel11122410273D

 30 35  0  0  1  0  0  0  0  0999 V2000
  187.1220  177.9250  141.7690 C   0  0  0  0  0  0  0  0  0  0  0  0
  188.8730  177.5850  143.5620 C   0  0  2  0  0  3  0  0  0  0  0  0
  183.9330  178.6740  144.3650 C   0  0  0  0  0  3  0  0  0  0  0  0
  185.7930  178.2390  141.3130 C   0  0  0  0  0  0  0  0  0  0  0  0
  188.1220  177.7330  140.8150 C   0  0  0  0  0  3  0  0  0  0  0  0
  186.3140  178.1240  137.7980 O   0  0  0  0  0  0  0  0  0  0  0  0
  183.1520  177.4920  140.0250 C   0  0  1  0  0  3  0  0  0  0  0  0
  186.5490  178.0750  139.0390 C   0  0  0  0  0  0  0  0  0  0  0  0
  182.6400  178.0520  141.2680 N   0  0  0  0  0  0  0  0  0  0  0  0
  182.9630  179.0020  143.5210 C   0  0  0  0  0  0  0  0  0  0  0  0
  187.8520  177.8180  139.4590 C   0  0  0  0  0  0  0  0  0  0  0  0
  185.5350  178.2620  139.9470 N   0  0  0  0  0  0  0  0  0  0  0  0
  188.9550  177.1340  144.9980 C   0  0  0  0  0  3  0  0  0  0  0  0
  181.2280  178.1490  141.1610 C   0  0  0  0  0  3  0  0  0  0  0  0
  181.9290  177.2970  139.1320 C   0  0  0  0  0  2  0  0  0  0  0  0
  189.6810  178.8630  143.4110 C   0  0  0  0  0  1  0  0  0  0  0  0
  185.1040  178.3630  143.6320 N   0  0  0  0  0  0  0  0  0  0  0  0
  187.9230  177.2240  145.8420 C   0  0  0  0  0  3  0  0  0  0  0  0
  187.4450  177.8160  143.0900 C   0  0  0  0  0  0  0  0  0  0  0  0
  184.8340  178.4970  142.2510 C   0  0  0  0  0  0  0  0  0  0  0  0
  181.6260  179.4710  143.9790 C   0  0  0  0  0  1  0  0  0  0  0  0
  183.4220  178.9800  142.0820 C   0  0  1  0  0  3  0  0  0  0  0  0
  180.7890  177.7190  139.9960 C   0  0  0  0  0  3  0  0  0  0  0  0
  183.7780  179.8780  139.2350 C   0  0  0  0  0  1  0  0  0  0  0  0
  186.6080  177.7080  145.3930 C   0  0  0  0  0  3  0  0  0  0  0  0
  186.3860  177.9810  144.1050 C   0  0  0  0  0  0  0  0  0  0  0  0
  184.1870  178.4140  139.3690 C   0  0  2  0  0  3  0  0  0  0  0  0
  188.8670  177.6370  138.5140 O   0  0  0  0  0  0  0  0  0  0  0  0
  189.0580  179.3770  137.0690 C   0  0  0  0  0  1  0  0  0  0  0  0
  189.7090  178.6660  138.1530 N   0  0  0  0  0  2  0  0  0  0  0  0
  1 19  2  0  0  0  0
  2 16  1  1  0  0  0
  2 13  1  0  0  0  0
  4  1  1  0  0  0  0
  4 20  2  0  0  0  0
  5  1  1  0  0  0  0
  6  8  2  0  0  0  0
  7 15  1  6  0  0  0
  7  9  1  0  0  0  0
  8 11  1  0  0  0  0
  8 12  1  0  0  0  0
  9 22  1  0  0  0  0
 10 21  1  0  0  0  0
 10  3  2  0  0  0  0
 11  5  2  0  0  0  0
 12  4  1  0  0  0  0
 13 18  2  0  0  0  0
 14  9  1  0  0  0  0
 15 23  1  0  0  0  0
 17 26  1  0  0  0  0
 17  3  1  0  0  0  0
 19  2  1  0  0  0  0
 19 26  1  0  0  0  0
 20 17  1  0  0  0  0
 22 20  1  1  0  0  0
 22 10  1  0  0  0  0
 23 14  2  0  0  0  0
 25 18  1  0  0  0  0
 26 25  2  0  0  0  0
 27 24  1  1  0  0  0
 27 12  1  0  0  0  0
 27  7  1  0  0  0  0
 28 11  1  0  0  0  0
 29 30  1  0  0  0  0
 30 28  1  0  0  0  0
M  END
>  <MODEL>
7

>  <REMARK>
 VINA RESULT:      -7.1      1.796      5.774
  Name = 
  2 active torsions:
  status: ('A' for Active; 'I' for Inactive)
    1  A    between atoms: C_11  and  O_28
    2  A    between atoms: O_28  and  N_30
                            x       y       z     vdW  Elec       q    Type
                         _______ _______ _______ _____ _____    ______ ____

>  <TORSDO>
F 2

$$$$
=
 OpenBabel11122410273D

 30 35  0  0  1  0  0  0  0  0999 V2000
  188.1080  177.5380  142.9280 C   0  0  0  0  0  0  0  0  0  0  0  0
  187.3830  177.5730  145.3510 C   0  0  0  0  0  0  0  0  0  0  0  0
  184.5460  179.0580  141.3530 C   0  0  0  0  0  3  0  0  0  0  0  0
  187.9120  177.7900  141.5250 C   0  0  0  0  0  0  0  0  0  0  0  0
  189.3510  177.0670  143.3510 C   0  0  0  0  0  3  0  0  0  0  0  0
  191.0850  176.7810  140.2790 O   0  0  0  0  0  0  0  0  0  0  0  0
  187.5160  176.8710  138.6630 C   0  0  1  0  0  3  0  0  0  0  0  0
  190.1490  177.0310  141.0900 C   0  0  0  0  0  0  0  0  0  0  0  0
  186.3570  177.7460  138.7750 N   0  0  0  0  0  0  0  0  0  0  0  0
  184.8560  179.2110  140.0720 C   0  0  0  0  0  0  0  0  0  0  0  0
  190.3750  176.8250  142.4490 C   0  0  0  0  0  0  0  0  0  0  0  0
  188.9350  177.4850  140.6340 N   0  0  0  0  0  0  0  0  0  0  0  0
  186.1120  177.4890  146.1580 C   0  0  0  0  0  3  0  0  0  0  0  0
  185.7770  177.8800  137.4870 C   0  0  0  0  0  3  0  0  0  0  0  0
  187.6170  176.5190  137.1810 C   0  0  0  0  0  2  0  0  0  0  0  0
  188.2110  178.7330  145.8750 C   0  0  0  0  0  1  0  0  0  0  0  0
  185.6600  178.5200  142.0420 N   0  0  0  0  0  0  0  0  0  0  0  0
  184.9200  177.8340  145.6630 C   0  0  0  0  0  3  0  0  0  0  0  0
  187.1330  177.7450  143.8610 C   0  0  0  0  0  0  0  0  0  0  0  0
  186.7180  178.3180  141.1250 C   0  0  0  0  0  0  0  0  0  0  0  0
  183.9280  179.8410  139.0930 C   0  0  0  0  0  1  0  0  0  0  0  0
  186.2810  178.8100  139.7750 C   0  0  1  0  0  3  0  0  0  0  0  0
  186.4350  177.1950  136.5740 C   0  0  0  0  0  3  0  0  0  0  0  0
  189.0560  178.9540  138.6260 C   0  0  0  0  0  1  0  0  0  0  0  0
  184.7670  178.2530  144.2610 C   0  0  0  0  0  3  0  0  0  0  0  0
  185.8020  178.2070  143.4190 C   0  0  2  0  0  3  0  0  0  0  0  0
  188.7940  177.5510  139.1680 C   0  0  2  0  0  3  0  0  0  0  0  0
  191.6210  176.3670  142.8880 O   0  0  0  0  0  0  0  0  0  0  0  0
  191.6810  176.3780  145.1580 C   0  0  0  0  0  1  0  0  0  0  0  0
  191.7410  175.5340  143.9790 N   0  0  0  0  0  2  0  0  0  0  0  0
  1  5  1  0  0  0  0
  1 19  2  0  0  0  0
  2 16  1  0  0  0  0
  2 13  2  0  0  0  0
  3 17  1  0  0  0  0
  4  1  1  0  0  0  0
  6  8  2  0  0  0  0
  7 15  1  6  0  0  0
  7  9  1  0  0  0  0
  7 27  1  0  0  0  0
  8 11  1  0  0  0  0
  9 22  1  0  0  0  0
 10  3  2  0  0  0  0
 11 28  1  0  0  0  0
 11  5  2  0  0  0  0
 12  8  1  0  0  0  0
 12  4  1  0  0  0  0
 14  9  1  0  0  0  0
 17 26  1  0  0  0  0
 18 13  1  0  0  0  0
 19  2  1  0  0  0  0
 20  4  2  0  0  0  0
 20 17  1  0  0  0  0
 21 10  1  0  0  0  0
 22 10  1  1  0  0  0
 22 20  1  0  0  0  0
 23 15  1  0  0  0  0
 23 14  2  0  0  0  0
 25 18  2  0  0  0  0
 26 19  1  0  0  0  0
 26 25  1  6  0  0  0
 27 24  1  1  0  0  0
 27 12  1  0  0  0  0
 28 30  1  0  0  0  0
 30 29  1  0  0  0  0
M  END
>  <MODEL>
8

>  <REMARK>
 VINA RESULT:      -7.0      1.831      5.691
  Name = 
  2 active torsions:
  status: ('A' for Active; 'I' for Inactive)
    1  A    between atoms: C_11  and  O_28
    2  A    between atoms: O_28  and  N_30
                            x       y       z     vdW  Elec       q    Type
                         _______ _______ _______ _____ _____    ______ ____

>  <TORSDO>
F 2

$$$$
=
 OpenBabel11122410273D

 30 35  0  0  1  0  0  0  0  0999 V2000
  185.6890  178.5290  141.5190 C   0  0  0  0  0  0  0  0  0  0  0  0
  184.6530  178.9540  143.7880 C   0  0  0  0  0  0  0  0  0  0  0  0
  182.1360  178.7720  139.3300 C   0  0  0  0  0  3  0  0  0  0  0  0
  185.6360  178.3980  140.0870 C   0  0  0  0  0  0  0  0  0  0  0  0
  186.9340  178.4720  142.1460 C   0  0  0  0  0  3  0  0  0  0  0  0
  189.0880  177.8950  139.3970 O   0  0  0  0  0  0  0  0  0  0  0  0
  185.8270  176.7750  137.5330 C   0  0  1  0  0  3  0  0  0  0  0  0
  188.0190  178.1000  140.0410 C   0  0  0  0  0  0  0  0  0  0  0  0
  184.5080  177.3580  137.3250 N   0  0  0  0  0  0  0  0  0  0  0  0
  182.5770  178.6920  138.0810 C   0  0  0  0  0  0  0  0  0  0  0  0
  188.0980  178.2730  141.4210 C   0  0  0  0  0  0  0  0  0  0  0  0
  186.8110  178.1420  139.3880 N   0  0  0  0  0  0  0  0  0  0  0  0
  183.3300  178.7660  144.4850 C   0  0  0  0  0  3  0  0  0  0  0  0
  184.0920  177.0520  136.0040 C   0  0  0  0  0  3  0  0  0  0  0  0
  186.1970  176.1230  136.2030 C   0  0  0  0  0  2  0  0  0  0  0  0
  185.1470  180.3640  144.0620 C   0  0  0  0  0  1  0  0  0  0  0  0
  183.2340  178.6820  140.2200 N   0  0  0  0  0  0  0  0  0  0  0  0
  182.1700  178.7000  143.8250 C   0  0  0  0  0  3  0  0  0  0  0  0
  184.5760  178.7140  142.2870 C   0  0  0  0  0  0  0  0  0  0  0  0
  184.4240  178.5260  139.4720 C   0  0  0  0  0  0  0  0  0  0  0  0
  181.6800  178.8450  136.9030 C   0  0  0  0  0  1  0  0  0  0  0  0
  184.0810  178.5770  138.0110 C   0  0  1  0  0  3  0  0  0  0  0  0
  184.9940  176.3460  135.3520 C   0  0  0  0  0  3  0  0  0  0  0  0
  186.8950  179.0920  137.0880 C   0  0  0  0  0  1  0  0  0  0  0  0
  182.1240  178.7350  142.3550 C   0  0  0  0  0  3  0  0  0  0  0  0
  183.2500  178.7380  141.6380 C   0  0  2  0  0  3  0  0  0  0  0  0
  186.8580  177.8320  137.9480 C   0  0  2  0  0  3  0  0  0  0  0  0
  189.3410  178.2320  142.0590 O   0  0  0  0  0  0  0  0  0  0  0  0
  189.8720  176.1150  142.6820 C   0  0  0  0  0  1  0  0  0  0  0  0
  189.5570  177.4440  143.1690 N   0  0  0  0  0  2  0  0  0  0  0  0
  1  5  1  0  0  0  0
  1 19  2  0  0  0  0
  2 16  1  0  0  0  0
  2 13  2  0  0  0  0
  3 17  1  0  0  0  0
  4  1  1  0  0  0  0
  6  8  2  0  0  0  0
  7 15  1  6  0  0  0
  7 27  1  0  0  0  0
  8 11  1  0  0  0  0
  9  7  1  0  0  0  0
  9 22  1  0  0  0  0
 10  3  2  0  0  0  0
 11 28  1  0  0  0  0
 11  5  2  0  0  0  0
 12  8  1  0  0  0  0
 12  4  1  0  0  0  0
 14  9  1  0  0  0  0
 17 26  1  0  0  0  0
 18 13  1  0  0  0  0
 19  2  1  0  0  0  0
 20  4  2  0  0  0  0
 20 17  1  0  0  0  0
 21 10  1  0  0  0  0
 22 10  1  1  0  0  0
 22 20  1  0  0  0  0
 23 14  2  0  0  0  0
 23 15  1  0  0  0  0
 25 18  2  0  0  0  0
 26 19  1  0  0  0  0
 26 25  1  1  0  0  0
 27 24  1  6  0  0  0
 27 12  1  0  0  0  0
 28 30  1  0  0  0  0
 29 30  1  0  0  0  0
M  END
>  <MODEL>
9

>  <REMARK>
 VINA RESULT:      -6.8      2.180      6.270
  Name = 
  2 active torsions:
  status: ('A' for Active; 'I' for Inactive)
    1  A    between atoms: C_11  and  O_28
    2  A    between atoms: O_28  and  N_30
                            x       y       z     vdW  Elec       q    Type
                         _______ _______ _______ _____ _____    ______ ____

>  <TORSDO>
F 2

$$$$
