=
 OpenBabel11122412233D

 34 40  0  0  1  0  0  0  0  0999 V2000
  188.5660  177.7770  142.9820 C   0  0  1  0  0  3  0  0  0  0  0  0
  190.7350  176.8470  142.4300 C   0  0  0  0  0  2  0  0  0  0  0  0
  182.2560  178.2790  140.9850 C   0  0  0  0  0  0  0  0  0  0  0  0
  186.0670  178.2440  143.2650 C   0  0  0  0  0  0  0  0  0  0  0  0
  184.6940  178.7230  141.3030 C   0  0  0  0  0  0  0  0  0  0  0  0
  183.5470  179.3170  139.1020 C   0  0  0  0  0  1  0  0  0  0  0  0
  181.8040  177.4080  140.1940 O   0  0  0  0  0  0  0  0  0  0  0  0
  182.3370  179.2990  143.2400 C   0  0  0  0  0  2  0  0  0  0  0  0
  189.4860  177.8920  140.8440 C   0  0  2  0  0  3  0  0  0  0  0  0
  189.7520  177.2870  137.6820 C   0  0  0  0  0  2  0  0  0  0  0  0
  185.7930  178.5190  140.5260 N   0  0  0  0  0  0  0  0  0  0  0  0
  183.6410  178.6640  143.7020 C   0  0  0  0  0  2  0  0  0  0  0  0
  188.1570  177.9160  140.0720 C   0  0  1  0  0  3  0  0  0  0  0  0
  191.5540  176.7190  141.1540 C   0  0  0  0  0  2  0  0  0  0  0  0
  184.8070  178.5890  142.7210 C   0  0  0  0  0  0  0  0  0  0  0  0
  181.6850  178.4250  142.2790 N   0  0  0  0  0  2  0  0  0  0  0  0
  190.4520  176.6420  138.8560 C   0  0  0  0  0  0  0  0  0  0  0  0
  187.1780  178.0610  142.4160 C   0  0  0  0  0  0  0  0  0  0  0  0
  183.4160  179.1480  140.6140 C   0  0  1  0  0  3  0  0  0  0  0  0
  187.0160  178.2130  141.0250 C   0  0  0  0  0  0  0  0  0  0  0  0
  187.6200  177.8740  145.2550 C   0  0  0  0  0  2  0  0  0  0  0  0
  189.3730  178.7450  137.9470 C   0  0  0  0  0  2  0  0  0  0  0  0
  186.1830  177.9190  144.7420 C   0  0  0  0  0  2  0  0  0  0  0  0
  188.1710  178.8970  138.8900 C   0  0  0  0  0  2  0  0  0  0  0  0
  190.7440  177.4590  140.0980 C   0  0  1  0  0  3  0  0  0  0  0  0
  188.4730  177.0420  144.3160 C   0  0  0  0  0  2  0  0  0  0  0  0
  189.3550  177.0270  142.0040 N   0  0  2  0  0  0  0  0  0  0  0  0
  190.7740  175.3860  138.8050 N   0  0  0  0  0  0  0  0  0  0  0  0
  190.5140  174.6230  137.6880 O   0  0  0  0  0  0  0  0  0  0  0  0
  192.9020  175.4870  135.5870 O   0  0  0  0  0  0  0  0  0  0  0  0
  192.8740  174.4490  137.5520 C   0  0  0  0  0  3  0  0  0  0  0  0
  191.5760  174.1050  136.9060 C   0  0  2  0  0  3  0  0  0  0  0  0
  193.5800  175.2330  136.7620 C   0  0  0  0  0  3  0  0  0  0  0  0
  191.6410  174.8410  135.5680 C   0  0  0  0  0  2  0  0  0  0  0  0
  1 26  1  1  0  0  0
  3 16  1  0  0  0  0
  4 23  1  0  0  0  0
  5 15  2  0  0  0  0
  6 19  1  0  0  0  0
  7  3  2  0  0  0  0
  8 12  1  0  0  0  0
  9 27  1  0  0  0  0
 10 22  1  0  0  0  0
 10 17  1  0  0  0  0
 11 20  2  0  0  0  0
 11  5  1  0  0  0  0
 13  9  1  0  0  0  0
 13 20  1  0  0  0  0
 14  2  1  0  0  0  0
 15  4  1  0  0  0  0
 15 12  1  0  0  0  0
 16  8  1  0  0  0  0
 17 25  1  0  0  0  0
 18  1  1  0  0  0  0
 18  4  2  0  0  0  0
 19  3  1  0  0  0  0
 19  5  1  0  0  0  0
 20 18  1  0  0  0  0
 22 24  1  0  0  0  0
 23 21  1  0  0  0  0
 24 13  1  0  0  0  0
 25  9  1  0  0  0  0
 25 14  1  0  0  0  0
 26 21  1  0  0  0  0
 27  2  1  0  0  0  0
 27  1  1  0  0  0  0
 28 17  2  0  0  0  0
 29 28  1  0  0  0  0
 30 33  1  0  0  0  0
 32 31  1  0  0  0  0
 32 29  1  0  0  0  0
 33 31  2  0  0  0  0
 34 30  1  0  0  0  0
 34 32  1  0  0  0  0
M  END
>  <MODEL>
1

>  <REMARK>
 VINA RESULT:      -9.3      0.000      0.000
  Name = 
  2 active torsions:
  status: ('A' for Active; 'I' for Inactive)
    1  A    between atoms: N_28  and  O_29
    2  A    between atoms: O_29  and  C_32
                            x       y       z     vdW  Elec       q    Type
                         _______ _______ _______ _____ _____    ______ ____

>  <TORSDO>
F 2

$$$$
=
 OpenBabel11122412233D

 34 40  0  0  1  0  0  0  0  0999 V2000
  188.5790  177.7460  142.3720 C   0  0  1  0  0  3  0  0  0  0  0  0
  190.7030  176.8050  141.6780 C   0  0  0  0  0  2  0  0  0  0  0  0
  182.1820  178.3980  140.7230 C   0  0  0  0  0  0  0  0  0  0  0  0
  186.1060  178.2380  142.8000 C   0  0  0  0  0  0  0  0  0  0  0  0
  184.6410  178.7990  140.9270 C   0  0  0  0  0  0  0  0  0  0  0  0
  183.3900  179.4800  138.8100 C   0  0  0  0  0  1  0  0  0  0  0  0
  181.6770  177.5600  139.9290 O   0  0  0  0  0  0  0  0  0  0  0  0
  182.3960  179.3430  143.0020 C   0  0  0  0  0  2  0  0  0  0  0  0
  189.3890  177.9180  140.1940 C   0  0  2  0  0  3  0  0  0  0  0  0
  189.4830  177.4130  137.0040 C   0  0  0  0  0  2  0  0  0  0  0  0
  185.6950  178.6060  140.0880 N   0  0  0  0  0  0  0  0  0  0  0  0
  183.7120  178.6760  143.3760 C   0  0  0  0  0  2  0  0  0  0  0  0
  188.0230  177.9850  139.4930 C   0  0  1  0  0  3  0  0  0  0  0  0
  191.4520  176.7070  140.3580 C   0  0  0  0  0  2  0  0  0  0  0  0
  184.8250  178.6170  142.3330 C   0  0  0  0  0  0  0  0  0  0  0  0
  181.6820  178.5100  142.0500 N   0  0  0  0  0  2  0  0  0  0  0  0
  190.2320  176.7200  138.1190 C   0  0  0  0  0  0  0  0  0  0  0  0
  187.1680  178.0670  141.8880 C   0  0  0  0  0  0  0  0  0  0  0  0
  183.3350  179.2640  140.3200 C   0  0  1  0  0  3  0  0  0  0  0  0
  186.9370  178.2670  140.5130 C   0  0  0  0  0  0  0  0  0  0  0  0
  187.7530  177.7820  144.6930 C   0  0  0  0  0  2  0  0  0  0  0  0
  189.1390  178.8670  137.3350 C   0  0  0  0  0  2  0  0  0  0  0  0
  186.2930  177.8630  144.2570 C   0  0  0  0  0  2  0  0  0  0  0  0
  187.9910  179.0040  138.3430 C   0  0  0  0  0  2  0  0  0  0  0  0
  190.6010  177.4920  139.3700 C   0  0  1  0  0  3  0  0  0  0  0  0
  188.5440  176.9690  143.6850 C   0  0  0  0  0  2  0  0  0  0  0  0
  189.3050  177.0180  141.3300 N   0  0  2  0  0  0  0  0  0  0  0  0
  190.5320  175.4630  138.0120 N   0  0  0  0  0  0  0  0  0  0  0  0
  190.2030  174.7400  136.8860 O   0  0  0  0  0  0  0  0  0  0  0  0
  187.4390  173.4360  135.6540 O   0  0  0  0  0  0  0  0  0  0  0  0
  189.5480  172.7470  135.7830 C   0  0  0  0  0  3  0  0  0  0  0  0
  189.3430  173.6180  136.9750 C   0  0  2  0  0  3  0  0  0  0  0  0
  188.4400  172.6830  135.0720 C   0  0  0  0  0  3  0  0  0  0  0  0
  187.8890  174.0660  136.8400 C   0  0  0  0  0  2  0  0  0  0  0  0
  1 26  1  1  0  0  0
  3 16  1  0  0  0  0
  4 23  1  0  0  0  0
  5 15  2  0  0  0  0
  6 19  1  0  0  0  0
  7  3  2  0  0  0  0
  8 12  1  0  0  0  0
  9 27  1  0  0  0  0
 10 22  1  0  0  0  0
 10 17  1  0  0  0  0
 11 20  2  0  0  0  0
 11  5  1  0  0  0  0
 13  9  1  0  0  0  0
 13 20  1  0  0  0  0
 14  2  1  0  0  0  0
 15  4  1  0  0  0  0
 15 12  1  0  0  0  0
 16  8  1  0  0  0  0
 17 25  1  0  0  0  0
 18  1  1  0  0  0  0
 18  4  2  0  0  0  0
 19  3  1  0  0  0  0
 19  5  1  0  0  0  0
 20 18  1  0  0  0  0
 22 24  1  0  0  0  0
 23 21  1  0  0  0  0
 24 13  1  0  0  0  0
 25  9  1  0  0  0  0
 25 14  1  0  0  0  0
 26 21  1  0  0  0  0
 27  2  1  0  0  0  0
 27  1  1  0  0  0  0
 28 17  2  0  0  0  0
 29 32  1  0  0  0  0
 29 28  1  0  0  0  0
 30 34  1  0  0  0  0
 31 32  1  0  0  0  0
 33 30  1  0  0  0  0
 33 31  2  0  0  0  0
 34 32  1  0  0  0  0
M  END
>  <MODEL>
2

>  <REMARK>
 VINA RESULT:      -8.6      1.392      1.864
  Name = 
  2 active torsions:
  status: ('A' for Active; 'I' for Inactive)
    1  A    between atoms: N_28  and  O_29
    2  A    between atoms: O_29  and  C_32
                            x       y       z     vdW  Elec       q    Type
                         _______ _______ _______ _____ _____    ______ ____

>  <TORSDO>
F 2

$$$$
=
 OpenBabel11122412233D

 34 40  0  0  1  0  0  0  0  0999 V2000
  190.1290  177.2370  140.3810 C   0  0  1  0  0  3  0  0  0  0  0  0
  191.7210  176.1010  138.9490 C   0  0  0  0  0  2  0  0  0  0  0  0
  183.6760  178.4480  141.3600 C   0  0  0  0  0  0  0  0  0  0  0  0
  188.0750  177.9540  141.7270 C   0  0  0  0  0  0  0  0  0  0  0  0
  186.0370  178.6270  140.5600 C   0  0  0  0  0  0  0  0  0  0  0  0
  184.1070  179.3970  139.0790 C   0  0  0  0  0  1  0  0  0  0  0  0
  182.8330  177.6510  140.8680 O   0  0  0  0  0  0  0  0  0  0  0  0
  184.8500  179.3920  143.3250 C   0  0  0  0  0  2  0  0  0  0  0  0
  190.0190  177.3140  138.0540 C   0  0  2  0  0  3  0  0  0  0  0  0
  188.8000  176.7710  135.1130 C   0  0  0  0  0  2  0  0  0  0  0  0
  186.6530  178.3310  139.3830 N   0  0  0  0  0  0  0  0  0  0  0  0
  186.1490  178.6120  143.1790 C   0  0  0  0  0  2  0  0  0  0  0  0
  188.4970  177.4970  137.9470 C   0  0  1  0  0  3  0  0  0  0  0  0
  191.8750  175.9230  137.4460 C   0  0  0  0  0  2  0  0  0  0  0  0
  186.7480  178.4430  141.7860 C   0  0  0  0  0  0  0  0  0  0  0  0
  183.7530  178.6180  142.7700 N   0  0  0  0  0  2  0  0  0  0  0  0
  189.8720  176.0250  135.8720 C   0  0  0  0  0  0  0  0  0  0  0  0
  188.6720  177.6800  140.4780 C   0  0  0  0  0  0  0  0  0  0  0  0
  184.6390  179.2020  140.4960 C   0  0  1  0  0  3  0  0  0  0  0  0
  187.9310  177.8860  139.2990 C   0  0  0  0  0  0  0  0  0  0  0  0
  190.2970  177.3700  142.8350 C   0  0  0  0  0  2  0  0  0  0  0  0
  188.7320  178.2530  135.4860 C   0  0  0  0  0  2  0  0  0  0  0  0
  188.7950  177.5790  143.0070 C   0  0  0  0  0  2  0  0  0  0  0  0
  188.0920  178.5040  136.8580 C   0  0  0  0  0  2  0  0  0  0  0  0
  190.7670  176.7720  136.8400 C   0  0  1  0  0  3  0  0  0  0  0  0
  190.5560  176.4790  141.6350 C   0  0  0  0  0  2  0  0  0  0  0  0
  190.3220  176.4360  139.1710 N   0  0  2  0  0  0  0  0  0  0  0  0
  190.0050  174.7440  135.7110 N   0  0  0  0  0  0  0  0  0  0  0  0
  189.2000  174.0430  134.8400 O   0  0  0  0  0  0  0  0  0  0  0  0
  186.9820  173.5190  137.2190 O   0  0  0  0  0  0  0  0  0  0  0  0
  186.8840  173.5640  134.9990 C   0  0  0  0  0  3  0  0  0  0  0  0
  188.2620  173.0990  135.3250 C   0  0  2  0  0  3  0  0  0  0  0  0
  186.2080  173.7880  136.1080 C   0  0  0  0  0  3  0  0  0  0  0  0
  188.2800  173.0880  136.8530 C   0  0  0  0  0  2  0  0  0  0  0  0
  1 18  1  0  0  0  0
  1 26  1  1  0  0  0
  2 27  1  0  0  0  0
  3 16  1  0  0  0  0
  4 15  1  0  0  0  0
  4 23  1  0  0  0  0
  5 15  2  0  0  0  0
  6 19  1  0  0  0  0
  7  3  2  0  0  0  0
  9 27  1  0  0  0  0
 10 22  1  0  0  0  0
 10 17  1  0  0  0  0
 11  5  1  0  0  0  0
 12  8  1  0  0  0  0
 13  9  1  0  0  0  0
 13 20  1  0  0  0  0
 14  2  1  0  0  0  0
 15 12  1  0  0  0  0
 16  8  1  0  0  0  0
 17 25  1  0  0  0  0
 18  4  2  0  0  0  0
 19  5  1  0  0  0  0
 19  3  1  0  0  0  0
 20 11  2  0  0  0  0
 20 18  1  0  0  0  0
 21 23  1  0  0  0  0
 22 24  1  0  0  0  0
 24 13  1  0  0  0  0
 25 14  1  0  0  0  0
 25  9  1  0  0  0  0
 26 21  1  0  0  0  0
 27  1  1  0  0  0  0
 28 17  2  0  0  0  0
 29 32  1  0  0  0  0
 29 28  1  0  0  0  0
 31 32  1  0  0  0  0
 31 33  2  0  0  0  0
 32 34  1  0  0  0  0
 33 30  1  0  0  0  0
 34 30  1  0  0  0  0
M  END
>  <MODEL>
3

>  <REMARK>
 VINA RESULT:      -8.2      2.193      3.327
  Name = 
  2 active torsions:
  status: ('A' for Active; 'I' for Inactive)
    1  A    between atoms: N_28  and  O_29
    2  A    between atoms: O_29  and  C_32
                            x       y       z     vdW  Elec       q    Type
                         _______ _______ _______ _____ _____    ______ ____

>  <TORSDO>
F 2

$$$$
=
 OpenBabel11122412233D

 34 40  0  0  1  0  0  0  0  0999 V2000
  191.0440  177.0050  137.8710 C   0  0  1  0  0  3  0  0  0  0  0  0
  190.8190  176.1240  135.6240 C   0  0  0  0  0  2  0  0  0  0  0  0
  188.1900  177.2790  143.8580 C   0  0  0  0  0  0  0  0  0  0  0  0
  190.9710  177.4070  140.3960 C   0  0  0  0  0  0  0  0  0  0  0  0
  188.8260  177.8000  141.4980 C   0  0  0  0  0  0  0  0  0  0  0  0
  186.4740  178.3100  142.3470 C   0  0  0  0  0  1  0  0  0  0  0  0
  187.3690  176.3780  144.1750 O   0  0  0  0  0  0  0  0  0  0  0  0
  190.4070  178.3530  144.1130 C   0  0  0  0  0  2  0  0  0  0  0  0
  189.0490  177.0960  136.6700 C   0  0  2  0  0  3  0  0  0  0  0  0
  185.9710  176.4250  135.9560 C   0  0  0  0  0  2  0  0  0  0  0  0
  188.2120  177.6100  140.2980 N   0  0  0  0  0  0  0  0  0  0  0  0
  191.0600  177.7670  142.8690 C   0  0  0  0  0  2  0  0  0  0  0  0
  188.1030  177.0640  137.8800 C   0  0  1  0  0  3  0  0  0  0  0  0
  189.6710  175.9890  134.6350 C   0  0  0  0  0  2  0  0  0  0  0  0
  190.2500  177.7020  141.5780 C   0  0  0  0  0  0  0  0  0  0  0  0
  189.3900  177.4400  144.6040 N   0  0  0  0  0  2  0  0  0  0  0  0
  187.2470  175.8280  135.4090 C   0  0  0  0  0  0  0  0  0  0  0  0
  190.2860  177.2360  139.1750 C   0  0  0  0  0  0  0  0  0  0  0  0
  187.9580  178.1730  142.6800 C   0  0  1  0  0  3  0  0  0  0  0  0
  188.8820  177.3510  139.1480 C   0  0  0  0  0  0  0  0  0  0  0  0
  193.1630  177.1280  139.1230 C   0  0  0  0  0  2  0  0  0  0  0  0
  186.1420  177.8780  136.4050 C   0  0  0  0  0  2  0  0  0  0  0  0
  192.4570  177.1200  140.4760 C   0  0  0  0  0  2  0  0  0  0  0  0
  186.9070  178.0170  137.7280 C   0  0  0  0  0  2  0  0  0  0  0  0
  188.4950  176.6810  135.3100 C   0  0  1  0  0  3  0  0  0  0  0  0
  192.3720  176.2980  138.1280 C   0  0  0  0  0  2  0  0  0  0  0  0
  190.2030  176.2550  136.9360 N   0  0  2  0  0  0  0  0  0  0  0  0
  187.2740  174.5810  135.0510 N   0  0  0  0  0  0  0  0  0  0  0  0
  186.1530  173.7850  135.1360 O   0  0  0  0  0  0  0  0  0  0  0  0
  184.9300  172.6280  137.9690 O   0  0  0  0  0  0  0  0  0  0  0  0
  184.8230  171.9580  135.8520 C   0  0  0  0  0  3  0  0  0  0  0  0
  186.1380  172.6490  135.9820 C   0  0  2  0  0  3  0  0  0  0  0  0
  184.1840  171.9790  137.0040 C   0  0  0  0  0  3  0  0  0  0  0  0
  186.1620  173.0900  137.4440 C   0  0  0  0  0  2  0  0  0  0  0  0
  1 26  1  1  0  0  0
  1 18  1  0  0  0  0
  2 27  1  0  0  0  0
  3  7  2  0  0  0  0
  3 16  1  0  0  0  0
  4 23  1  0  0  0  0
  4 15  1  0  0  0  0
  5 15  2  0  0  0  0
  5 19  1  0  0  0  0
  6 19  1  0  0  0  0
  8 16  1  0  0  0  0
  9 27  1  0  0  0  0
  9 13  1  0  0  0  0
 10 22  1  0  0  0  0
 11  5  1  0  0  0  0
 12  8  1  0  0  0  0
 13 20  1  0  0  0  0
 14 25  1  0  0  0  0
 14  2  1  0  0  0  0
 15 12  1  0  0  0  0
 17 10  1  0  0  0  0
 18  4  2  0  0  0  0
 19  3  1  0  0  0  0
 20 18  1  0  0  0  0
 20 11  2  0  0  0  0
 21 23  1  0  0  0  0
 22 24  1  0  0  0  0
 24 13  1  0  0  0  0
 25 17  1  0  0  0  0
 25  9  1  0  0  0  0
 26 21  1  0  0  0  0
 27  1  1  0  0  0  0
 28 29  1  0  0  0  0
 28 17  2  0  0  0  0
 29 32  1  0  0  0  0
 31 32  1  0  0  0  0
 31 33  2  0  0  0  0
 32 34  1  0  0  0  0
 33 30  1  0  0  0  0
 34 30  1  0  0  0  0
M  END
>  <MODEL>
4

>  <REMARK>
 VINA RESULT:      -8.0      3.507      6.095
  Name = 
  2 active torsions:
  status: ('A' for Active; 'I' for Inactive)
    1  A    between atoms: N_28  and  O_29
    2  A    between atoms: O_29  and  C_32
                            x       y       z     vdW  Elec       q    Type
                         _______ _______ _______ _____ _____    ______ ____

>  <TORSDO>
F 2

$$$$
=
 OpenBabel11122412233D

 34 40  0  0  1  0  0  0  0  0999 V2000
  187.2000  178.3710  141.8720 C   0  0  1  0  0  3  0  0  0  0  0  0
  189.5260  177.6920  141.7930 C   0  0  0  0  0  2  0  0  0  0  0  0
  181.2560  177.5680  139.0290 C   0  0  0  0  0  0  0  0  0  0  0  0
  184.6490  178.5040  141.7380 C   0  0  0  0  0  0  0  0  0  0  0  0
  183.5440  178.4190  139.5610 C   0  0  0  0  0  0  0  0  0  0  0  0
  182.6830  178.4380  137.1590 C   0  0  0  0  0  1  0  0  0  0  0  0
  181.0400  176.5140  138.3730 O   0  0  0  0  0  0  0  0  0  0  0  0
  180.8660  178.9700  141.0320 C   0  0  0  0  0  2  0  0  0  0  0  0
  188.4150  178.2430  139.8870 C   0  0  2  0  0  3  0  0  0  0  0  0
  189.2340  177.1360  136.9650 C   0  0  0  0  0  2  0  0  0  0  0  0
  184.7660  178.2470  138.9850 N   0  0  0  0  0  0  0  0  0  0  0  0
  182.1520  178.6280  141.7720 C   0  0  0  0  0  2  0  0  0  0  0  0
  187.2270  177.9320  138.9630 C   0  0  1  0  0  3  0  0  0  0  0  0
  190.5390  177.4640  140.6810 C   0  0  0  0  0  2  0  0  0  0  0  0
  183.4540  178.5550  140.9810 C   0  0  0  0  0  0  0  0  0  0  0  0
  180.4810  177.8540  140.1860 N   0  0  0  0  0  2  0  0  0  0  0  0
  189.8190  176.8200  138.3220 C   0  0  0  0  0  0  0  0  0  0  0  0
  185.8910  178.3410  141.0890 C   0  0  0  0  0  0  0  0  0  0  0  0
  182.3440  178.5210  138.6450 C   0  0  1  0  0  3  0  0  0  0  0  0
  185.9260  178.2200  139.6860 C   0  0  0  0  0  0  0  0  0  0  0  0
  185.9130  178.7260  143.9420 C   0  0  0  0  0  2  0  0  0  0  0  0
  188.6420  178.5450  136.8890 C   0  0  0  0  0  2  0  0  0  0  0  0
  184.5770  178.4650  143.2520 C   0  0  0  0  0  2  0  0  0  0  0  0
  187.3020  178.6810  137.6230 C   0  0  0  0  0  2  0  0  0  0  0  0
  189.8160  177.8770  139.4070 C   0  0  1  0  0  3  0  0  0  0  0  0
  186.9940  177.8770  143.3010 C   0  0  0  0  0  2  0  0  0  0  0  0
  188.2150  177.5870  141.1680 N   0  0  2  0  0  0  0  0  0  0  0  0
  190.2960  175.6370  138.5590 N   0  0  0  0  0  0  0  0  0  0  0  0
  190.3060  174.6590  137.5890 O   0  0  0  0  0  0  0  0  0  0  0  0
  192.7380  175.7260  135.6380 O   0  0  0  0  0  0  0  0  0  0  0  0
  192.6620  174.8920  137.6970 C   0  0  0  0  0  3  0  0  0  0  0  0
  191.5200  174.2640  136.9750 C   0  0  2  0  0  3  0  0  0  0  0  0
  193.3130  175.7100  136.8940 C   0  0  0  0  0  3  0  0  0  0  0  0
  191.6130  174.8680  135.5740 C   0  0  0  0  0  2  0  0  0  0  0  0
  1 26  1  1  0  0  0
  3 16  1  0  0  0  0
  4 23  1  0  0  0  0
  5 15  1  0  0  0  0
  6 19  1  0  0  0  0
  7  3  2  0  0  0  0
  8 12  1  0  0  0  0
  9 27  1  0  0  0  0
 10 17  1  0  0  0  0
 11  5  2  0  0  0  0
 11 20  1  0  0  0  0
 13 20  1  0  0  0  0
 13  9  1  0  0  0  0
 14  2  1  0  0  0  0
 15  4  2  0  0  0  0
 15 12  1  0  0  0  0
 16  8  1  0  0  0  0
 17 28  2  0  0  0  0
 17 25  1  0  0  0  0
 18  4  1  0  0  0  0
 18  1  1  0  0  0  0
 19  3  1  0  0  0  0
 19  5  1  0  0  0  0
 20 18  2  0  0  0  0
 22 10  1  0  0  0  0
 22 24  1  0  0  0  0
 23 21  1  0  0  0  0
 24 13  1  0  0  0  0
 25  9  1  0  0  0  0
 25 14  1  0  0  0  0
 26 21  1  0  0  0  0
 27  2  1  0  0  0  0
 27  1  1  0  0  0  0
 29 28  1  0  0  0  0
 30 33  1  0  0  0  0
 32 29  1  0  0  0  0
 32 31  1  0  0  0  0
 33 31  2  0  0  0  0
 34 30  1  0  0  0  0
 34 32  1  0  0  0  0
M  END
>  <MODEL>
5

>  <REMARK>
 VINA RESULT:      -8.0      1.244      1.721
  Name = 
  2 active torsions:
  status: ('A' for Active; 'I' for Inactive)
    1  A    between atoms: N_28  and  O_29
    2  A    between atoms: O_29  and  C_32
                            x       y       z     vdW  Elec       q    Type
                         _______ _______ _______ _____ _____    ______ ____

>  <TORSDO>
F 2

$$$$
=
 OpenBabel11122412233D

 34 40  0  0  1  0  0  0  0  0999 V2000
  181.9510  178.9480  142.8380 C   0  0  1  0  0  3  0  0  0  0  0  0
  183.4440  179.3440  144.7060 C   0  0  0  0  0  2  0  0  0  0  0  0
  180.9890  175.2630  137.4000 C   0  0  0  0  0  0  0  0  0  0  0  0
  180.5860  177.9370  140.9240 C   0  0  0  0  0  0  0  0  0  0  0  0
  181.7280  177.0890  138.9380 C   0  0  0  0  0  0  0  0  0  0  0  0
  183.1740  176.4090  136.9490 C   0  0  0  0  0  1  0  0  0  0  0  0
  181.5620  174.1430  137.3230 O   0  0  0  0  0  0  0  0  0  0  0  0
  178.9310  176.6100  137.6800 C   0  0  0  0  0  2  0  0  0  0  0  0
  184.2640  179.0960  142.5990 C   0  0  2  0  0  3  0  0  0  0  0  0
  187.2620  178.0760  141.9640 C   0  0  0  0  0  2  0  0  0  0  0  0
  182.9150  177.3910  139.5330 N   0  0  0  0  0  0  0  0  0  0  0  0
  179.1180  176.9650  139.1490 C   0  0  0  0  0  2  0  0  0  0  0  0
  184.3830  178.1790  141.3720 C   0  0  1  0  0  3  0  0  0  0  0  0
  184.9530  179.4330  144.8710 C   0  0  0  0  0  2  0  0  0  0  0  0
  180.5090  177.3610  139.6340 C   0  0  0  0  0  0  0  0  0  0  0  0
  179.5690  175.3360  137.4020 N   0  0  0  0  0  2  0  0  0  0  0  0
  186.5490  178.2310  143.2880 C   0  0  0  0  0  0  0  0  0  0  0  0
  181.8420  178.2460  141.4870 C   0  0  0  0  0  0  0  0  0  0  0  0
  181.7690  176.5340  137.5310 C   0  0  1  0  0  3  0  0  0  0  0  0
  183.0130  177.9650  140.7570 C   0  0  0  0  0  0  0  0  0  0  0  0
  179.4910  178.9800  142.9780 C   0  0  0  0  0  2  0  0  0  0  0  0
  186.7660  179.0630  140.9060 C   0  0  0  0  0  2  0  0  0  0  0  0
  179.3290  178.0740  141.7600 C   0  0  0  0  0  2  0  0  0  0  0  0
  185.3900  178.6980  140.3340 C   0  0  0  0  0  2  0  0  0  0  0  0
  185.5060  179.3160  143.4580 C   0  0  1  0  0  3  0  0  0  0  0  0
  180.7570  178.6100  143.7270 C   0  0  0  0  0  2  0  0  0  0  0  0
  183.2200  178.5970  143.4770 N   0  0  2  0  0  0  0  0  0  0  0  0
  186.8150  177.4170  144.2630 N   0  0  0  0  0  0  0  0  0  0  0  0
  187.7570  176.4210  144.1310 O   0  0  0  0  0  0  0  0  0  0  0  0
  190.7330  177.7020  143.5290 O   0  0  0  0  0  0  0  0  0  0  0  0
  189.2260  177.9830  145.1390 C   0  0  0  0  0  3  0  0  0  0  0  0
  189.0540  176.5770  144.6790 C   0  0  2  0  0  3  0  0  0  0  0  0
  190.1860  178.5710  144.4530 C   0  0  0  0  0  3  0  0  0  0  0  0
  190.1030  176.4340  143.5770 C   0  0  0  0  0  2  0  0  0  0  0  0
  1 27  1  0  0  0  0
  1 26  1  1  0  0  0
  2 14  1  0  0  0  0
  3 16  1  0  0  0  0
  3 19  1  0  0  0  0
  4 18  1  0  0  0  0
  4 23  1  0  0  0  0
  5 11  2  0  0  0  0
  5 15  1  0  0  0  0
  6 19  1  0  0  0  0
  7  3  2  0  0  0  0
  8 12  1  0  0  0  0
  9 25  1  0  0  0  0
  9 27  1  0  0  0  0
 10 17  1  0  0  0  0
 11 20  1  0  0  0  0
 12 15  1  0  0  0  0
 13  9  1  0  0  0  0
 15  4  2  0  0  0  0
 16  8  1  0  0  0  0
 17 25  1  0  0  0  0
 17 28  2  0  0  0  0
 18  1  1  0  0  0  0
 19  5  1  0  0  0  0
 20 13  1  0  0  0  0
 20 18  2  0  0  0  0
 21 26  1  0  0  0  0
 22 10  1  0  0  0  0
 23 21  1  0  0  0  0
 24 22  1  0  0  0  0
 24 13  1  0  0  0  0
 25 14  1  0  0  0  0
 27  2  1  0  0  0  0
 29 28  1  0  0  0  0
 29 32  1  0  0  0  0
 30 34  1  0  0  0  0
 30 33  1  0  0  0  0
 32 31  1  0  0  0  0
 33 31  2  0  0  0  0
 34 32  1  0  0  0  0
M  END
>  <MODEL>
6

>  <REMARK>
 VINA RESULT:      -7.9      4.056      6.444
  Name = 
  2 active torsions:
  status: ('A' for Active; 'I' for Inactive)
    1  A    between atoms: N_28  and  O_29
    2  A    between atoms: O_29  and  C_32
                            x       y       z     vdW  Elec       q    Type
                         _______ _______ _______ _____ _____    ______ ____

>  <TORSDO>
F 2

$$$$
=
 OpenBabel11122412233D

 34 40  0  0  1  0  0  0  0  0999 V2000
  189.2980  177.7240  139.7710 C   0  0  1  0  0  3  0  0  0  0  0  0
  188.7870  177.2490  137.4490 C   0  0  0  0  0  2  0  0  0  0  0  0
  186.9950  177.3160  145.9830 C   0  0  0  0  0  0  0  0  0  0  0  0
  189.4790  177.7150  142.3220 C   0  0  0  0  0  0  0  0  0  0  0  0
  187.4930  178.1450  143.6790 C   0  0  0  0  0  0  0  0  0  0  0  0
  185.2960  178.7520  144.8260 C   0  0  0  0  0  1  0  0  0  0  0  0
  186.1010  176.4650  146.2390 O   0  0  0  0  0  0  0  0  0  0  0  0
  189.3370  178.0970  146.1770 C   0  0  0  0  0  2  0  0  0  0  0  0
  187.2370  178.2170  138.8020 C   0  0  2  0  0  3  0  0  0  0  0  0
  184.0530  177.9960  138.3040 C   0  0  0  0  0  2  0  0  0  0  0  0
  186.7660  178.2180  142.5310 N   0  0  0  0  0  0  0  0  0  0  0  0
  189.8120  177.6560  144.8000 C   0  0  0  0  0  2  0  0  0  0  0  0
  186.3950  178.0880  140.0810 C   0  0  1  0  0  3  0  0  0  0  0  0
  187.5540  177.3980  136.5710 C   0  0  0  0  0  2  0  0  0  0  0  0
  188.8970  177.8880  143.6010 C   0  0  0  0  0  0  0  0  0  0  0  0
  188.2620  177.2270  146.6220 N   0  0  0  0  0  2  0  0  0  0  0  0
  185.2000  177.3660  137.5480 C   0  0  0  0  0  0  0  0  0  0  0  0
  188.6810  177.8180  141.1640 C   0  0  0  0  0  0  0  0  0  0  0  0
  186.7750  178.4090  144.9840 C   0  0  1  0  0  3  0  0  0  0  0  0
  187.3040  178.0810  141.2950 C   0  0  0  0  0  0  0  0  0  0  0  0
  191.5110  177.4200  140.8100 C   0  0  0  0  0  2  0  0  0  0  0  0
  184.4310  179.3300  138.9500 C   0  0  0  0  0  2  0  0  0  0  0  0
  190.9230  177.2660  142.2090 C   0  0  0  0  0  2  0  0  0  0  0  0
  185.3120  179.1720  140.1960 C   0  0  0  0  0  2  0  0  0  0  0  0
  186.5280  178.0900  137.4570 C   0  0  1  0  0  3  0  0  0  0  0  0
  190.5490  176.8510  139.7840 C   0  0  0  0  0  2  0  0  0  0  0  0
  188.3010  177.2290  138.8210 N   0  0  2  0  0  0  0  0  0  0  0  0
  185.0500  176.1980  137.0030 N   0  0  0  0  0  0  0  0  0  0  0  0
  183.8530  175.5200  137.0760 O   0  0  0  0  0  0  0  0  0  0  0  0
  183.4220  172.2830  136.6370 O   0  0  0  0  0  0  0  0  0  0  0  0
  185.0230  173.5170  137.5610 C   0  0  0  0  0  3  0  0  0  0  0  0
  183.7640  174.2860  137.7670 C   0  0  2  0  0  3  0  0  0  0  0  0
  184.7700  172.3960  136.9160 C   0  0  0  0  0  3  0  0  0  0  0  0
  182.7000  173.4030  137.1160 C   0  0  0  0  0  2  0  0  0  0  0  0
  1 26  1  1  0  0  0
  1 18  1  0  0  0  0
  2 27  1  0  0  0  0
  3  7  2  0  0  0  0
  3 16  1  0  0  0  0
  4 15  1  0  0  0  0
  5 19  1  0  0  0  0
  6 19  1  0  0  0  0
  8 16  1  0  0  0  0
  9 27  1  0  0  0  0
  9 13  1  0  0  0  0
 10 22  1  0  0  0  0
 11  5  1  0  0  0  0
 12  8  1  0  0  0  0
 13 24  1  0  0  0  0
 13 20  1  0  0  0  0
 14  2  1  0  0  0  0
 14 25  1  0  0  0  0
 15  5  2  0  0  0  0
 15 12  1  0  0  0  0
 17 10  1  0  0  0  0
 18 20  1  0  0  0  0
 18  4  2  0  0  0  0
 19  3  1  0  0  0  0
 20 11  2  0  0  0  0
 21 23  1  0  0  0  0
 22 24  1  0  0  0  0
 23  4  1  0  0  0  0
 25 17  1  0  0  0  0
 25  9  1  0  0  0  0
 26 21  1  0  0  0  0
 27  1  1  0  0  0  0
 28 29  1  0  0  0  0
 28 17  2  0  0  0  0
 29 32  1  0  0  0  0
 30 33  1  0  0  0  0
 30 34  1  0  0  0  0
 31 32  1  0  0  0  0
 33 31  2  0  0  0  0
 34 32  1  0  0  0  0
M  END
>  <MODEL>
7

>  <REMARK>
 VINA RESULT:      -7.8      3.286      5.891
  Name = 
  2 active torsions:
  status: ('A' for Active; 'I' for Inactive)
    1  A    between atoms: N_28  and  O_29
    2  A    between atoms: O_29  and  C_32
                            x       y       z     vdW  Elec       q    Type
                         _______ _______ _______ _____ _____    ______ ____

>  <TORSDO>
F 2

$$$$
=
 OpenBabel11122412233D

 34 40  0  0  1  0  0  0  0  0999 V2000
  183.2220  178.6280  141.8740 C   0  0  1  0  0  3  0  0  0  0  0  0
  180.9460  179.4540  141.9790 C   0  0  0  0  0  2  0  0  0  0  0  0
  188.8530  178.7870  138.3610 C   0  0  0  0  0  0  0  0  0  0  0  0
  185.7310  178.3120  141.4860 C   0  0  0  0  0  0  0  0  0  0  0  0
  186.5920  178.1390  139.2060 C   0  0  0  0  0  0  0  0  0  0  0  0
  187.1790  177.8620  136.7380 C   0  0  0  0  0  1  0  0  0  0  0  0
  189.0560  179.7650  137.5930 O   0  0  0  0  0  0  0  0  0  0  0  0
  189.3790  177.5340  140.4310 C   0  0  0  0  0  2  0  0  0  0  0  0
  181.8050  178.6720  140.0250 C   0  0  2  0  0  3  0  0  0  0  0  0
  180.7340  179.5830  137.1170 C   0  0  0  0  0  2  0  0  0  0  0  0
  185.3260  178.3450  138.7480 N   0  0  0  0  0  0  0  0  0  0  0  0
  188.2050  178.0230  141.2680 C   0  0  0  0  0  2  0  0  0  0  0  0
  182.9000  178.8230  138.9560 C   0  0  1  0  0  3  0  0  0  0  0  0
  179.8310  179.6570  140.9640 C   0  0  0  0  0  2  0  0  0  0  0  0
  186.8300  178.1170  140.6150 C   0  0  0  0  0  0  0  0  0  0  0  0
  189.7330  178.5470  139.4520 N   0  0  0  0  0  2  0  0  0  0  0  0
  180.3220  180.0500  138.4940 C   0  0  0  0  0  0  0  0  0  0  0  0
  184.4370  178.5040  140.9590 C   0  0  0  0  0  0  0  0  0  0  0  0
  187.6750  177.8810  138.1820 C   0  0  1  0  0  3  0  0  0  0  0  0
  184.2540  178.5090  139.5620 C   0  0  0  0  0  0  0  0  0  0  0  0
  184.7080  178.3610  143.8220 C   0  0  0  0  0  2  0  0  0  0  0  0
  181.2300  178.1360  137.1070 C   0  0  0  0  0  2  0  0  0  0  0  0
  185.9730  178.4720  142.9740 C   0  0  0  0  0  2  0  0  0  0  0  0
  182.6340  177.9720  137.7050 C   0  0  0  0  0  2  0  0  0  0  0  0
  180.3830  179.0900  139.6640 C   0  0  1  0  0  3  0  0  0  0  0  0
  183.6140  179.2250  143.2240 C   0  0  0  0  0  2  0  0  0  0  0  0
  182.1830  179.4180  141.2130 N   0  0  2  0  0  0  0  0  0  0  0  0
  179.9440  181.2790  138.6720 N   0  0  0  0  0  0  0  0  0  0  0  0
  179.8840  182.1710  137.6240 O   0  0  0  0  0  0  0  0  0  0  0  0
  181.5560  184.7700  136.4790 O   0  0  0  0  0  0  0  0  0  0  0  0
  179.3980  184.3370  136.7930 C   0  0  0  0  0  3  0  0  0  0  0  0
  180.1140  183.5520  137.8380 C   0  0  2  0  0  3  0  0  0  0  0  0
  180.2630  185.0030  136.0540 C   0  0  0  0  0  3  0  0  0  0  0  0
  181.5840  183.8790  137.5800 C   0  0  0  0  0  2  0  0  0  0  0  0
  1 26  1  1  0  0  0
  3 16  1  0  0  0  0
  4 23  1  0  0  0  0
  5 15  1  0  0  0  0
  6 19  1  0  0  0  0
  7  3  2  0  0  0  0
  8 12  1  0  0  0  0
  9 27  1  0  0  0  0
 10 17  1  0  0  0  0
 11  5  2  0  0  0  0
 11 20  1  0  0  0  0
 13 20  1  0  0  0  0
 13  9  1  0  0  0  0
 14  2  1  0  0  0  0
 15 12  1  0  0  0  0
 15  4  2  0  0  0  0
 16  8  1  0  0  0  0
 17 28  2  0  0  0  0
 17 25  1  0  0  0  0
 18  4  1  0  0  0  0
 18  1  1  0  0  0  0
 19  3  1  0  0  0  0
 19  5  1  0  0  0  0
 20 18  2  0  0  0  0
 22 10  1  0  0  0  0
 22 24  1  0  0  0  0
 23 21  1  0  0  0  0
 24 13  1  0  0  0  0
 25  9  1  0  0  0  0
 25 14  1  0  0  0  0
 26 21  1  0  0  0  0
 27  1  1  0  0  0  0
 27  2  1  0  0  0  0
 29 32  1  0  0  0  0
 29 28  1  0  0  0  0
 30 34  1  0  0  0  0
 31 32  1  0  0  0  0
 33 30  1  0  0  0  0
 33 31  2  0  0  0  0
 34 32  1  0  0  0  0
M  END
>  <MODEL>
8

>  <REMARK>
 VINA RESULT:      -7.6      3.453      8.991
  Name = 
  2 active torsions:
  status: ('A' for Active; 'I' for Inactive)
    1  A    between atoms: N_28  and  O_29
    2  A    between atoms: O_29  and  C_32
                            x       y       z     vdW  Elec       q    Type
                         _______ _______ _______ _____ _____    ______ ____

>  <TORSDO>
F 2

$$$$
=
 OpenBabel11122412233D

 34 40  0  0  1  0  0  0  0  0999 V2000
  186.3150  178.5900  142.7210 C   0  0  1  0  0  3  0  0  0  0  0  0
  188.5540  178.0060  142.0000 C   0  0  0  0  0  2  0  0  0  0  0  0
  179.8540  177.6690  141.5090 C   0  0  0  0  0  0  0  0  0  0  0  0
  183.8170  178.6280  143.2710 C   0  0  0  0  0  0  0  0  0  0  0  0
  182.1770  178.5880  141.4600 C   0  0  0  0  0  0  0  0  0  0  0  0
  180.7100  178.6690  139.3740 C   0  0  0  0  0  1  0  0  0  0  0  0
  179.5010  176.6350  140.8810 O   0  0  0  0  0  0  0  0  0  0  0  0
  179.9710  178.9730  143.6100 C   0  0  0  0  0  2  0  0  0  0  0  0
  186.9630  178.5890  140.4830 C   0  0  2  0  0  3  0  0  0  0  0  0
  187.0090  177.6340  137.3980 C   0  0  0  0  0  2  0  0  0  0  0  0
  183.2070  178.4870  140.5750 N   0  0  0  0  0  0  0  0  0  0  0  0
  181.4150  178.6520  143.9680 C   0  0  0  0  0  2  0  0  0  0  0  0
  185.5820  178.2700  139.8900 C   0  0  1  0  0  3  0  0  0  0  0  0
  189.2420  177.8630  140.6510 C   0  0  0  0  0  2  0  0  0  0  0  0
  182.4630  178.6630  142.8590 C   0  0  0  0  0  0  0  0  0  0  0  0
  179.4060  177.8780  142.8420 N   0  0  0  0  0  2  0  0  0  0  0  0
  187.9410  177.2870  138.5350 C   0  0  0  0  0  0  0  0  0  0  0  0
  184.8460  178.5400  142.3110 C   0  0  0  0  0  0  0  0  0  0  0  0
  180.7750  178.6790  140.8990 C   0  0  1  0  0  3  0  0  0  0  0  0
  184.5110  178.4770  140.9440 C   0  0  0  0  0  0  0  0  0  0  0  0
  185.6130  178.8100  145.0730 C   0  0  0  0  0  2  0  0  0  0  0  0
  186.3800  179.0210  137.5500 C   0  0  0  0  0  2  0  0  0  0  0  0
  184.1490  178.5260  144.7470 C   0  0  0  0  0  2  0  0  0  0  0  0
  185.2790  179.0740  138.6160 C   0  0  0  0  0  2  0  0  0  0  0  0
  188.1970  178.2990  139.6340 C   0  0  1  0  0  3  0  0  0  0  0  0
  186.5080  178.0310  144.1280 C   0  0  0  0  0  2  0  0  0  0  0  0
  187.1280  177.8750  141.7370 N   0  0  2  0  0  0  0  0  0  0  0  0
  188.4960  176.1150  138.5800 N   0  0  0  0  0  0  0  0  0  0  0  0
  188.2750  175.1780  137.5950 O   0  0  0  0  0  0  0  0  0  0  0  0
  190.4870  176.0140  135.3000 O   0  0  0  0  0  0  0  0  0  0  0  0
  190.6340  175.2060  137.3650 C   0  0  0  0  0  3  0  0  0  0  0  0
  189.3510  174.6740  136.8240 C   0  0  2  0  0  3  0  0  0  0  0  0
  191.2310  175.9570  136.4620 C   0  0  0  0  0  3  0  0  0  0  0  0
  189.2950  175.2560  135.4120 C   0  0  0  0  0  2  0  0  0  0  0  0
  1 26  1  1  0  0  0
  3 16  1  0  0  0  0
  4 23  1  0  0  0  0
  5 15  2  0  0  0  0
  6 19  1  0  0  0  0
  7  3  2  0  0  0  0
  8 12  1  0  0  0  0
  9 27  1  0  0  0  0
 10 22  1  0  0  0  0
 10 17  1  0  0  0  0
 11 20  2  0  0  0  0
 11  5  1  0  0  0  0
 13  9  1  0  0  0  0
 13 20  1  0  0  0  0
 14  2  1  0  0  0  0
 15  4  1  0  0  0  0
 15 12  1  0  0  0  0
 16  8  1  0  0  0  0
 17 28  2  0  0  0  0
 17 25  1  0  0  0  0
 18  1  1  0  0  0  0
 18  4  2  0  0  0  0
 19  5  1  0  0  0  0
 19  3  1  0  0  0  0
 20 18  1  0  0  0  0
 22 24  1  0  0  0  0
 23 21  1  0  0  0  0
 24 13  1  0  0  0  0
 25  9  1  0  0  0  0
 25 14  1  0  0  0  0
 26 21  1  0  0  0  0
 27  2  1  0  0  0  0
 27  1  1  0  0  0  0
 29 28  1  0  0  0  0
 30 34  1  0  0  0  0
 30 33  1  0  0  0  0
 32 31  1  0  0  0  0
 32 29  1  0  0  0  0
 33 31  2  0  0  0  0
 34 32  1  0  0  0  0
M  END
>  <MODEL>
9

>  <REMARK>
 VINA RESULT:      -7.6      1.733      2.506
  Name = 
  2 active torsions:
  status: ('A' for Active; 'I' for Inactive)
    1  A    between atoms: N_28  and  O_29
    2  A    between atoms: O_29  and  C_32
                            x       y       z     vdW  Elec       q    Type
                         _______ _______ _______ _____ _____    ______ ____

>  <TORSDO>
F 2

$$$$
