=
 OpenBabel11122410463D

 32 37  0  0  1  0  0  0  0  0999 V2000
  186.0030  178.4250  146.7050 C   0  0  0  0  0  2  0  0  0  0  0  0
  185.0860  178.1460  141.0260 C   0  0  1  0  0  3  0  0  0  0  0  0
  189.2560  178.4460  138.2970 C   0  0  0  0  0  3  0  0  0  0  0  0
  188.5410  178.0150  137.1800 C   0  0  0  0  0  3  0  0  0  0  0  0
  182.8450  178.1530  139.7880 C   0  0  2  0  0  3  0  0  0  0  0  0
  182.3100  177.1920  138.7120 C   0  0  2  0  0  3  0  0  0  0  0  0
  185.3050  178.9260  143.4690 C   0  0  2  0  0  3  0  0  0  0  0  0
  187.3340  178.1040  142.1530 C   0  0  0  0  0  2  0  0  0  0  0  0
  183.2150  175.8020  137.0450 C   0  0  0  0  0  0  0  0  0  0  0  0
  187.4230  178.0790  144.6330 C   0  0  0  0  0  2  0  0  0  0  0  0
  188.6020  178.6300  139.5170 C   0  0  0  0  0  3  0  0  0  0  0  0
  186.5360  178.6440  140.9580 C   0  0  1  0  0  3  0  0  0  0  0  0
  187.2270  178.3740  139.6360 C   0  0  0  0  0  0  0  0  0  0  0  0
  185.0250  177.6690  138.5930 C   0  0  2  0  0  3  0  0  0  0  0  0
  182.8960  175.0050  138.0020 N   0  0  0  0  0  0  0  0  0  0  0  0
  185.1560  179.4240  145.9110 C   0  0  0  0  0  2  0  0  0  0  0  0
  186.4970  177.9410  143.4310 C   0  0  1  0  0  3  0  0  0  0  0  0
  182.4230  175.7370  139.1640 C   0  0  0  0  0  2  0  0  0  0  0  0
  184.4510  178.7840  144.7240 C   0  0  0  0  0  2  0  0  0  0  0  0
  186.7890  177.4250  145.8540 C   0  0  1  0  0  3  0  0  0  0  0  0
  187.1690  177.7810  137.2770 C   0  0  0  0  0  3  0  0  0  0  0  0
  186.4940  177.9890  138.4890 C   0  0  0  0  0  0  0  0  0  0  0  0
  184.3120  177.9460  137.3490 N   0  0  0  0  0  2  0  0  0  0  0  0
  184.3900  178.7730  142.2440 C   0  0  0  0  0  2  0  0  0  0  0  0
  182.0770  179.4580  139.7270 C   0  0  0  0  0  1  0  0  0  0  0  0
  183.7090  175.3200  135.8000 N   0  0  0  0  0  1  0  0  0  0  0  0
  184.3540  178.4470  139.7190 C   0  0  2  0  0  3  0  0  0  0  0  0
  183.0190  177.2430  137.3380 C   0  0  2  0  0  3  0  0  0  0  0  0
  187.8550  176.7700  146.7180 C   0  0  0  0  0  2  0  0  0  0  0  0
  189.0540  177.6870  146.8990 C   0  0  2  0  0  3  0  0  0  0  0  0
  190.2270  177.0040  146.5790 O   0  0  0  0  0  1  0  0  0  0  0  0
  189.1190  178.1480  148.3400 C   0  0  0  0  0  1  0  0  0  0  0  0
  2 24  1  1  0  0  0
  3 11  1  0  0  0  0
  4 21  1  0  0  0  0
  4  3  2  0  0  0  0
  5 25  1  6  0  0  0
  6 18  1  1  0  0  0
  6  5  1  0  0  0  0
  7 24  1  6  0  0  0
  7 19  1  0  0  0  0
  9 28  1  0  0  0  0
  9 15  2  0  0  0  0
 10 20  1  0  0  0  0
 11 13  2  0  0  0  0
 12  2  1  0  0  0  0
 12  8  1  1  0  0  0
 13 12  1  0  0  0  0
 14 23  1  6  0  0  0
 14 27  1  0  0  0  0
 15 18  1  0  0  0  0
 16  1  1  0  0  0  0
 17  8  1  6  0  0  0
 17  7  1  0  0  0  0
 17 10  1  0  0  0  0
 19 16  1  0  0  0  0
 20  1  1  0  0  0  0
 20 29  1  1  0  0  0
 21 22  2  0  0  0  0
 22 14  1  0  0  0  0
 22 13  1  0  0  0  0
 26  9  1  0  0  0  0
 27  5  1  0  0  0  0
 27  2  1  0  0  0  0
 28 23  1  0  0  0  0
 28  6  1  0  0  0  0
 29 30  1  0  0  0  0
 30 32  1  0  0  0  0
 31 30  1  0  0  0  0
M  END
>  <MODEL>
1

>  <REMARK>
 VINA RESULT:      -9.2      0.000      0.000
  Name = 
  2 active torsions:
  status: ('A' for Active; 'I' for Inactive)
    1  A    between atoms: C_20  and  C_29
    2  A    between atoms: C_29  and  C_30
                            x       y       z     vdW  Elec       q    Type
                         _______ _______ _______ _____ _____    ______ ____

>  <TORSDO>
F 2

$$$$
=
 OpenBabel11122410463D

 32 37  0  0  1  0  0  0  0  0999 V2000
  185.5910  178.6200  144.6310 C   0  0  0  0  0  2  0  0  0  0  0  0
  188.2430  177.3970  139.6680 C   0  0  1  0  0  3  0  0  0  0  0  0
  193.2170  177.1730  140.0480 C   0  0  0  0  0  3  0  0  0  0  0  0
  193.2730  176.5690  138.7910 C   0  0  0  0  0  3  0  0  0  0  0  0
  187.2150  177.2240  137.3310 C   0  0  2  0  0  3  0  0  0  0  0  0
  187.3280  176.1030  136.2840 C   0  0  2  0  0  3  0  0  0  0  0  0
  187.0390  178.5760  141.6140 C   0  0  2  0  0  3  0  0  0  0  0  0
  189.3410  177.5150  141.9290 C   0  0  0  0  0  2  0  0  0  0  0  0
  188.8870  174.4390  135.7090 C   0  0  0  0  0  0  0  0  0  0  0  0
  187.9190  177.9080  143.9240 C   0  0  0  0  0  2  0  0  0  0  0  0
  191.9880  177.5700  140.5770 C   0  0  0  0  0  3  0  0  0  0  0  0
  189.4890  177.8550  140.4390 C   0  0  1  0  0  3  0  0  0  0  0  0
  190.7990  177.3570  139.8630 C   0  0  0  0  0  0  0  0  0  0  0  0
  189.6030  176.5160  137.7900 C   0  0  2  0  0  3  0  0  0  0  0  0
  187.9680  173.8200  136.3610 N   0  0  0  0  0  0  0  0  0  0  0  0
  185.5120  179.4810  143.3680 C   0  0  0  0  0  2  0  0  0  0  0  0
  187.8920  177.5810  142.4360 C   0  0  1  0  0  3  0  0  0  0  0  0
  186.9800  174.7440  136.8880 C   0  0  0  0  0  2  0  0  0  0  0  0
  185.5930  178.6590  142.0900 C   0  0  0  0  0  2  0  0  0  0  0  0
  186.6100  177.4790  144.5730 C   0  0  1  0  0  3  0  0  0  0  0  0
  192.1020  176.3740  138.0580 C   0  0  0  0  0  3  0  0  0  0  0  0
  190.8630  176.7930  138.5660 C   0  0  0  0  0  0  0  0  0  0  0  0
  189.8170  176.5880  136.3470 N   0  0  0  0  0  2  0  0  0  0  0  0
  187.0330  178.2300  140.1160 C   0  0  0  0  0  2  0  0  0  0  0  0
  186.7930  178.5110  136.6490 C   0  0  0  0  0  1  0  0  0  0  0  0
  189.9700  173.7470  135.0980 N   0  0  0  0  0  1  0  0  0  0  0  0
  188.4840  177.4820  138.1620 C   0  0  2  0  0  3  0  0  0  0  0  0
  188.7200  175.9110  135.6370 C   0  0  2  0  0  3  0  0  0  0  0  0
  186.8600  176.9650  145.9820 C   0  0  0  0  0  2  0  0  0  0  0  0
  188.0230  177.6960  146.6340 C   0  0  2  0  0  3  0  0  0  0  0  0
  189.0620  176.8010  146.8910 O   0  0  0  0  0  1  0  0  0  0  0  0
  187.5600  178.3140  147.9360 C   0  0  0  0  0  1  0  0  0  0  0  0
  2 24  1  6  0  0  0
  2 12  1  0  0  0  0
  3 11  1  0  0  0  0
  4  3  2  0  0  0  0
  5 25  1  6  0  0  0
  5 27  1  0  0  0  0
  6 18  1  1  0  0  0
  6  5  1  0  0  0  0
  7 24  1  6  0  0  0
  7 19  1  0  0  0  0
  7 17  1  0  0  0  0
  9 15  2  0  0  0  0
 10 20  1  0  0  0  0
 12  8  1  1  0  0  0
 13 12  1  0  0  0  0
 13 11  2  0  0  0  0
 14 23  1  6  0  0  0
 14 27  1  0  0  0  0
 14 22  1  0  0  0  0
 15 18  1  0  0  0  0
 16  1  1  0  0  0  0
 17  8  1  6  0  0  0
 17 10  1  0  0  0  0
 19 16  1  0  0  0  0
 20  1  1  0  0  0  0
 20 29  1  1  0  0  0
 21 22  2  0  0  0  0
 21  4  1  0  0  0  0
 22 13  1  0  0  0  0
 26  9  1  0  0  0  0
 27  2  1  0  0  0  0
 28  9  1  0  0  0  0
 28  6  1  0  0  0  0
 28 23  1  0  0  0  0
 29 30  1  0  0  0  0
 30 31  1  0  0  0  0
 30 32  1  0  0  0  0
M  END
>  <MODEL>
2

>  <REMARK>
 VINA RESULT:      -9.0      2.730      4.101
  Name = 
  2 active torsions:
  status: ('A' for Active; 'I' for Inactive)
    1  A    between atoms: C_20  and  C_29
    2  A    between atoms: C_29  and  C_30
                            x       y       z     vdW  Elec       q    Type
                         _______ _______ _______ _____ _____    ______ ____

>  <TORSDO>
F 2

$$$$
=
 OpenBabel11122410463D

 32 37  0  0  1  0  0  0  0  0999 V2000
  186.1540  178.4990  146.6430 C   0  0  0  0  0  2  0  0  0  0  0  0
  184.2970  178.1980  141.2000 C   0  0  1  0  0  3  0  0  0  0  0  0
  187.9670  178.2670  137.8150 C   0  0  0  0  0  3  0  0  0  0  0  0
  187.0570  177.8570  136.8390 C   0  0  0  0  0  3  0  0  0  0  0  0
  181.8840  178.2960  140.3480 C   0  0  2  0  0  3  0  0  0  0  0  0
  181.1360  177.3500  139.3940 C   0  0  2  0  0  3  0  0  0  0  0  0
  184.9530  178.9950  143.5580 C   0  0  2  0  0  3  0  0  0  0  0  0
  186.6970  178.0620  141.9410 C   0  0  0  0  0  2  0  0  0  0  0  0
  181.6890  175.8990  137.6280 C   0  0  0  0  0  0  0  0  0  0  0  0
  187.1940  178.0610  144.3720 C   0  0  0  0  0  2  0  0  0  0  0  0
  187.5320  178.4960  139.1220 C   0  0  0  0  0  3  0  0  0  0  0  0
  185.7370  178.6250  140.8830 C   0  0  1  0  0  3  0  0  0  0  0  0
  186.1860  178.3070  139.4720 C   0  0  0  0  0  0  0  0  0  0  0  0
  183.8120  177.6960  138.8190 C   0  0  2  0  0  3  0  0  0  0  0  0
  181.4960  175.1290  138.6390 N   0  0  0  0  0  0  0  0  0  0  0  0
  185.2330  179.5280  145.9800 C   0  0  0  0  0  2  0  0  0  0  0  0
  186.0760  177.9530  143.3420 C   0  0  1  0  0  3  0  0  0  0  0  0
  181.2560  175.8970  139.8490 C   0  0  0  0  0  2  0  0  0  0  0  0
  184.3130  178.9080  144.9390 C   0  0  0  0  0  2  0  0  0  0  0  0
  186.7430  177.4520  145.6940 C   0  0  1  0  0  3  0  0  0  0  0  0
  185.7110  177.6900  137.1660 C   0  0  0  0  0  3  0  0  0  0  0  0
  185.2560  177.9440  138.4690 C   0  0  0  0  0  0  0  0  0  0  0  0
  182.9160  177.9920  137.7050 N   0  0  0  0  0  2  0  0  0  0  0  0
  183.8410  178.8710  142.5030 C   0  0  0  0  0  2  0  0  0  0  0  0
  181.1760  179.6360  140.3890 C   0  0  0  0  0  1  0  0  0  0  0  0
  181.9470  175.3800  136.3280 N   0  0  0  0  0  1  0  0  0  0  0  0
  183.3730  178.5180  140.0250 C   0  0  2  0  0  3  0  0  0  0  0  0
  181.6080  177.3510  137.9220 C   0  0  2  0  0  3  0  0  0  0  0  0
  187.9060  176.7570  146.3820 C   0  0  0  0  0  2  0  0  0  0  0  0
  189.0630  177.7180  146.6080 C   0  0  2  0  0  3  0  0  0  0  0  0
  190.2170  177.2220  146.0000 O   0  0  0  0  0  1  0  0  0  0  0  0
  189.3040  177.8710  148.0940 C   0  0  0  0  0  1  0  0  0  0  0  0
  2 24  1  1  0  0  0
  3 11  1  0  0  0  0
  4 21  1  0  0  0  0
  4  3  2  0  0  0  0
  5 25  1  6  0  0  0
  6 18  1  1  0  0  0
  6  5  1  0  0  0  0
  7 24  1  6  0  0  0
  7 19  1  0  0  0  0
  9 28  1  0  0  0  0
  9 15  2  0  0  0  0
 10 20  1  0  0  0  0
 11 13  2  0  0  0  0
 12  2  1  0  0  0  0
 12  8  1  1  0  0  0
 13 12  1  0  0  0  0
 14 23  1  6  0  0  0
 14 27  1  0  0  0  0
 15 18  1  0  0  0  0
 16  1  1  0  0  0  0
 17  8  1  6  0  0  0
 17  7  1  0  0  0  0
 17 10  1  0  0  0  0
 19 16  1  0  0  0  0
 20 29  1  1  0  0  0
 20  1  1  0  0  0  0
 21 22  2  0  0  0  0
 22 14  1  0  0  0  0
 22 13  1  0  0  0  0
 23 28  1  0  0  0  0
 26  9  1  0  0  0  0
 27  5  1  0  0  0  0
 27  2  1  0  0  0  0
 28  6  1  0  0  0  0
 29 30  1  0  0  0  0
 30 32  1  0  0  0  0
 31 30  1  0  0  0  0
M  END
>  <MODEL>
3

>  <REMARK>
 VINA RESULT:      -8.7      0.939      1.055
  Name = 
  2 active torsions:
  status: ('A' for Active; 'I' for Inactive)
    1  A    between atoms: C_20  and  C_29
    2  A    between atoms: C_29  and  C_30
                            x       y       z     vdW  Elec       q    Type
                         _______ _______ _______ _____ _____    ______ ____

>  <TORSDO>
F 2

$$$$
=
 OpenBabel11122410463D

 32 37  0  0  1  0  0  0  0  0999 V2000
  186.3090  178.5250  146.6630 C   0  0  0  0  0  2  0  0  0  0  0  0
  183.1870  178.2800  141.8310 C   0  0  1  0  0  3  0  0  0  0  0  0
  185.9340  178.2060  137.6620 C   0  0  0  0  0  3  0  0  0  0  0  0
  184.8030  177.8280  136.9380 C   0  0  0  0  0  3  0  0  0  0  0  0
  180.6460  178.4650  141.5840 C   0  0  2  0  0  3  0  0  0  0  0  0
  179.6570  177.5450  140.8480 C   0  0  2  0  0  3  0  0  0  0  0  0
  184.4200  179.0570  143.9530 C   0  0  2  0  0  3  0  0  0  0  0  0
  185.6890  178.0570  141.9740 C   0  0  0  0  0  2  0  0  0  0  0  0
  179.7170  176.0700  139.0170 C   0  0  0  0  0  0  0  0  0  0  0  0
  186.7570  178.0440  144.2150 C   0  0  0  0  0  2  0  0  0  0  0  0
  185.8350  178.4550  139.0330 C   0  0  0  0  0  3  0  0  0  0  0  0
  184.5220  178.6530  141.1730 C   0  0  1  0  0  3  0  0  0  0  0  0
  184.6070  178.3160  139.6980 C   0  0  0  0  0  0  0  0  0  0  0  0
  182.1270  177.7910  139.6420 C   0  0  2  0  0  3  0  0  0  0  0  0
  179.7470  175.3100  140.0530 N   0  0  0  0  0  0  0  0  0  0  0  0
  185.2930  179.5850  146.2300 C   0  0  0  0  0  2  0  0  0  0  0  0
  185.4200  177.9750  143.4850 C   0  0  1  0  0  3  0  0  0  0  0  0
  179.8320  176.0890  141.2760 C   0  0  0  0  0  2  0  0  0  0  0  0
  184.1280  178.9970  145.4480 C   0  0  0  0  0  2  0  0  0  0  0  0
  186.6160  177.4550  145.6120 C   0  0  1  0  0  3  0  0  0  0  0  0
  183.5700  177.7120  137.5810 C   0  0  0  0  0  3  0  0  0  0  0  0
  183.4510  177.9850  138.9520 C   0  0  0  0  0  0  0  0  0  0  0  0
  180.9990  178.1160  138.7730 N   0  0  0  0  0  2  0  0  0  0  0  0
  183.0830  178.9720  143.1980 C   0  0  0  0  0  2  0  0  0  0  0  0
  180.0160  179.8300  141.7790 C   0  0  0  0  0  1  0  0  0  0  0  0
  179.6360  175.5390  137.6990 N   0  0  0  0  0  1  0  0  0  0  0  0
  182.0190  178.6310  140.9100 C   0  0  2  0  0  3  0  0  0  0  0  0
  179.7610  177.5250  139.3050 C   0  0  2  0  0  3  0  0  0  0  0  0
  187.8860  176.7190  146.0080 C   0  0  0  0  0  2  0  0  0  0  0  0
  189.0140  177.6940  146.3030 C   0  0  2  0  0  3  0  0  0  0  0  0
  190.0230  177.5550  145.3490 O   0  0  0  0  0  1  0  0  0  0  0  0
  189.5800  177.4050  147.6770 C   0  0  0  0  0  1  0  0  0  0  0  0
  2 24  1  1  0  0  0
  3 11  1  0  0  0  0
  4 21  1  0  0  0  0
  4  3  2  0  0  0  0
  5 25  1  6  0  0  0
  6 18  1  1  0  0  0
  6  5  1  0  0  0  0
  7 24  1  6  0  0  0
  7 19  1  0  0  0  0
  9 28  1  0  0  0  0
  9 15  2  0  0  0  0
 10 20  1  0  0  0  0
 11 13  2  0  0  0  0
 12  2  1  0  0  0  0
 12  8  1  1  0  0  0
 13 12  1  0  0  0  0
 14 23  1  6  0  0  0
 14 27  1  0  0  0  0
 15 18  1  0  0  0  0
 16  1  1  0  0  0  0
 17  8  1  6  0  0  0
 17  7  1  0  0  0  0
 17 10  1  0  0  0  0
 19 16  1  0  0  0  0
 20 29  1  1  0  0  0
 20  1  1  0  0  0  0
 21 22  2  0  0  0  0
 22 14  1  0  0  0  0
 22 13  1  0  0  0  0
 23 28  1  0  0  0  0
 26  9  1  0  0  0  0
 27  5  1  0  0  0  0
 27  2  1  0  0  0  0
 28  6  1  0  0  0  0
 29 30  1  0  0  0  0
 30 32  1  0  0  0  0
 31 30  1  0  0  0  0
M  END
>  <MODEL>
4

>  <REMARK>
 VINA RESULT:      -8.5      1.874      2.615
  Name = 
  2 active torsions:
  status: ('A' for Active; 'I' for Inactive)
    1  A    between atoms: C_20  and  C_29
    2  A    between atoms: C_29  and  C_30
                            x       y       z     vdW  Elec       q    Type
                         _______ _______ _______ _____ _____    ______ ____

>  <TORSDO>
F 2

$$$$
=
 OpenBabel11122410463D

 32 37  0  0  1  0  0  0  0  0999 V2000
  184.5370  178.9610  144.8380 C   0  0  0  0  0  2  0  0  0  0  0  0
  183.5570  177.6600  139.3150 C   0  0  1  0  0  3  0  0  0  0  0  0
  187.4330  178.5970  136.3090 C   0  0  0  0  0  3  0  0  0  0  0  0
  186.8190  177.8470  135.3050 C   0  0  0  0  0  3  0  0  0  0  0  0
  181.3540  176.9340  138.2320 C   0  0  2  0  0  3  0  0  0  0  0  0
  181.0510  175.7280  137.3260 C   0  0  2  0  0  3  0  0  0  0  0  0
  183.6410  178.8090  141.6170 C   0  0  2  0  0  3  0  0  0  0  0  0
  185.7740  178.3390  140.2910 C   0  0  0  0  0  2  0  0  0  0  0  0
  182.2320  174.3840  135.8000 C   0  0  0  0  0  0  0  0  0  0  0  0
  185.9380  178.6880  142.7430 C   0  0  0  0  0  2  0  0  0  0  0  0
  186.7880  178.7840  137.5330 C   0  0  0  0  0  3  0  0  0  0  0  0
  184.8300  178.4880  139.0890 C   0  0  1  0  0  3  0  0  0  0  0  0
  185.5280  178.2140  137.7730 C   0  0  0  0  0  0  0  0  0  0  0  0
  183.5500  176.8430  136.9730 C   0  0  2  0  0  3  0  0  0  0  0  0
  182.1540  173.6770  136.8700 N   0  0  0  0  0  0  0  0  0  0  0  0
  183.4410  179.5950  143.9770 C   0  0  0  0  0  2  0  0  0  0  0  0
  185.0430  178.1550  141.6300 C   0  0  1  0  0  3  0  0  0  0  0  0
  181.5440  174.4260  137.9550 C   0  0  0  0  0  2  0  0  0  0  0  0
  182.8880  178.6380  142.9310 C   0  0  0  0  0  2  0  0  0  0  0  0
  185.5280  178.0780  144.0760 C   0  0  1  0  0  3  0  0  0  0  0  0
  185.5550  177.2960  135.5190 C   0  0  0  0  0  3  0  0  0  0  0  0
  184.8840  177.5000  136.7350 C   0  0  0  0  0  0  0  0  0  0  0  0
  182.7540  176.7540  135.7520 N   0  0  0  0  0  2  0  0  0  0  0  0
  182.7600  178.2610  140.4820 C   0  0  0  0  0  2  0  0  0  0  0  0
  180.2770  177.9850  138.0510 C   0  0  0  0  0  1  0  0  0  0  0  0
  182.7950  173.8690  134.5990 N   0  0  0  0  0  1  0  0  0  0  0  0
  182.7350  177.5810  138.0290 C   0  0  2  0  0  3  0  0  0  0  0  0
  181.6830  175.7580  135.9150 C   0  0  2  0  0  3  0  0  0  0  0  0
  186.7500  177.8370  144.9480 C   0  0  0  0  0  2  0  0  0  0  0  0
  187.9230  177.3350  144.1210 C   0  0  2  0  0  3  0  0  0  0  0  0
  187.6380  176.0670  143.6150 O   0  0  0  0  0  1  0  0  0  0  0  0
  189.1570  177.2610  144.9940 C   0  0  0  0  0  1  0  0  0  0  0  0
  2 24  1  1  0  0  0
  3 11  1  0  0  0  0
  4 21  1  0  0  0  0
  4  3  2  0  0  0  0
  5 25  1  6  0  0  0
  6 18  1  1  0  0  0
  6  5  1  0  0  0  0
  7 24  1  6  0  0  0
  7 17  1  0  0  0  0
  7 19  1  0  0  0  0
  9 28  1  0  0  0  0
  9 15  2  0  0  0  0
 10 20  1  0  0  0  0
 11 13  2  0  0  0  0
 12  2  1  0  0  0  0
 12  8  1  1  0  0  0
 13 12  1  0  0  0  0
 14 23  1  6  0  0  0
 14 27  1  0  0  0  0
 15 18  1  0  0  0  0
 16  1  1  0  0  0  0
 17  8  1  6  0  0  0
 17 10  1  0  0  0  0
 19 16  1  0  0  0  0
 20  1  1  0  0  0  0
 20 29  1  1  0  0  0
 21 22  2  0  0  0  0
 22 14  1  0  0  0  0
 22 13  1  0  0  0  0
 23 28  1  0  0  0  0
 26  9  1  0  0  0  0
 27  5  1  0  0  0  0
 27  2  1  0  0  0  0
 28  6  1  0  0  0  0
 30 29  1  0  0  0  0
 30 32  1  0  0  0  0
 31 30  1  0  0  0  0
M  END
>  <MODEL>
5

>  <REMARK>
 VINA RESULT:      -7.6      1.741      2.549
  Name = 
  2 active torsions:
  status: ('A' for Active; 'I' for Inactive)
    1  A    between atoms: C_20  and  C_29
    2  A    between atoms: C_29  and  C_30
                            x       y       z     vdW  Elec       q    Type
                         _______ _______ _______ _____ _____    ______ ____

>  <TORSDO>
F 2

$$$$
=
 OpenBabel11122410463D

 32 37  0  0  1  0  0  0  0  0999 V2000
  180.3860  179.4030  140.1550 C   0  0  0  0  0  2  0  0  0  0  0  0
  185.9850  178.2530  139.4540 C   0  0  1  0  0  3  0  0  0  0  0  0
  188.5010  177.8120  143.7440 C   0  0  0  0  0  3  0  0  0  0  0  0
  189.5700  177.2520  143.0450 C   0  0  0  0  0  3  0  0  0  0  0  0
  187.3250  178.2070  137.2730 C   0  0  2  0  0  3  0  0  0  0  0  0
  188.2580  177.1210  136.7110 C   0  0  2  0  0  3  0  0  0  0  0  0
  183.6920  179.4090  139.6310 C   0  0  2  0  0  3  0  0  0  0  0  0
  184.7480  178.2440  141.6440 C   0  0  0  0  0  2  0  0  0  0  0  0
  189.6280  175.4160  137.5760 C   0  0  0  0  0  0  0  0  0  0  0  0
  182.2950  178.6230  141.6290 C   0  0  0  0  0  2  0  0  0  0  0  0
  187.3640  178.2400  143.0550 C   0  0  0  0  0  3  0  0  0  0  0  0
  186.0560  178.6320  140.9390 C   0  0  1  0  0  3  0  0  0  0  0  0
  187.2780  178.1020  141.6610 C   0  0  0  0  0  0  0  0  0  0  0  0
  188.3090  177.3860  139.4580 C   0  0  2  0  0  3  0  0  0  0  0  0
  188.5730  174.8120  137.1580 N   0  0  0  0  0  0  0  0  0  0  0  0
  181.3750  180.3120  139.4200 C   0  0  0  0  0  2  0  0  0  0  0  0
  183.5070  178.3520  140.7450 C   0  0  1  0  0  3  0  0  0  0  0  0
  187.5710  175.7560  136.6950 C   0  0  0  0  0  2  0  0  0  0  0  0
  182.4770  179.5340  138.7180 C   0  0  0  0  0  2  0  0  0  0  0  0
  181.0200  178.2250  140.8980 C   0  0  1  0  0  3  0  0  0  0  0  0
  189.5100  177.1320  141.6560 C   0  0  0  0  0  3  0  0  0  0  0  0
  188.3840  177.5830  140.9490 C   0  0  0  0  0  0  0  0  0  0  0  0
  189.6170  177.5010  138.8190 N   0  0  0  0  0  2  0  0  0  0  0  0
  184.9230  179.1180  138.7580 C   0  0  0  0  0  2  0  0  0  0  0  0
  187.6370  179.5340  136.6090 C   0  0  0  0  0  1  0  0  0  0  0  0
  190.7500  174.7030  138.0820 N   0  0  0  0  0  1  0  0  0  0  0  0
  187.3600  178.3830  138.8020 C   0  0  2  0  0  3  0  0  0  0  0  0
  189.5820  176.8960  137.4780 C   0  0  2  0  0  3  0  0  0  0  0  0
  180.0070  177.6500  141.8740 C   0  0  0  0  0  2  0  0  0  0  0  0
  180.0590  178.3760  143.2090 C   0  0  2  0  0  3  0  0  0  0  0  0
  179.8830  177.4660  144.2520 O   0  0  0  0  0  1  0  0  0  0  0  0
  178.9580  179.4140  143.2580 C   0  0  0  0  0  1  0  0  0  0  0  0
  1 20  1  0  0  0  0
  2 24  1  6  0  0  0
  2 12  1  0  0  0  0
  4  3  2  0  0  0  0
  5 25  1  6  0  0  0
  5 27  1  0  0  0  0
  6 18  1  1  0  0  0
  6  5  1  0  0  0  0
  6 28  1  0  0  0  0
  7 19  1  6  0  0  0
  7 17  1  0  0  0  0
  9 26  1  0  0  0  0
 11  3  1  0  0  0  0
 12  8  1  1  0  0  0
 12 13  1  0  0  0  0
 13 11  2  0  0  0  0
 14 23  1  6  0  0  0
 14 22  1  0  0  0  0
 15  9  2  0  0  0  0
 16  1  1  0  0  0  0
 17 10  1  1  0  0  0
 17  8  1  0  0  0  0
 18 15  1  0  0  0  0
 19 16  1  0  0  0  0
 20 10  1  0  0  0  0
 20 29  1  1  0  0  0
 21  4  1  0  0  0  0
 22 21  2  0  0  0  0
 22 13  1  0  0  0  0
 24  7  1  0  0  0  0
 27  2  1  0  0  0  0
 27 14  1  0  0  0  0
 28  9  1  0  0  0  0
 28 23  1  0  0  0  0
 29 30  1  0  0  0  0
 30 32  1  0  0  0  0
 30 31  1  0  0  0  0
M  END
>  <MODEL>
6

>  <REMARK>
 VINA RESULT:      -7.5      3.315      6.205
  Name = 
  2 active torsions:
  status: ('A' for Active; 'I' for Inactive)
    1  A    between atoms: C_20  and  C_29
    2  A    between atoms: C_29  and  C_30
                            x       y       z     vdW  Elec       q    Type
                         _______ _______ _______ _____ _____    ______ ____

>  <TORSDO>
F 2

$$$$
=
 OpenBabel11122410463D

 32 37  0  0  1  0  0  0  0  0999 V2000
  192.4450  175.6990  137.1840 C   0  0  0  0  0  2  0  0  0  0  0  0
  190.2470  177.4370  142.2150 C   0  0  1  0  0  3  0  0  0  0  0  0
  185.3230  178.2540  142.0850 C   0  0  0  0  0  3  0  0  0  0  0  0
  185.3050  178.2930  143.4790 C   0  0  0  0  0  3  0  0  0  0  0  0
  191.5060  178.0670  144.3530 C   0  0  2  0  0  3  0  0  0  0  0  0
  191.3030  177.5800  145.7980 C   0  0  2  0  0  3  0  0  0  0  0  0
  191.4090  177.3240  139.9210 C   0  0  2  0  0  3  0  0  0  0  0  0
  188.9200  176.8110  140.1720 C   0  0  0  0  0  2  0  0  0  0  0  0
  189.5260  176.7560  147.0990 C   0  0  0  0  0  0  0  0  0  0  0  0
  190.1290  175.9420  138.1870 C   0  0  0  0  0  2  0  0  0  0  0  0
  186.5310  178.0760  141.4070 C   0  0  0  0  0  3  0  0  0  0  0  0
  189.0330  177.7930  141.3470 C   0  0  1  0  0  3  0  0  0  0  0  0
  187.7330  177.9220  142.1150 C   0  0  0  0  0  0  0  0  0  0  0  0
  188.9860  177.8170  144.3170 C   0  0  2  0  0  3  0  0  0  0  0  0
  190.2110  175.7160  146.7810 N   0  0  0  0  0  0  0  0  0  0  0  0
  192.8550  176.9810  137.9150 C   0  0  0  0  0  2  0  0  0  0  0  0
  190.2770  176.3040  139.6600 C   0  0  1  0  0  3  0  0  0  0  0  0
  191.2910  176.0540  145.8700 C   0  0  0  0  0  2  0  0  0  0  0  0
  192.7710  176.8460  139.4280 C   0  0  0  0  0  2  0  0  0  0  0  0
  191.2330  174.9760  137.7760 C   0  0  1  0  0  3  0  0  0  0  0  0
  186.4960  178.1680  144.1960 C   0  0  0  0  0  3  0  0  0  0  0  0
  187.7200  178.0160  143.5260 C   0  0  0  0  0  0  0  0  0  0  0  0
  188.9750  178.5610  145.5730 N   0  0  0  0  0  2  0  0  0  0  0  0
  191.5350  177.6780  141.4120 C   0  0  0  0  0  2  0  0  0  0  0  0
  192.2610  179.3820  144.3660 C   0  0  0  0  0  1  0  0  0  0  0  0
  188.4110  176.6790  147.9810 N   0  0  0  0  0  1  0  0  0  0  0  0
  190.2210  178.2270  143.5230 C   0  0  2  0  0  3  0  0  0  0  0  0
  189.9940  178.0250  146.4910 C   0  0  2  0  0  3  0  0  0  0  0  0
  190.7090  173.9730  136.7610 C   0  0  0  0  0  2  0  0  0  0  0  0
  189.1890  173.9820  136.7150 C   0  0  2  0  0  3  0  0  0  0  0  0
  188.6920  172.7800  137.2180 O   0  0  0  0  0  1  0  0  0  0  0  0
  188.7320  174.1540  135.2830 C   0  0  0  0  0  1  0  0  0  0  0  0
  1 20  1  0  0  0  0
  1 16  1  0  0  0  0
  2 24  1  6  0  0  0
  2 27  1  0  0  0  0
  3  4  1  0  0  0  0
  4 21  2  0  0  0  0
  5 25  1  1  0  0  0
  5  6  1  0  0  0  0
  6 18  1  6  0  0  0
  6 28  1  0  0  0  0
  7 19  1  1  0  0  0
  7 24  1  0  0  0  0
  9 26  1  0  0  0  0
 11  3  2  0  0  0  0
 11 13  1  0  0  0  0
 12  8  1  6  0  0  0
 12 13  1  0  0  0  0
 12  2  1  0  0  0  0
 13 22  2  0  0  0  0
 14 22  1  6  0  0  0
 14 23  1  0  0  0  0
 15  9  2  0  0  0  0
 16 19  1  0  0  0  0
 17 10  1  6  0  0  0
 17  7  1  0  0  0  0
 17  8  1  0  0  0  0
 18 15  1  0  0  0  0
 20 29  1  6  0  0  0
 20 10  1  0  0  0  0
 22 21  1  0  0  0  0
 23 28  1  0  0  0  0
 27 14  1  0  0  0  0
 27  5  1  0  0  0  0
 28  9  1  0  0  0  0
 30 29  1  0  0  0  0
 30 31  1  0  0  0  0
 32 30  1  0  0  0  0
M  END
>  <MODEL>
7

>  <REMARK>
 VINA RESULT:      -6.7      4.674      9.071
  Name = 
  2 active torsions:
  status: ('A' for Active; 'I' for Inactive)
    1  A    between atoms: C_20  and  C_29
    2  A    between atoms: C_29  and  C_30
                            x       y       z     vdW  Elec       q    Type
                         _______ _______ _______ _____ _____    ______ ____

>  <TORSDO>
F 2

$$$$
=
 OpenBabel11122410463D

 32 37  0  0  1  0  0  0  0  0999 V2000
  189.6140  178.2390  137.6240 C   0  0  0  0  0  2  0  0  0  0  0  0
  184.3760  175.8850  137.1870 C   0  0  1  0  0  3  0  0  0  0  0  0
  184.4450  171.0110  136.1060 C   0  0  0  0  0  3  0  0  0  0  0  0
  183.0940  170.9300  136.4430 C   0  0  0  0  0  3  0  0  0  0  0  0
  182.1070  177.0690  137.2220 C   0  0  2  0  0  3  0  0  0  0  0  0
  180.8560  176.7780  138.0680 C   0  0  2  0  0  3  0  0  0  0  0  0
  186.5750  177.1470  136.7420 C   0  0  2  0  0  3  0  0  0  0  0  0
  186.5560  174.6290  137.1710 C   0  0  0  0  0  2  0  0  0  0  0  0
  179.8850  174.9090  139.1160 C   0  0  0  0  0  0  0  0  0  0  0  0
  188.6610  175.8910  137.5370 C   0  0  0  0  0  2  0  0  0  0  0  0
  185.1060  172.2400  136.1590 C   0  0  0  0  0  3  0  0  0  0  0  0
  185.1560  174.7280  136.5480 C   0  0  1  0  0  3  0  0  0  0  0  0
  184.4260  173.4000  136.5610 C   0  0  0  0  0  0  0  0  0  0  0  0
  182.2930  174.5450  137.3200 C   0  0  2  0  0  3  0  0  0  0  0  0
  180.4500  175.5650  140.0670 N   0  0  0  0  0  0  0  0  0  0  0  0
  188.5500  178.6680  136.6100 C   0  0  0  0  0  2  0  0  0  0  0  0
  187.1410  175.9860  137.5930 C   0  0  1  0  0  3  0  0  0  0  0  0
  181.1990  176.6990  139.5550 C   0  0  0  0  0  2  0  0  0  0  0  0
  187.1330  178.5080  137.1410 C   0  0  0  0  0  2  0  0  0  0  0  0
  189.2800  176.9710  138.4150 C   0  0  1  0  0  3  0  0  0  0  0  0
  182.3980  172.0800  136.8180 C   0  0  0  0  0  3  0  0  0  0  0  0
  183.0430  173.3260  136.8490 C   0  0  0  0  0  0  0  0  0  0  0  0
  180.8840  174.5060  136.9410 N   0  0  0  0  0  2  0  0  0  0  0  0
  185.0410  177.2170  136.8080 C   0  0  0  0  0  2  0  0  0  0  0  0
  181.7140  177.8770  136.0010 C   0  0  0  0  0  1  0  0  0  0  0  0
  179.0950  173.7530  139.3680 N   0  0  0  0  0  1  0  0  0  0  0  0
  182.9060  175.8310  136.7770 C   0  0  2  0  0  3  0  0  0  0  0  0
  180.1120  175.4580  137.7570 C   0  0  2  0  0  3  0  0  0  0  0  0
  190.5460  176.4540  139.0800 C   0  0  0  0  0  2  0  0  0  0  0  0
  190.9750  177.3600  140.2220 C   0  0  2  0  0  3  0  0  0  0  0  0
  192.3630  177.5030  140.2190 O   0  0  0  0  0  1  0  0  0  0  0  0
  190.5360  176.7530  141.5370 C   0  0  0  0  0  1  0  0  0  0  0  0
  1 20  1  0  0  0  0
  2 24  1  6  0  0  0
  3 11  2  0  0  0  0
  3  4  1  0  0  0  0
  4 21  2  0  0  0  0
  5 25  1  6  0  0  0
  5  6  1  0  0  0  0
  6 18  1  1  0  0  0
  7 24  1  1  0  0  0
  7 19  1  0  0  0  0
  7 17  1  0  0  0  0
  9 26  1  0  0  0  0
  9 15  2  0  0  0  0
 10 17  1  0  0  0  0
 10 20  1  0  0  0  0
 11 13  1  0  0  0  0
 12 13  1  0  0  0  0
 12  8  1  1  0  0  0
 12  2  1  0  0  0  0
 13 22  2  0  0  0  0
 14 22  1  6  0  0  0
 16 19  1  0  0  0  0
 16  1  1  0  0  0  0
 17  8  1  6  0  0  0
 18 15  1  0  0  0  0
 20 29  1  6  0  0  0
 21 22  1  0  0  0  0
 23 14  1  0  0  0  0
 23 28  1  0  0  0  0
 27  2  1  0  0  0  0
 27  5  1  0  0  0  0
 27 14  1  0  0  0  0
 28  6  1  0  0  0  0
 28  9  1  0  0  0  0
 29 30  1  0  0  0  0
 30 32  1  0  0  0  0
 31 30  1  0  0  0  0
M  END
>  <MODEL>
8

>  <REMARK>
 VINA RESULT:      -6.5      4.237      6.445
  Name = 
  2 active torsions:
  status: ('A' for Active; 'I' for Inactive)
    1  A    between atoms: C_20  and  C_29
    2  A    between atoms: C_29  and  C_30
                            x       y       z     vdW  Elec       q    Type
                         _______ _______ _______ _____ _____    ______ ____

>  <TORSDO>
F 2

$$$$
=
 OpenBabel11122410463D

 32 37  0  0  1  0  0  0  0  0999 V2000
  190.1930  178.2390  144.6480 C   0  0  0  0  0  2  0  0  0  0  0  0
  189.5990  176.6980  139.1310 C   0  0  1  0  0  3  0  0  0  0  0  0
  193.8850  175.3700  136.9410 C   0  0  0  0  0  3  0  0  0  0  0  0
  193.1600  174.8280  135.8790 C   0  0  0  0  0  3  0  0  0  0  0  0
  187.5100  176.8670  137.6620 C   0  0  2  0  0  3  0  0  0  0  0  0
  186.8290  175.7990  136.7880 C   0  0  2  0  0  3  0  0  0  0  0  0
  189.8440  178.0200  141.3260 C   0  0  2  0  0  3  0  0  0  0  0  0
  191.6950  176.4660  140.5020 C   0  0  0  0  0  2  0  0  0  0  0  0
  187.4790  173.8610  135.6240 C   0  0  0  0  0  0  0  0  0  0  0  0
  191.6170  177.0670  142.9090 C   0  0  0  0  0  2  0  0  0  0  0  0
  193.2180  176.0020  137.9920 C   0  0  0  0  0  3  0  0  0  0  0  0
  191.1280  176.8350  139.1240 C   0  0  1  0  0  3  0  0  0  0  0  0
  191.8170  176.0890  138.0000 C   0  0  0  0  0  0  0  0  0  0  0  0
  189.5820  175.6300  136.8920 C   0  0  2  0  0  3  0  0  0  0  0  0
  186.9170  173.4290  136.6960 N   0  0  0  0  0  0  0  0  0  0  0  0
  189.6630  179.1550  143.5420 C   0  0  0  0  0  2  0  0  0  0  0  0
  190.7630  176.8250  141.6700 C   0  0  1  0  0  3  0  0  0  0  0  0
  186.5610  174.5220  137.5840 C   0  0  0  0  0  2  0  0  0  0  0  0
  188.9020  178.3970  142.4650 C   0  0  0  0  0  2  0  0  0  0  0  0
  190.7690  176.9060  144.1630 C   0  0  1  0  0  3  0  0  0  0  0  0
  191.7690  174.9300  135.8600 C   0  0  0  0  0  3  0  0  0  0  0  0
  191.0870  175.5870  136.8960 C   0  0  0  0  0  0  0  0  0  0  0  0
  189.0360  175.7210  135.5410 N   0  0  0  0  0  2  0  0  0  0  0  0
  188.9980  177.7550  140.0700 C   0  0  0  0  0  2  0  0  0  0  0  0
  187.0830  178.2450  137.1980 C   0  0  0  0  0  1  0  0  0  0  0  0
  187.9210  172.9780  134.5990 N   0  0  0  0  0  1  0  0  0  0  0  0
  189.0460  176.8000  137.7100 C   0  0  2  0  0  3  0  0  0  0  0  0
  187.6160  175.3360  135.5390 C   0  0  2  0  0  3  0  0  0  0  0  0
  191.5890  176.2840  145.2820 C   0  0  0  0  0  2  0  0  0  0  0  0
  191.2950  176.9530  146.6150 C   0  0  2  0  0  3  0  0  0  0  0  0
  192.3500  176.7320  147.5000 O   0  0  0  0  0  1  0  0  0  0  0  0
  190.0230  176.3740  147.1960 C   0  0  0  0  0  1  0  0  0  0  0  0
  2 24  1  1  0  0  0
  3 11  1  0  0  0  0
  4  3  2  0  0  0  0
  5 25  1  6  0  0  0
  5 27  1  0  0  0  0
  6 18  1  1  0  0  0
  6  5  1  0  0  0  0
  7 24  1  6  0  0  0
  7 17  1  0  0  0  0
  7 19  1  0  0  0  0
  9 15  2  0  0  0  0
 10 20  1  0  0  0  0
 11 13  2  0  0  0  0
 12  2  1  0  0  0  0
 12  8  1  1  0  0  0
 13 12  1  0  0  0  0
 14 23  1  6  0  0  0
 14 22  1  0  0  0  0
 14 27  1  0  0  0  0
 15 18  1  0  0  0  0
 16  1  1  0  0  0  0
 17  8  1  6  0  0  0
 17 10  1  0  0  0  0
 19 16  1  0  0  0  0
 20  1  1  0  0  0  0
 20 29  1  1  0  0  0
 21  4  1  0  0  0  0
 21 22  2  0  0  0  0
 22 13  1  0  0  0  0
 26  9  1  0  0  0  0
 27  2  1  0  0  0  0
 28 23  1  0  0  0  0
 28  9  1  0  0  0  0
 28  6  1  0  0  0  0
 29 30  1  0  0  0  0
 30 32  1  0  0  0  0
 30 31  1  0  0  0  0
M  END
>  <MODEL>
9

>  <REMARK>
 VINA RESULT:      -6.4      3.575      4.931
  Name = 
  2 active torsions:
  status: ('A' for Active; 'I' for Inactive)
    1  A    between atoms: C_20  and  C_29
    2  A    between atoms: C_29  and  C_30
                            x       y       z     vdW  Elec       q    Type
                         _______ _______ _______ _____ _____    ______ ____

>  <TORSDO>
F 2

$$$$
