=
 OpenBabel11122410403D

 32 37  0  0  1  0  0  0  0  0999 V2000
  190.8100  176.1390  144.7450 O   0  0  0  0  0  0  0  0  0  0  0  0
  187.8850  178.1810  141.3880 C   0  0  0  0  0  0  0  0  0  0  0  0
  183.2760  178.6890  142.9040 C   0  0  0  0  0  3  0  0  0  0  0  0
  182.8450  178.7080  141.5770 C   0  0  0  0  0  3  0  0  0  0  0  0
  188.4130  178.1330  138.9140 C   0  0  1  0  0  3  0  0  0  0  0  0
  187.7960  177.5930  137.6270 C   0  0  1  0  0  3  0  0  0  0  0  0
  189.7570  178.3880  143.0650 C   0  0  1  0  0  3  0  0  0  0  0  0
  187.4200  178.3300  143.8930 C   0  0  0  0  0  2  0  0  0  0  0  0
  185.8430  177.1850  136.3730 C   0  0  2  0  0  3  0  0  0  0  0  0
  189.2640  177.8280  145.5260 C   0  0  0  0  0  2  0  0  0  0  0  0
  184.6350  178.5480  143.1960 C   0  0  0  0  0  3  0  0  0  0  0  0
  186.9520  178.2780  142.4520 C   0  0  0  0  0  0  0  0  0  0  0  0
  185.5800  178.4260  142.1630 C   0  0  0  0  0  0  0  0  0  0  0  0
  186.0630  178.3340  139.7720 C   0  0  0  0  0  0  0  0  0  0  0  0
  186.5310  175.8740  136.7310 C   0  0  0  0  0  2  0  0  0  0  0  0
  191.6350  176.7120  143.7470 C   0  0  0  0  0  2  0  0  0  0  0  0
  188.8050  177.7310  144.0690 C   0  0  2  0  0  3  0  0  0  0  0  0
  187.6090  176.1520  137.6770 N   0  0  0  0  0  2  0  0  0  0  0  0
  191.2520  178.1460  143.3140 C   0  0  0  0  0  2  0  0  0  0  0  0
  190.5910  177.0910  145.7600 C   0  0  1  0  0  3  0  0  0  0  0  0
  183.7720  178.5900  140.5400 C   0  0  0  0  0  3  0  0  0  0  0  0
  185.1390  178.4500  140.8190 C   0  0  0  0  0  0  0  0  0  0  0  0
  185.6050  178.3220  138.4460 O   0  0  0  0  0  0  0  0  0  0  0  0
  189.3570  177.9580  141.6610 C   0  0  0  0  0  2  0  0  0  0  0  0
  188.9420  179.4030  138.6820 O   0  0  0  0  0  1  0  0  0  0  0  0
  186.1390  177.5150  135.0510 O   0  0  0  0  0  1  0  0  0  0  0  0
  187.4310  178.1950  140.0520 C   0  0  0  0  0  0  0  0  0  0  0  0
  186.4490  178.2110  137.2960 C   0  0  1  0  0  3  0  0  0  0  0  0
  190.5630  176.4150  147.1200 C   0  0  0  0  0  2  0  0  0  0  0  0
  191.9340  176.3510  147.7010 C   0  0  0  0  0  0  0  0  0  0  0  0
  192.3070  177.2190  148.5320 O   0  0  0  0  0  0  0  0  0  0  0  0
  192.8100  175.2890  147.3410 N   0  0  0  0  0  1  0  0  0  0  0  0
  1 20  1  0  0  0  0
  2 24  1  0  0  0  0
  2 12  1  0  0  0  0
  3 11  2  0  0  0  0
  4  3  1  0  0  0  0
  5 25  1  6  0  0  0
  5 27  1  0  0  0  0
  6 18  1  1  0  0  0
  6  5  1  0  0  0  0
  7 24  1  6  0  0  0
  7 19  1  0  0  0  0
  7 17  1  0  0  0  0
  9 26  1  6  0  0  0
  9 15  1  0  0  0  0
  9 28  1  0  0  0  0
 10 20  1  0  0  0  0
 12  8  1  0  0  0  0
 13 12  2  0  0  0  0
 13 11  1  0  0  0  0
 14 27  1  0  0  0  0
 14 22  2  0  0  0  0
 15 18  1  0  0  0  0
 16  1  1  0  0  0  0
 17  8  1  1  0  0  0
 17 10  1  0  0  0  0
 19 16  1  0  0  0  0
 20 29  1  1  0  0  0
 21 22  1  0  0  0  0
 21  4  2  0  0  0  0
 22 13  1  0  0  0  0
 23 14  1  0  0  0  0
 27  2  2  0  0  0  0
 28  6  1  0  0  0  0
 28 23  1  1  0  0  0
 29 30  1  0  0  0  0
 30 31  2  0  0  0  0
 32 30  1  0  0  0  0
M  END
>  <MODEL>
1

>  <REMARK>
 VINA RESULT:     -10.2      0.000      0.000
  Name = 
  2 active torsions:
  status: ('A' for Active; 'I' for Inactive)
    1  A    between atoms: C_20  and  C_29
    2  A    between atoms: C_29  and  C_30
                            x       y       z     vdW  Elec       q    Type
                         _______ _______ _______ _____ _____    ______ ____

>  <TORSDO>
F 2

$$$$
=
 OpenBabel11122410403D

 32 37  0  0  1  0  0  0  0  0999 V2000
  189.7520  176.0830  137.6630 O   0  0  0  0  0  0  0  0  0  0  0  0
  186.3760  178.4270  140.3290 C   0  0  0  0  0  0  0  0  0  0  0  0
  186.9880  177.8620  145.1350 C   0  0  0  0  0  3  0  0  0  0  0  0
  185.6360  178.1400  145.3370 C   0  0  0  0  0  3  0  0  0  0  0  0
  184.1110  179.0630  139.4000 C   0  0  1  0  0  3  0  0  0  0  0  0
  182.6410  178.7690  139.6820 C   0  0  1  0  0  3  0  0  0  0  0  0
  188.4070  178.4930  138.8340 C   0  0  1  0  0  3  0  0  0  0  0  0
  188.7070  177.8890  141.2210 C   0  0  0  0  0  2  0  0  0  0  0  0
  180.9560  178.3960  141.2850 C   0  0  2  0  0  3  0  0  0  0  0  0
  190.5390  177.2820  139.6100 C   0  0  0  0  0  2  0  0  0  0  0  0
  187.5150  177.8570  143.8430 C   0  0  0  0  0  3  0  0  0  0  0  0
  187.2230  178.1220  141.4260 C   0  0  0  0  0  0  0  0  0  0  0  0
  186.6970  178.1310  142.7340 C   0  0  0  0  0  0  0  0  0  0  0  0
  184.4910  178.6990  141.8540 C   0  0  0  0  0  0  0  0  0  0  0  0
  181.1600  177.1530  140.4280 C   0  0  0  0  0  2  0  0  0  0  0  0
  189.0890  176.9970  136.8090 C   0  0  0  0  0  2  0  0  0  0  0  0
  189.0320  177.4770  139.7960 C   0  0  2  0  0  3  0  0  0  0  0  0
  182.3440  177.3480  139.5950 N   0  0  0  0  0  2  0  0  0  0  0  0
  188.9000  178.4210  137.3830 C   0  0  0  0  0  2  0  0  0  0  0  0
  190.8780  176.7140  138.2240 C   0  0  1  0  0  3  0  0  0  0  0  0
  184.8100  178.4180  144.2460 C   0  0  0  0  0  3  0  0  0  0  0  0
  185.3270  178.4180  142.9430 C   0  0  0  0  0  0  0  0  0  0  0  0
  183.1280  178.9440  142.0760 O   0  0  0  0  0  0  0  0  0  0  0  0
  186.8920  178.3640  138.9070 C   0  0  0  0  0  2  0  0  0  0  0  0
  184.2670  180.4160  139.0930 O   0  0  0  0  0  1  0  0  0  0  0  0
  179.8220  179.0790  140.8440 O   0  0  0  0  0  1  0  0  0  0  0  0
  185.0110  178.7000  140.5500 C   0  0  0  0  0  0  0  0  0  0  0  0
  182.1790  179.2430  141.0480 C   0  0  1  0  0  3  0  0  0  0  0  0
  192.0290  175.7300  138.3470 C   0  0  0  0  0  2  0  0  0  0  0  0
  193.3360  176.4450  138.2930 C   0  0  0  0  0  0  0  0  0  0  0  0
  193.9300  176.7530  139.3590 O   0  0  0  0  0  0  0  0  0  0  0  0
  193.9290  176.7500  137.0360 N   0  0  0  0  0  1  0  0  0  0  0  0
  1 20  1  0  0  0  0
  2 27  2  0  0  0  0
  2 12  1  0  0  0  0
  3  4  1  0  0  0  0
  5 25  1  1  0  0  0
  5  6  1  0  0  0  0
  5 27  1  0  0  0  0
  6 18  1  1  0  0  0
  6 28  1  0  0  0  0
  7 19  1  6  0  0  0
  7 24  1  0  0  0  0
  7 17  1  0  0  0  0
  8 12  1  0  0  0  0
  9 26  1  6  0  0  0
 11  3  2  0  0  0  0
 12 13  2  0  0  0  0
 13 22  1  0  0  0  0
 13 11  1  0  0  0  0
 14 23  1  0  0  0  0
 14 22  2  0  0  0  0
 15  9  1  0  0  0  0
 16 19  1  0  0  0  0
 16  1  1  0  0  0  0
 17 10  1  1  0  0  0
 17  8  1  0  0  0  0
 18 15  1  0  0  0  0
 20 29  1  1  0  0  0
 20 10  1  0  0  0  0
 21  4  2  0  0  0  0
 22 21  1  0  0  0  0
 24  2  1  0  0  0  0
 27 14  1  0  0  0  0
 28  9  1  0  0  0  0
 28 23  1  1  0  0  0
 30 29  1  0  0  0  0
 30 31  2  0  0  0  0
 32 30  1  0  0  0  0
M  END
>  <MODEL>
2

>  <REMARK>
 VINA RESULT:      -9.6      3.733      5.832
  Name = 
  2 active torsions:
  status: ('A' for Active; 'I' for Inactive)
    1  A    between atoms: C_20  and  C_29
    2  A    between atoms: C_29  and  C_30
                            x       y       z     vdW  Elec       q    Type
                         _______ _______ _______ _____ _____    ______ ____

>  <TORSDO>
F 2

$$$$
=
 OpenBabel11122410403D

 32 37  0  0  1  0  0  0  0  0999 V2000
  187.4510  176.7380  144.7690 O   0  0  0  0  0  0  0  0  0  0  0  0
  183.9860  178.4810  141.7780 C   0  0  0  0  0  0  0  0  0  0  0  0
  179.6670  179.0650  143.9690 C   0  0  0  0  0  3  0  0  0  0  0  0
  179.0300  178.9750  142.7310 C   0  0  0  0  0  3  0  0  0  0  0  0
  184.1150  178.2430  139.2630 C   0  0  1  0  0  3  0  0  0  0  0  0
  183.3120  177.5970  138.1360 C   0  0  1  0  0  3  0  0  0  0  0  0
  186.0960  178.8370  143.1120 C   0  0  1  0  0  3  0  0  0  0  0  0
  183.9220  178.8230  144.3060 C   0  0  0  0  0  2  0  0  0  0  0  0
  181.1950  177.0740  137.2460 C   0  0  2  0  0  3  0  0  0  0  0  0
  186.0130  178.4690  145.6560 C   0  0  0  0  0  2  0  0  0  0  0  0
  181.0570  178.9600  144.0500 C   0  0  0  0  0  3  0  0  0  0  0  0
  183.2320  178.6530  142.9680 C   0  0  0  0  0  0  0  0  0  0  0  0
  181.8290  178.7660  142.8920 C   0  0  0  0  0  0  0  0  0  0  0  0
  181.9270  178.4890  140.4680 C   0  0  0  0  0  0  0  0  0  0  0  0
  181.9590  175.8010  137.5880 C   0  0  0  0  0  2  0  0  0  0  0  0
  188.0950  177.2380  143.6110 C   0  0  0  0  0  2  0  0  0  0  0  0
  185.3300  178.2530  144.3030 C   0  0  2  0  0  3  0  0  0  0  0  0
  183.1670  176.1630  138.3250 N   0  0  0  0  0  2  0  0  0  0  0  0
  187.6160  178.6300  143.1360 C   0  0  0  0  0  2  0  0  0  0  0  0
  187.3760  177.7650  145.7300 C   0  0  1  0  0  3  0  0  0  0  0  0
  179.7830  178.7840  141.5710 C   0  0  0  0  0  3  0  0  0  0  0  0
  181.1790  178.6790  141.6380 C   0  0  0  0  0  0  0  0  0  0  0  0
  181.2640  178.3680  139.2370 O   0  0  0  0  0  0  0  0  0  0  0  0
  185.4870  178.2940  141.8280 C   0  0  0  0  0  2  0  0  0  0  0  0
  184.5720  179.4960  138.8520 O   0  0  0  0  0  1  0  0  0  0  0  0
  181.2690  177.3010  135.8720 O   0  0  0  0  0  1  0  0  0  0  0  0
  183.3260  178.3860  140.5350 C   0  0  0  0  0  0  0  0  0  0  0  0
  181.9170  178.1750  137.9790 C   0  0  1  0  0  3  0  0  0  0  0  0
  187.5790  177.1990  147.1250 C   0  0  0  0  0  2  0  0  0  0  0  0
  188.9490  177.5100  147.6210 C   0  0  0  0  0  0  0  0  0  0  0  0
  189.1190  178.4220  148.4710 O   0  0  0  0  0  0  0  0  0  0  0  0
  190.0630  176.7530  147.1590 N   0  0  0  0  0  1  0  0  0  0  0  0
  1 20  1  0  0  0  0
  2 24  1  0  0  0  0
  2 12  1  0  0  0  0
  3 11  2  0  0  0  0
  4  3  1  0  0  0  0
  5 25  1  6  0  0  0
  5 27  1  0  0  0  0
  6 18  1  1  0  0  0
  6  5  1  0  0  0  0
  7 24  1  6  0  0  0
  7 19  1  0  0  0  0
  7 17  1  0  0  0  0
  9 26  1  6  0  0  0
  9 15  1  0  0  0  0
  9 28  1  0  0  0  0
 10 20  1  0  0  0  0
 12  8  1  0  0  0  0
 13 12  2  0  0  0  0
 13 11  1  0  0  0  0
 14 27  1  0  0  0  0
 14 22  2  0  0  0  0
 15 18  1  0  0  0  0
 16  1  1  0  0  0  0
 17  8  1  1  0  0  0
 17 10  1  0  0  0  0
 19 16  1  0  0  0  0
 20 29  1  1  0  0  0
 21 22  1  0  0  0  0
 21  4  2  0  0  0  0
 22 13  1  0  0  0  0
 23 14  1  0  0  0  0
 27  2  2  0  0  0  0
 28  6  1  0  0  0  0
 28 23  1  1  0  0  0
 29 30  1  0  0  0  0
 30 31  2  0  0  0  0
 32 30  1  0  0  0  0
M  END
>  <MODEL>
3

>  <REMARK>
 VINA RESULT:      -9.0      2.758      3.946
  Name = 
  2 active torsions:
  status: ('A' for Active; 'I' for Inactive)
    1  A    between atoms: C_20  and  C_29
    2  A    between atoms: C_29  and  C_30
                            x       y       z     vdW  Elec       q    Type
                         _______ _______ _______ _____ _____    ______ ____

>  <TORSDO>
F 2

$$$$
=
 OpenBabel11122410403D

 32 37  0  0  1  0  0  0  0  0999 V2000
  189.9520  176.3720  144.7250 O   0  0  0  0  0  0  0  0  0  0  0  0
  190.5650  177.1720  139.9310 C   0  0  0  0  0  0  0  0  0  0  0  0
  186.4090  178.2420  137.6110 C   0  0  0  0  0  3  0  0  0  0  0  0
  186.9710  177.8080  136.4110 C   0  0  0  0  0  3  0  0  0  0  0  0
  192.5440  176.2640  138.6430 C   0  0  1  0  0  3  0  0  0  0  0  0
  192.8060  175.3220  137.4710 C   0  0  1  0  0  3  0  0  0  0  0  0
  190.8620  177.9170  142.3220 C   0  0  1  0  0  3  0  0  0  0  0  0
  188.6360  178.1850  141.2610 C   0  0  0  0  0  2  0  0  0  0  0  0
  192.1260  174.5360  135.3570 C   0  0  2  0  0  3  0  0  0  0  0  0
  188.7630  178.2500  143.7700 C   0  0  0  0  0  2  0  0  0  0  0  0
  187.1540  178.1910  138.7910 C   0  0  0  0  0  3  0  0  0  0  0  0
  189.2280  177.6450  139.9740 C   0  0  0  0  0  0  0  0  0  0  0  0
  188.4730  177.7050  138.7850 C   0  0  0  0  0  0  0  0  0  0  0  0
  190.3550  176.7840  137.5310 C   0  0  0  0  0  0  0  0  0  0  0  0
  192.0540  173.4180  136.3900 C   0  0  0  0  0  2  0  0  0  0  0  0
  191.3370  176.5520  144.4930 C   0  0  0  0  0  2  0  0  0  0  0  0
  189.3600  177.6630  142.4890 C   0  0  2  0  0  3  0  0  0  0  0  0
  192.2770  173.9900  137.7160 N   0  0  0  0  0  2  0  0  0  0  0  0
  191.7070  177.7540  143.5920 C   0  0  0  0  0  2  0  0  0  0  0  0
  189.3730  177.6190  145.0300 C   0  0  1  0  0  3  0  0  0  0  0  0
  188.2810  177.3250  136.3870 C   0  0  0  0  0  3  0  0  0  0  0  0
  189.0410  177.2700  137.5640 C   0  0  0  0  0  0  0  0  0  0  0  0
  190.8900  176.3220  136.3190 O   0  0  0  0  0  0  0  0  0  0  0  0
  191.3830  177.0350  141.1970 C   0  0  0  0  0  2  0  0  0  0  0  0
  193.3940  177.3680  138.5550 O   0  0  0  0  0  1  0  0  0  0  0  0
  193.2830  174.3840  134.5940 O   0  0  0  0  0  1  0  0  0  0  0  0
  191.1150  176.7310  138.7100 C   0  0  0  0  0  0  0  0  0  0  0  0
  192.2150  175.8080  136.1600 C   0  0  1  0  0  3  0  0  0  0  0  0
  188.2950  177.4560  146.0890 C   0  0  0  0  0  2  0  0  0  0  0  0
  188.8680  177.6410  147.4520 C   0  0  0  0  0  0  0  0  0  0  0  0
  190.0290  177.2280  147.7080 O   0  0  0  0  0  0  0  0  0  0  0  0
  188.1160  178.3140  148.4550 N   0  0  0  0  0  1  0  0  0  0  0  0
  1 20  1  0  0  0  0
  2 12  1  0  0  0  0
  2 24  1  0  0  0  0
  3 11  2  0  0  0  0
  4  3  1  0  0  0  0
  5 25  1  6  0  0  0
  5 27  1  0  0  0  0
  6 18  1  1  0  0  0
  6  5  1  0  0  0  0
  7 24  1  6  0  0  0
  7 17  1  0  0  0  0
  7 19  1  0  0  0  0
  9 26  1  6  0  0  0
  9 28  1  0  0  0  0
  9 15  1  0  0  0  0
 10 20  1  0  0  0  0
 12  8  1  0  0  0  0
 13 11  1  0  0  0  0
 13 12  2  0  0  0  0
 14 22  2  0  0  0  0
 14 27  1  0  0  0  0
 15 18  1  0  0  0  0
 16  1  1  0  0  0  0
 17  8  1  6  0  0  0
 17 10  1  0  0  0  0
 19 16  1  0  0  0  0
 20 29  1  1  0  0  0
 21  4  2  0  0  0  0
 21 22  1  0  0  0  0
 22 13  1  0  0  0  0
 23 14  1  0  0  0  0
 27  2  2  0  0  0  0
 28 23  1  1  0  0  0
 28  6  1  0  0  0  0
 29 30  1  0  0  0  0
 30 31  2  0  0  0  0
 30 32  1  0  0  0  0
M  END
>  <MODEL>
4

>  <REMARK>
 VINA RESULT:      -8.9      3.349      4.564
  Name = 
  2 active torsions:
  status: ('A' for Active; 'I' for Inactive)
    1  A    between atoms: C_20  and  C_29
    2  A    between atoms: C_29  and  C_30
                            x       y       z     vdW  Elec       q    Type
                         _______ _______ _______ _____ _____    ______ ____

>  <TORSDO>
F 2

$$$$
=
 OpenBabel11122410403D

 32 37  0  0  1  0  0  0  0  0999 V2000
  188.3180  176.3510  143.7200 O   0  0  0  0  0  0  0  0  0  0  0  0
  190.2260  177.0620  139.2650 C   0  0  0  0  0  0  0  0  0  0  0  0
  186.8910  178.2540  135.9100 C   0  0  0  0  0  3  0  0  0  0  0  0
  187.7380  177.7830  134.9060 C   0  0  0  0  0  3  0  0  0  0  0  0
  192.4420  176.0650  138.5590 C   0  0  1  0  0  3  0  0  0  0  0  0
  192.9710  175.0980  137.5040 C   0  0  1  0  0  3  0  0  0  0  0  0
  189.8990  177.8290  141.6450 C   0  0  1  0  0  3  0  0  0  0  0  0
  188.0520  178.1640  140.0240 C   0  0  0  0  0  2  0  0  0  0  0  0
  192.8540  174.3090  135.2870 C   0  0  2  0  0  3  0  0  0  0  0  0
  187.5030  178.2580  142.4750 C   0  0  0  0  0  2  0  0  0  0  0  0
  187.2900  178.1910  137.2470 C   0  0  0  0  0  3  0  0  0  0  0  0
  188.9460  177.5850  138.9450 C   0  0  0  0  0  0  0  0  0  0  0  0
  188.5420  177.6570  137.5970 C   0  0  0  0  0  0  0  0  0  0  0  0
  190.6540  176.6510  136.8980 C   0  0  0  0  0  0  0  0  0  0  0  0
  192.4640  173.2090  136.2670 C   0  0  0  0  0  2  0  0  0  0  0  0
  189.7210  176.4770  143.8680 C   0  0  0  0  0  2  0  0  0  0  0  0
  188.3990  177.6320  141.4030 C   0  0  2  0  0  3  0  0  0  0  0  0
  192.3450  173.7900  137.6010 N   0  0  0  0  0  2  0  0  0  0  0  0
  190.3650  177.6520  143.0960 C   0  0  0  0  0  2  0  0  0  0  0  0
  187.7270  177.6220  143.8550 C   0  0  1  0  0  3  0  0  0  0  0  0
  188.9860  177.2520  135.2370 C   0  0  0  0  0  3  0  0  0  0  0  0
  189.3990  177.1840  136.5750 C   0  0  0  0  0  0  0  0  0  0  0  0
  191.4760  176.1530  135.8760 O   0  0  0  0  0  0  0  0  0  0  0  0
  190.6680  176.9120  140.7050 C   0  0  0  0  0  2  0  0  0  0  0  0
  193.3260  177.1360  138.6990 O   0  0  0  0  0  1  0  0  0  0  0  0
  194.1670  174.1050  134.8630 O   0  0  0  0  0  1  0  0  0  0  0  0
  191.0670  176.5850  138.2380 C   0  0  0  0  0  0  0  0  0  0  0  0
  192.7740  175.5880  136.0810 C   0  0  1  0  0  3  0  0  0  0  0  0
  186.4000  177.5130  144.5850 C   0  0  0  0  0  2  0  0  0  0  0  0
  186.5070  178.0910  145.9540 C   0  0  0  0  0  0  0  0  0  0  0  0
  187.5550  177.9220  146.6290 O   0  0  0  0  0  0  0  0  0  0  0  0
  185.4360  178.8640  146.4860 N   0  0  0  0  0  1  0  0  0  0  0  0
  1 20  1  0  0  0  0
  1 16  1  0  0  0  0
  2 24  1  0  0  0  0
  3 11  2  0  0  0  0
  4 21  2  0  0  0  0
  4  3  1  0  0  0  0
  5 25  1  6  0  0  0
  6 18  1  6  0  0  0
  6  5  1  0  0  0  0
  7 24  1  6  0  0  0
  7 19  1  0  0  0  0
  9 26  1  1  0  0  0
  9 28  1  0  0  0  0
  9 15  1  0  0  0  0
 10 20  1  0  0  0  0
 11 13  1  0  0  0  0
 12  2  1  0  0  0  0
 12  8  1  0  0  0  0
 13 12  2  0  0  0  0
 14 27  1  0  0  0  0
 15 18  1  0  0  0  0
 17  8  1  6  0  0  0
 17  7  1  0  0  0  0
 17 10  1  0  0  0  0
 19 16  1  0  0  0  0
 20 29  1  6  0  0  0
 21 22  1  0  0  0  0
 22 14  2  0  0  0  0
 22 13  1  0  0  0  0
 23 14  1  0  0  0  0
 27  5  1  0  0  0  0
 27  2  2  0  0  0  0
 28 23  1  1  0  0  0
 28  6  1  0  0  0  0
 29 30  1  0  0  0  0
 30 32  1  0  0  0  0
 30 31  2  0  0  0  0
M  END
>  <MODEL>
5

>  <REMARK>
 VINA RESULT:      -8.8      3.831      5.524
  Name = 
  2 active torsions:
  status: ('A' for Active; 'I' for Inactive)
    1  A    between atoms: C_20  and  C_29
    2  A    between atoms: C_29  and  C_30
                            x       y       z     vdW  Elec       q    Type
                         _______ _______ _______ _____ _____    ______ ____

>  <TORSDO>
F 2

$$$$
=
 OpenBabel11122410403D

 32 37  0  0  1  0  0  0  0  0999 V2000
  188.6020  176.6000  142.5060 O   0  0  0  0  0  0  0  0  0  0  0  0
  184.3950  178.7440  141.1990 C   0  0  0  0  0  0  0  0  0  0  0  0
  181.0100  178.6410  144.7090 C   0  0  0  0  0  3  0  0  0  0  0  0
  180.0110  178.7770  143.7460 C   0  0  0  0  0  3  0  0  0  0  0  0
  183.7130  179.0370  138.7810 C   0  0  1  0  0  3  0  0  0  0  0  0
  182.5820  178.5970  137.8550 C   0  0  1  0  0  3  0  0  0  0  0  0
  186.8260  178.9240  141.8450 C   0  0  1  0  0  3  0  0  0  0  0  0
  185.1460  178.5530  143.6310 C   0  0  0  0  0  2  0  0  0  0  0  0
  180.2830  178.1620  137.5870 C   0  0  2  0  0  3  0  0  0  0  0  0
  187.5520  178.0350  144.1460 C   0  0  0  0  0  2  0  0  0  0  0  0
  182.3510  178.5940  144.3240 C   0  0  0  0  0  3  0  0  0  0  0  0
  184.0630  178.6280  142.5740 C   0  0  0  0  0  0  0  0  0  0  0  0
  182.7110  178.6820  142.9690 C   0  0  0  0  0  0  0  0  0  0  0  0
  182.0270  178.9170  140.6360 C   0  0  0  0  0  0  0  0  0  0  0  0
  181.0930  176.8870  137.3920 C   0  0  0  0  0  2  0  0  0  0  0  0
  188.8510  177.3610  141.3380 C   0  0  0  0  0  2  0  0  0  0  0  0
  186.4690  178.0690  143.0640 C   0  0  2  0  0  3  0  0  0  0  0  0
  182.4790  177.1490  137.7710 N   0  0  0  0  0  2  0  0  0  0  0  0
  188.2720  178.7940  141.3450 C   0  0  0  0  0  2  0  0  0  0  0  0
  188.8540  177.4010  143.6370 C   0  0  1  0  0  3  0  0  0  0  0  0
  180.3520  178.8680  142.3950 C   0  0  0  0  0  3  0  0  0  0  0  0
  181.6940  178.8230  141.9950 C   0  0  0  0  0  0  0  0  0  0  0  0
  181.0050  179.0190  139.6810 O   0  0  0  0  0  0  0  0  0  0  0  0
  185.8310  178.6270  140.7330 C   0  0  0  0  0  2  0  0  0  0  0  0
  184.0380  180.3700  138.5220 O   0  0  0  0  0  1  0  0  0  0  0  0
  179.9190  178.6710  136.3400 O   0  0  0  0  0  1  0  0  0  0  0  0
  183.3720  178.8740  140.2370 C   0  0  0  0  0  0  0  0  0  0  0  0
  181.2200  179.1230  138.2700 C   0  0  1  0  0  3  0  0  0  0  0  0
  189.4810  176.5710  144.7430 C   0  0  0  0  0  2  0  0  0  0  0  0
  190.9520  176.8040  144.8030 C   0  0  0  0  0  0  0  0  0  0  0  0
  191.5760  177.1550  143.7690 O   0  0  0  0  0  0  0  0  0  0  0  0
  191.6450  176.6610  146.0380 N   0  0  0  0  0  1  0  0  0  0  0  0
  1 20  1  0  0  0  0
  2 12  1  0  0  0  0
  4  3  1  0  0  0  0
  5 25  1  1  0  0  0
  5 27  1  0  0  0  0
  6 18  1  1  0  0  0
  6 28  1  0  0  0  0
  6  5  1  0  0  0  0
  7 24  1  6  0  0  0
  7 17  1  0  0  0  0
  9 26  1  6  0  0  0
  9 28  1  0  0  0  0
 11  3  2  0  0  0  0
 12 13  2  0  0  0  0
 12  8  1  0  0  0  0
 13 11  1  0  0  0  0
 14 22  2  0  0  0  0
 15  9  1  0  0  0  0
 15 18  1  0  0  0  0
 16 19  1  0  0  0  0
 16  1  1  0  0  0  0
 17  8  1  1  0  0  0
 17 10  1  0  0  0  0
 19  7  1  0  0  0  0
 20 10  1  0  0  0  0
 20 29  1  1  0  0  0
 21  4  2  0  0  0  0
 22 21  1  0  0  0  0
 22 13  1  0  0  0  0
 23 14  1  0  0  0  0
 24  2  1  0  0  0  0
 27 14  1  0  0  0  0
 27  2  2  0  0  0  0
 28 23  1  1  0  0  0
 29 30  1  0  0  0  0
 30 32  1  0  0  0  0
 31 30  2  0  0  0  0
M  END
>  <MODEL>
6

>  <REMARK>
 VINA RESULT:      -8.3      2.616      4.003
  Name = 
  2 active torsions:
  status: ('A' for Active; 'I' for Inactive)
    1  A    between atoms: C_20  and  C_29
    2  A    between atoms: C_29  and  C_30
                            x       y       z     vdW  Elec       q    Type
                         _______ _______ _______ _____ _____    ______ ____

>  <TORSDO>
F 2

$$$$
=
 OpenBabel11122410403D

 32 37  0  0  1  0  0  0  0  0999 V2000
  190.1670  176.0080  145.5710 O   0  0  0  0  0  0  0  0  0  0  0  0
  189.9040  177.3720  140.8730 C   0  0  0  0  0  0  0  0  0  0  0  0
  185.4100  178.6740  139.4960 C   0  0  0  0  0  3  0  0  0  0  0  0
  185.7370  178.3900  138.1700 C   0  0  0  0  0  3  0  0  0  0  0  0
  191.6020  176.6380  139.1480 C   0  0  1  0  0  3  0  0  0  0  0  0
  191.6320  175.8430  137.8450 C   0  0  1  0  0  3  0  0  0  0  0  0
  190.6430  177.8330  143.2400 C   0  0  1  0  0  3  0  0  0  0  0  0
  188.2640  178.2050  142.6430 C   0  0  0  0  0  2  0  0  0  0  0  0
  190.5670  175.3060  135.8140 C   0  0  2  0  0  3  0  0  0  0  0  0
  188.8490  177.9750  145.0780 C   0  0  0  0  0  2  0  0  0  0  0  0
  186.3570  178.4900  140.5050 C   0  0  0  0  0  3  0  0  0  0  0  0
  188.6040  177.8260  141.2160 C   0  0  0  0  0  0  0  0  0  0  0  0
  187.6460  178.0190  140.2010 C   0  0  0  0  0  0  0  0  0  0  0  0
  189.2540  177.2680  138.5240 C   0  0  0  0  0  0  0  0  0  0  0  0
  190.6700  174.0740  136.7040 C   0  0  0  0  0  2  0  0  0  0  0  0
  191.4890  176.2250  145.1120 C   0  0  0  0  0  2  0  0  0  0  0  0
  189.1940  177.5480  143.6480 C   0  0  2  0  0  3  0  0  0  0  0  0
  191.1390  174.4870  138.0240 N   0  0  0  0  0  2  0  0  0  0  0  0
  191.7040  177.5280  144.3070 C   0  0  0  0  0  2  0  0  0  0  0  0
  189.6700  177.2050  146.1220 C   0  0  1  0  0  3  0  0  0  0  0  0
  187.0130  177.9230  137.8510 C   0  0  0  0  0  3  0  0  0  0  0  0
  187.9740  177.7350  138.8540 C   0  0  0  0  0  0  0  0  0  0  0  0
  189.5520  176.9560  137.1890 O   0  0  0  0  0  0  0  0  0  0  0  0
  190.9380  177.0930  141.9440 C   0  0  0  0  0  2  0  0  0  0  0  0
  192.4360  177.7520  139.0350 O   0  0  0  0  0  1  0  0  0  0  0  0
  191.5630  175.2550  134.8390 O   0  0  0  0  0  1  0  0  0  0  0  0
  190.2160  177.0820  139.5290 C   0  0  0  0  0  0  0  0  0  0  0  0
  190.8190  176.4760  136.7310 C   0  0  1  0  0  3  0  0  0  0  0  0
  188.8020  176.9090  147.3330 C   0  0  0  0  0  2  0  0  0  0  0  0
  188.6330  178.1330  148.1660 C   0  0  0  0  0  0  0  0  0  0  0  0
  187.5020  178.6780  148.2620 O   0  0  0  0  0  0  0  0  0  0  0  0
  189.7420  178.6680  148.8800 N   0  0  0  0  0  1  0  0  0  0  0  0
  1 20  1  0  0  0  0
  2 12  1  0  0  0  0
  2 24  1  0  0  0  0
  3 11  2  0  0  0  0
  4  3  1  0  0  0  0
  5 25  1  6  0  0  0
  5 27  1  0  0  0  0
  6 18  1  1  0  0  0
  6  5  1  0  0  0  0
  7 24  1  6  0  0  0
  7 17  1  0  0  0  0
  7 19  1  0  0  0  0
  9 26  1  6  0  0  0
  9 15  1  0  0  0  0
  9 28  1  0  0  0  0
 10 20  1  0  0  0  0
 12  8  1  0  0  0  0
 13 11  1  0  0  0  0
 13 12  2  0  0  0  0
 14 22  2  0  0  0  0
 14 27  1  0  0  0  0
 15 18  1  0  0  0  0
 16  1  1  0  0  0  0
 17  8  1  6  0  0  0
 17 10  1  0  0  0  0
 19 16  1  0  0  0  0
 20 29  1  1  0  0  0
 21  4  2  0  0  0  0
 21 22  1  0  0  0  0
 22 13  1  0  0  0  0
 23 14  1  0  0  0  0
 27  2  2  0  0  0  0
 28 23  1  1  0  0  0
 28  6  1  0  0  0  0
 29 30  1  0  0  0  0
 30 31  2  0  0  0  0
 30 32  1  0  0  0  0
M  END
>  <MODEL>
7

>  <REMARK>
 VINA RESULT:      -8.2      2.698      3.444
  Name = 
  2 active torsions:
  status: ('A' for Active; 'I' for Inactive)
    1  A    between atoms: C_20  and  C_29
    2  A    between atoms: C_29  and  C_30
                            x       y       z     vdW  Elec       q    Type
                         _______ _______ _______ _____ _____    ______ ____

>  <TORSDO>
F 2

$$$$
=
 OpenBabel11122410403D

 32 37  0  0  1  0  0  0  0  0999 V2000
  192.0770  173.9110  136.1130 O   0  0  0  0  0  0  0  0  0  0  0  0
  189.2340  177.2460  138.3020 C   0  0  0  0  0  0  0  0  0  0  0  0
  189.7340  177.3150  143.1540 C   0  0  0  0  0  3  0  0  0  0  0  0
  188.4640  177.8790  143.2740 C   0  0  0  0  0  3  0  0  0  0  0  0
  187.1360  178.1610  137.2250 C   0  0  1  0  0  3  0  0  0  0  0  0
  185.6360  178.2040  137.5070 C   0  0  1  0  0  3  0  0  0  0  0  0
  191.2340  176.6860  136.8710 C   0  0  1  0  0  3  0  0  0  0  0  0
  191.4150  176.4090  139.3290 C   0  0  0  0  0  2  0  0  0  0  0  0
  183.9150  178.4160  139.1010 C   0  0  2  0  0  3  0  0  0  0  0  0
  193.0890  175.2180  137.8800 C   0  0  0  0  0  2  0  0  0  0  0  0
  190.2470  177.0100  141.8920 C   0  0  0  0  0  3  0  0  0  0  0  0
  190.0070  176.9540  139.4560 C   0  0  0  0  0  0  0  0  0  0  0  0
  189.4960  177.2650  140.7320 C   0  0  0  0  0  0  0  0  0  0  0  0
  187.4420  178.1090  139.7160 C   0  0  0  0  0  0  0  0  0  0  0  0
  183.8690  177.0410  138.4460 C   0  0  0  0  0  2  0  0  0  0  0  0
  191.6040  174.7950  135.1140 C   0  0  0  0  0  2  0  0  0  0  0  0
  191.6500  175.7280  137.9920 C   0  0  2  0  0  3  0  0  0  0  0  0
  185.0660  176.8720  137.6270 N   0  0  0  0  0  2  0  0  0  0  0  0
  191.7000  176.2990  135.4610 C   0  0  0  0  0  2  0  0  0  0  0  0
  193.3070  174.3900  136.6050 C   0  0  1  0  0  3  0  0  0  0  0  0
  187.7050  178.1410  142.1310 C   0  0  0  0  0  3  0  0  0  0  0  0
  188.2100  177.8410  140.8580 C   0  0  0  0  0  0  0  0  0  0  0  0
  186.1540  178.6450  139.8600 O   0  0  0  0  0  0  0  0  0  0  0  0
  189.7240  176.8670  136.9200 C   0  0  0  0  0  2  0  0  0  0  0  0
  187.5530  179.3940  136.7230 O   0  0  0  0  0  1  0  0  0  0  0  0
  182.9370  179.2300  138.5310 O   0  0  0  0  0  1  0  0  0  0  0  0
  187.9490  177.8100  138.4410 C   0  0  0  0  0  0  0  0  0  0  0  0
  185.2800  178.9630  138.7730 C   0  0  1  0  0  3  0  0  0  0  0  0
  194.2430  173.2320  136.9060 C   0  0  0  0  0  2  0  0  0  0  0  0
  195.4270  173.7030  137.6780 C   0  0  0  0  0  0  0  0  0  0  0  0
  195.7800  173.0970  138.7230 O   0  0  0  0  0  0  0  0  0  0  0  0
  196.1790  174.8200  137.2170 N   0  0  0  0  0  1  0  0  0  0  0  0
  1 20  1  0  0  0  0
  2 27  2  0  0  0  0
  2 12  1  0  0  0  0
  3  4  1  0  0  0  0
  5 25  1  1  0  0  0
  5  6  1  0  0  0  0
  5 27  1  0  0  0  0
  6 18  1  1  0  0  0
  6 28  1  0  0  0  0
  7 19  1  6  0  0  0
  7 24  1  0  0  0  0
  7 17  1  0  0  0  0
  8 12  1  0  0  0  0
  9 26  1  6  0  0  0
 11  3  2  0  0  0  0
 12 13  2  0  0  0  0
 13 22  1  0  0  0  0
 13 11  1  0  0  0  0
 14 23  1  0  0  0  0
 14 22  2  0  0  0  0
 15  9  1  0  0  0  0
 16 19  1  0  0  0  0
 16  1  1  0  0  0  0
 17 10  1  6  0  0  0
 17  8  1  0  0  0  0
 18 15  1  0  0  0  0
 20 29  1  1  0  0  0
 20 10  1  0  0  0  0
 21  4  2  0  0  0  0
 22 21  1  0  0  0  0
 24  2  1  0  0  0  0
 27 14  1  0  0  0  0
 28  9  1  0  0  0  0
 28 23  1  1  0  0  0
 29 30  1  0  0  0  0
 30 31  2  0  0  0  0
 32 30  1  0  0  0  0
M  END
>  <MODEL>
8

>  <REMARK>
 VINA RESULT:      -7.4      4.078      6.430
  Name = 
  2 active torsions:
  status: ('A' for Active; 'I' for Inactive)
    1  A    between atoms: C_20  and  C_29
    2  A    between atoms: C_29  and  C_30
                            x       y       z     vdW  Elec       q    Type
                         _______ _______ _______ _____ _____    ______ ____

>  <TORSDO>
F 2

$$$$
=
 OpenBabel11122410403D

 32 37  0  0  1  0  0  0  0  0999 V2000
  184.1810  180.5070  138.7580 O   0  0  0  0  0  0  0  0  0  0  0  0
  186.3810  178.0470  142.3770 C   0  0  0  0  0  0  0  0  0  0  0  0
  184.1810  178.5980  146.6960 C   0  0  0  0  0  3  0  0  0  0  0  0
  185.3740  178.2780  147.3420 C   0  0  0  0  0  3  0  0  0  0  0  0
  188.8100  177.3490  142.2670 C   0  0  1  0  0  3  0  0  0  0  0  0
  190.1040  177.5980  143.0380 C   0  0  1  0  0  3  0  0  0  0  0  0
  184.9830  178.0510  140.2790 C   0  0  1  0  0  3  0  0  0  0  0  0
  183.9010  178.6480  142.4300 C   0  0  0  0  0  2  0  0  0  0  0  0
  191.1490  177.9100  145.1260 C   0  0  2  0  0  3  0  0  0  0  0  0
  182.7450  179.3200  140.3010 C   0  0  0  0  0  2  0  0  0  0  0  0
  184.1260  178.6280  145.3010 C   0  0  0  0  0  3  0  0  0  0  0  0
  185.2190  178.3700  143.1250 C   0  0  0  0  0  0  0  0  0  0  0  0
  185.2670  178.3360  144.5330 C   0  0  0  0  0  0  0  0  0  0  0  0
  187.6250  177.7090  144.4500 C   0  0  0  0  0  0  0  0  0  0  0  0
  191.2810  179.1630  144.2700 C   0  0  0  0  0  2  0  0  0  0  0  0
  185.0720  179.5780  138.1670 C   0  0  0  0  0  2  0  0  0  0  0  0
  184.0930  179.0780  140.9860 C   0  0  2  0  0  3  0  0  0  0  0  0
  190.4480  179.0100  143.0810 N   0  0  0  0  0  2  0  0  0  0  0  0
  185.0160  178.1460  138.7480 C   0  0  0  0  0  2  0  0  0  0  0  0
  182.9150  179.9060  138.8920 C   0  0  1  0  0  3  0  0  0  0  0  0
  186.5160  177.9840  146.5940 C   0  0  0  0  0  3  0  0  0  0  0  0
  186.4750  178.0080  145.1930 C   0  0  0  0  0  0  0  0  0  0  0  0
  188.8240  177.4220  145.1190 O   0  0  0  0  0  0  0  0  0  0  0  0
  186.3840  178.1340  140.8660 C   0  0  0  0  0  2  0  0  0  0  0  0
  188.7340  176.0030  141.9040 O   0  0  0  0  0  1  0  0  0  0  0  0
  192.3460  177.1960  145.0870 O   0  0  0  0  0  1  0  0  0  0  0  0
  187.5820  177.7320  143.0470 C   0  0  0  0  0  0  0  0  0  0  0  0
  190.0590  177.1010  144.4720 C   0  0  1  0  0  3  0  0  0  0  0  0
  181.8170  180.9220  138.6300 C   0  0  0  0  0  2  0  0  0  0  0  0
  181.1800  180.6760  137.3050 C   0  0  0  0  0  0  0  0  0  0  0  0
  180.6690  181.6320  136.6650 O   0  0  0  0  0  0  0  0  0  0  0  0
  181.1790  179.3670  136.7480 N   0  0  0  0  0  1  0  0  0  0  0  0
  1 20  1  0  0  0  0
  2 27  2  0  0  0  0
  2 12  1  0  0  0  0
  3  4  1  0  0  0  0
  5 25  1  1  0  0  0
  5  6  1  0  0  0  0
  5 27  1  0  0  0  0
  6 18  1  1  0  0  0
  6 28  1  0  0  0  0
  7 19  1  6  0  0  0
  7 24  1  0  0  0  0
  7 17  1  0  0  0  0
  8 12  1  0  0  0  0
  9 26  1  6  0  0  0
 11  3  2  0  0  0  0
 12 13  2  0  0  0  0
 13 22  1  0  0  0  0
 13 11  1  0  0  0  0
 14 23  1  0  0  0  0
 14 22  2  0  0  0  0
 15  9  1  0  0  0  0
 16 19  1  0  0  0  0
 16  1  1  0  0  0  0
 17 10  1  6  0  0  0
 17  8  1  0  0  0  0
 18 15  1  0  0  0  0
 20 29  1  1  0  0  0
 20 10  1  0  0  0  0
 21  4  2  0  0  0  0
 22 21  1  0  0  0  0
 24  2  1  0  0  0  0
 27 14  1  0  0  0  0
 28 23  1  1  0  0  0
 28  9  1  0  0  0  0
 30 29  1  0  0  0  0
 31 30  2  0  0  0  0
 32 30  1  0  0  0  0
M  END
>  <MODEL>
9

>  <REMARK>
 VINA RESULT:      -7.2      2.873      8.345
  Name = 
  2 active torsions:
  status: ('A' for Active; 'I' for Inactive)
    1  A    between atoms: C_20  and  C_29
    2  A    between atoms: C_29  and  C_30
                            x       y       z     vdW  Elec       q    Type
                         _______ _______ _______ _____ _____    ______ ____

>  <TORSDO>
F 2

$$$$
