=
 OpenBabel11122411023D

 31 35  0  0  1  0  0  0  0  0999 V2000
  188.5430  177.7460  136.3920 C   0  0  0  0  0  0  0  0  0  0  0  0
  185.3270  178.4810  138.2920 C   0  0  2  0  0  3  0  0  0  0  0  0
  184.5040  177.1970  138.2400 C   0  0  0  0  0  0  0  0  0  0  0  0
  184.1540  174.8860  137.4250 N   0  0  0  0  0  0  0  0  0  0  0  0
  186.7850  178.2360  137.9920 C   0  0  0  0  0  0  0  0  0  0  0  0
  189.4760  177.6880  137.4290 C   0  0  0  0  0  3  0  0  0  0  0  0
  184.7910  176.1760  137.1600 C   0  0  0  0  0  2  0  0  0  0  0  0
  185.9120  178.4580  140.6890 N   0  0  0  0  0  0  0  0  0  0  0  0
  188.9360  177.5300  135.1140 F   0  0  0  0  0  0  0  0  0  0  0  0
  183.0340  178.0830  139.9420 N   0  0  0  0  0  2  0  0  0  0  0  0
  184.5750  173.7270  136.6620 C   0  0  0  0  0  1  0  0  0  0  0  0
  187.3520  178.5780  140.4340 C   0  0  0  0  0  2  0  0  0  0  0  0
  185.1890  179.2110  139.6460 C   0  0  2  0  0  3  0  0  0  0  0  0
  187.2020  178.0210  136.6720 C   0  0  0  0  0  3  0  0  0  0  0  0
  182.9810  174.7910  138.2370 C   0  0  0  0  0  3  0  0  0  0  0  0
  187.7300  178.1820  139.0360 C   0  0  0  0  0  0  0  0  0  0  0  0
  189.0730  177.9180  138.7470 C   0  0  0  0  0  3  0  0  0  0  0  0
  183.6990  179.3790  139.9600 C   0  0  0  0  0  2  0  0  0  0  0  0
  183.4080  177.0570  139.0180 C   0  0  0  0  0  0  0  0  0  0  0  0
  182.6100  175.8210  138.9920 C   0  0  0  0  0  3  0  0  0  0  0  0
  185.6950  179.0890  141.9910 C   0  0  0  0  0  2  0  0  0  0  0  0
  184.2530  178.1050  143.6270 O   0  0  0  0  0  1  0  0  0  0  0  0
  185.5460  178.0360  143.0940 C   0  0  2  0  0  3  0  0  0  0  0  0
  188.4220  177.2020  146.0820 N   0  0  0  0  0  0  0  0  0  0  0  0
  186.1110  177.6200  145.4000 C   0  0  0  0  0  2  0  0  0  0  0  0
  187.6630  176.2360  143.4600 O   0  0  0  0  0  1  0  0  0  0  0  0
  189.4050  177.5480  147.0900 C   0  0  0  0  0  1  0  0  0  0  0  0
  187.1690  177.8430  146.4790 C   0  0  0  0  0  2  0  0  0  0  0  0
  187.8290  177.6010  143.7290 C   0  0  1  0  0  3  0  0  0  0  0  0
  186.5600  178.2280  144.1420 N   0  0  0  0  0  0  0  0  0  0  0  0
  188.8820  177.7940  144.8240 C   0  0  0  0  0  2  0  0  0  0  0  0
  1 14  2  0  0  0  0
  1  6  1  0  0  0  0
  2  5  1  1  0  0  0
  2 13  1  0  0  0  0
  3  2  1  0  0  0  0
  3 19  2  0  0  0  0
  4 15  1  0  0  0  0
  5 16  2  0  0  0  0
  6 17  2  0  0  0  0
  7  4  1  0  0  0  0
  7  3  1  0  0  0  0
  8 21  1  0  0  0  0
  9  1  1  0  0  0  0
 10 18  1  0  0  0  0
 11  4  1  0  0  0  0
 12  8  1  0  0  0  0
 13 18  1  1  0  0  0
 13  8  1  0  0  0  0
 14  5  1  0  0  0  0
 15 20  2  0  0  0  0
 16 12  1  0  0  0  0
 17 16  1  0  0  0  0
 19 10  1  0  0  0  0
 20 19  1  0  0  0  0
 21 23  1  0  0  0  0
 23 22  1  1  0  0  0
 23 30  1  0  0  0  0
 24 28  1  0  0  0  0
 24 27  1  0  0  0  0
 25 28  1  0  0  0  0
 29 26  1  1  0  0  0
 29 30  1  0  0  0  0
 29 31  1  0  0  0  0
 30 25  1  0  0  0  0
 31 24  1  0  0  0  0
M  END
>  <MODEL>
1

>  <REMARK>
 VINA RESULT:      -7.3      0.000      0.000
  Name = 
  3 active torsions:
  status: ('A' for Active; 'I' for Inactive)
    1  A    between atoms: C_5  and  C_16
    2  A    between atoms: C_5  and  N_30
    3  A    between atoms: N_10  and  C_16
                            x       y       z     vdW  Elec       q    Type
                         _______ _______ _______ _____ _____    ______ ____

>  <TORSDO>
F 3

$$$$
=
 OpenBabel11122411023D

 31 35  0  0  1  0  0  0  0  0999 V2000
  189.9870  175.8050  142.8040 C   0  0  0  0  0  0  0  0  0  0  0  0
  186.4930  177.0140  143.7130 C   0  0  2  0  0  3  0  0  0  0  0  0
  186.6180  177.6680  145.0870 C   0  0  2  0  0  3  0  0  0  0  0  0
  187.9460  178.2340  147.0980 N   0  0  0  0  0  0  0  0  0  0  0  0
  187.8260  176.8910  143.0180 C   0  0  0  0  0  0  0  0  0  0  0  0
  190.3440  176.7060  141.7980 C   0  0  0  0  0  3  0  0  0  0  0  0
  187.7920  177.3110  145.9730 C   0  0  0  0  0  2  0  0  0  0  0  0
  186.0840  179.0410  142.3670 N   0  0  0  0  0  0  0  0  0  0  0  0
  190.8590  174.8460  143.1950 F   0  0  0  0  0  0  0  0  0  0  0  0
  184.4140  178.6250  144.8200 N   0  0  0  0  0  0  0  0  0  0  0  0
  189.1840  178.2190  147.8530 C   0  0  0  0  0  1  0  0  0  0  0  0
  187.1820  178.7580  141.4360 C   0  0  0  0  0  2  0  0  0  0  0  0
  185.4950  177.7590  142.7990 C   0  0  2  0  0  3  0  0  0  0  0  0
  188.7310  175.8950  143.4100 C   0  0  0  0  0  3  0  0  0  0  0  0
  186.8330  178.9710  147.6090 C   0  0  0  0  0  3  0  0  0  0  0  0
  188.1870  177.7950  141.9990 C   0  0  0  0  0  0  0  0  0  0  0  0
  189.4410  177.6910  141.3880 C   0  0  0  0  0  3  0  0  0  0  0  0
  184.1770  177.9360  143.5590 C   0  0  0  0  0  2  0  0  0  0  0  0
  185.6000  178.4010  145.5890 C   0  0  0  0  0  0  0  0  0  0  0  0
  185.7070  179.0500  146.9050 C   0  0  0  0  0  3  0  0  0  0  0  0
  185.1010  179.7950  141.5880 C   0  0  0  0  0  2  0  0  0  0  0  0
  185.0110  179.7180  139.1980 O   0  0  0  0  0  1  0  0  0  0  0  0
  184.6580  179.0060  140.3510 C   0  0  2  0  0  3  0  0  0  0  0  0
  180.7540  177.9270  139.1320 N   0  0  0  0  0  0  0  0  0  0  0  0
  182.5150  179.5990  139.4190 C   0  0  0  0  0  2  0  0  0  0  0  0
  183.4750  176.9940  138.8000 O   0  0  0  0  0  1  0  0  0  0  0  0
  179.3330  177.7060  139.3230 C   0  0  0  0  0  1  0  0  0  0  0  0
  181.0150  179.3220  139.4830 C   0  0  0  0  0  2  0  0  0  0  0  0
  182.9530  177.3300  140.0560 C   0  0  1  0  0  3  0  0  0  0  0  0
  183.2120  178.7430  140.3880 N   0  0  0  0  0  0  0  0  0  0  0  0
  181.4460  177.0580  140.0860 C   0  0  0  0  0  2  0  0  0  0  0  0
  1  9  1  0  0  0  0
  1 14  1  0  0  0  0
  2  5  1  6  0  0  0
  2  3  1  0  0  0  0
  3 19  1  0  0  0  0
  3  7  1  1  0  0  0
  4 15  1  0  0  0  0
  4 11  1  0  0  0  0
  5 14  2  0  0  0  0
  6  1  2  0  0  0  0
  7  4  1  0  0  0  0
  8 13  1  0  0  0  0
 10 19  2  0  0  0  0
 12 16  1  0  0  0  0
 12  8  1  0  0  0  0
 13 18  1  1  0  0  0
 13  2  1  0  0  0  0
 16  5  1  0  0  0  0
 17  6  1  0  0  0  0
 17 16  2  0  0  0  0
 18 10  1  0  0  0  0
 19 20  1  0  0  0  0
 20 15  2  0  0  0  0
 21  8  1  0  0  0  0
 23 22  1  6  0  0  0
 23 30  1  0  0  0  0
 23 21  1  0  0  0  0
 24 27  1  0  0  0  0
 24 28  1  0  0  0  0
 24 31  1  0  0  0  0
 25 28  1  0  0  0  0
 25 30  1  0  0  0  0
 29 26  1  6  0  0  0
 29 31  1  0  0  0  0
 29 30  1  0  0  0  0
M  END
>  <MODEL>
2

>  <REMARK>
 VINA RESULT:      -7.3      3.277      7.261
  Name = 
  3 active torsions:
  status: ('A' for Active; 'I' for Inactive)
    1  A    between atoms: C_5  and  C_16
    2  A    between atoms: C_5  and  N_30
    3  A    between atoms: N_10  and  C_16
                            x       y       z     vdW  Elec       q    Type
                         _______ _______ _______ _____ _____    ______ ____

>  <TORSDO>
F 3

$$$$
=
 OpenBabel11122411023D

 31 35  0  0  1  0  0  0  0  0999 V2000
  193.0120  175.1270  135.7260 C   0  0  0  0  0  0  0  0  0  0  0  0
  189.7250  176.8250  136.6240 C   0  0  2  0  0  3  0  0  0  0  0  0
  188.6710  175.7210  136.6430 C   0  0  0  0  0  0  0  0  0  0  0  0
  187.9970  173.3710  136.2560 N   0  0  0  0  0  0  0  0  0  0  0  0
  191.1260  176.2770  136.7330 C   0  0  0  0  0  0  0  0  0  0  0  0
  193.6950  175.1730  136.9440 C   0  0  0  0  0  3  0  0  0  0  0  0
  188.9340  174.4340  135.8910 C   0  0  0  0  0  2  0  0  0  0  0  0
  189.8210  177.2950  139.0450 N   0  0  0  0  0  0  0  0  0  0  0  0
  193.5870  174.5430  134.6490 F   0  0  0  0  0  0  0  0  0  0  0  0
  187.1270  177.2270  137.7330 N   0  0  0  0  0  2  0  0  0  0  0  0
  188.2990  172.0070  135.8670 C   0  0  0  0  0  1  0  0  0  0  0  0
  191.2750  177.1100  139.1170 C   0  0  0  0  0  2  0  0  0  0  0  0
  189.4890  177.8780  137.7300 C   0  0  2  0  0  3  0  0  0  0  0  0
  191.7330  175.6800  135.6200 C   0  0  0  0  0  3  0  0  0  0  0  0
  186.6980  173.6730  136.7700 C   0  0  0  0  0  3  0  0  0  0  0  0
  191.8200  176.3270  137.9590 C   0  0  0  0  0  0  0  0  0  0  0  0
  193.1050  175.7830  138.0540 C   0  0  0  0  0  3  0  0  0  0  0  0
  188.0380  178.3600  137.6430 C   0  0  0  0  0  2  0  0  0  0  0  0
  187.4430  175.9590  137.1520 C   0  0  0  0  0  0  0  0  0  0  0  0
  186.4190  174.9030  137.1900 C   0  0  0  0  0  3  0  0  0  0  0  0
  189.4980  178.2540  140.1020 C   0  0  0  0  0  2  0  0  0  0  0  0
  187.4440  178.0880  141.3160 O   0  0  0  0  0  1  0  0  0  0  0  0
  188.7440  177.5740  141.2490 C   0  0  2  0  0  3  0  0  0  0  0  0
  190.5300  176.7440  144.9920 N   0  0  0  0  0  0  0  0  0  0  0  0
  188.5880  177.3710  143.6460 C   0  0  0  0  0  2  0  0  0  0  0  0
  190.3690  175.5720  142.3500 O   0  0  0  0  0  1  0  0  0  0  0  0
  191.2440  177.0790  146.2090 C   0  0  0  0  0  1  0  0  0  0  0  0
  189.3340  177.5840  144.9610 C   0  0  0  0  0  2  0  0  0  0  0  0
  190.6700  176.9270  142.5440 C   0  0  1  0  0  3  0  0  0  0  0  0
  189.4520  177.7580  142.5240 N   0  0  0  0  0  0  0  0  0  0  0  0
  191.4020  177.1140  143.8760 C   0  0  0  0  0  2  0  0  0  0  0  0
  1  6  1  0  0  0  0
  2  3  1  1  0  0  0
  2  5  1  0  0  0  0
  2 13  1  0  0  0  0
  3 19  2  0  0  0  0
  4 15  1  0  0  0  0
  5 16  2  0  0  0  0
  6 17  2  0  0  0  0
  7  4  1  0  0  0  0
  7  3  1  0  0  0  0
  8 12  1  0  0  0  0
  8 21  1  0  0  0  0
  9  1  1  0  0  0  0
 11  4  1  0  0  0  0
 13 18  1  1  0  0  0
 13  8  1  0  0  0  0
 14  1  2  0  0  0  0
 14  5  1  0  0  0  0
 15 20  2  0  0  0  0
 16 17  1  0  0  0  0
 16 12  1  0  0  0  0
 18 10  1  0  0  0  0
 19 20  1  0  0  0  0
 19 10  1  0  0  0  0
 21 23  1  0  0  0  0
 23 22  1  1  0  0  0
 23 30  1  0  0  0  0
 24 27  1  0  0  0  0
 25 28  1  0  0  0  0
 28 24  1  0  0  0  0
 29 26  1  1  0  0  0
 29 31  1  0  0  0  0
 30 29  1  0  0  0  0
 30 25  1  0  0  0  0
 31 24  1  0  0  0  0
M  END
>  <MODEL>
3

>  <REMARK>
 VINA RESULT:      -7.2      3.057      4.252
  Name = 
  3 active torsions:
  status: ('A' for Active; 'I' for Inactive)
    1  A    between atoms: C_5  and  C_16
    2  A    between atoms: C_5  and  N_30
    3  A    between atoms: N_10  and  C_16
                            x       y       z     vdW  Elec       q    Type
                         _______ _______ _______ _____ _____    ______ ____

>  <TORSDO>
F 3

$$$$
=
 OpenBabel11122411023D

 31 35  0  0  1  0  0  0  0  0999 V2000
  183.3490  178.9260  143.4400 C   0  0  0  0  0  0  0  0  0  0  0  0
  182.7450  177.6470  139.9060 C   0  0  2  0  0  3  0  0  0  0  0  0
  181.7470  178.6140  139.2720 C   0  0  2  0  0  3  0  0  0  0  0  0
  180.2120  180.5490  139.4360 N   0  0  0  0  0  0  0  0  0  0  0  0
  183.4270  178.2430  141.1120 C   0  0  0  0  0  0  0  0  0  0  0  0
  184.6480  179.4290  143.3390 C   0  0  0  0  0  3  0  0  0  0  0  0
  180.8740  179.4680  140.1660 C   0  0  0  0  0  2  0  0  0  0  0  0
  184.7430  178.2560  138.5920 N   0  0  0  0  0  0  0  0  0  0  0  0
  182.6760  179.0180  144.6110 F   0  0  0  0  0  0  0  0  0  0  0  0
  182.2120  177.6570  137.1020 N   0  0  0  0  0  0  0  0  0  0  0  0
  179.5980  181.6280  140.1850 C   0  0  0  0  0  1  0  0  0  0  0  0
  185.5630  178.5090  139.7820 C   0  0  0  0  0  2  0  0  0  0  0  0
  183.8050  177.1570  138.8960 C   0  0  2  0  0  3  0  0  0  0  0  0
  182.7410  178.3330  142.3300 C   0  0  0  0  0  3  0  0  0  0  0  0
  179.9530  180.4450  138.0340 C   0  0  0  0  0  3  0  0  0  0  0  0
  184.7400  178.7450  141.0160 C   0  0  0  0  0  0  0  0  0  0  0  0
  185.3470  179.3270  142.1330 C   0  0  0  0  0  3  0  0  0  0  0  0
  183.0870  176.6290  137.6510 C   0  0  0  0  0  2  0  0  0  0  0  0
  181.5010  178.5680  137.9450 C   0  0  0  0  0  0  0  0  0  0  0  0
  180.5530  179.5010  137.3150 C   0  0  0  0  0  3  0  0  0  0  0  0
  185.6840  177.8270  137.5570 C   0  0  0  0  0  2  0  0  0  0  0  0
  187.2400  179.4980  136.8430 O   0  0  0  0  0  1  0  0  0  0  0  0
  187.0620  178.4630  137.7690 C   0  0  2  0  0  3  0  0  0  0  0  0
  190.9020  176.6930  137.6810 N   0  0  0  0  0  0  0  0  0  0  0  0
  189.0430  177.8160  136.5580 C   0  0  0  0  0  2  0  0  0  0  0  0
  189.4330  178.6280  139.2550 O   0  0  0  0  0  1  0  0  0  0  0  0
  191.8380  175.5940  137.5400 C   0  0  0  0  0  1  0  0  0  0  0  0
  190.1330  176.7530  136.4390 C   0  0  0  0  0  2  0  0  0  0  0  0
  188.8880  177.3840  138.9110 C   0  0  1  0  0  3  0  0  0  0  0  0
  188.1280  177.4580  137.6490 N   0  0  0  0  0  0  0  0  0  0  0  0
  190.0040  176.3430  138.7820 C   0  0  0  0  0  2  0  0  0  0  0  0
  1  9  1  0  0  0  0
  2  5  1  1  0  0  0
  3  2  1  0  0  0  0
  3  7  1  1  0  0  0
  4  7  1  0  0  0  0
  4 11  1  0  0  0  0
  5 14  1  0  0  0  0
  6  1  1  0  0  0  0
  8 13  1  0  0  0  0
  8 12  1  0  0  0  0
 10 18  1  0  0  0  0
 10 19  2  0  0  0  0
 12 16  1  0  0  0  0
 13 18  1  6  0  0  0
 13  2  1  0  0  0  0
 14  1  2  0  0  0  0
 15  4  1  0  0  0  0
 16  5  2  0  0  0  0
 16 17  1  0  0  0  0
 17  6  2  0  0  0  0
 19  3  1  0  0  0  0
 20 19  1  0  0  0  0
 20 15  2  0  0  0  0
 21 23  1  0  0  0  0
 21  8  1  0  0  0  0
 23 22  1  6  0  0  0
 24 31  1  0  0  0  0
 25 30  1  0  0  0  0
 27 24  1  0  0  0  0
 28 25  1  0  0  0  0
 28 24  1  0  0  0  0
 29 26  1  6  0  0  0
 30 23  1  0  0  0  0
 30 29  1  0  0  0  0
 31 29  1  0  0  0  0
M  END
>  <MODEL>
4

>  <REMARK>
 VINA RESULT:      -6.8      3.903      6.523
  Name = 
  3 active torsions:
  status: ('A' for Active; 'I' for Inactive)
    1  A    between atoms: C_5  and  C_16
    2  A    between atoms: C_5  and  N_30
    3  A    between atoms: N_10  and  C_16
                            x       y       z     vdW  Elec       q    Type
                         _______ _______ _______ _____ _____    ______ ____

>  <TORSDO>
F 3

$$$$
=
 OpenBabel11122411023D

 31 35  0  0  1  0  0  0  0  0999 V2000
  191.2240  176.3540  136.8840 C   0  0  0  0  0  0  0  0  0  0  0  0
  187.6610  177.5770  137.4320 C   0  0  2  0  0  3  0  0  0  0  0  0
  186.7620  176.3570  137.2420 C   0  0  0  0  0  0  0  0  0  0  0  0
  186.4480  173.9810  136.6270 N   0  0  0  0  0  0  0  0  0  0  0  0
  189.0950  177.1920  137.6960 C   0  0  0  0  0  0  0  0  0  0  0  0
  191.7360  176.3870  138.1830 C   0  0  0  0  0  3  0  0  0  0  0  0
  187.2800  175.1720  136.4570 C   0  0  0  0  0  2  0  0  0  0  0  0
  187.3890  177.8680  139.8680 N   0  0  0  0  0  0  0  0  0  0  0  0
  192.0000  175.9260  135.8610 F   0  0  0  0  0  0  0  0  0  0  0  0
  184.9140  177.5820  138.2040 N   0  0  0  0  0  2  0  0  0  0  0  0
  186.9680  172.6960  136.2000 C   0  0  0  0  0  1  0  0  0  0  0  0
  188.8340  177.8520  140.1250 C   0  0  0  0  0  2  0  0  0  0  0  0
  187.1550  178.5060  138.5580 C   0  0  2  0  0  3  0  0  0  0  0  0
  189.9080  176.7580  136.6410 C   0  0  0  0  0  3  0  0  0  0  0  0
  185.0670  174.0860  136.9780 C   0  0  0  0  0  3  0  0  0  0  0  0
  189.6170  177.2300  139.0050 C   0  0  0  0  0  0  0  0  0  0  0  0
  190.9380  176.8360  139.2390 C   0  0  0  0  0  3  0  0  0  0  0  0
  185.6770  178.8180  138.3060 C   0  0  0  0  0  2  0  0  0  0  0  0
  185.4590  176.4080  137.5950 C   0  0  0  0  0  0  0  0  0  0  0  0
  184.5820  175.2390  137.4310 C   0  0  0  0  0  3  0  0  0  0  0  0
  186.8170  178.6970  140.9280 C   0  0  0  0  0  2  0  0  0  0  0  0
  184.8760  178.0160  142.1510 O   0  0  0  0  0  1  0  0  0  0  0  0
  186.2620  177.8320  142.0640 C   0  0  2  0  0  3  0  0  0  0  0  0
  187.9520  177.4030  145.9170 N   0  0  0  0  0  0  0  0  0  0  0  0
  186.0330  177.8290  144.4640 C   0  0  0  0  0  2  0  0  0  0  0  0
  187.9270  176.0030  143.3840 O   0  0  0  0  0  1  0  0  0  0  0  0
  188.6120  177.8720  147.1210 C   0  0  0  0  0  1  0  0  0  0  0  0
  186.7250  178.1870  145.7770 C   0  0  0  0  0  2  0  0  0  0  0  0
  188.1670  177.3810  143.4680 C   0  0  1  0  0  3  0  0  0  0  0  0
  186.9180  178.1550  143.3390 N   0  0  0  0  0  0  0  0  0  0  0  0
  188.8460  177.7130  144.8000 C   0  0  0  0  0  2  0  0  0  0  0  0
  1  6  1  0  0  0  0
  2  3  1  1  0  0  0
  2  5  1  0  0  0  0
  2 13  1  0  0  0  0
  3 19  2  0  0  0  0
  4 15  1  0  0  0  0
  5 16  2  0  0  0  0
  6 17  2  0  0  0  0
  7  4  1  0  0  0  0
  7  3  1  0  0  0  0
  8 12  1  0  0  0  0
  8 21  1  0  0  0  0
  9  1  1  0  0  0  0
 10 18  1  0  0  0  0
 11  4  1  0  0  0  0
 13 18  1  6  0  0  0
 13  8  1  0  0  0  0
 14  1  2  0  0  0  0
 14  5  1  0  0  0  0
 15 20  2  0  0  0  0
 16 17  1  0  0  0  0
 16 12  1  0  0  0  0
 19 10  1  0  0  0  0
 20 19  1  0  0  0  0
 21 23  1  0  0  0  0
 23 22  1  1  0  0  0
 23 30  1  0  0  0  0
 24 27  1  0  0  0  0
 25 28  1  0  0  0  0
 28 24  1  0  0  0  0
 29 26  1  1  0  0  0
 29 31  1  0  0  0  0
 30 29  1  0  0  0  0
 30 25  1  0  0  0  0
 31 24  1  0  0  0  0
M  END
>  <MODEL>
5

>  <REMARK>
 VINA RESULT:      -6.4      1.627      2.163
  Name = 
  3 active torsions:
  status: ('A' for Active; 'I' for Inactive)
    1  A    between atoms: C_5  and  C_16
    2  A    between atoms: C_5  and  N_30
    3  A    between atoms: N_10  and  C_16
                            x       y       z     vdW  Elec       q    Type
                         _______ _______ _______ _____ _____    ______ ____

>  <TORSDO>
F 3

$$$$
=
 OpenBabel11122411023D

 31 35  0  0  1  0  0  0  0  0999 V2000
  183.2810  173.1680  136.5060 C   0  0  0  0  0  0  0  0  0  0  0  0
  185.2370  176.4330  136.5700 C   0  0  2  0  0  3  0  0  0  0  0  0
  184.6410  177.2590  137.7070 C   0  0  2  0  0  3  0  0  0  0  0  0
  182.9370  177.5950  139.4710 N   0  0  0  0  0  0  0  0  0  0  0  0
  184.8980  174.9680  136.6920 C   0  0  0  0  0  0  0  0  0  0  0  0
  184.2240  172.2640  137.0000 C   0  0  0  0  0  3  0  0  0  0  0  0
  183.2430  176.9460  138.1960 C   0  0  0  0  0  2  0  0  0  0  0  0
  187.4250  175.9160  137.5880 N   0  0  0  0  0  0  0  0  0  0  0  0
  182.0380  172.7400  136.1820 F   0  0  0  0  0  0  0  0  0  0  0  0
  186.5210  178.7730  137.5790 N   0  0  0  0  0  0  0  0  0  0  0  0
  181.7750  177.1570  140.2190 C   0  0  0  0  0  1  0  0  0  0  0  0
  187.2770  174.4690  137.3950 C   0  0  0  0  0  2  0  0  0  0  0  0
  186.7680  176.6070  136.4610 C   0  0  2  0  0  3  0  0  0  0  0  0
  183.6170  174.5150  136.3500 C   0  0  0  0  0  3  0  0  0  0  0  0
  183.6090  178.7900  139.8740 C   0  0  0  0  0  3  0  0  0  0  0  0
  185.8500  174.0530  137.1850 C   0  0  0  0  0  0  0  0  0  0  0  0
  185.5100  172.7040  137.3270 C   0  0  0  0  0  3  0  0  0  0  0  0
  187.0870  178.1040  136.4150 C   0  0  0  0  0  2  0  0  0  0  0  0
  185.2650  178.3770  138.1380 C   0  0  0  0  0  0  0  0  0  0  0  0
  184.7130  179.1790  139.2420 C   0  0  0  0  0  3  0  0  0  0  0  0
  188.8660  176.1670  137.5460 C   0  0  0  0  0  2  0  0  0  0  0  0
  190.4790  177.8600  138.0510 O   0  0  0  0  0  1  0  0  0  0  0  0
  189.2460  177.3370  138.4590 C   0  0  2  0  0  3  0  0  0  0  0  0
  189.6200  177.4660  142.6700 N   0  0  0  0  0  0  0  0  0  0  0  0
  190.6050  177.2190  140.4460 C   0  0  0  0  0  2  0  0  0  0  0  0
  188.3940  179.0030  140.5450 O   0  0  0  0  0  1  0  0  0  0  0  0
  189.6320  176.8990  144.0050 C   0  0  0  0  0  1  0  0  0  0  0  0
  190.6400  176.7550  141.9010 C   0  0  0  0  0  2  0  0  0  0  0  0
  188.2480  177.6130  140.6340 C   0  0  1  0  0  3  0  0  0  0  0  0
  189.2930  176.9110  139.8650 N   0  0  0  0  0  0  0  0  0  0  0  0
  188.3030  177.1740  142.1010 C   0  0  0  0  0  2  0  0  0  0  0  0
  1  6  1  0  0  0  0
  2  5  1  1  0  0  0
  2  3  1  0  0  0  0
  3 19  1  0  0  0  0
  3  7  1  6  0  0  0
  4 15  1  0  0  0  0
  4 11  1  0  0  0  0
  5 16  2  0  0  0  0
  6 17  2  0  0  0  0
  7  4  1  0  0  0  0
  9  1  1  0  0  0  0
 10 19  2  0  0  0  0
 12  8  1  0  0  0  0
 13 18  1  1  0  0  0
 13  2  1  0  0  0  0
 13  8  1  0  0  0  0
 14  1  2  0  0  0  0
 14  5  1  0  0  0  0
 16 17  1  0  0  0  0
 16 12  1  0  0  0  0
 18 10  1  0  0  0  0
 19 20  1  0  0  0  0
 20 15  2  0  0  0  0
 21  8  1  0  0  0  0
 21 23  1  0  0  0  0
 23 22  1  6  0  0  0
 23 30  1  0  0  0  0
 24 27  1  0  0  0  0
 25 28  1  0  0  0  0
 28 24  1  0  0  0  0
 29 26  1  1  0  0  0
 29 31  1  0  0  0  0
 30 25  1  0  0  0  0
 30 29  1  0  0  0  0
 31 24  1  0  0  0  0
M  END
>  <MODEL>
6

>  <REMARK>
 VINA RESULT:      -6.1      2.817      5.074
  Name = 
  3 active torsions:
  status: ('A' for Active; 'I' for Inactive)
    1  A    between atoms: C_5  and  C_16
    2  A    between atoms: C_5  and  N_30
    3  A    between atoms: N_10  and  C_16
                            x       y       z     vdW  Elec       q    Type
                         _______ _______ _______ _____ _____    ______ ____

>  <TORSDO>
F 3

$$$$
=
 OpenBabel11122411023D

 31 35  0  0  1  0  0  0  0  0999 V2000
  183.6970  178.4560  139.2920 C   0  0  0  0  0  0  0  0  0  0  0  0
  187.1550  178.2790  137.7100 C   0  0  2  0  0  3  0  0  0  0  0  0
  188.1230  177.9570  138.8460 C   0  0  2  0  0  3  0  0  0  0  0  0
  188.5910  177.6090  141.2520 N   0  0  0  0  0  0  0  0  0  0  0  0
  185.7280  177.9440  138.0650 C   0  0  0  0  0  0  0  0  0  0  0  0
  183.1050  177.2880  138.8070 C   0  0  0  0  0  3  0  0  0  0  0  0
  187.7130  178.2510  140.2730 C   0  0  0  0  0  2  0  0  0  0  0  0
  187.2620  176.1290  136.5030 N   0  0  0  0  0  0  0  0  0  0  0  0
  183.0070  179.2680  140.1270 F   0  0  0  0  0  0  0  0  0  0  0  0
  189.8460  177.4630  137.2250 N   0  0  0  0  0  0  0  0  0  0  0  0
  188.1630  177.5350  142.6350 C   0  0  0  0  0  1  0  0  0  0  0  0
  185.8060  175.9400  136.5210 C   0  0  0  0  0  2  0  0  0  0  0  0
  187.5440  177.5730  136.3920 C   0  0  2  0  0  3  0  0  0  0  0  0
  185.0030  178.7840  138.9200 C   0  0  0  0  0  3  0  0  0  0  0  0
  189.9410  177.2720  140.9260 C   0  0  0  0  0  3  0  0  0  0  0  0
  185.1260  176.7690  137.5720 C   0  0  0  0  0  0  0  0  0  0  0  0
  183.8140  176.4520  137.9390 C   0  0  0  0  0  3  0  0  0  0  0  0
  189.0180  177.8690  136.0970 C   0  0  0  0  0  2  0  0  0  0  0  0
  189.3980  177.6010  138.5760 C   0  0  0  0  0  0  0  0  0  0  0  0
  190.3400  177.2730  139.6580 C   0  0  0  0  0  3  0  0  0  0  0  0
  187.7260  175.4430  135.2980 C   0  0  0  0  0  2  0  0  0  0  0  0
  187.9040  173.6240  136.8420 O   0  0  0  0  0  1  0  0  0  0  0  0
  188.4360  174.1320  135.6510 C   0  0  2  0  0  3  0  0  0  0  0  0
  192.5490  173.3640  136.2680 N   0  0  0  0  0  0  0  0  0  0  0  0
  190.3440  173.9910  137.1170 C   0  0  0  0  0  2  0  0  0  0  0  0
  190.2760  172.1300  134.9680 O   0  0  0  0  0  1  0  0  0  0  0  0
  193.9550  173.7170  136.3390 C   0  0  0  0  0  1  0  0  0  0  0  0
  191.8500  174.2240  137.2200 C   0  0  0  0  0  2  0  0  0  0  0  0
  190.5900  173.4840  134.7870 C   0  0  1  0  0  3  0  0  0  0  0  0
  189.8880  174.3360  135.7650 N   0  0  0  0  0  0  0  0  0  0  0  0
  192.1020  173.6910  134.9130 C   0  0  0  0  0  2  0  0  0  0  0  0
  1  9  1  0  0  0  0
  2  5  1  1  0  0  0
  2  3  1  0  0  0  0
  3  7  1  1  0  0  0
  4 11  1  0  0  0  0
  5 14  2  0  0  0  0
  6  1  2  0  0  0  0
  7  4  1  0  0  0  0
  8 12  1  0  0  0  0
 10 19  2  0  0  0  0
 12 16  1  0  0  0  0
 13 18  1  1  0  0  0
 13  8  1  0  0  0  0
 13  2  1  0  0  0  0
 14  1  1  0  0  0  0
 15  4  1  0  0  0  0
 16 17  2  0  0  0  0
 16  5  1  0  0  0  0
 17  6  1  0  0  0  0
 18 10  1  0  0  0  0
 19  3  1  0  0  0  0
 19 20  1  0  0  0  0
 20 15  2  0  0  0  0
 21 23  1  0  0  0  0
 21  8  1  0  0  0  0
 23 30  1  0  0  0  0
 23 22  1  1  0  0  0
 24 27  1  0  0  0  0
 24 28  1  0  0  0  0
 25 28  1  0  0  0  0
 29 31  1  0  0  0  0
 29 26  1  1  0  0  0
 29 30  1  0  0  0  0
 30 25  1  0  0  0  0
 31 24  1  0  0  0  0
M  END
>  <MODEL>
7

>  <REMARK>
 VINA RESULT:      -6.1      4.136      7.635
  Name = 
  3 active torsions:
  status: ('A' for Active; 'I' for Inactive)
    1  A    between atoms: C_5  and  C_16
    2  A    between atoms: C_5  and  N_30
    3  A    between atoms: N_10  and  C_16
                            x       y       z     vdW  Elec       q    Type
                         _______ _______ _______ _____ _____    ______ ____

>  <TORSDO>
F 3

$$$$
=
 OpenBabel11122411023D

 31 35  0  0  1  0  0  0  0  0999 V2000
  181.8780  178.6330  141.1830 C   0  0  0  0  0  0  0  0  0  0  0  0
  185.1360  178.8060  139.2210 C   0  0  2  0  0  3  0  0  0  0  0  0
  186.2450  178.4760  140.2170 C   0  0  2  0  0  3  0  0  0  0  0  0
  187.0070  178.0000  142.5230 N   0  0  0  0  0  0  0  0  0  0  0  0
  183.7820  178.3490  139.7050 C   0  0  0  0  0  0  0  0  0  0  0  0
  181.3070  177.4620  140.6800 C   0  0  0  0  0  3  0  0  0  0  0  0
  185.9850  178.6440  141.6980 C   0  0  0  0  0  2  0  0  0  0  0  0
  185.2360  176.7550  137.8520 N   0  0  0  0  0  0  0  0  0  0  0  0
  181.2390  179.3370  142.1480 F   0  0  0  0  0  0  0  0  0  0  0  0
  187.7990  178.2150  138.3830 N   0  0  0  0  0  0  0  0  0  0  0  0
  186.7460  177.8020  143.9350 C   0  0  0  0  0  1  0  0  0  0  0  0
  183.8070  176.4650  138.0160 C   0  0  0  0  0  2  0  0  0  0  0  0
  185.4140  178.2200  137.8200 C   0  0  2  0  0  3  0  0  0  0  0  0
  183.1100  179.0770  140.6960 C   0  0  0  0  0  3  0  0  0  0  0  0
  188.3300  177.7810  142.0260 C   0  0  0  0  0  3  0  0  0  0  0  0
  183.2010  177.1700  139.1950 C   0  0  0  0  0  0  0  0  0  0  0  0
  181.9620  176.7390  139.6790 C   0  0  0  0  0  3  0  0  0  0  0  0
  186.8230  178.6370  137.3870 C   0  0  0  0  0  2  0  0  0  0  0  0
  187.5000  178.2290  139.7820 C   0  0  0  0  0  0  0  0  0  0  0  0
  188.5790  177.8960  140.7250 C   0  0  0  0  0  3  0  0  0  0  0  0
  185.6010  176.1860  136.5550 C   0  0  0  0  0  2  0  0  0  0  0  0
  187.7960  175.2650  136.3190 O   0  0  0  0  0  1  0  0  0  0  0  0
  186.4940  174.9530  136.7270 C   0  0  2  0  0  3  0  0  0  0  0  0
  185.2440  171.0330  135.7450 N   0  0  0  0  0  0  0  0  0  0  0  0
  186.9760  172.7550  135.8630 C   0  0  0  0  0  2  0  0  0  0  0  0
  185.0640  172.8840  137.9640 O   0  0  0  0  0  1  0  0  0  0  0  0
  184.6960  170.0090  134.8770 C   0  0  0  0  0  1  0  0  0  0  0  0
  186.4120  171.5860  135.0600 C   0  0  0  0  0  2  0  0  0  0  0  0
  184.7710  173.2700  136.6500 C   0  0  1  0  0  3  0  0  0  0  0  0
  185.9620  173.8110  135.9680 N   0  0  0  0  0  0  0  0  0  0  0  0
  184.2230  172.0760  135.8640 C   0  0  0  0  0  2  0  0  0  0  0  0
  1  9  1  0  0  0  0
  2  5  1  1  0  0  0
  2  3  1  0  0  0  0
  3  7  1  1  0  0  0
  4 11  1  0  0  0  0
  5 14  2  0  0  0  0
  6  1  2  0  0  0  0
  7  4  1  0  0  0  0
  8 12  1  0  0  0  0
 10 19  2  0  0  0  0
 12 16  1  0  0  0  0
 13 18  1  1  0  0  0
 13  8  1  0  0  0  0
 13  2  1  0  0  0  0
 14  1  1  0  0  0  0
 15  4  1  0  0  0  0
 16 17  2  0  0  0  0
 16  5  1  0  0  0  0
 17  6  1  0  0  0  0
 18 10  1  0  0  0  0
 19  3  1  0  0  0  0
 19 20  1  0  0  0  0
 20 15  2  0  0  0  0
 21 23  1  0  0  0  0
 21  8  1  0  0  0  0
 23 22  1  6  0  0  0
 24 31  1  0  0  0  0
 25 30  1  0  0  0  0
 27 24  1  0  0  0  0
 28 24  1  0  0  0  0
 28 25  1  0  0  0  0
 29 26  1  1  0  0  0
 30 29  1  0  0  0  0
 30 23  1  0  0  0  0
 31 29  1  0  0  0  0
M  END
>  <MODEL>
8

>  <REMARK>
 VINA RESULT:      -5.9      3.243      7.844
  Name = 
  3 active torsions:
  status: ('A' for Active; 'I' for Inactive)
    1  A    between atoms: C_5  and  C_16
    2  A    between atoms: C_5  and  N_30
    3  A    between atoms: N_10  and  C_16
                            x       y       z     vdW  Elec       q    Type
                         _______ _______ _______ _____ _____    ______ ____

>  <TORSDO>
F 3

$$$$
=
 OpenBabel11122411023D

 31 35  0  0  1  0  0  0  0  0999 V2000
  190.5220  177.1510  141.0850 C   0  0  0  0  0  0  0  0  0  0  0  0
  190.6030  175.2580  137.7840 C   0  0  2  0  0  3  0  0  0  0  0  0
  189.6710  176.0150  136.8410 C   0  0  2  0  0  3  0  0  0  0  0  0
  188.0180  177.8070  136.4150 N   0  0  0  0  0  0  0  0  0  0  0  0
  191.0340  176.1020  138.9570 C   0  0  0  0  0  0  0  0  0  0  0  0
  191.7870  177.7420  141.1020 C   0  0  0  0  0  3  0  0  0  0  0  0
  188.6100  176.9250  137.4210 C   0  0  0  0  0  2  0  0  0  0  0  0
  192.7550  175.8140  136.7130 N   0  0  0  0  0  0  0  0  0  0  0  0
  189.6550  177.3760  142.1020 F   0  0  0  0  0  0  0  0  0  0  0  0
  190.5540  174.7570  134.9750 N   0  0  0  0  0  0  0  0  0  0  0  0
  187.2220  178.9370  136.8550 C   0  0  0  0  0  1  0  0  0  0  0  0
  193.3450  176.3320  137.9530 C   0  0  0  0  0  2  0  0  0  0  0  0
  191.8470  174.7030  137.0560 C   0  0  2  0  0  3  0  0  0  0  0  0
  190.1470  176.3310  140.0170 C   0  0  0  0  0  3  0  0  0  0  0  0
  188.0070  177.4510  135.0310 C   0  0  0  0  0  3  0  0  0  0  0  0
  192.3120  176.6960  138.9800 C   0  0  0  0  0  0  0  0  0  0  0  0
  192.6840  177.5050  140.0580 C   0  0  0  0  0  3  0  0  0  0  0  0
  191.3820  173.9150  135.8270 C   0  0  0  0  0  2  0  0  0  0  0  0
  189.6580  175.7290  135.5200 C   0  0  0  0  0  0  0  0  0  0  0  0
  188.7760  176.4570  134.5940 C   0  0  0  0  0  3  0  0  0  0  0  0
  193.8820  175.3050  135.9310 C   0  0  0  0  0  2  0  0  0  0  0  0
  196.1800  175.6720  136.4870 O   0  0  0  0  0  1  0  0  0  0  0  0
  195.0530  174.9210  136.8420 C   0  0  2  0  0  3  0  0  0  0  0  0
  196.7720  171.1280  137.5800 N   0  0  0  0  0  0  0  0  0  0  0  0
  196.7300  173.2540  136.3740 C   0  0  0  0  0  2  0  0  0  0  0  0
  195.8600  173.4330  139.0750 O   0  0  0  0  0  1  0  0  0  0  0  0
  196.9300  169.6980  137.3890 C   0  0  0  0  0  1  0  0  0  0  0  0
  196.9960  171.7530  136.2770 C   0  0  0  0  0  2  0  0  0  0  0  0
  195.0830  172.8470  138.0670 C   0  0  1  0  0  3  0  0  0  0  0  0
  195.3310  173.4800  136.7580 N   0  0  0  0  0  0  0  0  0  0  0  0
  195.3810  171.3470  137.9820 C   0  0  0  0  0  2  0  0  0  0  0  0
  1  6  1  0  0  0  0
  1  9  1  0  0  0  0
  2  5  1  1  0  0  0
  3  7  1  1  0  0  0
  3  2  1  0  0  0  0
  4 11  1  0  0  0  0
  4  7  1  0  0  0  0
  5 16  2  0  0  0  0
  5 14  1  0  0  0  0
  8 13  1  0  0  0  0
  8 12  1  0  0  0  0
 10 19  2  0  0  0  0
 10 18  1  0  0  0  0
 12 16  1  0  0  0  0
 13 18  1  6  0  0  0
 13  2  1  0  0  0  0
 14  1  2  0  0  0  0
 15  4  1  0  0  0  0
 16 17  1  0  0  0  0
 17  6  2  0  0  0  0
 19  3  1  0  0  0  0
 20 15  2  0  0  0  0
 20 19  1  0  0  0  0
 21  8  1  0  0  0  0
 21 23  1  0  0  0  0
 23 22  1  6  0  0  0
 24 31  1  0  0  0  0
 25 30  1  0  0  0  0
 27 24  1  0  0  0  0
 28 25  1  0  0  0  0
 28 24  1  0  0  0  0
 29 26  1  1  0  0  0
 30 23  1  0  0  0  0
 30 29  1  0  0  0  0
 31 29  1  0  0  0  0
M  END
>  <MODEL>
9

>  <REMARK>
 VINA RESULT:      -5.8      6.542      9.239
  Name = 
  3 active torsions:
  status: ('A' for Active; 'I' for Inactive)
    1  A    between atoms: C_5  and  C_16
    2  A    between atoms: C_5  and  N_30
    3  A    between atoms: N_10  and  C_16
                            x       y       z     vdW  Elec       q    Type
                         _______ _______ _______ _____ _____    ______ ____

>  <TORSDO>
F 3

$$$$
