=
 OpenBabel11122410383D

 32 37  0  0  1  0  0  0  0  0999 V2000
  182.1080  180.1030  139.7850 O   0  0  0  0  0  0  0  0  0  0  0  0
  186.1300  178.1120  142.2160 N   0  0  1  0  0  0  0  0  0  0  0  0
  185.3340  178.6280  147.0740 C   0  0  0  0  0  3  0  0  0  0  0  0
  186.6330  178.1810  147.3220 C   0  0  0  0  0  3  0  0  0  0  0  0
  188.5200  178.2220  141.3640 C   0  0  0  0  0  0  0  0  0  0  0  0
  189.6380  177.3280  141.6320 C   0  0  0  0  0  0  0  0  0  0  0  0
  184.2940  178.1490  140.6070 C   0  0  1  0  0  3  0  0  0  0  0  0
  183.8110  178.2870  143.0590 C   0  0  0  0  0  2  0  0  0  0  0  0
  190.9950  176.1000  142.9560 C   0  0  0  0  0  0  0  0  0  0  0  0
  181.8760  178.3570  141.4330 C   0  0  0  0  0  2  0  0  0  0  0  0
  184.8920  178.8000  145.7590 C   0  0  0  0  0  3  0  0  0  0  0  0
  185.2640  178.7470  143.2460 C   0  0  1  0  0  3  0  0  0  0  0  0
  185.7410  178.5150  144.6770 C   0  0  0  0  0  0  0  0  0  0  0  0
  187.9450  177.8380  143.8010 C   0  0  0  0  0  0  0  0  0  0  0  0
  191.7060  176.7600  142.0550 C   0  0  0  0  0  3  0  0  0  0  0  0
  183.1630  179.7760  138.8930 C   0  0  0  0  0  2  0  0  0  0  0  0
  183.3440  178.7080  141.6750 C   0  0  2  0  0  3  0  0  0  0  0  0
  190.8500  177.5660  141.2510 N   0  0  0  0  0  0  0  0  0  0  0  0
  183.8920  178.4350  139.1520 C   0  0  0  0  0  2  0  0  0  0  0  0
  181.3790  178.9400  140.1050 C   0  0  1  0  0  3  0  0  0  0  0  0
  187.4990  177.9210  146.2570 C   0  0  0  0  0  3  0  0  0  0  0  0
  187.0650  178.1090  144.9380 C   0  0  0  0  0  0  0  0  0  0  0  0
  188.8800  176.9280  143.8930 N   0  0  0  0  0  0  0  0  0  0  0  0
  185.7070  178.6300  140.9080 C   0  0  0  0  0  2  0  0  0  0  0  0
  188.4740  178.8820  140.2930 O   0  0  0  0  0  0  0  0  0  0  0  0
  191.5670  175.1350  143.9320 C   0  0  0  0  0  1  0  0  0  0  0  0
  187.5310  178.4780  142.4870 C   0  0  2  0  0  3  0  0  0  0  0  0
  189.5460  176.3410  142.7310 C   0  0  1  0  0  3  0  0  0  0  0  0
  179.9950  179.2450  140.2090 O   0  0  0  0  0  0  0  0  0  0  0  0
  179.5370  180.5030  140.6050 C   0  0  0  0  0  0  0  0  0  0  0  0
  179.6320  180.8780  141.8040 O   0  0  0  0  0  0  0  0  0  0  0  0
  178.9320  181.4110  139.5980 C   0  0  0  0  0  1  0  0  0  0  0  0
  1 20  1  0  0  0  0
  2 24  1  6  0  0  0
  2 27  1  0  0  0  0
  2 12  1  0  0  0  0
  3  4  1  0  0  0  0
  5  6  1  0  0  0  0
  7 19  1  6  0  0  0
  7 24  1  0  0  0  0
  7 17  1  0  0  0  0
  9 26  1  0  0  0  0
 11  3  2  0  0  0  0
 12  8  1  1  0  0  0
 12 13  1  0  0  0  0
 13 22  2  0  0  0  0
 13 11  1  0  0  0  0
 14 23  2  0  0  0  0
 14 22  1  0  0  0  0
 15  9  2  0  0  0  0
 16 19  1  0  0  0  0
 16  1  1  0  0  0  0
 17 10  1  6  0  0  0
 17  8  1  0  0  0  0
 18  6  2  0  0  0  0
 18 15  1  0  0  0  0
 20 29  1  1  0  0  0
 20 10  1  0  0  0  0
 21  4  2  0  0  0  0
 22 21  1  0  0  0  0
 25  5  2  0  0  0  0
 27  5  1  6  0  0  0
 27 14  1  0  0  0  0
 28  6  1  6  0  0  0
 28  9  1  0  0  0  0
 28 23  1  0  0  0  0
 29 30  1  0  0  0  0
 30 31  2  0  0  0  0
 32 30  1  0  0  0  0
M  END
>  <MODEL>
1

>  <REMARK>
 VINA RESULT:      -9.6      0.000      0.000
  Name = 
  2 active torsions:
  status: ('A' for Active; 'I' for Inactive)
    1  A    between atoms: C_20  and  O_29
    2  A    between atoms: O_29  and  C_30
                            x       y       z     vdW  Elec       q    Type
                         _______ _______ _______ _____ _____    ______ ____

>  <TORSDO>
F 2

$$$$
=
 OpenBabel11122410383D

 32 37  0  0  1  0  0  0  0  0999 V2000
  189.5820  178.2720  145.6600 O   0  0  0  0  0  0  0  0  0  0  0  0
  186.3950  177.9180  141.6900 N   0  0  1  0  0  0  0  0  0  0  0  0
  189.0690  178.5700  137.5760 C   0  0  0  0  0  3  0  0  0  0  0  0
  187.8900  178.5940  136.8280 C   0  0  0  0  0  3  0  0  0  0  0  0
  183.9870  178.7240  141.7070 C   0  0  0  0  0  0  0  0  0  0  0  0
  182.8550  178.2690  140.9110 C   0  0  0  0  0  0  0  0  0  0  0  0
  187.4270  177.2140  143.7880 C   0  0  1  0  0  3  0  0  0  0  0  0
  188.8150  177.4020  141.7140 C   0  0  0  0  0  2  0  0  0  0  0  0
  181.8190  177.6700  138.9950 C   0  0  0  0  0  0  0  0  0  0  0  0
  189.9360  176.6960  143.8680 C   0  0  0  0  0  2  0  0  0  0  0  0
  189.0130  178.4740  138.9690 C   0  0  0  0  0  3  0  0  0  0  0  0
  187.7230  178.3240  141.1530 C   0  0  1  0  0  3  0  0  0  0  0  0
  187.7760  178.3860  139.6290 C   0  0  0  0  0  0  0  0  0  0  0  0
  185.3100  178.3890  139.5720 C   0  0  0  0  0  0  0  0  0  0  0  0
  181.0290  178.4430  139.7230 C   0  0  0  0  0  3  0  0  0  0  0  0
  188.2240  178.2280  146.0680 C   0  0  0  0  0  2  0  0  0  0  0  0
  188.8210  177.5260  143.2300 C   0  0  2  0  0  3  0  0  0  0  0  0
  181.7020  178.8530  140.9090 N   0  0  0  0  0  0  0  0  0  0  0  0
  187.3120  177.2250  145.3200 C   0  0  0  0  0  2  0  0  0  0  0  0
  190.0340  176.9680  145.3740 C   0  0  1  0  0  3  0  0  0  0  0  0
  186.6530  178.5370  137.4720 C   0  0  0  0  0  3  0  0  0  0  0  0
  186.5910  178.4580  138.8690 C   0  0  0  0  0  0  0  0  0  0  0  0
  184.2700  177.8430  138.9960 N   0  0  0  0  0  0  0  0  0  0  0  0
  186.4180  178.1530  143.1390 C   0  0  0  0  0  2  0  0  0  0  0  0
  183.8030  179.2370  142.8420 O   0  0  0  0  0  0  0  0  0  0  0  0
  181.4190  177.0320  137.7130 C   0  0  0  0  0  1  0  0  0  0  0  0
  185.3560  178.7420  141.0490 C   0  0  2  0  0  3  0  0  0  0  0  0
  183.0830  177.4060  139.7310 C   0  0  1  0  0  3  0  0  0  0  0  0
  191.3820  176.8140  145.7970 O   0  0  0  0  0  0  0  0  0  0  0  0
  191.7200  176.5570  147.1270 C   0  0  0  0  0  0  0  0  0  0  0  0
  191.4410  177.3830  148.0370 O   0  0  0  0  0  0  0  0  0  0  0  0
  192.4160  175.2910  147.4720 C   0  0  0  0  0  1  0  0  0  0  0  0
  1 16  1  0  0  0  0
  2 24  1  1  0  0  0
  3 11  1  0  0  0  0
  4 21  1  0  0  0  0
  4  3  2  0  0  0  0
  5 25  2  0  0  0  0
  6  5  1  0  0  0  0
  7 24  1  6  0  0  0
  7 19  1  0  0  0  0
  9 15  2  0  0  0  0
 10 20  1  0  0  0  0
 11 13  2  0  0  0  0
 12  2  1  0  0  0  0
 12  8  1  6  0  0  0
 13 12  1  0  0  0  0
 15 18  1  0  0  0  0
 17  8  1  6  0  0  0
 17  7  1  0  0  0  0
 17 10  1  0  0  0  0
 18  6  2  0  0  0  0
 19 16  1  0  0  0  0
 20  1  1  0  0  0  0
 20 29  1  6  0  0  0
 21 22  2  0  0  0  0
 22 14  1  0  0  0  0
 22 13  1  0  0  0  0
 23 14  2  0  0  0  0
 23 28  1  0  0  0  0
 26  9  1  0  0  0  0
 27 14  1  6  0  0  0
 27  2  1  0  0  0  0
 27  5  1  0  0  0  0
 28  9  1  6  0  0  0
 28  6  1  0  0  0  0
 29 30  1  0  0  0  0
 30 32  1  0  0  0  0
 30 31  2  0  0  0  0
M  END
>  <MODEL>
2

>  <REMARK>
 VINA RESULT:      -9.2      3.134      8.759
  Name = 
  2 active torsions:
  status: ('A' for Active; 'I' for Inactive)
    1  A    between atoms: C_20  and  O_29
    2  A    between atoms: O_29  and  C_30
                            x       y       z     vdW  Elec       q    Type
                         _______ _______ _______ _____ _____    ______ ____

>  <TORSDO>
F 2

$$$$
=
 OpenBabel11122410383D

 32 37  0  0  1  0  0  0  0  0999 V2000
  188.5270  178.4720  147.0710 O   0  0  0  0  0  0  0  0  0  0  0  0
  185.7060  178.0620  142.8370 N   0  0  1  0  0  0  0  0  0  0  0  0
  188.7820  178.3470  138.9700 C   0  0  0  0  0  3  0  0  0  0  0  0
  187.6810  178.3900  138.1130 C   0  0  0  0  0  3  0  0  0  0  0  0
  183.3560  178.9900  142.5840 C   0  0  0  0  0  0  0  0  0  0  0  0
  182.2790  178.5500  141.7080 C   0  0  0  0  0  0  0  0  0  0  0  0
  186.4980  177.4240  145.0580 C   0  0  1  0  0  3  0  0  0  0  0  0
  188.0800  177.4250  143.1180 C   0  0  0  0  0  2  0  0  0  0  0  0
  181.3920  177.9000  139.7350 C   0  0  0  0  0  0  0  0  0  0  0  0
  188.9560  176.7830  145.4020 C   0  0  0  0  0  2  0  0  0  0  0  0
  188.5920  178.3310  140.3550 C   0  0  0  0  0  3  0  0  0  0  0  0
  187.0990  178.3690  142.4100 C   0  0  1  0  0  3  0  0  0  0  0  0
  187.2960  178.3440  140.8970 C   0  0  0  0  0  0  0  0  0  0  0  0
  184.8500  178.4700  140.6050 C   0  0  0  0  0  0  0  0  0  0  0  0
  180.5830  178.7520  140.3440 C   0  0  0  0  0  3  0  0  0  0  0  0
  187.1360  178.5210  147.3490 C   0  0  0  0  0  2  0  0  0  0  0  0
  187.9540  177.6320  144.6200 C   0  0  2  0  0  3  0  0  0  0  0  0
  181.1660  179.1920  141.5660 N   0  0  0  0  0  0  0  0  0  0  0  0
  186.2430  177.5260  146.5690 C   0  0  0  0  0  2  0  0  0  0  0  0
  188.9300  177.1330  146.8950 C   0  0  1  0  0  3  0  0  0  0  0  0
  186.3880  178.4320  138.6370 C   0  0  0  0  0  3  0  0  0  0  0  0
  186.1920  178.4340  140.0250 C   0  0  0  0  0  0  0  0  0  0  0  0
  183.8390  177.9470  139.9610 N   0  0  0  0  0  0  0  0  0  0  0  0
  185.6080  178.3760  144.2690 C   0  0  0  0  0  2  0  0  0  0  0  0
  183.0970  179.5740  143.6690 O   0  0  0  0  0  0  0  0  0  0  0  0
  181.0770  177.2140  138.4540 C   0  0  0  0  0  1  0  0  0  0  0  0
  184.7790  178.9020  142.0600 C   0  0  2  0  0  3  0  0  0  0  0  0
  182.5660  177.6130  140.6000 C   0  0  1  0  0  3  0  0  0  0  0  0
  190.2210  176.9340  147.4520 O   0  0  0  0  0  0  0  0  0  0  0  0
  191.3560  176.7580  146.6580 C   0  0  0  0  0  0  0  0  0  0  0  0
  191.6990  177.6310  145.8160 O   0  0  0  0  0  0  0  0  0  0  0  0
  192.1730  175.5270  146.8130 C   0  0  0  0  0  1  0  0  0  0  0  0
  1 16  1  0  0  0  0
  2 24  1  1  0  0  0
  3 11  1  0  0  0  0
  4 21  1  0  0  0  0
  4  3  2  0  0  0  0
  5 25  2  0  0  0  0
  6  5  1  0  0  0  0
  7 24  1  6  0  0  0
  7 19  1  0  0  0  0
  9 15  2  0  0  0  0
 10 20  1  0  0  0  0
 11 13  2  0  0  0  0
 12  2  1  0  0  0  0
 12  8  1  1  0  0  0
 13 12  1  0  0  0  0
 15 18  1  0  0  0  0
 17  8  1  6  0  0  0
 17  7  1  0  0  0  0
 17 10  1  0  0  0  0
 18  6  2  0  0  0  0
 19 16  1  0  0  0  0
 20  1  1  0  0  0  0
 20 29  1  6  0  0  0
 21 22  2  0  0  0  0
 22 14  1  0  0  0  0
 22 13  1  0  0  0  0
 23 28  1  0  0  0  0
 23 14  2  0  0  0  0
 26  9  1  0  0  0  0
 27 14  1  6  0  0  0
 27  5  1  0  0  0  0
 27  2  1  0  0  0  0
 28  9  1  6  0  0  0
 28  6  1  0  0  0  0
 30 32  1  0  0  0  0
 30 29  1  0  0  0  0
 31 30  2  0  0  0  0
M  END
>  <MODEL>
3

>  <REMARK>
 VINA RESULT:      -9.2      2.903      8.544
  Name = 
  2 active torsions:
  status: ('A' for Active; 'I' for Inactive)
    1  A    between atoms: C_20  and  O_29
    2  A    between atoms: O_29  and  C_30
                            x       y       z     vdW  Elec       q    Type
                         _______ _______ _______ _____ _____    ______ ____

>  <TORSDO>
F 2

$$$$
=
 OpenBabel11122410383D

 32 37  0  0  1  0  0  0  0  0999 V2000
  186.1670  179.3390  145.8190 O   0  0  0  0  0  0  0  0  0  0  0  0
  187.7100  177.6700  141.2490 N   0  0  1  0  0  0  0  0  0  0  0  0
  192.6510  177.4020  141.3570 C   0  0  0  0  0  3  0  0  0  0  0  0
  192.6540  177.1280  139.9880 C   0  0  0  0  0  3  0  0  0  0  0  0
  186.5790  178.2530  139.0520 C   0  0  0  0  0  0  0  0  0  0  0  0
  186.5560  177.5100  137.7990 C   0  0  0  0  0  0  0  0  0  0  0  0
  186.3820  177.6440  143.2990 C   0  0  1  0  0  3  0  0  0  0  0  0
  188.8680  177.3770  143.4160 C   0  0  0  0  0  2  0  0  0  0  0  0
  187.4840  176.3340  136.1080 C   0  0  0  0  0  0  0  0  0  0  0  0
  187.5410  177.3720  145.5680 C   0  0  0  0  0  2  0  0  0  0  0  0
  191.4490  177.6810  142.0130 C   0  0  0  0  0  3  0  0  0  0  0  0
  188.9320  178.0220  142.0240 C   0  0  1  0  0  3  0  0  0  0  0  0
  190.2340  177.6750  141.3090 C   0  0  0  0  0  0  0  0  0  0  0  0
  188.9820  177.4630  139.1950 C   0  0  0  0  0  0  0  0  0  0  0  0
  186.6100  177.2090  135.6360 C   0  0  0  0  0  3  0  0  0  0  0  0
  185.1050  179.2970  144.8790 C   0  0  0  0  0  2  0  0  0  0  0  0
  187.6390  177.9060  144.1390 C   0  0  2  0  0  3  0  0  0  0  0  0
  186.0600  177.9770  136.7010 N   0  0  0  0  0  0  0  0  0  0  0  0
  185.0550  178.0590  143.9510 C   0  0  0  0  0  2  0  0  0  0  0  0
  186.3970  178.0470  146.3340 C   0  0  1  0  0  3  0  0  0  0  0  0
  191.4580  177.1470  139.2690 C   0  0  0  0  0  3  0  0  0  0  0  0
  190.2530  177.4420  139.9190 C   0  0  0  0  0  0  0  0  0  0  0  0
  188.8080  176.7000  138.1460 N   0  0  0  0  0  0  0  0  0  0  0  0
  186.5660  178.2880  141.9310 C   0  0  0  0  0  2  0  0  0  0  0  0
  185.6380  179.0360  139.3460 O   0  0  0  0  0  0  0  0  0  0  0  0
  188.2160  175.3440  135.2740 C   0  0  0  0  0  1  0  0  0  0  0  0
  187.8480  178.2040  139.8840 C   0  0  2  0  0  3  0  0  0  0  0  0
  187.4910  176.3820  137.5940 C   0  0  1  0  0  3  0  0  0  0  0  0
  186.7270  178.1220  147.7140 O   0  0  0  0  0  0  0  0  0  0  0  0
  187.9300  177.6250  148.2200 C   0  0  0  0  0  0  0  0  0  0  0  0
  188.0720  176.3980  148.4650 O   0  0  0  0  0  0  0  0  0  0  0  0
  189.0590  178.5590  148.4690 C   0  0  0  0  0  1  0  0  0  0  0  0
  1 20  1  0  0  0  0
  2 24  1  1  0  0  0
  2 12  1  0  0  0  0
  3 11  1  0  0  0  0
  4  3  2  0  0  0  0
  5 25  2  0  0  0  0
  6  5  1  0  0  0  0
  7 24  1  6  0  0  0
  7 19  1  0  0  0  0
  7 17  1  0  0  0  0
 10 20  1  0  0  0  0
 12  8  1  1  0  0  0
 13 11  2  0  0  0  0
 13 12  1  0  0  0  0
 14 27  1  0  0  0  0
 14 22  1  0  0  0  0
 15  9  2  0  0  0  0
 15 18  1  0  0  0  0
 16  1  1  0  0  0  0
 17  8  1  6  0  0  0
 17 10  1  0  0  0  0
 18  6  2  0  0  0  0
 19 16  1  0  0  0  0
 20 29  1  1  0  0  0
 21 22  2  0  0  0  0
 21  4  1  0  0  0  0
 22 13  1  0  0  0  0
 23 14  2  0  0  0  0
 26  9  1  0  0  0  0
 27  5  1  6  0  0  0
 27  2  1  0  0  0  0
 28  9  1  6  0  0  0
 28  6  1  0  0  0  0
 28 23  1  0  0  0  0
 29 30  1  0  0  0  0
 30 31  2  0  0  0  0
 30 32  1  0  0  0  0
M  END
>  <MODEL>
4

>  <REMARK>
 VINA RESULT:      -8.7      3.523      7.168
  Name = 
  2 active torsions:
  status: ('A' for Active; 'I' for Inactive)
    1  A    between atoms: C_20  and  O_29
    2  A    between atoms: O_29  and  C_30
                            x       y       z     vdW  Elec       q    Type
                         _______ _______ _______ _____ _____    ______ ____

>  <TORSDO>
F 2

$$$$
=
 OpenBabel11122410383D

 32 37  0  0  1  0  0  0  0  0999 V2000
  190.5120  178.4510  144.5800 O   0  0  0  0  0  0  0  0  0  0  0  0
  189.0990  176.9980  139.8960 N   0  0  1  0  0  0  0  0  0  0  0  0
  193.2240  176.1620  137.2920 C   0  0  0  0  0  3  0  0  0  0  0  0
  192.4510  176.0030  136.1410 C   0  0  0  0  0  3  0  0  0  0  0  0
  187.0570  177.8840  138.6740 C   0  0  0  0  0  0  0  0  0  0  0  0
  186.2590  177.2540  137.6310 C   0  0  0  0  0  0  0  0  0  0  0  0
  189.0960  176.9560  142.3370 C   0  0  1  0  0  3  0  0  0  0  0  0
  191.1870  176.3990  141.0790 C   0  0  0  0  0  2  0  0  0  0  0  0
  185.9540  176.1230  135.6990 C   0  0  0  0  0  0  0  0  0  0  0  0
  191.2430  176.3680  143.6070 C   0  0  0  0  0  2  0  0  0  0  0  0
  192.6180  176.5210  138.4990 C   0  0  0  0  0  3  0  0  0  0  0  0
  190.5800  177.1450  139.8820 C   0  0  1  0  0  3  0  0  0  0  0  0
  191.2280  176.7120  138.5710 C   0  0  0  0  0  0  0  0  0  0  0  0
  189.0190  176.8170  137.4780 C   0  0  0  0  0  0  0  0  0  0  0  0
  185.0960  177.1280  135.7850 C   0  0  0  0  0  3  0  0  0  0  0  0
  189.1170  178.6080  144.3700 C   0  0  0  0  0  2  0  0  0  0  0  0
  190.6290  177.0030  142.3590 C   0  0  2  0  0  3  0  0  0  0  0  0
  185.3200  177.8630  136.9830 N   0  0  0  0  0  0  0  0  0  0  0  0
  188.4030  177.4640  143.6100 C   0  0  0  0  0  2  0  0  0  0  0  0
  190.7990  177.1040  144.8770 C   0  0  1  0  0  3  0  0  0  0  0  0
  191.0720  176.2160  136.1890 C   0  0  0  0  0  3  0  0  0  0  0  0
  190.4620  176.5930  137.3930 C   0  0  0  0  0  0  0  0  0  0  0  0
  188.2030  176.1670  136.6890 N   0  0  0  0  0  0  0  0  0  0  0  0
  188.6010  177.6850  141.0950 C   0  0  0  0  0  2  0  0  0  0  0  0
  186.5430  178.7430  139.4380 O   0  0  0  0  0  0  0  0  0  0  0  0
  185.9740  175.1280  134.5940 C   0  0  0  0  0  1  0  0  0  0  0  0
  188.5520  177.6230  138.6790 C   0  0  2  0  0  3  0  0  0  0  0  0
  186.7670  176.0480  136.9410 C   0  0  1  0  0  3  0  0  0  0  0  0
  191.8280  177.0280  145.8540 O   0  0  0  0  0  0  0  0  0  0  0  0
  191.5770  176.6350  147.1710 C   0  0  0  0  0  0  0  0  0  0  0  0
  190.6020  177.1080  147.8130 O   0  0  0  0  0  0  0  0  0  0  0  0
  192.4720  175.6430  147.8200 C   0  0  0  0  0  1  0  0  0  0  0  0
  1 20  1  0  0  0  0
  2 24  1  1  0  0  0
  3 11  1  0  0  0  0
  4 21  1  0  0  0  0
  4  3  2  0  0  0  0
  5 27  1  0  0  0  0
  5 25  2  0  0  0  0
  6  5  1  0  0  0  0
  7 24  1  6  0  0  0
  7 17  1  0  0  0  0
  7 19  1  0  0  0  0
  9 15  2  0  0  0  0
 10 20  1  0  0  0  0
 11 13  2  0  0  0  0
 12  2  1  0  0  0  0
 12  8  1  1  0  0  0
 13 12  1  0  0  0  0
 15 18  1  0  0  0  0
 16  1  1  0  0  0  0
 17  8  1  6  0  0  0
 17 10  1  0  0  0  0
 18  6  2  0  0  0  0
 19 16  1  0  0  0  0
 20 29  1  1  0  0  0
 21 22  2  0  0  0  0
 22 14  1  0  0  0  0
 22 13  1  0  0  0  0
 23 28  1  0  0  0  0
 23 14  2  0  0  0  0
 26  9  1  0  0  0  0
 27 14  1  6  0  0  0
 27  2  1  0  0  0  0
 28  9  1  6  0  0  0
 28  6  1  0  0  0  0
 29 30  1  0  0  0  0
 30 31  2  0  0  0  0
 30 32  1  0  0  0  0
M  END
>  <MODEL>
5

>  <REMARK>
 VINA RESULT:      -8.5      4.163      9.168
  Name = 
  2 active torsions:
  status: ('A' for Active; 'I' for Inactive)
    1  A    between atoms: C_20  and  O_29
    2  A    between atoms: O_29  and  C_30
                            x       y       z     vdW  Elec       q    Type
                         _______ _______ _______ _____ _____    ______ ____

>  <TORSDO>
F 2

$$$$
=
 OpenBabel11122410383D

 32 37  0  0  1  0  0  0  0  0999 V2000
  190.2870  177.9880  144.9220 O   0  0  0  0  0  0  0  0  0  0  0  0
  187.2710  177.7580  140.8110 N   0  0  1  0  0  0  0  0  0  0  0  0
  190.2010  177.3810  136.8390 C   0  0  0  0  0  3  0  0  0  0  0  0
  189.0840  177.5360  136.0160 C   0  0  0  0  0  3  0  0  0  0  0  0
  185.0700  179.0020  140.5750 C   0  0  0  0  0  0  0  0  0  0  0  0
  183.9070  178.6750  139.7610 C   0  0  0  0  0  0  0  0  0  0  0  0
  188.0500  177.1360  143.0400 C   0  0  1  0  0  3  0  0  0  0  0  0
  189.5390  176.8010  141.0550 C   0  0  0  0  0  2  0  0  0  0  0  0
  182.8590  178.0520  137.8590 C   0  0  0  0  0  0  0  0  0  0  0  0
  190.4030  176.1660  143.3450 C   0  0  0  0  0  2  0  0  0  0  0  0
  190.0650  177.4690  138.2270 C   0  0  0  0  0  3  0  0  0  0  0  0
  188.6750  177.8370  140.3220 C   0  0  1  0  0  3  0  0  0  0  0  0
  188.8070  177.7000  138.8080 C   0  0  0  0  0  0  0  0  0  0  0  0
  186.3950  178.1620  138.5860 C   0  0  0  0  0  0  0  0  0  0  0  0
  182.2050  179.0450  138.4410 C   0  0  0  0  0  3  0  0  0  0  0  0
  188.9290  178.2540  145.2400 C   0  0  0  0  0  2  0  0  0  0  0  0
  189.5030  177.1070  142.5450 C   0  0  2  0  0  3  0  0  0  0  0  0
  182.8920  179.4630  139.6160 N   0  0  0  0  0  0  0  0  0  0  0  0
  187.8730  177.3570  144.5490 C   0  0  0  0  0  2  0  0  0  0  0  0
  190.4860  176.5970  144.8150 C   0  0  1  0  0  3  0  0  0  0  0  0
  187.8320  177.7940  136.5770 C   0  0  0  0  0  3  0  0  0  0  0  0
  187.6940  177.9000  137.9670 C   0  0  0  0  0  0  0  0  0  0  0  0
  185.2940  177.7570  138.0060 N   0  0  0  0  0  0  0  0  0  0  0  0
  187.2750  178.1620  142.2230 C   0  0  0  0  0  2  0  0  0  0  0  0
  184.9400  179.6760  141.6300 O   0  0  0  0  0  0  0  0  0  0  0  0
  182.3990  177.3500  136.6320 C   0  0  0  0  0  1  0  0  0  0  0  0
  186.4430  178.6800  140.0130 C   0  0  2  0  0  3  0  0  0  0  0  0
  184.0130  177.6460  138.7030 C   0  0  1  0  0  3  0  0  0  0  0  0
  191.7570  176.2440  145.3420 O   0  0  0  0  0  0  0  0  0  0  0  0
  191.9650  176.0320  146.7070 C   0  0  0  0  0  0  0  0  0  0  0  0
  192.8640  175.2460  147.1110 O   0  0  0  0  0  0  0  0  0  0  0  0
  191.1150  176.7450  147.6940 C   0  0  0  0  0  1  0  0  0  0  0  0
  1 16  1  0  0  0  0
  2 24  1  1  0  0  0
  3 11  1  0  0  0  0
  4 21  1  0  0  0  0
  4  3  2  0  0  0  0
  5 25  2  0  0  0  0
  6  5  1  0  0  0  0
  7 24  1  6  0  0  0
  7 19  1  0  0  0  0
  9 15  2  0  0  0  0
 10 20  1  0  0  0  0
 11 13  2  0  0  0  0
 12  2  1  0  0  0  0
 12  8  1  1  0  0  0
 13 12  1  0  0  0  0
 15 18  1  0  0  0  0
 17  8  1  6  0  0  0
 17  7  1  0  0  0  0
 17 10  1  0  0  0  0
 18  6  2  0  0  0  0
 19 16  1  0  0  0  0
 20  1  1  0  0  0  0
 20 29  1  6  0  0  0
 21 22  2  0  0  0  0
 22 14  1  0  0  0  0
 22 13  1  0  0  0  0
 23 14  2  0  0  0  0
 23 28  1  0  0  0  0
 26  9  1  0  0  0  0
 27 14  1  6  0  0  0
 27  5  1  0  0  0  0
 27  2  1  0  0  0  0
 28  9  1  6  0  0  0
 28  6  1  0  0  0  0
 29 30  1  0  0  0  0
 30 31  2  0  0  0  0
 30 32  1  0  0  0  0
M  END
>  <MODEL>
6

>  <REMARK>
 VINA RESULT:      -8.5      3.390      8.929
  Name = 
  2 active torsions:
  status: ('A' for Active; 'I' for Inactive)
    1  A    between atoms: C_20  and  O_29
    2  A    between atoms: O_29  and  C_30
                            x       y       z     vdW  Elec       q    Type
                         _______ _______ _______ _____ _____    ______ ____

>  <TORSDO>
F 2

$$$$
=
 OpenBabel11122410383D

 32 37  0  0  1  0  0  0  0  0999 V2000
  182.0020  179.6890  138.8590 O   0  0  0  0  0  0  0  0  0  0  0  0
  185.9180  178.0510  141.6940 N   0  0  1  0  0  0  0  0  0  0  0  0
  184.6570  178.6280  146.4450 C   0  0  0  0  0  3  0  0  0  0  0  0
  185.9560  178.2820  146.8190 C   0  0  0  0  0  3  0  0  0  0  0  0
  188.3610  178.3100  141.0510 C   0  0  0  0  0  0  0  0  0  0  0  0
  189.5100  177.5050  141.4440 C   0  0  0  0  0  0  0  0  0  0  0  0
  184.2350  177.9160  139.9300 C   0  0  1  0  0  3  0  0  0  0  0  0
  183.5260  178.0800  142.3250 C   0  0  0  0  0  2  0  0  0  0  0  0
  190.8240  176.4100  142.9190 C   0  0  0  0  0  0  0  0  0  0  0  0
  181.7440  177.9710  140.5340 C   0  0  0  0  0  2  0  0  0  0  0  0
  184.3230  178.7360  145.0920 C   0  0  0  0  0  3  0  0  0  0  0  0
  184.9210  178.6470  142.6240 C   0  0  1  0  0  3  0  0  0  0  0  0
  185.2830  178.4860  144.0970 C   0  0  0  0  0  0  0  0  0  0  0  0
  187.5980  177.9470  143.4400 C   0  0  0  0  0  0  0  0  0  0  0  0
  191.5650  177.0970  142.0630 C   0  0  0  0  0  3  0  0  0  0  0  0
  183.1530  179.4150  138.0740 C   0  0  0  0  0  2  0  0  0  0  0  0
  183.1570  178.4330  140.8920 C   0  0  2  0  0  3  0  0  0  0  0  0
  190.7320  177.8190  141.1630 N   0  0  0  0  0  0  0  0  0  0  0  0
  183.9460  178.1370  138.4370 C   0  0  0  0  0  2  0  0  0  0  0  0
  181.3290  178.4850  139.1500 C   0  0  1  0  0  3  0  0  0  0  0  0
  186.9290  178.0580  145.8430 C   0  0  0  0  0  3  0  0  0  0  0  0
  186.6040  178.1820  144.4860 C   0  0  0  0  0  0  0  0  0  0  0  0
  188.5810  177.1080  143.6410 N   0  0  0  0  0  0  0  0  0  0  0  0
  185.5790  178.5040  140.3390 C   0  0  0  0  0  2  0  0  0  0  0  0
  188.3660  178.9390  139.9600 O   0  0  0  0  0  0  0  0  0  0  0  0
  191.3720  175.5130  143.9710 C   0  0  0  0  0  1  0  0  0  0  0  0
  187.2600  178.5230  142.0750 C   0  0  2  0  0  3  0  0  0  0  0  0
  189.3880  176.5420  142.5600 C   0  0  1  0  0  3  0  0  0  0  0  0
  179.9240  178.6930  139.1230 O   0  0  0  0  0  0  0  0  0  0  0  0
  179.3160  179.5570  138.2100 C   0  0  0  0  0  0  0  0  0  0  0  0
  179.0870  179.1930  137.0260 O   0  0  0  0  0  0  0  0  0  0  0  0
  178.9310  180.9240  138.6450 C   0  0  0  0  0  1  0  0  0  0  0  0
  1 20  1  0  0  0  0
  2 24  1  6  0  0  0
  2 27  1  0  0  0  0
  2 12  1  0  0  0  0
  3  4  1  0  0  0  0
  5  6  1  0  0  0  0
  7 19  1  6  0  0  0
  7 24  1  0  0  0  0
  7 17  1  0  0  0  0
  9 26  1  0  0  0  0
 11  3  2  0  0  0  0
 12  8  1  1  0  0  0
 12 13  1  0  0  0  0
 13 22  2  0  0  0  0
 13 11  1  0  0  0  0
 14 23  2  0  0  0  0
 14 22  1  0  0  0  0
 15  9  2  0  0  0  0
 16 19  1  0  0  0  0
 16  1  1  0  0  0  0
 17 10  1  6  0  0  0
 17  8  1  0  0  0  0
 18  6  2  0  0  0  0
 18 15  1  0  0  0  0
 20 29  1  1  0  0  0
 20 10  1  0  0  0  0
 21  4  2  0  0  0  0
 22 21  1  0  0  0  0
 25  5  2  0  0  0  0
 27  5  1  6  0  0  0
 27 14  1  0  0  0  0
 28  6  1  6  0  0  0
 28  9  1  0  0  0  0
 28 23  1  0  0  0  0
 30 32  1  0  0  0  0
 30 29  1  0  0  0  0
 31 30  2  0  0  0  0
M  END
>  <MODEL>
7

>  <REMARK>
 VINA RESULT:      -8.5      0.996      1.230
  Name = 
  2 active torsions:
  status: ('A' for Active; 'I' for Inactive)
    1  A    between atoms: C_20  and  O_29
    2  A    between atoms: O_29  and  C_30
                            x       y       z     vdW  Elec       q    Type
                         _______ _______ _______ _____ _____    ______ ____

>  <TORSDO>
F 2

$$$$
=
 OpenBabel11122410383D

 32 37  0  0  1  0  0  0  0  0999 V2000
  187.4930  176.6780  144.2060 O   0  0  0  0  0  0  0  0  0  0  0  0
  183.6480  178.7130  141.5360 N   0  0  1  0  0  0  0  0  0  0  0  0
  179.7200  178.9560  144.5380 C   0  0  0  0  0  3  0  0  0  0  0  0
  178.9310  179.3420  143.4530 C   0  0  0  0  0  3  0  0  0  0  0  0
  183.2540  178.3160  139.0590 C   0  0  0  0  0  0  0  0  0  0  0  0
  182.5740  179.1590  138.0850 C   0  0  0  0  0  0  0  0  0  0  0  0
  185.9230  178.5740  142.4130 C   0  0  1  0  0  3  0  0  0  0  0  0
  183.9900  178.8230  143.9840 C   0  0  0  0  0  2  0  0  0  0  0  0
  180.8880  180.4670  137.3440 C   0  0  0  0  0  0  0  0  0  0  0  0
  186.3230  178.6550  144.9440 C   0  0  0  0  0  2  0  0  0  0  0  0
  181.0650  178.6280  144.3430 C   0  0  0  0  0  3  0  0  0  0  0  0
  183.0950  178.2950  142.8530 C   0  0  1  0  0  3  0  0  0  0  0  0
  181.6380  178.6950  143.0630 C   0  0  0  0  0  0  0  0  0  0  0  0
  181.4270  179.0850  140.6360 C   0  0  0  0  0  0  0  0  0  0  0  0
  181.2790  179.6370  136.3910 C   0  0  0  0  0  3  0  0  0  0  0  0
  187.8060  176.8000  142.8270 C   0  0  0  0  0  2  0  0  0  0  0  0
  185.3840  178.2400  143.8110 C   0  0  2  0  0  3  0  0  0  0  0  0
  182.3130  178.7860  136.8750 N   0  0  0  0  0  0  0  0  0  0  0  0
  187.3600  178.1110  142.1330 C   0  0  0  0  0  2  0  0  0  0  0  0
  187.6670  177.9230  144.8440 C   0  0  1  0  0  3  0  0  0  0  0  0
  179.4780  179.3860  142.1700 C   0  0  0  0  0  3  0  0  0  0  0  0
  180.8210  179.0420  141.9670 C   0  0  0  0  0  0  0  0  0  0  0  0
  180.9900  179.9320  139.7400 N   0  0  0  0  0  0  0  0  0  0  0  0
  184.9450  178.0440  141.3720 C   0  0  0  0  0  2  0  0  0  0  0  0
  184.1520  177.5140  138.6910 O   0  0  0  0  0  0  0  0  0  0  0  0
  179.8530  181.5200  137.1670 C   0  0  0  0  0  1  0  0  0  0  0  0
  182.7140  178.2930  140.4780 C   0  0  2  0  0  3  0  0  0  0  0  0
  181.7490  180.2980  138.5440 C   0  0  1  0  0  3  0  0  0  0  0  0
  188.2020  177.7330  146.1470 O   0  0  0  0  0  0  0  0  0  0  0  0
  189.5200  177.3250  146.3580 C   0  0  0  0  0  0  0  0  0  0  0  0
  189.8560  176.7500  147.4280 O   0  0  0  0  0  0  0  0  0  0  0  0
  190.5380  177.5690  145.3050 C   0  0  0  0  0  1  0  0  0  0  0  0
  1 20  1  0  0  0  0
  2 24  1  6  0  0  0
  2 12  1  0  0  0  0
  4  3  2  0  0  0  0
  6 28  1  0  0  0  0
  6  5  1  0  0  0  0
  7 24  1  6  0  0  0
  7 17  1  0  0  0  0
 11  3  1  0  0  0  0
 12 13  1  0  0  0  0
 12  8  1  1  0  0  0
 13 11  2  0  0  0  0
 14 22  1  0  0  0  0
 15 18  1  0  0  0  0
 15  9  2  0  0  0  0
 16  1  1  0  0  0  0
 17  8  1  1  0  0  0
 17 10  1  0  0  0  0
 18  6  2  0  0  0  0
 19  7  1  0  0  0  0
 19 16  1  0  0  0  0
 20 10  1  0  0  0  0
 20 29  1  1  0  0  0
 21  4  1  0  0  0  0
 22 21  2  0  0  0  0
 22 13  1  0  0  0  0
 23 14  2  0  0  0  0
 25  5  2  0  0  0  0
 26  9  1  0  0  0  0
 27  5  1  6  0  0  0
 27 14  1  0  0  0  0
 27  2  1  0  0  0  0
 28  9  1  6  0  0  0
 28 23  1  0  0  0  0
 29 30  1  0  0  0  0
 30 31  2  0  0  0  0
 32 30  1  0  0  0  0
M  END
>  <MODEL>
8

>  <REMARK>
 VINA RESULT:      -8.2      3.090      8.142
  Name = 
  2 active torsions:
  status: ('A' for Active; 'I' for Inactive)
    1  A    between atoms: C_20  and  O_29
    2  A    between atoms: O_29  and  C_30
                            x       y       z     vdW  Elec       q    Type
                         _______ _______ _______ _____ _____    ______ ____

>  <TORSDO>
F 2

$$$$
=
 OpenBabel11122410383D

 32 37  0  0  1  0  0  0  0  0999 V2000
  187.4660  178.8520  145.8310 O   0  0  0  0  0  0  0  0  0  0  0  0
  185.7780  178.0650  141.0790 N   0  0  1  0  0  0  0  0  0  0  0  0
  189.6910  178.2860  138.0570 C   0  0  0  0  0  3  0  0  0  0  0  0
  188.8310  178.2250  136.9590 C   0  0  0  0  0  3  0  0  0  0  0  0
  183.5300  178.8590  140.2060 C   0  0  0  0  0  0  0  0  0  0  0  0
  182.7140  178.3170  139.1270 C   0  0  0  0  0  0  0  0  0  0  0  0
  186.0260  177.5930  143.4630 C   0  0  1  0  0  3  0  0  0  0  0  0
  188.0330  177.5640  141.9660 C   0  0  0  0  0  2  0  0  0  0  0  0
  182.3580  177.5130  137.0460 C   0  0  0  0  0  0  0  0  0  0  0  0
  188.3470  177.0960  144.4310 C   0  0  0  0  0  2  0  0  0  0  0  0
  189.1700  178.3380  139.3530 C   0  0  0  0  0  3  0  0  0  0  0  0
  187.2210  178.4170  140.9810 C   0  0  1  0  0  3  0  0  0  0  0  0
  187.7820  178.3170  139.5650 C   0  0  0  0  0  0  0  0  0  0  0  0
  185.4780  178.3040  138.6850 C   0  0  0  0  0  0  0  0  0  0  0  0
  181.3960  178.3570  137.3850 C   0  0  0  0  0  3  0  0  0  0  0  0
  186.0480  178.8470  145.7620 C   0  0  0  0  0  2  0  0  0  0  0  0
  187.5370  177.8480  143.3750 C   0  0  2  0  0  3  0  0  0  0  0  0
  181.6470  178.8930  138.6790 N   0  0  0  0  0  0  0  0  0  0  0  0
  185.4080  177.7660  144.8580 C   0  0  0  0  0  2  0  0  0  0  0  0
  187.9460  177.5260  145.8470 C   0  0  1  0  0  3  0  0  0  0  0  0
  187.4490  178.2320  137.1520 C   0  0  0  0  0  3  0  0  0  0  0  0
  186.9210  178.3020  138.4490 C   0  0  0  0  0  0  0  0  0  0  0  0
  184.6730  177.6960  137.8520 N   0  0  0  0  0  0  0  0  0  0  0  0
  185.3230  178.4530  142.4210 C   0  0  0  0  0  2  0  0  0  0  0  0
  182.9940  179.4890  141.1550 O   0  0  0  0  0  0  0  0  0  0  0  0
  182.3890  176.7420  135.7760 C   0  0  0  0  0  1  0  0  0  0  0  0
  185.0390  178.8120  140.0470 C   0  0  2  0  0  3  0  0  0  0  0  0
  183.2950  177.3340  138.1860 C   0  0  1  0  0  3  0  0  0  0  0  0
  189.0690  177.4240  146.7110 O   0  0  0  0  0  0  0  0  0  0  0  0
  189.0100  177.7940  148.0560 C   0  0  0  0  0  0  0  0  0  0  0  0
  189.9970  178.3360  148.6220 O   0  0  0  0  0  0  0  0  0  0  0  0
  187.7650  177.5480  148.8280 C   0  0  0  0  0  1  0  0  0  0  0  0
  1 20  1  0  0  0  0
  2 24  1  1  0  0  0
  3 11  1  0  0  0  0
  4 21  1  0  0  0  0
  4  3  2  0  0  0  0
  5 25  2  0  0  0  0
  6  5  1  0  0  0  0
  7 24  1  6  0  0  0
  7 19  1  0  0  0  0
  9 15  2  0  0  0  0
 10 20  1  0  0  0  0
 11 13  2  0  0  0  0
 12  2  1  0  0  0  0
 12  8  1  1  0  0  0
 13 12  1  0  0  0  0
 15 18  1  0  0  0  0
 16  1  1  0  0  0  0
 17  8  1  6  0  0  0
 17  7  1  0  0  0  0
 17 10  1  0  0  0  0
 18  6  2  0  0  0  0
 19 16  1  0  0  0  0
 20 29  1  1  0  0  0
 21 22  2  0  0  0  0
 22 14  1  0  0  0  0
 22 13  1  0  0  0  0
 23 28  1  0  0  0  0
 23 14  2  0  0  0  0
 26  9  1  0  0  0  0
 27 14  1  6  0  0  0
 27  5  1  0  0  0  0
 27  2  1  0  0  0  0
 28  9  1  6  0  0  0
 28  6  1  0  0  0  0
 29 30  1  0  0  0  0
 30 31  2  0  0  0  0
 30 32  1  0  0  0  0
M  END
>  <MODEL>
9

>  <REMARK>
 VINA RESULT:      -7.5      3.214      8.221
  Name = 
  2 active torsions:
  status: ('A' for Active; 'I' for Inactive)
    1  A    between atoms: C_20  and  O_29
    2  A    between atoms: O_29  and  C_30
                            x       y       z     vdW  Elec       q    Type
                         _______ _______ _______ _____ _____    ______ ____

>  <TORSDO>
F 2

$$$$
