=
 OpenBabel11122411293D

 37 42  0  0  1  0  0  0  0  0999 V2000
  187.5030  176.9040  135.9130 C   0  0  1  0  0  0  0  0  0  0  0  0
  190.8570  174.7220  137.2740 C   0  0  1  0  0  3  0  0  0  0  0  0
  192.9870  176.7100  136.1150 C   0  0  0  0  0  1  0  0  0  0  0  0
  188.8340  174.7060  135.8330 C   0  0  2  0  0  3  0  0  0  0  0  0
  191.5910  175.8110  138.0530 C   0  0  1  0  0  3  0  0  0  0  0  0
  189.8890  175.5440  136.5220 C   0  0  1  0  0  3  0  0  0  0  0  0
  193.0010  176.1400  137.5320 C   0  0  1  0  0  3  0  0  0  0  0  0
  189.5080  173.8110  134.8760 N   0  0  0  0  0  2  0  0  0  0  0  0
  189.3720  176.5170  137.4480 N   0  0  2  0  0  0  0  0  0  0  0  0
  186.5520  176.5140  136.8590 O   0  0  0  0  0  1  0  0  0  0  0  0
  192.7940  173.1260  136.7690 C   0  0  0  0  0  2  0  0  0  0  0  0
  190.5810  173.0190  135.5150 C   0  0  0  0  0  2  0  0  0  0  0  0
  188.7150  177.5320  136.6280 C   0  0  0  0  0  2  0  0  0  0  0  0
  191.6090  173.9250  136.2170 C   0  0  1  0  0  3  0  0  0  0  0  0
  190.6160  177.0140  138.0480 C   0  0  1  0  0  3  0  0  0  0  0  0
  187.9240  175.6800  135.0700 C   0  0  0  0  0  2  0  0  0  0  0  0
  193.9480  174.9260  137.6930 C   0  0  1  0  0  3  0  0  0  0  0  0
  186.8860  177.9390  134.9970 C   0  0  0  0  0  1  0  0  0  0  0  0
  193.3450  173.6700  137.9510 O   0  0  0  0  0  0  0  0  0  0  0  0
  189.0710  177.1590  139.8880 O   0  0  0  0  0  0  0  0  0  0  0  0
  188.6120  178.2800  140.5030 N   0  0  0  0  0  0  0  0  0  0  0  0
  190.2120  178.1380  142.3660 C   0  0  2  0  0  3  0  0  0  0  0  0
  188.7430  178.0780  141.9420 C   0  0  0  0  0  2  0  0  0  0  0  0
  190.9930  176.8930  141.9250 C   0  0  1  0  0  3  0  0  0  0  0  0
  190.3020  175.7200  142.2420 O   0  0  0  0  0  1  0  0  0  0  0  0
  191.4030  176.8890  140.4470 C   0  0  0  0  0  2  0  0  0  0  0  0
  190.2830  178.2610  143.7540 O   0  0  0  0  0  1  0  0  0  0  0  0
  190.3710  177.4870  139.4820 C   0  0  1  0  0  3  0  0  0  0  0  0
  186.4390  178.7390  141.4870 C   0  0  0  0  0  1  0  0  0  0  0  0
  187.1890  178.3630  140.2240 C   0  0  0  0  0  2  0  0  0  0  0  0
  195.3330  175.3080  135.6100 C   0  0  0  0  0  3  0  0  0  0  0  0
  195.2520  174.8990  136.9480 C   0  0  0  0  0  0  0  0  0  0  0  0
  196.4050  174.4630  137.6090 C   0  0  0  0  0  3  0  0  0  0  0  0
  198.7450  174.0110  137.5820 F   0  0  0  0  0  0  0  0  0  0  0  0
  197.7080  174.8410  135.6040 C   0  0  0  0  0  3  0  0  0  0  0  0
  197.6310  174.4340  136.9380 C   0  0  0  0  0  0  0  0  0  0  0  0
  196.5590  175.2800  134.9390 C   0  0  0  0  0  3  0  0  0  0  0  0
  1 18  1  6  0  0  0
  1 13  1  0  0  0  0
  1 10  1  0  0  0  0
  2  5  1  0  0  0  0
  3  7  1  0  0  0  0
  4  6  1  0  0  0  0
  6  2  1  0  0  0  0
  6  9  1  0  0  0  0
  7 17  1  0  0  0  0
  7  5  1  0  0  0  0
  8 12  1  0  0  0  0
  8  4  1  0  0  0  0
  9 15  1  0  0  0  0
 11 19  1  0  0  0  0
 12 14  1  0  0  0  0
 13  9  1  0  0  0  0
 14 11  1  0  0  0  0
 14  2  1  0  0  0  0
 15  5  1  0  0  0  0
 15 28  1  0  0  0  0
 16  4  1  0  0  0  0
 16  1  1  0  0  0  0
 17 19  1  0  0  0  0
 20 21  1  0  0  0  0
 21 23  1  0  0  0  0
 22 27  1  0  0  0  0
 23 22  1  0  0  0  0
 24 25  1  0  0  0  0
 24 22  1  0  0  0  0
 26 24  1  0  0  0  0
 28 20  1  0  0  0  0
 28 26  1  0  0  0  0
 30 21  1  0  0  0  0
 30 29  1  0  0  0  0
 31 32  1  0  0  0  0
 32 33  2  0  0  0  0
 32 17  1  0  0  0  0
 35 36  2  0  0  0  0
 36 34  1  0  0  0  0
 36 33  1  0  0  0  0
 37 35  1  0  0  0  0
 37 31  2  0  0  0  0
M  END
>  <MODEL>
1

>  <REMARK>
 VINA RESULT:      -7.0      0.000      0.000
  Name = 
  3 active torsions:
  status: ('A' for Active; 'I' for Inactive)
    1  A    between atoms: N_4  and  C_37
    2  A    between atoms: C_21  and  C_27
    3  A    between atoms: C_23  and  C_30
                            x       y       z     vdW  Elec       q    Type
                         _______ _______ _______ _____ _____    ______ ____

>  <TORSDO>
F 3

$$$$
=
 OpenBabel11122411293D

 37 42  0  0  1  0  0  0  0  0999 V2000
  184.7280  179.0620  143.8340 C   0  0  1  0  0  0  0  0  0  0  0  0
  182.5520  178.0840  140.3440 C   0  0  1  0  0  3  0  0  0  0  0  0
  182.7410  180.9440  139.0730 C   0  0  0  0  0  1  0  0  0  0  0  0
  182.5060  178.2550  142.8220 C   0  0  2  0  0  3  0  0  0  0  0  0
  183.5440  178.5300  139.2730 C   0  0  1  0  0  3  0  0  0  0  0  0
  183.1420  178.7290  141.5340 C   0  0  1  0  0  3  0  0  0  0  0  0
  183.0300  179.6380  138.3370 C   0  0  1  0  0  3  0  0  0  0  0  0
  181.0740  178.6010  142.7840 N   0  0  0  0  0  2  0  0  0  0  0  0
  184.5630  178.5140  141.4510 N   0  0  2  0  0  0  0  0  0  0  0  0
  185.2530  177.8090  144.1580 O   0  0  0  0  0  1  0  0  0  0  0  0
  180.3620  178.1790  139.0200 C   0  0  0  0  0  2  0  0  0  0  0  0
  180.4110  178.0910  141.5650 C   0  0  0  0  0  2  0  0  0  0  0  0
  185.1590  179.4470  142.4050 C   0  0  0  0  0  2  0  0  0  0  0  0
  181.1170  178.5890  140.2900 C   0  0  1  0  0  3  0  0  0  0  0  0
  184.8210  178.9080  140.0610 C   0  0  1  0  0  3  0  0  0  0  0  0
  183.1890  179.0250  143.9630 C   0  0  0  0  0  2  0  0  0  0  0  0
  181.8340  179.1370  137.4900 C   0  0  1  0  0  3  0  0  0  0  0  0
  185.2750  180.0880  144.8030 C   0  0  0  0  0  1  0  0  0  0  0  0
  181.2050  177.9390  137.9120 O   0  0  0  0  0  0  0  0  0  0  0  0
  186.1970  178.4430  138.1410 O   0  0  0  0  0  0  0  0  0  0  0  0
  186.4250  177.2400  137.5530 N   0  0  0  0  0  0  0  0  0  0  0  0
  188.5750  176.8800  138.6930 C   0  0  2  0  0  3  0  0  0  0  0  0
  187.8660  177.1110  137.3580 C   0  0  0  0  0  2  0  0  0  0  0  0
  188.6110  178.1490  139.5560 C   0  0  1  0  0  3  0  0  0  0  0  0
  189.0270  179.2580  138.8140 O   0  0  0  0  0  1  0  0  0  0  0  0
  187.2980  178.4580  140.2880 C   0  0  0  0  0  2  0  0  0  0  0  0
  189.8800  176.4500  138.4490 O   0  0  0  0  0  1  0  0  0  0  0  0
  186.0210  178.1440  139.4990 C   0  0  1  0  0  3  0  0  0  0  0  0
  184.4360  176.7030  136.2670 C   0  0  0  0  0  1  0  0  0  0  0  0
  185.8300  177.2960  136.2290 C   0  0  0  0  0  2  0  0  0  0  0  0
  180.7590  180.0500  135.3890 C   0  0  0  0  0  3  0  0  0  0  0  0
  180.9650  180.1300  136.7740 C   0  0  0  0  0  0  0  0  0  0  0  0
  180.3470  181.1490  137.5080 C   0  0  0  0  0  3  0  0  0  0  0  0
  178.9330  183.0660  137.5780 F   0  0  0  0  0  0  0  0  0  0  0  0
  179.3270  182.0000  135.4830 C   0  0  0  0  0  3  0  0  0  0  0  0
  179.5300  182.0820  136.8630 C   0  0  0  0  0  0  0  0  0  0  0  0
  179.9410  180.9830  134.7450 C   0  0  0  0  0  3  0  0  0  0  0  0
  1 16  1  0  0  0  0
  1 10  1  0  0  0  0
  1 18  1  1  0  0  0
  2  6  1  0  0  0  0
  4 16  1  0  0  0  0
  5 15  1  0  0  0  0
  5  2  1  0  0  0  0
  6  4  1  0  0  0  0
  7  3  1  0  0  0  0
  7  5  1  0  0  0  0
  8  4  1  0  0  0  0
  9  6  1  0  0  0  0
  9 13  1  0  0  0  0
 11 14  1  0  0  0  0
 12  8  1  0  0  0  0
 13  1  1  0  0  0  0
 14  2  1  0  0  0  0
 14 12  1  0  0  0  0
 15  9  1  0  0  0  0
 17 19  1  0  0  0  0
 17  7  1  0  0  0  0
 19 11  1  0  0  0  0
 20 28  1  0  0  0  0
 21 20  1  0  0  0  0
 22 24  1  0  0  0  0
 23 21  1  0  0  0  0
 23 22  1  0  0  0  0
 24 26  1  0  0  0  0
 25 24  1  0  0  0  0
 27 22  1  0  0  0  0
 28 15  1  0  0  0  0
 28 26  1  0  0  0  0
 30 29  1  0  0  0  0
 30 21  1  0  0  0  0
 31 32  1  0  0  0  0
 32 17  1  0  0  0  0
 32 33  2  0  0  0  0
 35 36  2  0  0  0  0
 36 33  1  0  0  0  0
 36 34  1  0  0  0  0
 37 31  2  0  0  0  0
 37 35  1  0  0  0  0
M  END
>  <MODEL>
2

>  <REMARK>
 VINA RESULT:      -6.5      5.956     11.170
  Name = 
  3 active torsions:
  status: ('A' for Active; 'I' for Inactive)
    1  A    between atoms: N_4  and  C_37
    2  A    between atoms: C_21  and  C_27
    3  A    between atoms: C_23  and  C_30
                            x       y       z     vdW  Elec       q    Type
                         _______ _______ _______ _____ _____    ______ ____

>  <TORSDO>
F 3

$$$$
=
 OpenBabel11122411293D

 37 42  0  0  1  0  0  0  0  0999 V2000
  183.1970  172.3850  135.8650 C   0  0  1  0  0  0  0  0  0  0  0  0
  182.3600  176.4460  136.6910 C   0  0  1  0  0  3  0  0  0  0  0  0
  182.5400  176.1520  139.8080 C   0  0  0  0  0  1  0  0  0  0  0  0
  181.5280  174.3330  135.6830 C   0  0  2  0  0  3  0  0  0  0  0  0
  183.5640  176.7980  137.5610 C   0  0  1  0  0  3  0  0  0  0  0  0
  182.4600  174.9720  136.6880 C   0  0  1  0  0  3  0  0  0  0  0  0
  183.2170  177.2490  138.9910 C   0  0  1  0  0  3  0  0  0  0  0  0
  180.1450  174.6910  136.0420 N   0  0  0  0  0  2  0  0  0  0  0  0
  183.8520  174.6580  136.5020 N   0  0  2  0  0  0  0  0  0  0  0  0
  183.7610  172.5020  134.5940 O   0  0  0  0  0  1  0  0  0  0  0  0
  180.6960  178.2370  137.4500 C   0  0  0  0  0  2  0  0  0  0  0  0
  179.9670  176.1530  136.1800 C   0  0  0  0  0  2  0  0  0  0  0  0
  183.9900  173.2500  136.8640 C   0  0  0  0  0  2  0  0  0  0  0  0
  180.9570  176.7480  137.1990 C   0  0  1  0  0  3  0  0  0  0  0  0
  184.4710  175.5450  137.4940 C   0  0  1  0  0  3  0  0  0  0  0  0
  181.7130  172.8130  135.8120 C   0  0  0  0  0  2  0  0  0  0  0  0
  182.4230  178.5780  138.9750 C   0  0  1  0  0  3  0  0  0  0  0  0
  183.2720  170.9380  136.3040 C   0  0  0  0  0  1  0  0  0  0  0  0
  181.8640  178.9780  137.7350 O   0  0  0  0  0  0  0  0  0  0  0  0
  186.1610  175.4230  135.7840 O   0  0  0  0  0  0  0  0  0  0  0  0
  187.4210  174.9270  135.8940 N   0  0  0  0  0  0  0  0  0  0  0  0
  188.4620  177.1320  136.2170 C   0  0  2  0  0  3  0  0  0  0  0  0
  188.3330  175.9060  135.3120 C   0  0  0  0  0  2  0  0  0  0  0  0
  187.2000  178.0050  136.1930 C   0  0  1  0  0  3  0  0  0  0  0  0
  186.7700  178.2410  134.8840 O   0  0  0  0  0  1  0  0  0  0  0  0
  186.0420  177.4740  137.0490 C   0  0  0  0  0  2  0  0  0  0  0  0
  189.5570  177.8910  135.8060 O   0  0  0  0  0  1  0  0  0  0  0  0
  185.8780  175.9500  137.0520 C   0  0  1  0  0  3  0  0  0  0  0  0
  187.4690  172.4990  135.9100 C   0  0  0  0  0  1  0  0  0  0  0  0
  187.4870  173.7460  135.0500 C   0  0  0  0  0  2  0  0  0  0  0  0
  180.5000  179.7560  140.1240 C   0  0  0  0  0  3  0  0  0  0  0  0
  181.6890  179.0180  140.2100 C   0  0  0  0  0  0  0  0  0  0  0  0
  182.2040  178.6780  141.4650 C   0  0  0  0  0  3  0  0  0  0  0  0
  182.0380  178.7400  143.8420 F   0  0  0  0  0  0  0  0  0  0  0  0
  180.3520  179.8080  142.5400 C   0  0  0  0  0  3  0  0  0  0  0  0
  181.5370  179.0720  142.6290 C   0  0  0  0  0  0  0  0  0  0  0  0
  179.8320  180.1500  141.2880 C   0  0  0  0  0  3  0  0  0  0  0  0
  1 18  1  1  0  0  0
  1 13  1  0  0  0  0
  2 14  1  0  0  0  0
  2  5  1  0  0  0  0
  4 16  1  0  0  0  0
  4  8  1  0  0  0  0
  4  6  1  0  0  0  0
  5  7  1  0  0  0  0
  6  2  1  0  0  0  0
  7  3  1  0  0  0  0
  8 12  1  0  0  0  0
  9  6  1  0  0  0  0
  9 13  1  0  0  0  0
  9 15  1  0  0  0  0
 10  1  1  0  0  0  0
 11 19  1  0  0  0  0
 12 14  1  0  0  0  0
 14 11  1  0  0  0  0
 15  5  1  0  0  0  0
 16  1  1  0  0  0  0
 17  7  1  0  0  0  0
 17 32  1  0  0  0  0
 19 17  1  0  0  0  0
 20 21  1  0  0  0  0
 20 28  1  0  0  0  0
 23 21  1  0  0  0  0
 23 22  1  0  0  0  0
 24 22  1  0  0  0  0
 24 26  1  0  0  0  0
 25 24  1  0  0  0  0
 26 28  1  0  0  0  0
 27 22  1  0  0  0  0
 28 15  1  0  0  0  0
 30 21  1  0  0  0  0
 30 29  1  0  0  0  0
 31 32  2  0  0  0  0
 31 37  1  0  0  0  0
 32 33  1  0  0  0  0
 33 36  2  0  0  0  0
 35 36  1  0  0  0  0
 36 34  1  0  0  0  0
 37 35  2  0  0  0  0
M  END
>  <MODEL>
3

>  <REMARK>
 VINA RESULT:      -5.9      6.024     10.638
  Name = 
  3 active torsions:
  status: ('A' for Active; 'I' for Inactive)
    1  A    between atoms: N_4  and  C_37
    2  A    between atoms: C_21  and  C_27
    3  A    between atoms: C_23  and  C_30
                            x       y       z     vdW  Elec       q    Type
                         _______ _______ _______ _____ _____    ______ ____

>  <TORSDO>
F 3

$$$$
=
 OpenBabel11122411293D

 37 42  0  0  1  0  0  0  0  0999 V2000
  185.7450  177.2520  137.5000 C   0  0  1  0  0  0  0  0  0  0  0  0
  189.2810  174.9690  137.8830 C   0  0  1  0  0  3  0  0  0  0  0  0
  191.1110  177.0100  136.3600 C   0  0  0  0  0  1  0  0  0  0  0  0
  186.9710  175.0540  136.9750 C   0  0  2  0  0  3  0  0  0  0  0  0
  190.2030  176.0040  138.5230 C   0  0  1  0  0  3  0  0  0  0  0  0
  188.1780  175.8410  137.4350 C   0  0  1  0  0  3  0  0  0  0  0  0
  191.4540  176.3550  137.6960 C   0  0  1  0  0  3  0  0  0  0  0  0
  187.3760  174.2150  135.8330 N   0  0  0  0  0  2  0  0  0  0  0  0
  187.9200  176.7590  138.5130 N   0  0  2  0  0  0  0  0  0  0  0  0
  185.0420  176.8110  138.6230 O   0  0  0  0  0  1  0  0  0  0  0  0
  191.0060  173.3940  136.8340 C   0  0  0  0  0  2  0  0  0  0  0  0
  188.5530  173.3780  136.1480 C   0  0  0  0  0  2  0  0  0  0  0  0
  187.1070  177.8270  137.9360 C   0  0  0  0  0  2  0  0  0  0  0  0
  189.7390  174.2330  136.6310 C   0  0  1  0  0  3  0  0  0  0  0  0
  189.2820  177.2110  138.8220 C   0  0  1  0  0  3  0  0  0  0  0  0
  185.9240  176.0790  136.5110 C   0  0  0  0  0  2  0  0  0  0  0  0
  192.3850  175.1270  137.5540 C   0  0  1  0  0  3  0  0  0  0  0  0
  184.9470  178.3450  136.8210 C   0  0  0  0  0  1  0  0  0  0  0  0
  191.8360  173.8610  137.8770 O   0  0  0  0  0  0  0  0  0  0  0  0
  188.1990  177.3290  140.9690 O   0  0  0  0  0  0  0  0  0  0  0  0
  187.9800  178.4320  141.7310 N   0  0  0  0  0  0  0  0  0  0  0  0
  189.9350  178.0540  143.1740 C   0  0  2  0  0  3  0  0  0  0  0  0
  188.4090  178.1220  143.0900 C   0  0  0  0  0  2  0  0  0  0  0  0
  190.4960  176.7930  142.5020 C   0  0  1  0  0  3  0  0  0  0  0  0
  189.7990  175.6500  142.9030 O   0  0  0  0  0  1  0  0  0  0  0  0
  190.5670  176.8660  140.9710 C   0  0  0  0  0  2  0  0  0  0  0  0
  190.3210  178.0740  144.5140 O   0  0  0  0  0  1  0  0  0  0  0  0
  189.4000  177.5980  140.2980 C   0  0  1  0  0  3  0  0  0  0  0  0
  185.9780  177.9660  143.0250 C   0  0  0  0  0  1  0  0  0  0  0  0
  186.5420  178.6310  141.7850 C   0  0  0  0  0  2  0  0  0  0  0  0
  193.5650  174.1210  135.5530 C   0  0  0  0  0  3  0  0  0  0  0  0
  193.4710  175.1370  136.5160 C   0  0  0  0  0  0  0  0  0  0  0  0
  194.3990  176.1830  136.5110 C   0  0  0  0  0  3  0  0  0  0  0  0
  196.3120  177.2320  135.5500 F   0  0  0  0  0  0  0  0  0  0  0  0
  195.5070  175.2030  134.5940 C   0  0  0  0  0  3  0  0  0  0  0  0
  195.4160  176.2160  135.5510 C   0  0  0  0  0  0  0  0  0  0  0  0
  194.5810  174.1550  134.5940 C   0  0  0  0  0  3  0  0  0  0  0  0
  1 18  1  6  0  0  0
  1 13  1  0  0  0  0
  1 10  1  0  0  0  0
  2  5  1  0  0  0  0
  3  7  1  0  0  0  0
  4  6  1  0  0  0  0
  5 15  1  0  0  0  0
  6  2  1  0  0  0  0
  6  9  1  0  0  0  0
  7  5  1  0  0  0  0
  8 12  1  0  0  0  0
  8  4  1  0  0  0  0
  9 15  1  0  0  0  0
 11 19  1  0  0  0  0
 12 14  1  0  0  0  0
 13  9  1  0  0  0  0
 14 11  1  0  0  0  0
 14  2  1  0  0  0  0
 15 28  1  0  0  0  0
 16  4  1  0  0  0  0
 16  1  1  0  0  0  0
 17  7  1  0  0  0  0
 17 19  1  0  0  0  0
 20 21  1  0  0  0  0
 21 30  1  0  0  0  0
 21 23  1  0  0  0  0
 22 27  1  0  0  0  0
 23 22  1  0  0  0  0
 24 25  1  0  0  0  0
 24 22  1  0  0  0  0
 26 24  1  0  0  0  0
 28 20  1  0  0  0  0
 28 26  1  0  0  0  0
 30 29  1  0  0  0  0
 31 32  1  0  0  0  0
 32 17  1  0  0  0  0
 33 32  2  0  0  0  0
 34 36  1  0  0  0  0
 35 36  2  0  0  0  0
 36 33  1  0  0  0  0
 37 35  1  0  0  0  0
 37 31  2  0  0  0  0
M  END
>  <MODEL>
4

>  <REMARK>
 VINA RESULT:      -5.6      1.780      2.023
  Name = 
  3 active torsions:
  status: ('A' for Active; 'I' for Inactive)
    1  A    between atoms: N_4  and  C_37
    2  A    between atoms: C_21  and  C_27
    3  A    between atoms: C_23  and  C_30
                            x       y       z     vdW  Elec       q    Type
                         _______ _______ _______ _____ _____    ______ ____

>  <TORSDO>
F 3

$$$$
=
 OpenBabel11122411293D

 37 42  0  0  1  0  0  0  0  0999 V2000
  188.1550  178.1640  138.0020 C   0  0  1  0  0  0  0  0  0  0  0  0
  184.4510  177.7860  140.0030 C   0  0  1  0  0  3  0  0  0  0  0  0
  183.0550  180.1460  138.4810 C   0  0  0  0  0  1  0  0  0  0  0  0
  186.8810  178.2400  140.2350 C   0  0  2  0  0  3  0  0  0  0  0  0
  183.5100  177.6560  138.8080 C   0  0  1  0  0  3  0  0  0  0  0  0
  185.6740  178.2590  139.3240 C   0  0  1  0  0  3  0  0  0  0  0  0
  182.4460  178.7630  138.6990 C   0  0  1  0  0  3  0  0  0  0  0  0
  186.6170  179.1420  141.3700 N   0  0  0  0  0  2  0  0  0  0  0  0
  185.8100  177.4680  138.1300 N   0  0  2  0  0  0  0  0  0  0  0  0
  188.6240  176.8530  138.0980 O   0  0  0  0  0  1  0  0  0  0  0  0
  182.8210  178.6260  141.7900 C   0  0  0  0  0  2  0  0  0  0  0  0
  185.3470  178.8170  142.0540 C   0  0  0  0  0  2  0  0  0  0  0  0
  186.7830  178.1720  137.2990 C   0  0  0  0  0  2  0  0  0  0  0  0
  184.1600  178.8290  141.0720 C   0  0  1  0  0  3  0  0  0  0  0  0
  184.4510  177.5590  137.5820 C   0  0  1  0  0  3  0  0  0  0  0  0
  188.0620  178.7830  139.4140 C   0  0  0  0  0  2  0  0  0  0  0  0
  181.4670  178.7090  139.8970 C   0  0  1  0  0  3  0  0  0  0  0  0
  189.1320  178.9750  137.1770 C   0  0  0  0  0  1  0  0  0  0  0  0
  181.8620  177.9350  141.0170 O   0  0  0  0  0  0  0  0  0  0  0  0
  184.5320  175.1560  137.4490 O   0  0  0  0  0  0  0  0  0  0  0  0
  185.1300  174.3950  136.4960 N   0  0  0  0  0  0  0  0  0  0  0  0
  183.0540  174.0050  135.2380 C   0  0  2  0  0  3  0  0  0  0  0  0
  184.1700  173.3800  136.0750 C   0  0  0  0  0  2  0  0  0  0  0  0
  182.0890  174.8410  136.0900 C   0  0  1  0  0  3  0  0  0  0  0  0
  181.6930  174.1470  137.2370 O   0  0  0  0  0  1  0  0  0  0  0  0
  182.6120  176.2340  136.4620 C   0  0  0  0  0  2  0  0  0  0  0  0
  182.3430  172.9920  134.5940 O   0  0  0  0  0  1  0  0  0  0  0  0
  184.1130  176.3080  136.7690 C   0  0  1  0  0  3  0  0  0  0  0  0
  187.4920  173.8540  136.3300 C   0  0  0  0  0  1  0  0  0  0  0  0
  186.2240  173.6890  137.1430 C   0  0  0  0  0  2  0  0  0  0  0  0
  179.9500  180.0390  141.4250 C   0  0  0  0  0  3  0  0  0  0  0  0
  180.5760  179.8850  140.1790 C   0  0  0  0  0  0  0  0  0  0  0  0
  180.3750  180.8430  139.1810 C   0  0  0  0  0  3  0  0  0  0  0  0
  179.3620  182.8740  138.4520 F   0  0  0  0  0  0  0  0  0  0  0  0
  178.9310  182.0990  140.6640 C   0  0  0  0  0  3  0  0  0  0  0  0
  179.5540  181.9480  139.4220 C   0  0  0  0  0  0  0  0  0  0  0  0
  179.1300  181.1450  141.6670 C   0  0  0  0  0  3  0  0  0  0  0  0
  1 18  1  6  0  0  0
  1 10  1  0  0  0  0
  1 16  1  0  0  0  0
  2 14  1  0  0  0  0
  3  7  1  0  0  0  0
  4  8  1  0  0  0  0
  5  2  1  0  0  0  0
  6  2  1  0  0  0  0
  6  4  1  0  0  0  0
  7  5  1  0  0  0  0
  7 17  1  0  0  0  0
  8 12  1  0  0  0  0
  9  6  1  0  0  0  0
 13  1  1  0  0  0  0
 13  9  1  0  0  0  0
 14 11  1  0  0  0  0
 14 12  1  0  0  0  0
 15  9  1  0  0  0  0
 15  5  1  0  0  0  0
 16  4  1  0  0  0  0
 17 32  1  0  0  0  0
 17 19  1  0  0  0  0
 19 11  1  0  0  0  0
 21 30  1  0  0  0  0
 21 20  1  0  0  0  0
 22 23  1  0  0  0  0
 22 24  1  0  0  0  0
 23 21  1  0  0  0  0
 24 26  1  0  0  0  0
 24 25  1  0  0  0  0
 26 28  1  0  0  0  0
 27 22  1  0  0  0  0
 28 20  1  0  0  0  0
 28 15  1  0  0  0  0
 29 30  1  0  0  0  0
 31 37  1  0  0  0  0
 32 31  2  0  0  0  0
 33 36  2  0  0  0  0
 33 32  1  0  0  0  0
 34 36  1  0  0  0  0
 35 37  2  0  0  0  0
 36 35  1  0  0  0  0
M  END
>  <MODEL>
5

>  <REMARK>
 VINA RESULT:      -5.4      5.944     11.280
  Name = 
  3 active torsions:
  status: ('A' for Active; 'I' for Inactive)
    1  A    between atoms: N_4  and  C_37
    2  A    between atoms: C_21  and  C_27
    3  A    between atoms: C_23  and  C_30
                            x       y       z     vdW  Elec       q    Type
                         _______ _______ _______ _____ _____    ______ ____

>  <TORSDO>
F 3

$$$$
=
 OpenBabel11122411293D

 37 42  0  0  1  0  0  0  0  0999 V2000
  186.5310  174.9170  135.8120 C   0  0  1  0  0  0  0  0  0  0  0  0
  183.5600  177.0820  137.8980 C   0  0  1  0  0  3  0  0  0  0  0  0
  182.4340  178.5460  135.3640 C   0  0  0  0  0  1  0  0  0  0  0  0
  185.9920  176.6580  137.6260 C   0  0  2  0  0  3  0  0  0  0  0  0
  182.3220  176.6790  137.1010 C   0  0  1  0  0  3  0  0  0  0  0  0
  184.6230  176.6200  136.9840 C   0  0  1  0  0  3  0  0  0  0  0  0
  181.5830  177.8460  136.4210 C   0  0  1  0  0  3  0  0  0  0  0  0
  186.2900  178.0520  137.9980 N   0  0  0  0  0  2  0  0  0  0  0  0
  184.2180  175.3230  136.5090 N   0  0  2  0  0  0  0  0  0  0  0  0
  186.6640  173.8080  136.6490 O   0  0  0  0  0  1  0  0  0  0  0  0
  182.7580  179.2870  138.9220 C   0  0  0  0  0  2  0  0  0  0  0  0
  185.2210  178.6470  138.8290 C   0  0  0  0  0  2  0  0  0  0  0  0
  185.0660  175.0440  135.3520 C   0  0  0  0  0  2  0  0  0  0  0  0
  183.8500  178.5580  138.1320 C   0  0  1  0  0  3  0  0  0  0  0  0
  182.8290  175.5930  136.1210 C   0  0  1  0  0  3  0  0  0  0  0  0
  186.9940  176.1870  136.5610 C   0  0  0  0  0  2  0  0  0  0  0  0
  180.9950  178.8170  137.4740 C   0  0  1  0  0  3  0  0  0  0  0  0
  187.4110  174.7210  134.5950 C   0  0  0  0  0  1  0  0  0  0  0  0
  181.4800  178.6980  138.8000 O   0  0  0  0  0  0  0  0  0  0  0  0
  182.5880  173.4230  137.1360 O   0  0  0  0  0  0  0  0  0  0  0  0
  182.4760  172.2210  136.5130 N   0  0  0  0  0  0  0  0  0  0  0  0
  180.0240  172.1450  136.6920 C   0  0  2  0  0  3  0  0  0  0  0  0
  181.3510  171.5150  137.1170 C   0  0  0  0  0  2  0  0  0  0  0  0
  179.7850  173.5020  137.3690 C   0  0  1  0  0  3  0  0  0  0  0  0
  180.0300  173.4360  138.7430 O   0  0  0  0  0  1  0  0  0  0  0  0
  180.5600  174.6700  136.7440 C   0  0  0  0  0  2  0  0  0  0  0  0
  178.9810  171.2780  137.0150 O   0  0  0  0  0  1  0  0  0  0  0  0
  181.9750  174.3310  136.2620 C   0  0  1  0  0  3  0  0  0  0  0  0
  184.5130  171.2620  135.6010 C   0  0  0  0  0  1  0  0  0  0  0  0
  183.6690  171.4610  136.8440 C   0  0  0  0  0  2  0  0  0  0  0  0
  179.4910  180.3520  136.1370 C   0  0  0  0  0  3  0  0  0  0  0  0
  180.5430  180.1850  137.0490 C   0  0  0  0  0  0  0  0  0  0  0  0
  181.1830  181.3090  137.5810 C   0  0  0  0  0  3  0  0  0  0  0  0
  181.3980  183.6790  137.7230 F   0  0  0  0  0  0  0  0  0  0  0  0
  179.7280  182.7560  136.2950 C   0  0  0  0  0  3  0  0  0  0  0  0
  180.7760  182.5930  137.2050 C   0  0  0  0  0  0  0  0  0  0  0  0
  179.0840  181.6350  135.7620 C   0  0  0  0  0  3  0  0  0  0  0  0
  1 18  1  6  0  0  0
  1 16  1  0  0  0  0
  1 10  1  0  0  0  0
  2 14  1  0  0  0  0
  3  7  1  0  0  0  0
  4  8  1  0  0  0  0
  5  2  1  0  0  0  0
  6  4  1  0  0  0  0
  6  2  1  0  0  0  0
  7  5  1  0  0  0  0
  7 17  1  0  0  0  0
  8 12  1  0  0  0  0
  9  6  1  0  0  0  0
 13  1  1  0  0  0  0
 13  9  1  0  0  0  0
 14 12  1  0  0  0  0
 14 11  1  0  0  0  0
 15 28  1  0  0  0  0
 15  9  1  0  0  0  0
 15  5  1  0  0  0  0
 16  4  1  0  0  0  0
 17 19  1  0  0  0  0
 19 11  1  0  0  0  0
 21 30  1  0  0  0  0
 21 23  1  0  0  0  0
 21 20  1  0  0  0  0
 22 27  1  0  0  0  0
 22 23  1  0  0  0  0
 22 24  1  0  0  0  0
 24 25  1  0  0  0  0
 26 24  1  0  0  0  0
 28 26  1  0  0  0  0
 28 20  1  0  0  0  0
 29 30  1  0  0  0  0
 31 32  1  0  0  0  0
 32 17  1  0  0  0  0
 32 33  2  0  0  0  0
 35 36  2  0  0  0  0
 36 33  1  0  0  0  0
 36 34  1  0  0  0  0
 37 31  2  0  0  0  0
 37 35  1  0  0  0  0
M  END
>  <MODEL>
6

>  <REMARK>
 VINA RESULT:      -5.2      6.740     11.498
  Name = 
  3 active torsions:
  status: ('A' for Active; 'I' for Inactive)
    1  A    between atoms: N_4  and  C_37
    2  A    between atoms: C_21  and  C_27
    3  A    between atoms: C_23  and  C_30
                            x       y       z     vdW  Elec       q    Type
                         _______ _______ _______ _____ _____    ______ ____

>  <TORSDO>
F 3

$$$$
=
 OpenBabel11122411293D

 37 42  0  0  1  0  0  0  0  0999 V2000
  186.0350  176.1840  136.0350 C   0  0  1  0  0  0  0  0  0  0  0  0
  189.7470  174.4840  137.1300 C   0  0  1  0  0  3  0  0  0  0  0  0
  191.4800  176.8940  136.1180 C   0  0  0  0  0  1  0  0  0  0  0  0
  187.7080  174.2550  135.7310 C   0  0  2  0  0  3  0  0  0  0  0  0
  190.3160  175.6100  137.9910 C   0  0  1  0  0  3  0  0  0  0  0  0
  188.6320  175.1950  136.4730 C   0  0  1  0  0  3  0  0  0  0  0  0
  191.6350  176.2140  137.4760 C   0  0  1  0  0  3  0  0  0  0  0  0
  188.4880  173.5720  134.6840 N   0  0  0  0  0  2  0  0  0  0  0  0
  187.9930  175.9840  137.4940 N   0  0  2  0  0  0  0  0  0  0  0  0
  185.1940  175.5600  136.9580 O   0  0  0  0  0  1  0  0  0  0  0  0
  191.9030  173.2850  136.4460 C   0  0  0  0  0  2  0  0  0  0  0  0
  189.6970  172.9180  135.2290 C   0  0  0  0  0  2  0  0  0  0  0  0
  187.1500  176.9410  136.7820 C   0  0  0  0  0  2  0  0  0  0  0  0
  190.5840  173.9190  135.9910 C   0  0  1  0  0  3  0  0  0  0  0  0
  189.1570  176.6280  138.1130 C   0  0  1  0  0  3  0  0  0  0  0  0
  186.6240  175.1260  135.0760 C   0  0  0  0  0  2  0  0  0  0  0  0
  192.7730  175.1660  137.5090 C   0  0  1  0  0  3  0  0  0  0  0  0
  185.2260  177.1770  135.2270 C   0  0  0  0  0  1  0  0  0  0  0  0
  192.3950  173.8090  137.6630 O   0  0  0  0  0  0  0  0  0  0  0  0
  189.9490  177.6510  140.1440 O   0  0  0  0  0  0  0  0  0  0  0  0
  190.1800  177.0530  141.3410 N   0  0  0  0  0  0  0  0  0  0  0  0
  188.0200  177.7240  142.3070 C   0  0  2  0  0  3  0  0  0  0  0  0
  189.5420  177.8650  142.3710 C   0  0  0  0  0  2  0  0  0  0  0  0
  187.4230  178.4470  141.0930 C   0  0  1  0  0  3  0  0  0  0  0  0
  187.9320  179.7430  140.9700 O   0  0  0  0  0  1  0  0  0  0  0  0
  187.5660  177.6890  139.7660 C   0  0  0  0  0  2  0  0  0  0  0  0
  187.4630  178.2430  143.4750 O   0  0  0  0  0  1  0  0  0  0  0  0
  188.8850  176.9270  139.5890 C   0  0  1  0  0  3  0  0  0  0  0  0
  191.8750  177.8360  142.8960 C   0  0  0  0  0  1  0  0  0  0  0  0
  191.6120  177.1280  141.5820 C   0  0  0  0  0  2  0  0  0  0  0  0
  194.0840  176.3740  135.7130 C   0  0  0  0  0  3  0  0  0  0  0  0
  194.0390  175.4230  136.7420 C   0  0  0  0  0  0  0  0  0  0  0  0
  195.1920  174.7010  137.0680 C   0  0  0  0  0  3  0  0  0  0  0  0
  197.4970  174.2240  136.6890 F   0  0  0  0  0  0  0  0  0  0  0  0
  196.4240  175.8740  135.3450 C   0  0  0  0  0  3  0  0  0  0  0  0
  196.3820  174.9260  136.3700 C   0  0  0  0  0  0  0  0  0  0  0  0
  195.2750  176.5990  135.0160 C   0  0  0  0  0  3  0  0  0  0  0  0
  1 18  1  6  0  0  0
  1 13  1  0  0  0  0
  1 10  1  0  0  0  0
  2  5  1  0  0  0  0
  3  7  1  0  0  0  0
  4  6  1  0  0  0  0
  5 15  1  0  0  0  0
  6  2  1  0  0  0  0
  6  9  1  0  0  0  0
  7 17  1  0  0  0  0
  7  5  1  0  0  0  0
  8 12  1  0  0  0  0
  8  4  1  0  0  0  0
  9 15  1  0  0  0  0
 11 19  1  0  0  0  0
 12 14  1  0  0  0  0
 13  9  1  0  0  0  0
 14 11  1  0  0  0  0
 14  2  1  0  0  0  0
 15 28  1  0  0  0  0
 16  4  1  0  0  0  0
 16  1  1  0  0  0  0
 17 19  1  0  0  0  0
 20 21  1  0  0  0  0
 21 30  1  0  0  0  0
 21 23  1  0  0  0  0
 22 23  1  0  0  0  0
 22 27  1  0  0  0  0
 24 22  1  0  0  0  0
 25 24  1  0  0  0  0
 26 24  1  0  0  0  0
 28 26  1  0  0  0  0
 28 20  1  0  0  0  0
 30 29  1  0  0  0  0
 31 32  1  0  0  0  0
 32 33  2  0  0  0  0
 32 17  1  0  0  0  0
 35 36  2  0  0  0  0
 36 34  1  0  0  0  0
 36 33  1  0  0  0  0
 37 35  1  0  0  0  0
 37 31  2  0  0  0  0
M  END
>  <MODEL>
7

>  <REMARK>
 VINA RESULT:      -5.1      1.380      2.233
  Name = 
  3 active torsions:
  status: ('A' for Active; 'I' for Inactive)
    1  A    between atoms: N_4  and  C_37
    2  A    between atoms: C_21  and  C_27
    3  A    between atoms: C_23  and  C_30
                            x       y       z     vdW  Elec       q    Type
                         _______ _______ _______ _____ _____    ______ ____

>  <TORSDO>
F 3

$$$$
=
 OpenBabel11122411293D

 37 42  0  0  1  0  0  0  0  0999 V2000
  186.2200  175.1360  136.5830 C   0  0  1  0  0  0  0  0  0  0  0  0
  183.1870  177.5740  138.2350 C   0  0  1  0  0  3  0  0  0  0  0  0
  182.1980  178.7110  135.4850 C   0  0  0  0  0  1  0  0  0  0  0  0
  185.6230  177.0990  138.1340 C   0  0  2  0  0  3  0  0  0  0  0  0
  181.9810  177.0830  137.4380 C   0  0  1  0  0  3  0  0  0  0  0  0
  184.2840  176.9910  137.4380 C   0  0  1  0  0  3  0  0  0  0  0  0
  181.2900  178.1590  136.5820 C   0  0  1  0  0  3  0  0  0  0  0  0
  185.9230  178.5280  138.3380 N   0  0  0  0  0  2  0  0  0  0  0  0
  183.8830  175.6470  137.1140 N   0  0  2  0  0  0  0  0  0  0  0  0
  186.2990  174.1420  137.5610 O   0  0  0  0  0  1  0  0  0  0  0  0
  182.3700  179.8990  138.9310 C   0  0  0  0  0  2  0  0  0  0  0  0
  184.8250  179.2320  139.0360 C   0  0  0  0  0  2  0  0  0  0  0  0
  184.7780  175.2160  136.0430 C   0  0  0  0  0  2  0  0  0  0  0  0
  183.4870  179.0660  138.2920 C   0  0  1  0  0  3  0  0  0  0  0  0
  182.5170  175.8760  136.6300 C   0  0  1  0  0  3  0  0  0  0  0  0
  186.6660  176.4880  137.1850 C   0  0  0  0  0  2  0  0  0  0  0  0
  180.6690  179.2610  137.4730 C   0  0  1  0  0  3  0  0  0  0  0  0
  187.1500  174.7790  135.4440 C   0  0  0  0  0  1  0  0  0  0  0  0
  181.0910  179.3090  138.8260 O   0  0  0  0  0  0  0  0  0  0  0  0
  180.4390  175.0300  137.5040 O   0  0  0  0  0  0  0  0  0  0  0  0
  180.2640  174.1240  138.5010 N   0  0  0  0  0  0  0  0  0  0  0  0
  179.9430  172.2240  136.9730 C   0  0  2  0  0  3  0  0  0  0  0  0
  179.3070  173.1290  138.0290 C   0  0  0  0  0  2  0  0  0  0  0  0
  180.1440  172.9490  135.6350 C   0  0  1  0  0  3  0  0  0  0  0  0
  178.9890  173.6360  135.2510 O   0  0  0  0  0  1  0  0  0  0  0  0
  181.3610  173.8820  135.5920 C   0  0  0  0  0  2  0  0  0  0  0  0
  179.1310  171.1080  136.7770 O   0  0  0  0  0  1  0  0  0  0  0  0
  181.6400  174.6500  136.8900 C   0  0  1  0  0  3  0  0  0  0  0  0
  179.6160  173.9430  140.8350 C   0  0  0  0  0  1  0  0  0  0  0  0
  179.6240  174.8240  139.6020 C   0  0  0  0  0  2  0  0  0  0  0  0
  179.3040  180.6160  135.8280 C   0  0  0  0  0  3  0  0  0  0  0  0
  180.2550  180.5670  136.8570 C   0  0  0  0  0  0  0  0  0  0  0  0
  180.8290  181.7540  137.3270 C   0  0  0  0  0  3  0  0  0  0  0  0
  181.0140  184.1280  137.2290 F   0  0  0  0  0  0  0  0  0  0  0  0
  179.5080  183.0270  135.7460 C   0  0  0  0  0  3  0  0  0  0  0  0
  180.4560  182.9820  136.7720 C   0  0  0  0  0  0  0  0  0  0  0  0
  178.9310  181.8440  135.2740 C   0  0  0  0  0  3  0  0  0  0  0  0
  1 18  1  6  0  0  0
  1 16  1  0  0  0  0
  1 10  1  0  0  0  0
  2 14  1  0  0  0  0
  3  7  1  0  0  0  0
  4  8  1  0  0  0  0
  5  2  1  0  0  0  0
  6  4  1  0  0  0  0
  6  2  1  0  0  0  0
  7  5  1  0  0  0  0
  7 17  1  0  0  0  0
  8 12  1  0  0  0  0
  9  6  1  0  0  0  0
 13  1  1  0  0  0  0
 13  9  1  0  0  0  0
 14 11  1  0  0  0  0
 14 12  1  0  0  0  0
 15 28  1  0  0  0  0
 15  9  1  0  0  0  0
 15  5  1  0  0  0  0
 16  4  1  0  0  0  0
 17 19  1  0  0  0  0
 19 11  1  0  0  0  0
 20 21  1  0  0  0  0
 21 30  1  0  0  0  0
 22 23  1  0  0  0  0
 23 21  1  0  0  0  0
 24 22  1  0  0  0  0
 25 24  1  0  0  0  0
 26 24  1  0  0  0  0
 26 28  1  0  0  0  0
 27 22  1  0  0  0  0
 28 20  1  0  0  0  0
 30 29  1  0  0  0  0
 31 32  1  0  0  0  0
 32 33  2  0  0  0  0
 32 17  1  0  0  0  0
 35 36  2  0  0  0  0
 36 34  1  0  0  0  0
 36 33  1  0  0  0  0
 37 35  1  0  0  0  0
 37 31  2  0  0  0  0
M  END
>  <MODEL>
8

>  <REMARK>
 VINA RESULT:      -5.1      7.208     11.841
  Name = 
  3 active torsions:
  status: ('A' for Active; 'I' for Inactive)
    1  A    between atoms: N_4  and  C_37
    2  A    between atoms: C_21  and  C_27
    3  A    between atoms: C_23  and  C_30
                            x       y       z     vdW  Elec       q    Type
                         _______ _______ _______ _____ _____    ______ ____

>  <TORSDO>
F 3

$$$$
=
 OpenBabel11122411293D

 37 42  0  0  1  0  0  0  0  0999 V2000
  185.1810  178.9920  142.4670 C   0  0  1  0  0  0  0  0  0  0  0  0
  185.1260  178.1880  138.3170 C   0  0  1  0  0  3  0  0  0  0  0  0
  183.8410  175.3410  138.5890 C   0  0  0  0  0  1  0  0  0  0  0  0
  186.5350  178.6800  140.3030 C   0  0  2  0  0  3  0  0  0  0  0  0
  183.6510  177.8440  138.1280 C   0  0  1  0  0  3  0  0  0  0  0  0
  185.2230  178.1290  139.7900 C   0  0  1  0  0  3  0  0  0  0  0  0
  183.3810  176.4190  137.6110 C   0  0  1  0  0  3  0  0  0  0  0  0
  187.6280  177.8640  139.7460 N   0  0  0  0  0  2  0  0  0  0  0  0
  184.0520  178.7910  140.3020 N   0  0  2  0  0  0  0  0  0  0  0  0
  185.1190  180.3860  142.4510 O   0  0  0  0  0  1  0  0  0  0  0  0
  186.1460  176.9940  136.2950 C   0  0  0  0  0  2  0  0  0  0  0  0
  187.5540  177.7680  138.2710 C   0  0  0  0  0  2  0  0  0  0  0  0
  183.9700  178.4120  141.7100 C   0  0  0  0  0  2  0  0  0  0  0  0
  186.1890  177.2240  137.8100 C   0  0  1  0  0  3  0  0  0  0  0  0
  183.0010  178.1550  139.4990 C   0  0  1  0  0  3  0  0  0  0  0  0
  186.5110  178.5270  141.8320 C   0  0  0  0  0  2  0  0  0  0  0  0
  183.9480  176.2320  136.1840 C   0  0  1  0  0  3  0  0  0  0  0  0
  185.1340  178.5160  143.9040 C   0  0  0  0  0  1  0  0  0  0  0  0
  184.8710  177.2050  135.7250 O   0  0  0  0  0  0  0  0  0  0  0  0
  181.6720  179.9340  140.4280 O   0  0  0  0  0  0  0  0  0  0  0  0
  180.3380  179.9300  140.6820 N   0  0  0  0  0  0  0  0  0  0  0  0
  179.7470  181.1020  138.6020 C   0  0  2  0  0  3  0  0  0  0  0  0
  179.7800  181.1600  140.1300 C   0  0  0  0  0  2  0  0  0  0  0  0
  181.1480  181.2320  137.9880 C   0  0  1  0  0  3  0  0  0  0  0  0
  181.8550  182.2970  138.5550 O   0  0  0  0  0  1  0  0  0  0  0  0
  181.9860  179.9480  138.0360 C   0  0  0  0  0  2  0  0  0  0  0  0
  178.9350  182.1280  138.1220 O   0  0  0  0  0  1  0  0  0  0  0  0
  181.8190  179.1060  139.3060 C   0  0  1  0  0  3  0  0  0  0  0  0
  180.3960  178.6490  142.7450 C   0  0  0  0  0  1  0  0  0  0  0  0
  180.1810  180.0150  142.1240 C   0  0  0  0  0  2  0  0  0  0  0  0
  185.3770  174.3100  135.3650 C   0  0  0  0  0  3  0  0  0  0  0  0
  184.1080  174.8460  135.6250 C   0  0  0  0  0  0  0  0  0  0  0  0
  182.9660  174.0800  135.3690 C   0  0  0  0  0  3  0  0  0  0  0  0
  181.9820  172.0470  134.6060 F   0  0  0  0  0  0  0  0  0  0  0  0
  184.3560  172.2540  134.5940 C   0  0  0  0  0  3  0  0  0  0  0  0
  183.0900  172.7860  134.8530 C   0  0  0  0  0  0  0  0  0  0  0  0
  185.5010  173.0160  134.8510 C   0  0  0  0  0  3  0  0  0  0  0  0
  1 18  1  1  0  0  0
  2  6  1  0  0  0  0
  4 16  1  0  0  0  0
  5  2  1  0  0  0  0
  5 15  1  0  0  0  0
  6  9  1  0  0  0  0
  6  4  1  0  0  0  0
  7  5  1  0  0  0  0
  7  3  1  0  0  0  0
  8  4  1  0  0  0  0
  9 13  1  0  0  0  0
 10  1  1  0  0  0  0
 11 14  1  0  0  0  0
 12  8  1  0  0  0  0
 13  1  1  0  0  0  0
 14 12  1  0  0  0  0
 14  2  1  0  0  0  0
 15  9  1  0  0  0  0
 16  1  1  0  0  0  0
 17  7  1  0  0  0  0
 19 17  1  0  0  0  0
 19 11  1  0  0  0  0
 20 21  1  0  0  0  0
 21 30  1  0  0  0  0
 22 23  1  0  0  0  0
 23 21  1  0  0  0  0
 24 26  1  0  0  0  0
 24 25  1  0  0  0  0
 24 22  1  0  0  0  0
 26 28  1  0  0  0  0
 27 22  1  0  0  0  0
 28 15  1  0  0  0  0
 28 20  1  0  0  0  0
 30 29  1  0  0  0  0
 31 32  1  0  0  0  0
 32 17  1  0  0  0  0
 33 32  2  0  0  0  0
 34 36  1  0  0  0  0
 35 37  1  0  0  0  0
 35 36  2  0  0  0  0
 36 33  1  0  0  0  0
 37 31  2  0  0  0  0
M  END
>  <MODEL>
9

>  <REMARK>
 VINA RESULT:      -4.9      6.404      9.660
  Name = 
  3 active torsions:
  status: ('A' for Active; 'I' for Inactive)
    1  A    between atoms: N_4  and  C_37
    2  A    between atoms: C_21  and  C_27
    3  A    between atoms: C_23  and  C_30
                            x       y       z     vdW  Elec       q    Type
                         _______ _______ _______ _____ _____    ______ ____

>  <TORSDO>
F 3

$$$$
