=
 OpenBabel11122410483D

 32 37  0  0  1  0  0  0  0  0999 V2000
  185.7390  178.3190  141.2330 C   0  0  0  0  0  0  0  0  0  0  0  0
  183.8960  178.5600  145.8240 C   0  0  0  0  0  3  0  0  0  0  0  0
  185.1710  178.3600  146.3550 C   0  0  0  0  0  3  0  0  0  0  0  0
  188.1830  177.8570  140.8170 C   0  0  0  0  0  0  0  0  0  0  0  0
  189.3850  177.7530  141.3830 C   0  0  0  0  0  0  0  0  0  0  0  0
  184.2150  178.9030  139.2920 C   0  0  2  0  0  3  0  0  0  0  0  0
  183.4020  179.2060  141.6440 C   0  0  0  0  0  2  0  0  0  0  0  0
  190.9040  177.6100  143.1190 N   0  0  0  0  0  0  0  0  0  0  0  0
  183.7200  178.6340  144.4410 C   0  0  0  0  0  3  0  0  0  0  0  0
  184.6400  178.5940  142.1430 N   0  0  0  0  0  0  0  0  0  0  0  0
  184.8190  178.5060  143.5720 C   0  0  0  0  0  0  0  0  0  0  0  0
  187.2390  178.1610  143.1860 C   0  0  0  0  0  0  0  0  0  0  0  0
  191.6090  177.3670  141.9040 N   0  0  0  0  0  0  0  0  0  0  0  0
  183.0310  178.7290  140.2430 C   0  0  2  0  0  3  0  0  0  0  0  0
  190.6670  177.4310  140.7690 C   0  0  0  0  0  3  0  0  0  0  0  0
  186.2680  178.2300  145.5020 C   0  0  0  0  0  3  0  0  0  0  0  0
  186.0980  178.3010  144.1080 C   0  0  0  0  0  0  0  0  0  0  0  0
  188.4870  178.0280  143.6640 C   0  0  0  0  0  3  0  0  0  0  0  0
  185.4300  178.1170  139.7710 C   0  0  0  0  0  2  0  0  0  0  0  0
  188.0700  177.7090  139.4380 O   0  0  0  0  0  1  0  0  0  0  0  0
  191.4590  178.8290  143.6880 C   0  0  0  0  0  1  0  0  0  0  0  0
  186.9990  178.1240  141.7050 C   0  0  0  0  0  0  0  0  0  0  0  0
  189.5790  177.8780  142.7550 N   0  0  0  0  0  0  0  0  0  0  0  0
  181.0520  177.2560  140.5640 C   0  0  0  0  0  2  0  0  0  0  0  0
  182.5380  177.2880  140.2700 C   0  0  1  0  0  3  0  0  0  0  0  0
  181.5460  177.0770  139.1440 C   0  0  1  0  0  3  0  0  0  0  0  0
  181.5150  175.6690  138.7920 N   0  0  0  0  0  2  0  0  0  0  0  0
  180.3770  175.0810  138.1630 C   0  0  0  0  0  0  0  0  0  0  0  0
  179.2610  175.8510  137.8600 O   0  0  0  0  0  0  0  0  0  0  0  0
  180.3860  173.8560  137.8770 O   0  0  0  0  0  1  0  0  0  0  0  0
  183.3620  180.8610  138.7090 C   0  0  0  0  0  1  0  0  0  0  0  0
  184.5380  180.2560  139.1570 O   0  0  0  0  0  0  0  0  0  0  0  0
  1 22  2  0  0  0  0
  1 10  1  0  0  0  0
  2  3  1  0  0  0  0
  4  5  2  0  0  0  0
  4 22  1  0  0  0  0
  5 23  1  0  0  0  0
  6 32  1  1  0  0  0
  6 19  1  0  0  0  0
  6 14  1  0  0  0  0
  7 10  1  0  0  0  0
  8 21  1  0  0  0  0
  9  2  2  0  0  0  0
 10 11  1  0  0  0  0
 11 17  2  0  0  0  0
 11  9  1  0  0  0  0
 12 18  2  0  0  0  0
 12 17  1  0  0  0  0
 13  8  1  0  0  0  0
 14 25  1  0  0  0  0
 14  7  1  1  0  0  0
 15  5  1  0  0  0  0
 15 13  2  0  0  0  0
 16  3  2  0  0  0  0
 17 16  1  0  0  0  0
 19  1  1  0  0  0  0
 20  4  1  0  0  0  0
 22 12  1  0  0  0  0
 23  8  1  0  0  0  0
 23 18  1  0  0  0  0
 25 24  1  1  0  0  0
 26 27  1  1  0  0  0
 26 25  1  0  0  0  0
 26 24  1  0  0  0  0
 28 27  1  0  0  0  0
 29 28  2  0  0  0  0
 30 28  1  0  0  0  0
 31 32  1  0  0  0  0
M  END
>  <MODEL>
1

>  <REMARK>
 VINA RESULT:      -7.8      0.000      0.000
  Name = 
  3 active torsions:
  status: ('A' for Active; 'I' for Inactive)
    1  A    between atoms: C_7  and  O_19
    2  A    between atoms: C_10  and  C_17
    3  A    between atoms: C_20  and  N_29
                            x       y       z     vdW  Elec       q    Type
                         _______ _______ _______ _____ _____    ______ ____

>  <TORSDO>
F 3

$$$$
=
 OpenBabel11122410483D

 32 37  0  0  1  0  0  0  0  0999 V2000
  187.3510  177.8990  139.6200 C   0  0  0  0  0  0  0  0  0  0  0  0
  183.3560  178.8080  142.4030 C   0  0  0  0  0  3  0  0  0  0  0  0
  184.1380  178.7480  143.5580 C   0  0  0  0  0  3  0  0  0  0  0  0
  189.6110  177.4750  140.6560 C   0  0  0  0  0  0  0  0  0  0  0  0
  190.3160  177.5130  141.7860 C   0  0  0  0  0  0  0  0  0  0  0  0
  187.1340  178.0970  137.1010 C   0  0  2  0  0  3  0  0  0  0  0  0
  185.2080  178.7460  138.5690 C   0  0  0  0  0  2  0  0  0  0  0  0
  190.6640  177.7160  144.0620 N   0  0  0  0  0  0  0  0  0  0  0  0
  183.9510  178.6490  141.1500 C   0  0  0  0  0  3  0  0  0  0  0  0
  185.9530  178.2730  139.7430 N   0  0  0  0  0  0  0  0  0  0  0  0
  185.3360  178.4260  141.0370 C   0  0  0  0  0  0  0  0  0  0  0  0
  187.5650  178.1220  142.0680 C   0  0  0  0  0  0  0  0  0  0  0  0
  191.8940  177.3080  143.4710 N   0  0  0  0  0  0  0  0  0  0  0  0
  185.6180  178.0320  137.2840 C   0  0  2  0  0  3  0  0  0  0  0  0
  191.7090  177.1490  142.0140 C   0  0  0  0  0  3  0  0  0  0  0  0
  185.5120  178.5260  143.4580 C   0  0  0  0  0  3  0  0  0  0  0  0
  186.1180  178.3630  142.2000 C   0  0  0  0  0  0  0  0  0  0  0  0
  188.3550  178.1190  143.1540 C   0  0  0  0  0  3  0  0  0  0  0  0
  187.8610  177.4490  138.2740 C   0  0  0  0  0  2  0  0  0  0  0  0
  190.2450  177.1000  139.4750 O   0  0  0  0  0  1  0  0  0  0  0  0
  190.8930  179.0340  144.6370 C   0  0  0  0  0  1  0  0  0  0  0  0
  188.1520  177.8350  140.7170 C   0  0  0  0  0  0  0  0  0  0  0  0
  189.7550  177.8670  143.0080 N   0  0  0  0  0  0  0  0  0  0  0  0
  183.6390  176.5630  137.6320 C   0  0  0  0  0  2  0  0  0  0  0  0
  185.1110  176.5960  137.2710 C   0  0  1  0  0  3  0  0  0  0  0  0
  184.0660  176.4430  136.1840 C   0  0  1  0  0  3  0  0  0  0  0  0
  184.0040  175.0520  135.7730 N   0  0  0  0  0  2  0  0  0  0  0  0
  182.8320  174.5020  135.1730 C   0  0  0  0  0  0  0  0  0  0  0  0
  181.7110  175.2950  134.9560 O   0  0  0  0  0  1  0  0  0  0  0  0
  182.8150  173.2910  134.8330 O   0  0  0  0  0  0  0  0  0  0  0  0
  188.9410  179.3740  137.0570 C   0  0  0  0  0  1  0  0  0  0  0  0
  187.5500  179.4230  136.9470 O   0  0  0  0  0  0  0  0  0  0  0  0
  1 10  1  0  0  0  0
  1 22  2  0  0  0  0
  2  3  1  0  0  0  0
  4 22  1  0  0  0  0
  4  5  2  0  0  0  0
  5 15  1  0  0  0  0
  5 23  1  0  0  0  0
  6 32  1  1  0  0  0
  6 14  1  0  0  0  0
  6 19  1  0  0  0  0
  7 10  1  0  0  0  0
  8 21  1  0  0  0  0
  9  2  2  0  0  0  0
 10 11  1  0  0  0  0
 11  9  1  0  0  0  0
 11 17  2  0  0  0  0
 12 17  1  0  0  0  0
 12 18  2  0  0  0  0
 13  8  1  0  0  0  0
 14  7  1  1  0  0  0
 15 13  2  0  0  0  0
 16  3  2  0  0  0  0
 17 16  1  0  0  0  0
 19  1  1  0  0  0  0
 20  4  1  0  0  0  0
 22 12  1  0  0  0  0
 23 18  1  0  0  0  0
 23  8  1  0  0  0  0
 25 14  1  0  0  0  0
 25 24  1  1  0  0  0
 26 27  1  1  0  0  0
 26 25  1  0  0  0  0
 26 24  1  0  0  0  0
 28 27  1  0  0  0  0
 29 28  1  0  0  0  0
 30 28  2  0  0  0  0
 32 31  1  0  0  0  0
M  END
>  <MODEL>
2

>  <REMARK>
 VINA RESULT:      -7.5      2.294      3.015
  Name = 
  3 active torsions:
  status: ('A' for Active; 'I' for Inactive)
    1  A    between atoms: C_7  and  O_19
    2  A    between atoms: C_10  and  C_17
    3  A    between atoms: C_20  and  N_29
                            x       y       z     vdW  Elec       q    Type
                         _______ _______ _______ _____ _____    ______ ____

>  <TORSDO>
F 3

$$$$
=
 OpenBabel11122410483D

 32 37  0  0  1  0  0  0  0  0999 V2000
  187.8730  177.6400  140.9110 C   0  0  0  0  0  0  0  0  0  0  0  0
  183.7170  178.9780  143.2500 C   0  0  0  0  0  3  0  0  0  0  0  0
  184.3090  178.6940  144.4810 C   0  0  0  0  0  3  0  0  0  0  0  0
  189.8700  176.7590  142.1730 C   0  0  0  0  0  0  0  0  0  0  0  0
  190.4070  176.5860  143.3810 C   0  0  0  0  0  0  0  0  0  0  0  0
  188.0450  178.0770  138.4180 C   0  0  2  0  0  3  0  0  0  0  0  0
  186.0560  178.9180  139.6920 C   0  0  0  0  0  2  0  0  0  0  0  0
  190.4580  176.5420  145.6910 N   0  0  0  0  0  0  0  0  0  0  0  0
  184.4500  178.8240  142.0720 C   0  0  0  0  0  3  0  0  0  0  0  0
  186.5460  178.2330  140.8950 N   0  0  0  0  0  0  0  0  0  0  0  0
  185.7840  178.3810  142.1110 C   0  0  0  0  0  0  0  0  0  0  0  0
  187.7720  177.6230  143.3760 C   0  0  0  0  0  0  0  0  0  0  0  0
  191.6810  175.9820  145.2200 N   0  0  0  0  0  0  0  0  0  0  0  0
  186.5270  178.2530  138.4020 C   0  0  2  0  0  3  0  0  0  0  0  0
  191.6800  175.9750  143.7430 C   0  0  0  0  0  3  0  0  0  0  0  0
  185.6320  178.2530  144.5320 C   0  0  0  0  0  3  0  0  0  0  0  0
  186.3760  178.0930  143.3500 C   0  0  0  0  0  0  0  0  0  0  0  0
  188.3910  177.4000  144.5470 C   0  0  0  0  0  3  0  0  0  0  0  0
  188.4910  177.2220  139.6010 C   0  0  0  0  0  2  0  0  0  0  0  0
  190.5980  176.3810  141.0490 O   0  0  0  0  0  1  0  0  0  0  0  0
  190.8060  177.7510  146.4230 C   0  0  0  0  0  1  0  0  0  0  0  0
  188.4910  177.3530  142.0870 C   0  0  0  0  0  0  0  0  0  0  0  0
  189.7410  176.9290  144.5520 N   0  0  0  0  0  0  0  0  0  0  0  0
  184.3280  177.1710  137.9680 C   0  0  0  0  0  2  0  0  0  0  0  0
  185.8100  176.9280  138.1770 C   0  0  1  0  0  3  0  0  0  0  0  0
  185.2260  176.9050  136.7780 C   0  0  1  0  0  3  0  0  0  0  0  0
  185.0690  175.5270  136.3500 N   0  0  0  0  0  2  0  0  0  0  0  0
  184.1640  175.1680  135.3060 C   0  0  0  0  0  0  0  0  0  0  0  0
  183.4080  176.1400  134.6620 O   0  0  0  0  0  0  0  0  0  0  0  0
  184.0520  173.9630  134.9640 O   0  0  0  0  0  1  0  0  0  0  0  0
  189.0560  179.5700  137.1340 C   0  0  0  0  0  1  0  0  0  0  0  0
  188.6810  179.3210  138.4550 O   0  0  0  0  0  0  0  0  0  0  0  0
  1 22  2  0  0  0  0
  2  3  1  0  0  0  0
  3 16  2  0  0  0  0
  4  5  2  0  0  0  0
  5 15  1  0  0  0  0
  5 23  1  0  0  0  0
  6 32  1  1  0  0  0
  6 19  1  0  0  0  0
  7 10  1  0  0  0  0
  8 21  1  0  0  0  0
  9 11  1  0  0  0  0
  9  2  2  0  0  0  0
 10  1  1  0  0  0  0
 10 11  1  0  0  0  0
 11 17  2  0  0  0  0
 12 18  2  0  0  0  0
 13  8  1  0  0  0  0
 14  6  1  0  0  0  0
 14  7  1  1  0  0  0
 15 13  2  0  0  0  0
 17 12  1  0  0  0  0
 17 16  1  0  0  0  0
 18 23  1  0  0  0  0
 19  1  1  0  0  0  0
 20  4  1  0  0  0  0
 22  4  1  0  0  0  0
 22 12  1  0  0  0  0
 23  8  1  0  0  0  0
 25 24  1  1  0  0  0
 25 14  1  0  0  0  0
 26 27  1  1  0  0  0
 26 24  1  0  0  0  0
 26 25  1  0  0  0  0
 28 27  1  0  0  0  0
 29 28  2  0  0  0  0
 30 28  1  0  0  0  0
 31 32  1  0  0  0  0
M  END
>  <MODEL>
3

>  <REMARK>
 VINA RESULT:      -7.4      2.594      3.342
  Name = 
  3 active torsions:
  status: ('A' for Active; 'I' for Inactive)
    1  A    between atoms: C_7  and  O_19
    2  A    between atoms: C_10  and  C_17
    3  A    between atoms: C_20  and  N_29
                            x       y       z     vdW  Elec       q    Type
                         _______ _______ _______ _____ _____    ______ ____

>  <TORSDO>
F 3

$$$$
=
 OpenBabel11122410483D

 32 37  0  0  1  0  0  0  0  0999 V2000
  183.2210  178.6380  141.7150 C   0  0  0  0  0  0  0  0  0  0  0  0
  186.5280  178.3770  138.0370 C   0  0  0  0  0  3  0  0  0  0  0  0
  187.5660  178.2950  138.9660 C   0  0  0  0  0  3  0  0  0  0  0  0
  183.9380  178.6710  144.1330 C   0  0  0  0  0  0  0  0  0  0  0  0
  184.9630  178.5050  144.9680 C   0  0  0  0  0  0  0  0  0  0  0  0
  180.7560  178.5030  141.1300 C   0  0  2  0  0  3  0  0  0  0  0  0
  182.4780  178.1690  139.3390 C   0  0  0  0  0  2  0  0  0  0  0  0
  187.1740  178.2250  145.5800 N   0  0  0  0  0  0  0  0  0  0  0  0
  185.2040  178.4480  138.4760 C   0  0  0  0  0  3  0  0  0  0  0  0
  183.5350  178.5000  140.3030 N   0  0  0  0  0  0  0  0  0  0  0  0
  184.9030  178.4390  139.8500 C   0  0  0  0  0  0  0  0  0  0  0  0
  185.6200  178.3590  142.2170 C   0  0  0  0  0  0  0  0  0  0  0  0
  186.4170  178.4290  146.7700 N   0  0  0  0  0  0  0  0  0  0  0  0
  181.1410  178.8170  139.6850 C   0  0  2  0  0  3  0  0  0  0  0  0
  184.9970  178.6310  146.4200 C   0  0  0  0  0  3  0  0  0  0  0  0
  187.2790  178.2870  140.3320 C   0  0  0  0  0  3  0  0  0  0  0  0
  185.9490  178.3600  140.7810 C   0  0  0  0  0  0  0  0  0  0  0  0
  186.5900  178.2190  143.1360 C   0  0  0  0  0  3  0  0  0  0  0  0
  181.8130  179.0100  142.1070 C   0  0  0  0  0  2  0  0  0  0  0  0
  182.6780  178.9470  144.6550 O   0  0  0  0  0  1  0  0  0  0  0  0
  187.7300  176.8820  145.6630 C   0  0  0  0  0  1  0  0  0  0  0  0
  184.1990  178.5570  142.6550 C   0  0  0  0  0  0  0  0  0  0  0  0
  186.2540  178.2370  144.5250 N   0  0  0  0  0  0  0  0  0  0  0  0
  181.5450  180.5840  137.9800 C   0  0  0  0  0  2  0  0  0  0  0  0
  181.1780  180.3180  139.4260 C   0  0  1  0  0  3  0  0  0  0  0  0
  180.1000  180.6800  138.4230 C   0  0  1  0  0  3  0  0  0  0  0  0
  179.7370  182.0750  138.5960 N   0  0  0  0  0  2  0  0  0  0  0  0
  179.2310  182.8540  137.5130 C   0  0  0  0  0  0  0  0  0  0  0  0
  179.0650  182.2900  136.2540 O   0  0  0  0  0  0  0  0  0  0  0  0
  178.9310  184.0610  137.7000 O   0  0  0  0  0  1  0  0  0  0  0  0
  179.2850  176.8840  140.7970 C   0  0  0  0  0  1  0  0  0  0  0  0
  180.5650  177.1290  141.2970 O   0  0  0  0  0  0  0  0  0  0  0  0
  1 19  1  0  0  0  0
  1 22  2  0  0  0  0
  2  9  2  0  0  0  0
  2  3  1  0  0  0  0
  3 16  2  0  0  0  0
  4 20  1  0  0  0  0
  4  5  2  0  0  0  0
  5 15  1  0  0  0  0
  6 32  1  6  0  0  0
  6 19  1  0  0  0  0
  7 10  1  0  0  0  0
  8 21  1  0  0  0  0
  8 13  1  0  0  0  0
  9 11  1  0  0  0  0
 10  1  1  0  0  0  0
 11 10  1  0  0  0  0
 11 17  2  0  0  0  0
 12 22  1  0  0  0  0
 12 18  2  0  0  0  0
 14  7  1  1  0  0  0
 14  6  1  0  0  0  0
 15 13  2  0  0  0  0
 16 17  1  0  0  0  0
 17 12  1  0  0  0  0
 18 23  1  0  0  0  0
 22  4  1  0  0  0  0
 23  5  1  0  0  0  0
 23  8  1  0  0  0  0
 24 26  1  0  0  0  0
 25 24  1  6  0  0  0
 25 14  1  0  0  0  0
 26 27  1  1  0  0  0
 26 25  1  0  0  0  0
 28 30  1  0  0  0  0
 28 27  1  0  0  0  0
 29 28  2  0  0  0  0
 31 32  1  0  0  0  0
M  END
>  <MODEL>
4

>  <REMARK>
 VINA RESULT:      -7.3      3.129      5.464
  Name = 
  3 active torsions:
  status: ('A' for Active; 'I' for Inactive)
    1  A    between atoms: C_7  and  O_19
    2  A    between atoms: C_10  and  C_17
    3  A    between atoms: C_20  and  N_29
                            x       y       z     vdW  Elec       q    Type
                         _______ _______ _______ _____ _____    ______ ____

>  <TORSDO>
F 3

$$$$
=
 OpenBabel11122410483D

 32 37  0  0  1  0  0  0  0  0999 V2000
  189.4490  177.0950  141.8090 C   0  0  0  0  0  0  0  0  0  0  0  0
  184.9380  179.0700  141.2740 C   0  0  0  0  0  3  0  0  0  0  0  0
  184.7660  179.0700  142.6580 C   0  0  0  0  0  3  0  0  0  0  0  0
  190.3580  176.4810  144.0800 C   0  0  0  0  0  0  0  0  0  0  0  0
  190.1680  176.5850  145.3940 C   0  0  0  0  0  0  0  0  0  0  0  0
  190.9370  176.9200  139.7620 C   0  0  2  0  0  3  0  0  0  0  0  0
  188.7300  178.0980  139.5960 C   0  0  0  0  0  2  0  0  0  0  0  0
  189.0210  177.0900  147.3360 N   0  0  0  0  0  0  0  0  0  0  0  0
  186.1380  178.6190  140.7210 C   0  0  0  0  0  3  0  0  0  0  0  0
  188.4240  177.7050  140.9780 N   0  0  0  0  0  0  0  0  0  0  0  0
  187.1800  178.1600  141.5480 C   0  0  0  0  0  0  0  0  0  0  0  0
  188.0990  177.6670  143.7930 C   0  0  0  0  0  0  0  0  0  0  0  0
  190.2110  176.3990  147.7030 N   0  0  0  0  0  0  0  0  0  0  0  0
  189.6880  177.1310  138.9070 C   0  0  2  0  0  3  0  0  0  0  0  0
  190.9660  176.0410  146.4860 C   0  0  0  0  0  3  0  0  0  0  0  0
  185.7920  178.6160  143.4880 C   0  0  0  0  0  3  0  0  0  0  0  0
  187.0020  178.1580  142.9390 C   0  0  0  0  0  0  0  0  0  0  0  0
  187.9890  177.7110  145.1310 C   0  0  0  0  0  3  0  0  0  0  0  0
  190.5790  176.3590  141.1350 C   0  0  0  0  0  2  0  0  0  0  0  0
  191.4920  175.8250  143.6100 O   0  0  0  0  0  1  0  0  0  0  0  0
  189.1220  178.4280  147.9010 C   0  0  0  0  0  1  0  0  0  0  0  0
  189.3260  177.0780  143.1620 C   0  0  0  0  0  0  0  0  0  0  0  0
  189.0560  177.2160  145.9420 N   0  0  0  0  0  0  0  0  0  0  0  0
  187.9490  176.0260  137.5120 C   0  0  0  0  0  2  0  0  0  0  0  0
  188.9970  175.8120  138.5850 C   0  0  1  0  0  3  0  0  0  0  0  0
  189.2920  175.4290  137.1490 C   0  0  1  0  0  3  0  0  0  0  0  0
  189.1600  173.9900  137.0030 N   0  0  0  0  0  2  0  0  0  0  0  0
  188.8980  173.3900  135.7350 C   0  0  0  0  0  0  0  0  0  0  0  0
  188.7680  174.1740  134.5950 O   0  0  0  0  0  0  0  0  0  0  0  0
  188.7870  172.1400  135.6480 O   0  0  0  0  0  1  0  0  0  0  0  0
  192.9430  177.7310  140.2260 C   0  0  0  0  0  1  0  0  0  0  0  0
  191.6430  178.1190  139.9000 O   0  0  0  0  0  0  0  0  0  0  0  0
  1 22  2  0  0  0  0
  2  3  1  0  0  0  0
  3 16  2  0  0  0  0
  4  5  2  0  0  0  0
  5 23  1  0  0  0  0
  5 15  1  0  0  0  0
  6 32  1  1  0  0  0
  6 19  1  0  0  0  0
  7 10  1  0  0  0  0
  8 13  1  0  0  0  0
  8 21  1  0  0  0  0
  9  2  2  0  0  0  0
  9 11  1  0  0  0  0
 10 11  1  0  0  0  0
 10  1  1  0  0  0  0
 11 17  2  0  0  0  0
 12 18  2  0  0  0  0
 14  7  1  1  0  0  0
 14  6  1  0  0  0  0
 15 13  2  0  0  0  0
 17 16  1  0  0  0  0
 17 12  1  0  0  0  0
 18 23  1  0  0  0  0
 19  1  1  0  0  0  0
 20  4  1  0  0  0  0
 22 12  1  0  0  0  0
 22  4  1  0  0  0  0
 23  8  1  0  0  0  0
 25 24  1  6  0  0  0
 25 14  1  0  0  0  0
 26 27  1  1  0  0  0
 26 24  1  0  0  0  0
 26 25  1  0  0  0  0
 28 27  1  0  0  0  0
 29 28  2  0  0  0  0
 30 28  1  0  0  0  0
 32 31  1  0  0  0  0
M  END
>  <MODEL>
5

>  <REMARK>
 VINA RESULT:      -7.1      3.993      5.955
  Name = 
  3 active torsions:
  status: ('A' for Active; 'I' for Inactive)
    1  A    between atoms: C_7  and  O_19
    2  A    between atoms: C_10  and  C_17
    3  A    between atoms: C_20  and  N_29
                            x       y       z     vdW  Elec       q    Type
                         _______ _______ _______ _____ _____    ______ ____

>  <TORSDO>
F 3

$$$$
=
 OpenBabel11122410483D

 32 37  0  0  1  0  0  0  0  0999 V2000
  186.8580  177.9050  139.8730 C   0  0  0  0  0  0  0  0  0  0  0  0
  183.4440  178.8700  143.3300 C   0  0  0  0  0  3  0  0  0  0  0  0
  184.4230  178.8140  144.3230 C   0  0  0  0  0  3  0  0  0  0  0  0
  189.2660  177.4710  140.4830 C   0  0  0  0  0  0  0  0  0  0  0  0
  190.1660  177.5140  141.4650 C   0  0  0  0  0  0  0  0  0  0  0  0
  186.1850  178.0830  137.4340 C   0  0  2  0  0  3  0  0  0  0  0  0
  184.5630  178.7600  139.2220 C   0  0  0  0  0  2  0  0  0  0  0  0
  190.9240  177.7330  143.6370 N   0  0  0  0  0  0  0  0  0  0  0  0
  183.7990  178.6950  141.9910 C   0  0  0  0  0  3  0  0  0  0  0  0
  185.5070  178.2920  140.2450 N   0  0  0  0  0  0  0  0  0  0  0  0
  185.1380  178.4600  141.6290 C   0  0  0  0  0  0  0  0  0  0  0  0
  187.5170  178.1470  142.2380 C   0  0  0  0  0  0  0  0  0  0  0  0
  192.0230  177.3100  142.8350 N   0  0  0  0  0  0  0  0  0  0  0  0
  184.7270  178.0320  137.8910 C   0  0  2  0  0  3  0  0  0  0  0  0
  191.5750  177.1400  141.4380 C   0  0  0  0  0  3  0  0  0  0  0  0
  185.7540  178.5800  143.9760 C   0  0  0  0  0  3  0  0  0  0  0  0
  186.1190  178.4010  142.6300 C   0  0  0  0  0  0  0  0  0  0  0  0
  188.4910  178.1470  143.1620 C   0  0  0  0  0  3  0  0  0  0  0  0
  187.1100  177.4400  138.4610 C   0  0  0  0  0  2  0  0  0  0  0  0
  189.6710  177.0820  139.2100 O   0  0  0  0  0  1  0  0  0  0  0  0
  191.2630  179.0540  144.1480 C   0  0  0  0  0  1  0  0  0  0  0  0
  187.8440  177.8440  140.8050 C   0  0  0  0  0  0  0  0  0  0  0  0
  189.8390  177.8830  142.7650 N   0  0  0  0  0  0  0  0  0  0  0  0
  182.8910  176.5700  138.7190 C   0  0  0  0  0  2  0  0  0  0  0  0
  184.2170  176.6000  137.9850 C   0  0  1  0  0  3  0  0  0  0  0  0
  182.9220  176.4770  137.2080 C   0  0  1  0  0  3  0  0  0  0  0  0
  182.7380  175.0950  136.8020 N   0  0  0  0  0  2  0  0  0  0  0  0
  181.4420  174.5630  136.5310 C   0  0  0  0  0  0  0  0  0  0  0  0
  180.3120  175.3640  136.6410 O   0  0  0  0  0  1  0  0  0  0  0  0
  181.3220  173.3590  136.1850 O   0  0  0  0  0  0  0  0  0  0  0  0
  187.7720  179.2990  136.4850 C   0  0  0  0  0  1  0  0  0  0  0  0
  186.5750  179.4040  137.1930 O   0  0  0  0  0  0  0  0  0  0  0  0
  1 10  1  0  0  0  0
  1 22  2  0  0  0  0
  2  3  1  0  0  0  0
  4 22  1  0  0  0  0
  4  5  2  0  0  0  0
  5 23  1  0  0  0  0
  6 32  1  1  0  0  0
  6 14  1  0  0  0  0
  6 19  1  0  0  0  0
  7 10  1  0  0  0  0
  8 21  1  0  0  0  0
  9  2  2  0  0  0  0
 10 11  1  0  0  0  0
 11  9  1  0  0  0  0
 11 17  2  0  0  0  0
 12 17  1  0  0  0  0
 12 18  2  0  0  0  0
 13  8  1  0  0  0  0
 14 25  1  0  0  0  0
 14  7  1  1  0  0  0
 15  5  1  0  0  0  0
 15 13  2  0  0  0  0
 16  3  2  0  0  0  0
 17 16  1  0  0  0  0
 19  1  1  0  0  0  0
 20  4  1  0  0  0  0
 22 12  1  0  0  0  0
 23 18  1  0  0  0  0
 23  8  1  0  0  0  0
 25 24  1  1  0  0  0
 26 27  1  1  0  0  0
 26 25  1  0  0  0  0
 26 24  1  0  0  0  0
 28 29  1  0  0  0  0
 28 27  1  0  0  0  0
 30 28  2  0  0  0  0
 31 32  1  0  0  0  0
M  END
>  <MODEL>
6

>  <REMARK>
 VINA RESULT:      -6.9      1.699      2.153
  Name = 
  3 active torsions:
  status: ('A' for Active; 'I' for Inactive)
    1  A    between atoms: C_7  and  O_19
    2  A    between atoms: C_10  and  C_17
    3  A    between atoms: C_20  and  N_29
                            x       y       z     vdW  Elec       q    Type
                         _______ _______ _______ _____ _____    ______ ____

>  <TORSDO>
F 3

$$$$
=
 OpenBabel11122410483D

 32 37  0  0  1  0  0  0  0  0999 V2000
  189.1890  176.8700  138.6320 C   0  0  0  0  0  0  0  0  0  0  0  0
  191.6840  177.4040  142.8780 C   0  0  0  0  0  3  0  0  0  0  0  0
  190.6120  178.1070  143.4280 C   0  0  0  0  0  3  0  0  0  0  0  0
  186.9040  177.8870  138.3090 C   0  0  0  0  0  0  0  0  0  0  0  0
  185.8840  178.4910  138.9180 C   0  0  0  0  0  0  0  0  0  0  0  0
  190.1570  175.3470  136.8500 C   0  0  2  0  0  3  0  0  0  0  0  0
  191.2650  175.4940  139.0940 C   0  0  0  0  0  2  0  0  0  0  0  0
  184.7740  179.5520  140.6460 N   0  0  0  0  0  0  0  0  0  0  0  0
  191.5920  176.8960  141.5800 C   0  0  0  0  0  3  0  0  0  0  0  0
  190.3260  176.5550  139.4800 N   0  0  0  0  0  0  0  0  0  0  0  0
  190.4260  177.0890  140.8160 C   0  0  0  0  0  0  0  0  0  0  0  0
  188.1400  178.0000  140.5580 C   0  0  0  0  0  0  0  0  0  0  0  0
  183.9530  179.6380  139.4850 N   0  0  0  0  0  0  0  0  0  0  0  0
  191.4940  175.4290  137.5870 C   0  0  2  0  0  3  0  0  0  0  0  0
  184.6360  178.9860  138.3500 C   0  0  0  0  0  3  0  0  0  0  0  0
  189.4510  178.3060  142.6790 C   0  0  0  0  0  3  0  0  0  0  0  0
  189.3520  177.8000  141.3710 C   0  0  0  0  0  0  0  0  0  0  0  0
  187.0670  178.6190  141.0790 C   0  0  0  0  0  3  0  0  0  0  0  0
  189.2790  176.5540  137.1600 C   0  0  0  0  0  2  0  0  0  0  0  0
  186.8090  177.6020  136.9510 O   0  0  0  0  0  1  0  0  0  0  0  0
  184.0400  178.7580  141.6200 C   0  0  0  0  0  1  0  0  0  0  0  0
  188.1200  177.5470  139.1280 C   0  0  0  0  0  0  0  0  0  0  0  0
  185.9060  178.8190  140.2690 N   0  0  0  0  0  0  0  0  0  0  0  0
  193.5560  176.7630  137.9840 C   0  0  0  0  0  2  0  0  0  0  0  0
  192.3280  176.6110  137.1090 C   0  0  1  0  0  3  0  0  0  0  0  0
  193.6730  176.1100  136.6220 C   0  0  1  0  0  3  0  0  0  0  0  0
  194.2210  177.0620  135.6720 N   0  0  0  0  0  2  0  0  0  0  0  0
  195.6230  177.1440  135.4220 C   0  0  0  0  0  0  0  0  0  0  0  0
  196.5090  176.3010  136.0830 O   0  0  0  0  0  1  0  0  0  0  0  0
  196.0610  177.9840  134.5940 O   0  0  0  0  0  0  0  0  0  0  0  0
  189.7390  173.3010  136.1150 C   0  0  0  0  0  1  0  0  0  0  0  0
  189.4890  174.1650  137.1820 O   0  0  0  0  0  0  0  0  0  0  0  0
  1 22  2  0  0  0  0
  1 10  1  0  0  0  0
  2  3  1  0  0  0  0
  4  5  2  0  0  0  0
  4 22  1  0  0  0  0
  5 23  1  0  0  0  0
  6 19  1  0  0  0  0
  6 32  1  1  0  0  0
  6 14  1  0  0  0  0
  7 10  1  0  0  0  0
  8 21  1  0  0  0  0
  9  2  2  0  0  0  0
 10 11  1  0  0  0  0
 11 17  2  0  0  0  0
 11  9  1  0  0  0  0
 12 18  2  0  0  0  0
 12 17  1  0  0  0  0
 13  8  1  0  0  0  0
 14  7  1  1  0  0  0
 15  5  1  0  0  0  0
 15 13  2  0  0  0  0
 16  3  2  0  0  0  0
 17 16  1  0  0  0  0
 19  1  1  0  0  0  0
 20  4  1  0  0  0  0
 22 12  1  0  0  0  0
 23  8  1  0  0  0  0
 23 18  1  0  0  0  0
 25 14  1  0  0  0  0
 25 24  1  1  0  0  0
 26 27  1  6  0  0  0
 26 25  1  0  0  0  0
 26 24  1  0  0  0  0
 28 27  1  0  0  0  0
 28 29  1  0  0  0  0
 30 28  2  0  0  0  0
 31 32  1  0  0  0  0
M  END
>  <MODEL>
7

>  <REMARK>
 VINA RESULT:      -6.9      3.982      8.769
  Name = 
  3 active torsions:
  status: ('A' for Active; 'I' for Inactive)
    1  A    between atoms: C_7  and  O_19
    2  A    between atoms: C_10  and  C_17
    3  A    between atoms: C_20  and  N_29
                            x       y       z     vdW  Elec       q    Type
                         _______ _______ _______ _____ _____    ______ ____

>  <TORSDO>
F 3

$$$$
=
 OpenBabel11122410483D

 32 37  0  0  1  0  0  0  0  0999 V2000
  186.9010  177.9160  140.6230 C   0  0  0  0  0  0  0  0  0  0  0  0
  182.0940  178.8490  139.8770 C   0  0  0  0  0  3  0  0  0  0  0  0
  181.8730  178.8560  141.2550 C   0  0  0  0  0  3  0  0  0  0  0  0
  187.8360  177.5890  142.9420 C   0  0  0  0  0  0  0  0  0  0  0  0
  187.5780  177.6920  144.2460 C   0  0  0  0  0  0  0  0  0  0  0  0
  188.4670  178.0020  138.6300 C   0  0  2  0  0  3  0  0  0  0  0  0
  186.0650  178.6670  138.3520 C   0  0  0  0  0  2  0  0  0  0  0  0
  186.2780  178.0000  146.1310 N   0  0  0  0  0  0  0  0  0  0  0  0
  183.3830  178.6500  139.3780 C   0  0  0  0  0  3  0  0  0  0  0  0
  185.8010  178.2620  139.7390 N   0  0  0  0  0  0  0  0  0  0  0  0
  184.4670  178.4550  140.2530 C   0  0  0  0  0  0  0  0  0  0  0  0
  185.3860  178.2470  142.5420 C   0  0  0  0  0  0  0  0  0  0  0  0
  187.5750  177.5960  146.5600 N   0  0  0  0  0  0  0  0  0  0  0  0
  187.2350  177.9090  137.7300 C   0  0  2  0  0  3  0  0  0  0  0  0
  188.4340  177.3700  145.3810 C   0  0  0  0  0  3  0  0  0  0  0  0
  182.9420  178.6620  142.1320 C   0  0  0  0  0  3  0  0  0  0  0  0
  184.2420  178.4600  141.6370 C   0  0  0  0  0  0  0  0  0  0  0  0
  185.2190  178.3100  143.8730 C   0  0  0  0  0  3  0  0  0  0  0  0
  188.1880  177.4220  140.0120 C   0  0  0  0  0  2  0  0  0  0  0  0
  189.1010  177.1800  142.5320 O   0  0  0  0  0  1  0  0  0  0  0  0
  186.0670  179.3460  146.6450 C   0  0  0  0  0  1  0  0  0  0  0  0
  186.7340  177.9170  141.9720 C   0  0  0  0  0  0  0  0  0  0  0  0
  186.3370  178.0850  144.7350 N   0  0  0  0  0  0  0  0  0  0  0  0
  185.5930  176.4140  136.6070 C   0  0  0  0  0  2  0  0  0  0  0  0
  186.8570  176.4620  137.4410 C   0  0  1  0  0  3  0  0  0  0  0  0
  186.9410  176.2100  135.9490 C   0  0  1  0  0  3  0  0  0  0  0  0
  187.1580  174.7930  135.7160 N   0  0  0  0  0  2  0  0  0  0  0  0
  188.3230  174.3170  135.0430 C   0  0  0  0  0  0  0  0  0  0  0  0
  189.2930  175.2060  134.5950 O   0  0  0  0  0  0  0  0  0  0  0  0
  188.4750  173.0820  134.8560 O   0  0  0  0  0  1  0  0  0  0  0  0
  189.1830  179.7200  137.4320 C   0  0  0  0  0  1  0  0  0  0  0  0
  188.8920  179.3290  138.7400 O   0  0  0  0  0  0  0  0  0  0  0  0
  1 22  2  0  0  0  0
  2  3  1  0  0  0  0
  3 16  2  0  0  0  0
  4  5  2  0  0  0  0
  5 23  1  0  0  0  0
  5 15  1  0  0  0  0
  6 32  1  1  0  0  0
  6 19  1  0  0  0  0
  7 10  1  0  0  0  0
  8 13  1  0  0  0  0
  8 21  1  0  0  0  0
  9  2  2  0  0  0  0
  9 11  1  0  0  0  0
 10 11  1  0  0  0  0
 10  1  1  0  0  0  0
 11 17  2  0  0  0  0
 12 18  2  0  0  0  0
 14  7  1  1  0  0  0
 14  6  1  0  0  0  0
 15 13  2  0  0  0  0
 17 16  1  0  0  0  0
 17 12  1  0  0  0  0
 18 23  1  0  0  0  0
 19  1  1  0  0  0  0
 20  4  1  0  0  0  0
 22 12  1  0  0  0  0
 22  4  1  0  0  0  0
 23  8  1  0  0  0  0
 25 24  1  6  0  0  0
 25 14  1  0  0  0  0
 26 27  1  1  0  0  0
 26 24  1  0  0  0  0
 26 25  1  0  0  0  0
 28 27  1  0  0  0  0
 29 28  2  0  0  0  0
 30 28  1  0  0  0  0
 31 32  1  0  0  0  0
M  END
>  <MODEL>
8

>  <REMARK>
 VINA RESULT:      -6.7      3.490      5.236
  Name = 
  3 active torsions:
  status: ('A' for Active; 'I' for Inactive)
    1  A    between atoms: C_7  and  O_19
    2  A    between atoms: C_10  and  C_17
    3  A    between atoms: C_20  and  N_29
                            x       y       z     vdW  Elec       q    Type
                         _______ _______ _______ _____ _____    ______ ____

>  <TORSDO>
F 3

$$$$
=
 OpenBabel11122410483D

 32 37  0  0  1  0  0  0  0  0999 V2000
  186.0930  178.2030  140.2230 C   0  0  0  0  0  0  0  0  0  0  0  0
  186.1300  177.9260  145.1680 C   0  0  0  0  0  3  0  0  0  0  0  0
  187.4730  177.5490  145.1450 C   0  0  0  0  0  3  0  0  0  0  0  0
  188.1270  177.6100  138.8550 C   0  0  0  0  0  0  0  0  0  0  0  0
  189.4280  177.3290  138.9030 C   0  0  0  0  0  0  0  0  0  0  0  0
  184.0470  179.1820  139.0870 C   0  0  2  0  0  3  0  0  0  0  0  0
  184.2100  179.2070  141.5890 C   0  0  0  0  0  2  0  0  0  0  0  0
  191.4510  176.8150  139.8970 N   0  0  0  0  0  0  0  0  0  0  0  0
  185.4650  178.2130  143.9740 C   0  0  0  0  0  3  0  0  0  0  0  0
  185.4550  178.4310  141.5080 N   0  0  0  0  0  0  0  0  0  0  0  0
  186.1370  178.1230  142.7410 C   0  0  0  0  0  0  0  0  0  0  0  0
  188.1760  177.6440  141.4220 C   0  0  0  0  0  0  0  0  0  0  0  0
  191.6170  176.6940  138.4870 N   0  0  0  0  0  0  0  0  0  0  0  0
  183.2890  178.9680  140.3970 C   0  0  2  0  0  3  0  0  0  0  0  0
  190.3390  176.9970  137.8130 C   0  0  0  0  0  3  0  0  0  0  0  0
  188.1490  177.4560  143.9270 C   0  0  0  0  0  3  0  0  0  0  0  0
  187.4860  177.7410  142.7210 C   0  0  0  0  0  0  0  0  0  0  0  0
  189.4840  177.3440  141.3690 C   0  0  0  0  0  3  0  0  0  0  0  0
  185.2410  178.2390  138.9790 C   0  0  0  0  0  2  0  0  0  0  0  0
  187.4930  177.6730  137.6180 O   0  0  0  0  0  1  0  0  0  0  0  0
  192.3300  177.8910  140.3310 C   0  0  0  0  0  1  0  0  0  0  0  0
  187.4010  177.8410  140.1520 C   0  0  0  0  0  0  0  0  0  0  0  0
  190.1320  177.2380  140.0990 N   0  0  0  0  0  0  0  0  0  0  0  0
  181.1800  177.7020  140.7750 C   0  0  0  0  0  2  0  0  0  0  0  0
  182.6580  177.5830  140.4620 C   0  0  1  0  0  3  0  0  0  0  0  0
  181.6350  177.4450  139.3530 C   0  0  1  0  0  3  0  0  0  0  0  0
  181.4630  176.0390  139.0340 N   0  0  0  0  0  2  0  0  0  0  0  0
  180.2790  175.5570  138.4000 C   0  0  0  0  0  0  0  0  0  0  0  0
  179.2540  176.4310  138.0600 O   0  0  0  0  0  0  0  0  0  0  0  0
  180.1640  174.3310  138.1420 O   0  0  0  0  0  1  0  0  0  0  0  0
  183.3100  181.2300  138.6860 C   0  0  0  0  0  1  0  0  0  0  0  0
  184.4690  180.5100  138.9790 O   0  0  0  0  0  0  0  0  0  0  0  0
  1 10  1  0  0  0  0
  3  2  1  0  0  0  0
  4  5  2  0  0  0  0
  4 22  1  0  0  0  0
  5 23  1  0  0  0  0
  6 32  1  1  0  0  0
  6 14  1  0  0  0  0
  8 23  1  0  0  0  0
  8 21  1  0  0  0  0
  9  2  2  0  0  0  0
 10  7  1  0  0  0  0
 10 11  1  0  0  0  0
 11  9  1  0  0  0  0
 12 17  1  0  0  0  0
 13  8  1  0  0  0  0
 14 25  1  0  0  0  0
 14  7  1  1  0  0  0
 15 13  2  0  0  0  0
 15  5  1  0  0  0  0
 16  3  2  0  0  0  0
 17 11  2  0  0  0  0
 17 16  1  0  0  0  0
 18 12  2  0  0  0  0
 19  6  1  0  0  0  0
 19  1  1  0  0  0  0
 20  4  1  0  0  0  0
 22  1  2  0  0  0  0
 22 12  1  0  0  0  0
 23 18  1  0  0  0  0
 25 24  1  1  0  0  0
 26 27  1  1  0  0  0
 26 25  1  0  0  0  0
 26 24  1  0  0  0  0
 28 27  1  0  0  0  0
 29 28  2  0  0  0  0
 30 28  1  0  0  0  0
 31 32  1  0  0  0  0
M  END
>  <MODEL>
9

>  <REMARK>
 VINA RESULT:      -6.6      1.379      1.909
  Name = 
  3 active torsions:
  status: ('A' for Active; 'I' for Inactive)
    1  A    between atoms: C_7  and  O_19
    2  A    between atoms: C_10  and  C_17
    3  A    between atoms: C_20  and  N_29
                            x       y       z     vdW  Elec       q    Type
                         _______ _______ _______ _____ _____    ______ ____

>  <TORSDO>
F 3

$$$$
