=
 OpenBabel11122410423D

 32 37  0  0  1  0  0  0  0  0999 V2000
  181.2950  176.2360  137.7830 C   0  0  0  0  0  2  0  0  0  0  0  0
  184.3990  178.9940  140.9130 C   0  0  1  0  0  3  0  0  0  0  0  0
  188.3270  177.5670  138.2070 C   0  0  0  0  0  2  0  0  0  0  0  0
  189.2490  178.1110  139.3000 C   0  0  0  0  0  2  0  0  0  0  0  0
  184.7240  179.3700  143.4110 C   0  0  0  0  0  0  0  0  0  0  0  0
  185.3930  178.7310  144.5430 C   0  0  0  0  0  0  0  0  0  0  0  0
  182.6740  177.4330  140.0020 C   0  0  1  0  0  3  0  0  0  0  0  0
  184.1520  178.8260  138.4660 C   0  0  0  0  0  2  0  0  0  0  0  0
  186.9360  177.6020  145.6900 C   0  0  0  0  0  0  0  0  0  0  0  0
  182.3200  177.3420  137.4820 C   0  0  2  0  0  3  0  0  0  0  0  0
  186.9580  178.1870  138.2990 C   0  0  0  0  0  3  0  0  0  0  0  0
  185.0590  178.9550  139.6030 N   0  0  0  0  0  0  0  0  0  0  0  0
  186.4290  178.5160  139.4880 C   0  0  0  0  0  0  0  0  0  0  0  0
  186.5960  178.5070  141.9870 N   0  0  0  0  0  0  0  0  0  0  0  0
  186.0680  177.9120  146.5980 N   0  0  0  0  0  0  0  0  0  0  0  0
  181.7490  175.3030  138.9040 C   0  0  0  0  0  2  0  0  0  0  0  0
  183.3470  177.5300  138.6160 C   0  0  2  0  0  3  0  0  0  0  0  0
  184.9780  178.6730  145.9770 C   0  0  0  0  0  2  0  0  0  0  0  0
  181.9720  176.0820  140.2060 C   0  0  0  0  0  2  0  0  0  0  0  0
  188.5560  178.1160  140.6350 C   0  0  0  0  0  3  0  0  0  0  0  0
  187.2420  178.3610  140.7180 C   0  0  0  0  0  0  0  0  0  0  0  0
  187.1890  177.9700  143.1490 N   0  0  0  0  0  2  0  0  0  0  0  0
  183.6730  177.6650  141.1360 C   0  0  0  0  0  2  0  0  0  0  0  0
  183.6370  179.9840  143.5840 O   0  0  0  0  0  0  0  0  0  0  0  0
  188.1720  176.8250  145.9720 C   0  0  0  0  0  1  0  0  0  0  0  0
  185.3800  179.3440  142.0460 C   0  0  1  0  0  3  0  0  0  0  0  0
  186.5300  178.1060  144.4030 C   0  0  0  0  0  0  0  0  0  0  0  0
  181.6340  178.5350  137.2260 O   0  0  0  0  0  0  0  0  0  0  0  0
  180.3000  178.2550  137.5260 C   0  0  0  0  0  2  0  0  0  0  0  0
  179.7690  179.2920  138.4490 C   0  0  0  0  0  0  0  0  0  0  0  0
  179.6220  180.6010  138.0110 O   0  0  0  0  0  0  0  0  0  0  0  0
  179.4890  178.9920  139.6380 O   0  0  0  0  0  1  0  0  0  0  0  0
  1 16  1  0  0  0  0
  2 23  1  1  0  0  0
  2 26  1  0  0  0  0
  3 11  1  0  0  0  0
  3  4  1  0  0  0  0
  4 20  1  0  0  0  0
  5 24  2  0  0  0  0
  5  6  1  0  0  0  0
  6 18  1  0  0  0  0
  7 19  1  1  0  0  0
  7 23  1  0  0  0  0
  8 12  1  0  0  0  0
  9 25  1  0  0  0  0
  9 15  2  0  0  0  0
 10 28  1  1  0  0  0
 10  1  1  0  0  0  0
 10 17  1  0  0  0  0
 11 13  2  0  0  0  0
 12  2  1  0  0  0  0
 13 12  1  0  0  0  0
 13 21  1  0  0  0  0
 14 26  1  0  0  0  0
 14 22  1  0  0  0  0
 16 19  1  0  0  0  0
 17  8  1  6  0  0  0
 17  7  1  0  0  0  0
 18 15  1  0  0  0  0
 20 21  2  0  0  0  0
 21 14  1  0  0  0  0
 22 27  1  0  0  0  0
 26  5  1  1  0  0  0
 27  6  2  0  0  0  0
 27  9  1  0  0  0  0
 28 29  1  0  0  0  0
 29 30  1  0  0  0  0
 30 32  1  0  0  0  0
 31 30  2  0  0  0  0
M  END
>  <MODEL>
1

>  <REMARK>
 VINA RESULT:      -7.0      0.000      0.000
  Name = 
  3 active torsions:
  status: ('A' for Active; 'I' for Inactive)
    1  A    between atoms: C_10  and  O_20
    2  A    between atoms: O_20  and  C_29
    3  A    between atoms: C_29  and  C_30
                            x       y       z     vdW  Elec       q    Type
                         _______ _______ _______ _____ _____    ______ ____

>  <TORSDO>
F 3

$$$$
=
 OpenBabel11122410423D

 32 37  0  0  1  0  0  0  0  0999 V2000
  194.2400  173.3350  136.8090 C   0  0  0  0  0  2  0  0  0  0  0  0
  190.6480  177.0940  136.9130 C   0  0  1  0  0  3  0  0  0  0  0  0
  190.5780  176.8340  141.8840 C   0  0  0  0  0  2  0  0  0  0  0  0
  189.3150  177.6980  141.8890 C   0  0  0  0  0  2  0  0  0  0  0  0
  188.4870  177.6880  135.7020 C   0  0  0  0  0  0  0  0  0  0  0  0
  187.0650  177.3530  135.7610 C   0  0  0  0  0  0  0  0  0  0  0  0
  191.9500  175.0230  136.4030 C   0  0  1  0  0  3  0  0  0  0  0  0
  192.7720  176.7260  138.1080 C   0  0  0  0  0  2  0  0  0  0  0  0
  185.0770  176.8300  136.6230 C   0  0  0  0  0  0  0  0  0  0  0  0
  194.2060  174.6900  137.5360 C   0  0  2  0  0  3  0  0  0  0  0  0
  191.3370  176.9950  140.5940 C   0  0  0  0  0  3  0  0  0  0  0  0
  191.3910  177.1950  138.1750 N   0  0  0  0  0  0  0  0  0  0  0  0
  190.6900  177.2040  139.4360 C   0  0  0  0  0  0  0  0  0  0  0  0
  188.5260  177.3820  138.1890 N   0  0  0  0  0  0  0  0  0  0  0  0
  184.8340  176.9000  135.3550 N   0  0  0  0  0  0  0  0  0  0  0  0
  192.8730  172.6550  136.7710 C   0  0  0  0  0  2  0  0  0  0  0  0
  192.7780  175.2530  137.6850 C   0  0  2  0  0  3  0  0  0  0  0  0
  186.0730  177.2450  134.6490 C   0  0  0  0  0  3  0  0  0  0  0  0
  191.8460  173.5330  136.0460 C   0  0  0  0  0  2  0  0  0  0  0  0
  188.5620  177.5570  140.5950 C   0  0  0  0  0  3  0  0  0  0  0  0
  189.2180  177.3790  139.4410 C   0  0  0  0  0  0  0  0  0  0  0  0
  187.1400  177.1230  138.1460 N   0  0  0  0  0  0  0  0  0  0  0  0
  190.5460  175.6190  136.5210 C   0  0  0  0  0  2  0  0  0  0  0  0
  189.0330  177.9360  134.5940 O   0  0  0  0  0  0  0  0  0  0  0  0
  184.0420  176.4990  137.6370 C   0  0  0  0  0  1  0  0  0  0  0  0
  189.2800  177.7960  136.9880 C   0  0  1  0  0  3  0  0  0  0  0  0
  186.4640  177.1120  136.8940 C   0  0  0  0  0  0  0  0  0  0  0  0
  195.0290  175.5910  136.8510 O   0  0  0  0  0  0  0  0  0  0  0  0
  195.9750  174.7930  136.2050 C   0  0  0  0  0  2  0  0  0  0  0  0
  197.3420  175.2310  136.5930 C   0  0  0  0  0  0  0  0  0  0  0  0
  197.7070  175.2630  137.9320 O   0  0  0  0  0  1  0  0  0  0  0  0
  198.1560  175.6100  135.7120 O   0  0  0  0  0  0  0  0  0  0  0  0
  1 10  1  0  0  0  0
  2 23  1  1  0  0  0
  2 26  1  0  0  0  0
  2 12  1  0  0  0  0
  3  4  1  0  0  0  0
  5  6  1  0  0  0  0
  6 27  1  0  0  0  0
  7 19  1  1  0  0  0
  7 23  1  0  0  0  0
  7 17  1  0  0  0  0
  8 12  1  0  0  0  0
  9 27  1  0  0  0  0
  9 25  1  0  0  0  0
 10 28  1  6  0  0  0
 10 17  1  0  0  0  0
 11  3  1  0  0  0  0
 12 13  1  0  0  0  0
 13 21  1  0  0  0  0
 13 11  2  0  0  0  0
 14 21  1  0  0  0  0
 15  9  2  0  0  0  0
 16  1  1  0  0  0  0
 17  8  1  6  0  0  0
 18 15  1  0  0  0  0
 18  6  2  0  0  0  0
 19 16  1  0  0  0  0
 20  4  1  0  0  0  0
 21 20  2  0  0  0  0
 22 14  1  0  0  0  0
 24  5  2  0  0  0  0
 26  5  1  6  0  0  0
 26 14  1  0  0  0  0
 27 22  2  0  0  0  0
 29 30  1  0  0  0  0
 29 28  1  0  0  0  0
 30 31  1  0  0  0  0
 32 30  2  0  0  0  0
M  END
>  <MODEL>
2

>  <REMARK>
 VINA RESULT:      -6.4      6.471     10.420
  Name = 
  3 active torsions:
  status: ('A' for Active; 'I' for Inactive)
    1  A    between atoms: C_10  and  O_20
    2  A    between atoms: O_20  and  C_29
    3  A    between atoms: C_29  and  C_30
                            x       y       z     vdW  Elec       q    Type
                         _______ _______ _______ _____ _____    ______ ____

>  <TORSDO>
F 3

$$$$
=
 OpenBabel11122410423D

 32 37  0  0  1  0  0  0  0  0999 V2000
  190.9200  173.3560  136.2070 C   0  0  0  0  0  2  0  0  0  0  0  0
  188.8640  177.7070  138.1780 C   0  0  1  0  0  3  0  0  0  0  0  0
  191.4090  176.9540  142.3900 C   0  0  0  0  0  2  0  0  0  0  0  0
  190.5700  178.0400  143.0650 C   0  0  0  0  0  2  0  0  0  0  0  0
  186.5810  178.8270  138.3280 C   0  0  0  0  0  0  0  0  0  0  0  0
  185.3790  178.7690  139.1580 C   0  0  0  0  0  0  0  0  0  0  0  0
  189.2020  175.4870  137.0820 C   0  0  1  0  0  3  0  0  0  0  0  0
  191.1570  176.8140  138.0310 C   0  0  0  0  0  2  0  0  0  0  0  0
  184.1030  178.5540  140.9740 C   0  0  0  0  0  0  0  0  0  0  0  0
  191.5770  174.6100  136.8090 C   0  0  2  0  0  3  0  0  0  0  0  0
  191.3730  177.0980  140.8920 C   0  0  0  0  0  3  0  0  0  0  0  0
  190.1670  177.5320  138.8300 N   0  0  0  0  0  0  0  0  0  0  0  0
  190.2720  177.5460  140.2690 C   0  0  0  0  0  0  0  0  0  0  0  0
  187.8760  178.2660  140.3990 N   0  0  0  0  0  0  0  0  0  0  0  0
  183.2420  178.8000  140.0410 N   0  0  0  0  0  0  0  0  0  0  0  0
  189.6360  172.9600  136.9320 C   0  0  0  0  0  2  0  0  0  0  0  0
  190.6140  175.4190  137.7010 C   0  0  2  0  0  3  0  0  0  0  0  0
  183.9510  178.9700  138.7680 C   0  0  0  0  0  3  0  0  0  0  0  0
  188.6010  174.0900  136.8670 C   0  0  0  0  0  2  0  0  0  0  0  0
  189.2310  178.1810  142.3930 C   0  0  0  0  0  3  0  0  0  0  0  0
  189.1110  178.0000  141.0720 C   0  0  0  0  0  0  0  0  0  0  0  0
  186.6660  178.2840  141.1220 N   0  0  0  0  0  0  0  0  0  0  0  0
  188.2490  176.3270  137.9330 C   0  0  0  0  0  2  0  0  0  0  0  0
  186.4880  179.0790  137.0970 O   0  0  0  0  0  0  0  0  0  0  0  0
  183.7290  178.3260  142.3940 C   0  0  0  0  0  1  0  0  0  0  0  0
  187.9400  178.6480  138.9720 C   0  0  1  0  0  3  0  0  0  0  0  0
  185.4420  178.5330  140.4400 C   0  0  0  0  0  0  0  0  0  0  0  0
  192.0780  175.4010  135.7690 O   0  0  0  0  0  0  0  0  0  0  0  0
  193.3870  174.9550  135.5770 C   0  0  0  0  0  2  0  0  0  0  0  0
  194.3200  175.7920  136.3760 C   0  0  0  0  0  0  0  0  0  0  0  0
  194.8230  175.3160  137.5790 O   0  0  0  0  0  1  0  0  0  0  0  0
  194.6250  176.9470  135.9810 O   0  0  0  0  0  0  0  0  0  0  0  0
  1 10  1  0  0  0  0
  1 16  1  0  0  0  0
  2 23  1  1  0  0  0
  2 12  1  0  0  0  0
  2 26  1  0  0  0  0
  3  4  1  0  0  0  0
  5  6  1  0  0  0  0
  6 27  1  0  0  0  0
  7 19  1  1  0  0  0
  7 17  1  0  0  0  0
  7 23  1  0  0  0  0
  8 12  1  0  0  0  0
  9 25  1  0  0  0  0
 10 28  1  6  0  0  0
 10 17  1  0  0  0  0
 11  3  1  0  0  0  0
 12 13  1  0  0  0  0
 13 11  2  0  0  0  0
 13 21  1  0  0  0  0
 14 21  1  0  0  0  0
 14 22  1  0  0  0  0
 15  9  2  0  0  0  0
 17  8  1  6  0  0  0
 18  6  2  0  0  0  0
 18 15  1  0  0  0  0
 19 16  1  0  0  0  0
 20  4  1  0  0  0  0
 21 20  2  0  0  0  0
 24  5  2  0  0  0  0
 26  5  1  6  0  0  0
 26 14  1  0  0  0  0
 27  9  1  0  0  0  0
 27 22  2  0  0  0  0
 29 28  1  0  0  0  0
 29 30  1  0  0  0  0
 30 31  1  0  0  0  0
 32 30  2  0  0  0  0
M  END
>  <MODEL>
3

>  <REMARK>
 VINA RESULT:      -6.3      4.905      7.990
  Name = 
  3 active torsions:
  status: ('A' for Active; 'I' for Inactive)
    1  A    between atoms: C_10  and  O_20
    2  A    between atoms: O_20  and  C_29
    3  A    between atoms: C_29  and  C_30
                            x       y       z     vdW  Elec       q    Type
                         _______ _______ _______ _____ _____    ______ ____

>  <TORSDO>
F 3

$$$$
=
 OpenBabel11122410423D

 32 37  0  0  1  0  0  0  0  0999 V2000
  187.8970  177.3310  143.1770 C   0  0  0  0  0  2  0  0  0  0  0  0
  190.6420  176.9800  138.7740 C   0  0  1  0  0  3  0  0  0  0  0  0
  186.8450  174.5640  136.6470 C   0  0  0  0  0  2  0  0  0  0  0  0
  187.7630  174.1910  135.4820 C   0  0  0  0  0  2  0  0  0  0  0  0
  193.0110  176.3780  138.0590 C   0  0  0  0  0  0  0  0  0  0  0  0
  193.8050  175.1840  137.7730 C   0  0  0  0  0  0  0  0  0  0  0  0
  189.8990  176.9100  141.1590 C   0  0  1  0  0  3  0  0  0  0  0  0
  188.3420  177.6920  139.3030 C   0  0  0  0  0  2  0  0  0  0  0  0
  194.3090  173.1340  137.0550 C   0  0  0  0  0  0  0  0  0  0  0  0
  187.5710  177.7620  141.7370 C   0  0  2  0  0  3  0  0  0  0  0  0
  187.3810  175.7520  137.3990 C   0  0  0  0  0  3  0  0  0  0  0  0
  189.2270  176.9840  138.3820 N   0  0  0  0  0  0  0  0  0  0  0  0
  188.7030  175.9460  137.5290 C   0  0  0  0  0  0  0  0  0  0  0  0
  191.0390  175.1190  137.1620 N   0  0  0  0  0  0  0  0  0  0  0  0
  195.4420  173.5740  137.4980 N   0  0  0  0  0  0  0  0  0  0  0  0
  188.6780  176.0190  143.2350 C   0  0  0  0  0  2  0  0  0  0  0  0
  188.4360  177.0380  140.6860 C   0  0  2  0  0  3  0  0  0  0  0  0
  195.2590  174.9370  138.0090 C   0  0  0  0  0  2  0  0  0  0  0  0
  190.0090  176.1420  142.4850 C   0  0  0  0  0  2  0  0  0  0  0  0
  189.2020  174.1700  135.9170 C   0  0  0  0  0  3  0  0  0  0  0  0
  189.6470  175.0340  136.8400 C   0  0  0  0  0  0  0  0  0  0  0  0
  191.8990  174.0380  136.8770 N   0  0  0  0  0  2  0  0  0  0  0  0
  190.7790  176.2370  140.1050 C   0  0  0  0  0  2  0  0  0  0  0  0
  193.5550  177.3900  138.5770 O   0  0  0  0  0  0  0  0  0  0  0  0
  194.1310  171.7810  136.4660 C   0  0  0  0  0  1  0  0  0  0  0  0
  191.5490  176.4110  137.6680 C   0  0  1  0  0  3  0  0  0  0  0  0
  193.2780  174.1270  137.2180 C   0  0  0  0  0  0  0  0  0  0  0  0
  187.7180  179.1500  141.6370 O   0  0  0  0  0  0  0  0  0  0  0  0
  186.5070  179.6740  142.0940 C   0  0  0  0  0  2  0  0  0  0  0  0
  185.3880  179.1160  141.2890 C   0  0  0  0  0  0  0  0  0  0  0  0
  184.4590  178.2730  141.8830 O   0  0  0  0  0  1  0  0  0  0  0  0
  185.3050  179.3780  140.0610 O   0  0  0  0  0  0  0  0  0  0  0  0
  1 16  1  0  0  0  0
  2 23  1  1  0  0  0
  3 11  1  0  0  0  0
  4 20  1  0  0  0  0
  4  3  1  0  0  0  0
  5 24  2  0  0  0  0
  6 18  1  0  0  0  0
  6  5  1  0  0  0  0
  7 23  1  6  0  0  0
  7 19  1  0  0  0  0
  9 27  1  0  0  0  0
  9 15  2  0  0  0  0
 10 28  1  1  0  0  0
 10  1  1  0  0  0  0
 11 13  2  0  0  0  0
 12  2  1  0  0  0  0
 12  8  1  0  0  0  0
 13 12  1  0  0  0  0
 14 26  1  0  0  0  0
 15 18  1  0  0  0  0
 17  8  1  6  0  0  0
 17  7  1  0  0  0  0
 17 10  1  0  0  0  0
 19 16  1  0  0  0  0
 20 21  2  0  0  0  0
 21 14  1  0  0  0  0
 21 13  1  0  0  0  0
 22 14  1  0  0  0  0
 22 27  1  0  0  0  0
 25  9  1  0  0  0  0
 26  5  1  1  0  0  0
 26  2  1  0  0  0  0
 27  6  2  0  0  0  0
 28 29  1  0  0  0  0
 30 31  1  0  0  0  0
 30 29  1  0  0  0  0
 32 30  2  0  0  0  0
M  END
>  <MODEL>
4

>  <REMARK>
 VINA RESULT:      -6.0      5.075      8.306
  Name = 
  3 active torsions:
  status: ('A' for Active; 'I' for Inactive)
    1  A    between atoms: C_10  and  O_20
    2  A    between atoms: O_20  and  C_29
    3  A    between atoms: C_29  and  C_30
                            x       y       z     vdW  Elec       q    Type
                         _______ _______ _______ _____ _____    ______ ____

>  <TORSDO>
F 3

$$$$
=
 OpenBabel11122410423D

 32 37  0  0  1  0  0  0  0  0999 V2000
  183.0970  174.2380  135.5980 C   0  0  0  0  0  2  0  0  0  0  0  0
  184.2330  178.2190  138.7440 C   0  0  1  0  0  3  0  0  0  0  0  0
  189.0820  177.3380  138.0430 C   0  0  0  0  0  2  0  0  0  0  0  0
  189.3990  178.2890  139.1990 C   0  0  0  0  0  2  0  0  0  0  0  0
  183.4820  179.1260  141.0040 C   0  0  0  0  0  0  0  0  0  0  0  0
  183.7450  178.8970  142.4240 C   0  0  0  0  0  0  0  0  0  0  0  0
  183.2800  176.1350  137.7490 C   0  0  1  0  0  3  0  0  0  0  0  0
  184.9990  177.5400  136.5020 C   0  0  0  0  0  2  0  0  0  0  0  0
  184.8700  178.4240  144.2900 C   0  0  0  0  0  0  0  0  0  0  0  0
  183.9660  175.4880  135.3840 C   0  0  2  0  0  3  0  0  0  0  0  0
  187.7070  177.6020  137.4890 C   0  0  0  0  0  3  0  0  0  0  0  0
  185.3520  178.1020  137.8030 N   0  0  0  0  0  0  0  0  0  0  0  0
  186.7080  178.0050  138.2880 C   0  0  0  0  0  0  0  0  0  0  0  0
  185.8760  178.5060  140.5980 N   0  0  0  0  0  0  0  0  0  0  0  0
  183.6780  178.6720  144.7240 N   0  0  0  0  0  0  0  0  0  0  0  0
  183.2170  173.6750  137.0130 C   0  0  0  0  0  2  0  0  0  0  0  0
  184.4190  176.1360  136.7080 C   0  0  2  0  0  3  0  0  0  0  0  0
  182.8140  179.0070  143.5870 C   0  0  0  0  0  2  0  0  0  0  0  0
  182.7810  174.7140  138.0530 C   0  0  0  0  0  2  0  0  0  0  0  0
  188.2450  178.3710  140.1600 C   0  0  0  0  0  3  0  0  0  0  0  0
  186.9840  178.2910  139.7170 C   0  0  0  0  0  0  0  0  0  0  0  0
  186.0420  178.3620  141.9910 N   0  0  0  0  0  2  0  0  0  0  0  0
  183.7010  176.8180  139.0510 C   0  0  0  0  0  2  0  0  0  0  0  0
  182.3320  179.4690  140.6210 O   0  0  0  0  0  0  0  0  0  0  0  0
  186.0020  178.0480  145.1760 C   0  0  0  0  0  1  0  0  0  0  0  0
  184.6180  179.0090  140.0080 C   0  0  1  0  0  3  0  0  0  0  0  0
  184.9300  178.5610  142.8560 C   0  0  0  0  0  0  0  0  0  0  0  0
  183.2560  176.4020  134.5980 O   0  0  0  0  0  0  0  0  0  0  0  0
  181.9380  175.9440  134.6160 C   0  0  0  0  0  2  0  0  0  0  0  0
  181.0150  177.0900  134.8270 C   0  0  0  0  0  0  0  0  0  0  0  0
  181.5170  178.3210  135.2270 O   0  0  0  0  0  1  0  0  0  0  0  0
  179.7750  176.9360  134.6810 O   0  0  0  0  0  0  0  0  0  0  0  0
  1 16  1  0  0  0  0
  2 23  1  1  0  0  0
  2 26  1  0  0  0  0
  3  4  1  0  0  0  0
  4 20  1  0  0  0  0
  5  6  1  0  0  0  0
  6 27  2  0  0  0  0
  6 18  1  0  0  0  0
  7 19  1  1  0  0  0
  7 23  1  0  0  0  0
  8 12  1  0  0  0  0
  9 15  2  0  0  0  0
  9 25  1  0  0  0  0
 10 28  1  1  0  0  0
 10  1  1  0  0  0  0
 10 17  1  0  0  0  0
 11  3  1  0  0  0  0
 11 13  2  0  0  0  0
 12 13  1  0  0  0  0
 12  2  1  0  0  0  0
 13 21  1  0  0  0  0
 14 22  1  0  0  0  0
 16 19  1  0  0  0  0
 17  8  1  6  0  0  0
 17  7  1  0  0  0  0
 18 15  1  0  0  0  0
 21 20  2  0  0  0  0
 21 14  1  0  0  0  0
 22 27  1  0  0  0  0
 24  5  2  0  0  0  0
 26 14  1  0  0  0  0
 26  5  1  1  0  0  0
 27  9  1  0  0  0  0
 28 29  1  0  0  0  0
 29 30  1  0  0  0  0
 30 31  1  0  0  0  0
 32 30  2  0  0  0  0
M  END
>  <MODEL>
5

>  <REMARK>
 VINA RESULT:      -5.8      2.070      2.786
  Name = 
  3 active torsions:
  status: ('A' for Active; 'I' for Inactive)
    1  A    between atoms: C_10  and  O_20
    2  A    between atoms: O_20  and  C_29
    3  A    between atoms: C_29  and  C_30
                            x       y       z     vdW  Elec       q    Type
                         _______ _______ _______ _____ _____    ______ ____

>  <TORSDO>
F 3

$$$$
=
 OpenBabel11122410423D

 32 37  0  0  1  0  0  0  0  0999 V2000
  182.0320  179.0240  142.1280 C   0  0  0  0  0  2  0  0  0  0  0  0
  184.7450  177.9500  137.8240 C   0  0  1  0  0  3  0  0  0  0  0  0
  182.4470  173.5450  137.5220 C   0  0  0  0  0  2  0  0  0  0  0  0
  183.4600  173.1140  136.4600 C   0  0  0  0  0  2  0  0  0  0  0  0
  187.1530  178.1170  137.0080 C   0  0  0  0  0  0  0  0  0  0  0  0
  188.3970  177.3530  137.0870 C   0  0  0  0  0  0  0  0  0  0  0  0
  184.0580  178.6240  140.1300 C   0  0  1  0  0  3  0  0  0  0  0  0
  182.3560  177.8200  138.4160 C   0  0  0  0  0  2  0  0  0  0  0  0
  189.7680  175.5960  137.1660 C   0  0  0  0  0  0  0  0  0  0  0  0
  181.5800  178.6160  140.7160 C   0  0  2  0  0  3  0  0  0  0  0  0
  182.3880  175.0450  137.6350 C   0  0  0  0  0  3  0  0  0  0  0  0
  183.4820  177.2110  137.7130 N   0  0  0  0  0  0  0  0  0  0  0  0
  183.4870  175.7930  137.4470 C   0  0  0  0  0  0  0  0  0  0  0  0
  185.9550  175.9150  137.0410 N   0  0  0  0  0  0  0  0  0  0  0  0
  190.5810  176.6010  137.1960 N   0  0  0  0  0  0  0  0  0  0  0  0
  183.3090  178.3090  142.5660 C   0  0  0  0  0  2  0  0  0  0  0  0
  182.6980  177.9300  139.9050 C   0  0  2  0  0  3  0  0  0  0  0  0
  189.8060  177.8460  137.1470 C   0  0  0  0  0  2  0  0  0  0  0  0
  184.4660  178.6230  141.6110 C   0  0  0  0  0  2  0  0  0  0  0  0
  184.7520  173.8690  136.6120 C   0  0  0  0  0  3  0  0  0  0  0  0
  184.7510  175.1430  137.0250 C   0  0  0  0  0  0  0  0  0  0  0  0
  187.2100  175.2700  137.0640 N   0  0  0  0  0  2  0  0  0  0  0  0
  185.1670  177.9830  139.2950 C   0  0  0  0  0  2  0  0  0  0  0  0
  187.1850  179.3760  136.9800 O   0  0  0  0  0  0  0  0  0  0  0  0
  190.2160  174.1790  137.2030 C   0  0  0  0  0  1  0  0  0  0  0  0
  185.8340  177.3810  136.8960 C   0  0  1  0  0  3  0  0  0  0  0  0
  188.4010  176.0480  137.0970 C   0  0  0  0  0  0  0  0  0  0  0  0
  181.1040  179.7500  140.0490 O   0  0  0  0  0  0  0  0  0  0  0  0
  179.7290  179.7560  140.2880 C   0  0  0  0  0  2  0  0  0  0  0  0
  179.3260  181.0740  140.8470 C   0  0  0  0  0  0  0  0  0  0  0  0
  179.0020  182.1200  139.9940 O   0  0  0  0  0  0  0  0  0  0  0  0
  179.3170  181.2530  142.0920 O   0  0  0  0  0  1  0  0  0  0  0  0
  1 16  1  0  0  0  0
  2 23  1  1  0  0  0
  3 11  1  0  0  0  0
  4 20  1  0  0  0  0
  4  3  1  0  0  0  0
  5  6  1  0  0  0  0
  6 27  2  0  0  0  0
  6 18  1  0  0  0  0
  7 23  1  6  0  0  0
  7 19  1  0  0  0  0
  9 15  2  0  0  0  0
  9 25  1  0  0  0  0
 10 28  1  6  0  0  0
 10  1  1  0  0  0  0
 12  2  1  0  0  0  0
 12  8  1  0  0  0  0
 13 11  2  0  0  0  0
 13 12  1  0  0  0  0
 14 22  1  0  0  0  0
 17  8  1  6  0  0  0
 17  7  1  0  0  0  0
 17 10  1  0  0  0  0
 18 15  1  0  0  0  0
 19 16  1  0  0  0  0
 20 21  2  0  0  0  0
 21 14  1  0  0  0  0
 21 13  1  0  0  0  0
 22 27  1  0  0  0  0
 24  5  2  0  0  0  0
 26  5  1  1  0  0  0
 26 14  1  0  0  0  0
 26  2  1  0  0  0  0
 27  9  1  0  0  0  0
 28 29  1  0  0  0  0
 29 30  1  0  0  0  0
 30 32  1  0  0  0  0
 31 30  2  0  0  0  0
M  END
>  <MODEL>
6

>  <REMARK>
 VINA RESULT:      -5.7      3.355      5.953
  Name = 
  3 active torsions:
  status: ('A' for Active; 'I' for Inactive)
    1  A    between atoms: C_10  and  O_20
    2  A    between atoms: O_20  and  C_29
    3  A    between atoms: C_29  and  C_30
                            x       y       z     vdW  Elec       q    Type
                         _______ _______ _______ _____ _____    ______ ____

>  <TORSDO>
F 3

$$$$
=
 OpenBabel11122410423D

 32 37  0  0  1  0  0  0  0  0999 V2000
  197.3050  174.9670  135.4660 C   0  0  0  0  0  2  0  0  0  0  0  0
  192.5900  175.0310  137.6590 C   0  0  1  0  0  3  0  0  0  0  0  0
  191.1610  171.3750  134.5980 C   0  0  0  0  0  2  0  0  0  0  0  0
  189.7120  171.6150  135.0230 C   0  0  0  0  0  2  0  0  0  0  0  0
  190.8560  176.7530  138.3790 C   0  0  0  0  0  0  0  0  0  0  0  0
  189.7740  177.5390  137.7880 C   0  0  0  0  0  0  0  0  0  0  0  0
  194.7470  175.6700  136.5700 C   0  0  1  0  0  3  0  0  0  0  0  0
  194.2000  173.2450  137.1180 C   0  0  0  0  0  2  0  0  0  0  0  0
  188.0530  178.0650  136.4720 C   0  0  0  0  0  0  0  0  0  0  0  0
  196.4720  173.8530  136.1210 C   0  0  2  0  0  3  0  0  0  0  0  0
  192.1210  171.9250  135.6180 C   0  0  0  0  0  3  0  0  0  0  0  0
  192.8020  173.6640  137.1700 N   0  0  0  0  0  0  0  0  0  0  0  0
  191.8260  173.0350  136.3130 C   0  0  0  0  0  0  0  0  0  0  0  0
  190.2800  174.9620  136.7240 N   0  0  0  0  0  0  0  0  0  0  0  0
  188.1940  179.1230  137.2020 N   0  0  0  0  0  0  0  0  0  0  0  0
  196.4490  175.9480  134.6670 C   0  0  0  0  0  2  0  0  0  0  0  0
  194.9690  174.1910  136.1900 C   0  0  2  0  0  3  0  0  0  0  0  0
  189.3090  178.9160  138.1330 C   0  0  0  0  0  2  0  0  0  0  0  0
  195.4110  176.6270  135.5690 C   0  0  0  0  0  2  0  0  0  0  0  0
  189.5180  173.0300  135.4950 C   0  0  0  0  0  3  0  0  0  0  0  0
  190.4970  173.6700  136.1470 C   0  0  0  0  0  0  0  0  0  0  0  0
  189.2260  175.7770  136.2580 N   0  0  0  0  0  2  0  0  0  0  0  0
  193.2600  176.0080  136.6890 C   0  0  0  0  0  2  0  0  0  0  0  0
  191.5430  177.2310  139.3210 O   0  0  0  0  0  0  0  0  0  0  0  0
  187.0140  177.9320  135.4170 C   0  0  0  0  0  1  0  0  0  0  0  0
  191.1000  175.3390  137.8930 C   0  0  1  0  0  3  0  0  0  0  0  0
  189.0300  177.0660  136.8260 C   0  0  0  0  0  0  0  0  0  0  0  0
  196.9860  173.5950  137.3970 O   0  0  0  0  0  0  0  0  0  0  0  0
  197.7650  174.7120  137.7030 C   0  0  0  0  0  2  0  0  0  0  0  0
  197.8500  174.8710  139.1790 C   0  0  0  0  0  0  0  0  0  0  0  0
  196.6910  174.8750  139.9440 O   0  0  0  0  0  1  0  0  0  0  0  0
  198.9680  175.0400  139.7310 O   0  0  0  0  0  0  0  0  0  0  0  0
  1 10  1  0  0  0  0
  2 23  1  6  0  0  0
  2 26  1  0  0  0  0
  3  4  1  0  0  0  0
  3 11  1  0  0  0  0
  4 20  1  0  0  0  0
  5 24  2  0  0  0  0
  6 18  1  0  0  0  0
  6  5  1  0  0  0  0
  7 19  1  6  0  0  0
  7 23  1  0  0  0  0
  8 12  1  0  0  0  0
  9 27  1  0  0  0  0
  9 15  2  0  0  0  0
 10 17  1  0  0  0  0
 10 28  1  1  0  0  0
 11 13  2  0  0  0  0
 12  2  1  0  0  0  0
 13 12  1  0  0  0  0
 14 26  1  0  0  0  0
 15 18  1  0  0  0  0
 16  1  1  0  0  0  0
 16 19  1  0  0  0  0
 17  7  1  0  0  0  0
 17  8  1  1  0  0  0
 20 21  2  0  0  0  0
 21 13  1  0  0  0  0
 21 14  1  0  0  0  0
 22 14  1  0  0  0  0
 22 27  1  0  0  0  0
 25  9  1  0  0  0  0
 26  5  1  6  0  0  0
 27  6  2  0  0  0  0
 28 29  1  0  0  0  0
 29 30  1  0  0  0  0
 30 32  2  0  0  0  0
 30 31  1  0  0  0  0
M  END
>  <MODEL>
7

>  <REMARK>
 VINA RESULT:      -5.6      7.876     11.885
  Name = 
  3 active torsions:
  status: ('A' for Active; 'I' for Inactive)
    1  A    between atoms: C_10  and  O_20
    2  A    between atoms: O_20  and  C_29
    3  A    between atoms: C_29  and  C_30
                            x       y       z     vdW  Elec       q    Type
                         _______ _______ _______ _____ _____    ______ ____

>  <TORSDO>
F 3

$$$$
=
 OpenBabel11122410423D

 32 37  0  0  1  0  0  0  0  0999 V2000
  187.1580  175.1300  136.0810 C   0  0  0  0  0  2  0  0  0  0  0  0
  184.7930  178.8200  138.8800 C   0  0  1  0  0  3  0  0  0  0  0  0
  187.4660  177.4620  142.8540 C   0  0  0  0  0  2  0  0  0  0  0  0
  186.5540  178.3200  143.7330 C   0  0  0  0  0  2  0  0  0  0  0  0
  182.4300  179.6960  139.2530 C   0  0  0  0  0  0  0  0  0  0  0  0
  181.2510  179.3750  140.0580 C   0  0  0  0  0  0  0  0  0  0  0  0
  185.2890  176.8960  137.3640 C   0  0  1  0  0  3  0  0  0  0  0  0
  187.1470  178.1670  138.5540 C   0  0  0  0  0  2  0  0  0  0  0  0
  180.0310  178.7000  141.7970 C   0  0  0  0  0  0  0  0  0  0  0  0
  187.7210  176.2900  136.9190 C   0  0  2  0  0  3  0  0  0  0  0  0
  187.3920  177.8960  141.4140 C   0  0  0  0  0  3  0  0  0  0  0  0
  186.1170  178.6280  139.4820 N   0  0  0  0  0  0  0  0  0  0  0  0
  186.2470  178.3650  140.8950 C   0  0  0  0  0  0  0  0  0  0  0  0
  183.8040  178.8450  141.1690 N   0  0  0  0  0  0  0  0  0  0  0  0
  179.1350  179.0530  140.9330 N   0  0  0  0  0  0  0  0  0  0  0  0
  185.9230  174.4940  136.7150 C   0  0  0  0  0  2  0  0  0  0  0  0
  186.7130  176.8240  137.9550 C   0  0  2  0  0  3  0  0  0  0  0  0
  179.8050  179.5300  139.7170 C   0  0  0  0  0  3  0  0  0  0  0  0
  184.7990  175.5240  136.8780 C   0  0  0  0  0  2  0  0  0  0  0  0
  185.1970  178.4800  143.1050 C   0  0  0  0  0  3  0  0  0  0  0  0
  185.0680  178.5540  141.7730 C   0  0  0  0  0  0  0  0  0  0  0  0
  182.6090  178.6200  141.8840 N   0  0  0  0  0  0  0  0  0  0  0  0
  184.2870  177.4700  138.3670 C   0  0  0  0  0  2  0  0  0  0  0  0
  182.2940  180.1770  138.0970 O   0  0  0  0  0  0  0  0  0  0  0  0
  179.7020  178.1660  143.1440 C   0  0  0  0  0  1  0  0  0  0  0  0
  183.8100  179.5050  139.8470 C   0  0  1  0  0  3  0  0  0  0  0  0
  181.3570  178.8960  141.2670 C   0  0  0  0  0  0  0  0  0  0  0  0
  188.1380  177.3100  136.0560 O   0  0  0  0  0  0  0  0  0  0  0  0
  189.2230  176.7720  135.3610 C   0  0  0  0  0  2  0  0  0  0  0  0
  190.4080  176.7140  136.2570 C   0  0  0  0  0  0  0  0  0  0  0  0
  190.4560  177.5050  137.3970 O   0  0  0  0  0  1  0  0  0  0  0  0
  191.3840  175.9760  135.9630 O   0  0  0  0  0  0  0  0  0  0  0  0
  1 16  1  0  0  0  0
  1 10  1  0  0  0  0
  2 23  1  1  0  0  0
  2 12  1  0  0  0  0
  2 26  1  0  0  0  0
  3  4  1  0  0  0  0
  5  6  1  0  0  0  0
  6 27  1  0  0  0  0
  7 19  1  1  0  0  0
  7 17  1  0  0  0  0
  7 23  1  0  0  0  0
  8 12  1  0  0  0  0
  9 25  1  0  0  0  0
 10 28  1  6  0  0  0
 10 17  1  0  0  0  0
 11  3  1  0  0  0  0
 12 13  1  0  0  0  0
 13 11  2  0  0  0  0
 13 21  1  0  0  0  0
 14 21  1  0  0  0  0
 14 22  1  0  0  0  0
 15  9  2  0  0  0  0
 16 19  1  0  0  0  0
 17  8  1  6  0  0  0
 18  6  2  0  0  0  0
 18 15  1  0  0  0  0
 20  4  1  0  0  0  0
 21 20  2  0  0  0  0
 24  5  2  0  0  0  0
 26  5  1  6  0  0  0
 26 14  1  0  0  0  0
 27  9  1  0  0  0  0
 27 22  2  0  0  0  0
 29 28  1  0  0  0  0
 29 30  1  0  0  0  0
 30 31  1  0  0  0  0
 32 30  2  0  0  0  0
M  END
>  <MODEL>
8

>  <REMARK>
 VINA RESULT:      -5.6      3.577      6.263
  Name = 
  3 active torsions:
  status: ('A' for Active; 'I' for Inactive)
    1  A    between atoms: C_10  and  O_20
    2  A    between atoms: O_20  and  C_29
    3  A    between atoms: C_29  and  C_30
                            x       y       z     vdW  Elec       q    Type
                         _______ _______ _______ _____ _____    ______ ____

>  <TORSDO>
F 3

$$$$
=
 OpenBabel11122410423D

 32 37  0  0  1  0  0  0  0  0999 V2000
  188.7280  178.0100  140.2070 C   0  0  0  0  0  2  0  0  0  0  0  0
  191.8810  176.2500  136.4650 C   0  0  1  0  0  3  0  0  0  0  0  0
  188.7890  172.4230  135.7130 C   0  0  0  0  0  2  0  0  0  0  0  0
  189.8610  171.7540  134.8520 C   0  0  0  0  0  2  0  0  0  0  0  0
  194.3760  175.8790  136.1060 C   0  0  0  0  0  0  0  0  0  0  0  0
  195.3930  174.8720  136.4060 C   0  0  0  0  0  0  0  0  0  0  0  0
  190.9490  177.1280  138.6110 C   0  0  1  0  0  3  0  0  0  0  0  0
  189.4530  176.6470  136.6080 C   0  0  0  0  0  2  0  0  0  0  0  0
  196.3200  172.8690  136.7220 C   0  0  0  0  0  0  0  0  0  0  0  0
  188.4620  177.6620  138.7320 C   0  0  2  0  0  3  0  0  0  0  0  0
  189.0320  173.9040  135.8250 C   0  0  0  0  0  3  0  0  0  0  0  0
  190.5310  175.7920  136.1190 N   0  0  0  0  0  0  0  0  0  0  0  0
  190.2810  174.3970  135.8470 C   0  0  0  0  0  0  0  0  0  0  0  0
  192.7500  173.9820  135.9020 N   0  0  0  0  0  0  0  0  0  0  0  0
  197.3100  173.6800  136.9070 N   0  0  0  0  0  0  0  0  0  0  0  0
  189.7220  177.0550  140.8660 C   0  0  0  0  0  2  0  0  0  0  0  0
  189.5350  176.7290  138.1360 C   0  0  2  0  0  3  0  0  0  0  0  0
  196.8400  175.0580  136.7270 C   0  0  0  0  0  2  0  0  0  0  0  0
  191.0720  177.0880  140.1420 C   0  0  0  0  0  2  0  0  0  0  0  0
  191.2350  172.2230  135.2440 C   0  0  0  0  0  3  0  0  0  0  0  0
  191.4320  173.4820  135.6590 C   0  0  0  0  0  0  0  0  0  0  0  0
  193.8130  173.0870  136.1500 N   0  0  0  0  0  2  0  0  0  0  0  0
  192.0280  176.2400  137.9880 C   0  0  0  0  0  2  0  0  0  0  0  0
  194.6800  177.1010  136.0930 O   0  0  0  0  0  0  0  0  0  0  0  0
  196.4400  171.3910  136.8290 C   0  0  0  0  0  1  0  0  0  0  0  0
  192.9730  175.4350  135.7480 C   0  0  1  0  0  3  0  0  0  0  0  0
  195.1160  173.5970  136.4060 C   0  0  0  0  0  0  0  0  0  0  0  0
  188.3670  178.8490  137.9980 O   0  0  0  0  0  0  0  0  0  0  0  0
  187.3310  178.6280  137.0900 C   0  0  0  0  0  2  0  0  0  0  0  0
  186.0970  178.2460  137.8260 C   0  0  0  0  0  0  0  0  0  0  0  0
  185.4290  177.0740  137.4990 O   0  0  0  0  0  0  0  0  0  0  0  0
  185.6370  179.0030  138.7190 O   0  0  0  0  0  1  0  0  0  0  0  0
  1 16  1  0  0  0  0
  2 23  1  1  0  0  0
  3 11  1  0  0  0  0
  4 20  1  0  0  0  0
  4  3  1  0  0  0  0
  5  6  1  0  0  0  0
  6 27  2  0  0  0  0
  6 18  1  0  0  0  0
  7 23  1  6  0  0  0
  7 19  1  0  0  0  0
  9 25  1  0  0  0  0
  9 15  2  0  0  0  0
 10 28  1  6  0  0  0
 10  1  1  0  0  0  0
 11 13  2  0  0  0  0
 12  2  1  0  0  0  0
 12  8  1  0  0  0  0
 13 12  1  0  0  0  0
 14 22  1  0  0  0  0
 17  8  1  6  0  0  0
 17  7  1  0  0  0  0
 17 10  1  0  0  0  0
 18 15  1  0  0  0  0
 19 16  1  0  0  0  0
 20 21  2  0  0  0  0
 21 13  1  0  0  0  0
 21 14  1  0  0  0  0
 22 27  1  0  0  0  0
 24  5  2  0  0  0  0
 26 14  1  0  0  0  0
 26  5  1  1  0  0  0
 26  2  1  0  0  0  0
 27  9  1  0  0  0  0
 29 30  1  0  0  0  0
 29 28  1  0  0  0  0
 30 32  1  0  0  0  0
 31 30  2  0  0  0  0
M  END
>  <MODEL>
9

>  <REMARK>
 VINA RESULT:      -5.5      6.571      9.694
  Name = 
  3 active torsions:
  status: ('A' for Active; 'I' for Inactive)
    1  A    between atoms: C_10  and  O_20
    2  A    between atoms: O_20  and  C_29
    3  A    between atoms: C_29  and  C_30
                            x       y       z     vdW  Elec       q    Type
                         _______ _______ _______ _____ _____    ______ ____

>  <TORSDO>
F 3

$$$$
