=
 OpenBabel11122411463D

 37 42  0  0  1  0  0  0  0  0999 V2000
  190.2920  178.4730  143.7310 C   0  0  0  0  0  0  0  0  0  0  0  0
  186.5820  177.6170  144.1380 C   0  0  1  0  0  3  0  0  0  0  0  0
  184.4960  177.5330  141.5760 O   0  0  0  0  0  0  0  0  0  0  0  0
  188.8930  176.9310  145.0270 N   0  0  2  0  0  0  0  0  0  0  0  0
  186.3420  178.4380  142.8690 C   0  0  2  0  0  3  0  0  0  0  0  0
  187.9410  176.9320  143.8990 C   0  0  2  0  0  3  0  0  0  0  0  0
  184.8600  178.5630  142.4590 C   0  0  2  0  0  3  0  0  0  0  0  0
  188.1820  176.7320  146.2910 C   0  0  0  0  0  2  0  0  0  0  0  0
  188.5260  177.4920  142.5960 C   0  0  2  0  0  3  0  0  0  0  0  0
  191.1270  177.4510  143.3010 F   0  0  0  0  0  0  0  0  0  0  0  0
  185.1310  178.9020  145.7770 C   0  0  0  0  0  2  0  0  0  0  0  0
  187.2000  177.8670  146.6100 C   0  0  0  0  0  2  0  0  0  0  0  0
  189.2440  178.6940  142.8150 O   0  0  0  0  0  0  0  0  0  0  0  0
  185.1570  179.0690  139.9210 O   0  0  0  0  0  0  0  0  0  0  0  0
  184.1930  178.1270  140.3290 C   0  0  0  0  0  2  0  0  0  0  0  0
  186.5570  178.5200  145.3820 C   0  0  1  0  0  3  0  0  0  0  0  0
  187.2600  177.8130  141.8130 C   0  0  2  0  0  3  0  0  0  0  0  0
  189.7030  178.1490  145.0970 C   0  0  0  0  0  2  0  0  0  0  0  0
  183.8720  178.6920  143.6350 C   0  0  1  0  0  3  0  0  0  0  0  0
  191.0360  179.6310  143.8400 F   0  0  0  0  0  0  0  0  0  0  0  0
  186.2980  178.3430  139.5700 C   0  0  0  0  0  2  0  0  0  0  0  0
  187.4410  178.6540  140.5330 C   0  0  2  0  0  3  0  0  0  0  0  0
  184.3850  179.6640  144.6920 C   0  0  0  0  0  2  0  0  0  0  0  0
  181.4080  178.6020  144.1960 C   0  0  0  0  0  2  0  0  0  0  0  0
  182.4600  179.1090  143.2090 C   0  0  2  0  0  3  0  0  0  0  0  0
  182.1240  178.6850  141.7740 C   0  0  0  0  0  2  0  0  0  0  0  0
  180.4230  178.7290  140.1030 O   0  0  0  0  0  1  0  0  0  0  0  0
  179.6940  178.6230  142.3720 C   0  0  0  0  0  2  0  0  0  0  0  0
  180.7280  179.1670  141.3910 C   0  0  1  0  0  3  0  0  0  0  0  0
  180.0200  179.0870  143.7880 C   0  0  0  0  0  2  0  0  0  0  0  0
  188.7580  178.3250  139.8210 C   0  0  0  0  0  2  0  0  0  0  0  0
  188.5670  177.7390  138.4160 C   0  0  1  0  0  3  0  0  0  0  0  0
  188.9520  179.8650  137.4650 O   0  0  0  0  0  0  0  0  0  0  0  0
  189.0640  178.6560  137.3450 C   0  0  0  0  0  3  0  0  0  0  0  0
  189.2120  176.3650  138.2710 C   0  0  0  0  0  2  0  0  0  0  0  0
  190.6230  176.3640  138.8350 C   0  0  0  0  0  2  0  0  0  0  0  0
  191.2920  175.2030  138.4470 O   0  0  0  0  0  1  0  0  0  0  0  0
  1 20  1  0  0  0  0
  1 18  1  0  0  0  0
  2 16  1  0  0  0  0
  3  7  1  0  0  0  0
  4 18  1  0  0  0  0
  4  8  1  0  0  0  0
  5  2  1  0  0  0  0
  6  2  1  0  0  0  0
  6  4  1  0  0  0  0
  7  5  1  0  0  0  0
  7 19  1  0  0  0  0
  8 12  1  0  0  0  0
  9 13  1  0  0  0  0
  9  6  1  0  0  0  0
 10  1  1  0  0  0  0
 13  1  1  0  0  0  0
 14 15  1  0  0  0  0
 15  3  1  0  0  0  0
 16 11  1  0  0  0  0
 16 12  1  0  0  0  0
 17  9  1  0  0  0  0
 17  5  1  0  0  0  0
 19 23  1  0  0  0  0
 21 14  1  0  0  0  0
 21 22  1  0  0  0  0
 22 17  1  0  0  0  0
 23 11  1  0  0  0  0
 25 19  1  0  0  0  0
 25 24  1  0  0  0  0
 26 25  1  0  0  0  0
 27 29  1  0  0  0  0
 28 30  1  0  0  0  0
 29 26  1  0  0  0  0
 29 28  1  0  0  0  0
 30 24  1  0  0  0  0
 31 22  1  0  0  0  0
 32 31  1  0  0  0  0
 34 33  2  0  0  0  0
 34 32  1  0  0  0  0
 35 32  1  0  0  0  0
 35 36  1  0  0  0  0
 37 36  1  0  0  0  0
M  END
>  <MODEL>
1

>  <REMARK>
 VINA RESULT:     -10.0      0.000      0.000
  Name = 
  6 active torsions:
  status: ('A' for Active; 'I' for Inactive)
    1  A    between atoms: C_1  and  C_4
    2  A    between atoms: C_1  and  C_27
    3  A    between atoms: C_4  and  C_12
    4  A    between atoms: C_4  and  C_37
    5  A    between atoms: C_8  and  C_12
    6  A    between atoms: C_23  and  C_30
                            x       y       z     vdW  Elec       q    Type
                         _______ _______ _______ _____ _____    ______ ____

>  <TORSDO>
F 6

$$$$
=
 OpenBabel11122411463D

 37 42  0  0  1  0  0  0  0  0999 V2000
  186.6010  176.8680  137.7600 C   0  0  0  0  0  0  0  0  0  0  0  0
  187.1330  178.5780  141.1430 C   0  0  1  0  0  3  0  0  0  0  0  0
  190.1120  178.8180  142.5540 O   0  0  0  0  0  0  0  0  0  0  0  0
  185.7750  178.8300  138.9770 N   0  0  2  0  0  0  0  0  0  0  0  0
  188.3650  177.6850  141.3050 C   0  0  2  0  0  3  0  0  0  0  0  0
  187.0920  178.9060  139.6390 C   0  0  2  0  0  3  0  0  0  0  0  0
  189.1020  177.8480  142.6500 C   0  0  2  0  0  3  0  0  0  0  0  0
  184.7300  179.3360  139.8670 C   0  0  0  0  0  2  0  0  0  0  0  0
  188.1810  178.0750  138.9480 C   0  0  2  0  0  3  0  0  0  0  0  0
  186.8910  177.6150  136.6270 F   0  0  0  0  0  0  0  0  0  0  0  0
  185.7970  177.8610  143.1790 C   0  0  0  0  0  2  0  0  0  0  0  0
  184.5740  178.4980  141.1440 C   0  0  0  0  0  2  0  0  0  0  0  0
  187.7200  176.7780  138.6110 O   0  0  0  0  0  0  0  0  0  0  0  0
  191.4590  176.9830  141.9580 O   0  0  0  0  0  0  0  0  0  0  0  0
  191.3530  178.1610  142.7240 C   0  0  0  0  0  2  0  0  0  0  0  0
  185.8710  177.8620  141.6520 C   0  0  1  0  0  3  0  0  0  0  0  0
  189.2160  177.9550  140.0590 C   0  0  2  0  0  3  0  0  0  0  0  0
  185.4360  177.4790  138.5250 C   0  0  0  0  0  2  0  0  0  0  0  0
  188.1830  178.0880  143.8660 C   0  0  1  0  0  3  0  0  0  0  0  0
  186.2430  175.5940  137.3650 F   0  0  0  0  0  0  0  0  0  0  0  0
  191.5810  177.3860  140.6260 C   0  0  0  0  0  2  0  0  0  0  0  0
  190.3580  176.9450  139.8250 C   0  0  2  0  0  3  0  0  0  0  0  0
  186.9730  177.1610  143.8430 C   0  0  0  0  0  2  0  0  0  0  0  0
  189.8870  176.7820  145.2030 C   0  0  0  0  0  2  0  0  0  0  0  0
  188.9000  177.9500  145.2140 C   0  0  2  0  0  3  0  0  0  0  0  0
  187.9270  177.8430  146.3950 C   0  0  0  0  0  2  0  0  0  0  0  0
  187.7960  177.6090  148.7640 O   0  0  0  0  0  1  0  0  0  0  0  0
  189.6500  176.5660  147.6850 C   0  0  0  0  0  2  0  0  0  0  0  0
  188.6950  177.7560  147.7090 C   0  0  1  0  0  3  0  0  0  0  0  0
  190.6360  176.7080  146.5290 C   0  0  0  0  0  2  0  0  0  0  0  0
  190.7620  176.8810  138.3480 C   0  0  0  0  0  2  0  0  0  0  0  0
  191.7530  175.7520  138.0300 C   0  0  1  0  0  3  0  0  0  0  0  0
  190.4210  173.8420  137.6430 O   0  0  0  0  0  0  0  0  0  0  0  0
  191.1500  174.6940  137.1620 C   0  0  0  0  0  3  0  0  0  0  0  0
  193.0400  176.2740  137.4030 C   0  0  0  0  0  2  0  0  0  0  0  0
  194.1090  175.1940  137.3740 C   0  0  0  0  0  2  0  0  0  0  0  0
  194.8510  175.2230  138.5550 O   0  0  0  0  0  1  0  0  0  0  0  0
  1 18  1  0  0  0  0
  1 13  1  0  0  0  0
  2  5  1  0  0  0  0
  2 16  1  0  0  0  0
  3  7  1  0  0  0  0
  3 15  1  0  0  0  0
  4  6  1  0  0  0  0
  4  8  1  0  0  0  0
  5  7  1  0  0  0  0
  6  2  1  0  0  0  0
  7 19  1  0  0  0  0
  8 12  1  0  0  0  0
  9  6  1  0  0  0  0
  9 17  1  0  0  0  0
 10  1  1  0  0  0  0
 11 23  1  0  0  0  0
 12 16  1  0  0  0  0
 13  9  1  0  0  0  0
 14 15  1  0  0  0  0
 16 11  1  0  0  0  0
 17  5  1  0  0  0  0
 18  4  1  0  0  0  0
 19 25  1  0  0  0  0
 20  1  1  0  0  0  0
 21 14  1  0  0  0  0
 22 17  1  0  0  0  0
 22 21  1  0  0  0  0
 23 19  1  0  0  0  0
 24 25  1  0  0  0  0
 24 30  1  0  0  0  0
 25 26  1  0  0  0  0
 26 29  1  0  0  0  0
 28 29  1  0  0  0  0
 29 27  1  0  0  0  0
 30 28  1  0  0  0  0
 31 22  1  0  0  0  0
 32 31  1  0  0  0  0
 34 33  2  0  0  0  0
 34 32  1  0  0  0  0
 35 32  1  0  0  0  0
 36 35  1  0  0  0  0
 36 37  1  0  0  0  0
M  END
>  <MODEL>
2

>  <REMARK>
 VINA RESULT:      -9.4      3.459      6.455
  Name = 
  6 active torsions:
  status: ('A' for Active; 'I' for Inactive)
    1  A    between atoms: C_1  and  C_4
    2  A    between atoms: C_1  and  C_27
    3  A    between atoms: C_4  and  C_12
    4  A    between atoms: C_4  and  C_37
    5  A    between atoms: C_8  and  C_12
    6  A    between atoms: C_23  and  C_30
                            x       y       z     vdW  Elec       q    Type
                         _______ _______ _______ _____ _____    ______ ____

>  <TORSDO>
F 6

$$$$
=
 OpenBabel11122411463D

 37 42  0  0  1  0  0  0  0  0999 V2000
  182.9310  178.1100  140.9300 C   0  0  0  0  0  0  0  0  0  0  0  0
  185.9900  178.8480  143.1100 C   0  0  1  0  0  3  0  0  0  0  0  0
  189.0640  178.8660  141.8970 O   0  0  0  0  0  0  0  0  0  0  0  0
  183.5600  179.6070  142.7680 N   0  0  2  0  0  0  0  0  0  0  0  0
  186.7980  178.0200  142.1080 C   0  0  2  0  0  3  0  0  0  0  0  0
  184.9410  179.5760  142.2490 C   0  0  2  0  0  3  0  0  0  0  0  0
  188.2860  177.8490  142.4720 C   0  0  2  0  0  3  0  0  0  0  0  0
  183.5670  179.7840  144.2200 C   0  0  0  0  0  2  0  0  0  0  0  0
  185.0520  179.0350  140.8180 C   0  0  2  0  0  3  0  0  0  0  0  0
  182.4410  179.1580  140.1630 F   0  0  0  0  0  0  0  0  0  0  0  0
  186.4190  177.5180  145.2300 C   0  0  0  0  0  2  0  0  0  0  0  0
  184.2360  178.6180  144.9620 C   0  0  0  0  0  2  0  0  0  0  0  0
  184.2860  177.8560  140.6390 O   0  0  0  0  0  0  0  0  0  0  0  0
  189.2540  177.3510  140.1060 O   0  0  0  0  0  0  0  0  0  0  0  0
  189.9220  178.2630  140.9470 C   0  0  0  0  0  2  0  0  0  0  0  0
  185.3790  177.9450  144.1940 C   0  0  1  0  0  3  0  0  0  0  0  0
  186.5300  178.6740  140.7480 C   0  0  2  0  0  3  0  0  0  0  0  0
  182.7850  178.4160  142.4140 C   0  0  0  0  0  2  0  0  0  0  0  0
  188.5700  177.6880  143.9800 C   0  0  1  0  0  3  0  0  0  0  0  0
  182.1970  176.9760  140.6440 F   0  0  0  0  0  0  0  0  0  0  0  0
  188.4510  178.1130  139.2540 C   0  0  0  0  0  2  0  0  0  0  0  0
  186.9750  177.8380  139.5310 C   0  0  2  0  0  3  0  0  0  0  0  0
  187.5790  176.7330  144.6360 C   0  0  0  0  0  2  0  0  0  0  0  0
  190.3170  175.9000  143.6000 C   0  0  0  0  0  2  0  0  0  0  0  0
  189.9970  177.2270  144.2910 C   0  0  2  0  0  3  0  0  0  0  0  0
  190.2820  177.1510  145.7960 C   0  0  0  0  0  2  0  0  0  0  0  0
  191.9510  176.6200  147.4150 O   0  0  0  0  0  1  0  0  0  0  0  0
  192.0120  175.3930  145.3700 C   0  0  0  0  0  2  0  0  0  0  0  0
  191.7280  176.7320  146.0430 C   0  0  1  0  0  3  0  0  0  0  0  0
  191.7630  175.4970  143.8680 C   0  0  0  0  0  2  0  0  0  0  0  0
  186.1830  178.2090  138.2710 C   0  0  0  0  0  2  0  0  0  0  0  0
  185.8110  177.0000  137.4010 C   0  0  1  0  0  3  0  0  0  0  0  0
  183.5950  177.8120  137.3910 O   0  0  0  0  0  0  0  0  0  0  0  0
  184.3330  176.8530  137.2350 C   0  0  0  0  0  3  0  0  0  0  0  0
  186.4910  177.0390  136.0370 C   0  0  0  0  0  2  0  0  0  0  0  0
  187.7690  176.2170  136.0410 C   0  0  0  0  0  2  0  0  0  0  0  0
  187.7440  175.2990  137.0910 O   0  0  0  0  0  1  0  0  0  0  0  0
  1 18  1  0  0  0  0
  2 16  1  0  0  0  0
  3  7  1  0  0  0  0
  4  8  1  0  0  0  0
  5  7  1  0  0  0  0
  5  2  1  0  0  0  0
  6  4  1  0  0  0  0
  6  2  1  0  0  0  0
  7 19  1  0  0  0  0
  8 12  1  0  0  0  0
  9  6  1  0  0  0  0
 10  1  1  0  0  0  0
 13  9  1  0  0  0  0
 13  1  1  0  0  0  0
 14 15  1  0  0  0  0
 15  3  1  0  0  0  0
 16 12  1  0  0  0  0
 16 11  1  0  0  0  0
 17  9  1  0  0  0  0
 17  5  1  0  0  0  0
 18  4  1  0  0  0  0
 19 25  1  0  0  0  0
 19 23  1  0  0  0  0
 20  1  1  0  0  0  0
 21 22  1  0  0  0  0
 21 14  1  0  0  0  0
 22 17  1  0  0  0  0
 23 11  1  0  0  0  0
 24 30  1  0  0  0  0
 24 25  1  0  0  0  0
 25 26  1  0  0  0  0
 26 29  1  0  0  0  0
 28 29  1  0  0  0  0
 29 27  1  0  0  0  0
 30 28  1  0  0  0  0
 31 22  1  0  0  0  0
 32 31  1  0  0  0  0
 34 33  2  0  0  0  0
 34 32  1  0  0  0  0
 35 36  1  0  0  0  0
 35 32  1  0  0  0  0
 36 37  1  0  0  0  0
M  END
>  <MODEL>
3

>  <REMARK>
 VINA RESULT:      -9.3      3.204      6.617
  Name = 
  6 active torsions:
  status: ('A' for Active; 'I' for Inactive)
    1  A    between atoms: C_1  and  C_4
    2  A    between atoms: C_1  and  C_27
    3  A    between atoms: C_4  and  C_12
    4  A    between atoms: C_4  and  C_37
    5  A    between atoms: C_8  and  C_12
    6  A    between atoms: C_23  and  C_30
                            x       y       z     vdW  Elec       q    Type
                         _______ _______ _______ _____ _____    ______ ____

>  <TORSDO>
F 6

$$$$
=
 OpenBabel11122411463D

 37 42  0  0  1  0  0  0  0  0999 V2000
  188.8090  179.0020  137.8590 C   0  0  0  0  0  0  0  0  0  0  0  0
  189.6640  176.8040  140.8740 C   0  0  1  0  0  3  0  0  0  0  0  0
  187.6050  176.4320  143.4320 O   0  0  0  0  0  0  0  0  0  0  0  0
  189.8970  176.8530  138.3160 N   0  0  2  0  0  0  0  0  0  0  0  0
  188.7200  177.6960  141.6840 C   0  0  2  0  0  3  0  0  0  0  0  0
  189.0060  176.7120  139.4840 C   0  0  2  0  0  3  0  0  0  0  0  0
  188.6400  177.3470  143.1840 C   0  0  2  0  0  3  0  0  0  0  0  0
  191.1740  176.1860  138.5690 C   0  0  0  0  0  2  0  0  0  0  0  0
  187.8080  177.6700  139.4680 C   0  0  2  0  0  3  0  0  0  0  0  0
  187.9800  178.4480  136.8940 F   0  0  0  0  0  0  0  0  0  0  0  0
  191.8220  177.1580  142.1630 C   0  0  0  0  0  2  0  0  0  0  0  0
  191.9560  176.8110  139.7330 C   0  0  0  0  0  2  0  0  0  0  0  0
  188.1940  178.9900  139.1260 O   0  0  0  0  0  0  0  0  0  0  0  0
  186.3130  178.3740  143.7420 O   0  0  0  0  0  0  0  0  0  0  0  0
  186.6340  177.0900  144.2230 C   0  0  0  0  0  2  0  0  0  0  0  0
  191.0820  177.3960  140.8460 C   0  0  1  0  0  3  0  0  0  0  0  0
  187.3860  177.6460  140.9310 C   0  0  2  0  0  3  0  0  0  0  0  0
  190.1290  178.2480  137.9340 C   0  0  0  0  0  2  0  0  0  0  0  0
  189.9730  176.8960  143.8150 C   0  0  1  0  0  3  0  0  0  0  0  0
  189.0750  180.3120  137.5090 F   0  0  0  0  0  0  0  0  0  0  0  0
  185.5790  178.1860  142.5680 C   0  0  0  0  0  2  0  0  0  0  0  0
  186.3590  178.7120  141.3660 C   0  0  2  0  0  3  0  0  0  0  0  0
  191.1320  177.7800  143.3670 C   0  0  0  0  0  2  0  0  0  0  0  0
  189.2510  178.0750  145.9320 C   0  0  0  0  0  2  0  0  0  0  0  0
  189.9410  176.8420  145.3470 C   0  0  2  0  0  3  0  0  0  0  0  0
  191.3310  176.6400  145.9630 C   0  0  0  0  0  2  0  0  0  0  0  0
  192.5070  176.4160  148.0250 O   0  0  0  0  0  1  0  0  0  0  0  0
  190.5670  177.8020  148.0440 C   0  0  0  0  0  2  0  0  0  0  0  0
  191.2300  176.5490  147.4820 C   0  0  1  0  0  3  0  0  0  0  0  0
  189.1700  177.9670  147.4510 C   0  0  0  0  0  2  0  0  0  0  0  0
  185.3530  179.0160  140.2500 C   0  0  0  0  0  2  0  0  0  0  0  0
  184.0550  178.2030  140.3540 C   0  0  1  0  0  3  0  0  0  0  0  0
  182.0770  178.7870  141.5020 O   0  0  0  0  0  0  0  0  0  0  0  0
  182.8620  179.0670  140.6100 C   0  0  0  0  0  3  0  0  0  0  0  0
  183.8180  177.3340  139.1230 C   0  0  0  0  0  2  0  0  0  0  0  0
  184.5240  177.9090  137.9060 C   0  0  0  0  0  2  0  0  0  0  0  0
  185.1960  176.8960  137.2210 O   0  0  0  0  0  1  0  0  0  0  0  0
  1 18  1  0  0  0  0
  1 13  1  0  0  0  0
  2  5  1  0  0  0  0
  3 15  1  0  0  0  0
  4  8  1  0  0  0  0
  4  6  1  0  0  0  0
  5  7  1  0  0  0  0
  6  2  1  0  0  0  0
  7  3  1  0  0  0  0
  7 19  1  0  0  0  0
  8 12  1  0  0  0  0
  9  6  1  0  0  0  0
  9 17  1  0  0  0  0
 10  1  1  0  0  0  0
 11 23  1  0  0  0  0
 12 16  1  0  0  0  0
 13  9  1  0  0  0  0
 14 15  1  0  0  0  0
 16  2  1  0  0  0  0
 16 11  1  0  0  0  0
 17 22  1  0  0  0  0
 17  5  1  0  0  0  0
 18  4  1  0  0  0  0
 19 25  1  0  0  0  0
 20  1  1  0  0  0  0
 21 14  1  0  0  0  0
 22 21  1  0  0  0  0
 23 19  1  0  0  0  0
 24 30  1  0  0  0  0
 25 24  1  0  0  0  0
 25 26  1  0  0  0  0
 26 29  1  0  0  0  0
 29 27  1  0  0  0  0
 29 28  1  0  0  0  0
 30 28  1  0  0  0  0
 31 32  1  0  0  0  0
 31 22  1  0  0  0  0
 32 34  1  0  0  0  0
 34 33  2  0  0  0  0
 35 32  1  0  0  0  0
 36 35  1  0  0  0  0
 37 36  1  0  0  0  0
M  END
>  <MODEL>
4

>  <REMARK>
 VINA RESULT:      -9.3      2.858      7.050
  Name = 
  6 active torsions:
  status: ('A' for Active; 'I' for Inactive)
    1  A    between atoms: C_1  and  C_4
    2  A    between atoms: C_1  and  C_27
    3  A    between atoms: C_4  and  C_12
    4  A    between atoms: C_4  and  C_37
    5  A    between atoms: C_8  and  C_12
    6  A    between atoms: C_23  and  C_30
                            x       y       z     vdW  Elec       q    Type
                         _______ _______ _______ _____ _____    ______ ____

>  <TORSDO>
F 6

$$$$
=
 OpenBabel11122411463D

 37 42  0  0  1  0  0  0  0  0999 V2000
  190.6630  176.2660  138.2030 C   0  0  0  0  0  0  0  0  0  0  0  0
  187.4050  178.2000  137.6520 C   0  0  1  0  0  3  0  0  0  0  0  0
  185.6800  179.5050  140.1490 O   0  0  0  0  0  0  0  0  0  0  0  0
  189.7310  177.8780  136.6070 N   0  0  2  0  0  0  0  0  0  0  0  0
  187.0210  177.7900  139.0750 C   0  0  2  0  0  3  0  0  0  0  0  0
  188.9270  178.4290  137.7160 C   0  0  2  0  0  3  0  0  0  0  0  0
  185.6180  178.2530  139.5170 C   0  0  2  0  0  3  0  0  0  0  0  0
  189.0190  178.0330  135.3390 C   0  0  0  0  0  2  0  0  0  0  0  0
  189.4090  177.9920  139.1060 C   0  0  2  0  0  3  0  0  0  0  0  0
  191.8160  177.0180  138.3840 F   0  0  0  0  0  0  0  0  0  0  0  0
  185.4870  177.1570  136.3580 C   0  0  0  0  0  2  0  0  0  0  0  0
  187.7000  177.2480  135.2930 C   0  0  0  0  0  2  0  0  0  0  0  0
  189.6810  176.6020  139.1560 O   0  0  0  0  0  0  0  0  0  0  0  0
  185.9480  178.2180  142.1010 O   0  0  0  0  0  0  0  0  0  0  0  0
  185.3070  179.3200  141.5010 C   0  0  0  0  0  2  0  0  0  0  0  0
  186.9880  177.1180  136.6420 C   0  0  1  0  0  3  0  0  0  0  0  0
  188.1770  178.2810  139.9530 C   0  0  2  0  0  3  0  0  0  0  0  0
  190.0980  176.4740  136.8050 C   0  0  0  0  0  2  0  0  0  0  0  0
  184.5460  178.2160  138.4100 C   0  0  1  0  0  3  0  0  0  0  0  0
  190.9840  174.9310  138.3490 F   0  0  0  0  0  0  0  0  0  0  0  0
  187.2870  178.5810  142.2680 C   0  0  0  0  0  2  0  0  0  0  0  0
  188.1840  177.7140  141.3880 C   0  0  2  0  0  3  0  0  0  0  0  0
  184.6290  176.9310  137.5930 C   0  0  0  0  0  2  0  0  0  0  0  0
  182.6990  177.2130  139.8160 C   0  0  0  0  0  2  0  0  0  0  0  0
  183.1160  178.3900  138.9330 C   0  0  2  0  0  3  0  0  0  0  0  0
  182.0980  178.6300  137.8110 C   0  0  0  0  0  2  0  0  0  0  0  0
  179.7870  179.0070  137.3580 O   0  0  0  0  0  1  0  0  0  0  0  0
  180.3000  177.6420  139.2450 C   0  0  0  0  0  2  0  0  0  0  0  0
  180.7050  178.8420  138.3950 C   0  0  1  0  0  3  0  0  0  0  0  0
  181.3000  177.4420  140.3800 C   0  0  0  0  0  2  0  0  0  0  0  0
  189.5920  177.7280  141.9940 C   0  0  0  0  0  2  0  0  0  0  0  0
  189.6970  176.9640  143.3220 C   0  0  1  0  0  3  0  0  0  0  0  0
  191.6290  175.7000  143.8120 O   0  0  0  0  0  0  0  0  0  0  0  0
  190.5670  175.7530  143.2140 C   0  0  0  0  0  3  0  0  0  0  0  0
  190.1770  177.8540  144.4630 C   0  0  0  0  0  2  0  0  0  0  0  0
  189.3050  177.6770  145.6950 C   0  0  0  0  0  2  0  0  0  0  0  0
  188.0740  177.1280  145.3360 O   0  0  0  0  0  1  0  0  0  0  0  0
  1 20  1  0  0  0  0
  1 10  1  0  0  0  0
  1 13  1  0  0  0  0
  2  6  1  0  0  0  0
  2  5  1  0  0  0  0
  3 15  1  0  0  0  0
  4 18  1  0  0  0  0
  4  6  1  0  0  0  0
  5  7  1  0  0  0  0
  5 17  1  0  0  0  0
  6  9  1  0  0  0  0
  7  3  1  0  0  0  0
  8  4  1  0  0  0  0
  9 13  1  0  0  0  0
  9 17  1  0  0  0  0
 11 16  1  0  0  0  0
 11 23  1  0  0  0  0
 12  8  1  0  0  0  0
 12 16  1  0  0  0  0
 14 21  1  0  0  0  0
 15 14  1  0  0  0  0
 16  2  1  0  0  0  0
 17 22  1  0  0  0  0
 18  1  1  0  0  0  0
 19 25  1  0  0  0  0
 19  7  1  0  0  0  0
 22 31  1  0  0  0  0
 22 21  1  0  0  0  0
 23 19  1  0  0  0  0
 24 30  1  0  0  0  0
 25 24  1  0  0  0  0
 26 29  1  0  0  0  0
 26 25  1  0  0  0  0
 27 29  1  0  0  0  0
 28 30  1  0  0  0  0
 29 28  1  0  0  0  0
 31 32  1  0  0  0  0
 32 35  1  0  0  0  0
 34 32  1  0  0  0  0
 34 33  2  0  0  0  0
 35 36  1  0  0  0  0
 37 36  1  0  0  0  0
M  END
>  <MODEL>
5

>  <REMARK>
 VINA RESULT:      -9.0      2.893      6.005
  Name = 
  6 active torsions:
  status: ('A' for Active; 'I' for Inactive)
    1  A    between atoms: C_1  and  C_4
    2  A    between atoms: C_1  and  C_27
    3  A    between atoms: C_4  and  C_12
    4  A    between atoms: C_4  and  C_37
    5  A    between atoms: C_8  and  C_12
    6  A    between atoms: C_23  and  C_30
                            x       y       z     vdW  Elec       q    Type
                         _______ _______ _______ _____ _____    ______ ____

>  <TORSDO>
F 6

$$$$
=
 OpenBabel11122411463D

 37 42  0  0  1  0  0  0  0  0999 V2000
  185.9060  178.9630  146.1230 C   0  0  0  0  0  0  0  0  0  0  0  0
  186.8930  177.5550  142.7020 C   0  0  1  0  0  3  0  0  0  0  0  0
  189.7000  175.8780  142.2240 O   0  0  0  0  0  0  0  0  0  0  0  0
  184.8330  177.8780  144.2030 N   0  0  2  0  0  0  0  0  0  0  0  0
  188.3450  177.6540  143.1760 C   0  0  2  0  0  3  0  0  0  0  0  0
  186.1040  177.1650  143.9660 C   0  0  2  0  0  3  0  0  0  0  0  0
  189.3920  177.2440  142.1200 C   0  0  2  0  0  3  0  0  0  0  0  0
  184.1320  178.1000  142.9390 C   0  0  0  0  0  2  0  0  0  0  0  0
  187.0700  177.2100  145.1560 C   0  0  2  0  0  3  0  0  0  0  0  0
  185.3320  178.0770  147.0230 F   0  0  0  0  0  0  0  0  0  0  0  0
  186.9900  179.0630  140.6630 C   0  0  0  0  0  2  0  0  0  0  0  0
  184.9110  179.0030  141.9730 C   0  0  0  0  0  2  0  0  0  0  0  0
  187.1730  178.5130  145.7020 O   0  0  0  0  0  0  0  0  0  0  0  0
  191.3750  176.6330  143.6940 O   0  0  0  0  0  0  0  0  0  0  0  0
  191.0530  175.7750  142.6250 C   0  0  0  0  0  2  0  0  0  0  0  0
  186.4350  178.8820  142.0750 C   0  0  1  0  0  3  0  0  0  0  0  0
  188.3900  176.8550  144.4830 C   0  0  2  0  0  3  0  0  0  0  0  0
  185.0110  179.1500  144.9060 C   0  0  0  0  0  2  0  0  0  0  0  0
  189.0450  177.6500  140.6730 C   0  0  1  0  0  3  0  0  0  0  0  0
  186.0550  180.1870  146.7460 F   0  0  0  0  0  0  0  0  0  0  0  0
  190.7480  176.1070  144.8270 C   0  0  0  0  0  2  0  0  0  0  0  0
  189.6660  177.0620  145.3240 C   0  0  2  0  0  3  0  0  0  0  0  0
  188.5100  179.0770  140.6060 C   0  0  0  0  0  2  0  0  0  0  0  0
  190.0450  176.2720  138.8040 C   0  0  0  0  0  2  0  0  0  0  0  0
  190.2160  177.5030  139.6960 C   0  0  2  0  0  3  0  0  0  0  0  0
  191.5790  177.4930  140.4000 C   0  0  0  0  0  2  0  0  0  0  0  0
  193.9300  177.3330  140.0370 O   0  0  0  0  0  1  0  0  0  0  0  0
  192.5290  176.1410  138.5200 C   0  0  0  0  0  2  0  0  0  0  0  0
  192.7040  177.3910  139.3760 C   0  0  1  0  0  3  0  0  0  0  0  0
  191.1860  176.1850  137.7950 C   0  0  0  0  0  2  0  0  0  0  0  0
  189.4200  176.7630  146.8070 C   0  0  0  0  0  2  0  0  0  0  0  0
  189.9050  177.8750  147.7480 C   0  0  1  0  0  3  0  0  0  0  0  0
  187.8410  177.6080  148.8620 O   0  0  0  0  0  0  0  0  0  0  0  0
  188.8710  178.2540  148.7600 C   0  0  0  0  0  3  0  0  0  0  0  0
  191.2120  177.5140  148.4430 C   0  0  0  0  0  2  0  0  0  0  0  0
  191.8910  176.3420  147.7540 C   0  0  0  0  0  2  0  0  0  0  0  0
  193.0620  176.0020  148.4310 O   0  0  0  0  0  1  0  0  0  0  0  0
  1 20  1  0  0  0  0
  1 10  1  0  0  0  0
  2  5  1  0  0  0  0
  2  6  1  0  0  0  0
  3 15  1  0  0  0  0
  4 18  1  0  0  0  0
  5 17  1  0  0  0  0
  6  4  1  0  0  0  0
  6  9  1  0  0  0  0
  7  3  1  0  0  0  0
  7  5  1  0  0  0  0
  8  4  1  0  0  0  0
  9 13  1  0  0  0  0
 11 16  1  0  0  0  0
 12 16  1  0  0  0  0
 12  8  1  0  0  0  0
 13  1  1  0  0  0  0
 14 21  1  0  0  0  0
 15 14  1  0  0  0  0
 16  2  1  0  0  0  0
 17  9  1  0  0  0  0
 17 22  1  0  0  0  0
 18  1  1  0  0  0  0
 19  7  1  0  0  0  0
 21 22  1  0  0  0  0
 22 31  1  0  0  0  0
 23 11  1  0  0  0  0
 23 19  1  0  0  0  0
 24 25  1  0  0  0  0
 25 26  1  0  0  0  0
 25 19  1  0  0  0  0
 28 29  1  0  0  0  0
 29 27  1  0  0  0  0
 29 26  1  0  0  0  0
 30 28  1  0  0  0  0
 30 24  1  0  0  0  0
 31 32  1  0  0  0  0
 32 35  1  0  0  0  0
 32 34  1  0  0  0  0
 34 33  2  0  0  0  0
 36 37  1  0  0  0  0
 36 35  1  0  0  0  0
M  END
>  <MODEL>
6

>  <REMARK>
 VINA RESULT:      -8.5      3.318      7.845
  Name = 
  6 active torsions:
  status: ('A' for Active; 'I' for Inactive)
    1  A    between atoms: C_1  and  C_4
    2  A    between atoms: C_1  and  C_27
    3  A    between atoms: C_4  and  C_12
    4  A    between atoms: C_4  and  C_37
    5  A    between atoms: C_8  and  C_12
    6  A    between atoms: C_23  and  C_30
                            x       y       z     vdW  Elec       q    Type
                         _______ _______ _______ _____ _____    ______ ____

>  <TORSDO>
F 6

$$$$
=
 OpenBabel11122411463D

 37 42  0  0  1  0  0  0  0  0999 V2000
  189.9930  176.8480  141.1810 C   0  0  0  0  0  0  0  0  0  0  0  0
  187.3570  178.1200  138.7130 C   0  0  1  0  0  3  0  0  0  0  0  0
  184.4970  179.4440  139.7070 O   0  0  0  0  0  0  0  0  0  0  0  0
  189.9040  178.0520  139.0470 N   0  0  2  0  0  0  0  0  0  0  0  0
  186.3240  177.8470  139.8080 C   0  0  2  0  0  3  0  0  0  0  0  0
  188.6040  178.6060  139.4750 C   0  0  2  0  0  3  0  0  0  0  0  0
  184.8640  178.1250  139.3940 C   0  0  2  0  0  3  0  0  0  0  0  0
  189.9410  177.9150  137.5910 C   0  0  0  0  0  2  0  0  0  0  0  0
  188.3290  178.4460  140.9760 C   0  0  2  0  0  3  0  0  0  0  0  0
  190.8260  177.7980  141.7530 F   0  0  0  0  0  0  0  0  0  0  0  0
  186.4670  176.6080  136.8780 C   0  0  0  0  0  2  0  0  0  0  0  0
  188.8990  176.9220  137.0560 C   0  0  0  0  0  2  0  0  0  0  0  0
  188.6380  177.1400  141.4320 O   0  0  0  0  0  0  0  0  0  0  0  0
  183.8120  178.4940  141.7480 O   0  0  0  0  0  0  0  0  0  0  0  0
  183.4940  179.3830  140.7030 C   0  0  0  0  0  2  0  0  0  0  0  0
  187.6030  176.8580  137.8700 C   0  0  1  0  0  3  0  0  0  0  0  0
  186.8180  178.6370  141.0250 C   0  0  2  0  0  3  0  0  0  0  0  0
  190.2190  176.7690  139.6780 C   0  0  0  0  0  2  0  0  0  0  0  0
  184.5250  177.7620  137.9340 C   0  0  1  0  0  3  0  0  0  0  0  0
  190.2900  175.6160  141.7310 F   0  0  0  0  0  0  0  0  0  0  0  0
  184.8400  179.0930  142.4800 C   0  0  0  0  0  2  0  0  0  0  0  0
  186.1250  178.2770  142.3540 C   0  0  2  0  0  3  0  0  0  0  0  0
  185.1140  176.4110  137.5430 C   0  0  0  0  0  2  0  0  0  0  0  0
  182.2540  176.8940  138.6290 C   0  0  0  0  0  2  0  0  0  0  0  0
  183.0220  177.7640  137.6340 C   0  0  2  0  0  3  0  0  0  0  0  0
  182.7060  177.3650  136.1870 C   0  0  0  0  0  2  0  0  0  0  0  0
  180.9320  177.0160  134.6320 O   0  0  0  0  0  1  0  0  0  0  0  0
  180.4620  176.5310  136.9190 C   0  0  0  0  0  2  0  0  0  0  0  0
  181.2030  177.4310  135.9350 C   0  0  1  0  0  3  0  0  0  0  0  0
  180.7560  176.9670  138.3520 C   0  0  0  0  0  2  0  0  0  0  0  0
  187.0100  178.6070  143.5610 C   0  0  0  0  0  2  0  0  0  0  0  0
  187.2330  177.4160  144.5040 C   0  0  1  0  0  3  0  0  0  0  0  0
  189.4840  178.1190  144.6090 O   0  0  0  0  0  0  0  0  0  0  0  0
  188.6700  177.2520  144.8820 C   0  0  0  0  0  3  0  0  0  0  0  0
  186.3680  177.5000  145.7560 C   0  0  0  0  0  2  0  0  0  0  0  0
  185.7660  178.8870  145.9100 C   0  0  0  0  0  2  0  0  0  0  0  0
  184.9250  178.9230  147.0220 O   0  0  0  0  0  1  0  0  0  0  0  0
  1 13  1  0  0  0  0
  1 20  1  0  0  0  0
  1 10  1  0  0  0  0
  2  6  1  0  0  0  0
  2  5  1  0  0  0  0
  3 15  1  0  0  0  0
  4  6  1  0  0  0  0
  4 18  1  0  0  0  0
  5 17  1  0  0  0  0
  6  9  1  0  0  0  0
  7  3  1  0  0  0  0
  7  5  1  0  0  0  0
  8  4  1  0  0  0  0
  9 17  1  0  0  0  0
  9 13  1  0  0  0  0
 11 23  1  0  0  0  0
 11 16  1  0  0  0  0
 12  8  1  0  0  0  0
 12 16  1  0  0  0  0
 14 21  1  0  0  0  0
 15 14  1  0  0  0  0
 16  2  1  0  0  0  0
 17 22  1  0  0  0  0
 18  1  1  0  0  0  0
 19  7  1  0  0  0  0
 22 21  1  0  0  0  0
 22 31  1  0  0  0  0
 23 19  1  0  0  0  0
 25 19  1  0  0  0  0
 25 24  1  0  0  0  0
 26 25  1  0  0  0  0
 27 29  1  0  0  0  0
 28 30  1  0  0  0  0
 29 26  1  0  0  0  0
 29 28  1  0  0  0  0
 30 24  1  0  0  0  0
 31 32  1  0  0  0  0
 32 34  1  0  0  0  0
 32 35  1  0  0  0  0
 33 34  2  0  0  0  0
 35 36  1  0  0  0  0
 36 37  1  0  0  0  0
M  END
>  <MODEL>
7

>  <REMARK>
 VINA RESULT:      -8.5      2.732      5.957
  Name = 
  6 active torsions:
  status: ('A' for Active; 'I' for Inactive)
    1  A    between atoms: C_1  and  C_4
    2  A    between atoms: C_1  and  C_27
    3  A    between atoms: C_4  and  C_12
    4  A    between atoms: C_4  and  C_37
    5  A    between atoms: C_8  and  C_12
    6  A    between atoms: C_23  and  C_30
                            x       y       z     vdW  Elec       q    Type
                         _______ _______ _______ _____ _____    ______ ____

>  <TORSDO>
F 6

$$$$
=
 OpenBabel11122411463D

 37 42  0  0  1  0  0  0  0  0999 V2000
  188.8070  178.8050  137.6190 C   0  0  0  0  0  0  0  0  0  0  0  0
  189.4110  177.1720  141.0290 C   0  0  1  0  0  3  0  0  0  0  0  0
  187.0990  177.0970  143.3890 O   0  0  0  0  0  0  0  0  0  0  0  0
  189.9230  176.8230  138.5350 N   0  0  2  0  0  0  0  0  0  0  0  0
  188.3490  178.1260  141.5790 C   0  0  2  0  0  3  0  0  0  0  0  0
  188.9150  176.8200  139.6140 C   0  0  2  0  0  3  0  0  0  0  0  0
  188.1180  178.0190  143.1000 C   0  0  2  0  0  3  0  0  0  0  0  0
  191.1910  176.2800  139.0240 C   0  0  0  0  0  2  0  0  0  0  0  0
  187.6890  177.6930  139.3160 C   0  0  2  0  0  3  0  0  0  0  0  0
  188.1130  178.0560  136.6800 F   0  0  0  0  0  0  0  0  0  0  0  0
  191.3980  177.8520  142.4540 C   0  0  0  0  0  2  0  0  0  0  0  0
  191.8130  177.1280  140.1420 C   0  0  0  0  0  2  0  0  0  0  0  0
  188.0570  178.9610  138.8020 O   0  0  0  0  0  0  0  0  0  0  0  0
  185.7040  178.9870  143.2390 O   0  0  0  0  0  0  0  0  0  0  0  0
  186.0210  177.8160  143.9560 C   0  0  0  0  0  2  0  0  0  0  0  0
  190.7990  177.8330  141.0490 C   0  0  1  0  0  3  0  0  0  0  0  0
  187.1090  177.8800  140.7120 C   0  0  2  0  0  3  0  0  0  0  0  0
  190.1390  178.1490  137.9530 C   0  0  0  0  0  2  0  0  0  0  0  0
  189.3910  177.7520  143.9300 C   0  0  1  0  0  3  0  0  0  0  0  0
  189.0580  180.0540  137.0860 F   0  0  0  0  0  0  0  0  0  0  0  0
  185.1120  178.5700  142.0440 C   0  0  0  0  0  2  0  0  0  0  0  0
  185.9990  178.9400  140.8570 C   0  0  2  0  0  3  0  0  0  0  0  0
  190.5550  178.6180  143.4630 C   0  0  0  0  0  2  0  0  0  0  0  0
  189.9400  176.8760  146.2380 C   0  0  0  0  0  2  0  0  0  0  0  0
  189.1920  177.9430  145.4380 C   0  0  2  0  0  3  0  0  0  0  0  0
  187.7130  178.0030  145.8390 C   0  0  0  0  0  2  0  0  0  0  0  0
  186.2290  178.2410  147.6910 O   0  0  0  0  0  1  0  0  0  0  0  0
  188.3060  177.1470  148.1150 C   0  0  0  0  0  2  0  0  0  0  0  0
  187.5790  178.2410  147.3390 C   0  0  1  0  0  3  0  0  0  0  0  0
  189.7830  177.1280  147.7340 C   0  0  0  0  0  2  0  0  0  0  0  0
  185.1110  179.0030  139.6090 C   0  0  0  0  0  2  0  0  0  0  0  0
  183.7150  178.3990  139.8170 C   0  0  1  0  0  3  0  0  0  0  0  0
  182.7950  180.2750  138.7190 O   0  0  0  0  0  0  0  0  0  0  0  0
  182.6230  179.3790  139.5290 C   0  0  0  0  0  3  0  0  0  0  0  0
  183.5080  177.1290  138.9990 C   0  0  0  0  0  2  0  0  0  0  0  0
  184.2890  177.1860  137.6970 C   0  0  0  0  0  2  0  0  0  0  0  0
  184.4390  175.9020  137.1730 O   0  0  0  0  0  1  0  0  0  0  0  0
  1 18  1  0  0  0  0
  1 13  1  0  0  0  0
  2 16  1  0  0  0  0
  2  5  1  0  0  0  0
  3 15  1  0  0  0  0
  4  8  1  0  0  0  0
  4  6  1  0  0  0  0
  5  7  1  0  0  0  0
  6  2  1  0  0  0  0
  7  3  1  0  0  0  0
  7 19  1  0  0  0  0
  8 12  1  0  0  0  0
  9  6  1  0  0  0  0
  9 17  1  0  0  0  0
 10  1  1  0  0  0  0
 11 23  1  0  0  0  0
 12 16  1  0  0  0  0
 13  9  1  0  0  0  0
 14 15  1  0  0  0  0
 16 11  1  0  0  0  0
 17 22  1  0  0  0  0
 17  5  1  0  0  0  0
 18  4  1  0  0  0  0
 19 25  1  0  0  0  0
 20  1  1  0  0  0  0
 21 14  1  0  0  0  0
 22 21  1  0  0  0  0
 23 19  1  0  0  0  0
 24 30  1  0  0  0  0
 25 26  1  0  0  0  0
 25 24  1  0  0  0  0
 26 29  1  0  0  0  0
 29 27  1  0  0  0  0
 29 28  1  0  0  0  0
 30 28  1  0  0  0  0
 31 32  1  0  0  0  0
 31 22  1  0  0  0  0
 33 34  2  0  0  0  0
 34 32  1  0  0  0  0
 35 32  1  0  0  0  0
 36 35  1  0  0  0  0
 37 36  1  0  0  0  0
M  END
>  <MODEL>
8

>  <REMARK>
 VINA RESULT:      -8.3      2.948      6.337
  Name = 
  6 active torsions:
  status: ('A' for Active; 'I' for Inactive)
    1  A    between atoms: C_1  and  C_4
    2  A    between atoms: C_1  and  C_27
    3  A    between atoms: C_4  and  C_12
    4  A    between atoms: C_4  and  C_37
    5  A    between atoms: C_8  and  C_12
    6  A    between atoms: C_23  and  C_30
                            x       y       z     vdW  Elec       q    Type
                         _______ _______ _______ _____ _____    ______ ____

>  <TORSDO>
F 6

$$$$
=
 OpenBabel11122411463D

 37 42  0  0  1  0  0  0  0  0999 V2000
  184.8790  176.7470  137.0770 C   0  0  0  0  0  0  0  0  0  0  0  0
  186.9220  178.4660  139.8210 C   0  0  1  0  0  3  0  0  0  0  0  0
  190.1930  178.0830  140.0930 O   0  0  0  0  0  0  0  0  0  0  0  0
  184.9540  178.9100  138.2310 N   0  0  2  0  0  0  0  0  0  0  0  0
  187.9270  177.3210  139.6720 C   0  0  2  0  0  3  0  0  0  0  0  0
  186.4080  178.7130  138.3900 C   0  0  2  0  0  3  0  0  0  0  0  0
  189.1150  177.3810  140.6530 C   0  0  2  0  0  3  0  0  0  0  0  0
  184.4220  179.6920  139.3470 C   0  0  0  0  0  2  0  0  0  0  0  0
  186.9870  177.6160  137.4880 C   0  0  2  0  0  3  0  0  0  0  0  0
  184.8840  177.3450  135.8250 F   0  0  0  0  0  0  0  0  0  0  0  0
  186.2960  178.1900  142.2650 C   0  0  0  0  0  2  0  0  0  0  0  0
  184.5740  178.9830  140.7000 C   0  0  0  0  0  2  0  0  0  0  0  0
  186.1880  176.4460  137.5030 O   0  0  0  0  0  0  0  0  0  0  0  0
  190.8430  175.9560  139.3240 O   0  0  0  0  0  0  0  0  0  0  0  0
  191.2550  177.1660  139.9170 C   0  0  0  0  0  2  0  0  0  0  0  0
  185.8140  178.0910  140.8180 C   0  0  1  0  0  3  0  0  0  0  0  0
  188.3060  177.3190  138.1870 C   0  0  2  0  0  3  0  0  0  0  0  0
  184.2140  177.6520  138.1040 C   0  0  0  0  0  2  0  0  0  0  0  0
  188.7630  177.8920  142.0650 C   0  0  1  0  0  3  0  0  0  0  0  0
  184.1580  175.5720  137.0000 F   0  0  0  0  0  0  0  0  0  0  0  0
  190.5540  176.2480  137.9880 C   0  0  0  0  0  2  0  0  0  0  0  0
  189.0630  176.0600  137.7160 C   0  0  2  0  0  3  0  0  0  0  0  0
  187.4680  177.2720  142.5780 C   0  0  0  0  0  2  0  0  0  0  0  0
  190.4840  176.2690  142.9580 C   0  0  0  0  0  2  0  0  0  0  0  0
  189.8750  177.6650  143.0960 C   0  0  2  0  0  3  0  0  0  0  0  0
  189.4140  177.9300  144.5340 C   0  0  0  0  0  2  0  0  0  0  0  0
  190.1200  177.9290  146.8120 O   0  0  0  0  0  1  0  0  0  0  0  0
  191.1410  176.3240  145.3730 C   0  0  0  0  0  2  0  0  0  0  0  0
  190.5710  177.7330  145.5070 C   0  0  1  0  0  3  0  0  0  0  0  0
  191.6310  176.0910  143.9470 C   0  0  0  0  0  2  0  0  0  0  0  0
  188.8870  175.8250  136.2120 C   0  0  0  0  0  2  0  0  0  0  0  0
  188.6420  174.3540  135.8450 C   0  0  1  0  0  3  0  0  0  0  0  0
  190.6920  173.2000  136.0360 O   0  0  0  0  0  0  0  0  0  0  0  0
  189.8640  173.6960  135.2890 C   0  0  0  0  0  3  0  0  0  0  0  0
  188.1010  173.5480  137.0200 C   0  0  0  0  0  2  0  0  0  0  0  0
  186.7950  172.8610  136.6550 C   0  0  0  0  0  2  0  0  0  0  0  0
  185.8760  172.9960  137.6960 O   0  0  0  0  0  1  0  0  0  0  0  0
  1 13  1  0  0  0  0
  1 18  1  0  0  0  0
  2 16  1  0  0  0  0
  3  7  1  0  0  0  0
  4  6  1  0  0  0  0
  4  8  1  0  0  0  0
  5  2  1  0  0  0  0
  5  7  1  0  0  0  0
  6  2  1  0  0  0  0
  7 19  1  0  0  0  0
  8 12  1  0  0  0  0
  9 13  1  0  0  0  0
  9 17  1  0  0  0  0
  9  6  1  0  0  0  0
 10  1  1  0  0  0  0
 11 23  1  0  0  0  0
 12 16  1  0  0  0  0
 14 15  1  0  0  0  0
 15  3  1  0  0  0  0
 16 11  1  0  0  0  0
 17  5  1  0  0  0  0
 18  4  1  0  0  0  0
 19 23  1  0  0  0  0
 19 25  1  0  0  0  0
 20  1  1  0  0  0  0
 21 14  1  0  0  0  0
 22 21  1  0  0  0  0
 22 17  1  0  0  0  0
 24 25  1  0  0  0  0
 24 30  1  0  0  0  0
 25 26  1  0  0  0  0
 26 29  1  0  0  0  0
 28 29  1  0  0  0  0
 29 27  1  0  0  0  0
 30 28  1  0  0  0  0
 31 22  1  0  0  0  0
 32 31  1  0  0  0  0
 32 35  1  0  0  0  0
 34 32  1  0  0  0  0
 34 33  2  0  0  0  0
 36 35  1  0  0  0  0
 36 37  1  0  0  0  0
M  END
>  <MODEL>
9

>  <REMARK>
 VINA RESULT:      -7.9      3.880      7.200
  Name = 
  6 active torsions:
  status: ('A' for Active; 'I' for Inactive)
    1  A    between atoms: C_1  and  C_4
    2  A    between atoms: C_1  and  C_27
    3  A    between atoms: C_4  and  C_12
    4  A    between atoms: C_4  and  C_37
    5  A    between atoms: C_8  and  C_12
    6  A    between atoms: C_23  and  C_30
                            x       y       z     vdW  Elec       q    Type
                         _______ _______ _______ _____ _____    ______ ____

>  <TORSDO>
F 6

$$$$
