=
 OpenBabel11122411163D

 31 35  0  0  1  0  0  0  0  0999 V2000
  191.3700  176.3550  144.5420 C   0  0  1  0  0  3  0  0  0  0  0  0
  187.7210  176.9240  143.7470 C   0  0  2  0  0  3  0  0  0  0  0  0
  187.1570  177.7370  144.9210 C   0  0  0  0  0  0  0  0  0  0  0  0
  187.3120  178.5040  147.2310 C   0  0  0  0  0  0  0  0  0  0  0  0
  189.1880  176.9640  143.5720 N   0  0  2  0  0  0  0  0  0  0  0  0
  191.8380  177.7920  144.3910 C   0  0  0  0  0  2  0  0  0  0  0  0
  187.8590  177.8390  146.1330 C   0  0  0  0  0  3  0  0  0  0  0  0
  187.5240  178.7190  141.9820 C   0  0  2  0  0  3  0  0  0  0  0  0
  191.9750  175.7860  145.6620 O   0  0  0  0  0  1  0  0  0  0  0  0
  185.0360  178.2610  143.5890 C   0  0  0  0  0  2  0  0  0  0  0  0
  188.0840  178.6100  148.4960 C   0  0  0  0  0  1  0  0  0  0  0  0
  189.0490  178.8250  141.9900 C   0  0  0  0  0  2  0  0  0  0  0  0
  187.0610  177.3190  142.4180 C   0  0  2  0  0  3  0  0  0  0  0  0
  189.8600  176.3440  144.7210 C   0  0  0  0  0  2  0  0  0  0  0  0
  186.0380  179.0640  147.1410 C   0  0  0  0  0  3  0  0  0  0  0  0
  189.6390  178.3460  143.3170 C   0  0  2  0  0  3  0  0  0  0  0  0
  191.1600  178.4120  143.1810 C   0  0  0  0  0  2  0  0  0  0  0  0
  185.5420  177.2430  142.5680 C   0  0  0  0  0  2  0  0  0  0  0  0
  185.8490  178.2820  144.8520 C   0  0  0  0  0  0  0  0  0  0  0  0
  185.3120  178.9540  145.9550 C   0  0  0  0  0  3  0  0  0  0  0  0
  188.1830  177.2860  139.6070 O   0  0  0  0  0  0  0  0  0  0  0  0
  187.3830  178.2560  139.5000 C   0  0  0  0  0  0  0  0  0  0  0  0
  187.0180  179.0200  140.6500 N   0  0  0  0  0  2  0  0  0  0  0  0
  186.6950  176.4370  136.3600 C   0  0  1  0  0  3  0  0  0  0  0  0
  185.5900  177.7690  137.8210 C   0  0  0  0  0  2  0  0  0  0  0  0
  189.1420  179.2420  137.3170 C   0  0  0  0  0  1  0  0  0  0  0  0
  186.9030  175.0090  135.8990 C   0  0  0  0  0  1  0  0  0  0  0  0
  185.9750  176.4370  137.5700 O   0  0  0  0  0  0  0  0  0  0  0  0
  187.8260  178.5490  137.0060 C   0  0  2  0  0  3  0  0  0  0  0  0
  186.8120  178.6320  138.1620 C   0  0  2  0  0  3  0  0  0  0  0  0
  188.0540  177.1080  136.5590 C   0  0  0  0  0  2  0  0  0  0  0  0
  1 14  1  0  0  0  0
  1  9  1  1  0  0  0
  2  3  1  1  0  0  0
  3  7  1  0  0  0  0
  4 11  1  0  0  0  0
  5  2  1  0  0  0  0
  5 14  1  1  0  0  0
  6  1  1  0  0  0  0
  7  4  2  0  0  0  0
  8 23  1  6  0  0  0
  8 12  1  0  0  0  0
  8 13  1  0  0  0  0
 10 19  1  0  0  0  0
 13 18  1  1  0  0  0
 13  2  1  0  0  0  0
 15  4  1  0  0  0  0
 16 12  1  6  0  0  0
 16  5  1  0  0  0  0
 17 16  1  0  0  0  0
 17  6  1  0  0  0  0
 18 10  1  0  0  0  0
 19  3  2  0  0  0  0
 19 20  1  0  0  0  0
 20 15  2  0  0  0  0
 22 21  2  0  0  0  0
 22 23  1  0  0  0  0
 24 27  1  1  0  0  0
 24 31  1  0  0  0  0
 24 28  1  0  0  0  0
 25 30  1  0  0  0  0
 28 25  1  0  0  0  0
 29 26  1  1  0  0  0
 29 30  1  0  0  0  0
 30 22  1  1  0  0  0
 31 29  1  0  0  0  0
M  END
>  <MODEL>
1

>  <REMARK>
 VINA RESULT:      -8.1      0.000      0.000
  Name = 
  2 active torsions:
  status: ('A' for Active; 'I' for Inactive)
    1  A    between atoms: C_5  and  C_30
    2  A    between atoms: C_10  and  N_16
                            x       y       z     vdW  Elec       q    Type
                         _______ _______ _______ _____ _____    ______ ____

>  <TORSDO>
F 2

$$$$
=
 OpenBabel11122411163D

 31 35  0  0  1  0  0  0  0  0999 V2000
  190.0590  175.8410  142.6790 C   0  0  1  0  0  3  0  0  0  0  0  0
  186.5610  177.0960  143.3580 C   0  0  2  0  0  3  0  0  0  0  0  0
  186.6340  177.8340  144.7040 C   0  0  0  0  0  0  0  0  0  0  0  0
  187.7610  178.2630  146.8230 C   0  0  0  0  0  0  0  0  0  0  0  0
  187.8420  176.9180  142.6440 N   0  0  2  0  0  0  0  0  0  0  0  0
  190.7180  177.1890  142.4460 C   0  0  0  0  0  2  0  0  0  0  0  0
  187.7310  177.6630  145.5640 C   0  0  0  0  0  3  0  0  0  0  0  0
  186.1030  179.1110  141.9070 C   0  0  2  0  0  3  0  0  0  0  0  0
  190.9000  175.0420  143.4520 O   0  0  0  0  0  1  0  0  0  0  0  0
  184.3250  178.8640  144.3070 C   0  0  0  0  0  2  0  0  0  0  0  0
  188.9410  178.0770  147.7060 C   0  0  0  0  0  1  0  0  0  0  0  0
  187.5170  178.9640  141.3430 C   0  0  0  0  0  2  0  0  0  0  0  0
  185.5590  177.7610  142.4040 C   0  0  2  0  0  3  0  0  0  0  0  0
  188.7450  176.0540  143.4160 C   0  0  0  0  0  2  0  0  0  0  0  0
  186.6800  179.0300  147.2550 C   0  0  0  0  0  3  0  0  0  0  0  0
  188.4380  178.2290  142.3170 C   0  0  2  0  0  3  0  0  0  0  0  0
  189.7870  178.0620  141.6200 C   0  0  0  0  0  2  0  0  0  0  0  0
  184.2150  177.9170  143.1130 C   0  0  0  0  0  2  0  0  0  0  0  0
  185.5260  178.5900  145.1660 C   0  0  0  0  0  0  0  0  0  0  0  0
  185.5690  179.1940  146.4280 C   0  0  0  0  0  3  0  0  0  0  0  0
  185.0230  177.6520  139.7080 O   0  0  0  0  0  0  0  0  0  0  0  0
  184.7090  178.8700  139.8110 C   0  0  0  0  0  0  0  0  0  0  0  0
  185.2220  179.6590  140.8850 N   0  0  0  0  0  2  0  0  0  0  0  0
  181.0950  178.6900  139.0720 C   0  0  1  0  0  3  0  0  0  0  0  0
  182.6590  180.2730  139.4890 C   0  0  0  0  0  2  0  0  0  0  0  0
  184.2490  177.6130  137.1580 C   0  0  0  0  0  1  0  0  0  0  0  0
  179.9340  177.9100  139.6550 C   0  0  0  0  0  1  0  0  0  0  0  0
  181.7630  179.3750  140.1030 O   0  0  0  0  0  0  0  0  0  0  0  0
  183.2070  178.5270  137.7790 C   0  0  2  0  0  3  0  0  0  0  0  0
  183.8010  179.5140  138.8010 C   0  0  2  0  0  3  0  0  0  0  0  0
  182.0540  177.7240  138.3770 C   0  0  0  0  0  2  0  0  0  0  0  0
  1 14  1  0  0  0  0
  1  9  1  1  0  0  0
  2  3  1  1  0  0  0
  3 19  2  0  0  0  0
  3  7  1  0  0  0  0
  4 15  1  0  0  0  0
  4 11  1  0  0  0  0
  5  2  1  0  0  0  0
  5 14  1  1  0  0  0
  6  1  1  0  0  0  0
  7  4  2  0  0  0  0
  8 23  1  6  0  0  0
  8 13  1  0  0  0  0
 10 19  1  0  0  0  0
 12  8  1  0  0  0  0
 13 18  1  1  0  0  0
 13  2  1  0  0  0  0
 16 12  1  6  0  0  0
 16  5  1  0  0  0  0
 17 16  1  0  0  0  0
 17  6  1  0  0  0  0
 18 10  1  0  0  0  0
 19 20  1  0  0  0  0
 20 15  2  0  0  0  0
 21 22  2  0  0  0  0
 22 23  1  0  0  0  0
 24 27  1  1  0  0  0
 24 28  1  0  0  0  0
 25 28  1  0  0  0  0
 29 26  1  1  0  0  0
 29 31  1  0  0  0  0
 29 30  1  0  0  0  0
 30 25  1  0  0  0  0
 30 22  1  1  0  0  0
 31 24  1  0  0  0  0
M  END
>  <MODEL>
2

>  <REMARK>
 VINA RESULT:      -7.8      2.436      3.272
  Name = 
  2 active torsions:
  status: ('A' for Active; 'I' for Inactive)
    1  A    between atoms: C_5  and  C_30
    2  A    between atoms: C_10  and  N_16
                            x       y       z     vdW  Elec       q    Type
                         _______ _______ _______ _____ _____    ______ ____

>  <TORSDO>
F 2

$$$$
=
 OpenBabel11122411163D

 31 35  0  0  1  0  0  0  0  0999 V2000
  179.4180  179.4140  141.7820 C   0  0  1  0  0  3  0  0  0  0  0  0
  182.8860  179.2840  140.2880 C   0  0  2  0  0  3  0  0  0  0  0  0
  183.8220  178.8770  141.4360 C   0  0  0  0  0  0  0  0  0  0  0  0
  184.2750  178.6650  143.8230 C   0  0  0  0  0  0  0  0  0  0  0  0
  181.4560  178.9620  140.4700 N   0  0  2  0  0  0  0  0  0  0  0  0
  179.2470  177.9250  142.0290 C   0  0  0  0  0  2  0  0  0  0  0  0
  183.4010  178.9510  142.7740 C   0  0  0  0  0  3  0  0  0  0  0  0
  183.1220  177.1790  138.9130 C   0  0  2  0  0  3  0  0  0  0  0  0
  178.9310  180.1240  142.8780 O   0  0  0  0  0  1  0  0  0  0  0  0
  185.7140  178.4100  139.7770 C   0  0  0  0  0  2  0  0  0  0  0  0
  183.7990  178.7370  145.2280 C   0  0  0  0  0  1  0  0  0  0  0  0
  181.6830  176.8270  139.2960 C   0  0  0  0  0  2  0  0  0  0  0  0
  183.3510  178.7000  138.9470 C   0  0  2  0  0  3  0  0  0  0  0  0
  180.8980  179.7170  141.6000 C   0  0  0  0  0  2  0  0  0  0  0  0
  185.5990  178.3190  143.5520 C   0  0  0  0  0  3  0  0  0  0  0  0
  181.2680  177.5030  140.6030 C   0  0  2  0  0  3  0  0  0  0  0  0
  179.7980  177.1560  140.8390 C   0  0  0  0  0  2  0  0  0  0  0  0
  184.8190  179.0590  138.7230 C   0  0  0  0  0  2  0  0  0  0  0  0
  185.1790  178.5550  141.1730 C   0  0  0  0  0  0  0  0  0  0  0  0
  186.0460  178.2620  142.2310 C   0  0  0  0  0  3  0  0  0  0  0  0
  183.8060  174.4760  138.3200 O   0  0  0  0  0  0  0  0  0  0  0  0
  183.7480  175.2880  137.3560 C   0  0  0  0  0  0  0  0  0  0  0  0
  183.4180  176.6590  137.5860 N   0  0  0  0  0  2  0  0  0  0  0  0
  183.8680  172.0100  135.6580 C   0  0  1  0  0  3  0  0  0  0  0  0
  182.8640  174.0210  135.3840 C   0  0  0  0  0  2  0  0  0  0  0  0
  186.5230  174.6590  136.5010 C   0  0  0  0  0  1  0  0  0  0  0  0
  183.6700  170.5780  136.1110 C   0  0  0  0  0  1  0  0  0  0  0  0
  182.7530  172.7790  136.0400 O   0  0  0  0  0  0  0  0  0  0  0  0
  185.3300  174.0090  135.8200 C   0  0  2  0  0  3  0  0  0  0  0  0
  184.0370  174.8320  135.9530 C   0  0  2  0  0  3  0  0  0  0  0  0
  185.1370  172.5730  136.3000 C   0  0  0  0  0  2  0  0  0  0  0  0
  1  6  1  0  0  0  0
  1  9  1  1  0  0  0
  2  5  1  0  0  0  0
  2  3  1  1  0  0  0
  3  7  1  0  0  0  0
  4 11  1  0  0  0  0
  5 16  1  0  0  0  0
  5 14  1  1  0  0  0
  7  4  2  0  0  0  0
  8 23  1  6  0  0  0
  8 13  1  0  0  0  0
  8 12  1  0  0  0  0
 10 19  1  0  0  0  0
 13 18  1  1  0  0  0
 13  2  1  0  0  0  0
 14  1  1  0  0  0  0
 15  4  1  0  0  0  0
 16 12  1  6  0  0  0
 16 17  1  0  0  0  0
 17  6  1  0  0  0  0
 18 10  1  0  0  0  0
 19  3  2  0  0  0  0
 19 20  1  0  0  0  0
 20 15  2  0  0  0  0
 22 23  1  0  0  0  0
 22 21  2  0  0  0  0
 24 28  1  0  0  0  0
 24 27  1  1  0  0  0
 24 31  1  0  0  0  0
 25 30  1  0  0  0  0
 25 28  1  0  0  0  0
 29 30  1  0  0  0  0
 29 31  1  0  0  0  0
 29 26  1  1  0  0  0
 30 22  1  1  0  0  0
M  END
>  <MODEL>
3

>  <REMARK>
 VINA RESULT:      -6.9      4.204      7.108
  Name = 
  2 active torsions:
  status: ('A' for Active; 'I' for Inactive)
    1  A    between atoms: C_5  and  C_30
    2  A    between atoms: C_10  and  N_16
                            x       y       z     vdW  Elec       q    Type
                         _______ _______ _______ _____ _____    ______ ____

>  <TORSDO>
F 2

$$$$
=
 OpenBabel11122411163D

 31 35  0  0  1  0  0  0  0  0999 V2000
  189.0330  178.0170  136.1440 C   0  0  1  0  0  3  0  0  0  0  0  0
  185.4910  178.0900  137.4560 C   0  0  2  0  0  3  0  0  0  0  0  0
  185.0320  176.6250  137.5040 C   0  0  0  0  0  0  0  0  0  0  0  0
  185.2730  174.3070  136.7870 C   0  0  0  0  0  0  0  0  0  0  0  0
  186.9520  178.3130  137.4300 N   0  0  2  0  0  0  0  0  0  0  0  0
  189.6830  177.3560  137.3470 C   0  0  0  0  0  2  0  0  0  0  0  0
  185.7350  175.6230  136.8160 C   0  0  0  0  0  3  0  0  0  0  0  0
  185.5350  178.5000  139.9470 C   0  0  2  0  0  3  0  0  0  0  0  0
  189.5540  177.4650  134.9740 O   0  0  0  0  0  1  0  0  0  0  0  0
  183.0010  177.2700  138.9220 C   0  0  0  0  0  2  0  0  0  0  0  0
  186.0460  173.2640  136.0640 C   0  0  0  0  0  1  0  0  0  0  0  0
  187.0610  178.5400  139.8630 C   0  0  0  0  0  2  0  0  0  0  0  0
  184.8930  178.9070  138.6090 C   0  0  2  0  0  3  0  0  0  0  0  0
  187.5330  177.7710  136.1950 C   0  0  0  0  0  2  0  0  0  0  0  0
  184.0820  173.9720  137.4300 C   0  0  0  0  0  3  0  0  0  0  0  0
  187.5780  177.7670  138.6510 C   0  0  2  0  0  3  0  0  0  0  0  0
  189.0960  177.9480  138.6180 C   0  0  0  0  0  2  0  0  0  0  0  0
  183.3770  178.7210  138.6260 C   0  0  0  0  0  2  0  0  0  0  0  0
  183.8050  176.2800  138.1280 C   0  0  0  0  0  0  0  0  0  0  0  0
  183.3540  174.9560  138.0990 C   0  0  0  0  0  3  0  0  0  0  0  0
  184.8490  177.6810  142.5900 O   0  0  0  0  0  0  0  0  0  0  0  0
  184.7560  178.9090  142.3170 C   0  0  0  0  0  0  0  0  0  0  0  0
  185.0770  179.3850  141.0090 N   0  0  0  0  0  2  0  0  0  0  0  0
  184.6540  178.9320  146.0090 C   0  0  1  0  0  3  0  0  0  0  0  0
  185.4290  180.2390  144.3310 C   0  0  0  0  0  2  0  0  0  0  0  0
  181.9460  178.8960  143.2820 C   0  0  0  0  0  1  0  0  0  0  0  0
  185.0390  177.9360  147.0830 C   0  0  0  0  0  1  0  0  0  0  0  0
  185.7450  179.1330  145.1440 O   0  0  0  0  0  0  0  0  0  0  0  0
  183.0700  179.4170  144.1610 C   0  0  2  0  0  3  0  0  0  0  0  0
  184.2940  179.8910  143.3580 C   0  0  2  0  0  3  0  0  0  0  0  0
  183.4560  178.3940  145.2260 C   0  0  0  0  0  2  0  0  0  0  0  0
  1  9  1  6  0  0  0
  1 14  1  0  0  0  0
  1  6  1  0  0  0  0
  2  3  1  1  0  0  0
  2 13  1  0  0  0  0
  3 19  1  0  0  0  0
  4  7  1  0  0  0  0
  4 15  2  0  0  0  0
  5 14  1  6  0  0  0
  5  2  1  0  0  0  0
  5 16  1  0  0  0  0
  6 17  1  0  0  0  0
  7  3  2  0  0  0  0
  8 23  1  1  0  0  0
 11  4  1  0  0  0  0
 12  8  1  0  0  0  0
 13 18  1  1  0  0  0
 13  8  1  0  0  0  0
 15 20  1  0  0  0  0
 16 17  1  6  0  0  0
 16 12  1  0  0  0  0
 18 10  1  0  0  0  0
 19 10  1  0  0  0  0
 20 19  2  0  0  0  0
 22 21  2  0  0  0  0
 23 22  1  0  0  0  0
 24 27  1  1  0  0  0
 25 28  1  0  0  0  0
 28 24  1  0  0  0  0
 29 26  1  6  0  0  0
 29 31  1  0  0  0  0
 30 22  1  6  0  0  0
 30 29  1  0  0  0  0
 30 25  1  0  0  0  0
 31 24  1  0  0  0  0
M  END
>  <MODEL>
4

>  <REMARK>
 VINA RESULT:      -6.8      3.489      8.009
  Name = 
  2 active torsions:
  status: ('A' for Active; 'I' for Inactive)
    1  A    between atoms: C_5  and  C_30
    2  A    between atoms: C_10  and  N_16
                            x       y       z     vdW  Elec       q    Type
                         _______ _______ _______ _____ _____    ______ ____

>  <TORSDO>
F 2

$$$$
=
 OpenBabel11122411163D

 31 35  0  0  1  0  0  0  0  0999 V2000
  179.5190  179.2270  141.4040 C   0  0  1  0  0  3  0  0  0  0  0  0
  183.0860  179.2310  140.1570 C   0  0  2  0  0  3  0  0  0  0  0  0
  183.9530  178.8470  141.3660 C   0  0  0  0  0  0  0  0  0  0  0  0
  184.2450  178.6320  143.7770 C   0  0  0  0  0  0  0  0  0  0  0  0
  181.6580  178.8570  140.2360 N   0  0  2  0  0  0  0  0  0  0  0  0
  179.3830  177.7310  141.6300 C   0  0  0  0  0  2  0  0  0  0  0  0
  183.4370  178.8960  142.6710 C   0  0  0  0  0  3  0  0  0  0  0  0
  183.4910  177.1460  138.7910 C   0  0  2  0  0  3  0  0  0  0  0  0
  178.9310  179.9120  142.4660 O   0  0  0  0  0  1  0  0  0  0  0  0
  185.9720  178.4600  139.8420 C   0  0  0  0  0  2  0  0  0  0  0  0
  183.6680  178.6760  145.1460 C   0  0  0  0  0  1  0  0  0  0  0  0
  182.0430  176.7410  139.0690 C   0  0  0  0  0  2  0  0  0  0  0  0
  183.6640  178.6740  138.8480 C   0  0  2  0  0  3  0  0  0  0  0  0
  180.9960  179.5830  141.3280 C   0  0  0  0  0  2  0  0  0  0  0  0
  185.5950  178.3340  143.5980 C   0  0  0  0  0  3  0  0  0  0  0  0
  181.5140  177.3910  140.3480 C   0  0  2  0  0  3  0  0  0  0  0  0
  180.0440  176.9920  140.4780 C   0  0  0  0  0  2  0  0  0  0  0  0
  185.1300  179.0850  138.7300 C   0  0  0  0  0  2  0  0  0  0  0  0
  185.3350  178.5750  141.1980 C   0  0  0  0  0  0  0  0  0  0  0  0
  186.1360  178.3040  142.3120 C   0  0  0  0  0  3  0  0  0  0  0  0
  183.8650  174.4000  138.1210 O   0  0  0  0  0  0  0  0  0  0  0  0
  184.0610  175.2540  137.2130 C   0  0  0  0  0  0  0  0  0  0  0  0
  183.8990  176.6470  137.4850 N   0  0  0  0  0  2  0  0  0  0  0  0
  186.3930  176.5740  134.6720 C   0  0  1  0  0  3  0  0  0  0  0  0
  186.0010  174.6270  135.7580 C   0  0  0  0  0  2  0  0  0  0  0  0
  182.5730  176.1720  134.8110 C   0  0  0  0  0  1  0  0  0  0  0  0
  187.2930  177.7900  134.5940 C   0  0  0  0  0  1  0  0  0  0  0  0
  186.6690  175.8640  135.8550 O   0  0  0  0  0  0  0  0  0  0  0  0
  184.0400  175.7870  134.7200 C   0  0  2  0  0  3  0  0  0  0  0  0
  184.4810  174.8230  135.8360 C   0  0  2  0  0  3  0  0  0  0  0  0
  184.9320  177.0240  134.6590 C   0  0  0  0  0  2  0  0  0  0  0  0
  1  6  1  0  0  0  0
  1  9  1  1  0  0  0
  2  5  1  0  0  0  0
  2  3  1  1  0  0  0
  3  7  1  0  0  0  0
  4 11  1  0  0  0  0
  5 16  1  0  0  0  0
  5 14  1  1  0  0  0
  7  4  2  0  0  0  0
  8 23  1  6  0  0  0
  8 13  1  0  0  0  0
  8 12  1  0  0  0  0
 10 19  1  0  0  0  0
 13 18  1  1  0  0  0
 13  2  1  0  0  0  0
 14  1  1  0  0  0  0
 15  4  1  0  0  0  0
 16 12  1  6  0  0  0
 16 17  1  0  0  0  0
 17  6  1  0  0  0  0
 18 10  1  0  0  0  0
 19  3  2  0  0  0  0
 19 20  1  0  0  0  0
 20 15  2  0  0  0  0
 22 23  1  0  0  0  0
 22 21  2  0  0  0  0
 24 27  1  1  0  0  0
 24 28  1  0  0  0  0
 25 30  1  0  0  0  0
 25 28  1  0  0  0  0
 29 26  1  1  0  0  0
 29 30  1  0  0  0  0
 30 22  1  1  0  0  0
 31 24  1  0  0  0  0
 31 29  1  0  0  0  0
M  END
>  <MODEL>
5

>  <REMARK>
 VINA RESULT:      -6.6      4.050      6.897
  Name = 
  2 active torsions:
  status: ('A' for Active; 'I' for Inactive)
    1  A    between atoms: C_5  and  C_30
    2  A    between atoms: C_10  and  N_16
                            x       y       z     vdW  Elec       q    Type
                         _______ _______ _______ _____ _____    ______ ____

>  <TORSDO>
F 2

$$$$
=
 OpenBabel11122411163D

 31 35  0  0  1  0  0  0  0  0999 V2000
  183.5550  178.3940  143.2400 C   0  0  1  0  0  3  0  0  0  0  0  0
  183.1270  177.5340  139.5860 C   0  0  2  0  0  3  0  0  0  0  0  0
  182.2450  178.6440  138.9950 C   0  0  0  0  0  0  0  0  0  0  0  0
  180.6460  180.4600  139.2930 C   0  0  0  0  0  0  0  0  0  0  0  0
  183.8230  177.8590  140.8490 N   0  0  2  0  0  0  0  0  0  0  0  0
  184.4130  179.6340  143.0590 C   0  0  0  0  0  2  0  0  0  0  0  0
  181.5130  179.5070  139.8270 C   0  0  0  0  0  3  0  0  0  0  0  0
  185.2490  178.1060  138.3430 C   0  0  2  0  0  3  0  0  0  0  0  0
  182.6040  178.6280  144.2330 O   0  0  0  0  0  1  0  0  0  0  0  0
  182.8080  177.8770  136.6190 C   0  0  0  0  0  2  0  0  0  0  0  0
  179.8950  181.3700  140.1970 C   0  0  0  0  0  1  0  0  0  0  0  0
  185.8370  178.5910  139.6690 C   0  0  0  0  0  2  0  0  0  0  0  0
  184.1670  177.0380  138.5710 C   0  0  2  0  0  3  0  0  0  0  0  0
  182.8510  178.0830  141.9280 C   0  0  0  0  0  2  0  0  0  0  0  0
  180.4770  180.5530  137.9120 C   0  0  0  0  0  3  0  0  0  0  0  0
  184.7410  178.9990  140.6540 C   0  0  2  0  0  3  0  0  0  0  0  0
  185.4330  179.3780  141.9630 C   0  0  0  0  0  2  0  0  0  0  0  0
  183.4600  176.6580  137.2710 C   0  0  0  0  0  2  0  0  0  0  0  0
  182.0420  178.7260  137.5930 C   0  0  0  0  0  0  0  0  0  0  0  0
  181.1760  179.6900  137.0670 C   0  0  0  0  0  3  0  0  0  0  0  0
  187.1080  179.6640  136.8430 O   0  0  0  0  0  0  0  0  0  0  0  0
  187.2150  178.4080  136.7810 C   0  0  0  0  0  0  0  0  0  0  0  0
  186.3110  177.5700  137.5020 N   0  0  0  0  0  2  0  0  0  0  0  0
  188.0990  174.9370  135.8810 C   0  0  1  0  0  3  0  0  0  0  0  0
  187.6730  176.8990  134.8350 C   0  0  0  0  0  2  0  0  0  0  0  0
  189.8380  177.6620  137.9600 C   0  0  0  0  0  1  0  0  0  0  0  0
  187.5380  173.5760  136.2400 C   0  0  0  0  0  1  0  0  0  0  0  0
  187.0660  175.7530  135.3860 O   0  0  0  0  0  0  0  0  0  0  0  0
  189.2950  176.9340  136.7420 C   0  0  2  0  0  3  0  0  0  0  0  0
  188.2850  177.7720  135.9390 C   0  0  2  0  0  3  0  0  0  0  0  0
  188.7180  175.5730  137.1260 C   0  0  0  0  0  2  0  0  0  0  0  0
  1  9  1  1  0  0  0
  2  3  1  6  0  0  0
  2  5  1  0  0  0  0
  3  7  1  0  0  0  0
  4  7  2  0  0  0  0
  4 11  1  0  0  0  0
  5 14  1  1  0  0  0
  6  1  1  0  0  0  0
  8 23  1  6  0  0  0
  8 13  1  0  0  0  0
  8 12  1  0  0  0  0
 10 18  1  0  0  0  0
 10 19  1  0  0  0  0
 13 18  1  6  0  0  0
 13  2  1  0  0  0  0
 14  1  1  0  0  0  0
 15  4  1  0  0  0  0
 16 12  1  6  0  0  0
 16  5  1  0  0  0  0
 16 17  1  0  0  0  0
 17  6  1  0  0  0  0
 19  3  2  0  0  0  0
 20 19  1  0  0  0  0
 20 15  2  0  0  0  0
 22 21  2  0  0  0  0
 22 23  1  0  0  0  0
 24 27  1  1  0  0  0
 24 31  1  0  0  0  0
 25 28  1  0  0  0  0
 25 30  1  0  0  0  0
 28 24  1  0  0  0  0
 29 31  1  0  0  0  0
 29 26  1  1  0  0  0
 30 29  1  0  0  0  0
 30 22  1  1  0  0  0
M  END
>  <MODEL>
6

>  <REMARK>
 VINA RESULT:      -6.4      4.231      6.557
  Name = 
  2 active torsions:
  status: ('A' for Active; 'I' for Inactive)
    1  A    between atoms: C_5  and  C_30
    2  A    between atoms: C_10  and  N_16
                            x       y       z     vdW  Elec       q    Type
                         _______ _______ _______ _____ _____    ______ ____

>  <TORSDO>
F 2

$$$$
=
 OpenBabel11122411163D

 31 35  0  0  1  0  0  0  0  0999 V2000
  188.6550  177.7090  136.0110 C   0  0  1  0  0  3  0  0  0  0  0  0
  185.0970  176.4390  135.9880 C   0  0  2  0  0  3  0  0  0  0  0  0
  185.1620  174.9980  136.5150 C   0  0  0  0  0  0  0  0  0  0  0  0
  186.4350  172.9710  136.9770 C   0  0  0  0  0  0  0  0  0  0  0  0
  186.2430  177.3080  136.3250 N   0  0  2  0  0  0  0  0  0  0  0  0
  188.8430  177.7630  137.5170 C   0  0  0  0  0  2  0  0  0  0  0  0
  186.3830  174.3070  136.5810 C   0  0  0  0  0  3  0  0  0  0  0  0
  183.8430  177.4430  137.9360 C   0  0  2  0  0  3  0  0  0  0  0  0
  189.8060  177.1900  135.4190 O   0  0  0  0  0  1  0  0  0  0  0  0
  182.6200  174.9500  136.8060 C   0  0  0  0  0  2  0  0  0  0  0  0
  187.7420  172.2690  137.0530 C   0  0  0  0  0  1  0  0  0  0  0  0
  185.1290  178.1730  138.3240 C   0  0  0  0  0  2  0  0  0  0  0  0
  183.8050  177.1440  136.4280 C   0  0  2  0  0  3  0  0  0  0  0  0
  187.4710  176.8080  135.6920 C   0  0  0  0  0  2  0  0  0  0  0  0
  185.2590  172.2920  137.2950 C   0  0  0  0  0  3  0  0  0  0  0  0
  186.3670  177.4530  137.7900 C   0  0  2  0  0  3  0  0  0  0  0  0
  187.5780  178.3110  138.1570 C   0  0  0  0  0  2  0  0  0  0  0  0
  182.6050  176.2770  136.0500 C   0  0  0  0  0  2  0  0  0  0  0  0
  183.9690  174.2890  136.8090 C   0  0  0  0  0  0  0  0  0  0  0  0
  184.0320  172.9510  137.2130 C   0  0  0  0  0  3  0  0  0  0  0  0
  181.9510  176.7580  139.9570 O   0  0  0  0  0  0  0  0  0  0  0  0
  181.7810  177.8480  139.3440 C   0  0  0  0  0  0  0  0  0  0  0  0
  182.6890  178.2460  138.3150 N   0  0  0  0  0  2  0  0  0  0  0  0
  179.9470  178.6920  142.4370 C   0  0  1  0  0  3  0  0  0  0  0  0
  180.9970  179.7700  140.7450 C   0  0  0  0  0  2  0  0  0  0  0  0
  178.9960  176.8210  139.2160 C   0  0  0  0  0  1  0  0  0  0  0  0
  180.0560  178.2530  143.8820 C   0  0  0  0  0  1  0  0  0  0  0  0
  181.2030  179.1440  141.9900 O   0  0  0  0  0  0  0  0  0  0  0  0
  179.3610  177.9760  140.1340 C   0  0  2  0  0  3  0  0  0  0  0  0
  180.6160  178.7380  139.6740 C   0  0  2  0  0  3  0  0  0  0  0  0
  179.4820  177.5120  141.5830 C   0  0  0  0  0  2  0  0  0  0  0  0
  1  9  1  6  0  0  0
  1  6  1  0  0  0  0
  2  5  1  0  0  0  0
  2 13  1  0  0  0  0
  2  3  1  1  0  0  0
  3  7  2  0  0  0  0
  3 19  1  0  0  0  0
  4 11  1  0  0  0  0
  4 15  2  0  0  0  0
  5 14  1  1  0  0  0
  5 16  1  0  0  0  0
  6 17  1  0  0  0  0
  7  4  1  0  0  0  0
  8 23  1  6  0  0  0
  8 12  1  0  0  0  0
 10 19  1  0  0  0  0
 13 18  1  1  0  0  0
 13  8  1  0  0  0  0
 14  1  1  0  0  0  0
 16 17  1  6  0  0  0
 16 12  1  0  0  0  0
 18 10  1  0  0  0  0
 19 20  2  0  0  0  0
 20 15  1  0  0  0  0
 22 21  2  0  0  0  0
 23 22  1  0  0  0  0
 24 27  1  1  0  0  0
 25 28  1  0  0  0  0
 28 24  1  0  0  0  0
 29 26  1  6  0  0  0
 29 31  1  0  0  0  0
 30 22  1  1  0  0  0
 30 29  1  0  0  0  0
 30 25  1  0  0  0  0
 31 24  1  0  0  0  0
M  END
>  <MODEL>
7

>  <REMARK>
 VINA RESULT:      -6.3      5.631      8.664
  Name = 
  2 active torsions:
  status: ('A' for Active; 'I' for Inactive)
    1  A    between atoms: C_5  and  C_30
    2  A    between atoms: C_10  and  N_16
                            x       y       z     vdW  Elec       q    Type
                         _______ _______ _______ _____ _____    ______ ____

>  <TORSDO>
F 2

$$$$
=
 OpenBabel11122411163D

 31 35  0  0  1  0  0  0  0  0999 V2000
  191.5600  177.6270  140.2070 C   0  0  1  0  0  3  0  0  0  0  0  0
  189.1180  177.9300  137.3390 C   0  0  2  0  0  3  0  0  0  0  0  0
  189.0640  176.5400  136.6860 C   0  0  0  0  0  0  0  0  0  0  0  0
  190.0500  174.3440  136.3010 C   0  0  0  0  0  0  0  0  0  0  0  0
  189.6180  177.9760  138.7290 N   0  0  2  0  0  0  0  0  0  0  0  0
  190.7230  176.7200  141.0920 C   0  0  0  0  0  2  0  0  0  0  0  0
  190.0480  175.5750  136.9560 C   0  0  0  0  0  3  0  0  0  0  0  0
  186.7630  177.9540  138.2510 C   0  0  2  0  0  3  0  0  0  0  0  0
  192.8860  177.1990  140.2250 O   0  0  0  0  0  1  0  0  0  0  0  0
  186.9810  177.2060  135.3560 C   0  0  0  0  0  2  0  0  0  0  0  0
  191.0950  173.3360  136.6170 C   0  0  0  0  0  1  0  0  0  0  0  0
  187.3580  177.8220  139.6530 C   0  0  0  0  0  2  0  0  0  0  0  0
  187.7530  178.6310  137.2880 C   0  0  2  0  0  3  0  0  0  0  0  0
  191.0250  177.5590  138.7840 C   0  0  0  0  0  2  0  0  0  0  0  0
  189.0770  174.0630  135.3430 C   0  0  0  0  0  3  0  0  0  0  0  0
  188.7460  177.1820  139.6180 C   0  0  2  0  0  3  0  0  0  0  0  0
  189.2760  177.1820  141.0510 C   0  0  0  0  0  2  0  0  0  0  0  0
  187.2400  178.6290  135.8490 C   0  0  0  0  0  2  0  0  0  0  0  0
  188.0980  176.2560  135.6870 C   0  0  0  0  0  0  0  0  0  0  0  0
  188.1030  175.0160  135.0410 C   0  0  0  0  0  3  0  0  0  0  0  0
  184.1390  176.8430  138.1930 O   0  0  0  0  0  0  0  0  0  0  0  0
  184.2390  178.0970  138.2860 C   0  0  0  0  0  0  0  0  0  0  0  0
  185.5250  178.7180  138.3120 N   0  0  0  0  0  2  0  0  0  0  0  0
  180.8430  177.6780  139.6760 C   0  0  1  0  0  3  0  0  0  0  0  0
  182.5550  179.1540  139.8100 C   0  0  0  0  0  2  0  0  0  0  0  0
  182.2190  178.0520  136.1070 C   0  0  0  0  0  1  0  0  0  0  0  0
  180.1220  176.5490  140.3830 C   0  0  0  0  0  1  0  0  0  0  0  0
  182.0540  177.9490  140.3400 O   0  0  0  0  0  0  0  0  0  0  0  0
  181.8280  178.4290  137.5260 C   0  0  2  0  0  3  0  0  0  0  0  0
  183.0100  178.9600  138.3570 C   0  0  2  0  0  3  0  0  0  0  0  0
  181.1190  177.2740  138.2280 C   0  0  0  0  0  2  0  0  0  0  0  0
  1  9  1  6  0  0  0
  1  6  1  0  0  0  0
  2  3  1  1  0  0  0
  2  5  1  0  0  0  0
  3  7  1  0  0  0  0
  4 11  1  0  0  0  0
  4  7  2  0  0  0  0
  5 14  1  6  0  0  0
  5 16  1  0  0  0  0
  8 23  1  1  0  0  0
  8 12  1  0  0  0  0
 10 19  1  0  0  0  0
 10 18  1  0  0  0  0
 13 18  1  6  0  0  0
 13  2  1  0  0  0  0
 13  8  1  0  0  0  0
 14  1  1  0  0  0  0
 15  4  1  0  0  0  0
 16 12  1  1  0  0  0
 16 17  1  0  0  0  0
 17  6  1  0  0  0  0
 19  3  2  0  0  0  0
 20 15  2  0  0  0  0
 20 19  1  0  0  0  0
 21 22  2  0  0  0  0
 22 23  1  0  0  0  0
 24 28  1  0  0  0  0
 24 27  1  1  0  0  0
 25 28  1  0  0  0  0
 29 26  1  6  0  0  0
 29 31  1  0  0  0  0
 29 30  1  0  0  0  0
 30 22  1  1  0  0  0
 30 25  1  0  0  0  0
 31 24  1  0  0  0  0
M  END
>  <MODEL>
8

>  <REMARK>
 VINA RESULT:      -6.2      3.944      7.225
  Name = 
  2 active torsions:
  status: ('A' for Active; 'I' for Inactive)
    1  A    between atoms: C_5  and  C_30
    2  A    between atoms: C_10  and  N_16
                            x       y       z     vdW  Elec       q    Type
                         _______ _______ _______ _____ _____    ______ ____

>  <TORSDO>
F 2

$$$$
=
 OpenBabel11122411163D

 31 35  0  0  1  0  0  0  0  0999 V2000
  191.4370  176.4590  145.6850 C   0  0  1  0  0  3  0  0  0  0  0  0
  188.1900  176.8370  143.7900 C   0  0  2  0  0  3  0  0  0  0  0  0
  187.2950  177.7260  144.6660 C   0  0  0  0  0  0  0  0  0  0  0  0
  186.7450  178.6880  146.8380 C   0  0  0  0  0  0  0  0  0  0  0  0
  189.6410  176.9110  144.0580 N   0  0  2  0  0  0  0  0  0  0  0  0
  191.9190  177.8930  145.5520 C   0  0  0  0  0  2  0  0  0  0  0  0
  187.6000  177.9520  146.0180 C   0  0  0  0  0  3  0  0  0  0  0  0
  188.5190  178.4710  141.8940 C   0  0  2  0  0  3  0  0  0  0  0  0
  191.6820  176.0060  146.9800 O   0  0  0  0  0  1  0  0  0  0  0  0
  185.6660  178.0660  142.7210 C   0  0  0  0  0  2  0  0  0  0  0  0
  187.1010  178.9240  148.2610 C   0  0  0  0  0  1  0  0  0  0  0  0
  189.9710  178.6290  142.3470 C   0  0  0  0  0  2  0  0  0  0  0  0
  187.9560  177.0970  142.2950 C   0  0  2  0  0  3  0  0  0  0  0  0
  189.9420  176.4120  145.4060 C   0  0  0  0  0  2  0  0  0  0  0  0
  185.5520  179.1950  146.3240 C   0  0  0  0  0  3  0  0  0  0  0  0
  190.1390  178.2820  143.8260 C   0  0  2  0  0  3  0  0  0  0  0  0
  191.6310  178.3870  144.1440 C   0  0  0  0  0  2  0  0  0  0  0  0
  186.4630  176.9840  141.9930 C   0  0  0  0  0  2  0  0  0  0  0  0
  186.0640  178.2190  144.1620 C   0  0  0  0  0  0  0  0  0  0  0  0
  185.2160  178.9630  144.9900 C   0  0  0  0  0  3  0  0  0  0  0  0
  190.4440  177.5420  140.0080 O   0  0  0  0  0  0  0  0  0  0  0  0
  189.4310  178.1450  139.5580 C   0  0  0  0  0  0  0  0  0  0  0  0
  188.4330  178.6430  140.4500 N   0  0  0  0  0  2  0  0  0  0  0  0
  186.6170  177.8400  137.1860 C   0  0  1  0  0  3  0  0  0  0  0  0
  188.1550  179.3860  137.7950 C   0  0  0  0  0  2  0  0  0  0  0  0
  189.9300  175.9410  137.6290 C   0  0  0  0  0  1  0  0  0  0  0  0
  185.1680  177.4160  137.3140 C   0  0  0  0  0  1  0  0  0  0  0  0
  186.8910  178.8540  138.1210 O   0  0  0  0  0  0  0  0  0  0  0  0
  188.9750  177.0740  137.2900 C   0  0  2  0  0  3  0  0  0  0  0  0
  189.2640  178.3630  138.0800 C   0  0  2  0  0  3  0  0  0  0  0  0
  187.5220  176.6340  137.4400 C   0  0  0  0  0  2  0  0  0  0  0  0
  1  9  1  1  0  0  0
  2  5  1  0  0  0  0
  2  3  1  1  0  0  0
  3  7  1  0  0  0  0
  4 11  1  0  0  0  0
  5 14  1  1  0  0  0
  6  1  1  0  0  0  0
  7  4  2  0  0  0  0
  8 23  1  6  0  0  0
  8 13  1  0  0  0  0
  8 12  1  0  0  0  0
 10 19  1  0  0  0  0
 13 18  1  1  0  0  0
 13  2  1  0  0  0  0
 14  1  1  0  0  0  0
 15  4  1  0  0  0  0
 16 12  1  6  0  0  0
 16  5  1  0  0  0  0
 16 17  1  0  0  0  0
 17  6  1  0  0  0  0
 18 10  1  0  0  0  0
 19  3  2  0  0  0  0
 19 20  1  0  0  0  0
 20 15  2  0  0  0  0
 22 21  2  0  0  0  0
 22 23  1  0  0  0  0
 24 27  1  1  0  0  0
 24 31  1  0  0  0  0
 24 28  1  0  0  0  0
 25 30  1  0  0  0  0
 25 28  1  0  0  0  0
 29 31  1  0  0  0  0
 29 26  1  1  0  0  0
 29 30  1  0  0  0  0
 30 22  1  1  0  0  0
M  END
>  <MODEL>
9

>  <REMARK>
 VINA RESULT:      -6.1      1.217      1.615
  Name = 
  2 active torsions:
  status: ('A' for Active; 'I' for Inactive)
    1  A    between atoms: C_5  and  C_30
    2  A    between atoms: C_10  and  N_16
                            x       y       z     vdW  Elec       q    Type
                         _______ _______ _______ _____ _____    ______ ____

>  <TORSDO>
F 2

$$$$
