=
 OpenBabel11122411333D

 37 43  0  0  1  0  0  0  0  0999 V2000
  179.8460  178.7020  143.0780 C   0  0  0  0  0  0  0  0  0  0  0  0
  181.8710  177.3440  139.6450 C   0  0  2  0  0  3  0  0  0  0  0  0
  185.5330  178.4970  139.0280 O   0  0  0  0  0  0  0  0  0  0  0  0
  180.0230  177.0720  141.3800 C   0  0  2  0  0  3  0  0  0  0  0  0
  183.2850  177.7150  140.0210 C   0  0  1  0  0  3  0  0  0  0  0  0
  181.0590  177.9560  140.7580 C   0  0  1  0  0  3  0  0  0  0  0  0
  184.2240  177.9500  138.7750 C   0  0  2  0  0  3  0  0  0  0  0  0
  179.3710  176.3730  140.3510 O   0  0  0  0  0  0  0  0  0  0  0  0
  181.9340  178.3600  141.8230 N   0  0  2  0  0  0  0  0  0  0  0  0
  180.1710  177.8420  144.2910 C   0  0  0  0  0  1  0  0  0  0  0  0
  182.2320  175.2190  138.2710 C   0  0  0  0  0  2  0  0  0  0  0  0
  180.2560  175.3550  139.8900 C   0  0  0  0  0  2  0  0  0  0  0  0
  181.1580  179.3680  142.5350 C   0  0  0  0  0  2  0  0  0  0  0  0
  186.7480  179.1240  141.0180 O   0  0  0  0  0  0  0  0  0  0  0  0
  185.8460  178.2680  140.3680 C   0  0  1  0  0  3  0  0  0  0  0  0
  181.7070  175.8270  139.5810 C   0  0  2  0  0  3  0  0  0  0  0  0
  183.0890  178.8300  141.0800 C   0  0  1  0  0  3  0  0  0  0  0  0
  179.1370  177.9200  142.0970 O   0  0  0  0  0  0  0  0  0  0  0  0
  184.3480  176.6390  137.9580 C   0  0  1  0  0  3  0  0  0  0  0  0
  178.9310  179.8140  143.5430 C   0  0  0  0  0  1  0  0  0  0  0  0
  185.4070  179.5450  140.9980 C   0  0  1  0  0  3  0  0  0  0  0  0
  184.3310  179.0760  141.9760 C   0  0  2  0  0  3  0  0  0  0  0  0
  183.0100  176.1820  137.3580 C   0  0  0  0  0  2  0  0  0  0  0  0
  184.9870  177.2900  135.6300 C   0  0  0  0  0  3  0  0  0  0  0  0
  185.3680  176.7540  136.8640 C   0  0  0  0  0  0  0  0  0  0  0  0
  186.6920  176.3280  137.0580 C   0  0  0  0  0  3  0  0  0  0  0  0
  188.8990  176.0300  136.2110 F   0  0  0  0  0  0  0  0  0  0  0  0
  187.2360  176.9780  134.7900 C   0  0  0  0  0  3  0  0  0  0  0  0
  187.6230  176.4410  136.0210 C   0  0  0  0  0  0  0  0  0  0  0  0
  185.9190  177.4020  134.5940 C   0  0  0  0  0  3  0  0  0  0  0  0
  184.7010  177.9330  142.7140 O   0  0  0  0  0  0  0  0  0  0  0  0
  185.1700  178.4020  143.9490 C   0  0  1  0  0  3  0  0  0  0  0  0
  184.4790  178.9690  146.1700 O   0  0  0  0  0  1  0  0  0  0  0  0
  184.0060  178.6080  144.9090 C   0  0  0  0  0  2  0  0  0  0  0  0
  186.2040  177.4450  144.5500 C   0  0  0  0  0  2  0  0  0  0  0  0
  187.5170  177.4180  143.7750 C   0  0  0  0  0  2  0  0  0  0  0  0
  187.8990  176.1010  143.5220 O   0  0  0  0  0  1  0  0  0  0  0  0
  1 20  1  0  0  0  0
  1 10  1  0  0  0  0
  2  5  1  0  0  0  0
  2  6  1  0  0  0  0
  3 15  1  0  0  0  0
  4 18  1  0  0  0  0
  5 17  1  0  0  0  0
  6  4  1  0  0  0  0
  6  9  1  0  0  0  0
  7  3  1  0  0  0  0
  7  5  1  0  0  0  0
  8  4  1  0  0  0  0
  9 13  1  0  0  0  0
 11 16  1  0  0  0  0
 12  8  1  0  0  0  0
 13  1  1  0  0  0  0
 15 21  1  0  0  0  0
 15 14  1  0  0  0  0
 16  2  1  0  0  0  0
 16 12  1  0  0  0  0
 17  9  1  0  0  0  0
 17 22  1  0  0  0  0
 18  1  1  0  0  0  0
 19  7  1  0  0  0  0
 21 14  1  0  0  0  0
 21 22  1  0  0  0  0
 22 31  1  0  0  0  0
 23 19  1  0  0  0  0
 23 11  1  0  0  0  0
 24 25  1  0  0  0  0
 25 26  2  0  0  0  0
 25 19  1  0  0  0  0
 28 29  2  0  0  0  0
 29 27  1  0  0  0  0
 29 26  1  0  0  0  0
 30 28  1  0  0  0  0
 30 24  2  0  0  0  0
 31 32  1  0  0  0  0
 32 35  1  0  0  0  0
 32 34  1  0  0  0  0
 34 33  1  0  0  0  0
 36 35  1  0  0  0  0
 37 36  1  0  0  0  0
M  END
>  <MODEL>
1

>  <REMARK>
 VINA RESULT:      -6.9      0.000      0.000
  Name = 
  6 active torsions:
  status: ('A' for Active; 'I' for Inactive)
    1  A    between atoms: O_1  and  C_4
    2  A    between atoms: O_1  and  C_27
    3  A    between atoms: C_4  and  C_12
    4  A    between atoms: C_4  and  C_37
    5  A    between atoms: C_8  and  C_12
    6  A    between atoms: C_23  and  C_30
                            x       y       z     vdW  Elec       q    Type
                         _______ _______ _______ _____ _____    ______ ____

>  <TORSDO>
F 6

$$$$
=
 OpenBabel11122411333D

 37 43  0  0  1  0  0  0  0  0999 V2000
  190.7550  178.0080  143.4350 C   0  0  0  0  0  0  0  0  0  0  0  0
  186.7960  178.6000  142.1290 C   0  0  2  0  0  3  0  0  0  0  0  0
  186.0820  178.8640  138.3150 O   0  0  0  0  0  0  0  0  0  0  0  0
  188.4500  177.8130  143.9020 C   0  0  2  0  0  3  0  0  0  0  0  0
  186.9590  178.2660  140.6650 C   0  0  1  0  0  3  0  0  0  0  0  0
  188.2150  178.5760  142.6360 C   0  0  1  0  0  3  0  0  0  0  0  0
  185.8900  178.9640  139.7400 C   0  0  2  0  0  3  0  0  0  0  0  0
  187.4020  178.1080  144.7890 O   0  0  0  0  0  0  0  0  0  0  0  0
  189.0690  177.9810  141.6440 N   0  0  2  0  0  0  0  0  0  0  0  0
  191.1350  176.5340  143.4070 C   0  0  0  0  0  1  0  0  0  0  0  0
  184.4170  177.7890  142.5910 C   0  0  0  0  0  2  0  0  0  0  0  0
  186.2440  177.4090  144.3410 C   0  0  0  0  0  2  0  0  0  0  0  0
  190.3920  178.4880  141.9870 C   0  0  0  0  0  2  0  0  0  0  0  0
  187.7050  177.7690  136.9000 O   0  0  0  0  0  0  0  0  0  0  0  0
  186.9250  177.7800  138.0680 C   0  0  1  0  0  3  0  0  0  0  0  0
  185.9190  177.5640  142.8270 C   0  0  2  0  0  3  0  0  0  0  0  0
  188.4740  178.4830  140.4190 C   0  0  1  0  0  3  0  0  0  0  0  0
  189.7120  178.2280  144.4040 O   0  0  0  0  0  0  0  0  0  0  0  0
  184.4700  178.4710  140.1170 C   0  0  1  0  0  3  0  0  0  0  0  0
  191.9780  178.7820  143.8780 C   0  0  0  0  0  1  0  0  0  0  0  0
  188.2550  178.4480  138.0020 C   0  0  1  0  0  3  0  0  0  0  0  0
  189.0150  177.7790  139.1470 C   0  0  2  0  0  3  0  0  0  0  0  0
  184.0630  178.8610  141.5460 C   0  0  0  0  0  2  0  0  0  0  0  0
  182.8980  178.0790  138.2120 C   0  0  0  0  0  3  0  0  0  0  0  0
  183.4300  178.9650  139.1540 C   0  0  0  0  0  0  0  0  0  0  0  0
  182.9900  180.2980  139.1800 C   0  0  0  0  0  3  0  0  0  0  0  0
  181.6000  182.0210  138.2970 F   0  0  0  0  0  0  0  0  0  0  0  0
  181.4950  179.8440  137.3300 C   0  0  0  0  0  3  0  0  0  0  0  0
  182.0230  180.7350  138.2690 C   0  0  0  0  0  0  0  0  0  0  0  0
  181.9320  178.5160  137.3020 C   0  0  0  0  0  3  0  0  0  0  0  0
  188.8500  176.3800  139.1910 O   0  0  0  0  0  0  0  0  0  0  0  0
  190.0760  175.8300  138.7930 C   0  0  1  0  0  3  0  0  0  0  0  0
  190.2320  173.7940  137.5430 O   0  0  0  0  0  1  0  0  0  0  0  0
  189.9310  175.1510  137.4380 C   0  0  0  0  0  2  0  0  0  0  0  0
  191.1760  176.8960  138.7480 C   0  0  0  0  0  2  0  0  0  0  0  0
  192.4220  176.4400  137.9990 C   0  0  0  0  0  2  0  0  0  0  0  0
  193.5690  176.8440  138.6810 O   0  0  0  0  0  1  0  0  0  0  0  0
  1 20  1  0  0  0  0
  1 18  1  0  0  0  0
  2  6  1  0  0  0  0
  2 16  1  0  0  0  0
  3  7  1  0  0  0  0
  4 18  1  0  0  0  0
  4  8  1  0  0  0  0
  5  2  1  0  0  0  0
  6  4  1  0  0  0  0
  7 19  1  0  0  0  0
  7  5  1  0  0  0  0
  9 13  1  0  0  0  0
  9  6  1  0  0  0  0
 10  1  1  0  0  0  0
 11 16  1  0  0  0  0
 12  8  1  0  0  0  0
 13  1  1  0  0  0  0
 14 21  1  0  0  0  0
 14 15  1  0  0  0  0
 15  3  1  0  0  0  0
 16 12  1  0  0  0  0
 17  5  1  0  0  0  0
 17  9  1  0  0  0  0
 19 23  1  0  0  0  0
 21 15  1  0  0  0  0
 21 22  1  0  0  0  0
 22 31  1  0  0  0  0
 22 17  1  0  0  0  0
 23 11  1  0  0  0  0
 24 25  1  0  0  0  0
 25 26  2  0  0  0  0
 25 19  1  0  0  0  0
 28 29  2  0  0  0  0
 29 27  1  0  0  0  0
 29 26  1  0  0  0  0
 30 28  1  0  0  0  0
 30 24  2  0  0  0  0
 32 31  1  0  0  0  0
 34 33  1  0  0  0  0
 34 32  1  0  0  0  0
 35 32  1  0  0  0  0
 36 37  1  0  0  0  0
 36 35  1  0  0  0  0
M  END
>  <MODEL>
2

>  <REMARK>
 VINA RESULT:      -6.4      3.767      7.317
  Name = 
  6 active torsions:
  status: ('A' for Active; 'I' for Inactive)
    1  A    between atoms: O_1  and  C_4
    2  A    between atoms: O_1  and  C_27
    3  A    between atoms: C_4  and  C_12
    4  A    between atoms: C_4  and  C_37
    5  A    between atoms: C_8  and  C_12
    6  A    between atoms: C_23  and  C_30
                            x       y       z     vdW  Elec       q    Type
                         _______ _______ _______ _____ _____    ______ ____

>  <TORSDO>
F 6

$$$$
=
 OpenBabel11122411333D

 37 43  0  0  1  0  0  0  0  0999 V2000
  183.8740  178.6560  138.9350 C   0  0  0  0  0  0  0  0  0  0  0  0
  186.9060  176.5040  136.9590 C   0  0  2  0  0  3  0  0  0  0  0  0
  190.5970  176.9540  138.1000 O   0  0  0  0  0  0  0  0  0  0  0  0
  184.4600  176.7880  137.6160 C   0  0  2  0  0  3  0  0  0  0  0  0
  188.0360  176.6950  137.9420 C   0  0  1  0  0  3  0  0  0  0  0  0
  185.8250  177.3940  137.5160 C   0  0  1  0  0  3  0  0  0  0  0  0
  189.4650  176.5930  137.2840 C   0  0  2  0  0  3  0  0  0  0  0  0
  184.2190  176.0590  136.4410 O   0  0  0  0  0  0  0  0  0  0  0  0
  186.1810  177.8050  138.8460 N   0  0  2  0  0  0  0  0  0  0  0  0
  183.4210  177.9420  140.2010 C   0  0  0  0  0  1  0  0  0  0  0  0
  187.3990  174.1710  136.0400 C   0  0  0  0  0  2  0  0  0  0  0  0
  184.9810  174.8560  136.5120 C   0  0  0  0  0  2  0  0  0  0  0  0
  185.3960  179.0170  139.0480 C   0  0  0  0  0  2  0  0  0  0  0  0
  190.8710  177.6640  140.3910 O   0  0  0  0  0  0  0  0  0  0  0  0
  190.2070  176.8770  139.4370 C   0  0  1  0  0  3  0  0  0  0  0  0
  186.4750  175.0400  136.9070 C   0  0  2  0  0  3  0  0  0  0  0  0
  187.6170  177.9700  138.7180 C   0  0  1  0  0  3  0  0  0  0  0  0
  183.5450  177.8620  137.7790 O   0  0  0  0  0  0  0  0  0  0  0  0
  189.6690  175.1730  136.6960 C   0  0  1  0  0  3  0  0  0  0  0  0
  183.1040  179.9560  138.8480 C   0  0  0  0  0  1  0  0  0  0  0  0
  189.8090  178.2860  139.7120 C   0  0  1  0  0  3  0  0  0  0  0  0
  188.3330  178.1430  140.0830 C   0  0  2  0  0  3  0  0  0  0  0  0
  188.6910  174.8520  135.5570 C   0  0  0  0  0  2  0  0  0  0  0  0
  191.5100  175.6270  135.0650 C   0  0  0  0  0  3  0  0  0  0  0  0
  191.0750  174.9620  136.2160 C   0  0  0  0  0  0  0  0  0  0  0  0
  191.9550  174.1060  136.8980 C   0  0  0  0  0  3  0  0  0  0  0  0
  194.1060  173.0970  137.0870 F   0  0  0  0  0  0  0  0  0  0  0  0
  193.6870  174.5900  135.2760 C   0  0  0  0  0  3  0  0  0  0  0  0
  193.2590  173.9220  136.4270 C   0  0  0  0  0  0  0  0  0  0  0  0
  192.8130  175.4420  134.5950 C   0  0  0  0  0  3  0  0  0  0  0  0
  188.0760  177.0770  140.9690 O   0  0  0  0  0  0  0  0  0  0  0  0
  187.9720  177.6470  142.2450 C   0  0  1  0  0  3  0  0  0  0  0  0
  186.2590  178.2110  143.8200 O   0  0  0  0  0  1  0  0  0  0  0  0
  186.5690  178.1970  142.4610 C   0  0  0  0  0  2  0  0  0  0  0  0
  188.3300  176.6340  143.3380 C   0  0  0  0  0  2  0  0  0  0  0  0
  189.8320  176.4360  143.5030 C   0  0  0  0  0  2  0  0  0  0  0  0
  190.2460  175.2940  142.8190 O   0  0  0  0  0  1  0  0  0  0  0  0
  1 13  1  0  0  0  0
  1 10  1  0  0  0  0
  2  6  1  0  0  0  0
  2  5  1  0  0  0  0
  3 15  1  0  0  0  0
  4 18  1  0  0  0  0
  5 17  1  0  0  0  0
  6  4  1  0  0  0  0
  6  9  1  0  0  0  0
  7  5  1  0  0  0  0
  7  3  1  0  0  0  0
  8 12  1  0  0  0  0
  8  4  1  0  0  0  0
  9 13  1  0  0  0  0
 11 16  1  0  0  0  0
 12 16  1  0  0  0  0
 15 21  1  0  0  0  0
 15 14  1  0  0  0  0
 16  2  1  0  0  0  0
 17  9  1  0  0  0  0
 17 22  1  0  0  0  0
 18  1  1  0  0  0  0
 19  7  1  0  0  0  0
 20  1  1  0  0  0  0
 21 22  1  0  0  0  0
 21 14  1  0  0  0  0
 22 31  1  0  0  0  0
 23 11  1  0  0  0  0
 23 19  1  0  0  0  0
 24 25  1  0  0  0  0
 25 19  1  0  0  0  0
 25 26  2  0  0  0  0
 28 29  2  0  0  0  0
 29 26  1  0  0  0  0
 29 27  1  0  0  0  0
 30 24  2  0  0  0  0
 30 28  1  0  0  0  0
 31 32  1  0  0  0  0
 32 34  1  0  0  0  0
 32 35  1  0  0  0  0
 34 33  1  0  0  0  0
 35 36  1  0  0  0  0
 37 36  1  0  0  0  0
M  END
>  <MODEL>
3

>  <REMARK>
 VINA RESULT:      -6.4      3.335      5.347
  Name = 
  6 active torsions:
  status: ('A' for Active; 'I' for Inactive)
    1  A    between atoms: O_1  and  C_4
    2  A    between atoms: O_1  and  C_27
    3  A    between atoms: C_4  and  C_12
    4  A    between atoms: C_4  and  C_37
    5  A    between atoms: C_8  and  C_12
    6  A    between atoms: C_23  and  C_30
                            x       y       z     vdW  Elec       q    Type
                         _______ _______ _______ _____ _____    ______ ____

>  <TORSDO>
F 6

$$$$
=
 OpenBabel11122411333D

 37 43  0  0  1  0  0  0  0  0999 V2000
  180.3570  178.8540  142.7670 C   0  0  0  0  0  0  0  0  0  0  0  0
  182.5460  177.7890  139.3320 C   0  0  2  0  0  3  0  0  0  0  0  0
  186.3420  178.6200  139.1750 O   0  0  0  0  0  0  0  0  0  0  0  0
  180.5310  177.4730  140.8610 C   0  0  2  0  0  3  0  0  0  0  0  0
  183.9490  177.9500  139.8650 C   0  0  1  0  0  3  0  0  0  0  0  0
  181.6980  178.3200  140.4590 C   0  0  1  0  0  3  0  0  0  0  0  0
  185.0150  178.2580  138.7440 C   0  0  2  0  0  3  0  0  0  0  0  0
  179.9130  177.0010  139.6920 O   0  0  0  0  0  0  0  0  0  0  0  0
  182.5080  178.4730  141.6370 N   0  0  2  0  0  0  0  0  0  0  0  0
  180.4870  177.8000  143.8580 C   0  0  0  0  0  1  0  0  0  0  0  0
  182.8280  175.8550  137.6850 C   0  0  0  0  0  2  0  0  0  0  0  0
  180.7350  175.9710  139.1520 C   0  0  0  0  0  2  0  0  0  0  0  0
  181.7700  179.4460  142.4320 C   0  0  0  0  0  2  0  0  0  0  0  0
  187.4260  178.8250  141.3230 O   0  0  0  0  0  0  0  0  0  0  0  0
  186.5090  178.1700  140.4840 C   0  0  1  0  0  3  0  0  0  0  0  0
  182.2460  176.3230  139.0280 C   0  0  2  0  0  3  0  0  0  0  0  0
  183.7640  178.9170  141.0620 C   0  0  1  0  0  3  0  0  0  0  0  0
  179.6690  178.3000  141.6290 O   0  0  0  0  0  0  0  0  0  0  0  0
  185.0880  177.0710  137.7510 C   0  0  1  0  0  3  0  0  0  0  0  0
  179.5130  179.9800  143.3240 C   0  0  0  0  0  1  0  0  0  0  0  0
  186.1380  179.3850  141.2640 C   0  0  1  0  0  3  0  0  0  0  0  0
  184.9380  178.8990  142.0770 C   0  0  2  0  0  3  0  0  0  0  0  0
  183.7730  176.8490  136.9890 C   0  0  0  0  0  2  0  0  0  0  0  0
  185.9510  177.8290  135.5290 C   0  0  0  0  0  3  0  0  0  0  0  0
  186.2090  177.2310  136.7670 C   0  0  0  0  0  0  0  0  0  0  0  0
  187.5070  176.7850  137.0660 C   0  0  0  0  0  3  0  0  0  0  0  0
  189.7850  176.5110  136.4210 F   0  0  0  0  0  0  0  0  0  0  0  0
  188.2690  177.5400  134.8950 C   0  0  0  0  0  3  0  0  0  0  0  0
  188.5340  176.9410  136.1300 C   0  0  0  0  0  0  0  0  0  0  0  0
  186.9780  177.9840  134.5940 C   0  0  0  0  0  3  0  0  0  0  0  0
  185.1300  177.6300  142.6600 O   0  0  0  0  0  0  0  0  0  0  0  0
  185.3620  177.8590  144.0230 C   0  0  1  0  0  3  0  0  0  0  0  0
  187.3740  176.5730  143.8540 O   0  0  0  0  0  1  0  0  0  0  0  0
  186.8520  177.7780  144.3230 C   0  0  0  0  0  2  0  0  0  0  0  0
  184.7940  179.2120  144.4650 C   0  0  0  0  0  2  0  0  0  0  0  0
  183.7980  179.0970  145.6130 C   0  0  0  0  0  2  0  0  0  0  0  0
  184.4370  178.6340  146.7620 O   0  0  0  0  0  1  0  0  0  0  0  0
  1 20  1  0  0  0  0
  1 10  1  0  0  0  0
  2  5  1  0  0  0  0
  2  6  1  0  0  0  0
  3 15  1  0  0  0  0
  4 18  1  0  0  0  0
  5 17  1  0  0  0  0
  6  4  1  0  0  0  0
  6  9  1  0  0  0  0
  7  3  1  0  0  0  0
  7  5  1  0  0  0  0
  8  4  1  0  0  0  0
  9 13  1  0  0  0  0
 11 16  1  0  0  0  0
 12  8  1  0  0  0  0
 13  1  1  0  0  0  0
 15 21  1  0  0  0  0
 15 14  1  0  0  0  0
 16 12  1  0  0  0  0
 16  2  1  0  0  0  0
 17  9  1  0  0  0  0
 17 22  1  0  0  0  0
 18  1  1  0  0  0  0
 19  7  1  0  0  0  0
 21 14  1  0  0  0  0
 21 22  1  0  0  0  0
 22 31  1  0  0  0  0
 23 11  1  0  0  0  0
 23 19  1  0  0  0  0
 24 25  1  0  0  0  0
 25 26  2  0  0  0  0
 25 19  1  0  0  0  0
 28 29  2  0  0  0  0
 29 27  1  0  0  0  0
 29 26  1  0  0  0  0
 30 28  1  0  0  0  0
 30 24  2  0  0  0  0
 31 32  1  0  0  0  0
 32 34  1  0  0  0  0
 32 35  1  0  0  0  0
 33 34  1  0  0  0  0
 35 36  1  0  0  0  0
 36 37  1  0  0  0  0
M  END
>  <MODEL>
4

>  <REMARK>
 VINA RESULT:      -6.1      0.837      1.697
  Name = 
  6 active torsions:
  status: ('A' for Active; 'I' for Inactive)
    1  A    between atoms: O_1  and  C_4
    2  A    between atoms: O_1  and  C_27
    3  A    between atoms: C_4  and  C_12
    4  A    between atoms: C_4  and  C_37
    5  A    between atoms: C_8  and  C_12
    6  A    between atoms: C_23  and  C_30
                            x       y       z     vdW  Elec       q    Type
                         _______ _______ _______ _____ _____    ______ ____

>  <TORSDO>
F 6

$$$$
=
 OpenBabel11122411333D

 37 43  0  0  1  0  0  0  0  0999 V2000
  190.2380  177.5770  142.4570 C   0  0  0  0  0  0  0  0  0  0  0  0
  186.3070  178.6830  141.4340 C   0  0  2  0  0  3  0  0  0  0  0  0
  185.3600  179.0470  137.6790 O   0  0  0  0  0  0  0  0  0  0  0  0
  187.9670  177.6820  143.0890 C   0  0  2  0  0  3  0  0  0  0  0  0
  186.3190  178.3350  139.9650 C   0  0  1  0  0  3  0  0  0  0  0  0
  187.7430  178.4730  141.8380 C   0  0  1  0  0  3  0  0  0  0  0  0
  185.2860  179.1680  139.1140 C   0  0  2  0  0  3  0  0  0  0  0  0
  187.0330  178.1090  144.0470 O   0  0  0  0  0  0  0  0  0  0  0  0
  188.4380  177.7750  140.7920 N   0  0  2  0  0  0  0  0  0  0  0  0
  190.4200  176.0660  142.4120 C   0  0  0  0  0  1  0  0  0  0  0  0
  183.8820  178.1880  142.0710 C   0  0  0  0  0  2  0  0  0  0  0  0
  185.7650  177.5680  143.6880 C   0  0  0  0  0  2  0  0  0  0  0  0
  189.8370  178.1050  141.0360 C   0  0  0  0  0  2  0  0  0  0  0  0
  186.7200  177.7540  136.1600 O   0  0  0  0  0  0  0  0  0  0  0  0
  186.0350  177.8630  137.3810 C   0  0  1  0  0  3  0  0  0  0  0  0
  185.3540  177.7680  142.2000 C   0  0  2  0  0  3  0  0  0  0  0  0
  187.8270  178.3530  139.6100 C   0  0  1  0  0  3  0  0  0  0  0  0
  189.3050  177.9280  143.4970 O   0  0  0  0  0  0  0  0  0  0  0  0
  183.8440  178.8630  139.5950 C   0  0  1  0  0  3  0  0  0  0  0  0
  191.5800  178.1840  142.8060 C   0  0  0  0  0  1  0  0  0  0  0  0
  187.4320  178.3530  137.2140 C   0  0  1  0  0  3  0  0  0  0  0  0
  188.1800  177.5880  138.3070 C   0  0  2  0  0  3  0  0  0  0  0  0
  183.5950  179.2990  141.0470 C   0  0  0  0  0  2  0  0  0  0  0  0
  182.1600  178.6990  137.7540 C   0  0  0  0  0  3  0  0  0  0  0  0
  182.8110  179.4900  138.7060 C   0  0  0  0  0  0  0  0  0  0  0  0
  182.4930  180.8540  138.8110 C   0  0  0  0  0  3  0  0  0  0  0  0
  181.2250  182.7310  138.0710 F   0  0  0  0  0  0  0  0  0  0  0  0
  180.8830  180.6200  137.0180 C   0  0  0  0  0  3  0  0  0  0  0  0
  181.5300  181.4160  137.9670 C   0  0  0  0  0  0  0  0  0  0  0  0
  181.1980  179.2620  136.9110 C   0  0  0  0  0  3  0  0  0  0  0  0
  187.8370  176.2220  138.3720 O   0  0  0  0  0  0  0  0  0  0  0  0
  188.6240  175.5770  137.4080 C   0  0  1  0  0  3  0  0  0  0  0  0
  190.5410  174.1800  137.7310 O   0  0  0  0  0  1  0  0  0  0  0  0
  190.0660  175.4810  137.8870 C   0  0  0  0  0  2  0  0  0  0  0  0
  188.0710  174.1870  137.0770 C   0  0  0  0  0  2  0  0  0  0  0  0
  186.5470  174.1390  137.0550 C   0  0  0  0  0  2  0  0  0  0  0  0
  186.0860  173.1080  137.8720 O   0  0  0  0  0  1  0  0  0  0  0  0
  1 20  1  0  0  0  0
  1 18  1  0  0  0  0
  2  6  1  0  0  0  0
  2 16  1  0  0  0  0
  3  7  1  0  0  0  0
  4 18  1  0  0  0  0
  4  8  1  0  0  0  0
  5  2  1  0  0  0  0
  6  4  1  0  0  0  0
  7 19  1  0  0  0  0
  7  5  1  0  0  0  0
  9 13  1  0  0  0  0
  9  6  1  0  0  0  0
 10  1  1  0  0  0  0
 11 16  1  0  0  0  0
 12  8  1  0  0  0  0
 13  1  1  0  0  0  0
 14 21  1  0  0  0  0
 14 15  1  0  0  0  0
 15  3  1  0  0  0  0
 16 12  1  0  0  0  0
 17  5  1  0  0  0  0
 17  9  1  0  0  0  0
 19 23  1  0  0  0  0
 21 15  1  0  0  0  0
 21 22  1  0  0  0  0
 22 31  1  0  0  0  0
 22 17  1  0  0  0  0
 23 11  1  0  0  0  0
 24 25  1  0  0  0  0
 25 26  2  0  0  0  0
 25 19  1  0  0  0  0
 28 29  2  0  0  0  0
 29 27  1  0  0  0  0
 29 26  1  0  0  0  0
 30 28  1  0  0  0  0
 30 24  2  0  0  0  0
 32 34  1  0  0  0  0
 32 31  1  0  0  0  0
 33 34  1  0  0  0  0
 35 32  1  0  0  0  0
 36 35  1  0  0  0  0
 36 37  1  0  0  0  0
M  END
>  <MODEL>
5

>  <REMARK>
 VINA RESULT:      -6.1      3.677      7.182
  Name = 
  6 active torsions:
  status: ('A' for Active; 'I' for Inactive)
    1  A    between atoms: O_1  and  C_4
    2  A    between atoms: O_1  and  C_27
    3  A    between atoms: C_4  and  C_12
    4  A    between atoms: C_4  and  C_37
    5  A    between atoms: C_8  and  C_12
    6  A    between atoms: C_23  and  C_30
                            x       y       z     vdW  Elec       q    Type
                         _______ _______ _______ _____ _____    ______ ____

>  <TORSDO>
F 6

$$$$
=
 OpenBabel11122411333D

 37 43  0  0  1  0  0  0  0  0999 V2000
  182.2930  176.2670  136.7600 C   0  0  0  0  0  0  0  0  0  0  0  0
  186.1710  174.6570  136.4420 C   0  0  2  0  0  3  0  0  0  0  0  0
  189.2370  177.0040  136.9110 O   0  0  0  0  0  0  0  0  0  0  0  0
  183.6760  174.3580  136.8720 C   0  0  2  0  0  3  0  0  0  0  0  0
  186.9660  175.7890  137.0470 C   0  0  1  0  0  3  0  0  0  0  0  0
  184.7790  175.2320  136.3640 C   0  0  1  0  0  3  0  0  0  0  0  0
  188.4580  175.8480  136.5420 C   0  0  2  0  0  3  0  0  0  0  0  0
  183.9120  173.0500  136.4180 O   0  0  0  0  0  0  0  0  0  0  0  0
  184.7180  176.4450  137.1330 N   0  0  2  0  0  0  0  0  0  0  0  0
  181.8370  176.3370  138.2110 C   0  0  0  0  0  1  0  0  0  0  0  0
  187.5310  172.6170  137.1600 C   0  0  0  0  0  2  0  0  0  0  0  0
  184.9760  172.5060  137.1940 C   0  0  0  0  0  2  0  0  0  0  0  0
  183.5750  177.1480  136.5640 C   0  0  0  0  0  2  0  0  0  0  0  0
  188.8150  178.9700  138.2470 O   0  0  0  0  0  0  0  0  0  0  0  0
  188.6310  177.5970  138.0180 C   0  0  1  0  0  3  0  0  0  0  0  0
  186.2310  173.4170  137.3310 C   0  0  2  0  0  3  0  0  0  0  0  0
  186.0280  177.0120  136.8750 C   0  0  1  0  0  3  0  0  0  0  0  0
  182.4620  174.8920  136.3650 O   0  0  0  0  0  0  0  0  0  0  0  0
  189.2030  174.5550  136.9600 C   0  0  1  0  0  3  0  0  0  0  0  0
  181.1940  176.8680  135.9110 C   0  0  0  0  0  1  0  0  0  0  0  0
  187.7720  178.6270  137.3690 C   0  0  1  0  0  3  0  0  0  0  0  0
  186.3680  178.2050  137.8060 C   0  0  2  0  0  3  0  0  0  0  0  0
  188.6200  173.2920  136.3080 C   0  0  0  0  0  2  0  0  0  0  0  0
  191.1170  174.3970  135.3580 C   0  0  0  0  0  3  0  0  0  0  0  0
  190.6720  174.6320  136.6630 C   0  0  0  0  0  0  0  0  0  0  0  0
  191.6030  174.9290  137.6710 C   0  0  0  0  0  3  0  0  0  0  0  0
  193.8620  175.2780  138.3430 F   0  0  0  0  0  0  0  0  0  0  0  0
  193.4050  174.7540  136.0630 C   0  0  0  0  0  3  0  0  0  0  0  0
  192.9670  174.9900  137.3690 C   0  0  0  0  0  0  0  0  0  0  0  0
  192.4800  174.4570  135.0580 C   0  0  0  0  0  3  0  0  0  0  0  0
  186.2810  177.8690  139.1720 O   0  0  0  0  0  0  0  0  0  0  0  0
  185.7680  179.0010  139.8190 C   0  0  1  0  0  3  0  0  0  0  0  0
  184.0510  180.5020  139.0890 O   0  0  0  0  0  1  0  0  0  0  0  0
  184.2970  179.1840  139.4700 C   0  0  0  0  0  2  0  0  0  0  0  0
  185.9560  178.9070  141.3370 C   0  0  0  0  0  2  0  0  0  0  0  0
  187.2510  178.2110  141.7380 C   0  0  0  0  0  2  0  0  0  0  0  0
  188.3480  179.0030  141.4020 O   0  0  0  0  0  1  0  0  0  0  0  0
  1 10  1  0  0  0  0
  2  5  1  0  0  0  0
  2 16  1  0  0  0  0
  3 15  1  0  0  0  0
  6  2  1  0  0  0  0
  6  4  1  0  0  0  0
  6  9  1  0  0  0  0
  7  3  1  0  0  0  0
  7 19  1  0  0  0  0
  7  5  1  0  0  0  0
  8  4  1  0  0  0  0
  8 12  1  0  0  0  0
 11 16  1  0  0  0  0
 12 16  1  0  0  0  0
 13  1  1  0  0  0  0
 13  9  1  0  0  0  0
 15 14  1  0  0  0  0
 17  5  1  0  0  0  0
 17  9  1  0  0  0  0
 17 22  1  0  0  0  0
 18  1  1  0  0  0  0
 18  4  1  0  0  0  0
 20  1  1  0  0  0  0
 21 22  1  0  0  0  0
 21 15  1  0  0  0  0
 21 14  1  0  0  0  0
 22 31  1  0  0  0  0
 23 19  1  0  0  0  0
 23 11  1  0  0  0  0
 24 25  1  0  0  0  0
 25 19  1  0  0  0  0
 25 26  2  0  0  0  0
 28 29  2  0  0  0  0
 29 26  1  0  0  0  0
 29 27  1  0  0  0  0
 30 24  2  0  0  0  0
 30 28  1  0  0  0  0
 31 32  1  0  0  0  0
 32 35  1  0  0  0  0
 33 34  1  0  0  0  0
 34 32  1  0  0  0  0
 35 36  1  0  0  0  0
 37 36  1  0  0  0  0
M  END
>  <MODEL>
6

>  <REMARK>
 VINA RESULT:      -6.1      3.487      5.741
  Name = 
  6 active torsions:
  status: ('A' for Active; 'I' for Inactive)
    1  A    between atoms: O_1  and  C_4
    2  A    between atoms: O_1  and  C_27
    3  A    between atoms: C_4  and  C_12
    4  A    between atoms: C_4  and  C_37
    5  A    between atoms: C_8  and  C_12
    6  A    between atoms: C_23  and  C_30
                            x       y       z     vdW  Elec       q    Type
                         _______ _______ _______ _____ _____    ______ ____

>  <TORSDO>
F 6

$$$$
=
 OpenBabel11122411333D

 37 43  0  0  1  0  0  0  0  0999 V2000
  192.0080  176.3870  137.7460 C   0  0  0  0  0  0  0  0  0  0  0  0
  188.5260  177.9870  139.4900 C   0  0  2  0  0  3  0  0  0  0  0  0
  185.1770  177.8260  137.5190 O   0  0  0  0  0  0  0  0  0  0  0  0
  190.8730  177.0200  139.7170 C   0  0  2  0  0  3  0  0  0  0  0  0
  187.4850  177.3800  138.5810 C   0  0  1  0  0  3  0  0  0  0  0  0
  189.8200  177.5960  138.8230 C   0  0  1  0  0  3  0  0  0  0  0  0
  186.1510  178.2190  138.5070 C   0  0  2  0  0  3  0  0  0  0  0  0
  190.9050  177.7780  140.8980 O   0  0  0  0  0  0  0  0  0  0  0  0
  189.5590  176.6030  137.8170 N   0  0  2  0  0  0  0  0  0  0  0  0
  192.1080  174.8860  137.9800 C   0  0  0  0  0  1  0  0  0  0  0  0
  187.2900  178.0690  141.7250 C   0  0  0  0  0  2  0  0  0  0  0  0
  189.7640  177.4220  141.6730 C   0  0  0  0  0  2  0  0  0  0  0  0
  190.7090  176.7110  136.9290 C   0  0  0  0  0  2  0  0  0  0  0  0
  185.0440  176.0510  135.8880 O   0  0  0  0  0  0  0  0  0  0  0  0
  185.4380  176.5040  137.1570 C   0  0  1  0  0  3  0  0  0  0  0  0
  188.4120  177.4180  140.9020 C   0  0  2  0  0  3  0  0  0  0  0  0
  188.2840  177.0570  137.2930 C   0  0  1  0  0  3  0  0  0  0  0  0
  192.0990  177.0870  139.0020 O   0  0  0  0  0  0  0  0  0  0  0  0
  185.4900  178.2760  139.9070 C   0  0  1  0  0  3  0  0  0  0  0  0
  193.1930  176.7920  136.8960 C   0  0  0  0  0  1  0  0  0  0  0  0
  186.2940  176.6910  135.9520 C   0  0  1  0  0  3  0  0  0  0  0  0
  187.6000  176.0160  136.3690 C   0  0  2  0  0  3  0  0  0  0  0  0
  186.3530  179.0070  140.9460 C   0  0  0  0  0  2  0  0  0  0  0  0
  183.0850  178.3320  140.5900 C   0  0  0  0  0  3  0  0  0  0  0  0
  184.1300  178.9080  139.8600 C   0  0  0  0  0  0  0  0  0  0  0  0
  183.8900  180.0600  139.0940 C   0  0  0  0  0  3  0  0  0  0  0  0
  182.3840  181.7380  138.3240 F   0  0  0  0  0  0  0  0  0  0  0  0
  181.5720  180.0460  139.7950 C   0  0  0  0  0  3  0  0  0  0  0  0
  182.6120  180.6270  139.0630 C   0  0  0  0  0  0  0  0  0  0  0  0
  181.8080  178.8990  140.5580 C   0  0  0  0  0  3  0  0  0  0  0  0
  187.4120  174.7700  137.0030 O   0  0  0  0  0  0  0  0  0  0  0  0
  187.4830  173.8030  135.9910 C   0  0  1  0  0  3  0  0  0  0  0  0
  189.4050  173.0810  137.2230 O   0  0  0  0  0  1  0  0  0  0  0  0
  188.8820  173.2030  135.9370 C   0  0  0  0  0  2  0  0  0  0  0  0
  186.4320  172.7080  136.1930 C   0  0  0  0  0  2  0  0  0  0  0  0
  185.7780  172.7520  137.5690 C   0  0  0  0  0  2  0  0  0  0  0  0
  184.4330  173.1010  137.4530 O   0  0  0  0  0  1  0  0  0  0  0  0
  1 10  1  0  0  0  0
  1 18  1  0  0  0  0
  2 16  1  0  0  0  0
  3  7  1  0  0  0  0
  4  8  1  0  0  0  0
  5  2  1  0  0  0  0
  6  2  1  0  0  0  0
  6  4  1  0  0  0  0
  7  5  1  0  0  0  0
  7 19  1  0  0  0  0
  8 12  1  0  0  0  0
  9  6  1  0  0  0  0
 13  1  1  0  0  0  0
 13  9  1  0  0  0  0
 14 21  1  0  0  0  0
 14 15  1  0  0  0  0
 15  3  1  0  0  0  0
 16 12  1  0  0  0  0
 16 11  1  0  0  0  0
 17  9  1  0  0  0  0
 17  5  1  0  0  0  0
 18  4  1  0  0  0  0
 19 23  1  0  0  0  0
 20  1  1  0  0  0  0
 21 22  1  0  0  0  0
 21 15  1  0  0  0  0
 22 31  1  0  0  0  0
 22 17  1  0  0  0  0
 23 11  1  0  0  0  0
 25 19  1  0  0  0  0
 25 24  2  0  0  0  0
 26 25  1  0  0  0  0
 27 29  1  0  0  0  0
 28 30  2  0  0  0  0
 29 26  2  0  0  0  0
 29 28  1  0  0  0  0
 30 24  1  0  0  0  0
 32 35  1  0  0  0  0
 32 31  1  0  0  0  0
 34 32  1  0  0  0  0
 34 33  1  0  0  0  0
 35 36  1  0  0  0  0
 37 36  1  0  0  0  0
M  END
>  <MODEL>
7

>  <REMARK>
 VINA RESULT:      -5.8      3.938      8.678
  Name = 
  6 active torsions:
  status: ('A' for Active; 'I' for Inactive)
    1  A    between atoms: O_1  and  C_4
    2  A    between atoms: O_1  and  C_27
    3  A    between atoms: C_4  and  C_12
    4  A    between atoms: C_4  and  C_37
    5  A    between atoms: C_8  and  C_12
    6  A    between atoms: C_23  and  C_30
                            x       y       z     vdW  Elec       q    Type
                         _______ _______ _______ _____ _____    ______ ____

>  <TORSDO>
F 6

$$$$
=
 OpenBabel11122411333D

 37 43  0  0  1  0  0  0  0  0999 V2000
  189.1950  176.9390  135.8640 C   0  0  0  0  0  0  0  0  0  0  0  0
  186.1370  178.3660  138.3820 C   0  0  2  0  0  3  0  0  0  0  0  0
  182.4780  177.2040  137.7600 O   0  0  0  0  0  0  0  0  0  0  0  0
  188.5990  177.8600  137.9530 C   0  0  2  0  0  3  0  0  0  0  0  0
  185.0370  177.3980  138.0180 C   0  0  1  0  0  3  0  0  0  0  0  0
  187.2210  178.0250  137.3910 C   0  0  1  0  0  3  0  0  0  0  0  0
  183.5890  177.9760  138.2580 C   0  0  2  0  0  3  0  0  0  0  0  0
  188.8130  178.8840  138.8900 O   0  0  0  0  0  0  0  0  0  0  0  0
  186.9010  176.7850  136.7390 N   0  0  2  0  0  0  0  0  0  0  0  0
  189.7010  175.5780  136.3200 C   0  0  0  0  0  1  0  0  0  0  0  0
  185.6530  178.8100  140.8510 C   0  0  0  0  0  2  0  0  0  0  0  0
  188.0740  178.5600  140.0640 C   0  0  0  0  0  2  0  0  0  0  0  0
  187.6720  176.8440  135.5030 C   0  0  0  0  0  2  0  0  0  0  0  0
  182.2660  175.0800  136.6320 O   0  0  0  0  0  0  0  0  0  0  0  0
  182.9120  175.8900  137.5790 C   0  0  1  0  0  3  0  0  0  0  0  0
  186.5900  178.1550  139.8240 C   0  0  2  0  0  3  0  0  0  0  0  0
  185.4600  176.8920  136.6160 C   0  0  1  0  0  3  0  0  0  0  0  0
  189.5000  177.9360  136.8590 O   0  0  0  0  0  0  0  0  0  0  0  0
  183.3890  178.2770  139.7650 C   0  0  1  0  0  3  0  0  0  0  0  0
  189.9410  177.2980  134.5960 C   0  0  0  0  0  1  0  0  0  0  0  0
  183.2960  175.9010  136.1390 C   0  0  1  0  0  3  0  0  0  0  0  0
  184.7850  175.5600  136.1940 C   0  0  2  0  0  3  0  0  0  0  0  0
  184.3360  179.3680  140.2870 C   0  0  0  0  0  2  0  0  0  0  0  0
  181.1850  177.7930  140.8420 C   0  0  0  0  0  3  0  0  0  0  0  0
  181.9720  178.6590  140.0780 C   0  0  0  0  0  0  0  0  0  0  0  0
  181.4260  179.8660  139.6120 C   0  0  0  0  0  3  0  0  0  0  0  0
  179.5770  181.3620  139.4630 F   0  0  0  0  0  0  0  0  0  0  0  0
  179.3190  179.3270  140.6770 C   0  0  0  0  0  3  0  0  0  0  0  0
  180.1010  180.1980  139.9130 C   0  0  0  0  0  0  0  0  0  0  0  0
  179.8610  178.1250  141.1420 C   0  0  0  0  0  3  0  0  0  0  0  0
  185.0870  174.4990  137.0710 O   0  0  0  0  0  0  0  0  0  0  0  0
  185.6910  173.5060  136.2870 C   0  0  1  0  0  3  0  0  0  0  0  0
  187.5390  171.9850  136.2060 O   0  0  0  0  0  1  0  0  0  0  0  0
  186.9480  172.9880  136.9740 C   0  0  0  0  0  2  0  0  0  0  0  0
  184.7200  172.3570  135.9980 C   0  0  0  0  0  2  0  0  0  0  0  0
  183.8680  171.9760  137.2040 C   0  0  0  0  0  2  0  0  0  0  0  0
  182.6100  171.5430  136.7870 O   0  0  0  0  0  1  0  0  0  0  0  0
  1 10  1  0  0  0  0
  1 18  1  0  0  0  0
  2 16  1  0  0  0  0
  3  7  1  0  0  0  0
  4  8  1  0  0  0  0
  5  7  1  0  0  0  0
  5  2  1  0  0  0  0
  6  4  1  0  0  0  0
  6  2  1  0  0  0  0
  7 19  1  0  0  0  0
  8 12  1  0  0  0  0
  9  6  1  0  0  0  0
 13  1  1  0  0  0  0
 13  9  1  0  0  0  0
 14 15  1  0  0  0  0
 15  3  1  0  0  0  0
 16 12  1  0  0  0  0
 16 11  1  0  0  0  0
 17  9  1  0  0  0  0
 17  5  1  0  0  0  0
 18  4  1  0  0  0  0
 19 25  1  0  0  0  0
 19 23  1  0  0  0  0
 20  1  1  0  0  0  0
 21 22  1  0  0  0  0
 21 14  1  0  0  0  0
 21 15  1  0  0  0  0
 22 17  1  0  0  0  0
 22 31  1  0  0  0  0
 23 11  1  0  0  0  0
 24 30  1  0  0  0  0
 25 24  2  0  0  0  0
 26 29  2  0  0  0  0
 26 25  1  0  0  0  0
 27 29  1  0  0  0  0
 28 30  2  0  0  0  0
 29 28  1  0  0  0  0
 32 34  1  0  0  0  0
 32 31  1  0  0  0  0
 33 34  1  0  0  0  0
 35 32  1  0  0  0  0
 35 36  1  0  0  0  0
 37 36  1  0  0  0  0
M  END
>  <MODEL>
8

>  <REMARK>
 VINA RESULT:      -5.5      3.676      8.385
  Name = 
  6 active torsions:
  status: ('A' for Active; 'I' for Inactive)
    1  A    between atoms: O_1  and  C_4
    2  A    between atoms: O_1  and  C_27
    3  A    between atoms: C_4  and  C_12
    4  A    between atoms: C_4  and  C_37
    5  A    between atoms: C_8  and  C_12
    6  A    between atoms: C_23  and  C_30
                            x       y       z     vdW  Elec       q    Type
                         _______ _______ _______ _____ _____    ______ ____

>  <TORSDO>
F 6

$$$$
=
 OpenBabel11122411333D

 37 43  0  0  1  0  0  0  0  0999 V2000
  188.6260  176.8620  147.5530 C   0  0  0  0  0  0  0  0  0  0  0  0
  189.9120  177.1840  143.5570 C   0  0  2  0  0  3  0  0  0  0  0  0
  187.2580  177.5520  140.7390 O   0  0  0  0  0  0  0  0  0  0  0  0
  190.3630  177.4170  146.0550 C   0  0  2  0  0  3  0  0  0  0  0  0
  188.6340  177.6690  142.9170 C   0  0  1  0  0  3  0  0  0  0  0  0
  189.4830  176.8800  144.9700 C   0  0  1  0  0  3  0  0  0  0  0  0
  188.5220  177.3050  141.3870 C   0  0  2  0  0  3  0  0  0  0  0  0
  191.6990  177.2090  145.6770 O   0  0  0  0  0  0  0  0  0  0  0  0
  188.1760  177.4300  145.2020 N   0  0  2  0  0  0  0  0  0  0  0  0
  188.3710  178.2310  148.1670 C   0  0  0  0  0  1  0  0  0  0  0  0
  191.6870  178.3540  142.1380 C   0  0  0  0  0  2  0  0  0  0  0  0
  192.0180  178.1610  144.6670 C   0  0  0  0  0  2  0  0  0  0  0  0
  187.6740  176.6470  146.3250 C   0  0  0  0  0  2  0  0  0  0  0  0
  185.1530  178.5010  141.4450 O   0  0  0  0  0  0  0  0  0  0  0  0
  186.5560  178.4840  141.5030 C   0  0  1  0  0  3  0  0  0  0  0  0
  190.9890  178.2660  143.5040 C   0  0  2  0  0  3  0  0  0  0  0  0
  187.5420  177.2090  143.9160 C   0  0  1  0  0  3  0  0  0  0  0  0
  190.0250  176.7150  147.2430 O   0  0  0  0  0  0  0  0  0  0  0  0
  189.6630  177.9990  140.5990 C   0  0  1  0  0  3  0  0  0  0  0  0
  188.2640  175.8250  148.5950 C   0  0  0  0  0  1  0  0  0  0  0  0
  185.7200  177.5960  142.3590 C   0  0  1  0  0  3  0  0  0  0  0  0
  186.1920  177.9590  143.7670 C   0  0  2  0  0  3  0  0  0  0  0  0
  191.0580  177.5110  141.0150 C   0  0  0  0  0  2  0  0  0  0  0  0
  189.1070  178.9340  138.3480 C   0  0  0  0  0  3  0  0  0  0  0  0
  189.5020  177.8350  139.1170 C   0  0  0  0  0  0  0  0  0  0  0  0
  189.7360  176.5980  138.4930 C   0  0  0  0  0  3  0  0  0  0  0  0
  189.8010  175.2760  136.5110 F   0  0  0  0  0  0  0  0  0  0  0  0
  189.1800  177.5720  136.3470 C   0  0  0  0  0  3  0  0  0  0  0  0
  189.5740  176.4700  137.1100 C   0  0  0  0  0  0  0  0  0  0  0  0
  188.9460  178.8040  136.9650 C   0  0  0  0  0  3  0  0  0  0  0  0
  186.3180  179.3480  143.9780 O   0  0  0  0  0  0  0  0  0  0  0  0
  185.2680  179.7090  144.8330 C   0  0  1  0  0  3  0  0  0  0  0  0
  183.0340  179.5000  143.9970 O   0  0  0  0  0  1  0  0  0  0  0  0
  184.1390  180.3490  144.0370 C   0  0  0  0  0  2  0  0  0  0  0  0
  184.7540  178.5010  145.6240 C   0  0  0  0  0  2  0  0  0  0  0  0
  184.9600  178.6390  147.1280 C   0  0  0  0  0  2  0  0  0  0  0  0
  185.6460  179.8180  147.4140 O   0  0  0  0  0  1  0  0  0  0  0  0
  1 10  1  0  0  0  0
  1 20  1  0  0  0  0
  2  6  1  0  0  0  0
  3  7  1  0  0  0  0
  3 15  1  0  0  0  0
  4 18  1  0  0  0  0
  5  2  1  0  0  0  0
  5 17  1  0  0  0  0
  6  9  1  0  0  0  0
  6  4  1  0  0  0  0
  7  5  1  0  0  0  0
  8  4  1  0  0  0  0
  9 13  1  0  0  0  0
 11 16  1  0  0  0  0
 12  8  1  0  0  0  0
 13  1  1  0  0  0  0
 14 15  1  0  0  0  0
 14 21  1  0  0  0  0
 15 21  1  0  0  0  0
 16  2  1  0  0  0  0
 16 12  1  0  0  0  0
 17  9  1  0  0  0  0
 18  1  1  0  0  0  0
 19 23  1  0  0  0  0
 19  7  1  0  0  0  0
 21 22  1  0  0  0  0
 22 17  1  0  0  0  0
 22 31  1  0  0  0  0
 23 11  1  0  0  0  0
 24 25  1  0  0  0  0
 25 19  1  0  0  0  0
 26 25  2  0  0  0  0
 27 29  1  0  0  0  0
 28 30  1  0  0  0  0
 28 29  2  0  0  0  0
 29 26  1  0  0  0  0
 30 24  2  0  0  0  0
 31 32  1  0  0  0  0
 32 35  1  0  0  0  0
 33 34  1  0  0  0  0
 34 32  1  0  0  0  0
 35 36  1  0  0  0  0
 36 37  1  0  0  0  0
M  END
>  <MODEL>
9

>  <REMARK>
 VINA RESULT:      -5.5      3.925      7.068
  Name = 
  6 active torsions:
  status: ('A' for Active; 'I' for Inactive)
    1  A    between atoms: O_1  and  C_4
    2  A    between atoms: O_1  and  C_27
    3  A    between atoms: C_4  and  C_12
    4  A    between atoms: C_4  and  C_37
    5  A    between atoms: C_8  and  C_12
    6  A    between atoms: C_23  and  C_30
                            x       y       z     vdW  Elec       q    Type
                         _______ _______ _______ _____ _____    ______ ____

>  <TORSDO>
F 6

$$$$
