=
 OpenBabel11122410393D

 32 37  0  0  1  0  0  0  0  0999 V2000
  190.8540  175.6530  138.5590 O   0  0  0  0  0  0  0  0  0  0  0  0
  189.1810  177.6200  142.8920 N   0  0  1  0  0  0  0  0  0  0  0  0
  192.1870  175.7970  146.3550 C   0  0  0  0  0  3  0  0  0  0  0  0
  191.3300  176.2930  147.3390 C   0  0  0  0  0  3  0  0  0  0  0  0
  186.7840  178.1170  143.5630 C   0  0  0  0  0  0  0  0  0  0  0  0
  186.0030  178.7350  144.7070 C   0  0  1  0  0  3  0  0  0  0  0  0
  189.9250  177.6960  140.5700 C   0  0  1  0  0  3  0  0  0  0  0  0
  191.4570  176.9540  142.2430 C   0  0  0  0  0  2  0  0  0  0  0  0
  185.7280  178.7160  147.0260 C   0  0  2  0  0  3  0  0  0  0  0  0
  192.1850  177.0600  139.9950 C   0  0  0  0  0  2  0  0  0  0  0  0
  191.8570  175.9390  145.0050 C   0  0  0  0  0  3  0  0  0  0  0  0
  190.2700  176.6530  143.1640 C   0  0  1  0  0  3  0  0  0  0  0  0
  190.6740  176.5920  144.6260 C   0  0  0  0  0  0  0  0  0  0  0  0
  188.5540  177.7860  145.2220 C   0  0  2  0  0  3  0  0  0  0  0  0
  184.3980  178.3300  146.3990 C   0  0  0  0  0  2  0  0  0  0  0  0
  189.6290  176.3370  138.3520 C   0  0  0  0  0  2  0  0  0  0  0  0
  191.0370  176.7720  140.8550 N   0  0  2  0  0  0  0  0  0  0  0  0
  184.7030  178.0130  144.9580 C   0  0  0  0  0  2  0  0  0  0  0  0
  189.4650  177.6810  139.1010 C   0  0  0  0  0  2  0  0  0  0  0  0
  191.9170  176.5780  138.5630 C   0  0  1  0  0  3  0  0  0  0  0  0
  190.1350  176.9190  146.9750 C   0  0  0  0  0  3  0  0  0  0  0  0
  189.7870  177.0410  145.6240 C   0  0  0  0  0  0  0  0  0  0  0  0
  187.4950  177.6340  146.1260 O   0  0  0  0  0  0  0  0  0  0  0  0
  188.7580  177.3870  141.5060 C   0  0  0  0  0  2  0  0  0  0  0  0
  186.3070  178.1580  142.4390 O   0  0  0  0  0  0  0  0  0  0  0  0
  185.6140  179.9690  147.6290 O   0  0  0  0  0  1  0  0  0  0  0  0
  188.0790  177.3650  143.8370 C   0  0  2  0  0  3  0  0  0  0  0  0
  186.7470  178.7660  145.9810 N   0  0  1  0  0  0  0  0  0  0  0  0
  193.1740  175.9390  137.9990 C   0  0  0  0  0  2  0  0  0  0  0  0
  193.3750  176.3440  136.5800 C   0  0  0  0  0  0  0  0  0  0  0  0
  194.3940  177.0050  136.2510 O   0  0  0  0  0  0  0  0  0  0  0  0
  192.4320  175.9530  135.5880 N   0  0  0  0  0  1  0  0  0  0  0  0
  1 20  1  0  0  0  0
  2 24  1  6  0  0  0
  2 12  1  0  0  0  0
  2 27  1  0  0  0  0
  3  4  1  0  0  0  0
  5  6  1  0  0  0  0
  6 18  1  1  0  0  0
  6 28  1  0  0  0  0
  7 19  1  6  0  0  0
  7 17  1  0  0  0  0
  7 24  1  0  0  0  0
  9 26  1  6  0  0  0
 11  3  2  0  0  0  0
 12  8  1  6  0  0  0
 12 13  1  0  0  0  0
 13 11  1  0  0  0  0
 13 22  2  0  0  0  0
 14 22  1  1  0  0  0
 14 23  1  0  0  0  0
 15  9  1  0  0  0  0
 16  1  1  0  0  0  0
 16 19  1  0  0  0  0
 17 10  1  6  0  0  0
 17  8  1  0  0  0  0
 18 15  1  0  0  0  0
 20 29  1  1  0  0  0
 20 10  1  0  0  0  0
 21  4  2  0  0  0  0
 22 21  1  0  0  0  0
 25  5  2  0  0  0  0
 27  5  1  6  0  0  0
 27 14  1  0  0  0  0
 28 23  1  6  0  0  0
 28  9  1  0  0  0  0
 30 29  1  0  0  0  0
 31 30  2  0  0  0  0
 32 30  1  0  0  0  0
M  END
>  <MODEL>
1

>  <REMARK>
 VINA RESULT:     -10.3      0.000      0.000
  Name = 
  2 active torsions:
  status: ('A' for Active; 'I' for Inactive)
    1  A    between atoms: C_20  and  C_29
    2  A    between atoms: C_29  and  C_30
                            x       y       z     vdW  Elec       q    Type
                         _______ _______ _______ _____ _____    ______ ____

>  <TORSDO>
F 2

$$$$
=
 OpenBabel11122410393D

 32 37  0  0  1  0  0  0  0  0999 V2000
  182.1190  180.4310  139.8670 O   0  0  0  0  0  0  0  0  0  0  0  0
  185.9160  177.9740  142.1000 N   0  0  1  0  0  0  0  0  0  0  0  0
  185.2000  178.6580  146.9350 C   0  0  0  0  0  3  0  0  0  0  0  0
  186.4660  178.1250  147.1830 C   0  0  0  0  0  3  0  0  0  0  0  0
  188.3110  177.7270  141.2930 C   0  0  0  0  0  0  0  0  0  0  0  0
  189.6010  177.0340  141.6830 C   0  0  1  0  0  3  0  0  0  0  0  0
  184.0420  178.2160  140.5590 C   0  0  1  0  0  3  0  0  0  0  0  0
  183.6320  178.3990  142.9030 C   0  0  0  0  0  2  0  0  0  0  0  0
  191.0820  176.6670  143.4520 C   0  0  2  0  0  3  0  0  0  0  0  0
  181.8110  178.6000  141.4070 C   0  0  0  0  0  2  0  0  0  0  0  0
  184.7540  178.8180  145.6200 C   0  0  0  0  0  3  0  0  0  0  0  0
  185.1190  178.7000  143.1160 C   0  0  1  0  0  3  0  0  0  0  0  0
  185.5650  178.4310  144.5420 C   0  0  0  0  0  0  0  0  0  0  0  0
  187.7040  177.4790  143.6520 C   0  0  2  0  0  3  0  0  0  0  0  0
  191.8530  177.3570  142.3380 C   0  0  0  0  0  2  0  0  0  0  0  0
  183.0570  179.9870  138.9020 C   0  0  0  0  0  2  0  0  0  0  0  0
  183.2330  178.8940  141.5870 N   0  0  2  0  0  0  0  0  0  0  0  0
  190.8110  177.8840  141.3860 C   0  0  0  0  0  2  0  0  0  0  0  0
  183.6370  178.5690  139.1160 C   0  0  0  0  0  2  0  0  0  0  0  0
  181.2520  179.3710  140.2040 C   0  0  1  0  0  3  0  0  0  0  0  0
  187.2930  177.7620  146.1170 C   0  0  0  0  0  3  0  0  0  0  0  0
  186.8620  177.9440  144.7970 C   0  0  0  0  0  0  0  0  0  0  0  0
  189.0790  177.6200  143.8830 O   0  0  0  0  0  0  0  0  0  0  0  0
  185.5190  178.5180  140.7960 C   0  0  0  0  0  2  0  0  0  0  0  0
  188.1080  177.9650  140.1120 O   0  0  0  0  0  0  0  0  0  0  0  0
  191.5380  175.3570  143.5940 O   0  0  0  0  0  1  0  0  0  0  0  0
  187.3470  178.2140  142.3660 C   0  0  2  0  0  3  0  0  0  0  0  0
  189.6620  176.6580  143.1090 N   0  0  1  0  0  0  0  0  0  0  0  0
  179.8710  179.9070  140.5420 C   0  0  0  0  0  2  0  0  0  0  0  0
  179.6440  179.8740  142.0140 C   0  0  0  0  0  0  0  0  0  0  0  0
  180.0530  180.8200  142.7360 O   0  0  0  0  0  0  0  0  0  0  0  0
  178.9330  178.7900  142.6010 N   0  0  0  0  0  1  0  0  0  0  0  0
  1 20  1  0  0  0  0
  2 24  1  6  0  0  0
  2 27  1  0  0  0  0
  2 12  1  0  0  0  0
  3  4  1  0  0  0  0
  5  6  1  0  0  0  0
  6 18  1  1  0  0  0
  6 28  1  0  0  0  0
  7 19  1  6  0  0  0
  7 24  1  0  0  0  0
  7 17  1  0  0  0  0
  9 26  1  6  0  0  0
 11  3  2  0  0  0  0
 12  8  1  1  0  0  0
 12 13  1  0  0  0  0
 13 22  2  0  0  0  0
 13 11  1  0  0  0  0
 14 23  1  1  0  0  0
 14 22  1  0  0  0  0
 15  9  1  0  0  0  0
 16 19  1  0  0  0  0
 16  1  1  0  0  0  0
 17 10  1  6  0  0  0
 17  8  1  0  0  0  0
 18 15  1  0  0  0  0
 20 29  1  1  0  0  0
 20 10  1  0  0  0  0
 21  4  2  0  0  0  0
 22 21  1  0  0  0  0
 25  5  2  0  0  0  0
 27  5  1  6  0  0  0
 27 14  1  0  0  0  0
 28  9  1  0  0  0  0
 28 23  1  1  0  0  0
 29 30  1  0  0  0  0
 30 32  1  0  0  0  0
 30 31  2  0  0  0  0
M  END
>  <MODEL>
2

>  <REMARK>
 VINA RESULT:      -9.6      3.922      8.081
  Name = 
  2 active torsions:
  status: ('A' for Active; 'I' for Inactive)
    1  A    between atoms: C_20  and  C_29
    2  A    between atoms: C_29  and  C_30
                            x       y       z     vdW  Elec       q    Type
                         _______ _______ _______ _____ _____    ______ ____

>  <TORSDO>
F 2

$$$$
=
 OpenBabel11122410393D

 32 37  0  0  1  0  0  0  0  0999 V2000
  189.1380  176.0630  137.5450 O   0  0  0  0  0  0  0  0  0  0  0  0
  188.3610  177.8350  142.2030 N   0  0  1  0  0  0  0  0  0  0  0  0
  191.9720  175.8640  144.9280 C   0  0  0  0  0  3  0  0  0  0  0  0
  191.3280  176.3150  146.0820 C   0  0  0  0  0  3  0  0  0  0  0  0
  186.1450  178.3000  143.3510 C   0  0  0  0  0  0  0  0  0  0  0  0
  185.6080  178.8660  144.6510 C   0  0  1  0  0  3  0  0  0  0  0  0
  188.6370  178.0140  139.7860 C   0  0  1  0  0  3  0  0  0  0  0  0
  190.4610  177.2010  141.0920 C   0  0  0  0  0  2  0  0  0  0  0  0
  185.7920  178.7450  146.9760 C   0  0  2  0  0  3  0  0  0  0  0  0
  190.7360  177.4060  138.7520 C   0  0  0  0  0  2  0  0  0  0  0  0
  191.3850  176.0650  143.6760 C   0  0  0  0  0  3  0  0  0  0  0  0
  189.4750  176.8580  142.2140 C   0  0  1  0  0  3  0  0  0  0  0  0
  190.1560  176.7320  143.5650 C   0  0  0  0  0  0  0  0  0  0  0  0
  188.2030  177.8980  144.6150 C   0  0  2  0  0  3  0  0  0  0  0  0
  184.3610  178.3850  146.6060 C   0  0  0  0  0  2  0  0  0  0  0  0
  187.9020  176.7540  137.6120 C   0  0  0  0  0  2  0  0  0  0  0  0
  189.7750  177.0800  139.8080 N   0  0  2  0  0  0  0  0  0  0  0  0
  184.3770  178.1320  145.1210 C   0  0  0  0  0  2  0  0  0  0  0  0
  187.8980  178.0640  138.4360 C   0  0  0  0  0  2  0  0  0  0  0  0
  190.1880  176.9880  137.3810 C   0  0  1  0  0  3  0  0  0  0  0  0
  190.0900  176.9550  145.9860 C   0  0  0  0  0  3  0  0  0  0  0  0
  189.4850  177.1370  144.7360 C   0  0  0  0  0  0  0  0  0  0  0  0
  187.3400  177.7040  145.7020 O   0  0  0  0  0  0  0  0  0  0  0  0
  187.6730  177.6640  140.9170 C   0  0  0  0  0  2  0  0  0  0  0  0
  185.4580  178.3900  142.3460 O   0  0  0  0  0  0  0  0  0  0  0  0
  185.8070  179.9690  147.6440 O   0  0  0  0  0  1  0  0  0  0  0  0
  187.4630  177.5370  143.3330 C   0  0  2  0  0  3  0  0  0  0  0  0
  186.5870  178.8420  145.7560 N   0  0  1  0  0  0  0  0  0  0  0  0
  191.3060  176.3760  136.5550 C   0  0  0  0  0  2  0  0  0  0  0  0
  191.1990  174.8910  136.5480 C   0  0  0  0  0  0  0  0  0  0  0  0
  190.6930  174.2990  135.5590 O   0  0  0  0  0  0  0  0  0  0  0  0
  191.6990  174.1350  137.6460 N   0  0  0  0  0  1  0  0  0  0  0  0
  1 16  1  0  0  0  0
  2 24  1  6  0  0  0
  2 12  1  0  0  0  0
  2 27  1  0  0  0  0
  3  4  1  0  0  0  0
  5  6  1  0  0  0  0
  6 18  1  1  0  0  0
  6 28  1  0  0  0  0
  7 19  1  6  0  0  0
  7 17  1  0  0  0  0
  7 24  1  0  0  0  0
  9 26  1  6  0  0  0
 11  3  2  0  0  0  0
 12  8  1  6  0  0  0
 12 13  1  0  0  0  0
 13 11  1  0  0  0  0
 13 22  2  0  0  0  0
 14 22  1  1  0  0  0
 14 23  1  0  0  0  0
 15  9  1  0  0  0  0
 16 19  1  0  0  0  0
 17 10  1  6  0  0  0
 17  8  1  0  0  0  0
 18 15  1  0  0  0  0
 20 29  1  6  0  0  0
 20  1  1  0  0  0  0
 20 10  1  0  0  0  0
 21  4  2  0  0  0  0
 22 21  1  0  0  0  0
 25  5  2  0  0  0  0
 27  5  1  6  0  0  0
 27 14  1  0  0  0  0
 28 23  1  6  0  0  0
 28  9  1  0  0  0  0
 30 29  1  0  0  0  0
 30 32  1  0  0  0  0
 31 30  2  0  0  0  0
M  END
>  <MODEL>
3

>  <REMARK>
 VINA RESULT:      -9.3      1.476      1.634
  Name = 
  2 active torsions:
  status: ('A' for Active; 'I' for Inactive)
    1  A    between atoms: C_20  and  C_29
    2  A    between atoms: C_29  and  C_30
                            x       y       z     vdW  Elec       q    Type
                         _______ _______ _______ _____ _____    ______ ____

>  <TORSDO>
F 2

$$$$
=
 OpenBabel11122410393D

 32 37  0  0  1  0  0  0  0  0999 V2000
  189.3940  178.4350  145.9510 O   0  0  0  0  0  0  0  0  0  0  0  0
  185.2490  177.9760  143.1140 N   0  0  1  0  0  0  0  0  0  0  0  0
  186.8410  178.4140  138.4630 C   0  0  0  0  0  3  0  0  0  0  0  0
  185.5160  178.5020  138.0330 C   0  0  0  0  0  3  0  0  0  0  0  0
  182.9000  178.7890  143.6310 C   0  0  0  0  0  0  0  0  0  0  0  0
  181.5030  178.7490  143.0440 C   0  0  1  0  0  3  0  0  0  0  0  0
  186.8140  177.3190  144.8650 C   0  0  1  0  0  3  0  0  0  0  0  0
  187.5770  177.3710  142.6050 C   0  0  0  0  0  2  0  0  0  0  0  0
  180.2660  179.1260  141.1000 C   0  0  2  0  0  3  0  0  0  0  0  0
  189.0830  176.7030  144.3020 C   0  0  0  0  0  2  0  0  0  0  0  0
  187.1280  178.3220  139.8280 C   0  0  0  0  0  3  0  0  0  0  0  0
  186.4120  178.3040  142.2570 C   0  0  1  0  0  3  0  0  0  0  0  0
  186.0930  178.3010  140.7730 C   0  0  0  0  0  0  0  0  0  0  0  0
  183.6530  178.3670  141.3400 C   0  0  2  0  0  3  0  0  0  0  0  0
  179.7270  180.0530  142.1780 C   0  0  0  0  0  2  0  0  0  0  0  0
  188.2350  178.4240  146.7660 C   0  0  0  0  0  2  0  0  0  0  0  0
  187.9680  177.6000  143.9940 N   0  0  2  0  0  0  0  0  0  0  0  0
  180.7550  180.0370  143.2790 C   0  0  0  0  0  2  0  0  0  0  0  0
  187.1320  177.4150  146.3690 C   0  0  0  0  0  2  0  0  0  0  0  0
  189.7510  177.1120  145.6210 C   0  0  1  0  0  3  0  0  0  0  0  0
  184.4770  178.5120  138.9670 C   0  0  0  0  0  3  0  0  0  0  0  0
  184.7610  178.4450  140.3370 C   0  0  0  0  0  0  0  0  0  0  0  0
  182.5220  179.1080  140.9730 O   0  0  0  0  0  0  0  0  0  0  0  0
  185.6620  178.2500  144.4960 C   0  0  0  0  0  2  0  0  0  0  0  0
  183.0240  178.8780  144.8430 O   0  0  0  0  0  0  0  0  0  0  0  0
  179.3090  178.1570  140.7970 O   0  0  0  0  0  1  0  0  0  0  0  0
  184.1160  178.8310  142.7150 C   0  0  2  0  0  3  0  0  0  0  0  0
  181.4790  178.4810  141.5930 N   0  0  1  0  0  0  0  0  0  0  0  0
  191.2600  176.9920  145.4820 C   0  0  0  0  0  2  0  0  0  0  0  0
  191.8400  176.2980  146.6650 C   0  0  0  0  0  0  0  0  0  0  0  0
  192.3870  175.1730  146.5300 O   0  0  0  0  0  0  0  0  0  0  0  0
  191.8070  176.9210  147.9450 N   0  0  0  0  0  1  0  0  0  0  0  0
  1 16  1  0  0  0  0
  2 24  1  1  0  0  0
  3 11  1  0  0  0  0
  4  3  2  0  0  0  0
  4 21  1  0  0  0  0
  5 25  2  0  0  0  0
  6 18  1  6  0  0  0
  6  5  1  0  0  0  0
  7 24  1  6  0  0  0
  7 19  1  0  0  0  0
  9 26  1  1  0  0  0
  9 28  1  0  0  0  0
  9 15  1  0  0  0  0
 10 20  1  0  0  0  0
 11 13  2  0  0  0  0
 12  8  1  6  0  0  0
 12  2  1  0  0  0  0
 13 12  1  0  0  0  0
 14 22  1  6  0  0  0
 14 27  1  0  0  0  0
 15 18  1  0  0  0  0
 17  8  1  6  0  0  0
 17 10  1  0  0  0  0
 17  7  1  0  0  0  0
 19 16  1  0  0  0  0
 20 29  1  6  0  0  0
 20  1  1  0  0  0  0
 21 22  2  0  0  0  0
 22 13  1  0  0  0  0
 23 14  1  0  0  0  0
 27  2  1  0  0  0  0
 27  5  1  1  0  0  0
 28 23  1  6  0  0  0
 28  6  1  0  0  0  0
 29 30  1  0  0  0  0
 30 32  1  0  0  0  0
 31 30  2  0  0  0  0
M  END
>  <MODEL>
4

>  <REMARK>
 VINA RESULT:      -8.8      4.158      7.368
  Name = 
  2 active torsions:
  status: ('A' for Active; 'I' for Inactive)
    1  A    between atoms: C_20  and  C_29
    2  A    between atoms: C_29  and  C_30
                            x       y       z     vdW  Elec       q    Type
                         _______ _______ _______ _____ _____    ______ ____

>  <TORSDO>
F 2

$$$$
=
 OpenBabel11122410393D

 32 37  0  0  1  0  0  0  0  0999 V2000
  189.3360  176.3800  139.0830 O   0  0  0  0  0  0  0  0  0  0  0  0
  185.4500  178.6080  141.4020 N   0  0  1  0  0  0  0  0  0  0  0  0
  186.3450  178.0240  146.2200 C   0  0  0  0  0  3  0  0  0  0  0  0
  185.0540  178.4770  146.5000 C   0  0  0  0  0  3  0  0  0  0  0  0
  183.0230  178.6900  140.6620 C   0  0  0  0  0  0  0  0  0  0  0  0
  181.7010  179.3020  141.0830 C   0  0  1  0  0  3  0  0  0  0  0  0
  187.2920  178.4730  139.8100 C   0  0  1  0  0  3  0  0  0  0  0  0
  187.7790  178.3420  142.1420 C   0  0  0  0  0  2  0  0  0  0  0  0
  180.2500  179.5900  142.8900 C   0  0  2  0  0  3  0  0  0  0  0  0
  189.5660  178.2430  140.5970 C   0  0  0  0  0  2  0  0  0  0  0  0
  186.7630  177.8800  144.8940 C   0  0  0  0  0  3  0  0  0  0  0  0
  186.3210  177.9470  142.4010 C   0  0  1  0  0  3  0  0  0  0  0  0
  185.8990  178.2020  143.8370 C   0  0  0  0  0  0  0  0  0  0  0  0
  183.6780  179.0030  143.0000 C   0  0  2  0  0  3  0  0  0  0  0  0
  179.4940  178.8400  141.8050 C   0  0  0  0  0  2  0  0  0  0  0  0
  188.3430  176.7510  138.1410 C   0  0  0  0  0  2  0  0  0  0  0  0
  188.1720  177.8600  140.8200 N   0  0  2  0  0  0  0  0  0  0  0  0
  180.5420  178.3720  140.8280 C   0  0  0  0  0  2  0  0  0  0  0  0
  187.6780  178.1310  138.3590 C   0  0  0  0  0  2  0  0  0  0  0  0
  190.1400  177.4980  139.3850 C   0  0  1  0  0  3  0  0  0  0  0  0
  184.1760  178.7740  145.4550 C   0  0  0  0  0  3  0  0  0  0  0  0
  184.5810  178.6060  144.1250 C   0  0  0  0  0  0  0  0  0  0  0  0
  182.3230  178.7750  143.2710 O   0  0  0  0  0  0  0  0  0  0  0  0
  185.8450  178.0770  140.0920 C   0  0  0  0  0  2  0  0  0  0  0  0
  183.2070  178.4530  139.4780 O   0  0  0  0  0  0  0  0  0  0  0  0
  179.7130  180.8700  143.0330 O   0  0  0  0  0  1  0  0  0  0  0  0
  184.0460  178.2790  141.7110 C   0  0  2  0  0  3  0  0  0  0  0  0
  181.6560  179.6880  142.5070 N   0  0  1  0  0  0  0  0  0  0  0  0
  191.5620  177.0560  139.6880 C   0  0  0  0  0  2  0  0  0  0  0  0
  192.2850  176.7210  138.4300 C   0  0  0  0  0  0  0  0  0  0  0  0
  191.6800  176.7520  137.3280 O   0  0  0  0  0  0  0  0  0  0  0  0
  193.6710  176.3970  138.4700 N   0  0  0  0  0  1  0  0  0  0  0  0
  1 20  1  0  0  0  0
  2 24  1  6  0  0  0
  2 27  1  0  0  0  0
  2 12  1  0  0  0  0
  3  4  1  0  0  0  0
  5  6  1  0  0  0  0
  6 18  1  1  0  0  0
  6 28  1  0  0  0  0
  7 19  1  6  0  0  0
  7 24  1  0  0  0  0
  7 17  1  0  0  0  0
  9 26  1  6  0  0  0
 11  3  2  0  0  0  0
 12  8  1  1  0  0  0
 12 13  1  0  0  0  0
 13 22  2  0  0  0  0
 13 11  1  0  0  0  0
 14 23  1  1  0  0  0
 14 22  1  0  0  0  0
 15  9  1  0  0  0  0
 16 19  1  0  0  0  0
 16  1  1  0  0  0  0
 17 10  1  6  0  0  0
 17  8  1  0  0  0  0
 18 15  1  0  0  0  0
 20 29  1  1  0  0  0
 20 10  1  0  0  0  0
 21  4  2  0  0  0  0
 22 21  1  0  0  0  0
 25  5  2  0  0  0  0
 27  5  1  6  0  0  0
 27 14  1  0  0  0  0
 28  9  1  0  0  0  0
 28 23  1  1  0  0  0
 30 32  1  0  0  0  0
 30 29  1  0  0  0  0
 31 30  2  0  0  0  0
M  END
>  <MODEL>
5

>  <REMARK>
 VINA RESULT:      -8.7      3.364      4.772
  Name = 
  2 active torsions:
  status: ('A' for Active; 'I' for Inactive)
    1  A    between atoms: C_20  and  C_29
    2  A    between atoms: C_29  and  C_30
                            x       y       z     vdW  Elec       q    Type
                         _______ _______ _______ _____ _____    ______ ____

>  <TORSDO>
F 2

$$$$
=
 OpenBabel11122410393D

 32 37  0  0  1  0  0  0  0  0999 V2000
  188.2890  176.7080  138.0720 O   0  0  0  0  0  0  0  0  0  0  0  0
  184.7250  178.6640  141.0580 N   0  0  1  0  0  0  0  0  0  0  0  0
  186.4890  178.1510  145.6390 C   0  0  0  0  0  3  0  0  0  0  0  0
  185.2380  178.5140  146.1450 C   0  0  0  0  0  3  0  0  0  0  0  0
  182.2060  178.5760  140.7540 C   0  0  0  0  0  0  0  0  0  0  0  0
  180.9400  179.0950  141.4060 C   0  0  1  0  0  3  0  0  0  0  0  0
  186.2660  178.6540  139.1670 C   0  0  1  0  0  3  0  0  0  0  0  0
  187.1610  178.5610  141.3770 C   0  0  0  0  0  2  0  0  0  0  0  0
  179.8110  179.2850  143.4420 C   0  0  2  0  0  3  0  0  0  0  0  0
  188.6530  178.5850  139.5420 C   0  0  0  0  0  2  0  0  0  0  0  0
  186.6760  178.0340  144.2590 C   0  0  0  0  0  3  0  0  0  0  0  0
  185.8020  178.0660  141.8830 C   0  0  1  0  0  3  0  0  0  0  0  0
  185.6210  178.2940  143.3730 C   0  0  0  0  0  0  0  0  0  0  0  0
  183.2370  178.9370  142.9450 C   0  0  2  0  0  3  0  0  0  0  0  0
  178.9310  178.4810  142.4980 C   0  0  0  0  0  2  0  0  0  0  0  0
  187.1240  177.0070  137.3220 C   0  0  0  0  0  2  0  0  0  0  0  0
  187.3480  178.1060  140.0020 N   0  0  2  0  0  0  0  0  0  0  0  0
  179.8210  178.0860  141.3490 C   0  0  0  0  0  2  0  0  0  0  0  0
  186.4140  178.3380  137.6680 C   0  0  0  0  0  2  0  0  0  0  0  0
  189.0550  177.8790  138.2410 C   0  0  1  0  0  3  0  0  0  0  0  0
  184.1720  178.7470  145.2730 C   0  0  0  0  0  3  0  0  0  0  0  0
  184.3490  178.6060  143.8900 C   0  0  0  0  0  0  0  0  0  0  0  0
  181.9700  178.6160  143.4470 O   0  0  0  0  0  0  0  0  0  0  0  0
  184.9200  178.1600  139.6940 C   0  0  0  0  0  2  0  0  0  0  0  0
  182.1970  178.3500  139.5540 O   0  0  0  0  0  0  0  0  0  0  0  0
  179.2210  180.5240  143.6900 O   0  0  0  0  0  1  0  0  0  0  0  0
  183.4240  178.2380  141.6040 C   0  0  2  0  0  3  0  0  0  0  0  0
  181.1180  179.4790  142.8200 N   0  0  1  0  0  0  0  0  0  0  0  0
  190.5350  177.5380  138.2860 C   0  0  0  0  0  2  0  0  0  0  0  0
  190.7620  176.2970  139.0770 C   0  0  0  0  0  0  0  0  0  0  0  0
  191.1030  175.2340  138.4960 O   0  0  0  0  0  0  0  0  0  0  0  0
  190.6260  176.3190  140.4930 N   0  0  0  0  0  1  0  0  0  0  0  0
  1 20  1  0  0  0  0
  2 24  1  6  0  0  0
  2 27  1  0  0  0  0
  2 12  1  0  0  0  0
  3  4  1  0  0  0  0
  5  6  1  0  0  0  0
  6 18  1  1  0  0  0
  6 28  1  0  0  0  0
  7 19  1  6  0  0  0
  7 24  1  0  0  0  0
  7 17  1  0  0  0  0
  9 26  1  6  0  0  0
 11  3  2  0  0  0  0
 12  8  1  6  0  0  0
 12 13  1  0  0  0  0
 13 22  2  0  0  0  0
 13 11  1  0  0  0  0
 14 23  1  1  0  0  0
 14 22  1  0  0  0  0
 15  9  1  0  0  0  0
 16 19  1  0  0  0  0
 16  1  1  0  0  0  0
 17 10  1  6  0  0  0
 17  8  1  0  0  0  0
 18 15  1  0  0  0  0
 20 29  1  1  0  0  0
 20 10  1  0  0  0  0
 21  4  2  0  0  0  0
 22 21  1  0  0  0  0
 25  5  2  0  0  0  0
 27  5  1  6  0  0  0
 27 14  1  0  0  0  0
 28  9  1  0  0  0  0
 28 23  1  1  0  0  0
 29 30  1  0  0  0  0
 30 32  1  0  0  0  0
 31 30  2  0  0  0  0
M  END
>  <MODEL>
6

>  <REMARK>
 VINA RESULT:      -8.7      3.688      5.255
  Name = 
  2 active torsions:
  status: ('A' for Active; 'I' for Inactive)
    1  A    between atoms: C_20  and  C_29
    2  A    between atoms: C_29  and  C_30
                            x       y       z     vdW  Elec       q    Type
                         _______ _______ _______ _____ _____    ______ ____

>  <TORSDO>
F 2

$$$$
=
 OpenBabel11122410393D

 32 37  0  0  1  0  0  0  0  0999 V2000
  181.6080  180.5370  139.0650 O   0  0  0  0  0  0  0  0  0  0  0  0
  185.3650  178.0980  141.3840 N   0  0  1  0  0  0  0  0  0  0  0  0
  184.5120  178.7420  146.2020 C   0  0  0  0  0  3  0  0  0  0  0  0
  185.7760  178.2180  146.4810 C   0  0  0  0  0  3  0  0  0  0  0  0
  187.7830  177.8770  140.6400 C   0  0  0  0  0  0  0  0  0  0  0  0
  189.0680  177.1920  141.0610 C   0  0  1  0  0  3  0  0  0  0  0  0
  183.5310  178.3340  139.7940 C   0  0  1  0  0  3  0  0  0  0  0  0
  183.0560  178.4980  142.1270 C   0  0  0  0  0  2  0  0  0  0  0  0
  190.5030  176.8260  142.8670 C   0  0  2  0  0  3  0  0  0  0  0  0
  181.2750  178.6940  140.5840 C   0  0  0  0  0  2  0  0  0  0  0  0
  184.1010  178.9080  144.8760 C   0  0  0  0  0  3  0  0  0  0  0  0
  184.5340  178.8100  142.3830 C   0  0  1  0  0  3  0  0  0  0  0  0
  184.9430  178.5350  143.8190 C   0  0  0  0  0  0  0  0  0  0  0  0
  187.1150  177.6070  142.9800 C   0  0  2  0  0  3  0  0  0  0  0  0
  191.2990  177.5300  141.7790 C   0  0  0  0  0  2  0  0  0  0  0  0
  182.5770  180.1090  138.1230 C   0  0  0  0  0  2  0  0  0  0  0  0
  182.6890  178.9980  140.8040 N   0  0  2  0  0  0  0  0  0  0  0  0
  190.2780  178.0550  140.8030 C   0  0  0  0  0  2  0  0  0  0  0  0
  183.1630  178.6940  138.3430 C   0  0  0  0  0  2  0  0  0  0  0  0
  180.7420  179.4680  139.3710 C   0  0  1  0  0  3  0  0  0  0  0  0
  186.6340  177.8690  145.4360 C   0  0  0  0  0  3  0  0  0  0  0  0
  186.2370  178.0570  144.1050 C   0  0  0  0  0  0  0  0  0  0  0  0
  188.4810  177.7580  143.2490 O   0  0  0  0  0  0  0  0  0  0  0  0
  184.9990  178.6480  140.0730 C   0  0  0  0  0  2  0  0  0  0  0  0
  187.6100  178.1210  139.4560 O   0  0  0  0  0  0  0  0  0  0  0  0
  190.9670  175.5180  143.0120 O   0  0  0  0  0  1  0  0  0  0  0  0
  186.7860  178.3480  141.6910 C   0  0  2  0  0  3  0  0  0  0  0  0
  189.0940  176.8070  142.4860 N   0  0  1  0  0  0  0  0  0  0  0  0
  179.3480  179.9900  139.6760 C   0  0  0  0  0  2  0  0  0  0  0  0
  179.4160  181.3710  140.2280 C   0  0  0  0  0  0  0  0  0  0  0  0
  179.6190  181.5500  141.4570 O   0  0  0  0  0  0  0  0  0  0  0  0
  179.2830  182.4920  139.3610 N   0  0  0  0  0  1  0  0  0  0  0  0
  1 20  1  0  0  0  0
  2 24  1  6  0  0  0
  2 27  1  0  0  0  0
  2 12  1  0  0  0  0
  3  4  1  0  0  0  0
  5  6  1  0  0  0  0
  6 18  1  1  0  0  0
  6 28  1  0  0  0  0
  7 19  1  6  0  0  0
  7 24  1  0  0  0  0
  7 17  1  0  0  0  0
  9 26  1  6  0  0  0
 11  3  2  0  0  0  0
 12  8  1  1  0  0  0
 12 13  1  0  0  0  0
 13 22  2  0  0  0  0
 13 11  1  0  0  0  0
 14 23  1  1  0  0  0
 14 22  1  0  0  0  0
 15  9  1  0  0  0  0
 16 19  1  0  0  0  0
 16  1  1  0  0  0  0
 17 10  1  6  0  0  0
 17  8  1  0  0  0  0
 18 15  1  0  0  0  0
 20 29  1  1  0  0  0
 20 10  1  0  0  0  0
 21  4  2  0  0  0  0
 22 21  1  0  0  0  0
 25  5  2  0  0  0  0
 27  5  1  6  0  0  0
 27 14  1  0  0  0  0
 28  9  1  0  0  0  0
 28 23  1  1  0  0  0
 29 30  1  0  0  0  0
 30 31  2  0  0  0  0
 32 30  1  0  0  0  0
M  END
>  <MODEL>
7

>  <REMARK>
 VINA RESULT:      -8.7      4.587      8.358
  Name = 
  2 active torsions:
  status: ('A' for Active; 'I' for Inactive)
    1  A    between atoms: C_20  and  C_29
    2  A    between atoms: C_29  and  C_30
                            x       y       z     vdW  Elec       q    Type
                         _______ _______ _______ _____ _____    ______ ____

>  <TORSDO>
F 2

$$$$
=
 OpenBabel11122410393D

 32 37  0  0  1  0  0  0  0  0999 V2000
  191.6640  175.0360  145.6290 O   0  0  0  0  0  0  0  0  0  0  0  0
  188.2190  177.8510  143.2520 N   0  0  1  0  0  0  0  0  0  0  0  0
  184.4960  178.2770  146.4630 C   0  0  0  0  0  3  0  0  0  0  0  0
  183.7060  178.8270  145.4510 C   0  0  0  0  0  3  0  0  0  0  0  0
  187.6430  177.8640  140.7790 C   0  0  0  0  0  0  0  0  0  0  0  0
  186.7510  178.6010  139.8000 C   0  0  1  0  0  3  0  0  0  0  0  0
  190.4540  177.3100  144.0650 C   0  0  1  0  0  3  0  0  0  0  0  0
  188.7090  177.6620  145.6540 C   0  0  0  0  0  2  0  0  0  0  0  0
  184.5630  179.3230  139.4200 C   0  0  2  0  0  3  0  0  0  0  0  0
  190.8850  177.1690  146.4390 C   0  0  0  0  0  2  0  0  0  0  0  0
  185.7910  177.8370  146.1770 C   0  0  0  0  0  3  0  0  0  0  0  0
  187.6810  177.3870  144.5520 C   0  0  1  0  0  3  0  0  0  0  0  0
  186.3130  177.9580  144.8800 C   0  0  0  0  0  0  0  0  0  0  0  0
  186.0680  178.6440  142.4830 C   0  0  2  0  0  3  0  0  0  0  0  0
  184.9450  178.3860  138.2850 C   0  0  0  0  0  2  0  0  0  0  0  0
  192.0350  175.2340  144.2750 C   0  0  0  0  0  2  0  0  0  0  0  0
  189.9200  176.8950  145.3730 N   0  0  2  0  0  0  0  0  0  0  0  0
  186.1950  177.6820  138.7410 C   0  0  0  0  0  2  0  0  0  0  0  0
  191.7990  176.6520  143.7040 C   0  0  0  0  0  2  0  0  0  0  0  0
  192.0400  176.1610  146.3900 C   0  0  1  0  0  3  0  0  0  0  0  0
  184.2050  178.9260  144.1500 C   0  0  0  0  0  3  0  0  0  0  0  0
  185.4930  178.4630  143.8530 C   0  0  0  0  0  0  0  0  0  0  0  0
  185.1140  178.5310  141.4640 O   0  0  0  0  0  0  0  0  0  0  0  0
  189.4110  177.0380  142.9830 C   0  0  0  0  0  2  0  0  0  0  0  0
  188.6830  177.3730  140.3690 O   0  0  0  0  0  0  0  0  0  0  0  0
  184.4340  180.6220  138.9310 O   0  0  0  0  0  1  0  0  0  0  0  0
  187.1890  177.6480  142.2170 C   0  0  2  0  0  3  0  0  0  0  0  0
  185.6090  179.2840  140.4380 N   0  0  1  0  0  0  0  0  0  0  0  0
  192.4070  175.7420  147.8040 C   0  0  0  0  0  2  0  0  0  0  0  0
  192.5920  176.9370  148.6720 C   0  0  0  0  0  0  0  0  0  0  0  0
  191.7220  177.8470  148.6860 O   0  0  0  0  0  0  0  0  0  0  0  0
  193.7360  177.0370  149.5130 N   0  0  0  0  0  1  0  0  0  0  0  0
  1 20  1  0  0  0  0
  2 24  1  6  0  0  0
  2 12  1  0  0  0  0
  4  3  2  0  0  0  0
  6 18  1  6  0  0  0
  6 28  1  0  0  0  0
  6  5  1  0  0  0  0
  7 24  1  6  0  0  0
  7 17  1  0  0  0  0
  9 26  1  6  0  0  0
  9 28  1  0  0  0  0
 11  3  1  0  0  0  0
 12 13  1  0  0  0  0
 12  8  1  1  0  0  0
 13 11  2  0  0  0  0
 14 23  1  6  0  0  0
 14 22  1  0  0  0  0
 15 18  1  0  0  0  0
 15  9  1  0  0  0  0
 16  1  1  0  0  0  0
 17  8  1  1  0  0  0
 17 10  1  0  0  0  0
 19  7  1  0  0  0  0
 19 16  1  0  0  0  0
 20 10  1  0  0  0  0
 20 29  1  1  0  0  0
 21  4  1  0  0  0  0
 22 21  2  0  0  0  0
 22 13  1  0  0  0  0
 25  5  2  0  0  0  0
 27  5  1  6  0  0  0
 27 14  1  0  0  0  0
 27  2  1  0  0  0  0
 28 23  1  1  0  0  0
 29 30  1  0  0  0  0
 30 31  2  0  0  0  0
 30 32  1  0  0  0  0
M  END
>  <MODEL>
8

>  <REMARK>
 VINA RESULT:      -8.7      3.547      6.912
  Name = 
  2 active torsions:
  status: ('A' for Active; 'I' for Inactive)
    1  A    between atoms: C_20  and  C_29
    2  A    between atoms: C_29  and  C_30
                            x       y       z     vdW  Elec       q    Type
                         _______ _______ _______ _____ _____    ______ ____

>  <TORSDO>
F 2

$$$$
=
 OpenBabel11122410393D

 32 37  0  0  1  0  0  0  0  0999 V2000
  189.6760  178.3110  145.3140 O   0  0  0  0  0  0  0  0  0  0  0  0
  186.4690  177.8350  141.4510 N   0  0  1  0  0  0  0  0  0  0  0  0
  189.2210  178.5700  137.4210 C   0  0  0  0  0  3  0  0  0  0  0  0
  188.0550  178.6280  136.6530 C   0  0  0  0  0  3  0  0  0  0  0  0
  184.0280  178.5280  141.3470 C   0  0  0  0  0  0  0  0  0  0  0  0
  182.8430  178.4630  140.4040 C   0  0  1  0  0  3  0  0  0  0  0  0
  187.5400  177.1510  143.5320 C   0  0  1  0  0  3  0  0  0  0  0  0
  188.8760  177.3480  141.5640 C   0  0  0  0  0  2  0  0  0  0  0  0
  182.1520  178.8900  138.2150 C   0  0  2  0  0  3  0  0  0  0  0  0
  189.9050  176.6540  143.5780 C   0  0  0  0  0  2  0  0  0  0  0  0
  189.1370  178.4200  138.8080 C   0  0  0  0  0  3  0  0  0  0  0  0
  187.8000  178.2510  140.9520 C   0  0  1  0  0  3  0  0  0  0  0  0
  187.8890  178.3110  139.4380 C   0  0  0  0  0  0  0  0  0  0  0  0
  185.3860  178.2530  139.3290 C   0  0  2  0  0  3  0  0  0  0  0  0
  181.2980  179.7390  139.1430 C   0  0  0  0  0  2  0  0  0  0  0  0
  188.3430  178.2140  145.7870 C   0  0  0  0  0  2  0  0  0  0  0  0
  188.8690  177.5210  143.0150 N   0  0  2  0  0  0  0  0  0  0  0  0
  181.9940  179.7080  140.4790 C   0  0  0  0  0  2  0  0  0  0  0  0
  187.4390  177.1830  145.0680 C   0  0  0  0  0  2  0  0  0  0  0  0
  190.1750  177.0210  145.0420 C   0  0  1  0  0  3  0  0  0  0  0  0
  186.8060  178.5490  137.2730 C   0  0  0  0  0  3  0  0  0  0  0  0
  186.7160  178.4250  138.6650 C   0  0  0  0  0  0  0  0  0  0  0  0
  184.3580  178.9660  138.7000 O   0  0  0  0  0  0  0  0  0  0  0  0
  186.4820  178.0550  142.9020 C   0  0  0  0  0  2  0  0  0  0  0  0
  183.8190  178.5610  142.5500 O   0  0  0  0  0  0  0  0  0  0  0  0
  181.3630  177.9010  137.6280 O   0  0  0  0  0  1  0  0  0  0  0  0
  185.4410  178.6640  140.7940 C   0  0  2  0  0  3  0  0  0  0  0  0
  183.2210  178.2680  138.9910 N   0  0  1  0  0  0  0  0  0  0  0  0
  191.6700  176.9680  145.3110 C   0  0  0  0  0  2  0  0  0  0  0  0
  191.9400  176.3750  146.6500 C   0  0  0  0  0  0  0  0  0  0  0  0
  192.4300  175.2190  146.7400 O   0  0  0  0  0  0  0  0  0  0  0  0
  191.6760  177.1280  147.8290 N   0  0  0  0  0  1  0  0  0  0  0  0
  1 16  1  0  0  0  0
  2 24  1  1  0  0  0
  3 11  1  0  0  0  0
  4 21  1  0  0  0  0
  4  3  2  0  0  0  0
  5 25  2  0  0  0  0
  6 18  1  6  0  0  0
  6  5  1  0  0  0  0
  7 24  1  6  0  0  0
  7 19  1  0  0  0  0
  9 26  1  1  0  0  0
  9 28  1  0  0  0  0
  9 15  1  0  0  0  0
 10 20  1  0  0  0  0
 11 13  2  0  0  0  0
 12  2  1  0  0  0  0
 12  8  1  6  0  0  0
 13 12  1  0  0  0  0
 14 22  1  6  0  0  0
 14 27  1  0  0  0  0
 15 18  1  0  0  0  0
 17  8  1  6  0  0  0
 17  7  1  0  0  0  0
 17 10  1  0  0  0  0
 19 16  1  0  0  0  0
 20 29  1  6  0  0  0
 20  1  1  0  0  0  0
 21 22  2  0  0  0  0
 22 13  1  0  0  0  0
 23 14  1  0  0  0  0
 27  5  1  1  0  0  0
 27  2  1  0  0  0  0
 28 23  1  1  0  0  0
 28  6  1  0  0  0  0
 29 30  1  0  0  0  0
 30 31  2  0  0  0  0
 30 32  1  0  0  0  0
M  END
>  <MODEL>
9

>  <REMARK>
 VINA RESULT:      -8.6      3.693      7.373
  Name = 
  2 active torsions:
  status: ('A' for Active; 'I' for Inactive)
    1  A    between atoms: C_20  and  C_29
    2  A    between atoms: C_29  and  C_30
                            x       y       z     vdW  Elec       q    Type
                         _______ _______ _______ _____ _____    ______ ____

>  <TORSDO>
F 2

$$$$
