=
 OpenBabel11122410573D

 31 35  0  0  1  0  0  0  0  0999 V2000
  187.5100  179.0260  136.7580 C   0  0  0  0  0  0  0  0  0  0  0  0
  189.2010  178.1830  140.0440 C   0  0  2  0  0  3  0  0  0  0  0  0
  188.8200  177.5840  141.3840 C   0  0  0  0  0  0  0  0  0  0  0  0
  187.1650  177.3070  143.1470 C   0  0  0  0  0  0  0  0  0  0  0  0
  188.0980  178.0050  138.9860 C   0  0  1  0  0  3  0  0  0  0  0  0
  187.0360  177.7020  136.2720 C   0  0  0  0  0  2  0  0  0  0  0  0
  187.5240  177.7870  141.8860 C   0  0  0  0  0  3  0  0  0  0  0  0
  190.5060  176.4150  138.7660 C   0  0  0  0  0  0  0  0  0  0  0  0
  187.3770  180.0510  136.0420 O   0  0  0  0  0  0  0  0  0  0  0  0
  191.1730  176.6710  141.7220 C   0  0  0  0  0  2  0  0  0  0  0  0
  185.9080  177.4990  143.6120 F   0  0  0  0  0  0  0  0  0  0  0  0
  189.2000  175.6730  138.7430 C   0  0  0  0  0  2  0  0  0  0  0  0
  190.5780  177.7200  139.5160 C   0  0  2  0  0  3  0  0  0  0  0  0
  191.5650  175.9930  138.1360 N   0  0  0  0  0  0  0  0  0  0  0  0
  188.1270  179.1200  138.0400 N   0  0  0  0  0  2  0  0  0  0  0  0
  188.1040  176.6330  143.9300 C   0  0  0  0  0  3  0  0  0  0  0  0
  188.0710  176.6020  138.2940 C   0  0  2  0  0  3  0  0  0  0  0  0
  188.0110  176.6430  136.7610 C   0  0  0  0  0  2  0  0  0  0  0  0
  191.6030  177.6670  140.6490 C   0  0  0  0  0  2  0  0  0  0  0  0
  189.7750  176.9330  142.1990 C   0  0  0  0  0  0  0  0  0  0  0  0
  189.4030  176.4460  143.4570 C   0  0  0  0  0  3  0  0  0  0  0  0
  190.8820  173.8460  137.4550 O   0  0  0  0  0  0  0  0  0  0  0  0
  191.7020  174.7950  137.3520 C   0  0  0  0  0  0  0  0  0  0  0  0
  194.7920  173.1880  137.9010 C   0  0  0  0  0  0  0  0  0  0  0  0
  193.1120  173.2070  136.0000 C   0  0  0  0  0  2  0  0  0  0  0  0
  193.9030  176.7040  137.0900 O   0  0  0  0  0  1  0  0  0  0  0  0
  195.5810  172.5150  138.6130 O   0  0  0  0  0  0  0  0  0  0  0  0
  193.8640  172.5140  137.0430 N   0  0  0  0  0  2  0  0  0  0  0  0
  194.1290  175.3520  136.8270 C   0  0  2  0  0  3  0  0  0  0  0  0
  192.8350  174.6630  136.3740 C   0  0  2  0  0  3  0  0  0  0  0  0
  194.7560  174.6790  138.0480 C   0  0  0  0  0  2  0  0  0  0  0  0
  1 15  1  0  0  0  0
  2  3  1  1  0  0  0
  3  7  2  0  0  0  0
  3 20  1  0  0  0  0
  4 11  1  0  0  0  0
  4 16  2  0  0  0  0
  5 15  1  6  0  0  0
  5  2  1  0  0  0  0
  6  1  1  0  0  0  0
  6 18  1  0  0  0  0
  7  4  1  0  0  0  0
  8 13  1  0  0  0  0
  9  1  2  0  0  0  0
 10 20  1  0  0  0  0
 12  8  1  0  0  0  0
 13  2  1  0  0  0  0
 13 19  1  1  0  0  0
 14  8  2  0  0  0  0
 17 18  1  6  0  0  0
 17 12  1  0  0  0  0
 17  5  1  0  0  0  0
 19 10  1  0  0  0  0
 20 21  2  0  0  0  0
 21 16  1  0  0  0  0
 23 22  2  0  0  0  0
 23 14  1  0  0  0  0
 24 31  1  0  0  0  0
 24 27  2  0  0  0  0
 25 30  1  0  0  0  0
 25 28  1  0  0  0  0
 28 24  1  0  0  0  0
 29 26  1  1  0  0  0
 29 31  1  0  0  0  0
 30 29  1  0  0  0  0
 30 23  1  1  0  0  0
M  END
>  <MODEL>
1

>  <REMARK>
 VINA RESULT:      -7.0      0.000      0.000
  Name = 
  2 active torsions:
  status: ('A' for Active; 'I' for Inactive)
    1  A    between atoms: C_5  and  N_16
    2  A    between atoms: C_5  and  C_30
                            x       y       z     vdW  Elec       q    Type
                         _______ _______ _______ _____ _____    ______ ____

>  <TORSDO>
F 2

$$$$
=
 OpenBabel11122410573D

 31 35  0  0  1  0  0  0  0  0999 V2000
  190.9230  176.6130  141.8480 C   0  0  0  0  0  0  0  0  0  0  0  0
  189.7970  175.7880  138.3240 C   0  0  2  0  0  3  0  0  0  0  0  0
  189.2310  176.5210  137.1230 C   0  0  0  0  0  0  0  0  0  0  0  0
  187.8210  178.2970  136.2420 C   0  0  0  0  0  0  0  0  0  0  0  0
  190.3270  176.7490  139.4040 C   0  0  1  0  0  3  0  0  0  0  0  0
  192.0470  177.5630  141.6310 C   0  0  0  0  0  2  0  0  0  0  0  0
  188.4120  177.6430  137.3250 C   0  0  0  0  0  3  0  0  0  0  0  0
  192.2300  175.2580  137.8130 C   0  0  0  0  0  0  0  0  0  0  0  0
  190.6400  176.2170  143.0080 O   0  0  0  0  0  0  0  0  0  0  0  0
  190.2770  174.8410  135.5200 C   0  0  0  0  0  2  0  0  0  0  0  0
  187.0440  179.3860  136.4510 F   0  0  0  0  0  0  0  0  0  0  0  0
  192.4180  176.7470  137.8760 C   0  0  0  0  0  2  0  0  0  0  0  0
  190.8380  174.7020  137.9660 C   0  0  2  0  0  3  0  0  0  0  0  0
  193.2250  174.4300  137.6680 N   0  0  0  0  0  0  0  0  0  0  0  0
  190.1760  176.1460  140.7270 N   0  0  0  0  0  2  0  0  0  0  0  0
  188.0270  177.8250  134.9450 C   0  0  0  0  0  3  0  0  0  0  0  0
  191.7610  177.3110  139.1360 C   0  0  2  0  0  3  0  0  0  0  0  0
  192.7280  177.1960  140.3210 C   0  0  0  0  0  2  0  0  0  0  0  0
  190.4000  173.9180  136.7290 C   0  0  0  0  0  2  0  0  0  0  0  0
  189.4050  176.0270  135.8090 C   0  0  0  0  0  0  0  0  0  0  0  0
  188.8180  176.6950  134.7300 C   0  0  0  0  0  3  0  0  0  0  0  0
  195.2740  175.2610  138.4720 O   0  0  0  0  0  0  0  0  0  0  0  0
  194.6200  174.7480  137.5260 C   0  0  0  0  0  0  0  0  0  0  0  0
  195.5230  177.0770  135.0370 C   0  0  0  0  0  0  0  0  0  0  0  0
  196.7010  175.1300  136.1610 C   0  0  0  0  0  2  0  0  0  0  0  0
  193.2860  174.1090  135.0030 O   0  0  0  0  0  1  0  0  0  0  0  0
  195.6020  178.2500  134.5940 O   0  0  0  0  0  0  0  0  0  0  0  0
  196.5880  176.5500  135.8380 N   0  0  0  0  0  2  0  0  0  0  0  0
  194.5060  174.7880  134.9850 C   0  0  2  0  0  3  0  0  0  0  0  0
  195.3300  174.4560  136.2350 C   0  0  2  0  0  3  0  0  0  0  0  0
  194.2670  176.2880  134.8200 C   0  0  0  0  0  2  0  0  0  0  0  0
  1  9  2  0  0  0  0
  2  3  1  6  0  0  0
  2  5  1  0  0  0  0
  3  7  1  0  0  0  0
  4 11  1  0  0  0  0
  4  7  2  0  0  0  0
  5 15  1  1  0  0  0
  6  1  1  0  0  0  0
  8 12  1  0  0  0  0
  8 13  1  0  0  0  0
 10 20  1  0  0  0  0
 10 19  1  0  0  0  0
 13 19  1  6  0  0  0
 13  2  1  0  0  0  0
 14  8  2  0  0  0  0
 15  1  1  0  0  0  0
 16  4  1  0  0  0  0
 17 12  1  6  0  0  0
 17  5  1  0  0  0  0
 17 18  1  0  0  0  0
 18  6  1  0  0  0  0
 20  3  2  0  0  0  0
 21 16  2  0  0  0  0
 21 20  1  0  0  0  0
 23 14  1  0  0  0  0
 23 22  2  0  0  0  0
 24 28  1  0  0  0  0
 25 30  1  0  0  0  0
 27 24  2  0  0  0  0
 28 25  1  0  0  0  0
 29 26  1  1  0  0  0
 29 30  1  0  0  0  0
 30 23  1  1  0  0  0
 31 29  1  0  0  0  0
 31 24  1  0  0  0  0
M  END
>  <MODEL>
2

>  <REMARK>
 VINA RESULT:      -7.0      2.924      5.365
  Name = 
  2 active torsions:
  status: ('A' for Active; 'I' for Inactive)
    1  A    between atoms: C_5  and  N_16
    2  A    between atoms: C_5  and  C_30
                            x       y       z     vdW  Elec       q    Type
                         _______ _______ _______ _____ _____    ______ ____

>  <TORSDO>
F 2

$$$$
=
 OpenBabel11122410573D

 31 35  0  0  1  0  0  0  0  0999 V2000
  190.6080  176.5890  141.8570 C   0  0  0  0  0  0  0  0  0  0  0  0
  189.7510  175.7700  138.2560 C   0  0  2  0  0  3  0  0  0  0  0  0
  189.2960  176.5090  137.0120 C   0  0  0  0  0  0  0  0  0  0  0  0
  187.9910  178.3060  136.0180 C   0  0  0  0  0  0  0  0  0  0  0  0
  190.2100  176.7260  139.3720 C   0  0  1  0  0  3  0  0  0  0  0  0
  191.7620  177.5190  141.7280 C   0  0  0  0  0  2  0  0  0  0  0  0
  188.4820  177.6460  137.1460 C   0  0  0  0  0  3  0  0  0  0  0  0
  192.2080  175.1970  137.9410 C   0  0  0  0  0  0  0  0  0  0  0  0
  190.2270  176.2020  142.9910 O   0  0  0  0  0  0  0  0  0  0  0  0
  190.4370  174.8060  135.5010 C   0  0  0  0  0  2  0  0  0  0  0  0
  187.2180  179.4090  136.1620 F   0  0  0  0  0  0  0  0  0  0  0  0
  192.4160  176.6830  138.0160 C   0  0  0  0  0  2  0  0  0  0  0  0
  190.7980  174.6660  137.9850 C   0  0  2  0  0  3  0  0  0  0  0  0
  193.1960  174.3520  137.8770 N   0  0  0  0  0  0  0  0  0  0  0  0
  189.9440  176.1300  140.6810 N   0  0  0  0  0  2  0  0  0  0  0  0
  188.2910  177.8260  134.7420 C   0  0  0  0  0  3  0  0  0  0  0  0
  191.6710  177.2630  139.2180 C   0  0  2  0  0  3  0  0  0  0  0  0
  192.5380  177.1360  140.4770 C   0  0  0  0  0  2  0  0  0  0  0  0
  190.4470  173.8850  136.7180 C   0  0  0  0  0  2  0  0  0  0  0  0
  189.5650  176.0080  135.7170 C   0  0  0  0  0  0  0  0  0  0  0  0
  189.0770  176.6820  134.5940 C   0  0  0  0  0  3  0  0  0  0  0  0
  195.0640  175.5760  137.1340 O   0  0  0  0  0  0  0  0  0  0  0  0
  194.6040  174.6460  137.8470 C   0  0  0  0  0  0  0  0  0  0  0  0
  198.1050  174.4560  137.4730 C   0  0  0  0  0  0  0  0  0  0  0  0
  196.5410  174.7280  139.4530 C   0  0  0  0  0  2  0  0  0  0  0  0
  195.4180  171.8970  137.2700 O   0  0  0  0  0  1  0  0  0  0  0  0
  199.1800  174.7950  136.9170 O   0  0  0  0  0  0  0  0  0  0  0  0
  197.6210  175.2070  138.5930 N   0  0  0  0  0  2  0  0  0  0  0  0
  196.3120  172.7610  137.9050 C   0  0  2  0  0  3  0  0  0  0  0  0
  195.5570  173.8440  138.6860 C   0  0  2  0  0  3  0  0  0  0  0  0
  197.2890  173.3450  136.8850 C   0  0  0  0  0  2  0  0  0  0  0  0
  1  9  2  0  0  0  0
  2  3  1  6  0  0  0
  2  5  1  0  0  0  0
  3  7  1  0  0  0  0
  4 11  1  0  0  0  0
  4  7  2  0  0  0  0
  5 15  1  1  0  0  0
  6  1  1  0  0  0  0
  8 13  1  0  0  0  0
  8 12  1  0  0  0  0
 10 20  1  0  0  0  0
 10 19  1  0  0  0  0
 13 19  1  6  0  0  0
 13  2  1  0  0  0  0
 14  8  2  0  0  0  0
 15  1  1  0  0  0  0
 16  4  1  0  0  0  0
 17 12  1  6  0  0  0
 17  5  1  0  0  0  0
 17 18  1  0  0  0  0
 18  6  1  0  0  0  0
 20  3  2  0  0  0  0
 21 16  2  0  0  0  0
 21 20  1  0  0  0  0
 22 23  2  0  0  0  0
 23 14  1  0  0  0  0
 24 28  1  0  0  0  0
 27 24  2  0  0  0  0
 28 25  1  0  0  0  0
 29 26  1  6  0  0  0
 29 30  1  0  0  0  0
 30 23  1  6  0  0  0
 30 25  1  0  0  0  0
 31 24  1  0  0  0  0
 31 29  1  0  0  0  0
M  END
>  <MODEL>
3

>  <REMARK>
 VINA RESULT:      -6.9      2.920      5.373
  Name = 
  2 active torsions:
  status: ('A' for Active; 'I' for Inactive)
    1  A    between atoms: C_5  and  N_16
    2  A    between atoms: C_5  and  C_30
                            x       y       z     vdW  Elec       q    Type
                         _______ _______ _______ _____ _____    ______ ____

>  <TORSDO>
F 2

$$$$
=
 OpenBabel11122410573D

 31 35  0  0  1  0  0  0  0  0999 V2000
  185.6020  178.8960  145.5850 C   0  0  0  0  0  0  0  0  0  0  0  0
  189.3330  178.2370  145.4450 C   0  0  2  0  0  3  0  0  0  0  0  0
  190.2940  177.1280  145.8250 C   0  0  0  0  0  0  0  0  0  0  0  0
  190.8990  175.3250  147.3430 C   0  0  0  0  0  0  0  0  0  0  0  0
  187.8620  177.7850  145.4980 C   0  0  1  0  0  3  0  0  0  0  0  0
  185.0360  177.8210  144.7270 C   0  0  0  0  0  2  0  0  0  0  0  0
  190.0000  176.3090  146.9270 C   0  0  0  0  0  3  0  0  0  0  0  0
  189.0970  178.2030  142.9130 C   0  0  0  0  0  0  0  0  0  0  0  0
  184.8550  179.7860  146.0660 O   0  0  0  0  0  0  0  0  0  0  0  0
  191.9160  177.8100  143.9830 C   0  0  0  0  0  2  0  0  0  0  0  0
  190.5950  174.5340  148.3990 F   0  0  0  0  0  0  0  0  0  0  0  0
  188.4260  176.8780  143.1380 C   0  0  0  0  0  2  0  0  0  0  0  0
  189.6680  178.9290  144.1030 C   0  0  2  0  0  3  0  0  0  0  0  0
  189.1710  178.7620  141.7400 N   0  0  0  0  0  0  0  0  0  0  0  0
  187.0040  178.9150  145.8490 N   0  0  0  0  0  2  0  0  0  0  0  0
  192.1120  175.1600  146.6730 C   0  0  0  0  0  3  0  0  0  0  0  0
  187.3710  176.9970  144.2390 C   0  0  2  0  0  3  0  0  0  0  0  0
  186.0510  177.5000  143.6410 C   0  0  0  0  0  2  0  0  0  0  0  0
  191.1760  179.1440  143.9670 C   0  0  0  0  0  2  0  0  0  0  0  0
  191.5420  176.9780  145.1740 C   0  0  0  0  0  0  0  0  0  0  0  0
  192.4300  175.9830  145.5920 C   0  0  0  0  0  3  0  0  0  0  0  0
  187.4840  177.8680  140.3650 O   0  0  0  0  0  0  0  0  0  0  0  0
  188.6760  178.2530  140.4900 C   0  0  0  0  0  0  0  0  0  0  0  0
  187.9130  176.8760  137.3340 C   0  0  0  0  0  0  0  0  0  0  0  0
  189.0560  179.0030  138.1170 C   0  0  0  0  0  2  0  0  0  0  0  0
  190.4700  176.0220  139.8920 O   0  0  0  0  0  1  0  0  0  0  0  0
  187.1190  176.3360  136.5230 O   0  0  0  0  0  0  0  0  0  0  0  0
  187.9850  178.3050  137.4090 N   0  0  0  0  0  2  0  0  0  0  0  0
  189.9080  176.7540  138.8450 C   0  0  2  0  0  3  0  0  0  0  0  0
  189.5830  178.1830  139.2950 C   0  0  2  0  0  3  0  0  0  0  0  0
  188.6880  176.0200  138.2900 C   0  0  0  0  0  2  0  0  0  0  0  0
  1 15  1  0  0  0  0
  1  9  2  0  0  0  0
  2  5  1  0  0  0  0
  2  3  1  6  0  0  0
  3  7  1  0  0  0  0
  4 11  1  0  0  0  0
  5 15  1  6  0  0  0
  6  1  1  0  0  0  0
  7  4  2  0  0  0  0
  8 12  1  0  0  0  0
  8 13  1  0  0  0  0
 10 20  1  0  0  0  0
 13 19  1  6  0  0  0
 13  2  1  0  0  0  0
 14  8  2  0  0  0  0
 16  4  1  0  0  0  0
 17 12  1  6  0  0  0
 17  5  1  0  0  0  0
 18 17  1  0  0  0  0
 18  6  1  0  0  0  0
 19 10  1  0  0  0  0
 20 21  1  0  0  0  0
 20  3  2  0  0  0  0
 21 16  2  0  0  0  0
 22 23  2  0  0  0  0
 23 14  1  0  0  0  0
 24 28  1  0  0  0  0
 24 31  1  0  0  0  0
 25 30  1  0  0  0  0
 27 24  2  0  0  0  0
 28 25  1  0  0  0  0
 29 30  1  0  0  0  0
 29 26  1  1  0  0  0
 30 23  1  1  0  0  0
 31 29  1  0  0  0  0
M  END
>  <MODEL>
4

>  <REMARK>
 VINA RESULT:      -6.8      3.721      6.355
  Name = 
  2 active torsions:
  status: ('A' for Active; 'I' for Inactive)
    1  A    between atoms: C_5  and  N_16
    2  A    between atoms: C_5  and  C_30
                            x       y       z     vdW  Elec       q    Type
                         _______ _______ _______ _____ _____    ______ ____

>  <TORSDO>
F 2

$$$$
=
 OpenBabel11122410573D

 31 35  0  0  1  0  0  0  0  0999 V2000
  183.2710  172.3450  135.4500 C   0  0  0  0  0  0  0  0  0  0  0  0
  184.3660  175.8610  136.3480 C   0  0  2  0  0  3  0  0  0  0  0  0
  184.3740  176.7590  137.5700 C   0  0  0  0  0  0  0  0  0  0  0  0
  183.2970  177.4880  139.6270 C   0  0  0  0  0  0  0  0  0  0  0  0
  184.0330  174.3990  136.6960 C   0  0  1  0  0  3  0  0  0  0  0  0
  184.1110  171.4920  136.3350 C   0  0  0  0  0  2  0  0  0  0  0  0
  183.3550  176.6290  138.5270 C   0  0  0  0  0  3  0  0  0  0  0  0
  186.7530  175.0710  135.9710 C   0  0  0  0  0  0  0  0  0  0  0  0
  182.5130  171.8200  134.5950 O   0  0  0  0  0  0  0  0  0  0  0  0
  186.4340  177.9990  136.7290 C   0  0  0  0  0  2  0  0  0  0  0  0
  182.3160  177.3420  140.5480 F   0  0  0  0  0  0  0  0  0  0  0  0
  186.5590  174.3290  137.2630 C   0  0  0  0  0  2  0  0  0  0  0  0
  185.6430  175.9650  135.4820 C   0  0  2  0  0  3  0  0  0  0  0  0
  187.8250  174.9450  135.2430 N   0  0  0  0  0  0  0  0  0  0  0  0
  183.3420  173.7640  135.5740 N   0  0  0  0  0  2  0  0  0  0  0  0
  184.2480  178.4990  139.7730 C   0  0  0  0  0  3  0  0  0  0  0  0
  185.2370  173.5620  137.2400 C   0  0  2  0  0  3  0  0  0  0  0  0
  185.4370  172.2040  136.5550 C   0  0  0  0  0  2  0  0  0  0  0  0
  186.0970  177.4190  135.3590 C   0  0  0  0  0  2  0  0  0  0  0  0
  185.3120  177.8100  137.7070 C   0  0  0  0  0  0  0  0  0  0  0  0
  185.2520  178.6580  138.8170 C   0  0  0  0  0  3  0  0  0  0  0  0
  188.8810  172.8990  135.7310 O   0  0  0  0  0  0  0  0  0  0  0  0
  188.9820  174.1350  135.5140 C   0  0  0  0  0  0  0  0  0  0  0  0
  190.5480  175.7260  138.2440 C   0  0  0  0  0  0  0  0  0  0  0  0
  191.3000  174.0490  136.4940 C   0  0  0  0  0  2  0  0  0  0  0  0
  189.5390  176.9350  134.8780 O   0  0  0  0  0  1  0  0  0  0  0  0
  190.5780  176.0890  139.4470 O   0  0  0  0  0  0  0  0  0  0  0  0
  191.0510  174.4350  137.8810 N   0  0  0  0  0  2  0  0  0  0  0  0
  190.3390  176.2670  135.8070 C   0  0  2  0  0  3  0  0  0  0  0  0
  190.3480  174.7590  135.5300 C   0  0  2  0  0  3  0  0  0  0  0  0
  189.8820  176.6020  137.2260 C   0  0  0  0  0  2  0  0  0  0  0  0
  1 15  1  0  0  0  0
  1  6  1  0  0  0  0
  2  5  1  0  0  0  0
  2  3  1  1  0  0  0
  3 20  2  0  0  0  0
  3  7  1  0  0  0  0
  4 16  1  0  0  0  0
  4 11  1  0  0  0  0
  5 15  1  6  0  0  0
  5 17  1  0  0  0  0
  6 18  1  0  0  0  0
  7  4  2  0  0  0  0
  8 12  1  0  0  0  0
  9  1  2  0  0  0  0
 10 20  1  0  0  0  0
 13 19  1  1  0  0  0
 13  8  1  0  0  0  0
 13  2  1  0  0  0  0
 14 23  1  0  0  0  0
 14  8  2  0  0  0  0
 17 18  1  6  0  0  0
 17 12  1  0  0  0  0
 19 10  1  0  0  0  0
 20 21  1  0  0  0  0
 21 16  2  0  0  0  0
 23 22  2  0  0  0  0
 24 27  2  0  0  0  0
 25 28  1  0  0  0  0
 28 24  1  0  0  0  0
 29 26  1  6  0  0  0
 29 31  1  0  0  0  0
 30 23  1  1  0  0  0
 30 29  1  0  0  0  0
 30 25  1  0  0  0  0
 31 24  1  0  0  0  0
M  END
>  <MODEL>
5

>  <REMARK>
 VINA RESULT:      -6.7      4.047      5.687
  Name = 
  2 active torsions:
  status: ('A' for Active; 'I' for Inactive)
    1  A    between atoms: C_5  and  N_16
    2  A    between atoms: C_5  and  C_30
                            x       y       z     vdW  Elec       q    Type
                         _______ _______ _______ _____ _____    ______ ____

>  <TORSDO>
F 2

$$$$
=
 OpenBabel11122410573D

 31 35  0  0  1  0  0  0  0  0999 V2000
  183.9190  175.6240  137.4270 C   0  0  0  0  0  0  0  0  0  0  0  0
  182.3760  177.2490  140.4840 C   0  0  2  0  0  3  0  0  0  0  0  0
  182.8380  178.0530  141.6840 C   0  0  0  0  0  0  0  0  0  0  0  0
  184.5410  178.4950  143.3650 C   0  0  0  0  0  0  0  0  0  0  0  0
  183.4730  177.1080  139.4140 C   0  0  1  0  0  3  0  0  0  0  0  0
  184.5140  176.7740  136.6950 C   0  0  0  0  0  2  0  0  0  0  0  0
  184.1150  177.8200  142.2190 C   0  0  0  0  0  3  0  0  0  0  0  0
  181.2310  178.8610  138.8860 C   0  0  0  0  0  0  0  0  0  0  0  0
  183.9370  174.4720  136.9230 O   0  0  0  0  0  0  0  0  0  0  0  0
  180.5930  179.2460  141.8330 C   0  0  0  0  0  2  0  0  0  0  0  0
  185.7810  178.2710  143.8610 F   0  0  0  0  0  0  0  0  0  0  0  0
  182.6040  179.4480  138.7230 C   0  0  0  0  0  2  0  0  0  0  0  0
  181.0430  177.7380  139.8730 C   0  0  2  0  0  3  0  0  0  0  0  0
  180.2100  179.2580  138.1840 N   0  0  0  0  0  0  0  0  0  0  0  0
  183.3170  175.8410  138.7010 N   0  0  0  0  0  2  0  0  0  0  0  0
  183.6880  179.3980  144.0010 C   0  0  0  0  0  3  0  0  0  0  0  0
  183.6270  178.3410  138.4640 C   0  0  2  0  0  3  0  0  0  0  0  0
  183.6570  178.0010  136.9690 C   0  0  0  0  0  2  0  0  0  0  0  0
  180.0480  178.1100  140.9720 C   0  0  0  0  0  2  0  0  0  0  0  0
  181.9660  178.9410  142.3560 C   0  0  0  0  0  0  0  0  0  0  0  0
  182.4050  179.6200  143.4970 C   0  0  0  0  0  3  0  0  0  0  0  0
  180.9560  180.2670  136.1920 O   0  0  0  0  0  0  0  0  0  0  0  0
  180.1780  180.2900  137.1820 C   0  0  0  0  0  0  0  0  0  0  0  0
  180.8020  183.7070  136.5730 C   0  0  0  0  0  0  0  0  0  0  0  0
  178.9350  182.1020  135.9550 C   0  0  0  0  0  2  0  0  0  0  0  0
  179.7230  181.8560  139.6100 O   0  0  0  0  0  1  0  0  0  0  0  0
  181.5510  184.6500  136.2140 O   0  0  0  0  0  0  0  0  0  0  0  0
  180.0180  183.0150  135.5940 N   0  0  0  0  0  2  0  0  0  0  0  0
  179.5670  182.4600  138.3610 C   0  0  2  0  0  3  0  0  0  0  0  0
  179.1950  181.4190  137.2970 C   0  0  2  0  0  3  0  0  0  0  0  0
  180.8260  183.2460  137.9990 C   0  0  0  0  0  2  0  0  0  0  0  0
  1 15  1  0  0  0  0
  2  3  1  1  0  0  0
  3  7  2  0  0  0  0
  3 20  1  0  0  0  0
  4 11  1  0  0  0  0
  4 16  2  0  0  0  0
  5 15  1  6  0  0  0
  5  2  1  0  0  0  0
  6 18  1  0  0  0  0
  6  1  1  0  0  0  0
  7  4  1  0  0  0  0
  8 13  1  0  0  0  0
  9  1  2  0  0  0  0
 10 20  1  0  0  0  0
 12  8  1  0  0  0  0
 13  2  1  0  0  0  0
 13 19  1  1  0  0  0
 14  8  2  0  0  0  0
 17 18  1  6  0  0  0
 17 12  1  0  0  0  0
 17  5  1  0  0  0  0
 19 10  1  0  0  0  0
 20 21  2  0  0  0  0
 21 16  1  0  0  0  0
 22 23  2  0  0  0  0
 23 14  1  0  0  0  0
 24 31  1  0  0  0  0
 25 30  1  0  0  0  0
 27 24  2  0  0  0  0
 28 25  1  0  0  0  0
 28 24  1  0  0  0  0
 29 26  1  1  0  0  0
 30 23  1  6  0  0  0
 30 29  1  0  0  0  0
 31 29  1  0  0  0  0
M  END
>  <MODEL>
6

>  <REMARK>
 VINA RESULT:      -6.7      7.063     10.792
  Name = 
  2 active torsions:
  status: ('A' for Active; 'I' for Inactive)
    1  A    between atoms: C_5  and  N_16
    2  A    between atoms: C_5  and  C_30
                            x       y       z     vdW  Elec       q    Type
                         _______ _______ _______ _____ _____    ______ ____

>  <TORSDO>
F 2

$$$$
=
 OpenBabel11122410573D

 31 35  0  0  1  0  0  0  0  0999 V2000
  184.2860  178.6310  142.2120 C   0  0  0  0  0  0  0  0  0  0  0  0
  182.0910  178.6800  139.1210 C   0  0  2  0  0  3  0  0  0  0  0  0
  181.5800  179.6980  138.1200 C   0  0  0  0  0  0  0  0  0  0  0  0
  180.8080  181.9590  137.6590 C   0  0  0  0  0  0  0  0  0  0  0  0
  183.2050  179.2470  140.0200 C   0  0  1  0  0  3  0  0  0  0  0  0
  185.6000  179.1060  141.7020 C   0  0  0  0  0  2  0  0  0  0  0  0
  181.3440  181.0170  138.5390 C   0  0  0  0  0  3  0  0  0  0  0  0
  183.9130  177.3310  137.9690 C   0  0  0  0  0  0  0  0  0  0  0  0
  184.1670  178.2480  143.4040 O   0  0  0  0  0  0  0  0  0  0  0  0
  181.4510  177.9330  136.2880 C   0  0  0  0  0  2  0  0  0  0  0  0
  180.5980  183.2310  138.0730 F   0  0  0  0  0  0  0  0  0  0  0  0
  184.6780  178.6240  137.9840 C   0  0  0  0  0  2  0  0  0  0  0  0
  182.5000  177.3280  138.4920 C   0  0  2  0  0  3  0  0  0  0  0  0
  184.4340  176.2110  137.5580 N   0  0  0  0  0  0  0  0  0  0  0  0
  183.1620  178.6050  141.3340 N   0  0  0  0  0  2  0  0  0  0  0  0
  180.4850  181.5880  136.3530 C   0  0  0  0  0  3  0  0  0  0  0  0
  184.6300  179.2540  139.3760 C   0  0  2  0  0  3  0  0  0  0  0  0
  185.7350  178.6550  140.2550 C   0  0  0  0  0  2  0  0  0  0  0  0
  181.4980  176.9060  137.4170 C   0  0  0  0  0  2  0  0  0  0  0  0
  181.2150  179.3210  136.8070 C   0  0  0  0  0  0  0  0  0  0  0  0
  180.6890  180.2740  135.9290 C   0  0  0  0  0  3  0  0  0  0  0  0
  186.7780  176.1740  137.7640 O   0  0  0  0  0  0  0  0  0  0  0  0
  185.7600  175.9940  137.0450 C   0  0  0  0  0  0  0  0  0  0  0  0
  188.3720  176.9020  134.8580 C   0  0  0  0  0  0  0  0  0  0  0  0
  187.2320  174.7150  135.4540 C   0  0  0  0  0  2  0  0  0  0  0  0
  184.6880  177.3570  134.6900 O   0  0  0  0  0  1  0  0  0  0  0  0
  189.4470  177.5040  134.6040 O   0  0  0  0  0  0  0  0  0  0  0  0
  188.4140  175.5720  135.3870 N   0  0  0  0  0  2  0  0  0  0  0  0
  185.8930  176.6590  134.5940 C   0  0  2  0  0  3  0  0  0  0  0  0
  185.9510  175.5300  135.6300 C   0  0  2  0  0  3  0  0  0  0  0  0
  187.0690  177.6280  134.7130 C   0  0  0  0  0  2  0  0  0  0  0  0
  1  9  2  0  0  0  0
  2  3  1  6  0  0  0
  2  5  1  0  0  0  0
  3  7  1  0  0  0  0
  4 11  1  0  0  0  0
  4  7  2  0  0  0  0
  5 15  1  1  0  0  0
  6  1  1  0  0  0  0
  8 12  1  0  0  0  0
  8 13  1  0  0  0  0
 10 20  1  0  0  0  0
 10 19  1  0  0  0  0
 13 19  1  6  0  0  0
 13  2  1  0  0  0  0
 14  8  2  0  0  0  0
 15  1  1  0  0  0  0
 16  4  1  0  0  0  0
 17 12  1  6  0  0  0
 17  5  1  0  0  0  0
 17 18  1  0  0  0  0
 18  6  1  0  0  0  0
 20  3  2  0  0  0  0
 21 16  2  0  0  0  0
 21 20  1  0  0  0  0
 23 14  1  0  0  0  0
 23 22  2  0  0  0  0
 24 28  1  0  0  0  0
 25 30  1  0  0  0  0
 27 24  2  0  0  0  0
 28 25  1  0  0  0  0
 29 26  1  1  0  0  0
 29 31  1  0  0  0  0
 29 30  1  0  0  0  0
 30 23  1  1  0  0  0
 31 24  1  0  0  0  0
M  END
>  <MODEL>
7

>  <REMARK>
 VINA RESULT:      -6.7      5.135      8.050
  Name = 
  2 active torsions:
  status: ('A' for Active; 'I' for Inactive)
    1  A    between atoms: C_5  and  N_16
    2  A    between atoms: C_5  and  C_30
                            x       y       z     vdW  Elec       q    Type
                         _______ _______ _______ _____ _____    ______ ____

>  <TORSDO>
F 2

$$$$
=
 OpenBabel11122410573D

 31 35  0  0  1  0  0  0  0  0999 V2000
  190.9570  176.7820  141.7030 C   0  0  0  0  0  0  0  0  0  0  0  0
  189.7880  175.7860  138.2380 C   0  0  2  0  0  3  0  0  0  0  0  0
  189.2500  176.4660  136.9930 C   0  0  0  0  0  0  0  0  0  0  0  0
  187.9120  178.2410  136.0030 C   0  0  0  0  0  0  0  0  0  0  0  0
  190.3600  176.7890  139.2550 C   0  0  1  0  0  3  0  0  0  0  0  0
  192.1190  177.6690  141.4270 C   0  0  0  0  0  2  0  0  0  0  0  0
  188.4790  177.6320  137.1240 C   0  0  0  0  0  3  0  0  0  0  0  0
  192.1950  175.1240  137.7600 C   0  0  0  0  0  0  0  0  0  0  0  0
  190.6600  176.4710  142.8850 O   0  0  0  0  0  0  0  0  0  0  0  0
  190.2210  174.6470  135.4970 C   0  0  0  0  0  2  0  0  0  0  0  0
  187.1820  179.3730  136.1430 F   0  0  0  0  0  0  0  0  0  0  0  0
  192.4450  176.6050  137.7300 C   0  0  0  0  0  2  0  0  0  0  0  0
  190.7820  174.6380  137.9480 C   0  0  2  0  0  3  0  0  0  0  0  0
  193.1540  174.2480  137.6670 N   0  0  0  0  0  0  0  0  0  0  0  0
  190.1870  176.2770  140.6140 N   0  0  0  0  0  2  0  0  0  0  0  0
  188.0960  177.6810  134.7370 C   0  0  0  0  0  3  0  0  0  0  0  0
  191.8160  177.2740  138.9530 C   0  0  2  0  0  3  0  0  0  0  0  0
  192.7800  177.1930  140.1430 C   0  0  0  0  0  2  0  0  0  0  0  0
  190.3080  173.7970  136.7620 C   0  0  0  0  0  2  0  0  0  0  0  0
  189.4000  175.8840  135.7120 C   0  0  0  0  0  0  0  0  0  0  0  0
  188.8380  176.5080  134.5940 C   0  0  0  0  0  3  0  0  0  0  0  0
  195.2470  175.0030  138.4330 O   0  0  0  0  0  0  0  0  0  0  0  0
  194.5610  174.4980  137.5060 C   0  0  0  0  0  0  0  0  0  0  0  0
  197.8990  173.4320  137.1070 C   0  0  0  0  0  0  0  0  0  0  0  0
  195.6660  172.6740  136.1690 C   0  0  0  0  0  2  0  0  0  0  0  0
  196.0390  176.3870  135.8330 O   0  0  0  0  0  1  0  0  0  0  0  0
  199.0210  173.1050  137.5700 O   0  0  0  0  0  0  0  0  0  0  0  0
  196.8840  172.4350  136.9400 N   0  0  0  0  0  2  0  0  0  0  0  0
  196.4340  175.0490  135.8750 C   0  0  2  0  0  3  0  0  0  0  0  0
  195.2450  174.1420  136.2170 C   0  0  2  0  0  3  0  0  0  0  0  0
  197.6010  174.8780  136.8460 C   0  0  0  0  0  2  0  0  0  0  0  0
  1  9  2  0  0  0  0
  2  3  1  6  0  0  0
  2  5  1  0  0  0  0
  3  7  1  0  0  0  0
  4 11  1  0  0  0  0
  4  7  2  0  0  0  0
  5 15  1  1  0  0  0
  6  1  1  0  0  0  0
  8 13  1  0  0  0  0
 10 20  1  0  0  0  0
 10 19  1  0  0  0  0
 12  8  1  0  0  0  0
 13 19  1  6  0  0  0
 13  2  1  0  0  0  0
 14  8  2  0  0  0  0
 15  1  1  0  0  0  0
 16  4  1  0  0  0  0
 17 12  1  6  0  0  0
 17  5  1  0  0  0  0
 17 18  1  0  0  0  0
 18  6  1  0  0  0  0
 20  3  2  0  0  0  0
 21 16  2  0  0  0  0
 21 20  1  0  0  0  0
 23 14  1  0  0  0  0
 23 22  2  0  0  0  0
 24 27  2  0  0  0  0
 25 30  1  0  0  0  0
 25 28  1  0  0  0  0
 28 24  1  0  0  0  0
 29 26  1  1  0  0  0
 29 30  1  0  0  0  0
 29 31  1  0  0  0  0
 30 23  1  1  0  0  0
 31 24  1  0  0  0  0
M  END
>  <MODEL>
8

>  <REMARK>
 VINA RESULT:      -6.6      2.997      5.152
  Name = 
  2 active torsions:
  status: ('A' for Active; 'I' for Inactive)
    1  A    between atoms: C_5  and  N_16
    2  A    between atoms: C_5  and  C_30
                            x       y       z     vdW  Elec       q    Type
                         _______ _______ _______ _____ _____    ______ ____

>  <TORSDO>
F 2

$$$$
=
 OpenBabel11122410573D

 31 35  0  0  1  0  0  0  0  0999 V2000
  184.2960  178.6310  142.2470 C   0  0  0  0  0  0  0  0  0  0  0  0
  182.0930  178.7020  139.1630 C   0  0  2  0  0  3  0  0  0  0  0  0
  181.5940  179.7250  138.1600 C   0  0  0  0  0  0  0  0  0  0  0  0
  180.8530  181.9950  137.6950 C   0  0  0  0  0  0  0  0  0  0  0  0
  183.2170  179.2560  140.0570 C   0  0  1  0  0  3  0  0  0  0  0  0
  185.6150  179.0850  141.7320 C   0  0  0  0  0  2  0  0  0  0  0  0
  181.3780  181.0480  138.5770 C   0  0  0  0  0  3  0  0  0  0  0  0
  183.8920  177.3240  138.0090 C   0  0  0  0  0  0  0  0  0  0  0  0
  184.1750  178.2530  143.4410 O   0  0  0  0  0  0  0  0  0  0  0  0
  181.4340  177.9570  136.3340 C   0  0  0  0  0  2  0  0  0  0  0  0
  180.6630  183.2710  138.1060 F   0  0  0  0  0  0  0  0  0  0  0  0
  184.6760  178.6060  138.0180 C   0  0  0  0  0  2  0  0  0  0  0  0
  182.4800  177.3430  138.5360 C   0  0  2  0  0  3  0  0  0  0  0  0
  184.3950  176.1960  137.6000 N   0  0  0  0  0  0  0  0  0  0  0  0
  183.1700  178.6180  141.3720 N   0  0  0  0  0  2  0  0  0  0  0  0
  180.5210  181.6250  136.3910 C   0  0  0  0  0  3  0  0  0  0  0  0
  184.6400  179.2400  139.4090 C   0  0  2  0  0  3  0  0  0  0  0  0
  185.7400  178.6280  140.2860 C   0  0  0  0  0  2  0  0  0  0  0  0
  181.4700  176.9320  137.4650 C   0  0  0  0  0  2  0  0  0  0  0  0
  181.2200  179.3490  136.8490 C   0  0  0  0  0  0  0  0  0  0  0  0
  180.7050  180.3070  135.9700 C   0  0  0  0  0  3  0  0  0  0  0  0
  186.7270  176.5130  137.5900 O   0  0  0  0  0  0  0  0  0  0  0  0
  185.7160  175.9580  137.0840 C   0  0  0  0  0  0  0  0  0  0  0  0
  184.4770  172.6690  136.7920 C   0  0  0  0  0  0  0  0  0  0  0  0
  184.5980  174.6690  135.2340 C   0  0  0  0  0  2  0  0  0  0  0  0
  187.9250  174.0550  136.8440 O   0  0  0  0  0  1  0  0  0  0  0  0
  183.8060  171.6960  137.2180 O   0  0  0  0  0  0  0  0  0  0  0  0
  183.8430  173.6660  135.9830 N   0  0  0  0  0  2  0  0  0  0  0  0
  186.6840  173.7440  136.2870 C   0  0  2  0  0  3  0  0  0  0  0  0
  185.9140  175.0200  135.9270 C   0  0  2  0  0  3  0  0  0  0  0  0
  185.9010  172.8320  137.2320 C   0  0  0  0  0  2  0  0  0  0  0  0
  1  9  2  0  0  0  0
  2  3  1  6  0  0  0
  2  5  1  0  0  0  0
  3  7  1  0  0  0  0
  4 11  1  0  0  0  0
  4  7  2  0  0  0  0
  5 15  1  1  0  0  0
  6  1  1  0  0  0  0
  8 12  1  0  0  0  0
  8 13  1  0  0  0  0
 10 20  1  0  0  0  0
 10 19  1  0  0  0  0
 13 19  1  6  0  0  0
 13  2  1  0  0  0  0
 14  8  2  0  0  0  0
 15  1  1  0  0  0  0
 16  4  1  0  0  0  0
 17 12  1  6  0  0  0
 17  5  1  0  0  0  0
 17 18  1  0  0  0  0
 18  6  1  0  0  0  0
 20  3  2  0  0  0  0
 21 16  2  0  0  0  0
 21 20  1  0  0  0  0
 23 22  2  0  0  0  0
 23 14  1  0  0  0  0
 24 27  2  0  0  0  0
 24 31  1  0  0  0  0
 25 30  1  0  0  0  0
 25 28  1  0  0  0  0
 28 24  1  0  0  0  0
 29 26  1  1  0  0  0
 29 31  1  0  0  0  0
 30 29  1  0  0  0  0
 30 23  1  1  0  0  0
M  END
>  <MODEL>
9

>  <REMARK>
 VINA RESULT:      -6.6      5.614      8.335
  Name = 
  2 active torsions:
  status: ('A' for Active; 'I' for Inactive)
    1  A    between atoms: C_5  and  N_16
    2  A    between atoms: C_5  and  C_30
                            x       y       z     vdW  Elec       q    Type
                         _______ _______ _______ _____ _____    ______ ____

>  <TORSDO>
F 2

$$$$
