=
 OpenBabel11122410533D

 32 36  0  0  1  0  0  0  0  0999 V2000
  187.2320  178.1140  140.1140 C   0  0  1  0  0  3  0  0  0  0  0  0
  190.5330  177.3910  143.7620 C   0  0  0  0  0  3  0  0  0  0  0  0
  191.4360  176.8900  142.8220 C   0  0  0  0  0  3  0  0  0  0  0  0
  188.0990  178.2000  137.7190 C   0  0  2  0  0  3  0  0  0  0  0  0
  188.8790  177.1760  136.9980 N   0  0  2  0  0  0  0  0  0  0  0  0
  185.0200  178.4220  140.4190 C   0  0  2  0  0  3  0  0  0  0  0  0
  186.4490  178.0910  142.4580 C   0  0  0  0  0  2  0  0  0  0  0  0
  190.5490  175.4710  137.3670 C   0  0  2  0  0  3  0  0  0  0  0  0
  189.2910  177.8780  143.3490 C   0  0  0  0  0  3  0  0  0  0  0  0
  187.6200  178.4750  141.5560 C   0  0  1  0  0  3  0  0  0  0  0  0
  188.9330  177.8580  141.9930 C   0  0  0  0  0  0  0  0  0  0  0  0
  189.4950  177.3130  139.5790 C   0  0  2  0  0  3  0  0  0  0  0  0
  189.1940  174.8240  137.5050 C   0  0  0  0  0  2  0  0  0  0  0  0
  185.1500  178.7100  141.9280 C   0  0  2  0  0  3  0  0  0  0  0  0
  188.1870  175.8920  137.1100 C   0  0  0  0  0  2  0  0  0  0  0  0
  191.1050  176.8890  141.4660 C   0  0  0  0  0  3  0  0  0  0  0  0
  189.8720  177.3990  141.0360 C   0  0  0  0  0  0  0  0  0  0  0  0
  190.5890  177.5090  138.7280 O   0  0  0  0  0  0  0  0  0  0  0  0
  186.1450  178.9140  139.7250 O   0  0  0  0  0  0  0  0  0  0  0  0
  188.2640  179.5450  137.0390 C   0  0  0  0  0  1  0  0  0  0  0  0
  191.4030  175.0330  138.3800 O   0  0  0  0  0  1  0  0  0  0  0  0
  188.4360  178.3290  139.2080 C   0  0  2  0  0  3  0  0  0  0  0  0
  190.2760  176.9650  137.4510 C   0  0  2  0  0  3  0  0  0  0  0  0
  183.3500  178.3950  138.5710 C   0  0  0  0  0  1  0  0  0  0  0  0
  183.7660  179.0750  139.8610 C   0  0  0  0  0  2  0  0  0  0  0  0
  184.0650  178.1640  142.6250 O   0  0  0  0  0  0  0  0  0  0  0  0
  184.4620  179.3050  144.6840 C   0  0  0  0  0  1  0  0  0  0  0  0
  183.5890  179.1930  143.4480 C   0  0  2  0  0  3  0  0  0  0  0  0
  182.1640  178.8910  143.8890 C   0  0  0  0  0  2  0  0  0  0  0  0
  181.1860  179.2280  142.8180 C   0  0  0  0  0  0  0  0  0  0  0  0
  181.0010  178.4350  141.8580 O   0  0  0  0  0  0  0  0  0  0  0  0
  180.4680  180.4140  142.8860 O   0  0  0  0  0  1  0  0  0  0  0  0
  1 19  1  6  0  0  0
  1 10  1  0  0  0  0
  3  2  2  0  0  0  0
  4 20  1  6  0  0  0
  4 22  1  0  0  0  0
  5 15  1  1  0  0  0
  5 23  1  0  0  0  0
  5  4  1  0  0  0  0
  6 25  1  6  0  0  0
  6 14  1  0  0  0  0
  8 23  1  0  0  0  0
  8 13  1  0  0  0  0
  8 21  1  1  0  0  0
  9  2  1  0  0  0  0
 10 11  1  0  0  0  0
 10  7  1  1  0  0  0
 11  9  2  0  0  0  0
 12 18  1  6  0  0  0
 12 17  1  0  0  0  0
 14  7  1  0  0  0  0
 14 26  1  1  0  0  0
 15 13  1  0  0  0  0
 16  3  1  0  0  0  0
 17 16  2  0  0  0  0
 17 11  1  0  0  0  0
 19  6  1  0  0  0  0
 22 12  1  0  0  0  0
 22  1  1  0  0  0  0
 23 18  1  0  0  0  0
 24 25  1  0  0  0  0
 26 28  1  0  0  0  0
 28 29  1  0  0  0  0
 28 27  1  0  0  0  0
 30 32  1  0  0  0  0
 30 29  1  0  0  0  0
 31 30  2  0  0  0  0
M  END
>  <MODEL>
1

>  <REMARK>
 VINA RESULT:      -8.0      0.000      0.000
  Name = 
  5 active torsions:
  status: ('A' for Active; 'I' for Inactive)
    1  A    between atoms: C_7  and  C_19
    2  A    between atoms: O_10  and  C_17
    3  A    between atoms: O_10  and  C_20
    4  A    between atoms: C_20  and  C_29
    5  A    between atoms: C_29  and  C_30
                            x       y       z     vdW  Elec       q    Type
                         _______ _______ _______ _____ _____    ______ ____

>  <TORSDO>
F 5

$$$$
=
 OpenBabel11122410533D

 32 36  0  0  1  0  0  0  0  0999 V2000
  187.1510  178.0470  140.1070 C   0  0  1  0  0  3  0  0  0  0  0  0
  191.0040  177.7580  143.2380 C   0  0  0  0  0  3  0  0  0  0  0  0
  191.7800  177.2260  142.2070 C   0  0  0  0  0  3  0  0  0  0  0  0
  187.6380  177.9830  137.6060 C   0  0  2  0  0  3  0  0  0  0  0  0
  188.3560  176.9410  136.8460 N   0  0  2  0  0  0  0  0  0  0  0  0
  184.9970  178.2780  140.7300 C   0  0  2  0  0  3  0  0  0  0  0  0
  186.7360  178.1720  142.5400 C   0  0  0  0  0  2  0  0  0  0  0  0
  190.1550  175.3460  137.0700 C   0  0  2  0  0  3  0  0  0  0  0  0
  189.6880  178.1560  142.9900 C   0  0  0  0  0  3  0  0  0  0  0  0
  187.7330  178.5360  141.4420 C   0  0  1  0  0  3  0  0  0  0  0  0
  189.1290  178.0140  141.7120 C   0  0  0  0  0  0  0  0  0  0  0  0
  189.3480  177.3070  139.2840 C   0  0  2  0  0  3  0  0  0  0  0  0
  188.8750  174.6530  137.4630 C   0  0  0  0  0  2  0  0  0  0  0  0
  185.3390  178.6900  142.1760 C   0  0  2  0  0  3  0  0  0  0  0  0
  187.7620  175.6400  137.1550 C   0  0  0  0  0  2  0  0  0  0  0  0
  191.2470  177.1050  140.9230 C   0  0  0  0  0  3  0  0  0  0  0  0
  189.9370  177.5240  140.6550 C   0  0  0  0  0  0  0  0  0  0  0  0
  190.2870  177.4840  138.2620 O   0  0  0  0  0  0  0  0  0  0  0  0
  185.9750  178.7650  139.8370 O   0  0  0  0  0  0  0  0  0  0  0  0
  187.6230  179.2770  136.8160 C   0  0  0  0  0  1  0  0  0  0  0  0
  191.1760  175.0270  137.9670 O   0  0  0  0  0  1  0  0  0  0  0  0
  188.1900  178.2430  139.0110 C   0  0  2  0  0  3  0  0  0  0  0  0
  189.8150  176.8280  137.0910 C   0  0  2  0  0  3  0  0  0  0  0  0
  183.7610  179.6600  139.0670 C   0  0  0  0  0  1  0  0  0  0  0  0
  183.6390  178.8300  140.3300 C   0  0  0  0  0  2  0  0  0  0  0  0
  184.4050  178.1530  143.0710 O   0  0  0  0  0  0  0  0  0  0  0  0
  185.0980  180.2820  143.8970 C   0  0  0  0  0  1  0  0  0  0  0  0
  184.0180  179.2160  143.8970 C   0  0  2  0  0  3  0  0  0  0  0  0
  183.8250  178.7240  145.3240 C   0  0  0  0  0  2  0  0  0  0  0  0
  185.1320  178.5770  146.0230 C   0  0  0  0  0  0  0  0  0  0  0  0
  185.8790  177.5970  145.7700 O   0  0  0  0  0  0  0  0  0  0  0  0
  185.5320  179.5320  146.9490 O   0  0  0  0  0  1  0  0  0  0  0  0
  1 19  1  6  0  0  0
  1 10  1  0  0  0  0
  3  2  2  0  0  0  0
  4 20  1  6  0  0  0
  4 22  1  0  0  0  0
  5 23  1  0  0  0  0
  5 15  1  1  0  0  0
  5  4  1  0  0  0  0
  6 25  1  6  0  0  0
  6 14  1  0  0  0  0
  8 23  1  0  0  0  0
  8 13  1  0  0  0  0
  8 21  1  1  0  0  0
  9  2  1  0  0  0  0
 10 11  1  0  0  0  0
 10  7  1  1  0  0  0
 11  9  2  0  0  0  0
 12 18  1  6  0  0  0
 12 17  1  0  0  0  0
 14  7  1  0  0  0  0
 14 26  1  1  0  0  0
 15 13  1  0  0  0  0
 16  3  1  0  0  0  0
 17 16  2  0  0  0  0
 17 11  1  0  0  0  0
 19  6  1  0  0  0  0
 22 12  1  0  0  0  0
 22  1  1  0  0  0  0
 23 18  1  0  0  0  0
 24 25  1  0  0  0  0
 26 28  1  0  0  0  0
 27 28  1  0  0  0  0
 28 29  1  0  0  0  0
 29 30  1  0  0  0  0
 30 32  1  0  0  0  0
 31 30  2  0  0  0  0
M  END
>  <MODEL>
2

>  <REMARK>
 VINA RESULT:      -7.9      1.322      1.972
  Name = 
  5 active torsions:
  status: ('A' for Active; 'I' for Inactive)
    1  A    between atoms: C_7  and  C_19
    2  A    between atoms: O_10  and  C_17
    3  A    between atoms: O_10  and  C_20
    4  A    between atoms: C_20  and  C_29
    5  A    between atoms: C_29  and  C_30
                            x       y       z     vdW  Elec       q    Type
                         _______ _______ _______ _____ _____    ______ ____

>  <TORSDO>
F 5

$$$$
=
 OpenBabel11122410533D

 32 36  0  0  1  0  0  0  0  0999 V2000
  188.9930  177.0530  139.3200 C   0  0  1  0  0  3  0  0  0  0  0  0
  193.6590  176.1890  137.8320 C   0  0  0  0  0  3  0  0  0  0  0  0
  193.1660  175.7200  136.6130 C   0  0  0  0  0  3  0  0  0  0  0  0
  187.1830  177.2230  137.5340 C   0  0  2  0  0  3  0  0  0  0  0  0
  186.8180  176.2230  136.5120 N   0  0  2  0  0  0  0  0  0  0  0  0
  188.3580  177.3560  141.4620 C   0  0  2  0  0  3  0  0  0  0  0  0
  190.7950  176.9470  141.0090 C   0  0  0  0  0  2  0  0  0  0  0  0
  187.7920  174.5010  135.1270 C   0  0  2  0  0  3  0  0  0  0  0  0
  192.7820  176.6940  138.7940 C   0  0  0  0  0  3  0  0  0  0  0  0
  190.4770  177.3600  139.5730 C   0  0  1  0  0  3  0  0  0  0  0  0
  191.4010  176.7250  138.5550 C   0  0  0  0  0  0  0  0  0  0  0  0
  189.4250  176.2650  137.0300 C   0  0  2  0  0  3  0  0  0  0  0  0
  187.3310  173.8540  136.4080 C   0  0  0  0  0  2  0  0  0  0  0  0
  189.7930  177.5890  141.9760 C   0  0  2  0  0  3  0  0  0  0  0  0
  186.5880  174.9380  137.1710 C   0  0  0  0  0  2  0  0  0  0  0  0
  191.7950  175.7690  136.3490 C   0  0  0  0  0  3  0  0  0  0  0  0
  190.9080  176.2980  137.2960 C   0  0  0  0  0  0  0  0  0  0  0  0
  189.1150  176.4890  135.6840 O   0  0  0  0  0  0  0  0  0  0  0  0
  188.2140  177.8700  140.1560 O   0  0  0  0  0  0  0  0  0  0  0  0
  186.6800  178.5920  137.1180 C   0  0  0  0  0  1  0  0  0  0  0  0
  189.0540  174.0250  134.7680 O   0  0  0  0  0  1  0  0  0  0  0  0
  188.6800  177.2970  137.8510 C   0  0  2  0  0  3  0  0  0  0  0  0
  187.8060  175.9920  135.4290 C   0  0  2  0  0  3  0  0  0  0  0  0
  186.3380  178.8080  141.5580 C   0  0  0  0  0  1  0  0  0  0  0  0
  187.3510  178.0330  142.3770 C   0  0  0  0  0  2  0  0  0  0  0  0
  189.9550  177.0220  143.2460 O   0  0  0  0  0  0  0  0  0  0  0  0
  191.2290  178.9730  143.7610 C   0  0  0  0  0  1  0  0  0  0  0  0
  190.0440  178.1010  144.1340 C   0  0  2  0  0  3  0  0  0  0  0  0
  190.2460  177.5940  145.5540 C   0  0  0  0  0  2  0  0  0  0  0  0
  188.9450  177.4490  146.2630 C   0  0  0  0  0  0  0  0  0  0  0  0
  187.8970  177.9460  145.7740 O   0  0  0  0  0  0  0  0  0  0  0  0
  188.8850  176.7510  147.4620 O   0  0  0  0  0  1  0  0  0  0  0  0
  1 10  1  0  0  0  0
  1 19  1  1  0  0  0
  2  9  1  0  0  0  0
  3  2  2  0  0  0  0
  4 20  1  6  0  0  0
  4 22  1  0  0  0  0
  5 15  1  1  0  0  0
  5  4  1  0  0  0  0
  6 14  1  0  0  0  0
  6 25  1  1  0  0  0
  7 14  1  0  0  0  0
  8 21  1  1  0  0  0
  8 23  1  0  0  0  0
  8 13  1  0  0  0  0
 10  7  1  1  0  0  0
 11  9  2  0  0  0  0
 11 10  1  0  0  0  0
 12 18  1  6  0  0  0
 12 17  1  0  0  0  0
 12 22  1  0  0  0  0
 13 15  1  0  0  0  0
 14 26  1  1  0  0  0
 16  3  1  0  0  0  0
 16 17  2  0  0  0  0
 17 11  1  0  0  0  0
 19  6  1  0  0  0  0
 22  1  1  0  0  0  0
 23 18  1  0  0  0  0
 23  5  1  0  0  0  0
 24 25  1  0  0  0  0
 26 28  1  0  0  0  0
 27 28  1  0  0  0  0
 28 29  1  0  0  0  0
 29 30  1  0  0  0  0
 30 32  1  0  0  0  0
 31 30  2  0  0  0  0
M  END
>  <MODEL>
3

>  <REMARK>
 VINA RESULT:      -7.7      3.117      5.106
  Name = 
  5 active torsions:
  status: ('A' for Active; 'I' for Inactive)
    1  A    between atoms: C_7  and  C_19
    2  A    between atoms: O_10  and  C_17
    3  A    between atoms: O_10  and  C_20
    4  A    between atoms: C_20  and  C_29
    5  A    between atoms: C_29  and  C_30
                            x       y       z     vdW  Elec       q    Type
                         _______ _______ _______ _____ _____    ______ ____

>  <TORSDO>
F 5

$$$$
=
 OpenBabel11122410533D

 32 36  0  0  1  0  0  0  0  0999 V2000
  185.8100  178.1600  140.8360 C   0  0  1  0  0  3  0  0  0  0  0  0
  190.5220  177.5070  139.3870 C   0  0  0  0  0  3  0  0  0  0  0  0
  190.0730  177.2820  138.0840 C   0  0  0  0  0  3  0  0  0  0  0  0
  184.0740  178.6910  139.0470 C   0  0  2  0  0  3  0  0  0  0  0  0
  183.7400  177.9060  137.8430 N   0  0  2  0  0  0  0  0  0  0  0  0
  185.0930  178.0680  142.9710 C   0  0  2  0  0  3  0  0  0  0  0  0
  187.5420  177.7090  142.5400 C   0  0  0  0  0  2  0  0  0  0  0  0
  184.7500  176.4560  136.1970 C   0  0  2  0  0  3  0  0  0  0  0  0
  189.6130  177.8390  140.3930 C   0  0  0  0  0  3  0  0  0  0  0  0
  187.2860  178.3880  141.1970 C   0  0  1  0  0  3  0  0  0  0  0  0
  188.2420  177.9380  140.1120 C   0  0  0  0  0  0  0  0  0  0  0  0
  186.3240  177.8050  138.4560 C   0  0  2  0  0  3  0  0  0  0  0  0
  184.2320  175.5890  137.3170 C   0  0  0  0  0  2  0  0  0  0  0  0
  186.5080  178.1760  143.5730 C   0  0  2  0  0  3  0  0  0  0  0  0
  183.4710  176.5240  138.2410 C   0  0  0  0  0  2  0  0  0  0  0  0
  188.7150  177.4040  137.7830 C   0  0  0  0  0  3  0  0  0  0  0  0
  187.7960  177.7620  138.7790 C   0  0  0  0  0  0  0  0  0  0  0  0
  186.0700  178.2810  137.1650 O   0  0  0  0  0  0  0  0  0  0  0  0
  185.0070  178.8190  141.7800 O   0  0  0  0  0  0  0  0  0  0  0  0
  183.6020  180.1210  138.8760 C   0  0  0  0  0  1  0  0  0  0  0  0
  186.0210  176.0330  135.8030 O   0  0  0  0  0  1  0  0  0  0  0  0
  185.5580  178.6790  139.4270 C   0  0  2  0  0  3  0  0  0  0  0  0
  184.7670  177.8630  136.7740 C   0  0  2  0  0  3  0  0  0  0  0  0
  182.7700  178.9260  143.2360 C   0  0  0  0  0  1  0  0  0  0  0  0
  184.0570  178.5800  143.9580 C   0  0  0  0  0  2  0  0  0  0  0  0
  186.6140  177.3790  144.7200 O   0  0  0  0  0  0  0  0  0  0  0  0
  188.8790  177.3890  145.4760 C   0  0  0  0  0  1  0  0  0  0  0  0
  187.5130  178.0460  145.5620 C   0  0  2  0  0  3  0  0  0  0  0  0
  187.0320  177.9710  147.0030 C   0  0  0  0  0  2  0  0  0  0  0  0
  185.8330  178.8290  147.2150 C   0  0  0  0  0  0  0  0  0  0  0  0
  185.9670  180.0500  147.4870 O   0  0  0  0  0  1  0  0  0  0  0  0
  184.5620  178.2820  147.0970 O   0  0  0  0  0  0  0  0  0  0  0  0
  1 10  1  0  0  0  0
  1 19  1  1  0  0  0
  2  9  1  0  0  0  0
  3  2  2  0  0  0  0
  4 20  1  6  0  0  0
  4 22  1  0  0  0  0
  5 15  1  1  0  0  0
  5  4  1  0  0  0  0
  6 14  1  0  0  0  0
  6 25  1  1  0  0  0
  7 14  1  0  0  0  0
  8 21  1  1  0  0  0
  8 23  1  0  0  0  0
  8 13  1  0  0  0  0
 10  7  1  1  0  0  0
 11  9  2  0  0  0  0
 11 10  1  0  0  0  0
 12 18  1  6  0  0  0
 12 17  1  0  0  0  0
 12 22  1  0  0  0  0
 13 15  1  0  0  0  0
 14 26  1  1  0  0  0
 16  3  1  0  0  0  0
 16 17  2  0  0  0  0
 17 11  1  0  0  0  0
 19  6  1  0  0  0  0
 22  1  1  0  0  0  0
 23 18  1  0  0  0  0
 23  5  1  0  0  0  0
 24 25  1  0  0  0  0
 26 28  1  0  0  0  0
 27 28  1  0  0  0  0
 28 29  1  0  0  0  0
 29 30  1  0  0  0  0
 30 31  1  0  0  0  0
 32 30  2  0  0  0  0
M  END
>  <MODEL>
4

>  <REMARK>
 VINA RESULT:      -7.6      2.556      4.487
  Name = 
  5 active torsions:
  status: ('A' for Active; 'I' for Inactive)
    1  A    between atoms: C_7  and  C_19
    2  A    between atoms: O_10  and  C_17
    3  A    between atoms: O_10  and  C_20
    4  A    between atoms: C_20  and  C_29
    5  A    between atoms: C_29  and  C_30
                            x       y       z     vdW  Elec       q    Type
                         _______ _______ _______ _____ _____    ______ ____

>  <TORSDO>
F 5

$$$$
=
 OpenBabel11122410533D

 32 36  0  0  1  0  0  0  0  0999 V2000
  184.3960  178.2830  139.9290 C   0  0  1  0  0  3  0  0  0  0  0  0
  184.8490  178.7790  144.8560 C   0  0  0  0  0  3  0  0  0  0  0  0
  183.4780  179.0300  144.9400 C   0  0  0  0  0  3  0  0  0  0  0  0
  182.0730  177.8290  138.9830 C   0  0  2  0  0  3  0  0  0  0  0  0
  180.8490  178.6360  139.1540 N   0  0  2  0  0  0  0  0  0  0  0  0
  186.1030  178.3820  138.4610 C   0  0  2  0  0  3  0  0  0  0  0  0
  186.6380  178.6570  140.9000 C   0  0  0  0  0  2  0  0  0  0  0  0
  179.7380  180.0630  140.7540 C   0  0  2  0  0  3  0  0  0  0  0  0
  185.4300  178.4710  143.6240 C   0  0  0  0  0  3  0  0  0  0  0  0
  185.2830  177.9990  141.1510 C   0  0  1  0  0  3  0  0  0  0  0  0
  184.6500  178.4240  142.4600 C   0  0  0  0  0  0  0  0  0  0  0  0
  182.3950  178.6390  141.3150 C   0  0  2  0  0  3  0  0  0  0  0  0
  180.5970  180.9380  139.8770 C   0  0  0  0  0  2  0  0  0  0  0  0
  187.1930  178.2180  139.5390 C   0  0  2  0  0  3  0  0  0  0  0  0
  181.1450  180.0230  138.7950 C   0  0  0  0  0  2  0  0  0  0  0  0
  182.6840  178.9600  143.7940 C   0  0  0  0  0  3  0  0  0  0  0  0
  183.2510  178.6270  142.5560 C   0  0  0  0  0  0  0  0  0  0  0  0
  181.0940  178.1830  141.5550 O   0  0  0  0  0  0  0  0  0  0  0  0
  184.9520  177.6450  138.8090 O   0  0  0  0  0  0  0  0  0  0  0  0
  181.7050  176.4180  138.5690 C   0  0  0  0  0  1  0  0  0  0  0  0
  179.8620  180.4430  142.0910 O   0  0  0  0  0  1  0  0  0  0  0  0
  182.9860  177.7850  140.2130 C   0  0  2  0  0  3  0  0  0  0  0  0
  180.2480  178.6500  140.5100 C   0  0  2  0  0  3  0  0  0  0  0  0
  186.4750  176.3940  137.0080 C   0  0  0  0  0  1  0  0  0  0  0  0
  186.6150  177.9000  137.1130 C   0  0  0  0  0  2  0  0  0  0  0  0
  188.3120  179.0020  139.2270 O   0  0  0  0  0  0  0  0  0  0  0  0
  189.8320  177.4890  138.1780 C   0  0  0  0  0  1  0  0  0  0  0  0
  189.4230  178.1840  139.4640 C   0  0  2  0  0  3  0  0  0  0  0  0
  189.0790  177.1210  140.4970 C   0  0  0  0  0  2  0  0  0  0  0  0
  190.2500  176.8130  141.3630 C   0  0  0  0  0  0  0  0  0  0  0  0
  190.1800  175.8950  142.2210 O   0  0  0  0  0  1  0  0  0  0  0  0
  191.4290  177.5330  141.2140 O   0  0  0  0  0  0  0  0  0  0  0  0
  1 19  1  6  0  0  0
  1 22  1  0  0  0  0
  1 10  1  0  0  0  0
  2  3  1  0  0  0  0
  4 20  1  1  0  0  0
  4  5  1  0  0  0  0
  4 22  1  0  0  0  0
  5 15  1  1  0  0  0
  5 23  1  0  0  0  0
  6 25  1  6  0  0  0
  6 19  1  0  0  0  0
  6 14  1  0  0  0  0
  8 21  1  1  0  0  0
  9  2  2  0  0  0  0
 10  7  1  6  0  0  0
 10 11  1  0  0  0  0
 11 17  2  0  0  0  0
 11  9  1  0  0  0  0
 12 18  1  1  0  0  0
 12 17  1  0  0  0  0
 13  8  1  0  0  0  0
 14 26  1  6  0  0  0
 14  7  1  0  0  0  0
 15 13  1  0  0  0  0
 16  3  2  0  0  0  0
 17 16  1  0  0  0  0
 22 12  1  0  0  0  0
 23  8  1  0  0  0  0
 23 18  1  0  0  0  0
 24 25  1  0  0  0  0
 26 28  1  0  0  0  0
 27 28  1  0  0  0  0
 28 29  1  0  0  0  0
 29 30  1  0  0  0  0
 30 31  1  0  0  0  0
 32 30  2  0  0  0  0
M  END
>  <MODEL>
5

>  <REMARK>
 VINA RESULT:      -7.5      2.332      7.591
  Name = 
  5 active torsions:
  status: ('A' for Active; 'I' for Inactive)
    1  A    between atoms: C_7  and  C_19
    2  A    between atoms: O_10  and  C_17
    3  A    between atoms: O_10  and  C_20
    4  A    between atoms: C_20  and  C_29
    5  A    between atoms: C_29  and  C_30
                            x       y       z     vdW  Elec       q    Type
                         _______ _______ _______ _____ _____    ______ ____

>  <TORSDO>
F 5

$$$$
=
 OpenBabel11122410533D

 32 36  0  0  1  0  0  0  0  0999 V2000
  188.3230  177.5820  139.1070 C   0  0  1  0  0  3  0  0  0  0  0  0
  193.2220  176.7520  139.3150 C   0  0  0  0  0  3  0  0  0  0  0  0
  193.1360  176.0430  138.1150 C   0  0  0  0  0  3  0  0  0  0  0  0
  187.1630  177.3180  136.8530 C   0  0  2  0  0  3  0  0  0  0  0  0
  187.1380  176.1310  135.9770 N   0  0  2  0  0  0  0  0  0  0  0  0
  187.0490  178.2240  140.8520 C   0  0  2  0  0  3  0  0  0  0  0  0
  189.5060  177.8910  141.2550 C   0  0  0  0  0  2  0  0  0  0  0  0
  188.5000  174.2510  135.3100 C   0  0  2  0  0  3  0  0  0  0  0  0
  192.0870  177.3670  139.8480 C   0  0  0  0  0  3  0  0  0  0  0  0
  189.6530  178.0200  139.7400 C   0  0  1  0  0  3  0  0  0  0  0  0
  190.8500  177.2700  139.1940 C   0  0  0  0  0  0  0  0  0  0  0  0
  189.4510  176.4240  137.2520 C   0  0  2  0  0  3  0  0  0  0  0  0
  187.6620  173.8170  136.4860 C   0  0  0  0  0  2  0  0  0  0  0  0
  188.2500  178.6330  141.7280 C   0  0  2  0  0  3  0  0  0  0  0  0
  186.7160  174.9730  136.7640 C   0  0  0  0  0  2  0  0  0  0  0  0
  191.9170  175.9600  137.4390 C   0  0  0  0  0  3  0  0  0  0  0  0
  190.7770  176.5950  137.9500 C   0  0  0  0  0  0  0  0  0  0  0  0
  189.5780  176.3840  135.8590 O   0  0  0  0  0  0  0  0  0  0  0  0
  187.3200  178.4860  139.4920 O   0  0  0  0  0  0  0  0  0  0  0  0
  186.8130  178.5570  136.0510 C   0  0  0  0  0  1  0  0  0  0  0  0
  189.8120  173.7970  135.4530 O   0  0  0  0  0  1  0  0  0  0  0  0
  188.4850  177.5390  137.5940 C   0  0  2  0  0  3  0  0  0  0  0  0
  188.4160  175.7700  135.3140 C   0  0  2  0  0  3  0  0  0  0  0  0
  184.7940  179.0030  140.1380 C   0  0  0  0  0  1  0  0  0  0  0  0
  185.8040  178.9910  141.2680 C   0  0  0  0  0  2  0  0  0  0  0  0
  188.0070  178.3130  143.0700 O   0  0  0  0  0  0  0  0  0  0  0  0
  188.3410  176.0040  143.5750 C   0  0  0  0  0  1  0  0  0  0  0  0
  188.9830  177.3700  143.4160 C   0  0  2  0  0  3  0  0  0  0  0  0
  189.6350  177.7540  144.7360 C   0  0  0  0  0  2  0  0  0  0  0  0
  191.0550  177.3080  144.7840 C   0  0  0  0  0  0  0  0  0  0  0  0
  191.6920  177.1060  143.7190 O   0  0  0  0  0  0  0  0  0  0  0  0
  191.6810  177.1270  146.0110 O   0  0  0  0  0  1  0  0  0  0  0  0
  1 19  1  6  0  0  0
  1 10  1  0  0  0  0
  2  9  1  0  0  0  0
  3  2  2  0  0  0  0
  4 20  1  6  0  0  0
  4 22  1  0  0  0  0
  5 15  1  1  0  0  0
  5  4  1  0  0  0  0
  6 25  1  1  0  0  0
  6 14  1  0  0  0  0
  7 14  1  0  0  0  0
  8 23  1  0  0  0  0
  8 21  1  1  0  0  0
  8 13  1  0  0  0  0
 10  7  1  1  0  0  0
 11 10  1  0  0  0  0
 11  9  2  0  0  0  0
 12 18  1  6  0  0  0
 12 22  1  0  0  0  0
 12 17  1  0  0  0  0
 13 15  1  0  0  0  0
 14 26  1  1  0  0  0
 16 17  2  0  0  0  0
 16  3  1  0  0  0  0
 17 11  1  0  0  0  0
 19  6  1  0  0  0  0
 22  1  1  0  0  0  0
 23 18  1  0  0  0  0
 23  5  1  0  0  0  0
 24 25  1  0  0  0  0
 26 28  1  0  0  0  0
 28 27  1  0  0  0  0
 28 29  1  0  0  0  0
 29 30  1  0  0  0  0
 30 32  1  0  0  0  0
 31 30  2  0  0  0  0
M  END
>  <MODEL>
6

>  <REMARK>
 VINA RESULT:      -7.3      2.793      4.798
  Name = 
  5 active torsions:
  status: ('A' for Active; 'I' for Inactive)
    1  A    between atoms: C_7  and  C_19
    2  A    between atoms: O_10  and  C_17
    3  A    between atoms: O_10  and  C_20
    4  A    between atoms: C_20  and  C_29
    5  A    between atoms: C_29  and  C_30
                            x       y       z     vdW  Elec       q    Type
                         _______ _______ _______ _____ _____    ______ ____

>  <TORSDO>
F 5

$$$$
=
 OpenBabel11122410533D

 32 36  0  0  1  0  0  0  0  0999 V2000
  189.9240  177.6080  142.4200 C   0  0  1  0  0  3  0  0  0  0  0  0
  185.0570  178.0830  143.3240 C   0  0  0  0  0  3  0  0  0  0  0  0
  185.3260  178.0530  144.6930 C   0  0  0  0  0  3  0  0  0  0  0  0
  191.5490  178.1850  144.2970 C   0  0  2  0  0  3  0  0  0  0  0  0
  191.6050  177.6140  145.6570 N   0  0  2  0  0  0  0  0  0  0  0  0
  190.8130  176.9640  140.4510 C   0  0  2  0  0  3  0  0  0  0  0  0
  188.3110  177.1260  140.6100 C   0  0  0  0  0  2  0  0  0  0  0  0
  190.1770  176.7240  147.3890 C   0  0  2  0  0  3  0  0  0  0  0  0
  186.1070  178.0430  142.4040 C   0  0  0  0  0  3  0  0  0  0  0  0
  188.5630  178.0090  141.8300 C   0  0  1  0  0  3  0  0  0  0  0  0
  187.4370  177.9590  142.8410 C   0  0  0  0  0  0  0  0  0  0  0  0
  189.1230  177.8370  144.7340 C   0  0  2  0  0  3  0  0  0  0  0  0
  190.6230  175.5730  146.5240 C   0  0  0  0  0  2  0  0  0  0  0  0
  189.5110  177.1890  139.6560 C   0  0  2  0  0  3  0  0  0  0  0  0
  191.6380  176.1560  145.5550 C   0  0  0  0  0  2  0  0  0  0  0  0
  186.6460  177.9980  145.1450 C   0  0  0  0  0  3  0  0  0  0  0  0
  187.7090  177.9830  144.2320 C   0  0  0  0  0  0  0  0  0  0  0  0
  189.3380  178.5140  145.9400 O   0  0  0  0  0  0  0  0  0  0  0  0
  190.9280  177.9140  141.4870 O   0  0  0  0  0  0  0  0  0  0  0  0
  192.2710  179.5170  144.2670 C   0  0  0  0  0  1  0  0  0  0  0  0
  188.8170  176.6150  147.6810 O   0  0  0  0  0  1  0  0  0  0  0  0
  190.1350  178.3510  143.7310 C   0  0  2  0  0  3  0  0  0  0  0  0
  190.4900  177.9670  146.5700 C   0  0  2  0  0  3  0  0  0  0  0  0
  193.2430  177.4950  140.3260 C   0  0  0  0  0  1  0  0  0  0  0  0
  192.0200  177.0790  139.5340 C   0  0  0  0  0  2  0  0  0  0  0  0
  189.3640  176.2070  138.6690 O   0  0  0  0  0  0  0  0  0  0  0  0
  187.6540  175.4520  137.1850 C   0  0  0  0  0  1  0  0  0  0  0  0
  188.3120  176.6440  137.8550 C   0  0  2  0  0  3  0  0  0  0  0  0
  188.8420  177.5740  136.7730 C   0  0  0  0  0  2  0  0  0  0  0  0
  188.3440  178.9640  136.9680 C   0  0  0  0  0  0  0  0  0  0  0  0
  189.0910  179.8380  137.4800 O   0  0  0  0  0  1  0  0  0  0  0  0
  187.0570  179.3000  136.5690 O   0  0  0  0  0  0  0  0  0  0  0  0
  1 19  1  6  0  0  0
  1 22  1  0  0  0  0
  2  3  1  0  0  0  0
  3 16  2  0  0  0  0
  4 20  1  1  0  0  0
  4  5  1  0  0  0  0
  5 15  1  6  0  0  0
  5 23  1  0  0  0  0
  6 25  1  6  0  0  0
  6 19  1  0  0  0  0
  8 21  1  6  0  0  0
  9 11  1  0  0  0  0
  9  2  2  0  0  0  0
 10  7  1  6  0  0  0
 10  1  1  0  0  0  0
 10 11  1  0  0  0  0
 11 17  2  0  0  0  0
 12 17  1  6  0  0  0
 12 18  1  0  0  0  0
 13  8  1  0  0  0  0
 14 26  1  6  0  0  0
 14  6  1  0  0  0  0
 14  7  1  0  0  0  0
 15 13  1  0  0  0  0
 17 16  1  0  0  0  0
 18 23  1  0  0  0  0
 22  4  1  0  0  0  0
 22 12  1  0  0  0  0
 23  8  1  0  0  0  0
 25 24  1  0  0  0  0
 27 28  1  0  0  0  0
 28 26  1  0  0  0  0
 29 30  1  0  0  0  0
 29 28  1  0  0  0  0
 30 31  1  0  0  0  0
 32 30  2  0  0  0  0
M  END
>  <MODEL>
7

>  <REMARK>
 VINA RESULT:      -7.3      3.508      7.341
  Name = 
  5 active torsions:
  status: ('A' for Active; 'I' for Inactive)
    1  A    between atoms: C_7  and  C_19
    2  A    between atoms: O_10  and  C_17
    3  A    between atoms: O_10  and  C_20
    4  A    between atoms: C_20  and  C_29
    5  A    between atoms: C_29  and  C_30
                            x       y       z     vdW  Elec       q    Type
                         _______ _______ _______ _____ _____    ______ ____

>  <TORSDO>
F 5

$$$$
=
 OpenBabel11122410533D

 32 36  0  0  1  0  0  0  0  0999 V2000
  186.4730  177.9360  140.6310 C   0  0  1  0  0  3  0  0  0  0  0  0
  190.8200  177.1480  138.3470 C   0  0  0  0  0  3  0  0  0  0  0  0
  190.1340  176.9480  137.1480 C   0  0  0  0  0  3  0  0  0  0  0  0
  184.4590  178.5360  139.1890 C   0  0  2  0  0  3  0  0  0  0  0  0
  183.8870  177.7710  138.0640 N   0  0  2  0  0  0  0  0  0  0  0  0
  186.1540  177.8500  142.8600 C   0  0  2  0  0  3  0  0  0  0  0  0
  188.4710  177.4180  141.9910 C   0  0  0  0  0  2  0  0  0  0  0  0
  184.5340  176.3030  136.2590 C   0  0  2  0  0  3  0  0  0  0  0  0
  190.1200  177.5000  139.5030 C   0  0  0  0  0  3  0  0  0  0  0  0
  187.9970  178.1150  140.7180 C   0  0  1  0  0  3  0  0  0  0  0  0
  188.7250  177.6440  139.4760 C   0  0  0  0  0  0  0  0  0  0  0  0
  186.5350  177.5850  138.1970 C   0  0  2  0  0  3  0  0  0  0  0  0
  184.2000  175.4440  137.4520 C   0  0  0  0  0  2  0  0  0  0  0  0
  187.6580  177.9090  143.1950 C   0  0  2  0  0  3  0  0  0  0  0  0
  183.6500  176.3950  138.5010 C   0  0  0  0  0  2  0  0  0  0  0  0
  188.7490  177.1150  137.0990 C   0  0  0  0  0  3  0  0  0  0  0  0
  188.0380  177.4930  138.2460 C   0  0  0  0  0  0  0  0  0  0  0  0
  186.0660  178.0790  136.9740 O   0  0  0  0  0  0  0  0  0  0  0  0
  185.8770  178.6130  141.7070 O   0  0  0  0  0  0  0  0  0  0  0  0
  184.0100  179.9820  139.1090 C   0  0  0  0  0  1  0  0  0  0  0  0
  185.6970  175.8450  135.6390 O   0  0  0  0  0  1  0  0  0  0  0  0
  185.9860  178.4740  139.2930 C   0  0  2  0  0  3  0  0  0  0  0  0
  184.7010  177.7050  136.8250 C   0  0  2  0  0  3  0  0  0  0  0  0
  183.9320  178.7330  143.5550 C   0  0  0  0  0  1  0  0  0  0  0  0
  185.3310  178.3850  144.0210 C   0  0  0  0  0  2  0  0  0  0  0  0
  187.9450  177.0990  144.3020 O   0  0  0  0  0  0  0  0  0  0  0  0
  189.9670  178.2740  144.7790 C   0  0  0  0  0  1  0  0  0  0  0  0
  188.5590  177.9420  145.2370 C   0  0  2  0  0  3  0  0  0  0  0  0
  188.6420  177.2490  146.5890 C   0  0  0  0  0  2  0  0  0  0  0  0
  187.8170  177.9560  147.6070 C   0  0  0  0  0  0  0  0  0  0  0  0
  188.2390  178.0830  148.7860 O   0  0  0  0  0  1  0  0  0  0  0  0
  186.5860  178.4900  147.2510 O   0  0  0  0  0  0  0  0  0  0  0  0
  1 10  1  0  0  0  0
  1 19  1  1  0  0  0
  2  9  1  0  0  0  0
  3  2  2  0  0  0  0
  4 20  1  6  0  0  0
  4 22  1  0  0  0  0
  5 15  1  1  0  0  0
  5  4  1  0  0  0  0
  6 14  1  0  0  0  0
  6 25  1  1  0  0  0
  7 14  1  0  0  0  0
  8 21  1  1  0  0  0
  8 23  1  0  0  0  0
  8 13  1  0  0  0  0
 10  7  1  1  0  0  0
 11  9  2  0  0  0  0
 11 10  1  0  0  0  0
 12 18  1  6  0  0  0
 12 17  1  0  0  0  0
 12 22  1  0  0  0  0
 13 15  1  0  0  0  0
 14 26  1  1  0  0  0
 16  3  1  0  0  0  0
 16 17  2  0  0  0  0
 17 11  1  0  0  0  0
 19  6  1  0  0  0  0
 22  1  1  0  0  0  0
 23 18  1  0  0  0  0
 23  5  1  0  0  0  0
 24 25  1  0  0  0  0
 26 28  1  0  0  0  0
 27 28  1  0  0  0  0
 28 29  1  0  0  0  0
 29 30  1  0  0  0  0
 30 31  1  0  0  0  0
 32 30  2  0  0  0  0
M  END
>  <MODEL>
8

>  <REMARK>
 VINA RESULT:      -7.2      2.830      5.058
  Name = 
  5 active torsions:
  status: ('A' for Active; 'I' for Inactive)
    1  A    between atoms: C_7  and  C_19
    2  A    between atoms: O_10  and  C_17
    3  A    between atoms: O_10  and  C_20
    4  A    between atoms: C_20  and  C_29
    5  A    between atoms: C_29  and  C_30
                            x       y       z     vdW  Elec       q    Type
                         _______ _______ _______ _____ _____    ______ ____

>  <TORSDO>
F 5

$$$$
=
 OpenBabel11122410533D

 32 36  0  0  1  0  0  0  0  0999 V2000
  183.1850  178.1580  139.9030 C   0  0  1  0  0  3  0  0  0  0  0  0
  185.0620  178.8300  144.4590 C   0  0  0  0  0  3  0  0  0  0  0  0
  183.7780  179.1190  144.9270 C   0  0  0  0  0  3  0  0  0  0  0  0
  180.6820  177.7260  139.6950 C   0  0  2  0  0  3  0  0  0  0  0  0
  179.5710  178.5690  140.1790 N   0  0  2  0  0  0  0  0  0  0  0  0
  184.3910  178.1590  137.9990 C   0  0  2  0  0  3  0  0  0  0  0  0
  185.6170  178.5130  140.1630 C   0  0  0  0  0  2  0  0  0  0  0  0
  178.9930  180.0820  141.9700 C   0  0  2  0  0  3  0  0  0  0  0  0
  185.2540  178.4620  143.1260 C   0  0  0  0  0  3  0  0  0  0  0  0
  184.3860  177.8990  140.8250 C   0  0  1  0  0  3  0  0  0  0  0  0
  184.1680  178.3890  142.2420 C   0  0  0  0  0  0  0  0  0  0  0  0
  181.6800  178.6160  141.7950 C   0  0  2  0  0  3  0  0  0  0  0  0
  179.5700  180.9020  140.8430 C   0  0  0  0  0  2  0  0  0  0  0  0
  185.7460  178.0090  138.7190 C   0  0  2  0  0  3  0  0  0  0  0  0
  179.7670  179.9330  139.6890 C   0  0  0  0  0  2  0  0  0  0  0  0
  182.6830  179.0240  144.0660 C   0  0  0  0  0  3  0  0  0  0  0  0
  182.8600  178.6300  142.7320 C   0  0  0  0  0  0  0  0  0  0  0  0
  180.5000  178.2020  142.4220 O   0  0  0  0  0  0  0  0  0  0  0  0
  183.3820  177.4640  138.6990 O   0  0  0  0  0  0  0  0  0  0  0  0
  180.1920  176.3090  139.4680 C   0  0  0  0  0  1  0  0  0  0  0  0
  179.5070  180.5100  143.1950 O   0  0  0  0  0  1  0  0  0  0  0  0
  181.9130  177.7060  140.6070 C   0  0  2  0  0  3  0  0  0  0  0  0
  179.3920  178.6500  141.6500 C   0  0  2  0  0  3  0  0  0  0  0  0
  184.1170  176.1410  136.5650 C   0  0  0  0  0  1  0  0  0  0  0  0
  184.4810  177.6130  136.5830 C   0  0  0  0  0  2  0  0  0  0  0  0
  186.7340  178.7520  138.0620 O   0  0  0  0  0  0  0  0  0  0  0  0
  189.0550  178.6280  138.6030 C   0  0  0  0  0  1  0  0  0  0  0  0
  187.8570  177.9170  138.0010 C   0  0  2  0  0  3  0  0  0  0  0  0
  188.1750  177.5750  136.5540 C   0  0  0  0  0  2  0  0  0  0  0  0
  188.1720  176.1020  136.3360 C   0  0  0  0  0  0  0  0  0  0  0  0
  188.7990  175.6040  135.3660 O   0  0  0  0  0  0  0  0  0  0  0  0
  187.4860  175.2750  137.2150 O   0  0  0  0  0  1  0  0  0  0  0  0
  1 19  1  6  0  0  0
  1 22  1  0  0  0  0
  1 10  1  0  0  0  0
  2  3  1  0  0  0  0
  4 20  1  1  0  0  0
  4  5  1  0  0  0  0
  4 22  1  0  0  0  0
  5 15  1  1  0  0  0
  5 23  1  0  0  0  0
  6 25  1  6  0  0  0
  6 19  1  0  0  0  0
  6 14  1  0  0  0  0
  8 21  1  1  0  0  0
  9  2  2  0  0  0  0
 10  7  1  6  0  0  0
 10 11  1  0  0  0  0
 11 17  2  0  0  0  0
 11  9  1  0  0  0  0
 12 18  1  1  0  0  0
 12 17  1  0  0  0  0
 13  8  1  0  0  0  0
 14 26  1  6  0  0  0
 14  7  1  0  0  0  0
 15 13  1  0  0  0  0
 16  3  2  0  0  0  0
 17 16  1  0  0  0  0
 22 12  1  0  0  0  0
 23  8  1  0  0  0  0
 23 18  1  0  0  0  0
 24 25  1  0  0  0  0
 28 26  1  0  0  0  0
 28 27  1  0  0  0  0
 29 28  1  0  0  0  0
 30 29  1  0  0  0  0
 30 32  1  0  0  0  0
 31 30  2  0  0  0  0
M  END
>  <MODEL>
9

>  <REMARK>
 VINA RESULT:      -7.2      3.069      8.141
  Name = 
  5 active torsions:
  status: ('A' for Active; 'I' for Inactive)
    1  A    between atoms: C_7  and  C_19
    2  A    between atoms: O_10  and  C_17
    3  A    between atoms: O_10  and  C_20
    4  A    between atoms: C_20  and  C_29
    5  A    between atoms: C_29  and  C_30
                            x       y       z     vdW  Elec       q    Type
                         _______ _______ _______ _____ _____    ______ ____

>  <TORSDO>
F 5

$$$$
