=
 OpenBabel11122411103D

 31 35  0  0  0  0  0  0  0  0999 V2000
  185.4990  178.5520  144.1590 C   0  0  0  0  0  0  0  0  0  0  0  0
  189.0500  177.3820  143.7950 C   0  0  0  0  0  0  0  0  0  0  0  0
  189.5700  177.2450  145.1080 C   0  0  0  0  0  0  0  0  0  0  0  0
  188.8880  177.3020  138.5430 O   0  0  0  0  0  0  0  0  0  0  0  0
  190.0360  176.9350  138.9120 C   0  0  0  0  0  0  0  0  0  0  0  0
  189.3200  177.3860  147.4760 C   0  0  0  0  0  0  0  0  0  0  0  0
  187.7250  177.8070  143.4980 C   0  0  0  0  0  0  0  0  0  0  0  0
  185.1190  178.6430  142.8200 C   0  0  0  0  0  3  0  0  0  0  0  0
  188.8230  177.5170  146.2170 N   0  0  0  0  0  0  0  0  0  0  0  0
  189.4630  177.1860  141.3940 C   0  0  0  0  0  0  0  0  0  0  0  0
  184.6140  178.8660  145.1360 F   0  0  0  0  0  0  0  0  0  0  0  0
  191.6660  176.5370  144.1940 N   0  0  0  0  0  0  0  0  0  0  0  0
  188.3080  177.7520  148.8560 Cl  0  0  0  0  0  0  0  0  0  0  0  0
  188.1920  177.5950  141.1470 N   0  0  0  0  0  0  0  0  0  0  0  0
  189.9150  177.0720  142.7150 C   0  0  0  0  0  0  0  0  0  0  0  0
  190.3500  176.8680  140.3110 N   0  0  0  0  0  2  0  0  0  0  0  0
  186.7890  178.1390  144.4940 C   0  0  0  0  0  3  0  0  0  0  0  0
  190.6350  176.9610  147.6710 C   0  0  0  0  0  3  0  0  0  0  0  0
  187.3250  177.9040  142.1430 C   0  0  0  0  0  0  0  0  0  0  0  0
  186.0300  178.3190  141.8150 C   0  0  0  0  0  3  0  0  0  0  0  0
  191.1890  176.6610  142.9580 N   0  0  0  0  0  0  0  0  0  0  0  0
  190.9010  176.8140  145.2760 C   0  0  0  0  0  0  0  0  0  0  0  0
  191.4280  176.6740  146.5610 C   0  0  0  0  0  3  0  0  0  0  0  0
  192.9280  175.8430  135.9220 C   0  0  0  0  0  0  0  0  0  0  0  0
  190.6450  176.1230  136.6560 C   0  0  0  0  0  3  0  0  0  0  0  0
  193.1590  177.1900  139.6920 Cl  0  0  0  0  0  0  0  0  0  0  0  0
  193.8190  175.4930  134.9630 F   0  0  0  0  0  0  0  0  0  0  0  0
  191.5610  175.7620  135.6660 C   0  0  0  0  0  3  0  0  0  0  0  0
  192.4720  176.6490  138.1660 C   0  0  0  0  0  0  0  0  0  0  0  0
  191.0760  176.5700  137.9160 C   0  0  0  0  0  0  0  0  0  0  0  0
  193.3790  176.2850  137.1660 C   0  0  0  0  0  3  0  0  0  0  0  0
  1 17  1  0  0  0  0
  1 11  1  0  0  0  0
  2  3  1  0  0  0  0
  3 22  2  0  0  0  0
  3  9  1  0  0  0  0
  4  5  2  0  0  0  0
  5 16  1  0  0  0  0
  6 18  1  0  0  0  0
  6 13  1  0  0  0  0
  7  2  1  0  0  0  0
  7 17  2  0  0  0  0
  8  1  2  0  0  0  0
  9  6  2  0  0  0  0
 10 15  1  0  0  0  0
 12 22  1  0  0  0  0
 14 10  2  0  0  0  0
 14 19  1  0  0  0  0
 15 21  1  0  0  0  0
 15  2  2  0  0  0  0
 16 10  1  0  0  0  0
 19  7  1  0  0  0  0
 20 19  2  0  0  0  0
 20  8  1  0  0  0  0
 21 12  2  0  0  0  0
 22 23  1  0  0  0  0
 23 18  2  0  0  0  0
 24 31  1  0  0  0  0
 25 30  2  0  0  0  0
 27 24  1  0  0  0  0
 28 24  2  0  0  0  0
 28 25  1  0  0  0  0
 29 26  1  0  0  0  0
 30 29  1  0  0  0  0
 30  5  1  0  0  0  0
 31 29  2  0  0  0  0
M  END
>  <MODEL>
1

>  <REMARK>
 VINA RESULT:     -11.0      0.000      0.000
  Name = 
  1 active torsions:
  status: ('A' for Active; 'I' for Inactive)
    1  A    between atoms: C_5  and  C_30
                            x       y       z     vdW  Elec       q    Type
                         _______ _______ _______ _____ _____    ______ ____

>  <TORSDO>
F 1

$$$$
=
 OpenBabel11122411103D

 31 35  0  0  0  0  0  0  0  0999 V2000
  185.3320  178.6050  144.2950 C   0  0  0  0  0  0  0  0  0  0  0  0
  188.8750  177.4360  143.8600 C   0  0  0  0  0  0  0  0  0  0  0  0
  189.4240  177.3090  145.1630 C   0  0  0  0  0  0  0  0  0  0  0  0
  188.5980  177.3230  138.6140 O   0  0  0  0  0  0  0  0  0  0  0  0
  189.7550  176.9600  138.9600 C   0  0  0  0  0  0  0  0  0  0  0  0
  189.2260  177.4640  147.5350 C   0  0  0  0  0  0  0  0  0  0  0  0
  187.5440  177.8590  143.5900 C   0  0  0  0  0  0  0  0  0  0  0  0
  184.9220  178.6870  142.9640 C   0  0  0  0  0  3  0  0  0  0  0  0
  188.7010  177.5860  146.2860 N   0  0  0  0  0  0  0  0  0  0  0  0
  189.2360  177.2260  141.4520 C   0  0  0  0  0  0  0  0  0  0  0  0
  184.4680  178.9240  145.2890 F   0  0  0  0  0  0  0  0  0  0  0  0
  191.5010  176.5960  144.2080 N   0  0  0  0  0  0  0  0  0  0  0  0
  188.2430  177.8380  148.9340 Cl  0  0  0  0  0  0  0  0  0  0  0  0
  187.9590  177.6320  141.2310 N   0  0  0  0  0  0  0  0  0  0  0  0
  189.7170  177.1200  142.7640 C   0  0  0  0  0  0  0  0  0  0  0  0
  190.0990  176.9030  140.3520 N   0  0  0  0  0  2  0  0  0  0  0  0
  186.6300  178.1950  144.6040 C   0  0  0  0  0  3  0  0  0  0  0  0
  190.5450  177.0420  147.7030 C   0  0  0  0  0  3  0  0  0  0  0  0
  187.1140  177.9460  142.2430 C   0  0  0  0  0  0  0  0  0  0  0  0
  185.8120  178.3580  141.9410 C   0  0  0  0  0  3  0  0  0  0  0  0
  190.9960  176.7120  142.9820 N   0  0  0  0  0  0  0  0  0  0  0  0
  190.7590  176.8790  145.3050 C   0  0  0  0  0  0  0  0  0  0  0  0
  191.3140  176.7480  146.5780 C   0  0  0  0  0  3  0  0  0  0  0  0
  192.8190  175.9160  136.1270 C   0  0  0  0  0  0  0  0  0  0  0  0
  192.1230  176.6320  138.3260 C   0  0  0  0  0  3  0  0  0  0  0  0
  188.8140  176.0990  135.9930 Cl  0  0  0  0  0  0  0  0  0  0  0  0
  193.8020  175.5920  135.2550 F   0  0  0  0  0  0  0  0  0  0  0  0
  193.1390  176.2980  137.4280 C   0  0  0  0  0  3  0  0  0  0  0  0
  190.4560  176.1990  136.6150 C   0  0  0  0  0  0  0  0  0  0  0  0
  190.7730  176.5900  137.9440 C   0  0  0  0  0  0  0  0  0  0  0  0
  191.4840  175.8670  135.7260 C   0  0  0  0  0  3  0  0  0  0  0  0
  1 17  1  0  0  0  0
  1 11  1  0  0  0  0
  2  3  1  0  0  0  0
  3 22  2  0  0  0  0
  3  9  1  0  0  0  0
  4  5  2  0  0  0  0
  5 16  1  0  0  0  0
  6 18  1  0  0  0  0
  6 13  1  0  0  0  0
  7  2  1  0  0  0  0
  7 17  2  0  0  0  0
  8  1  2  0  0  0  0
  9  6  2  0  0  0  0
 10 15  1  0  0  0  0
 12 22  1  0  0  0  0
 14 10  2  0  0  0  0
 14 19  1  0  0  0  0
 15 21  1  0  0  0  0
 15  2  2  0  0  0  0
 16 10  1  0  0  0  0
 19  7  1  0  0  0  0
 20 19  2  0  0  0  0
 20  8  1  0  0  0  0
 21 12  2  0  0  0  0
 22 23  1  0  0  0  0
 23 18  2  0  0  0  0
 24 28  1  0  0  0  0
 26 29  1  0  0  0  0
 27 24  1  0  0  0  0
 28 25  2  0  0  0  0
 29 30  2  0  0  0  0
 30 25  1  0  0  0  0
 30  5  1  0  0  0  0
 31 24  2  0  0  0  0
 31 29  1  0  0  0  0
M  END
>  <MODEL>
2

>  <REMARK>
 VINA RESULT:     -11.0      1.068      1.375
  Name = 
  1 active torsions:
  status: ('A' for Active; 'I' for Inactive)
    1  A    between atoms: C_5  and  C_30
                            x       y       z     vdW  Elec       q    Type
                         _______ _______ _______ _____ _____    ______ ____

>  <TORSDO>
F 1

$$$$
=
 OpenBabel11122411103D

 31 35  0  0  0  0  0  0  0  0999 V2000
  191.0240  177.2840  141.6340 C   0  0  0  0  0  0  0  0  0  0  0  0
  187.6550  177.9300  143.1670 C   0  0  0  0  0  0  0  0  0  0  0  0
  187.8010  177.7390  144.5650 C   0  0  0  0  0  0  0  0  0  0  0  0
  185.3450  179.0030  138.5700 O   0  0  0  0  0  0  0  0  0  0  0  0
  184.4830  179.1110  139.4840 C   0  0  0  0  0  0  0  0  0  0  0  0
  189.1330  177.2040  146.4700 C   0  0  0  0  0  0  0  0  0  0  0  0
  188.7090  177.7800  142.2230 C   0  0  0  0  0  0  0  0  0  0  0  0
  190.7390  177.5030  140.2860 C   0  0  0  0  0  3  0  0  0  0  0  0
  188.9920  177.3870  145.1300 N   0  0  0  0  0  0  0  0  0  0  0  0
  186.1600  178.4990  141.3180 C   0  0  0  0  0  0  0  0  0  0  0  0
  192.2770  176.9370  142.0140 F   0  0  0  0  0  0  0  0  0  0  0  0
  185.4850  178.2670  144.8690 N   0  0  0  0  0  0  0  0  0  0  0  0
  190.6900  176.7530  147.1290 Cl  0  0  0  0  0  0  0  0  0  0  0  0
  187.1900  178.3460  140.4460 N   0  0  0  0  0  0  0  0  0  0  0  0
  186.3710  178.2950  142.6880 C   0  0  0  0  0  0  0  0  0  0  0  0
  184.8550  178.8680  140.8480 N   0  0  0  0  0  2  0  0  0  0  0  0
  190.0170  177.4210  142.5920 C   0  0  0  0  0  3  0  0  0  0  0  0
  188.0400  177.3750  147.3200 C   0  0  0  0  0  3  0  0  0  0  0  0
  188.4360  177.9990  140.8510 C   0  0  0  0  0  0  0  0  0  0  0  0
  189.4490  177.8600  139.8960 C   0  0  0  0  0  3  0  0  0  0  0  0
  185.3370  178.4490  143.5590 N   0  0  0  0  0  0  0  0  0  0  0  0
  186.6800  177.9180  145.4020 C   0  0  0  0  0  0  0  0  0  0  0  0
  186.8060  177.7340  146.7790 C   0  0  0  0  0  3  0  0  0  0  0  0
  180.4750  180.3440  138.5290 C   0  0  0  0  0  0  0  0  0  0  0  0
  182.8400  180.7940  138.7180 C   0  0  0  0  0  3  0  0  0  0  0  0
  182.1250  176.9340  139.8430 Cl  0  0  0  0  0  0  0  0  0  0  0  0
  179.2220  180.7570  138.2210 F   0  0  0  0  0  0  0  0  0  0  0  0
  181.5500  181.2220  138.4010 C   0  0  0  0  0  3  0  0  0  0  0  0
  181.9790  178.5980  139.2950 C   0  0  0  0  0  0  0  0  0  0  0  0
  183.0810  179.4850  139.1680 C   0  0  0  0  0  0  0  0  0  0  0  0
  180.6910  179.0400  138.9730 C   0  0  0  0  0  3  0  0  0  0  0  0
  1 11  1  0  0  0  0
  1 17  1  0  0  0  0
  2  3  1  0  0  0  0
  3  9  2  0  0  0  0
  3 22  1  0  0  0  0
  4  5  2  0  0  0  0
  5 16  1  0  0  0  0
  6 13  1  0  0  0  0
  6 18  2  0  0  0  0
  7 17  2  0  0  0  0
  7  2  1  0  0  0  0
  8  1  2  0  0  0  0
  9  6  1  0  0  0  0
 10 15  1  0  0  0  0
 12 22  1  0  0  0  0
 14 19  1  0  0  0  0
 14 10  2  0  0  0  0
 15  2  2  0  0  0  0
 15 21  1  0  0  0  0
 16 10  1  0  0  0  0
 19  7  1  0  0  0  0
 20  8  1  0  0  0  0
 20 19  2  0  0  0  0
 21 12  2  0  0  0  0
 22 23  2  0  0  0  0
 23 18  1  0  0  0  0
 24 31  1  0  0  0  0
 25 30  2  0  0  0  0
 27 24  1  0  0  0  0
 28 24  2  0  0  0  0
 28 25  1  0  0  0  0
 29 26  1  0  0  0  0
 30 29  1  0  0  0  0
 30  5  1  0  0  0  0
 31 29  2  0  0  0  0
M  END
>  <MODEL>
3

>  <REMARK>
 VINA RESULT:     -10.9      4.161      7.156
  Name = 
  1 active torsions:
  status: ('A' for Active; 'I' for Inactive)
    1  A    between atoms: C_5  and  C_30
                            x       y       z     vdW  Elec       q    Type
                         _______ _______ _______ _____ _____    ______ ____

>  <TORSDO>
F 1

$$$$
=
 OpenBabel11122411103D

 31 35  0  0  0  0  0  0  0  0999 V2000
  186.8390  178.0870  147.3430 C   0  0  0  0  0  0  0  0  0  0  0  0
  187.5780  177.7750  143.6730 C   0  0  0  0  0  0  0  0  0  0  0  0
  188.9500  177.4310  143.5620 C   0  0  0  0  0  0  0  0  0  0  0  0
  182.6700  178.9370  142.1960 O   0  0  0  0  0  0  0  0  0  0  0  0
  183.3590  178.7300  141.1610 C   0  0  0  0  0  0  0  0  0  0  0  0
  191.0650  176.9420  144.5510 C   0  0  0  0  0  0  0  0  0  0  0  0
  186.9020  177.9850  144.9060 C   0  0  0  0  0  0  0  0  0  0  0  0
  185.4850  178.4210  147.3050 C   0  0  0  0  0  3  0  0  0  0  0  0
  189.7500  177.2710  144.6560 N   0  0  0  0  0  0  0  0  0  0  0  0
  185.4810  178.2520  142.5100 C   0  0  0  0  0  0  0  0  0  0  0  0
  187.4740  177.9720  148.5340 F   0  0  0  0  0  0  0  0  0  0  0  0
  188.7400  177.3990  141.1770 N   0  0  0  0  0  0  0  0  0  0  0  0
  192.0340  176.7530  145.9950 Cl  0  0  0  0  0  0  0  0  0  0  0  0
  184.8690  178.4470  143.7060 N   0  0  0  0  0  0  0  0  0  0  0  0
  186.8410  177.9150  142.4700 C   0  0  0  0  0  0  0  0  0  0  0  0
  184.7490  178.3910  141.2830 N   0  0  0  0  0  2  0  0  0  0  0  0
  187.5390  177.8720  146.1540 C   0  0  0  0  0  3  0  0  0  0  0  0
  191.6430  176.7540  143.2950 C   0  0  0  0  0  3  0  0  0  0  0  0
  185.5270  178.3250  144.8840 C   0  0  0  0  0  0  0  0  0  0  0  0
  184.8310  178.5390  146.0790 C   0  0  0  0  0  3  0  0  0  0  0  0
  187.4520  177.7210  141.2690 N   0  0  0  0  0  0  0  0  0  0  0  0
  189.5090  177.2470  142.2810 C   0  0  0  0  0  0  0  0  0  0  0  0
  190.8560  176.9090  142.1540 C   0  0  0  0  0  3  0  0  0  0  0  0
  181.6060  179.1900  137.2600 C   0  0  0  0  0  0  0  0  0  0  0  0
  182.4980  180.1180  139.3030 C   0  0  0  0  0  3  0  0  0  0  0  0
  182.6800  176.0430  139.5030 Cl  0  0  0  0  0  0  0  0  0  0  0  0
  181.0560  179.3610  136.0350 F   0  0  0  0  0  0  0  0  0  0  0  0
  181.9300  180.2970  138.0400 C   0  0  0  0  0  3  0  0  0  0  0  0
  182.4200  177.7100  139.0050 C   0  0  0  0  0  0  0  0  0  0  0  0
  182.7530  178.8330  139.8090 C   0  0  0  0  0  0  0  0  0  0  0  0
  181.8510  177.9040  137.7420 C   0  0  0  0  0  3  0  0  0  0  0  0
  1 11  1  0  0  0  0
  2  7  1  0  0  0  0
  3  2  1  0  0  0  0
  3  9  1  0  0  0  0
  5 16  1  0  0  0  0
  5  4  2  0  0  0  0
  6  9  2  0  0  0  0
  6 13  1  0  0  0  0
  7 17  1  0  0  0  0
  8  1  1  0  0  0  0
 10 14  2  0  0  0  0
 12 21  2  0  0  0  0
 12 22  1  0  0  0  0
 14 19  1  0  0  0  0
 15 10  1  0  0  0  0
 15  2  2  0  0  0  0
 16 10  1  0  0  0  0
 17  1  2  0  0  0  0
 18  6  1  0  0  0  0
 19  7  2  0  0  0  0
 19 20  1  0  0  0  0
 20  8  2  0  0  0  0
 21 15  1  0  0  0  0
 22  3  2  0  0  0  0
 23 22  1  0  0  0  0
 23 18  2  0  0  0  0
 24 31  2  0  0  0  0
 24 28  1  0  0  0  0
 25 30  1  0  0  0  0
 27 24  1  0  0  0  0
 28 25  2  0  0  0  0
 29 26  1  0  0  0  0
 29 30  2  0  0  0  0
 30  5  1  0  0  0  0
 31 29  1  0  0  0  0
M  END
>  <MODEL>
4

>  <REMARK>
 VINA RESULT:     -10.6      4.251      6.638
  Name = 
  1 active torsions:
  status: ('A' for Active; 'I' for Inactive)
    1  A    between atoms: C_5  and  C_30
                            x       y       z     vdW  Elec       q    Type
                         _______ _______ _______ _____ _____    ______ ____

>  <TORSDO>
F 1

$$$$
=
 OpenBabel11122411103D

 31 35  0  0  0  0  0  0  0  0999 V2000
  186.5610  177.8970  145.4160 C   0  0  0  0  0  0  0  0  0  0  0  0
  187.0370  178.2200  141.7040 C   0  0  0  0  0  0  0  0  0  0  0  0
  188.3990  177.9220  141.4400 C   0  0  0  0  0  0  0  0  0  0  0  0
  182.0330  179.5410  140.7920 O   0  0  0  0  0  0  0  0  0  0  0  0
  182.6460  179.5220  139.6920 C   0  0  0  0  0  0  0  0  0  0  0  0
  190.5810  177.3040  142.1820 C   0  0  0  0  0  0  0  0  0  0  0  0
  186.4500  178.2090  143.0000 C   0  0  0  0  0  0  0  0  0  0  0  0
  185.2070  178.2120  145.5310 C   0  0  0  0  0  3  0  0  0  0  0  0
  189.2750  177.5910  142.4330 N   0  0  0  0  0  0  0  0  0  0  0  0
  184.8610  178.8560  140.7880 C   0  0  0  0  0  0  0  0  0  0  0  0
  187.2810  177.5920  146.5230 F   0  0  0  0  0  0  0  0  0  0  0  0
  188.0180  178.2890  139.1050 N   0  0  0  0  0  0  0  0  0  0  0  0
  191.6510  176.8890  143.5020 Cl  0  0  0  0  0  0  0  0  0  0  0  0
  184.3350  178.8360  142.0400 N   0  0  0  0  0  0  0  0  0  0  0  0
  186.2150  178.5500  140.5960 C   0  0  0  0  0  0  0  0  0  0  0  0
  184.0420  179.1880  139.6570 N   0  0  0  0  0  2  0  0  0  0  0  0
  187.1750  177.8960  144.1630 C   0  0  0  0  0  3  0  0  0  0  0  0
  191.0680  177.3400  140.8750 C   0  0  0  0  0  3  0  0  0  0  0  0
  185.0760  178.5270  143.1320 C   0  0  0  0  0  0  0  0  0  0  0  0
  184.4670  178.5260  144.3910 C   0  0  0  0  0  3  0  0  0  0  0  0
  186.7390  178.5710  139.3410 N   0  0  0  0  0  0  0  0  0  0  0  0
  188.8650  177.9650  140.1110 C   0  0  0  0  0  0  0  0  0  0  0  0
  190.2010  177.6730  139.8340 C   0  0  0  0  0  3  0  0  0  0  0  0
  180.6040  180.6050  136.0650 C   0  0  0  0  0  0  0  0  0  0  0  0
  181.5440  181.1720  138.2150 C   0  0  0  0  0  3  0  0  0  0  0  0
  182.0980  177.1840  137.5320 Cl  0  0  0  0  0  0  0  0  0  0  0  0
  179.9600  180.9710  134.9310 F   0  0  0  0  0  0  0  0  0  0  0  0
  180.8800  181.5520  137.0480 C   0  0  0  0  0  3  0  0  0  0  0  0
  181.6590  178.8830  137.4140 C   0  0  0  0  0  0  0  0  0  0  0  0
  181.9440  179.8420  138.4220 C   0  0  0  0  0  0  0  0  0  0  0  0
  180.9930  179.2780  136.2490 C   0  0  0  0  0  3  0  0  0  0  0  0
  1  8  1  0  0  0  0
  1 11  1  0  0  0  0
  2  7  1  0  0  0  0
  3  2  1  0  0  0  0
  3  9  1  0  0  0  0
  5  4  2  0  0  0  0
  6  9  2  0  0  0  0
  6 13  1  0  0  0  0
  7 19  2  0  0  0  0
  7 17  1  0  0  0  0
 10 14  2  0  0  0  0
 12 21  2  0  0  0  0
 12 22  1  0  0  0  0
 14 19  1  0  0  0  0
 15 10  1  0  0  0  0
 15  2  2  0  0  0  0
 16  5  1  0  0  0  0
 16 10  1  0  0  0  0
 17  1  2  0  0  0  0
 18  6  1  0  0  0  0
 19 20  1  0  0  0  0
 20  8  2  0  0  0  0
 21 15  1  0  0  0  0
 22  3  2  0  0  0  0
 23 22  1  0  0  0  0
 23 18  2  0  0  0  0
 24 31  2  0  0  0  0
 24 28  1  0  0  0  0
 25 30  1  0  0  0  0
 27 24  1  0  0  0  0
 28 25  2  0  0  0  0
 29 26  1  0  0  0  0
 29 30  2  0  0  0  0
 30  5  1  0  0  0  0
 31 29  1  0  0  0  0
M  END
>  <MODEL>
5

>  <REMARK>
 VINA RESULT:     -10.4      4.840      7.501
  Name = 
  1 active torsions:
  status: ('A' for Active; 'I' for Inactive)
    1  A    between atoms: C_5  and  C_30
                            x       y       z     vdW  Elec       q    Type
                         _______ _______ _______ _____ _____    ______ ____

>  <TORSDO>
F 1

$$$$
=
 OpenBabel11122411103D

 31 35  0  0  0  0  0  0  0  0999 V2000
  183.8490  179.2260  139.3330 C   0  0  0  0  0  0  0  0  0  0  0  0
  187.4340  178.1650  139.6980 C   0  0  0  0  0  0  0  0  0  0  0  0
  187.9660  178.0710  138.3850 C   0  0  0  0  0  0  0  0  0  0  0  0
  187.2430  177.9730  144.9460 O   0  0  0  0  0  0  0  0  0  0  0  0
  188.4050  177.6530  144.5770 C   0  0  0  0  0  0  0  0  0  0  0  0
  187.7270  178.2530  136.0190 C   0  0  0  0  0  0  0  0  0  0  0  0
  186.0940  178.5410  139.9940 C   0  0  0  0  0  0  0  0  0  0  0  0
  183.4580  179.2770  140.6710 C   0  0  0  0  0  3  0  0  0  0  0  0
  187.2180  178.3420  137.2770 N   0  0  0  0  0  0  0  0  0  0  0  0
  187.8390  177.9340  142.0970 C   0  0  0  0  0  0  0  0  0  0  0  0
  182.9600  179.5310  138.3570 F   0  0  0  0  0  0  0  0  0  0  0  0
  190.0790  177.4130  139.2990 N   0  0  0  0  0  0  0  0  0  0  0  0
  186.7110  178.6140  134.6410 Cl  0  0  0  0  0  0  0  0  0  0  0  0
  186.5530  178.2960  142.3430 N   0  0  0  0  0  0  0  0  0  0  0  0
  188.3020  177.8610  140.7770 C   0  0  0  0  0  0  0  0  0  0  0  0
  188.7290  177.6230  143.1800 N   0  0  0  0  0  2  0  0  0  0  0  0
  185.1540  178.8610  138.9990 C   0  0  0  0  0  3  0  0  0  0  0  0
  189.0560  177.8750  135.8250 C   0  0  0  0  0  3  0  0  0  0  0  0
  185.6830  178.5970  141.3480 C   0  0  0  0  0  0  0  0  0  0  0  0
  184.3730  178.9630  141.6760 C   0  0  0  0  0  3  0  0  0  0  0  0
  189.5900  177.4970  140.5340 N   0  0  0  0  0  0  0  0  0  0  0  0
  189.3120  177.6880  138.2180 C   0  0  0  0  0  0  0  0  0  0  0  0
  189.8510  177.5910  136.9350 C   0  0  0  0  0  3  0  0  0  0  0  0
  191.5250  176.5840  147.3380 C   0  0  0  0  0  0  0  0  0  0  0  0
  190.6500  176.7530  145.0940 C   0  0  0  0  0  3  0  0  0  0  0  0
  187.8570  178.1620  147.7190 Cl  0  0  0  0  0  0  0  0  0  0  0  0
  192.5230  176.2400  148.1870 F   0  0  0  0  0  0  0  0  0  0  0  0
  191.6810  176.3980  145.9670 C   0  0  0  0  0  3  0  0  0  0  0  0
  189.3010  177.4880  146.9730 C   0  0  0  0  0  0  0  0  0  0  0  0
  189.4500  177.3010  145.5730 C   0  0  0  0  0  0  0  0  0  0  0  0
  190.3410  177.1280  147.8370 C   0  0  0  0  0  3  0  0  0  0  0  0
  1  8  1  0  0  0  0
  2  7  1  0  0  0  0
  2 15  1  0  0  0  0
  3  2  2  0  0  0  0
  5  4  2  0  0  0  0
  5 30  1  0  0  0  0
  6  9  2  0  0  0  0
  7 19  2  0  0  0  0
  8 20  2  0  0  0  0
  9  3  1  0  0  0  0
 10 14  2  0  0  0  0
 10 16  1  0  0  0  0
 11  1  1  0  0  0  0
 12 21  1  0  0  0  0
 13  6  1  0  0  0  0
 15 10  1  0  0  0  0
 16  5  1  0  0  0  0
 17  1  2  0  0  0  0
 17  7  1  0  0  0  0
 18  6  1  0  0  0  0
 18 23  2  0  0  0  0
 19 20  1  0  0  0  0
 19 14  1  0  0  0  0
 21 15  2  0  0  0  0
 22  3  1  0  0  0  0
 22 12  2  0  0  0  0
 23 22  1  0  0  0  0
 24 31  1  0  0  0  0
 24 27  1  0  0  0  0
 25 30  2  0  0  0  0
 25 28  1  0  0  0  0
 28 24  2  0  0  0  0
 29 26  1  0  0  0  0
 29 31  2  0  0  0  0
 30 29  1  0  0  0  0
M  END
>  <MODEL>
6

>  <REMARK>
 VINA RESULT:     -10.2      3.671      7.873
  Name = 
  1 active torsions:
  status: ('A' for Active; 'I' for Inactive)
    1  A    between atoms: C_5  and  C_30
                            x       y       z     vdW  Elec       q    Type
                         _______ _______ _______ _____ _____    ______ ____

>  <TORSDO>
F 1

$$$$
=
 OpenBabel11122411103D

 31 35  0  0  0  0  0  0  0  0999 V2000
  185.4530  178.2290  146.3450 C   0  0  0  0  0  0  0  0  0  0  0  0
  185.5980  178.2850  142.5920 C   0  0  0  0  0  0  0  0  0  0  0  0
  184.2890  178.5960  142.1390 C   0  0  0  0  0  0  0  0  0  0  0  0
  190.7170  177.1160  142.3890 O   0  0  0  0  0  0  0  0  0  0  0  0
  190.2900  177.2430  141.2100 C   0  0  0  0  0  0  0  0  0  0  0  0
  182.0000  179.1120  142.5690 C   0  0  0  0  0  0  0  0  0  0  0  0
  185.9650  178.1680  143.9610 C   0  0  0  0  0  0  0  0  0  0  0  0
  186.7790  177.9170  146.6490 C   0  0  0  0  0  3  0  0  0  0  0  0
  183.2540  178.8130  143.0020 N   0  0  0  0  0  0  0  0  0  0  0  0
  187.9090  177.7700  141.9880 C   0  0  0  0  0  0  0  0  0  0  0  0
  184.5550  178.4110  147.3430 F   0  0  0  0  0  0  0  0  0  0  0  0
  185.0540  178.4750  139.8740 N   0  0  0  0  0  0  0  0  0  0  0  0
  180.7180  179.3780  143.7300 Cl  0  0  0  0  0  0  0  0  0  0  0  0
  188.2240  177.6660  143.3050 N   0  0  0  0  0  0  0  0  0  0  0  0
  186.5960  178.0800  141.6070 C   0  0  0  0  0  0  0  0  0  0  0  0
  188.9100  177.5640  140.9800 N   0  0  0  0  0  2  0  0  0  0  0  0
  185.0520  178.3530  145.0140 C   0  0  0  0  0  3  0  0  0  0  0  0
  181.7330  179.2060  141.2030 C   0  0  0  0  0  3  0  0  0  0  0  0
  187.3070  177.8530  144.2850 C   0  0  0  0  0  0  0  0  0  0  0  0
  187.7030  177.7300  145.6210 C   0  0  0  0  0  3  0  0  0  0  0  0
  186.2850  178.1830  140.2870 N   0  0  0  0  0  0  0  0  0  0  0  0
  184.0460  178.6850  140.7530 C   0  0  0  0  0  0  0  0  0  0  0  0
  182.7660  178.9900  140.2910 C   0  0  0  0  0  3  0  0  0  0  0  0
  193.0430  176.7570  137.9410 C   0  0  0  0  0  0  0  0  0  0  0  0
  192.5700  177.2790  140.2510 C   0  0  0  0  0  3  0  0  0  0  0  0
  189.0710  176.3780  138.3470 Cl  0  0  0  0  0  0  0  0  0  0  0  0
  193.9310  176.6100  136.9290 F   0  0  0  0  0  0  0  0  0  0  0  0
  193.4860  177.1280  139.2090 C   0  0  0  0  0  3  0  0  0  0  0  0
  190.7550  176.6830  138.7520 C   0  0  0  0  0  0  0  0  0  0  0  0
  191.1970  177.0620  140.0480 C   0  0  0  0  0  0  0  0  0  0  0  0
  191.6850  176.5360  137.7170 C   0  0  0  0  0  3  0  0  0  0  0  0
  1  8  1  0  0  0  0
  1 11  1  0  0  0  0
  2  7  1  0  0  0  0
  3  2  1  0  0  0  0
  3  9  1  0  0  0  0
  5  4  2  0  0  0  0
  6  9  2  0  0  0  0
  6 13  1  0  0  0  0
  7 19  2  0  0  0  0
  7 17  1  0  0  0  0
 10 14  2  0  0  0  0
 12 21  2  0  0  0  0
 12 22  1  0  0  0  0
 14 19  1  0  0  0  0
 15 10  1  0  0  0  0
 15  2  2  0  0  0  0
 16  5  1  0  0  0  0
 16 10  1  0  0  0  0
 17  1  2  0  0  0  0
 18  6  1  0  0  0  0
 19 20  1  0  0  0  0
 20  8  2  0  0  0  0
 21 15  1  0  0  0  0
 22  3  2  0  0  0  0
 23 22  1  0  0  0  0
 23 18  2  0  0  0  0
 24 28  1  0  0  0  0
 26 29  1  0  0  0  0
 27 24  1  0  0  0  0
 28 25  2  0  0  0  0
 29 30  2  0  0  0  0
 30 25  1  0  0  0  0
 30  5  1  0  0  0  0
 31 24  2  0  0  0  0
 31 29  1  0  0  0  0
M  END
>  <MODEL>
7

>  <REMARK>
 VINA RESULT:      -9.6      2.868      5.269
  Name = 
  1 active torsions:
  status: ('A' for Active; 'I' for Inactive)
    1  A    between atoms: C_5  and  C_30
                            x       y       z     vdW  Elec       q    Type
                         _______ _______ _______ _____ _____    ______ ____

>  <TORSDO>
F 1

$$$$
=
 OpenBabel11122411103D

 31 35  0  0  0  0  0  0  0  0999 V2000
  182.8300  178.6540  138.4280 C   0  0  0  0  0  0  0  0  0  0  0  0
  186.3480  178.3150  139.7020 C   0  0  0  0  0  0  0  0  0  0  0  0
  187.1900  178.2590  138.5610 C   0  0  0  0  0  0  0  0  0  0  0  0
  184.9260  178.3530  144.7610 O   0  0  0  0  0  0  0  0  0  0  0  0
  186.1810  178.2420  144.7000 C   0  0  0  0  0  0  0  0  0  0  0  0
  187.5040  178.2740  136.1960 C   0  0  0  0  0  0  0  0  0  0  0  0
  184.9320  178.4430  139.6470 C   0  0  0  0  0  0  0  0  0  0  0  0
  182.1240  178.6960  139.6300 C   0  0  0  0  0  3  0  0  0  0  0  0
  186.6970  178.3270  137.2900 N   0  0  0  0  0  0  0  0  0  0  0  0
  186.1920  178.2860  142.1410 C   0  0  0  0  0  0  0  0  0  0  0  0
  182.1650  178.7350  137.2500 F   0  0  0  0  0  0  0  0  0  0  0  0
  189.0990  178.0620  139.9920 N   0  0  0  0  0  0  0  0  0  0  0  0
  186.8060  178.3650  134.5940 Cl  0  0  0  0  0  0  0  0  0  0  0  0
  184.8430  178.4090  142.0510 N   0  0  0  0  0  0  0  0  0  0  0  0
  186.9670  178.2370  140.9740 C   0  0  0  0  0  0  0  0  0  0  0  0
  186.8340  178.2050  143.4230 N   0  0  0  0  0  2  0  0  0  0  0  0
  184.2200  178.5290  138.4380 C   0  0  0  0  0  3  0  0  0  0  0  0
  188.8850  178.1470  136.3480 C   0  0  0  0  0  3  0  0  0  0  0  0
  184.2010  178.4870  140.8600 C   0  0  0  0  0  0  0  0  0  0  0  0
  182.8080  178.6130  140.8430 C   0  0  0  0  0  3  0  0  0  0  0  0
  188.3190  178.1140  141.0690 N   0  0  0  0  0  0  0  0  0  0  0  0
  188.5820  178.1310  138.7430 C   0  0  0  0  0  0  0  0  0  0  0  0
  189.4240  178.0760  137.6320 C   0  0  0  0  0  3  0  0  0  0  0  0
  188.4270  178.0400  148.3630 C   0  0  0  0  0  0  0  0  0  0  0  0
  186.4590  178.6800  147.1180 C   0  0  0  0  0  3  0  0  0  0  0  0
  189.0860  176.8370  144.5940 Cl  0  0  0  0  0  0  0  0  0  0  0  0
  189.1130  177.9880  149.5290 F   0  0  0  0  0  0  0  0  0  0  0  0
  187.1650  178.6280  148.3220 C   0  0  0  0  0  3  0  0  0  0  0  0
  188.2840  177.5470  145.9890 C   0  0  0  0  0  0  0  0  0  0  0  0
  186.9970  178.1460  145.9370 C   0  0  0  0  0  0  0  0  0  0  0  0
  188.9810  177.5020  147.2010 C   0  0  0  0  0  3  0  0  0  0  0  0
  1 17  2  0  0  0  0
  1  8  1  0  0  0  0
  2 15  1  0  0  0  0
  3 22  1  0  0  0  0
  3  2  2  0  0  0  0
  5  4  2  0  0  0  0
  5 30  1  0  0  0  0
  6 18  1  0  0  0  0
  6  9  2  0  0  0  0
  7  2  1  0  0  0  0
  7 19  2  0  0  0  0
  8 20  2  0  0  0  0
  9  3  1  0  0  0  0
 10 16  1  0  0  0  0
 11  1  1  0  0  0  0
 12 21  1  0  0  0  0
 13  6  1  0  0  0  0
 14 10  2  0  0  0  0
 15 21  2  0  0  0  0
 15 10  1  0  0  0  0
 16  5  1  0  0  0  0
 17  7  1  0  0  0  0
 18 23  2  0  0  0  0
 19 14  1  0  0  0  0
 20 19  1  0  0  0  0
 22 12  2  0  0  0  0
 23 22  1  0  0  0  0
 24 27  1  0  0  0  0
 25 28  2  0  0  0  0
 26 29  1  0  0  0  0
 28 24  1  0  0  0  0
 29 31  1  0  0  0  0
 30 29  2  0  0  0  0
 30 25  1  0  0  0  0
 31 24  2  0  0  0  0
M  END
>  <MODEL>
8

>  <REMARK>
 VINA RESULT:      -9.6      3.996      8.532
  Name = 
  1 active torsions:
  status: ('A' for Active; 'I' for Inactive)
    1  A    between atoms: C_5  and  C_30
                            x       y       z     vdW  Elec       q    Type
                         _______ _______ _______ _____ _____    ______ ____

>  <TORSDO>
F 1

$$$$
=
 OpenBabel11122411103D

 31 35  0  0  0  0  0  0  0  0999 V2000
  191.4960  176.0320  146.1010 C   0  0  0  0  0  0  0  0  0  0  0  0
  188.4360  177.4610  144.4550 C   0  0  0  0  0  0  0  0  0  0  0  0
  187.5690  177.8780  145.4990 C   0  0  0  0  0  0  0  0  0  0  0  0
  190.1890  176.5980  139.5770 O   0  0  0  0  0  0  0  0  0  0  0  0
  189.0510  177.1350  139.5020 C   0  0  0  0  0  0  0  0  0  0  0  0
  187.0670  178.1330  147.8170 C   0  0  0  0  0  0  0  0  0  0  0  0
  189.7100  176.8630  144.6620 C   0  0  0  0  0  0  0  0  0  0  0  0
  192.2450  175.6700  144.9810 C   0  0  0  0  0  3  0  0  0  0  0  0
  187.8970  177.7340  146.8160 N   0  0  0  0  0  0  0  0  0  0  0  0
  188.8030  177.2710  142.0460 C   0  0  0  0  0  0  0  0  0  0  0  0
  191.9870  175.8100  147.3440 F   0  0  0  0  0  0  0  0  0  0  0  0
  185.9780  178.6160  143.8700 N   0  0  0  0  0  0  0  0  0  0  0  0
  187.5490  177.9180  149.4850 Cl  0  0  0  0  0  0  0  0  0  0  0  0
  190.0130  176.7020  142.2810 N   0  0  0  0  0  0  0  0  0  0  0  0
  187.9940  177.6600  143.1230 C   0  0  0  0  0  0  0  0  0  0  0  0
  188.3420  177.4770  140.7020 N   0  0  0  0  0  2  0  0  0  0  0  0
  190.2410  176.6220  145.9410 C   0  0  0  0  0  3  0  0  0  0  0  0
  185.8340  178.7120  147.5170 C   0  0  0  0  0  3  0  0  0  0  0  0
  190.4820  176.4900  143.5340 C   0  0  0  0  0  0  0  0  0  0  0  0
  191.7390  175.8990  143.7010 C   0  0  0  0  0  3  0  0  0  0  0  0
  186.7820  178.2290  142.8830 N   0  0  0  0  0  0  0  0  0  0  0  0
  186.3290  178.4600  145.1680 C   0  0  0  0  0  0  0  0  0  0  0  0
  185.4660  178.8750  146.1820 C   0  0  0  0  0  3  0  0  0  0  0  0
  187.1090  177.9980  135.7630 C   0  0  0  0  0  0  0  0  0  0  0  0
  187.0980  177.8700  138.1740 C   0  0  0  0  0  3  0  0  0  0  0  0
  190.7610  176.7030  136.7970 Cl  0  0  0  0  0  0  0  0  0  0  0  0
  186.4750  178.2770  134.5980 F   0  0  0  0  0  0  0  0  0  0  0  0
  186.4430  178.1590  136.9750 C   0  0  0  0  0  3  0  0  0  0  0  0
  189.0990  177.2590  136.9420 C   0  0  0  0  0  0  0  0  0  0  0  0
  188.4270  177.4180  138.1840 C   0  0  0  0  0  0  0  0  0  0  0  0
  188.4300  177.5510  135.7490 C   0  0  0  0  0  3  0  0  0  0  0  0
  1 11  1  0  0  0  0
  2  7  1  0  0  0  0
  2  3  1  0  0  0  0
  3  9  1  0  0  0  0
  5  4  2  0  0  0  0
  5 16  1  0  0  0  0
  6 13  1  0  0  0  0
  7 17  2  0  0  0  0
  8  1  2  0  0  0  0
  9  6  2  0  0  0  0
 10 14  2  0  0  0  0
 10 15  1  0  0  0  0
 12 22  1  0  0  0  0
 14 19  1  0  0  0  0
 15  2  2  0  0  0  0
 16 10  1  0  0  0  0
 17  1  1  0  0  0  0
 18  6  1  0  0  0  0
 19 20  2  0  0  0  0
 19  7  1  0  0  0  0
 20  8  1  0  0  0  0
 21 15  1  0  0  0  0
 21 12  2  0  0  0  0
 22  3  2  0  0  0  0
 22 23  1  0  0  0  0
 23 18  2  0  0  0  0
 24 28  1  0  0  0  0
 25 30  1  0  0  0  0
 26 29  1  0  0  0  0
 27 24  1  0  0  0  0
 28 25  2  0  0  0  0
 29 30  2  0  0  0  0
 30  5  1  0  0  0  0
 31 24  2  0  0  0  0
 31 29  1  0  0  0  0
M  END
>  <MODEL>
9

>  <REMARK>
 VINA RESULT:      -9.6      2.938      4.596
  Name = 
  1 active torsions:
  status: ('A' for Active; 'I' for Inactive)
    1  A    between atoms: C_5  and  C_30
                            x       y       z     vdW  Elec       q    Type
                         _______ _______ _______ _____ _____    ______ ____

>  <TORSDO>
F 1

$$$$
