=
 OpenBabel11122411593D

 28 32  0  0  1  0  0  0  0  0999 V2000
  180.3730  178.4840  139.6220 C   0  0  0  0  0  0  0  0  0  0  0  0
  183.3410  176.9080  138.8460 F   0  0  0  0  0  0  0  0  0  0  0  0
  183.7330  180.0550  144.3570 O   0  0  0  0  0  0  0  0  0  0  0  0
  179.9270  180.5830  137.8110 C   0  0  0  0  0  3  0  0  0  0  0  0
  185.0480  179.0370  142.5970 C   0  0  2  0  0  3  0  0  0  0  0  0
  180.4870  177.3860  140.6320 C   0  0  0  0  0  2  0  0  0  0  0  0
  182.9920  178.2850  136.9610 C   0  0  0  0  0  1  0  0  0  0  0  0
  183.8730  177.9880  138.1590 C   0  0  1  0  0  0  0  0  0  0  0  0
  186.3600  177.7590  138.4720 C   0  0  0  0  0  0  0  0  0  0  0  0
  183.9770  179.2370  139.0750 C   0  0  2  0  0  3  0  0  0  0  0  0
  179.9570  177.9050  144.2400 C   0  0  0  0  0  1  0  0  0  0  0  0
  183.0390  178.5510  141.2260 C   0  0  1  0  0  3  0  0  0  0  0  0
  186.3260  178.4520  139.5660 N   0  0  0  0  0  0  0  0  0  0  0  0
  185.1910  177.6180  137.6650 N   0  0  0  0  0  2  0  0  0  0  0  0
  180.7260  177.9530  143.0110 N   0  0  0  0  0  0  0  0  0  0  0  0
  181.4010  179.4380  139.3780 C   0  0  0  0  0  0  0  0  0  0  0  0
  183.7890  179.4890  143.2330 C   0  0  0  0  0  0  0  0  0  0  0  0
  187.6430  177.1680  138.0140 C   0  0  0  0  0  1  0  0  0  0  0  0
  181.2770  179.2990  142.9210 C   0  0  0  0  0  2  0  0  0  0  0  0
  181.1480  180.4840  138.4790 C   0  0  0  0  0  3  0  0  0  0  0  0
  179.1540  178.5960  138.9410 C   0  0  0  0  0  3  0  0  0  0  0  0
  178.9310  179.6350  138.0370 C   0  0  0  0  0  3  0  0  0  0  0  0
  179.7750  177.7890  141.9200 C   0  0  0  0  0  2  0  0  0  0  0  0
  184.5660  178.3780  141.2970 C   0  0  1  0  0  3  0  0  0  0  0  0
  182.6490  179.2370  142.4410 N   0  0  0  0  0  0  0  0  0  0  0  0
  185.1250  179.1100  140.0860 C   0  0  2  0  0  3  0  0  0  0  0  0
  185.7250  177.9930  143.4640 C   0  0  0  0  0  1  0  0  0  0  0  0
  182.7790  179.4270  140.0100 C   0  0  2  0  0  3  0  0  0  0  0  0
  1  6  1  0  0  0  0
  4 22  2  0  0  0  0
  4 20  1  0  0  0  0
  5 17  1  0  0  0  0
  5 27  1  1  0  0  0
  6 23  1  0  0  0  0
  8  7  1  6  0  0  0
  8  2  1  0  0  0  0
  8 10  1  0  0  0  0
  9 13  2  0  0  0  0
 10 28  1  0  0  0  0
 10 26  1  0  0  0  0
 12 24  1  0  0  0  0
 12 25  1  0  0  0  0
 13 26  1  0  0  0  0
 14  8  1  0  0  0  0
 14  9  1  0  0  0  0
 15 11  1  0  0  0  0
 16  1  1  0  0  0  0
 16 28  1  0  0  0  0
 17  3  2  0  0  0  0
 18  9  1  0  0  0  0
 19 15  1  0  0  0  0
 20 16  2  0  0  0  0
 21  1  2  0  0  0  0
 22 21  1  0  0  0  0
 23 15  1  0  0  0  0
 24  5  1  0  0  0  0
 25 19  1  0  0  0  0
 25 17  1  0  0  0  0
 26 24  1  0  0  0  0
 28 12  1  0  0  0  0
M  END
>  <MODEL>
1

>  <REMARK>
 VINA RESULT:      -5.9      0.000      0.000
  Name = 
  0 active torsions:
  status: ('A' for Active; 'I' for Inactive)
                            x       y       z     vdW  Elec       q    Type
                         _______ _______ _______ _____ _____    ______ ____

>  <TORSDO>
F 0

$$$$
=
 OpenBabel11122411593D

 28 32  0  0  1  0  0  0  0  0999 V2000
  181.6430  175.8600  136.9500 C   0  0  0  0  0  0  0  0  0  0  0  0
  184.9550  175.8600  137.9100 F   0  0  0  0  0  0  0  0  0  0  0  0
  181.3450  179.1700  141.9640 O   0  0  0  0  0  0  0  0  0  0  0  0
  181.3520  177.3580  134.5940 C   0  0  0  0  0  3  0  0  0  0  0  0
  183.6280  178.7950  141.2470 C   0  0  2  0  0  3  0  0  0  0  0  0
  181.6710  175.0240  138.1910 C   0  0  0  0  0  2  0  0  0  0  0  0
  185.0590  176.7680  135.7340 C   0  0  0  0  0  1  0  0  0  0  0  0
  185.2810  177.0130  137.2140 C   0  0  1  0  0  0  0  0  0  0  0  0
  187.1600  178.0310  138.5430 C   0  0  0  0  0  0  0  0  0  0  0  0
  184.4270  178.2170  137.6950 C   0  0  2  0  0  3  0  0  0  0  0  0
  179.2980  175.4660  140.9740 C   0  0  0  0  0  1  0  0  0  0  0  0
  182.9170  177.3100  139.3920 C   0  0  1  0  0  3  0  0  0  0  0  0
  186.3290  178.6940  139.2840 N   0  0  0  0  0  0  0  0  0  0  0  0
  186.6950  177.2910  137.4150 N   0  0  0  0  0  2  0  0  0  0  0  0
  180.4770  175.7950  140.1960 N   0  0  0  0  0  0  0  0  0  0  0  0
  182.1890  177.1720  136.8750 C   0  0  0  0  0  0  0  0  0  0  0  0
  182.1590  178.6270  141.1700 C   0  0  0  0  0  0  0  0  0  0  0  0
  188.6160  178.1010  138.8260 C   0  0  0  0  0  1  0  0  0  0  0  0
  180.4230  177.2300  139.9510 C   0  0  0  0  0  2  0  0  0  0  0  0
  182.0190  177.9040  135.6900 C   0  0  0  0  0  3  0  0  0  0  0  0
  180.9780  175.3260  135.8390 C   0  0  0  0  0  3  0  0  0  0  0  0
  180.8370  176.0650  134.6650 C   0  0  0  0  0  3  0  0  0  0  0  0
  180.3300  175.1200  138.9130 C   0  0  0  0  0  2  0  0  0  0  0  0
  184.1430  177.8990  140.1120 C   0  0  1  0  0  3  0  0  0  0  0  0
  181.7530  177.8040  140.0980 N   0  0  0  0  0  0  0  0  0  0  0  0
  184.8810  178.7260  139.0690 C   0  0  2  0  0  3  0  0  0  0  0  0
  184.1440  178.2670  142.5720 C   0  0  0  0  0  1  0  0  0  0  0  0
  182.9620  177.8690  137.9780 C   0  0  2  0  0  3  0  0  0  0  0  0
  1  6  1  0  0  0  0
  4 22  2  0  0  0  0
  4 20  1  0  0  0  0
  5 27  1  1  0  0  0
  6 23  1  0  0  0  0
  8  7  1  6  0  0  0
  8 14  1  0  0  0  0
  8 10  1  0  0  0  0
  8  2  1  0  0  0  0
  9 18  1  0  0  0  0
  9 13  2  0  0  0  0
 10 28  1  0  0  0  0
 10 26  1  0  0  0  0
 12 25  1  0  0  0  0
 12 24  1  0  0  0  0
 14  9  1  0  0  0  0
 15 11  1  0  0  0  0
 16  1  1  0  0  0  0
 16 28  1  0  0  0  0
 17  5  1  0  0  0  0
 17  3  2  0  0  0  0
 19 25  1  0  0  0  0
 19 15  1  0  0  0  0
 20 16  2  0  0  0  0
 21  1  2  0  0  0  0
 22 21  1  0  0  0  0
 23 15  1  0  0  0  0
 24  5  1  0  0  0  0
 25 17  1  0  0  0  0
 26 13  1  0  0  0  0
 26 24  1  0  0  0  0
 28 12  1  0  0  0  0
M  END
>  <MODEL>
2

>  <REMARK>
 VINA RESULT:      -5.7      2.251      3.079
  Name = 
  0 active torsions:
  status: ('A' for Active; 'I' for Inactive)
                            x       y       z     vdW  Elec       q    Type
                         _______ _______ _______ _____ _____    ______ ____

>  <TORSDO>
F 0

$$$$
=
 OpenBabel11122411593D

 28 32  0  0  1  0  0  0  0  0999 V2000
  187.8630  176.3510  136.5810 C   0  0  0  0  0  0  0  0  0  0  0  0
  189.0640  175.9290  139.7870 F   0  0  0  0  0  0  0  0  0  0  0  0
  183.9190  179.6640  139.6890 O   0  0  0  0  0  0  0  0  0  0  0  0
  189.6900  177.8780  135.0930 C   0  0  0  0  0  3  0  0  0  0  0  0
  185.8220  179.0030  141.0330 C   0  0  2  0  0  3  0  0  0  0  0  0
  186.8240  175.5160  137.2610 C   0  0  0  0  0  2  0  0  0  0  0  0
  190.9360  176.8200  138.6590 C   0  0  0  0  0  1  0  0  0  0  0  0
  189.9010  177.0330  139.7470 C   0  0  1  0  0  0  0  0  0  0  0  0
  190.0290  177.8010  142.1400 C   0  0  0  0  0  0  0  0  0  0  0  0
  189.0980  178.3340  139.4800 C   0  0  2  0  0  3  0  0  0  0  0  0
  183.2190  176.2510  137.0890 C   0  0  0  0  0  1  0  0  0  0  0  0
  186.7740  177.6240  139.2050 C   0  0  1  0  0  3  0  0  0  0  0  0
  188.9910  178.5640  141.9920 N   0  0  0  0  0  0  0  0  0  0  0  0
  190.6010  177.1280  141.0190 N   0  0  0  0  0  2  0  0  0  0  0  0
  184.5670  176.4300  137.5930 N   0  0  0  0  0  0  0  0  0  0  0  0
  188.3470  177.5830  137.1050 C   0  0  0  0  0  0  0  0  0  0  0  0
  184.9980  179.0230  139.8030 C   0  0  0  0  0  0  0  0  0  0  0  0
  190.6740  177.6850  143.4730 C   0  0  0  0  0  1  0  0  0  0  0  0
  184.8380  177.8600  137.5510 C   0  0  0  0  0  2  0  0  0  0  0  0
  189.2490  178.3330  136.3350 C   0  0  0  0  0  3  0  0  0  0  0  0
  188.3180  175.9080  135.3330 C   0  0  0  0  0  3  0  0  0  0  0  0
  189.2290  176.6610  134.5940 C   0  0  0  0  0  3  0  0  0  0  0  0
  185.4560  175.7800  136.6390 C   0  0  0  0  0  2  0  0  0  0  0  0
  186.9700  178.0510  140.6700 C   0  0  1  0  0  3  0  0  0  0  0  0
  185.5540  178.2600  138.7540 N   0  0  0  0  0  0  0  0  0  0  0  0
  188.3050  178.7800  140.7170 C   0  0  2  0  0  3  0  0  0  0  0  0
  185.0290  178.4120  142.1820 C   0  0  0  0  0  1  0  0  0  0  0  0
  187.9750  178.1750  138.4510 C   0  0  2  0  0  3  0  0  0  0  0  0
  1 16  1  0  0  0  0
  1  6  1  0  0  0  0
  3 17  2  0  0  0  0
  4 20  1  0  0  0  0
  5 27  1  1  0  0  0
  8  7  1  6  0  0  0
  8  2  1  0  0  0  0
  8 14  1  0  0  0  0
  9 18  1  0  0  0  0
 10  8  1  0  0  0  0
 10 26  1  0  0  0  0
 11 15  1  0  0  0  0
 12 24  1  0  0  0  0
 13  9  2  0  0  0  0
 14  9  1  0  0  0  0
 16 28  1  0  0  0  0
 17  5  1  0  0  0  0
 19 15  1  0  0  0  0
 19 25  1  0  0  0  0
 20 16  2  0  0  0  0
 21  1  2  0  0  0  0
 22  4  2  0  0  0  0
 22 21  1  0  0  0  0
 23  6  1  0  0  0  0
 23 15  1  0  0  0  0
 24 26  1  0  0  0  0
 24  5  1  0  0  0  0
 25 12  1  0  0  0  0
 25 17  1  0  0  0  0
 26 13  1  0  0  0  0
 28 12  1  0  0  0  0
 28 10  1  0  0  0  0
M  END
>  <MODEL>
3

>  <REMARK>
 VINA RESULT:      -5.7      3.701      6.645
  Name = 
  0 active torsions:
  status: ('A' for Active; 'I' for Inactive)
                            x       y       z     vdW  Elec       q    Type
                         _______ _______ _______ _____ _____    ______ ____

>  <TORSDO>
F 0

$$$$
=
 OpenBabel11122411593D

 28 32  0  0  1  0  0  0  0  0999 V2000
  181.3230  179.0480  140.6240 C   0  0  0  0  0  0  0  0  0  0  0  0
  180.9210  176.2840  138.6020 F   0  0  0  0  0  0  0  0  0  0  0  0
  186.8180  178.6280  138.2130 O   0  0  0  0  0  0  0  0  0  0  0  0
  179.8070  181.1800  139.6060 C   0  0  0  0  0  3  0  0  0  0  0  0
  185.2190  177.1820  137.1090 C   0  0  2  0  0  3  0  0  0  0  0  0
  182.1540  177.9870  141.2750 C   0  0  0  0  0  2  0  0  0  0  0  0
  179.2400  177.7380  137.8100 C   0  0  0  0  0  1  0  0  0  0  0  0
  180.5290  177.0070  137.4870 C   0  0  1  0  0  0  0  0  0  0  0  0
  181.2920  175.6080  135.5390 C   0  0  0  0  0  0  0  0  0  0  0  0
  181.6290  178.0160  137.0600 C   0  0  2  0  0  3  0  0  0  0  0  0
  185.6200  178.5440  142.3900 C   0  0  0  0  0  1  0  0  0  0  0  0
  183.4180  177.7700  138.7090 C   0  0  1  0  0  3  0  0  0  0  0  0
  182.4510  176.1870  135.5270 N   0  0  0  0  0  0  0  0  0  0  0  0
  180.2570  176.0760  136.4030 N   0  0  0  0  0  2  0  0  0  0  0  0
  184.5920  178.2720  141.4040 N   0  0  0  0  0  0  0  0  0  0  0  0
  181.4400  179.4070  139.2520 C   0  0  0  0  0  0  0  0  0  0  0  0
  185.6540  178.1510  138.1410 C   0  0  0  0  0  0  0  0  0  0  0  0
  181.0130  174.4970  134.5940 C   0  0  0  0  0  1  0  0  0  0  0  0
  184.8220  179.1950  140.3010 C   0  0  0  0  0  2  0  0  0  0  0  0
  180.6810  180.4840  138.7710 C   0  0  0  0  0  3  0  0  0  0  0  0
  180.4390  179.7570  141.4480 C   0  0  0  0  0  3  0  0  0  0  0  0
  179.6800  180.8120  140.9440 C   0  0  0  0  0  3  0  0  0  0  0  0
  183.3210  178.6260  142.0220 C   0  0  0  0  0  2  0  0  0  0  0  0
  183.7640  176.8870  137.4970 C   0  0  1  0  0  3  0  0  0  0  0  0
  184.6210  178.5060  139.0350 N   0  0  0  0  0  0  0  0  0  0  0  0
  182.8160  177.3150  136.3860 C   0  0  2  0  0  3  0  0  0  0  0  0
  186.0320  175.9060  137.2170 C   0  0  0  0  0  1  0  0  0  0  0  0
  182.3250  178.7140  138.2330 C   0  0  2  0  0  3  0  0  0  0  0  0
  1  6  1  0  0  0  0
  1 21  1  0  0  0  0
  4 22  1  0  0  0  0
  5 27  1  1  0  0  0
  5 24  1  0  0  0  0
  5 17  1  0  0  0  0
  6 23  1  0  0  0  0
  8  7  1  1  0  0  0
  8  2  1  0  0  0  0
  9 14  1  0  0  0  0
 10  8  1  0  0  0  0
 10 28  1  0  0  0  0
 12 25  1  0  0  0  0
 13  9  2  0  0  0  0
 13 26  1  0  0  0  0
 14  8  1  0  0  0  0
 15 23  1  0  0  0  0
 15 11  1  0  0  0  0
 16  1  2  0  0  0  0
 17  3  2  0  0  0  0
 17 25  1  0  0  0  0
 18  9  1  0  0  0  0
 19 15  1  0  0  0  0
 20 16  1  0  0  0  0
 20  4  2  0  0  0  0
 22 21  2  0  0  0  0
 24 12  1  0  0  0  0
 25 19  1  0  0  0  0
 26 10  1  0  0  0  0
 26 24  1  0  0  0  0
 28 12  1  0  0  0  0
 28 16  1  0  0  0  0
M  END
>  <MODEL>
4

>  <REMARK>
 VINA RESULT:      -5.6      2.582      4.437
  Name = 
  0 active torsions:
  status: ('A' for Active; 'I' for Inactive)
                            x       y       z     vdW  Elec       q    Type
                         _______ _______ _______ _____ _____    ______ ____

>  <TORSDO>
F 0

$$$$
=
 OpenBabel11122411593D

 28 32  0  0  1  0  0  0  0  0999 V2000
  186.0540  177.9120  143.8510 C   0  0  0  0  0  0  0  0  0  0  0  0
  183.8560  176.9550  141.3720 F   0  0  0  0  0  0  0  0  0  0  0  0
  189.4170  178.8690  138.9560 O   0  0  0  0  0  0  0  0  0  0  0  0
  185.1290  180.2710  145.0600 C   0  0  0  0  0  3  0  0  0  0  0  0
  187.0980  178.4390  138.4060 C   0  0  2  0  0  3  0  0  0  0  0  0
  186.6390  176.6490  143.3030 C   0  0  0  0  0  2  0  0  0  0  0  0
  182.6480  178.6440  142.4940 C   0  0  0  0  0  1  0  0  0  0  0  0
  183.3140  178.2180  141.1990 C   0  0  1  0  0  0  0  0  0  0  0  0
  182.6040  178.2640  138.7850 C   0  0  0  0  0  0  0  0  0  0  0  0
  184.4050  179.2440  140.7910 C   0  0  2  0  0  3  0  0  0  0  0  0
  190.1890  176.3050  142.3810 C   0  0  0  0  0  1  0  0  0  0  0  0
  186.5050  177.9920  140.7720 C   0  0  1  0  0  3  0  0  0  0  0  0
  183.7680  178.6960  138.4100 N   0  0  0  0  0  0  0  0  0  0  0  0
  182.2870  178.1440  140.1710 N   0  0  0  0  0  2  0  0  0  0  0  0
  188.8150  176.7200  142.1640 N   0  0  0  0  0  0  0  0  0  0  0  0
  185.6910  179.0260  143.0430 C   0  0  0  0  0  0  0  0  0  0  0  0
  188.2510  178.5700  139.3270 C   0  0  0  0  0  0  0  0  0  0  0  0
  181.5670  177.9640  137.7650 C   0  0  0  0  0  1  0  0  0  0  0  0
  188.8660  178.1150  141.7480 C   0  0  0  0  0  2  0  0  0  0  0  0
  185.2440  180.1970  143.6720 C   0  0  0  0  0  3  0  0  0  0  0  0
  185.9310  178.0030  145.2430 C   0  0  0  0  0  3  0  0  0  0  0  0
  185.4670  179.1710  145.8470 C   0  0  0  0  0  3  0  0  0  0  0  0
  188.1560  176.6660  143.4620 C   0  0  0  0  0  2  0  0  0  0  0  0
  185.9530  178.0150  139.3360 C   0  0  1  0  0  3  0  0  0  0  0  0
  187.9070  178.3430  140.6760 N   0  0  0  0  0  0  0  0  0  0  0  0
  184.8450  179.0590  139.3320 C   0  0  2  0  0  3  0  0  0  0  0  0
  187.3580  177.3350  137.4000 C   0  0  0  0  0  1  0  0  0  0  0  0
  185.7360  179.0660  141.5270 C   0  0  2  0  0  3  0  0  0  0  0  0
  1 21  1  0  0  0  0
  3 17  2  0  0  0  0
  4 22  1  0  0  0  0
  5 27  1  6  0  0  0
  5 17  1  0  0  0  0
  5 24  1  0  0  0  0
  6 23  1  0  0  0  0
  6  1  1  0  0  0  0
  8  2  1  0  0  0  0
  8  7  1  1  0  0  0
  9 14  1  0  0  0  0
 10  8  1  0  0  0  0
 10 28  1  0  0  0  0
 12 28  1  0  0  0  0
 13  9  2  0  0  0  0
 13 26  1  0  0  0  0
 14  8  1  0  0  0  0
 15 11  1  0  0  0  0
 15 23  1  0  0  0  0
 16 20  1  0  0  0  0
 16  1  2  0  0  0  0
 17 25  1  0  0  0  0
 18  9  1  0  0  0  0
 19 15  1  0  0  0  0
 20  4  2  0  0  0  0
 21 22  2  0  0  0  0
 24 12  1  0  0  0  0
 25 12  1  0  0  0  0
 25 19  1  0  0  0  0
 26 24  1  0  0  0  0
 26 10  1  0  0  0  0
 28 16  1  0  0  0  0
M  END
>  <MODEL>
5

>  <REMARK>
 VINA RESULT:      -5.6      2.580      6.274
  Name = 
  0 active torsions:
  status: ('A' for Active; 'I' for Inactive)
                            x       y       z     vdW  Elec       q    Type
                         _______ _______ _______ _____ _____    ______ ____

>  <TORSDO>
F 0

$$$$
=
 OpenBabel11122411593D

 28 32  0  0  1  0  0  0  0  0999 V2000
  181.5520  178.2380  139.5870 C   0  0  0  0  0  0  0  0  0  0  0  0
  182.0240  175.1380  138.1510 F   0  0  0  0  0  0  0  0  0  0  0  0
  187.1900  178.8000  137.5650 O   0  0  0  0  0  0  0  0  0  0  0  0
  179.6690  179.6850  138.0900 C   0  0  0  0  0  3  0  0  0  0  0  0
  186.1010  176.8150  136.7060 C   0  0  2  0  0  3  0  0  0  0  0  0
  182.5490  177.5640  140.4760 C   0  0  0  0  0  2  0  0  0  0  0  0
  180.1250  175.9430  137.0040 C   0  0  0  0  0  1  0  0  0  0  0  0
  181.5780  175.5190  136.8960 C   0  0  1  0  0  0  0  0  0  0  0  0
  182.8380  174.0270  135.3080 C   0  0  0  0  0  0  0  0  0  0  0  0
  182.4360  176.6790  136.3240 C   0  0  2  0  0  3  0  0  0  0  0  0
  185.6550  179.1840  141.6140 C   0  0  0  0  0  1  0  0  0  0  0  0
  184.0660  177.2070  138.0690 C   0  0  1  0  0  3  0  0  0  0  0  0
  183.8190  174.8710  135.2320 N   0  0  0  0  0  0  0  0  0  0  0  0
  181.6430  174.3650  136.0120 N   0  0  0  0  0  2  0  0  0  0  0  0
  184.8220  178.4810  140.6570 N   0  0  0  0  0  0  0  0  0  0  0  0
  181.7090  178.3550  138.1770 C   0  0  0  0  0  0  0  0  0  0  0  0
  186.1880  178.0360  137.5380 C   0  0  0  0  0  0  0  0  0  0  0  0
  182.9270  172.7270  134.5960 C   0  0  0  0  0  1  0  0  0  0  0  0
  184.9260  179.2120  139.4020 C   0  0  0  0  0  2  0  0  0  0  0  0
  180.7610  179.0940  137.4540 C   0  0  0  0  0  3  0  0  0  0  0  0
  180.4490  178.8360  140.2090 C   0  0  0  0  0  3  0  0  0  0  0  0
  179.5090  179.5510  139.4670 C   0  0  0  0  0  3  0  0  0  0  0  0
  183.4500  178.6060  141.1320 C   0  0  0  0  0  2  0  0  0  0  0  0
  184.7300  176.2340  137.0780 C   0  0  1  0  0  3  0  0  0  0  0  0
  185.0190  178.2740  138.2930 N   0  0  0  0  0  0  0  0  0  0  0  0
  183.8160  176.1930  135.8610 C   0  0  2  0  0  3  0  0  0  0  0  0
  187.1840  175.8320  137.1070 C   0  0  0  0  0  1  0  0  0  0  0  0
  182.8280  177.7360  137.3620 C   0  0  2  0  0  3  0  0  0  0  0  0
  1 21  1  0  0  0  0
  1  6  1  0  0  0  0
  4 22  1  0  0  0  0
  5 24  1  0  0  0  0
  5 27  1  1  0  0  0
  5 17  1  0  0  0  0
  6 23  1  0  0  0  0
  8  7  1  1  0  0  0
  8  2  1  0  0  0  0
  9 14  1  0  0  0  0
 10  8  1  0  0  0  0
 10 28  1  0  0  0  0
 12 25  1  0  0  0  0
 13  9  2  0  0  0  0
 13 26  1  0  0  0  0
 14  8  1  0  0  0  0
 15 23  1  0  0  0  0
 15 11  1  0  0  0  0
 16  1  2  0  0  0  0
 17  3  2  0  0  0  0
 17 25  1  0  0  0  0
 18  9  1  0  0  0  0
 19 15  1  0  0  0  0
 20  4  2  0  0  0  0
 20 16  1  0  0  0  0
 22 21  2  0  0  0  0
 24 12  1  0  0  0  0
 25 19  1  0  0  0  0
 26 10  1  0  0  0  0
 26 24  1  0  0  0  0
 28 12  1  0  0  0  0
 28 16  1  0  0  0  0
M  END
>  <MODEL>
6

>  <REMARK>
 VINA RESULT:      -5.4      2.843      4.666
  Name = 
  0 active torsions:
  status: ('A' for Active; 'I' for Inactive)
                            x       y       z     vdW  Elec       q    Type
                         _______ _______ _______ _____ _____    ______ ____

>  <TORSDO>
F 0

$$$$
=
 OpenBabel11122411593D

 28 32  0  0  1  0  0  0  0  0999 V2000
  190.3470  177.1990  142.6480 C   0  0  0  0  0  0  0  0  0  0  0  0
  186.9650  176.6880  143.0860 F   0  0  0  0  0  0  0  0  0  0  0  0
  188.2500  179.0270  137.3150 O   0  0  0  0  0  0  0  0  0  0  0  0
  191.1970  179.3010  144.3040 C   0  0  0  0  0  3  0  0  0  0  0  0
  186.4780  178.6920  138.9310 C   0  0  2  0  0  3  0  0  0  0  0  0
  190.0230  176.0570  141.7390 C   0  0  0  0  0  2  0  0  0  0  0  0
  187.4900  178.1450  144.8670 C   0  0  0  0  0  1  0  0  0  0  0  0
  186.7150  177.9600  143.5770 C   0  0  1  0  0  0  0  0  0  0  0  0
  184.3380  178.4310  142.8970 C   0  0  0  0  0  0  0  0  0  0  0  0
  187.1170  179.0470  142.5450 C   0  0  2  0  0  3  0  0  0  0  0  0
  191.1260  175.8990  138.2280 C   0  0  0  0  0  1  0  0  0  0  0  0
  188.0520  177.8280  140.6420 C   0  0  1  0  0  3  0  0  0  0  0  0
  184.7200  178.9280  141.7620 N   0  0  0  0  0  0  0  0  0  0  0  0
  185.2970  178.0650  143.8880 N   0  0  0  0  0  2  0  0  0  0  0  0
  190.2660  176.3390  139.3100 N   0  0  0  0  0  0  0  0  0  0  0  0
  189.6450  178.4370  142.6360 C   0  0  0  0  0  0  0  0  0  0  0  0
  187.8830  178.6620  138.4640 C   0  0  0  0  0  0  0  0  0  0  0  0
  182.8890  178.3120  143.1980 C   0  0  0  0  0  1  0  0  0  0  0  0
  190.1540  177.7860  139.1860 C   0  0  0  0  0  2  0  0  0  0  0  0
  190.0980  179.4760  143.4640 C   0  0  0  0  0  3  0  0  0  0  0  0
  191.4480  177.0400  143.5000 C   0  0  0  0  0  3  0  0  0  0  0  0
  191.8690  178.0810  144.3280 C   0  0  0  0  0  3  0  0  0  0  0  0
  190.9770  176.0520  140.5480 C   0  0  0  0  0  2  0  0  0  0  0  0
  186.5670  178.1040  140.3460 C   0  0  1  0  0  3  0  0  0  0  0  0
  188.7820  178.1960  139.4460 N   0  0  0  0  0  0  0  0  0  0  0  0
  186.1200  179.1260  141.3810 C   0  0  2  0  0  3  0  0  0  0  0  0
  185.6220  177.7850  138.0680 C   0  0  0  0  0  1  0  0  0  0  0  0
  188.4200  178.7460  141.7980 C   0  0  2  0  0  3  0  0  0  0  0  0
  1 21  1  0  0  0  0
  2  8  1  0  0  0  0
  3 17  2  0  0  0  0
  4 22  1  0  0  0  0
  5 27  1  6  0  0  0
  5 24  1  0  0  0  0
  6  1  1  0  0  0  0
  8 14  1  0  0  0  0
  8  7  1  1  0  0  0
  9 18  1  0  0  0  0
  9 14  1  0  0  0  0
 10  8  1  0  0  0  0
 11 15  1  0  0  0  0
 12 28  1  0  0  0  0
 13  9  2  0  0  0  0
 15 23  1  0  0  0  0
 16  1  2  0  0  0  0
 16 20  1  0  0  0  0
 17  5  1  0  0  0  0
 17 25  1  0  0  0  0
 19 15  1  0  0  0  0
 19 25  1  0  0  0  0
 20  4  2  0  0  0  0
 21 22  2  0  0  0  0
 23  6  1  0  0  0  0
 24 12  1  0  0  0  0
 24 26  1  0  0  0  0
 25 12  1  0  0  0  0
 26 13  1  0  0  0  0
 26 10  1  0  0  0  0
 28 10  1  0  0  0  0
 28 16  1  0  0  0  0
M  END
>  <MODEL>
7

>  <REMARK>
 VINA RESULT:      -5.3      3.837      8.472
  Name = 
  0 active torsions:
  status: ('A' for Active; 'I' for Inactive)
                            x       y       z     vdW  Elec       q    Type
                         _______ _______ _______ _____ _____    ______ ____

>  <TORSDO>
F 0

$$$$
=
 OpenBabel11122411593D

 28 32  0  0  1  0  0  0  0  0999 V2000
  186.5440  175.3280  135.8930 C   0  0  0  0  0  0  0  0  0  0  0  0
  183.3180  176.2710  135.1210 F   0  0  0  0  0  0  0  0  0  0  0  0
  185.4880  179.3370  140.2520 O   0  0  0  0  0  0  0  0  0  0  0  0
  186.5510  172.6670  136.7880 C   0  0  0  0  0  3  0  0  0  0  0  0
  183.4750  178.7490  139.0390 C   0  0  2  0  0  3  0  0  0  0  0  0
  186.6730  176.7400  135.4150 C   0  0  0  0  0  2  0  0  0  0  0  0
  183.1100  173.9370  135.3970 C   0  0  0  0  0  1  0  0  0  0  0  0
  182.7190  175.3070  135.9160 C   0  0  1  0  0  0  0  0  0  0  0  0
  180.5320  176.3430  136.6070 C   0  0  0  0  0  0  0  0  0  0  0  0
  183.1430  175.4630  137.4010 C   0  0  2  0  0  3  0  0  0  0  0  0
  188.6010  179.3100  137.2190 C   0  0  0  0  0  1  0  0  0  0  0  0
  184.7250  177.3280  137.4360 C   0  0  1  0  0  3  0  0  0  0  0  0
  181.0740  176.8880  137.6500 N   0  0  0  0  0  0  0  0  0  0  0  0
  181.2750  175.4380  135.7920 N   0  0  0  0  0  2  0  0  0  0  0  0
  187.4370  178.4790  136.9760 N   0  0  0  0  0  0  0  0  0  0  0  0
  185.6430  174.9250  136.9180 C   0  0  0  0  0  0  0  0  0  0  0  0
  184.9310  178.7100  139.3110 C   0  0  0  0  0  0  0  0  0  0  0  0
  179.1030  176.6050  136.2980 C   0  0  0  0  0  1  0  0  0  0  0  0
  187.0840  177.8780  138.2550 C   0  0  0  0  0  2  0  0  0  0  0  0
  185.6750  173.5930  137.3560 C   0  0  0  0  0  3  0  0  0  0  0  0
  187.4160  174.3860  135.3330 C   0  0  0  0  0  3  0  0  0  0  0  0
  187.4180  173.0620  135.7710 C   0  0  0  0  0  3  0  0  0  0  0  0
  187.8700  177.4090  136.0860 C   0  0  0  0  0  2  0  0  0  0  0  0
  183.3310  177.8810  137.7820 C   0  0  1  0  0  3  0  0  0  0  0  0
  185.6370  177.8800  138.4160 N   0  0  0  0  0  0  0  0  0  0  0  0
  182.4600  176.6650  138.0670 C   0  0  2  0  0  3  0  0  0  0  0  0
  183.0420  180.1660  138.7180 C   0  0  0  0  0  1  0  0  0  0  0  0
  184.6210  175.8180  137.5930 C   0  0  2  0  0  3  0  0  0  0  0  0
  1 16  1  0  0  0  0
  2  8  1  0  0  0  0
  4 20  1  0  0  0  0
  5 27  1  6  0  0  0
  5 17  1  0  0  0  0
  6  1  1  0  0  0  0
  6 23  1  0  0  0  0
  8  7  1  6  0  0  0
  8 10  1  0  0  0  0
  9 13  2  0  0  0  0
 10 28  1  0  0  0  0
 10 26  1  0  0  0  0
 12 28  1  0  0  0  0
 12 24  1  0  0  0  0
 12 25  1  0  0  0  0
 13 26  1  0  0  0  0
 14  8  1  0  0  0  0
 14  9  1  0  0  0  0
 15 11  1  0  0  0  0
 15 19  1  0  0  0  0
 16 20  2  0  0  0  0
 16 28  1  0  0  0  0
 17  3  2  0  0  0  0
 18  9  1  0  0  0  0
 19 25  1  0  0  0  0
 21 22  1  0  0  0  0
 21  1  2  0  0  0  0
 22  4  2  0  0  0  0
 23 15  1  0  0  0  0
 24 26  1  0  0  0  0
 24  5  1  0  0  0  0
 25 17  1  0  0  0  0
M  END
>  <MODEL>
8

>  <REMARK>
 VINA RESULT:      -5.2      3.285      6.969
  Name = 
  0 active torsions:
  status: ('A' for Active; 'I' for Inactive)
                            x       y       z     vdW  Elec       q    Type
                         _______ _______ _______ _____ _____    ______ ____

>  <TORSDO>
F 0

$$$$
=
 OpenBabel11122411593D

 28 32  0  0  1  0  0  0  0  0999 V2000
  190.1010  177.3670  144.3960 C   0  0  0  0  0  0  0  0  0  0  0  0
  188.2180  179.2850  142.2360 F   0  0  0  0  0  0  0  0  0  0  0  0
  184.7770  177.2850  147.1940 O   0  0  0  0  0  0  0  0  0  0  0  0
  190.7590  174.9360  143.1560 C   0  0  0  0  0  3  0  0  0  0  0  0
  184.6220  178.1940  144.9550 C   0  0  2  0  0  3  0  0  0  0  0  0
  189.8340  178.6290  145.1550 C   0  0  0  0  0  2  0  0  0  0  0  0
  188.9960  177.5570  140.8300 C   0  0  0  0  0  1  0  0  0  0  0  0
  187.7880  178.2140  141.4690 C   0  0  1  0  0  0  0  0  0  0  0  0
  185.5400  178.9360  140.5980 C   0  0  0  0  0  0  0  0  0  0  0  0
  187.0090  177.1860  142.3320 C   0  0  2  0  0  3  0  0  0  0  0  0
  188.6360  178.6700  148.6380 C   0  0  0  0  0  1  0  0  0  0  0  0
  187.0750  178.0630  144.6140 C   0  0  1  0  0  3  0  0  0  0  0  0
  184.9380  178.4520  141.6390 N   0  0  0  0  0  0  0  0  0  0  0  0
  186.9370  178.7200  140.4030 N   0  0  0  0  0  2  0  0  0  0  0  0
  188.4770  178.5430  147.2020 N   0  0  0  0  0  0  0  0  0  0  0  0
  189.0800  176.5850  143.7880 C   0  0  0  0  0  0  0  0  0  0  0  0
  185.3420  177.6440  146.1270 C   0  0  0  0  0  0  0  0  0  0  0  0
  184.7560  179.6570  139.5630 C   0  0  0  0  0  1  0  0  0  0  0  0
  187.7120  177.3230  146.9770 C   0  0  0  0  0  2  0  0  0  0  0  0
  189.4330  175.3680  143.1860 C   0  0  0  0  0  3  0  0  0  0  0  0
  191.4280  176.9200  144.3550 C   0  0  0  0  0  3  0  0  0  0  0  0
  191.7590  175.7150  143.7350 C   0  0  0  0  0  3  0  0  0  0  0  0
  189.8110  178.3390  146.6530 C   0  0  0  0  0  2  0  0  0  0  0  0
  185.7540  178.5160  143.9690 C   0  0  1  0  0  3  0  0  0  0  0  0
  186.7340  177.5440  145.9220 N   0  0  0  0  0  0  0  0  0  0  0  0
  185.6070  177.6930  142.6970 C   0  0  2  0  0  3  0  0  0  0  0  0
  183.9120  179.4780  145.3350 C   0  0  0  0  0  1  0  0  0  0  0  0
  187.6100  176.9530  143.7210 C   0  0  2  0  0  3  0  0  0  0  0  0
  1  6  1  0  0  0  0
  4 20  2  0  0  0  0
  4 22  1  0  0  0  0
  5 27  1  1  0  0  0
  5 17  1  0  0  0  0
  6 23  1  0  0  0  0
  8  7  1  6  0  0  0
  8  2  1  0  0  0  0
  8 10  1  0  0  0  0
  9 13  2  0  0  0  0
 10 26  1  0  0  0  0
 10 28  1  0  0  0  0
 12 25  1  0  0  0  0
 13 26  1  0  0  0  0
 14  9  1  0  0  0  0
 14  8  1  0  0  0  0
 15 11  1  0  0  0  0
 16  1  2  0  0  0  0
 17  3  2  0  0  0  0
 18  9  1  0  0  0  0
 19 15  1  0  0  0  0
 20 16  1  0  0  0  0
 21  1  1  0  0  0  0
 22 21  2  0  0  0  0
 23 15  1  0  0  0  0
 24 12  1  0  0  0  0
 24  5  1  0  0  0  0
 25 17  1  0  0  0  0
 25 19  1  0  0  0  0
 26 24  1  0  0  0  0
 28 16  1  0  0  0  0
 28 12  1  0  0  0  0
M  END
>  <MODEL>
9

>  <REMARK>
 VINA RESULT:      -5.0      4.080      7.825
  Name = 
  0 active torsions:
  status: ('A' for Active; 'I' for Inactive)
                            x       y       z     vdW  Elec       q    Type
                         _______ _______ _______ _____ _____    ______ ____

>  <TORSDO>
F 0

$$$$
