=
 OpenBabel11122411493D

 37 43  0  0  1  0  0  0  0  0999 V2000
  187.5160  177.6270  141.6430 C   0  0  1  0  0  3  0  0  0  0  0  0
  190.5730  176.2580  142.0160 O   0  0  0  0  0  0  0  0  0  0  0  0
  185.4750  178.4760  143.0690 C   0  0  2  0  0  3  0  0  0  0  0  0
  188.9000  177.9670  142.0870 C   0  0  2  0  0  3  0  0  0  0  0  0
  186.8010  177.6950  142.9990 C   0  0  2  0  0  3  0  0  0  0  0  0
  190.0330  177.3270  141.2810 C   0  0  2  0  0  3  0  0  0  0  0  0
  185.3290  179.5170  141.9730 C   0  0  0  0  0  2  0  0  0  0  0  0
  187.7430  178.0840  143.9720 O   0  0  0  0  0  0  0  0  0  0  0  0
  187.4550  178.0700  139.3290 C   0  0  0  0  0  2  0  0  0  0  0  0
  185.6990  178.8720  140.6530 C   0  0  0  0  0  2  0  0  0  0  0  0
  192.1330  178.1150  142.8250 C   0  0  0  0  0  2  0  0  0  0  0  0
  191.7200  176.6470  142.7720 C   0  0  1  0  0  3  0  0  0  0  0  0
  187.1340  178.6290  140.6400 N   0  0  1  0  0  0  0  0  0  0  0  0
  188.9300  177.6090  143.4940 N   0  0  2  0  0  0  0  0  0  0  0  0
  189.6480  176.9060  139.8500 C   0  0  1  0  0  3  0  0  0  0  0  0
  191.3790  177.5230  144.0040 C   0  0  2  0  0  3  0  0  0  0  0  0
  190.0570  178.3160  144.1100 C   0  0  2  0  0  3  0  0  0  0  0  0
  188.9660  178.0430  139.0770 C   0  0  0  0  0  2  0  0  0  0  0  0
  192.0620  177.0930  139.2330 C   0  0  0  0  0  3  0  0  0  0  0  0
  190.8460  176.4150  139.0980 C   0  0  0  0  0  0  0  0  0  0  0  0
  190.7670  175.2940  138.2570 C   0  0  0  0  0  3  0  0  0  0  0  0
  191.8130  173.7240  136.7070 N   0  0  0  0  0  1  0  0  0  0  0  0
  193.1100  175.5410  137.6980 C   0  0  0  0  0  3  0  0  0  0  0  0
  191.8970  174.8590  137.5590 C   0  0  0  0  0  0  0  0  0  0  0  0
  193.1910  176.6580  138.5350 C   0  0  0  0  0  3  0  0  0  0  0  0
  189.8020  178.6090  145.5870 C   0  0  0  0  0  2  0  0  0  0  0  0
  190.1640  177.4040  146.4430 C   0  0  0  0  0  0  0  0  0  0  0  0
  189.5670  177.4030  147.8300 C   0  0  0  0  0  2  0  0  0  0  0  0
  189.0190  176.4710  146.7570 C   0  0  0  0  0  2  0  0  0  0  0  0
  191.5240  176.7260  146.3160 C   0  0  0  0  0  2  0  0  0  0  0  0
  191.7620  175.7300  147.4410 C   0  0  0  0  0  2  0  0  0  0  0  0
  192.8600  176.1220  148.2060 O   0  0  0  0  0  1  0  0  0  0  0  0
  185.2980  179.0740  144.3290 O   0  0  0  0  0  0  0  0  0  0  0  0
  183.9240  179.0500  144.6390 C   0  0  0  0  0  0  0  0  0  0  0  0
  183.7240  178.7230  145.9720 F   0  0  0  0  0  0  0  0  0  0  0  0
  183.3350  180.2750  144.3620 F   0  0  0  0  0  0  0  0  0  0  0  0
  183.3130  178.0880  143.8590 F   0  0  0  0  0  0  0  0  0  0  0  0
  1  4  1  0  0  0  0
  1  5  1  0  0  0  0
  2 12  1  0  0  0  0
  3 33  1  0  0  0  0
  4 14  1  0  0  0  0
  5  3  1  0  0  0  0
  5  8  1  0  0  0  0
  6  2  1  0  0  0  0
  6  4  1  0  0  0  0
  7  3  1  0  0  0  0
  9 13  1  0  0  0  0
 10  7  1  0  0  0  0
 11 16  1  0  0  0  0
 12 11  1  0  0  0  0
 12 16  1  0  0  0  0
 13 10  1  0  0  0  0
 13  1  1  0  0  0  0
 14  8  1  0  0  0  0
 14 17  1  0  0  0  0
 15  6  1  0  0  0  0
 16 17  1  0  0  0  0
 17 26  1  0  0  0  0
 18  9  1  0  0  0  0
 18 15  1  0  0  0  0
 20 19  1  0  0  0  0
 20 15  1  0  0  0  0
 21 20  2  0  0  0  0
 22 24  1  0  0  0  0
 23 25  1  0  0  0  0
 24 23  2  0  0  0  0
 24 21  1  0  0  0  0
 25 19  2  0  0  0  0
 26 27  1  0  0  0  0
 27 29  1  0  0  0  0
 27 28  1  0  0  0  0
 29 28  1  0  0  0  0
 30 27  1  0  0  0  0
 30 31  1  0  0  0  0
 31 32  1  0  0  0  0
 33 34  1  0  0  0  0
 34 35  1  0  0  0  0
 36 34  1  0  0  0  0
 37 34  1  0  0  0  0
M  END
>  <MODEL>
1

>  <REMARK>
 VINA RESULT:      -9.0      0.000      0.000
  Name = 
  7 active torsions:
  status: ('A' for Active; 'I' for Inactive)
    1  A    between atoms: C_1  and  C_4
    2  A    between atoms: C_1  and  C_27
    3  A    between atoms: C_2  and  O_22
    4  A    between atoms: C_4  and  C_12
    5  A    between atoms: C_6  and  O_22
    6  A    between atoms: C_8  and  C_12
    7  A    between atoms: C_23  and  C_30
                            x       y       z     vdW  Elec       q    Type
                         _______ _______ _______ _____ _____    ______ ____

>  <TORSDO>
F 7

$$$$
=
 OpenBabel11122411493D

 37 43  0  0  1  0  0  0  0  0999 V2000
  185.5860  178.9390  141.0370 C   0  0  1  0  0  3  0  0  0  0  0  0
  188.8630  178.8350  140.2550 O   0  0  0  0  0  0  0  0  0  0  0  0
  183.2380  179.3520  139.9270 C   0  0  2  0  0  3  0  0  0  0  0  0
  186.5880  178.0970  140.3190 C   0  0  2  0  0  3  0  0  0  0  0  0
  184.7730  179.4320  139.8320 C   0  0  2  0  0  3  0  0  0  0  0  0
  187.9730  178.0130  140.9660 C   0  0  2  0  0  3  0  0  0  0  0  0
  182.7460  178.3160  140.9230 C   0  0  0  0  0  2  0  0  0  0  0  0
  185.3050  178.8350  138.6720 O   0  0  0  0  0  0  0  0  0  0  0  0
  185.5900  178.1820  143.2690 C   0  0  0  0  0  2  0  0  0  0  0  0
  183.5240  178.4910  142.2120 C   0  0  0  0  0  2  0  0  0  0  0  0
  189.2650  176.6450  138.9990 C   0  0  0  0  0  2  0  0  0  0  0  0
  189.5980  178.1090  139.2700 C   0  0  1  0  0  3  0  0  0  0  0  0
  184.8960  178.0590  141.9890 N   0  0  1  0  0  0  0  0  0  0  0  0
  186.6210  178.6380  138.9730 N   0  0  2  0  0  0  0  0  0  0  0  0
  187.9970  178.3100  142.4780 C   0  0  1  0  0  3  0  0  0  0  0  0
  188.7480  177.7040  138.0390 C   0  0  2  0  0  3  0  0  0  0  0  0
  187.2060  177.6180  138.0960 C   0  0  2  0  0  3  0  0  0  0  0  0
  186.9540  177.4850  143.2460 C   0  0  0  0  0  2  0  0  0  0  0  0
  190.1290  179.1720  143.4530 C   0  0  0  0  0  3  0  0  0  0  0  0
  189.3610  178.0760  143.0460 C   0  0  0  0  0  0  0  0  0  0  0  0
  189.8850  176.7790  143.1680 C   0  0  0  0  0  3  0  0  0  0  0  0
  191.6920  175.2710  143.8170 N   0  0  0  0  0  1  0  0  0  0  0  0
  191.9280  177.6850  144.1010 C   0  0  0  0  0  3  0  0  0  0  0  0
  191.1650  176.5860  143.6950 C   0  0  0  0  0  0  0  0  0  0  0  0
  191.4090  178.9780  143.9790 C   0  0  0  0  0  3  0  0  0  0  0  0
  186.6770  177.7280  136.6680 C   0  0  0  0  0  2  0  0  0  0  0  0
  185.9050  176.4750  136.2830 C   0  0  0  0  0  0  0  0  0  0  0  0
  184.4600  176.7030  135.9070 C   0  0  0  0  0  2  0  0  0  0  0  0
  185.4940  176.3930  134.8330 C   0  0  0  0  0  2  0  0  0  0  0  0
  186.2060  175.1310  136.9380 C   0  0  0  0  0  2  0  0  0  0  0  0
  184.9340  174.3370  137.2010 C   0  0  0  0  0  2  0  0  0  0  0  0
  185.2320  173.1710  137.9070 O   0  0  0  0  0  1  0  0  0  0  0  0
  182.6580  179.1220  138.6670 O   0  0  0  0  0  0  0  0  0  0  0  0
  181.8650  180.2390  138.3360 C   0  0  0  0  0  0  0  0  0  0  0  0
  182.5620  181.4200  138.5460 F   0  0  0  0  0  0  0  0  0  0  0  0
  181.4430  180.1720  137.0170 F   0  0  0  0  0  0  0  0  0  0  0  0
  180.7490  180.2420  139.1500 F   0  0  0  0  0  0  0  0  0  0  0  0
  1 13  1  0  0  0  0
  2  6  1  0  0  0  0
  3  7  1  0  0  0  0
  4  6  1  0  0  0  0
  4  1  1  0  0  0  0
  5  3  1  0  0  0  0
  5  1  1  0  0  0  0
  6 15  1  0  0  0  0
  7 10  1  0  0  0  0
  8 14  1  0  0  0  0
  8  5  1  0  0  0  0
 11 12  1  0  0  0  0
 12  2  1  0  0  0  0
 13 10  1  0  0  0  0
 13  9  1  0  0  0  0
 14  4  1  0  0  0  0
 15 20  1  0  0  0  0
 15 18  1  0  0  0  0
 16 17  1  0  0  0  0
 16 11  1  0  0  0  0
 16 12  1  0  0  0  0
 17 14  1  0  0  0  0
 18  9  1  0  0  0  0
 19 25  1  0  0  0  0
 20 21  1  0  0  0  0
 20 19  2  0  0  0  0
 21 24  2  0  0  0  0
 24 22  1  0  0  0  0
 24 23  1  0  0  0  0
 25 23  2  0  0  0  0
 26 17  1  0  0  0  0
 27 26  1  0  0  0  0
 27 30  1  0  0  0  0
 28 27  1  0  0  0  0
 29 28  1  0  0  0  0
 29 27  1  0  0  0  0
 30 31  1  0  0  0  0
 31 32  1  0  0  0  0
 33  3  1  0  0  0  0
 34 35  1  0  0  0  0
 34 33  1  0  0  0  0
 34 37  1  0  0  0  0
 36 34  1  0  0  0  0
M  END
>  <MODEL>
2

>  <REMARK>
 VINA RESULT:      -8.7      3.626      6.987
  Name = 
  7 active torsions:
  status: ('A' for Active; 'I' for Inactive)
    1  A    between atoms: C_1  and  C_4
    2  A    between atoms: C_1  and  C_27
    3  A    between atoms: C_2  and  O_22
    4  A    between atoms: C_4  and  C_12
    5  A    between atoms: C_6  and  O_22
    6  A    between atoms: C_8  and  C_12
    7  A    between atoms: C_23  and  C_30
                            x       y       z     vdW  Elec       q    Type
                         _______ _______ _______ _____ _____    ______ ____

>  <TORSDO>
F 7

$$$$
=
 OpenBabel11122411493D

 37 43  0  0  1  0  0  0  0  0999 V2000
  186.4860  178.6770  142.6330 C   0  0  1  0  0  3  0  0  0  0  0  0
  189.8140  178.5540  143.1510 O   0  0  0  0  0  0  0  0  0  0  0  0
  184.7350  179.2880  140.7670 C   0  0  2  0  0  3  0  0  0  0  0  0
  187.6970  177.8880  142.2570 C   0  0  2  0  0  3  0  0  0  0  0  0
  186.1890  179.3280  141.2750 C   0  0  2  0  0  3  0  0  0  0  0  0
  188.7300  177.6860  143.3690 C   0  0  2  0  0  3  0  0  0  0  0  0
  183.9140  178.1640  141.3730 C   0  0  0  0  0  2  0  0  0  0  0  0
  187.1310  178.8490  140.3440 O   0  0  0  0  0  0  0  0  0  0  0  0
  185.6450  177.6730  144.5920 C   0  0  0  0  0  2  0  0  0  0  0  0
  184.1370  178.1670  142.8710 C   0  0  0  0  0  2  0  0  0  0  0  0
  190.6930  176.5070  141.8970 C   0  0  0  0  0  2  0  0  0  0  0  0
  190.8790  177.9200  142.4440 C   0  0  1  0  0  3  0  0  0  0  0  0
  185.4960  177.7180  143.1400 N   0  0  1  0  0  0  0  0  0  0  0  0
  188.2350  178.5770  141.0980 N   0  0  2  0  0  0  0  0  0  0  0  0
  188.1700  177.8110  144.7990 C   0  0  1  0  0  3  0  0  0  0  0  0
  190.5690  177.6840  140.9430 C   0  0  2  0  0  3  0  0  0  0  0  0
  189.1230  177.6430  140.3980 C   0  0  2  0  0  3  0  0  0  0  0  0
  186.9240  176.9390  145.0100 C   0  0  0  0  0  2  0  0  0  0  0  0
  189.1100  177.9900  147.1070 C   0  0  0  0  0  3  0  0  0  0  0  0
  189.2170  177.4690  145.8130 C   0  0  0  0  0  0  0  0  0  0  0  0
  190.3050  176.6440  145.4850 C   0  0  0  0  0  3  0  0  0  0  0  0
  192.3750  175.5100  146.1110 N   0  0  0  0  0  1  0  0  0  0  0  0
  191.1620  176.8680  147.7380 C   0  0  0  0  0  3  0  0  0  0  0  0
  191.2740  176.3460  146.4460 C   0  0  0  0  0  0  0  0  0  0  0  0
  190.0800  177.6910  148.0680 C   0  0  0  0  0  3  0  0  0  0  0  0
  189.1790  177.9300  138.9000 C   0  0  0  0  0  2  0  0  0  0  0  0
  189.2500  176.6340  138.1060 C   0  0  0  0  0  0  0  0  0  0  0  0
  187.9380  175.9020  137.9590 C   0  0  0  0  0  2  0  0  0  0  0  0
  188.5340  176.6540  136.7770 C   0  0  0  0  0  2  0  0  0  0  0  0
  190.4920  175.7500  138.1500 C   0  0  0  0  0  2  0  0  0  0  0  0
  191.7170  176.4760  137.6140 C   0  0  0  0  0  2  0  0  0  0  0  0
  192.8370  176.1630  138.3850 O   0  0  0  0  0  1  0  0  0  0  0  0
  184.6850  179.2220  139.3640 O   0  0  0  0  0  0  0  0  0  0  0  0
  183.4130  179.6640  138.9470 C   0  0  0  0  0  0  0  0  0  0  0  0
  182.4680  179.4590  139.9420 F   0  0  0  0  0  0  0  0  0  0  0  0
  183.4470  181.0060  138.6000 F   0  0  0  0  0  0  0  0  0  0  0  0
  183.0370  178.9370  137.8340 F   0  0  0  0  0  0  0  0  0  0  0  0
  1 13  1  0  0  0  0
  2  6  1  0  0  0  0
  3  5  1  0  0  0  0
  3  7  1  0  0  0  0
  4  1  1  0  0  0  0
  4  6  1  0  0  0  0
  5  1  1  0  0  0  0
  6 15  1  0  0  0  0
  7 10  1  0  0  0  0
  8 14  1  0  0  0  0
  8  5  1  0  0  0  0
  9 18  1  0  0  0  0
 10 13  1  0  0  0  0
 11 12  1  0  0  0  0
 12  2  1  0  0  0  0
 13  9  1  0  0  0  0
 14  4  1  0  0  0  0
 15 18  1  0  0  0  0
 15 20  1  0  0  0  0
 16 11  1  0  0  0  0
 16 12  1  0  0  0  0
 17 16  1  0  0  0  0
 17 14  1  0  0  0  0
 19 25  1  0  0  0  0
 20 19  2  0  0  0  0
 21 20  1  0  0  0  0
 21 24  2  0  0  0  0
 22 24  1  0  0  0  0
 23 25  2  0  0  0  0
 24 23  1  0  0  0  0
 26 17  1  0  0  0  0
 27 30  1  0  0  0  0
 27 26  1  0  0  0  0
 28 27  1  0  0  0  0
 29 28  1  0  0  0  0
 29 27  1  0  0  0  0
 31 30  1  0  0  0  0
 31 32  1  0  0  0  0
 33  3  1  0  0  0  0
 34 33  1  0  0  0  0
 34 35  1  0  0  0  0
 36 34  1  0  0  0  0
 37 34  1  0  0  0  0
M  END
>  <MODEL>
3

>  <REMARK>
 VINA RESULT:      -8.7      2.646      6.389
  Name = 
  7 active torsions:
  status: ('A' for Active; 'I' for Inactive)
    1  A    between atoms: C_1  and  C_4
    2  A    between atoms: C_1  and  C_27
    3  A    between atoms: C_2  and  O_22
    4  A    between atoms: C_4  and  C_12
    5  A    between atoms: C_6  and  O_22
    6  A    between atoms: C_8  and  C_12
    7  A    between atoms: C_23  and  C_30
                            x       y       z     vdW  Elec       q    Type
                         _______ _______ _______ _____ _____    ______ ____

>  <TORSDO>
F 7

$$$$
=
 OpenBabel11122411493D

 37 43  0  0  1  0  0  0  0  0999 V2000
  187.8320  177.5010  146.2460 C   0  0  1  0  0  3  0  0  0  0  0  0
  186.8110  177.4410  143.0350 O   0  0  0  0  0  0  0  0  0  0  0  0
  189.9750  177.0750  147.7110 C   0  0  2  0  0  3  0  0  0  0  0  0
  187.9720  178.2520  144.9630 C   0  0  2  0  0  3  0  0  0  0  0  0
  189.2560  176.9400  146.3550 C   0  0  2  0  0  3  0  0  0  0  0  0
  186.7060  178.3440  144.1060 C   0  0  2  0  0  3  0  0  0  0  0  0
  189.4320  178.2000  148.5730 C   0  0  0  0  0  2  0  0  0  0  0  0
  190.0030  177.4260  145.2640 O   0  0  0  0  0  0  0  0  0  0  0  0
  185.9640  178.4330  147.3390 C   0  0  0  0  0  2  0  0  0  0  0  0
  187.9200  178.1050  148.5830 C   0  0  0  0  0  2  0  0  0  0  0  0
  187.7900  179.5110  141.8970 C   0  0  0  0  0  2  0  0  0  0  0  0
  187.3090  178.0630  141.8510 C   0  0  1  0  0  3  0  0  0  0  0  0
  187.4220  178.4750  147.2650 N   0  0  1  0  0  0  0  0  0  0  0  0
  189.0760  177.6040  144.2790 N   0  0  2  0  0  0  0  0  0  0  0  0
  185.3880  178.1670  144.8820 C   0  0  1  0  0  3  0  0  0  0  0  0
  188.8220  178.3950  141.9180 C   0  0  2  0  0  3  0  0  0  0  0  0
  189.5750  178.5330  143.2600 C   0  0  2  0  0  3  0  0  0  0  0  0
  185.3140  179.0830  146.1120 C   0  0  0  0  0  2  0  0  0  0  0  0
  182.9850  178.7720  144.5600 C   0  0  0  0  0  3  0  0  0  0  0  0
  184.2090  178.4040  143.9910 C   0  0  0  0  0  0  0  0  0  0  0  0
  184.3080  178.2550  142.5980 C   0  0  0  0  0  3  0  0  0  0  0  0
  183.2960  178.3230  140.3770 N   0  0  0  0  0  1  0  0  0  0  0  0
  181.9710  178.8420  142.3620 C   0  0  0  0  0  3  0  0  0  0  0  0
  183.1910  178.4740  141.7880 C   0  0  0  0  0  0  0  0  0  0  0  0
  181.8680  178.9900  143.7490 C   0  0  0  0  0  3  0  0  0  0  0  0
  191.0630  178.3260  142.9860 C   0  0  0  0  0  2  0  0  0  0  0  0
  191.2890  177.0610  142.1720 C   0  0  0  0  0  0  0  0  0  0  0  0
  191.7750  175.8700  142.9630 C   0  0  0  0  0  2  0  0  0  0  0  0
  190.3360  175.9280  142.4680 C   0  0  0  0  0  2  0  0  0  0  0  0
  191.7720  177.1280  140.7270 C   0  0  0  0  0  2  0  0  0  0  0  0
  190.6530  176.8130  139.7460 C   0  0  0  0  0  2  0  0  0  0  0  0
  190.9310  175.6280  139.0640 O   0  0  0  0  0  1  0  0  0  0  0  0
  191.3630  177.2210  147.5440 O   0  0  0  0  0  0  0  0  0  0  0  0
  191.9490  175.9400  147.5820 C   0  0  0  0  0  0  0  0  0  0  0  0
  191.0370  174.9930  148.0260 F   0  0  0  0  0  0  0  0  0  0  0  0
  192.4300  175.5800  146.3330 F   0  0  0  0  0  0  0  0  0  0  0  0
  193.0110  175.9690  148.4660 F   0  0  0  0  0  0  0  0  0  0  0  0
  1  5  1  0  0  0  0
  1 13  1  0  0  0  0
  2  6  1  0  0  0  0
  3  7  1  0  0  0  0
  4  1  1  0  0  0  0
  5  3  1  0  0  0  0
  6 15  1  0  0  0  0
  6  4  1  0  0  0  0
  7 10  1  0  0  0  0
  8  5  1  0  0  0  0
 11 16  1  0  0  0  0
 12 11  1  0  0  0  0
 12 16  1  0  0  0  0
 12  2  1  0  0  0  0
 13  9  1  0  0  0  0
 13 10  1  0  0  0  0
 14  4  1  0  0  0  0
 14  8  1  0  0  0  0
 15 18  1  0  0  0  0
 16 17  1  0  0  0  0
 17 14  1  0  0  0  0
 18  9  1  0  0  0  0
 20 19  1  0  0  0  0
 20 15  1  0  0  0  0
 21 20  2  0  0  0  0
 22 24  1  0  0  0  0
 23 25  1  0  0  0  0
 24 23  2  0  0  0  0
 24 21  1  0  0  0  0
 25 19  2  0  0  0  0
 26 17  1  0  0  0  0
 27 29  1  0  0  0  0
 27 28  1  0  0  0  0
 27 26  1  0  0  0  0
 29 28  1  0  0  0  0
 30 27  1  0  0  0  0
 31 30  1  0  0  0  0
 32 31  1  0  0  0  0
 33 34  1  0  0  0  0
 33  3  1  0  0  0  0
 34 35  1  0  0  0  0
 34 37  1  0  0  0  0
 36 34  1  0  0  0  0
M  END
>  <MODEL>
4

>  <REMARK>
 VINA RESULT:      -8.6      3.497      7.394
  Name = 
  7 active torsions:
  status: ('A' for Active; 'I' for Inactive)
    1  A    between atoms: C_1  and  C_4
    2  A    between atoms: C_1  and  C_27
    3  A    between atoms: C_2  and  O_22
    4  A    between atoms: C_4  and  C_12
    5  A    between atoms: C_6  and  O_22
    6  A    between atoms: C_8  and  C_12
    7  A    between atoms: C_23  and  C_30
                            x       y       z     vdW  Elec       q    Type
                         _______ _______ _______ _____ _____    ______ ____

>  <TORSDO>
F 7

$$$$
=
 OpenBabel11122411493D

 37 43  0  0  1  0  0  0  0  0999 V2000
  187.5320  177.6310  141.7430 C   0  0  1  0  0  3  0  0  0  0  0  0
  190.5960  176.2710  142.0960 O   0  0  0  0  0  0  0  0  0  0  0  0
  185.4910  178.4570  143.1820 C   0  0  2  0  0  3  0  0  0  0  0  0
  188.9160  177.9720  142.1880 C   0  0  2  0  0  3  0  0  0  0  0  0
  186.8200  177.6820  143.1020 C   0  0  2  0  0  3  0  0  0  0  0  0
  190.0500  177.3450  141.3720 C   0  0  2  0  0  3  0  0  0  0  0  0
  185.3380  179.5080  142.0970 C   0  0  0  0  0  2  0  0  0  0  0  0
  187.7630  178.0640  144.0760 O   0  0  0  0  0  0  0  0  0  0  0  0
  187.4640  178.0970  139.4340 C   0  0  0  0  0  2  0  0  0  0  0  0
  185.7080  178.8780  140.7700 C   0  0  0  0  0  2  0  0  0  0  0  0
  192.1500  178.1260  142.9190 C   0  0  0  0  0  2  0  0  0  0  0  0
  191.7430  176.6570  142.8520 C   0  0  1  0  0  3  0  0  0  0  0  0
  187.1440  178.6410  140.7510 N   0  0  1  0  0  0  0  0  0  0  0  0
  188.9500  177.5990  143.5900 N   0  0  2  0  0  0  0  0  0  0  0  0
  189.6630  176.9370  139.9380 C   0  0  1  0  0  3  0  0  0  0  0  0
  191.4010  177.5180  144.0950 C   0  0  2  0  0  3  0  0  0  0  0  0
  190.0760  178.3050  144.2110 C   0  0  2  0  0  3  0  0  0  0  0  0
  188.9750  178.0790  139.1780 C   0  0  0  0  0  2  0  0  0  0  0  0
  192.0770  177.1350  139.3240 C   0  0  0  0  0  3  0  0  0  0  0  0
  190.8610  176.4590  139.1790 C   0  0  0  0  0  0  0  0  0  0  0  0
  190.7830  175.3510  138.3190 C   0  0  0  0  0  3  0  0  0  0  0  0
  191.8300  173.8070  136.7450 N   0  0  0  0  0  1  0  0  0  0  0  0
  193.1260  175.6080  137.7650 C   0  0  0  0  0  3  0  0  0  0  0  0
  191.9130  174.9290  137.6150 C   0  0  0  0  0  0  0  0  0  0  0  0
  193.2070  176.7120  138.6200 C   0  0  0  0  0  3  0  0  0  0  0  0
  189.8230  178.5820  145.6920 C   0  0  0  0  0  2  0  0  0  0  0  0
  189.7970  177.2830  146.4840 C   0  0  0  0  0  0  0  0  0  0  0  0
  190.8920  176.3020  146.1400 C   0  0  0  0  0  2  0  0  0  0  0  0
  190.9480  177.0900  147.4410 C   0  0  0  0  0  2  0  0  0  0  0  0
  188.4800  176.6610  146.9350 C   0  0  0  0  0  2  0  0  0  0  0  0
  187.5460  177.7010  147.5370 C   0  0  0  0  0  2  0  0  0  0  0  0
  187.9730  178.0460  148.8190 O   0  0  0  0  0  1  0  0  0  0  0  0
  185.3150  179.0410  144.4490 O   0  0  0  0  0  0  0  0  0  0  0  0
  183.9370  179.0430  144.7450 C   0  0  0  0  0  0  0  0  0  0  0  0
  183.7190  178.7460  146.0830 F   0  0  0  0  0  0  0  0  0  0  0  0
  183.3680  180.2690  144.4370 F   0  0  0  0  0  0  0  0  0  0  0  0
  183.3200  178.0730  143.9780 F   0  0  0  0  0  0  0  0  0  0  0  0
  1  4  1  0  0  0  0
  1  5  1  0  0  0  0
  2 12  1  0  0  0  0
  3 33  1  0  0  0  0
  4 14  1  0  0  0  0
  5  3  1  0  0  0  0
  5  8  1  0  0  0  0
  6  2  1  0  0  0  0
  6  4  1  0  0  0  0
  7  3  1  0  0  0  0
  9 13  1  0  0  0  0
 10  7  1  0  0  0  0
 11 16  1  0  0  0  0
 12 11  1  0  0  0  0
 12 16  1  0  0  0  0
 13 10  1  0  0  0  0
 13  1  1  0  0  0  0
 14  8  1  0  0  0  0
 14 17  1  0  0  0  0
 15  6  1  0  0  0  0
 16 17  1  0  0  0  0
 17 26  1  0  0  0  0
 18  9  1  0  0  0  0
 18 15  1  0  0  0  0
 20 19  1  0  0  0  0
 20 15  1  0  0  0  0
 21 20  2  0  0  0  0
 22 24  1  0  0  0  0
 23 25  1  0  0  0  0
 24 23  2  0  0  0  0
 24 21  1  0  0  0  0
 25 19  2  0  0  0  0
 26 27  1  0  0  0  0
 27 30  1  0  0  0  0
 27 29  1  0  0  0  0
 28 27  1  0  0  0  0
 28 29  1  0  0  0  0
 30 31  1  0  0  0  0
 31 32  1  0  0  0  0
 33 34  1  0  0  0  0
 34 35  1  0  0  0  0
 36 34  1  0  0  0  0
 37 34  1  0  0  0  0
M  END
>  <MODEL>
5

>  <REMARK>
 VINA RESULT:      -8.5      0.956      1.377
  Name = 
  7 active torsions:
  status: ('A' for Active; 'I' for Inactive)
    1  A    between atoms: C_1  and  C_4
    2  A    between atoms: C_1  and  C_27
    3  A    between atoms: C_2  and  O_22
    4  A    between atoms: C_4  and  C_12
    5  A    between atoms: C_6  and  O_22
    6  A    between atoms: C_8  and  C_12
    7  A    between atoms: C_23  and  C_30
                            x       y       z     vdW  Elec       q    Type
                         _______ _______ _______ _____ _____    ______ ____

>  <TORSDO>
F 7

$$$$
=
 OpenBabel11122411493D

 37 43  0  0  1  0  0  0  0  0999 V2000
  186.9530  178.0300  137.9840 C   0  0  1  0  0  3  0  0  0  0  0  0
  185.3440  179.6860  140.4400 O   0  0  0  0  0  0  0  0  0  0  0  0
  189.3830  177.3710  137.2240 C   0  0  2  0  0  3  0  0  0  0  0  0
  186.5900  177.9120  139.4280 C   0  0  2  0  0  3  0  0  0  0  0  0
  188.4690  178.2180  138.1290 C   0  0  2  0  0  3  0  0  0  0  0  0
  185.2040  178.4380  139.8100 C   0  0  2  0  0  3  0  0  0  0  0  0
  188.7240  176.0980  136.7210 C   0  0  0  0  0  2  0  0  0  0  0  0
  188.7910  178.1380  139.4980 O   0  0  0  0  0  0  0  0  0  0  0  0
  185.1650  177.0660  136.7890 C   0  0  0  0  0  2  0  0  0  0  0  0
  187.3460  176.4510  136.2000 C   0  0  0  0  0  2  0  0  0  0  0  0
  185.4020  178.1930  142.5150 C   0  0  0  0  0  2  0  0  0  0  0  0
  185.3750  179.5730  141.8620 C   0  0  1  0  0  3  0  0  0  0  0  0
  186.4960  176.7980  137.3300 N   0  0  1  0  0  0  0  0  0  0  0  0
  187.6670  178.5840  140.1310 N   0  0  2  0  0  0  0  0  0  0  0  0
  184.1910  178.4880  138.6510 C   0  0  1  0  0  3  0  0  0  0  0  0
  186.7000  178.9780  142.4060 C   0  0  2  0  0  3  0  0  0  0  0  0
  187.6420  178.1280  141.5250 C   0  0  2  0  0  3  0  0  0  0  0  0
  184.1090  177.1540  137.8960 C   0  0  0  0  0  2  0  0  0  0  0  0
  182.1410  178.0280  140.0020 C   0  0  0  0  0  3  0  0  0  0  0  0
  182.8350  178.8870  139.1440 C   0  0  0  0  0  0  0  0  0  0  0  0
  182.2480  180.1010  138.7530 C   0  0  0  0  0  3  0  0  0  0  0  0
  180.3850  181.6780  138.8240 N   0  0  0  0  0  1  0  0  0  0  0  0
  180.2880  179.5860  140.0790 C   0  0  0  0  0  3  0  0  0  0  0  0
  180.9770  180.4480  139.2210 C   0  0  0  0  0  0  0  0  0  0  0  0
  180.8700  178.3760  140.4690 C   0  0  0  0  0  3  0  0  0  0  0  0
  189.0320  178.1620  142.1560 C   0  0  0  0  0  2  0  0  0  0  0  0
  189.0910  177.2540  143.3760 C   0  0  0  0  0  0  0  0  0  0  0  0
  188.2850  175.9820  143.2650 C   0  0  0  0  0  2  0  0  0  0  0  0
  189.8040  175.9400  143.1650 C   0  0  0  0  0  2  0  0  0  0  0  0
  189.2140  177.8290  144.7830 C   0  0  0  0  0  2  0  0  0  0  0  0
  187.9840  177.5230  145.6240 C   0  0  0  0  0  2  0  0  0  0  0  0
  188.3610  177.2060  146.9290 O   0  0  0  0  0  1  0  0  0  0  0  0
  190.5970  177.0660  137.8630 O   0  0  0  0  0  0  0  0  0  0  0  0
  191.4190  176.3820  136.9450 C   0  0  0  0  0  0  0  0  0  0  0  0
  191.3080  175.0090  137.1100 F   0  0  0  0  0  0  0  0  0  0  0  0
  191.0960  176.7260  135.6410 F   0  0  0  0  0  0  0  0  0  0  0  0
  192.7320  176.7430  137.1770 F   0  0  0  0  0  0  0  0  0  0  0  0
  1  5  1  0  0  0  0
  1  4  1  0  0  0  0
  2 12  1  0  0  0  0
  3 33  1  0  0  0  0
  3  5  1  0  0  0  0
  4  6  1  0  0  0  0
  4 14  1  0  0  0  0
  5  8  1  0  0  0  0
  6  2  1  0  0  0  0
  7  3  1  0  0  0  0
  8 14  1  0  0  0  0
  9 13  1  0  0  0  0
  9 18  1  0  0  0  0
 10  7  1  0  0  0  0
 10 13  1  0  0  0  0
 12 16  1  0  0  0  0
 12 11  1  0  0  0  0
 13  1  1  0  0  0  0
 14 17  1  0  0  0  0
 15 20  1  0  0  0  0
 15  6  1  0  0  0  0
 16 11  1  0  0  0  0
 17 26  1  0  0  0  0
 17 16  1  0  0  0  0
 18 15  1  0  0  0  0
 19 25  1  0  0  0  0
 20 19  2  0  0  0  0
 21 20  1  0  0  0  0
 21 24  2  0  0  0  0
 22 24  1  0  0  0  0
 23 25  2  0  0  0  0
 24 23  1  0  0  0  0
 26 27  1  0  0  0  0
 27 30  1  0  0  0  0
 28 27  1  0  0  0  0
 29 28  1  0  0  0  0
 29 27  1  0  0  0  0
 30 31  1  0  0  0  0
 31 32  1  0  0  0  0
 34 35  1  0  0  0  0
 34 37  1  0  0  0  0
 34 33  1  0  0  0  0
 36 34  1  0  0  0  0
M  END
>  <MODEL>
6

>  <REMARK>
 VINA RESULT:      -8.3      4.404      7.736
  Name = 
  7 active torsions:
  status: ('A' for Active; 'I' for Inactive)
    1  A    between atoms: C_1  and  C_4
    2  A    between atoms: C_1  and  C_27
    3  A    between atoms: C_2  and  O_22
    4  A    between atoms: C_4  and  C_12
    5  A    between atoms: C_6  and  O_22
    6  A    between atoms: C_8  and  C_12
    7  A    between atoms: C_23  and  C_30
                            x       y       z     vdW  Elec       q    Type
                         _______ _______ _______ _____ _____    ______ ____

>  <TORSDO>
F 7

$$$$
=
 OpenBabel11122411493D

 37 43  0  0  1  0  0  0  0  0999 V2000
  187.5170  178.3390  141.7810 C   0  0  1  0  0  3  0  0  0  0  0  0
  188.8870  178.5600  138.7100 O   0  0  0  0  0  0  0  0  0  0  0  0
  185.3090  178.9460  143.0760 C   0  0  2  0  0  3  0  0  0  0  0  0
  187.4140  177.7510  140.4130 C   0  0  2  0  0  3  0  0  0  0  0  0
  186.1860  179.1020  141.8190 C   0  0  2  0  0  3  0  0  0  0  0  0
  188.7400  177.5490  139.6740 C   0  0  2  0  0  3  0  0  0  0  0  0
  185.5850  177.6690  143.8500 C   0  0  0  0  0  2  0  0  0  0  0  0
  185.5020  178.8500  140.6130 O   0  0  0  0  0  0  0  0  0  0  0  0
  189.0980  177.0230  142.9310 C   0  0  0  0  0  2  0  0  0  0  0  0
  187.0840  177.5260  144.0140 C   0  0  0  0  0  2  0  0  0  0  0  0
  187.7510  176.7910  137.2530 C   0  0  0  0  0  2  0  0  0  0  0  0
  188.4390  178.1440  137.4200 C   0  0  1  0  0  3  0  0  0  0  0  0
  187.6660  177.2160  142.7160 N   0  0  1  0  0  0  0  0  0  0  0  0
  186.4980  178.6280  139.7070 N   0  0  2  0  0  0  0  0  0  0  0  0
  189.9760  177.4400  140.5870 C   0  0  1  0  0  3  0  0  0  0  0  0
  186.8960  178.0470  137.3050 C   0  0  2  0  0  3  0  0  0  0  0  0
  185.9860  177.8940  138.5440 C   0  0  2  0  0  3  0  0  0  0  0  0
  189.7790  176.4060  141.7050 C   0  0  0  0  0  2  0  0  0  0  0  0
  192.4540  177.5030  140.2740 C   0  0  0  0  0  3  0  0  0  0  0  0
  191.2000  177.1130  139.7910 C   0  0  0  0  0  0  0  0  0  0  0  0
  191.1100  176.4300  138.5670 C   0  0  0  0  0  3  0  0  0  0  0  0
  192.1720  175.4510  136.5990 N   0  0  0  0  0  1  0  0  0  0  0  0
  193.5170  176.5350  138.3260 C   0  0  0  0  0  3  0  0  0  0  0  0
  192.2670  176.1420  137.8380 C   0  0  0  0  0  0  0  0  0  0  0  0
  193.6100  177.2150  139.5440 C   0  0  0  0  0  3  0  0  0  0  0  0
  184.5830  178.3570  138.1560 C   0  0  0  0  0  2  0  0  0  0  0  0
  183.5860  177.2150  138.2850 C   0  0  0  0  0  0  0  0  0  0  0  0
  182.6820  177.0180  137.0920 C   0  0  0  0  0  2  0  0  0  0  0  0
  183.8230  176.0460  137.3600 C   0  0  0  0  0  2  0  0  0  0  0  0
  182.9780  176.8480  139.6350 C   0  0  0  0  0  2  0  0  0  0  0  0
  181.6300  177.5220  139.8450 C   0  0  0  0  0  2  0  0  0  0  0  0
  181.8110  178.8280  140.3010 O   0  0  0  0  0  1  0  0  0  0  0  0
  183.9420  179.0350  142.7620 O   0  0  0  0  0  0  0  0  0  0  0  0
  183.2390  179.3590  143.9400 C   0  0  0  0  0  0  0  0  0  0  0  0
  183.1280  178.2530  144.7690 F   0  0  0  0  0  0  0  0  0  0  0  0
  183.8650  180.3940  144.6190 F   0  0  0  0  0  0  0  0  0  0  0  0
  181.9680  179.7740  143.5930 F   0  0  0  0  0  0  0  0  0  0  0  0
  1  5  1  0  0  0  0
  1 13  1  0  0  0  0
  2  6  1  0  0  0  0
  3  7  1  0  0  0  0
  4  1  1  0  0  0  0
  5  3  1  0  0  0  0
  6  4  1  0  0  0  0
  6 15  1  0  0  0  0
  7 10  1  0  0  0  0
  8  5  1  0  0  0  0
 11 16  1  0  0  0  0
 11 12  1  0  0  0  0
 12  2  1  0  0  0  0
 13  9  1  0  0  0  0
 13 10  1  0  0  0  0
 14  4  1  0  0  0  0
 14  8  1  0  0  0  0
 15 18  1  0  0  0  0
 16 12  1  0  0  0  0
 16 17  1  0  0  0  0
 17 14  1  0  0  0  0
 18  9  1  0  0  0  0
 20 19  1  0  0  0  0
 20 15  1  0  0  0  0
 21 20  2  0  0  0  0
 22 24  1  0  0  0  0
 23 25  1  0  0  0  0
 24 23  2  0  0  0  0
 24 21  1  0  0  0  0
 25 19  2  0  0  0  0
 26 27  1  0  0  0  0
 26 17  1  0  0  0  0
 27 30  1  0  0  0  0
 28 29  1  0  0  0  0
 28 27  1  0  0  0  0
 29 27  1  0  0  0  0
 30 31  1  0  0  0  0
 31 32  1  0  0  0  0
 33  3  1  0  0  0  0
 33 34  1  0  0  0  0
 34 36  1  0  0  0  0
 34 35  1  0  0  0  0
 37 34  1  0  0  0  0
M  END
>  <MODEL>
7

>  <REMARK>
 VINA RESULT:      -8.0      2.869      5.934
  Name = 
  7 active torsions:
  status: ('A' for Active; 'I' for Inactive)
    1  A    between atoms: C_1  and  C_4
    2  A    between atoms: C_1  and  C_27
    3  A    between atoms: C_2  and  O_22
    4  A    between atoms: C_4  and  C_12
    5  A    between atoms: C_6  and  O_22
    6  A    between atoms: C_8  and  C_12
    7  A    between atoms: C_23  and  C_30
                            x       y       z     vdW  Elec       q    Type
                         _______ _______ _______ _____ _____    ______ ____

>  <TORSDO>
F 7

$$$$
=
 OpenBabel11122411493D

 37 43  0  0  1  0  0  0  0  0999 V2000
  186.7850  177.8450  142.0020 C   0  0  1  0  0  3  0  0  0  0  0  0
  189.6500  176.3590  141.0300 O   0  0  0  0  0  0  0  0  0  0  0  0
  185.5470  178.6580  144.1760 C   0  0  2  0  0  3  0  0  0  0  0  0
  188.2480  178.1110  141.8610 C   0  0  2  0  0  3  0  0  0  0  0  0
  186.6850  177.8420  143.5330 C   0  0  2  0  0  3  0  0  0  0  0  0
  188.9200  177.4920  140.6320 C   0  0  2  0  0  3  0  0  0  0  0  0
  185.0280  179.7750  143.2880 C   0  0  0  0  0  2  0  0  0  0  0  0
  187.9600  178.1330  144.0560 O   0  0  0  0  0  0  0  0  0  0  0  0
  185.8190  178.4480  139.9380 C   0  0  0  0  0  2  0  0  0  0  0  0
  184.7960  179.2110  141.9010 C   0  0  0  0  0  2  0  0  0  0  0  0
  191.5050  178.1070  141.2250 C   0  0  0  0  0  2  0  0  0  0  0  0
  191.0240  176.6590  141.2710 C   0  0  1  0  0  3  0  0  0  0  0  0
  186.0880  178.9250  141.2930 N   0  0  1  0  0  0  0  0  0  0  0  0
  188.8230  177.6560  143.1130 N   0  0  2  0  0  0  0  0  0  0  0  0
  187.9660  177.1830  139.4630 C   0  0  1  0  0  3  0  0  0  0  0  0
  191.2600  177.4590  142.5780 C   0  0  2  0  0  3  0  0  0  0  0  0
  190.1410  178.2840  143.2520 C   0  0  2  0  0  3  0  0  0  0  0  0
  187.0950  178.3910  139.0920 C   0  0  0  0  0  2  0  0  0  0  0  0
  189.8850  177.3910  137.8770 C   0  0  0  0  0  3  0  0  0  0  0  0
  188.7280  176.7080  138.2650 C   0  0  0  0  0  0  0  0  0  0  0  0
  188.2970  175.5970  137.5230 C   0  0  0  0  0  3  0  0  0  0  0  0
  188.5810  174.0520  135.6540 N   0  0  0  0  0  1  0  0  0  0  0  0
  190.1770  175.8640  136.0200 C   0  0  0  0  0  3  0  0  0  0  0  0
  189.0210  175.1770  136.4030 C   0  0  0  0  0  0  0  0  0  0  0  0
  190.6090  176.9710  136.7570 C   0  0  0  0  0  3  0  0  0  0  0  0
  190.5220  178.4820  144.7180 C   0  0  0  0  0  2  0  0  0  0  0  0
  190.4800  177.1580  145.4670 C   0  0  0  0  0  0  0  0  0  0  0  0
  191.3470  176.0670  144.8870 C   0  0  0  0  0  2  0  0  0  0  0  0
  191.7600  176.7760  146.1700 C   0  0  0  0  0  2  0  0  0  0  0  0
  189.2060  176.6840  146.1580 C   0  0  0  0  0  2  0  0  0  0  0  0
  189.2180  177.0100  147.6440 C   0  0  0  0  0  2  0  0  0  0  0  0
  188.7030  178.2890  147.8600 O   0  0  0  0  0  1  0  0  0  0  0  0
  185.9280  179.1720  145.4270 O   0  0  0  0  0  0  0  0  0  0  0  0
  185.3200  178.3900  146.4290 C   0  0  0  0  0  0  0  0  0  0  0  0
  183.9450  178.3420  146.2520 F   0  0  0  0  0  0  0  0  0  0  0  0
  185.8380  177.1040  146.4340 F   0  0  0  0  0  0  0  0  0  0  0  0
  185.5800  178.9680  147.6570 F   0  0  0  0  0  0  0  0  0  0  0  0
  1  5  1  0  0  0  0
  2 12  1  0  0  0  0
  3 33  1  0  0  0  0
  4  1  1  0  0  0  0
  4 14  1  0  0  0  0
  5  8  1  0  0  0  0
  5  3  1  0  0  0  0
  6  2  1  0  0  0  0
  6  4  1  0  0  0  0
  7  3  1  0  0  0  0
  9 13  1  0  0  0  0
 10  7  1  0  0  0  0
 11 12  1  0  0  0  0
 11 16  1  0  0  0  0
 12 16  1  0  0  0  0
 13 10  1  0  0  0  0
 13  1  1  0  0  0  0
 14 17  1  0  0  0  0
 14  8  1  0  0  0  0
 15  6  1  0  0  0  0
 16 17  1  0  0  0  0
 17 26  1  0  0  0  0
 18 15  1  0  0  0  0
 18  9  1  0  0  0  0
 19 20  1  0  0  0  0
 20 15  1  0  0  0  0
 21 20  2  0  0  0  0
 22 24  1  0  0  0  0
 23 24  2  0  0  0  0
 23 25  1  0  0  0  0
 24 21  1  0  0  0  0
 25 19  2  0  0  0  0
 26 27  1  0  0  0  0
 27 30  1  0  0  0  0
 27 29  1  0  0  0  0
 28 27  1  0  0  0  0
 28 29  1  0  0  0  0
 30 31  1  0  0  0  0
 31 32  1  0  0  0  0
 33 34  1  0  0  0  0
 34 36  1  0  0  0  0
 34 37  1  0  0  0  0
 35 34  1  0  0  0  0
M  END
>  <MODEL>
8

>  <REMARK>
 VINA RESULT:      -7.6      1.764      2.327
  Name = 
  7 active torsions:
  status: ('A' for Active; 'I' for Inactive)
    1  A    between atoms: C_1  and  C_4
    2  A    between atoms: C_1  and  C_27
    3  A    between atoms: C_2  and  O_22
    4  A    between atoms: C_4  and  C_12
    5  A    between atoms: C_6  and  O_22
    6  A    between atoms: C_8  and  C_12
    7  A    between atoms: C_23  and  C_30
                            x       y       z     vdW  Elec       q    Type
                         _______ _______ _______ _____ _____    ______ ____

>  <TORSDO>
F 7

$$$$
=
 OpenBabel11122411493D

 37 43  0  0  1  0  0  0  0  0999 V2000
  188.1430  177.5740  140.1560 C   0  0  1  0  0  3  0  0  0  0  0  0
  186.1080  177.4050  142.8370 O   0  0  0  0  0  0  0  0  0  0  0  0
  188.0480  177.7680  137.5340 C   0  0  2  0  0  3  0  0  0  0  0  0
  187.2230  178.4150  140.9770 C   0  0  2  0  0  3  0  0  0  0  0  0
  187.3180  177.5000  138.8640 C   0  0  2  0  0  3  0  0  0  0  0  0
  187.2460  178.1500  142.4850 C   0  0  2  0  0  3  0  0  0  0  0  0
  189.3110  178.5940  137.6940 C   0  0  0  0  0  2  0  0  0  0  0  0
  186.1550  178.2750  139.0420 O   0  0  0  0  0  0  0  0  0  0  0  0
  190.2660  177.7710  141.1610 C   0  0  0  0  0  2  0  0  0  0  0  0
  190.1180  178.0130  138.8370 C   0  0  0  0  0  2  0  0  0  0  0  0
  185.1710  179.7530  143.2170 C   0  0  0  0  0  2  0  0  0  0  0  0
  185.0400  178.2340  143.2930 C   0  0  1  0  0  3  0  0  0  0  0  0
  189.4230  178.2900  140.0860 N   0  0  1  0  0  0  0  0  0  0  0  0
  185.9140  178.2100  140.3830 N   0  0  2  0  0  0  0  0  0  0  0  0
  188.5430  177.5010  143.0040 C   0  0  1  0  0  3  0  0  0  0  0  0
  184.3520  179.0340  142.1570 C   0  0  2  0  0  3  0  0  0  0  0  0
  185.0530  179.3180  140.8100 C   0  0  2  0  0  3  0  0  0  0  0  0
  189.7950  178.2570  142.5360 C   0  0  0  0  0  2  0  0  0  0  0  0
  187.3240  177.5950  145.1830 C   0  0  0  0  0  3  0  0  0  0  0  0
  188.5280  177.4020  144.4980 C   0  0  0  0  0  0  0  0  0  0  0  0
  189.7010  177.1280  145.2200 C   0  0  0  0  0  3  0  0  0  0  0  0
  190.8520  176.7700  147.3430 N   0  0  0  0  0  1  0  0  0  0  0  0
  188.4560  177.2410  147.2940 C   0  0  0  0  0  3  0  0  0  0  0  0
  189.6630  177.0480  146.6150 C   0  0  0  0  0  0  0  0  0  0  0  0
  187.2870  177.5150  146.5780 C   0  0  0  0  0  3  0  0  0  0  0  0
  183.9720  179.6240  139.7750 C   0  0  0  0  0  2  0  0  0  0  0  0
  182.8120  178.6480  139.9040 C   0  0  0  0  0  0  0  0  0  0  0  0
  181.5720  179.2120  140.5550 C   0  0  0  0  0  2  0  0  0  0  0  0
  181.6070  178.9650  139.0520 C   0  0  0  0  0  2  0  0  0  0  0  0
  183.0560  177.1610  140.1380 C   0  0  0  0  0  2  0  0  0  0  0  0
  182.6790  176.3320  138.9180 C   0  0  0  0  0  2  0  0  0  0  0  0
  183.7550  176.2620  138.0340 O   0  0  0  0  0  1  0  0  0  0  0  0
  187.1940  178.3680  136.5930 O   0  0  0  0  0  0  0  0  0  0  0  0
  187.0750  177.5000  135.4890 C   0  0  0  0  0  0  0  0  0  0  0  0
  188.2480  177.4800  134.7490 F   0  0  0  0  0  0  0  0  0  0  0  0
  186.7580  176.2150  135.9030 F   0  0  0  0  0  0  0  0  0  0  0  0
  186.0560  177.9580  134.6760 F   0  0  0  0  0  0  0  0  0  0  0  0
  1  4  1  0  0  0  0
  2 12  1  0  0  0  0
  3  7  1  0  0  0  0
  3  5  1  0  0  0  0
  4  6  1  0  0  0  0
  5  8  1  0  0  0  0
  5  1  1  0  0  0  0
  6  2  1  0  0  0  0
  6 15  1  0  0  0  0
  7 10  1  0  0  0  0
  8 14  1  0  0  0  0
  9 18  1  0  0  0  0
 10 13  1  0  0  0  0
 11 12  1  0  0  0  0
 13  1  1  0  0  0  0
 13  9  1  0  0  0  0
 14 17  1  0  0  0  0
 14  4  1  0  0  0  0
 15 20  1  0  0  0  0
 16 11  1  0  0  0  0
 16 12  1  0  0  0  0
 17 16  1  0  0  0  0
 18 15  1  0  0  0  0
 19 25  1  0  0  0  0
 20 19  2  0  0  0  0
 20 21  1  0  0  0  0
 21 24  2  0  0  0  0
 24 23  1  0  0  0  0
 24 22  1  0  0  0  0
 25 23  2  0  0  0  0
 26 27  1  0  0  0  0
 26 17  1  0  0  0  0
 27 30  1  0  0  0  0
 27 28  1  0  0  0  0
 29 27  1  0  0  0  0
 29 28  1  0  0  0  0
 31 30  1  0  0  0  0
 32 31  1  0  0  0  0
 33  3  1  0  0  0  0
 34 36  1  0  0  0  0
 34 33  1  0  0  0  0
 35 34  1  0  0  0  0
 37 34  1  0  0  0  0
M  END
>  <MODEL>
9

>  <REMARK>
 VINA RESULT:      -7.6      3.895      8.001
  Name = 
  7 active torsions:
  status: ('A' for Active; 'I' for Inactive)
    1  A    between atoms: C_1  and  C_4
    2  A    between atoms: C_1  and  C_27
    3  A    between atoms: C_2  and  O_22
    4  A    between atoms: C_4  and  C_12
    5  A    between atoms: C_6  and  O_22
    6  A    between atoms: C_8  and  C_12
    7  A    between atoms: C_23  and  C_30
                            x       y       z     vdW  Elec       q    Type
                         _______ _______ _______ _____ _____    ______ ____

>  <TORSDO>
F 7

$$$$
