=
 OpenBabel11122411553D

 28 32  0  0  1  0  0  0  0  0999 V2000
  181.4900  179.0970  137.3420 C   0  0  0  0  0  0  0  0  0  0  0  0
  185.8140  176.7670  138.4960 F   0  0  0  0  0  0  0  0  0  0  0  0
  180.7090  178.4890  142.0670 O   0  0  0  0  0  0  0  0  0  0  0  0
  181.7050  181.7010  138.3540 C   0  0  0  0  0  3  0  0  0  0  0  0
  183.1000  178.5940  141.9310 C   0  0  0  0  0  0  0  0  0  0  0  0
  181.2890  177.6870  136.8700 C   0  0  0  0  0  2  0  0  0  0  0  0
  186.3800  178.4090  136.9010 C   0  0  0  0  0  1  0  0  0  0  0  0
  186.1210  178.1130  138.3650 C   0  0  1  0  0  0  0  0  0  0  0  0
  187.0730  178.3140  140.6340 C   0  0  1  0  0  3  0  0  0  0  0  0
  184.9640  179.0080  138.8640 C   0  0  2  0  0  3  0  0  0  0  0  0
  178.9310  177.8010  139.3840 O   0  0  0  0  0  0  0  0  0  0  0  0
  183.2690  177.5160  139.8080 C   0  0  1  0  0  3  0  0  0  0  0  0
  186.2160  179.3690  140.9960 O   0  0  0  0  0  0  0  0  0  0  0  0
  187.3930  178.3940  139.1490 C   0  0  0  0  0  2  0  0  0  0  0  0
  179.8690  177.1900  138.9010 C   0  0  0  0  0  0  0  0  0  0  0  0
  182.5600  179.4240  138.2010 C   0  0  0  0  0  0  0  0  0  0  0  0
  181.7850  178.2630  141.4530 C   0  0  0  0  0  0  0  0  0  0  0  0
  188.3570  178.4160  141.4290 C   0  0  0  0  0  1  0  0  0  0  0  0
  180.8970  176.5850  139.8000 C   0  0  0  0  0  2  0  0  0  0  0  0
  182.6430  180.7300  138.7150 C   0  0  0  0  0  3  0  0  0  0  0  0
  180.5610  180.0790  136.9760 C   0  0  0  0  0  3  0  0  0  0  0  0
  180.6710  181.3780  137.4760 C   0  0  0  0  0  3  0  0  0  0  0  0
  179.9900  177.0810  137.4090 C   0  0  0  0  0  2  0  0  0  0  0  0
  184.1180  178.0640  140.9820 C   0  0  1  0  0  3  0  0  0  0  0  0
  181.8630  177.5950  140.2100 N   0  0  0  0  0  0  0  0  0  0  0  0
  184.9500  179.1900  140.3890 C   0  0  2  0  0  3  0  0  0  0  0  0
  183.3510  179.1920  143.0100 O   0  0  0  0  0  0  0  0  0  0  0  0
  183.6030  178.3790  138.5680 C   0  0  1  0  0  3  0  0  0  0  0  0
  1 16  1  0  0  0  0
  4 20  1  0  0  0  0
  5 27  2  0  0  0  0
  6  1  1  0  0  0  0
  6 23  1  0  0  0  0
  8  7  1  6  0  0  0
  8  2  1  0  0  0  0
  8 10  1  0  0  0  0
  8 14  1  0  0  0  0
  9 13  1  0  0  0  0
  9 18  1  1  0  0  0
 10 26  1  0  0  0  0
 12 25  1  0  0  0  0
 12 24  1  0  0  0  0
 14  9  1  0  0  0  0
 15 11  2  0  0  0  0
 15 19  1  0  0  0  0
 16 28  1  0  0  0  0
 16 20  2  0  0  0  0
 17  5  1  0  0  0  0
 17  3  2  0  0  0  0
 19 25  1  0  0  0  0
 21  1  2  0  0  0  0
 21 22  1  0  0  0  0
 22  4  2  0  0  0  0
 23 15  1  0  0  0  0
 24  5  1  0  0  0  0
 25 17  1  0  0  0  0
 26 24  1  0  0  0  0
 26 13  1  0  0  0  0
 28 10  1  0  0  0  0
 28 12  1  0  0  0  0
M  END
>  <MODEL>
1

>  <REMARK>
 VINA RESULT:      -5.9      0.000      0.000
  Name = 
  0 active torsions:
  status: ('A' for Active; 'I' for Inactive)
                            x       y       z     vdW  Elec       q    Type
                         _______ _______ _______ _____ _____    ______ ____

>  <TORSDO>
F 0

$$$$
=
 OpenBabel11122411553D

 28 32  0  0  1  0  0  0  0  0999 V2000
  189.3840  178.1780  138.0970 C   0  0  0  0  0  0  0  0  0  0  0  0
  192.1910  175.8760  134.5940 F   0  0  0  0  0  0  0  0  0  0  0  0
  186.5110  174.3820  137.2940 O   0  0  0  0  0  0  0  0  0  0  0  0
  189.6630  176.6720  140.4440 C   0  0  0  0  0  3  0  0  0  0  0  0
  188.6860  173.5270  136.7630 C   0  0  0  0  0  0  0  0  0  0  0  0
  189.1240  178.9590  136.8430 C   0  0  0  0  0  2  0  0  0  0  0  0
  193.7190  176.7530  136.1610 C   0  0  0  0  0  1  0  0  0  0  0  0
  192.7920  175.6050  135.8130 C   0  0  1  0  0  0  0  0  0  0  0  0
  192.6760  173.1530  135.5430 C   0  0  1  0  0  3  0  0  0  0  0  0
  191.7440  175.4440  136.9380 C   0  0  2  0  0  3  0  0  0  0  0  0
  185.9840  177.6300  137.3580 O   0  0  0  0  0  0  0  0  0  0  0  0
  189.5410  175.5720  135.8780 C   0  0  1  0  0  3  0  0  0  0  0  0
  191.9840  172.9640  136.7520 O   0  0  0  0  0  0  0  0  0  0  0  0
  193.6210  174.3380  135.6690 C   0  0  0  0  0  2  0  0  0  0  0  0
  186.8930  177.8080  136.5640 C   0  0  0  0  0  0  0  0  0  0  0  0
  190.0130  176.9160  138.0450 C   0  0  0  0  0  0  0  0  0  0  0  0
  187.6750  174.5450  136.8440 C   0  0  0  0  0  0  0  0  0  0  0  0
  193.4750  171.9080  135.2220 C   0  0  0  0  0  1  0  0  0  0  0  0
  187.2770  176.7120  135.6250 C   0  0  0  0  0  2  0  0  0  0  0  0
  190.1270  176.1660  139.2270 C   0  0  0  0  0  3  0  0  0  0  0  0
  188.9310  178.6840  139.3230 C   0  0  0  0  0  3  0  0  0  0  0  0
  189.0740  177.9350  140.4930 C   0  0  0  0  0  3  0  0  0  0  0  0
  187.6280  179.1170  136.5620 C   0  0  0  0  0  2  0  0  0  0  0  0
  189.8840  174.0730  136.0680 C   0  0  1  0  0  3  0  0  0  0  0  0
  188.1500  175.7590  136.2960 N   0  0  0  0  0  0  0  0  0  0  0  0
  191.1030  174.0490  136.9770 C   0  0  2  0  0  3  0  0  0  0  0  0
  188.5580  172.3420  137.1710 O   0  0  0  0  0  0  0  0  0  0  0  0
  190.5520  176.3780  136.7280 C   0  0  1  0  0  3  0  0  0  0  0  0
  1 21  1  0  0  0  0
  2  8  1  0  0  0  0
  4 22  1  0  0  0  0
  5 17  1  0  0  0  0
  5 27  2  0  0  0  0
  6  1  1  0  0  0  0
  8  7  1  1  0  0  0
  8 10  1  0  0  0  0
  9 18  1  1  0  0  0
  9 14  1  0  0  0  0
  9 13  1  0  0  0  0
 10 26  1  0  0  0  0
 12 24  1  0  0  0  0
 12 25  1  0  0  0  0
 12 28  1  0  0  0  0
 13 26  1  0  0  0  0
 14  8  1  0  0  0  0
 15 11  2  0  0  0  0
 16  1  2  0  0  0  0
 16 20  1  0  0  0  0
 17  3  2  0  0  0  0
 19 25  1  0  0  0  0
 19 15  1  0  0  0  0
 20  4  2  0  0  0  0
 21 22  2  0  0  0  0
 23 15  1  0  0  0  0
 23  6  1  0  0  0  0
 24  5  1  0  0  0  0
 24 26  1  0  0  0  0
 25 17  1  0  0  0  0
 28 10  1  0  0  0  0
 28 16  1  0  0  0  0
M  END
>  <MODEL>
2

>  <REMARK>
 VINA RESULT:      -5.6      5.675      8.449
  Name = 
  0 active torsions:
  status: ('A' for Active; 'I' for Inactive)
                            x       y       z     vdW  Elec       q    Type
                         _______ _______ _______ _____ _____    ______ ____

>  <TORSDO>
F 0

$$$$
=
 OpenBabel11122411553D

 28 32  0  0  1  0  0  0  0  0999 V2000
  182.3940  179.1840  138.7940 C   0  0  0  0  0  0  0  0  0  0  0  0
  179.6700  176.0390  135.9400 F   0  0  0  0  0  0  0  0  0  0  0  0
  179.0580  177.9870  142.0730 O   0  0  0  0  0  0  0  0  0  0  0  0
  183.8260  177.5770  140.5880 C   0  0  0  0  0  3  0  0  0  0  0  0
  179.1270  176.0570  140.6520 C   0  0  0  0  0  0  0  0  0  0  0  0
  181.5750  180.0890  137.9220 C   0  0  0  0  0  2  0  0  0  0  0  0
  181.9190  175.6510  135.3480 C   0  0  0  0  0  1  0  0  0  0  0  0
  180.8020  175.3350  136.3220 C   0  0  1  0  0  0  0  0  0  0  0  0
  179.5350  173.4900  137.3670 C   0  0  1  0  0  3  0  0  0  0  0  0
  181.2520  175.7200  137.7500 C   0  0  2  0  0  3  0  0  0  0  0  0
  180.2260  180.8700  140.9980 O   0  0  0  0  0  0  0  0  0  0  0  0
  179.5650  177.2560  138.6350 C   0  0  1  0  0  3  0  0  0  0  0  0
  180.1840  173.6300  138.6070 O   0  0  0  0  0  0  0  0  0  0  0  0
  180.4930  173.8480  136.2410 C   0  0  0  0  0  2  0  0  0  0  0  0
  180.0000  180.5480  139.8430 C   0  0  0  0  0  0  0  0  0  0  0  0
  182.0840  177.8110  138.9000 C   0  0  0  0  0  0  0  0  0  0  0  0
  179.2110  177.4630  140.9380 C   0  0  0  0  0  0  0  0  0  0  0  0
  179.0780  172.0570  137.2000 C   0  0  0  0  0  1  0  0  0  0  0  0
  178.9310  179.5470  139.5530 C   0  0  0  0  0  2  0  0  0  0  0  0
  182.7990  177.0240  139.8190 C   0  0  0  0  0  3  0  0  0  0  0  0
  183.4320  179.7280  139.5600 C   0  0  0  0  0  3  0  0  0  0  0  0
  184.1490  178.9270  140.4510 C   0  0  0  0  0  3  0  0  0  0  0  0
  180.8200  181.1440  138.7360 C   0  0  0  0  0  2  0  0  0  0  0  0
  179.2460  175.8430  139.1840 C   0  0  1  0  0  3  0  0  0  0  0  0
  179.4390  178.1970  139.7500 N   0  0  0  0  0  0  0  0  0  0  0  0
  180.4650  174.9960  138.8520 C   0  0  2  0  0  3  0  0  0  0  0  0
  178.9310  175.1530  141.5070 O   0  0  0  0  0  0  0  0  0  0  0  0
  180.9910  177.1980  138.0380 C   0  0  1  0  0  3  0  0  0  0  0  0
  1 16  2  0  0  0  0
  1 21  1  0  0  0  0
  2  8  1  0  0  0  0
  5 17  1  0  0  0  0
  5 27  2  0  0  0  0
  6 23  1  0  0  0  0
  6  1  1  0  0  0  0
  8  7  1  6  0  0  0
  8 10  1  0  0  0  0
  9 18  1  6  0  0  0
  9 13  1  0  0  0  0
 10 28  1  0  0  0  0
 10 26  1  0  0  0  0
 12 24  1  0  0  0  0
 12 25  1  0  0  0  0
 13 26  1  0  0  0  0
 14  8  1  0  0  0  0
 14  9  1  0  0  0  0
 15 11  2  0  0  0  0
 16 20  1  0  0  0  0
 17  3  2  0  0  0  0
 19 25  1  0  0  0  0
 19 15  1  0  0  0  0
 20  4  2  0  0  0  0
 21 22  2  0  0  0  0
 22  4  1  0  0  0  0
 23 15  1  0  0  0  0
 24  5  1  0  0  0  0
 25 17  1  0  0  0  0
 26 24  1  0  0  0  0
 28 12  1  0  0  0  0
 28 16  1  0  0  0  0
M  END
>  <MODEL>
3

>  <REMARK>
 VINA RESULT:      -5.5      2.766      5.531
  Name = 
  0 active torsions:
  status: ('A' for Active; 'I' for Inactive)
                            x       y       z     vdW  Elec       q    Type
                         _______ _______ _______ _____ _____    ______ ____

>  <TORSDO>
F 0

$$$$
=
 OpenBabel11122411553D

 28 32  0  0  1  0  0  0  0  0999 V2000
  180.4250  179.1800  140.1490 C   0  0  0  0  0  0  0  0  0  0  0  0
  181.8630  174.9040  137.8900 F   0  0  0  0  0  0  0  0  0  0  0  0
  185.1960  179.6880  140.6800 O   0  0  0  0  0  0  0  0  0  0  0  0
  181.0380  181.2550  138.3680 C   0  0  0  0  0  3  0  0  0  0  0  0
  185.0200  178.3520  138.6980 C   0  0  0  0  0  0  0  0  0  0  0  0
  180.1690  178.1160  141.1740 C   0  0  0  0  0  2  0  0  0  0  0  0
  180.0360  175.7060  136.6330 C   0  0  0  0  0  1  0  0  0  0  0  0
  181.5300  175.7870  136.8740 C   0  0  1  0  0  0  0  0  0  0  0  0
  183.7350  175.6460  135.7690 C   0  0  1  0  0  3  0  0  0  0  0  0
  181.9040  177.2410  137.2430 C   0  0  2  0  0  3  0  0  0  0  0  0
  182.6650  179.8770  142.7750 O   0  0  0  0  0  0  0  0  0  0  0  0
  183.0780  177.1480  139.3890 C   0  0  1  0  0  3  0  0  0  0  0  0
  183.9450  177.0360  135.8160 O   0  0  0  0  0  0  0  0  0  0  0  0
  182.2510  175.3550  135.6060 C   0  0  0  0  0  2  0  0  0  0  0  0
  182.2670  178.7810  142.4160 C   0  0  0  0  0  0  0  0  0  0  0  0
  181.2140  178.9110  139.0110 C   0  0  0  0  0  0  0  0  0  0  0  0
  184.6110  178.8060  139.9990 C   0  0  0  0  0  0  0  0  0  0  0  0
  184.4920  175.0640  134.5950 C   0  0  0  0  0  1  0  0  0  0  0  0
  183.2340  177.7950  141.8490 C   0  0  0  0  0  2  0  0  0  0  0  0
  181.5280  179.9680  138.1380 C   0  0  0  0  0  3  0  0  0  0  0  0
  179.9270  180.4720  140.3660 C   0  0  0  0  0  3  0  0  0  0  0  0
  180.2290  181.5050  139.4770 C   0  0  0  0  0  3  0  0  0  0  0  0
  180.8060  178.4540  142.5250 C   0  0  0  0  0  2  0  0  0  0  0  0
  184.1480  177.2220  138.2720 C   0  0  1  0  0  3  0  0  0  0  0  0
  183.4790  178.0830  140.4430 N   0  0  0  0  0  0  0  0  0  0  0  0
  183.3850  177.5680  137.0030 C   0  0  2  0  0  3  0  0  0  0  0  0
  185.9950  178.8060  138.0440 O   0  0  0  0  0  0  0  0  0  0  0  0
  181.7200  177.5030  138.7380 C   0  0  1  0  0  3  0  0  0  0  0  0
  1 21  1  0  0  0  0
  1  6  1  0  0  0  0
  4 22  1  0  0  0  0
  5 17  1  0  0  0  0
  6 23  1  0  0  0  0
  8  7  1  6  0  0  0
  8 10  1  0  0  0  0
  8  2  1  0  0  0  0
  9 18  1  6  0  0  0
  9 13  1  0  0  0  0
 10 28  1  0  0  0  0
 12 25  1  0  0  0  0
 13 26  1  0  0  0  0
 14  9  1  0  0  0  0
 14  8  1  0  0  0  0
 15 23  1  0  0  0  0
 15 11  2  0  0  0  0
 16  1  2  0  0  0  0
 17 25  1  0  0  0  0
 17  3  2  0  0  0  0
 19 15  1  0  0  0  0
 20  4  2  0  0  0  0
 20 16  1  0  0  0  0
 22 21  2  0  0  0  0
 24  5  1  0  0  0  0
 24 12  1  0  0  0  0
 25 19  1  0  0  0  0
 26 10  1  0  0  0  0
 26 24  1  0  0  0  0
 27  5  2  0  0  0  0
 28 16  1  0  0  0  0
 28 12  1  0  0  0  0
M  END
>  <MODEL>
4

>  <REMARK>
 VINA RESULT:      -5.2      2.345      4.490
  Name = 
  0 active torsions:
  status: ('A' for Active; 'I' for Inactive)
                            x       y       z     vdW  Elec       q    Type
                         _______ _______ _______ _____ _____    ______ ____

>  <TORSDO>
F 0

$$$$
=
 OpenBabel11122411553D

 28 32  0  0  1  0  0  0  0  0999 V2000
  180.2140  177.4410  139.0800 C   0  0  0  0  0  0  0  0  0  0  0  0
  181.4670  180.1640  143.1390 F   0  0  0  0  0  0  0  0  0  0  0  0
  184.5300  178.9910  137.5690 O   0  0  0  0  0  0  0  0  0  0  0  0
  181.7830  175.1210  139.1740 C   0  0  0  0  0  3  0  0  0  0  0  0
  184.7740  178.9740  139.9530 C   0  0  0  0  0  0  0  0  0  0  0  0
  179.4260  178.7090  138.9330 C   0  0  0  0  0  2  0  0  0  0  0  0
  180.3630  178.2520  143.9680 C   0  0  0  0  0  1  0  0  0  0  0  0
  181.6740  178.8370  143.4820 C   0  0  1  0  0  0  0  0  0  0  0  0
  184.0490  179.1620  144.0750 C   0  0  1  0  0  3  0  0  0  0  0  0
  182.1780  178.0120  142.2750 C   0  0  2  0  0  3  0  0  0  0  0  0
  181.5290  179.0140  136.2160 O   0  0  0  0  0  0  0  0  0  0  0  0
  182.5180  179.5880  140.4330 C   0  0  1  0  0  3  0  0  0  0  0  0
  184.4980  178.1680  143.1880 O   0  0  0  0  0  0  0  0  0  0  0  0
  182.6810  178.7870  144.6210 C   0  0  0  0  0  2  0  0  0  0  0  0
  181.0700  179.5540  137.2100 C   0  0  0  0  0  0  0  0  0  0  0  0
  181.2730  177.3530  140.0090 C   0  0  0  0  0  0  0  0  0  0  0  0
  184.0480  179.1330  138.7230 C   0  0  0  0  0  0  0  0  0  0  0  0
  185.0290  179.2900  145.2220 C   0  0  0  0  0  1  0  0  0  0  0  0
  181.9590  180.3830  138.0770 C   0  0  0  0  0  2  0  0  0  0  0  0
  182.0620  176.1900  140.0300 C   0  0  0  0  0  3  0  0  0  0  0  0
  179.9350  176.3610  138.2330 C   0  0  0  0  0  3  0  0  0  0  0  0
  180.7130  175.2030  138.2830 C   0  0  0  0  0  3  0  0  0  0  0  0
  179.6230  179.3530  137.5580 C   0  0  0  0  0  2  0  0  0  0  0  0
  183.8950  179.3390  141.0980 C   0  0  1  0  0  3  0  0  0  0  0  0
  182.7150  179.5280  138.9830 N   0  0  0  0  0  0  0  0  0  0  0  0
  183.6870  178.1540  142.0280 C   0  0  2  0  0  3  0  0  0  0  0  0
  185.9820  178.6280  140.0430 O   0  0  0  0  0  0  0  0  0  0  0  0
  181.5560  178.5000  140.9670 C   0  0  1  0  0  3  0  0  0  0  0  0
  1 16  1  0  0  0  0
  2  8  1  0  0  0  0
  3 17  2  0  0  0  0
  4 20  1  0  0  0  0
  5 27  2  0  0  0  0
  5 24  1  0  0  0  0
  6  1  1  0  0  0  0
  8  7  1  1  0  0  0
  8 14  1  0  0  0  0
  9 14  1  0  0  0  0
  9 18  1  1  0  0  0
 10  8  1  0  0  0  0
 11 15  2  0  0  0  0
 12 28  1  0  0  0  0
 12 24  1  0  0  0  0
 13  9  1  0  0  0  0
 15 23  1  0  0  0  0
 15 19  1  0  0  0  0
 16 20  2  0  0  0  0
 16 28  1  0  0  0  0
 17 25  1  0  0  0  0
 17  5  1  0  0  0  0
 19 25  1  0  0  0  0
 21 22  1  0  0  0  0
 21  1  2  0  0  0  0
 22  4  2  0  0  0  0
 23  6  1  0  0  0  0
 24 26  1  0  0  0  0
 25 12  1  0  0  0  0
 26 10  1  0  0  0  0
 26 13  1  0  0  0  0
 28 10  1  0  0  0  0
M  END
>  <MODEL>
5

>  <REMARK>
 VINA RESULT:      -5.0      2.398      4.677
  Name = 
  0 active torsions:
  status: ('A' for Active; 'I' for Inactive)
                            x       y       z     vdW  Elec       q    Type
                         _______ _______ _______ _____ _____    ______ ____

>  <TORSDO>
F 0

$$$$
=
 OpenBabel11122411553D

 28 32  0  0  1  0  0  0  0  0999 V2000
  180.5840  178.9090  142.4430 C   0  0  0  0  0  0  0  0  0  0  0  0
  181.2420  174.4090  140.2590 F   0  0  0  0  0  0  0  0  0  0  0  0
  184.7910  179.8110  140.2520 O   0  0  0  0  0  0  0  0  0  0  0  0
  179.8590  180.6790  140.3950 C   0  0  0  0  0  3  0  0  0  0  0  0
  183.8030  178.1430  138.8430 C   0  0  0  0  0  0  0  0  0  0  0  0
  181.0640  178.0250  143.5550 C   0  0  0  0  0  2  0  0  0  0  0  0
  178.9320  174.8600  140.1080 C   0  0  0  0  0  1  0  0  0  0  0  0
  180.3000  175.0790  139.4930 C   0  0  1  0  0  0  0  0  0  0  0  0
  181.5920  174.8920  137.3960 C   0  0  1  0  0  3  0  0  0  0  0  0
  180.5920  176.5960  139.4360 C   0  0  2  0  0  3  0  0  0  0  0  0
  183.7350  180.1960  143.3460 O   0  0  0  0  0  0  0  0  0  0  0  0
  182.7140  176.9540  140.6030 C   0  0  1  0  0  3  0  0  0  0  0  0
  181.5870  176.2790  137.1670 O   0  0  0  0  0  0  0  0  0  0  0  0
  180.3050  174.4810  138.0940 C   0  0  0  0  0  2  0  0  0  0  0  0
  183.3760  179.0310  143.3840 C   0  0  0  0  0  0  0  0  0  0  0  0
  180.6910  178.4990  141.0970 C   0  0  0  0  0  0  0  0  0  0  0  0
  184.0740  178.7880  140.0990 C   0  0  0  0  0  0  0  0  0  0  0  0
  181.6980  174.1650  136.0720 C   0  0  0  0  0  1  0  0  0  0  0  0
  184.0360  178.0260  142.4980 C   0  0  0  0  0  2  0  0  0  0  0  0
  180.3410  179.4060  140.0810 C   0  0  0  0  0  3  0  0  0  0  0  0
  180.0890  180.1840  142.7490 C   0  0  0  0  0  3  0  0  0  0  0  0
  179.7240  181.0640  141.7290 C   0  0  0  0  0  3  0  0  0  0  0  0
  182.2560  178.6330  144.3000 C   0  0  0  0  0  2  0  0  0  0  0  0
  183.0160  176.9020  139.0850 C   0  0  1  0  0  3  0  0  0  0  0  0
  183.4630  178.0810  141.1610 N   0  0  0  0  0  0  0  0  0  0  0  0
  181.6600  176.9720  138.4000 C   0  0  2  0  0  3  0  0  0  0  0  0
  184.2120  178.5390  137.7200 O   0  0  0  0  0  0  0  0  0  0  0  0
  181.1810  177.1010  140.7530 C   0  0  1  0  0  3  0  0  0  0  0  0
  1 21  1  0  0  0  0
  1  6  1  0  0  0  0
  4 22  1  0  0  0  0
  5 24  1  0  0  0  0
  5 17  1  0  0  0  0
  6 23  1  0  0  0  0
  8  7  1  1  0  0  0
  8  2  1  0  0  0  0
  9 18  1  6  0  0  0
  9 14  1  0  0  0  0
 10  8  1  0  0  0  0
 10 28  1  0  0  0  0
 11 15  2  0  0  0  0
 12 28  1  0  0  0  0
 12 25  1  0  0  0  0
 13  9  1  0  0  0  0
 13 26  1  0  0  0  0
 14  8  1  0  0  0  0
 15 23  1  0  0  0  0
 16  1  2  0  0  0  0
 17  3  2  0  0  0  0
 17 25  1  0  0  0  0
 19 15  1  0  0  0  0
 20  4  2  0  0  0  0
 20 16  1  0  0  0  0
 22 21  2  0  0  0  0
 24 12  1  0  0  0  0
 25 19  1  0  0  0  0
 26 24  1  0  0  0  0
 26 10  1  0  0  0  0
 27  5  2  0  0  0  0
 28 16  1  0  0  0  0
M  END
>  <MODEL>
6

>  <REMARK>
 VINA RESULT:      -4.5      2.570      5.522
  Name = 
  0 active torsions:
  status: ('A' for Active; 'I' for Inactive)
                            x       y       z     vdW  Elec       q    Type
                         _______ _______ _______ _____ _____    ______ ____

>  <TORSDO>
F 0

$$$$
=
 OpenBabel11122411553D

 28 32  0  0  1  0  0  0  0  0999 V2000
  181.8580  177.4750  137.2230 C   0  0  0  0  0  0  0  0  0  0  0  0
  186.1040  175.5670  135.2790 F   0  0  0  0  0  0  0  0  0  0  0  0
  180.3020  172.9700  136.4500 O   0  0  0  0  0  0  0  0  0  0  0  0
  181.6410  176.4320  139.8150 C   0  0  0  0  0  3  0  0  0  0  0  0
  182.6580  172.6720  136.7780 C   0  0  0  0  0  0  0  0  0  0  0  0
  181.8780  177.9800  135.8110 C   0  0  0  0  0  2  0  0  0  0  0  0
  186.7900  177.0280  136.9980 C   0  0  0  0  0  1  0  0  0  0  0  0
  186.3020  175.6360  136.6500 C   0  0  1  0  0  0  0  0  0  0  0  0
  186.8080  173.2310  136.8920 C   0  0  1  0  0  3  0  0  0  0  0  0
  184.9950  175.3510  137.4250 C   0  0  2  0  0  3  0  0  0  0  0  0
  179.1070  175.9320  135.6560 O   0  0  0  0  0  0  0  0  0  0  0  0
  183.3060  174.7330  135.7630 C   0  0  1  0  0  3  0  0  0  0  0  0
  185.8040  173.0270  137.8560 O   0  0  0  0  0  0  0  0  0  0  0  0
  187.3800  174.6340  137.0320 C   0  0  0  0  0  2  0  0  0  0  0  0
  180.1710  176.2400  135.1440 C   0  0  0  0  0  0  0  0  0  0  0  0
  182.7200  176.4350  137.6300 C   0  0  0  0  0  0  0  0  0  0  0  0
  181.4870  173.3800  136.3370 C   0  0  0  0  0  0  0  0  0  0  0  0
  187.9130  172.2170  137.0960 C   0  0  0  0  0  1  0  0  0  0  0  0
  181.0730  175.1730  134.6180 C   0  0  0  0  0  2  0  0  0  0  0  0
  182.5850  175.9100  138.9280 C   0  0  0  0  0  3  0  0  0  0  0  0
  180.9210  177.9990  138.1230 C   0  0  0  0  0  3  0  0  0  0  0  0
  180.8150  177.4830  139.4160 C   0  0  0  0  0  3  0  0  0  0  0  0
  180.5670  177.6870  135.0760 C   0  0  0  0  0  2  0  0  0  0  0  0
  183.8750  173.4240  136.3640 C   0  0  1  0  0  3  0  0  0  0  0  0
  181.8500  174.5920  135.7040 N   0  0  0  0  0  0  0  0  0  0  0  0
  184.6900  173.8530  137.5730 C   0  0  2  0  0  3  0  0  0  0  0  0
  182.6540  171.5630  137.3750 O   0  0  0  0  0  0  0  0  0  0  0  0
  183.7740  175.8900  136.6790 C   0  0  1  0  0  3  0  0  0  0  0  0
  1 16  2  0  0  0  0
  1 21  1  0  0  0  0
  2  8  1  0  0  0  0
  5 27  2  0  0  0  0
  6  1  1  0  0  0  0
  8  7  1  1  0  0  0
  8 14  1  0  0  0  0
  8 10  1  0  0  0  0
  9 14  1  0  0  0  0
  9 18  1  1  0  0  0
  9 13  1  0  0  0  0
 10 26  1  0  0  0  0
 12 24  1  0  0  0  0
 12 28  1  0  0  0  0
 15 11  2  0  0  0  0
 16 20  1  0  0  0  0
 17  3  2  0  0  0  0
 17  5  1  0  0  0  0
 19 15  1  0  0  0  0
 19 25  1  0  0  0  0
 20  4  2  0  0  0  0
 21 22  2  0  0  0  0
 22  4  1  0  0  0  0
 23 15  1  0  0  0  0
 23  6  1  0  0  0  0
 24  5  1  0  0  0  0
 24 26  1  0  0  0  0
 25 12  1  0  0  0  0
 25 17  1  0  0  0  0
 26 13  1  0  0  0  0
 28 10  1  0  0  0  0
 28 16  1  0  0  0  0
M  END
>  <MODEL>
7

>  <REMARK>
 VINA RESULT:      -4.5      4.000      5.247
  Name = 
  0 active torsions:
  status: ('A' for Active; 'I' for Inactive)
                            x       y       z     vdW  Elec       q    Type
                         _______ _______ _______ _____ _____    ______ ____

>  <TORSDO>
F 0

$$$$
=
 OpenBabel11122411553D

 28 32  0  0  1  0  0  0  0  0999 V2000
  184.8050  174.9360  137.0600 C   0  0  0  0  0  0  0  0  0  0  0  0
  181.7880  176.6870  140.7050 F   0  0  0  0  0  0  0  0  0  0  0  0
  180.6540  174.9030  134.5960 O   0  0  0  0  0  0  0  0  0  0  0  0
  185.1400  177.0380  135.2380 C   0  0  0  0  0  3  0  0  0  0  0  0
  180.3100  176.6540  136.1970 C   0  0  0  0  0  0  0  0  0  0  0  0
  184.5770  173.7520  137.9530 C   0  0  0  0  0  2  0  0  0  0  0  0
  183.8110  177.8780  140.9240 C   0  0  0  0  0  1  0  0  0  0  0  0
  182.4770  177.7840  140.2110 C   0  0  1  0  0  0  0  0  0  0  0  0
  180.4350  179.0480  139.6330 C   0  0  1  0  0  3  0  0  0  0  0  0
  182.7260  177.6580  138.6900 C   0  0  2  0  0  3  0  0  0  0  0  0
  182.9910  172.6410  135.0990 O   0  0  0  0  0  0  0  0  0  0  0  0
  181.5700  175.6310  137.9480 C   0  0  1  0  0  3  0  0  0  0  0  0
  180.8140  179.2150  138.2890 O   0  0  0  0  0  0  0  0  0  0  0  0
  181.6710  179.0360  140.5190 C   0  0  0  0  0  2  0  0  0  0  0  0
  182.9120  172.8060  136.3050 C   0  0  0  0  0  0  0  0  0  0  0  0
  184.0010  176.0890  137.1720 C   0  0  0  0  0  0  0  0  0  0  0  0
  180.8400  175.3990  135.7380 C   0  0  0  0  0  0  0  0  0  0  0  0
  179.5330  180.1900  140.0460 C   0  0  0  0  0  1  0  0  0  0  0  0
  181.6380  173.3110  136.8980 C   0  0  0  0  0  2  0  0  0  0  0  0
  184.1690  177.1270  136.2380 C   0  0  0  0  0  3  0  0  0  0  0  0
  185.7850  174.8590  136.0610 C   0  0  0  0  0  3  0  0  0  0  0  0
  185.9550  175.9090  135.1560 C   0  0  0  0  0  3  0  0  0  0  0  0
  184.1060  172.5230  137.1700 C   0  0  0  0  0  2  0  0  0  0  0  0
  180.6500  176.8380  137.6350 C   0  0  1  0  0  3  0  0  0  0  0  0
  181.5640  174.7600  136.7710 N   0  0  0  0  0  0  0  0  0  0  0  0
  181.5160  178.0710  137.8390 C   0  0  2  0  0  3  0  0  0  0  0  0
  179.6230  177.4480  135.5030 O   0  0  0  0  0  0  0  0  0  0  0  0
  182.9680  176.2040  138.2820 C   0  0  1  0  0  3  0  0  0  0  0  0
  1 16  1  0  0  0  0
  1  6  1  0  0  0  0
  3 17  2  0  0  0  0
  4 20  1  0  0  0  0
  5 24  1  0  0  0  0
  8 14  1  0  0  0  0
  8  2  1  0  0  0  0
  8  7  1  1  0  0  0
  9 18  1  1  0  0  0
  9 14  1  0  0  0  0
 10  8  1  0  0  0  0
 11 15  2  0  0  0  0
 12 28  1  0  0  0  0
 13  9  1  0  0  0  0
 15 19  1  0  0  0  0
 15 23  1  0  0  0  0
 16 28  1  0  0  0  0
 17  5  1  0  0  0  0
 17 25  1  0  0  0  0
 20 16  2  0  0  0  0
 21  1  2  0  0  0  0
 22  4  2  0  0  0  0
 22 21  1  0  0  0  0
 23  6  1  0  0  0  0
 24 26  1  0  0  0  0
 24 12  1  0  0  0  0
 25 19  1  0  0  0  0
 25 12  1  0  0  0  0
 26 13  1  0  0  0  0
 26 10  1  0  0  0  0
 27  5  2  0  0  0  0
 28 10  1  0  0  0  0
M  END
>  <MODEL>
8

>  <REMARK>
 VINA RESULT:      -4.2      3.527      5.925
  Name = 
  0 active torsions:
  status: ('A' for Active; 'I' for Inactive)
                            x       y       z     vdW  Elec       q    Type
                         _______ _______ _______ _____ _____    ______ ____

>  <TORSDO>
F 0

$$$$
=
 OpenBabel11122411553D

 28 32  0  0  1  0  0  0  0  0999 V2000
  181.1310  176.5440  136.3480 C   0  0  0  0  0  0  0  0  0  0  0  0
  181.1450  181.5840  136.1340 F   0  0  0  0  0  0  0  0  0  0  0  0
  182.7880  177.4210  140.7970 O   0  0  0  0  0  0  0  0  0  0  0  0
  178.9650  175.8320  137.9770 C   0  0  0  0  0  3  0  0  0  0  0  0
  181.4860  179.3750  140.3180 C   0  0  0  0  0  0  0  0  0  0  0  0
  182.3580  176.8770  135.5530 C   0  0  0  0  0  2  0  0  0  0  0  0
  179.2110  180.9020  134.9710 C   0  0  0  0  0  1  0  0  0  0  0  0
  179.8240  181.2070  136.3230 C   0  0  1  0  0  0  0  0  0  0  0  0
  179.5380  182.5390  138.3830 C   0  0  1  0  0  3  0  0  0  0  0  0
  179.7170  179.9540  137.2210 C   0  0  2  0  0  3  0  0  0  0  0  0
  183.8350  175.4920  138.3440 O   0  0  0  0  0  0  0  0  0  0  0  0
  181.9840  179.4320  137.9840 C   0  0  1  0  0  3  0  0  0  0  0  0
  179.1240  181.4330  139.1450 O   0  0  0  0  0  0  0  0  0  0  0  0
  179.0750  182.3760  136.9430 C   0  0  0  0  0  2  0  0  0  0  0  0
  183.8120  176.4360  137.5720 C   0  0  0  0  0  0  0  0  0  0  0  0
  180.4550  177.5400  137.0840 C   0  0  0  0  0  0  0  0  0  0  0  0
  182.3470  178.2740  139.9830 C   0  0  0  0  0  0  0  0  0  0  0  0
  178.9370  183.8020  138.9630 C   0  0  0  0  0  1  0  0  0  0  0  0
  183.9580  177.8250  138.1000 C   0  0  0  0  0  2  0  0  0  0  0  0
  179.3830  177.1630  137.9100 C   0  0  0  0  0  3  0  0  0  0  0  0
  180.6990  175.2120  136.4120 C   0  0  0  0  0  3  0  0  0  0  0  0
  179.6170  174.8580  137.2190 C   0  0  0  0  0  3  0  0  0  0  0  0
  183.6080  176.1870  136.1060 C   0  0  0  0  0  2  0  0  0  0  0  0
  181.2790  180.2250  139.1130 C   0  0  1  0  0  3  0  0  0  0  0  0
  182.6810  178.3060  138.6090 N   0  0  0  0  0  0  0  0  0  0  0  0
  179.8110  180.2700  138.7210 C   0  0  2  0  0  3  0  0  0  0  0  0
  181.0220  179.6110  141.4640 O   0  0  0  0  0  0  0  0  0  0  0  0
  180.8850  178.9960  136.9860 C   0  0  1  0  0  3  0  0  0  0  0  0
  1 21  2  0  0  0  0
  1 16  1  0  0  0  0
  2  8  1  0  0  0  0
  5 27  2  0  0  0  0
  6 23  1  0  0  0  0
  6  1  1  0  0  0  0
  8  7  1  6  0  0  0
  8 14  1  0  0  0  0
  8 10  1  0  0  0  0
  9 18  1  1  0  0  0
  9 13  1  0  0  0  0
 10 26  1  0  0  0  0
 12 25  1  0  0  0  0
 12 24  1  0  0  0  0
 14  9  1  0  0  0  0
 15 19  1  0  0  0  0
 15 11  2  0  0  0  0
 16 20  2  0  0  0  0
 17  5  1  0  0  0  0
 17  3  2  0  0  0  0
 19 25  1  0  0  0  0
 20  4  1  0  0  0  0
 21 22  1  0  0  0  0
 22  4  2  0  0  0  0
 23 15  1  0  0  0  0
 24  5  1  0  0  0  0
 25 17  1  0  0  0  0
 26 24  1  0  0  0  0
 26 13  1  0  0  0  0
 28 16  1  0  0  0  0
 28 10  1  0  0  0  0
 28 12  1  0  0  0  0
M  END
>  <MODEL>
9

>  <REMARK>
 VINA RESULT:      -4.1      2.705      5.582
  Name = 
  0 active torsions:
  status: ('A' for Active; 'I' for Inactive)
                            x       y       z     vdW  Elec       q    Type
                         _______ _______ _______ _____ _____    ______ ____

>  <TORSDO>
F 0

$$$$
