=
 OpenBabel11122410433D

 32 37  0  0  1  0  0  0  0  0999 V2000
  188.9930  176.7760  146.7090 C   0  0  0  0  0  2  0  0  0  0  0  0
  189.1410  177.7800  141.3040 C   0  0  2  0  0  3  0  0  0  0  0  0
  193.1550  177.1950  138.9480 C   0  0  0  0  0  2  0  0  0  0  0  0
  192.6500  176.0270  138.0860 C   0  0  0  0  0  2  0  0  0  0  0  0
  187.1180  178.2830  139.8580 C   0  0  0  0  0  0  0  0  0  0  0  0
  186.3450  177.9770  138.6680 C   0  0  0  0  0  0  0  0  0  0  0  0
  188.9990  177.8580  143.8250 C   0  0  2  0  0  3  0  0  0  0  0  0
  191.0660  176.9100  142.7300 C   0  0  0  0  0  2  0  0  0  0  0  0
  185.9600  177.1860  136.6710 N   0  0  0  0  0  0  0  0  0  0  0  0
  191.0110  177.1520  145.1780 C   0  0  0  0  0  2  0  0  0  0  0  0
  192.3360  177.3630  140.2470 C   0  0  0  0  0  2  0  0  0  0  0  0
  190.2660  176.7340  141.4350 C   0  0  2  0  0  3  0  0  0  0  0  0
  191.1070  176.5550  140.2300 N   0  0  1  0  0  0  0  0  0  0  0  0
  188.9030  176.6490  139.0300 C   0  0  2  0  0  3  0  0  0  0  0  0
  184.8750  177.8560  137.0330 N   0  0  0  0  0  0  0  0  0  0  0  0
  188.6140  178.0240  146.2010 O   0  0  0  0  0  0  0  0  0  0  0  0
  190.1560  176.8420  143.9530 C   0  0  1  0  0  3  0  0  0  0  0  0
  185.0790  178.3670  138.2720 C   0  0  0  0  0  3  0  0  0  0  0  0
  188.0050  177.7320  144.9770 C   0  0  0  0  0  2  0  0  0  0  0  0
  190.4780  176.5030  146.4610 C   0  0  1  0  0  3  0  0  0  0  0  0
  191.1360  176.1070  137.8240 C   0  0  0  0  0  2  0  0  0  0  0  0
  190.4210  176.8420  138.9630 C   0  0  2  0  0  3  0  0  0  0  0  0
  188.2960  176.8340  137.6130 C   0  0  0  0  0  2  0  0  0  0  0  0
  188.2320  177.6240  142.5260 C   0  0  0  0  0  2  0  0  0  0  0  0
  186.7040  179.1450  140.6800 O   0  0  0  0  0  0  0  0  0  0  0  0
  186.1340  176.5600  135.3720 C   0  0  0  0  0  1  0  0  0  0  0  0
  188.3750  177.5910  140.0550 N   0  0  0  0  0  0  0  0  0  0  0  0
  186.8600  177.2330  137.6640 C   0  0  0  0  0  0  0  0  0  0  0  0
  191.2850  176.9810  147.6590 C   0  0  0  0  0  2  0  0  0  0  0  0
  192.4450  176.0800  147.9100 C   0  0  0  0  0  0  0  0  0  0  0  0
  193.2690  176.2960  149.0080 O   0  0  0  0  0  1  0  0  0  0  0  0
  192.6660  175.1080  147.1420 O   0  0  0  0  0  0  0  0  0  0  0  0
  2 12  1  0  0  0  0
  2 24  1  1  0  0  0
  3 11  1  0  0  0  0
  4  3  1  0  0  0  0
  5 27  1  0  0  0  0
  5 25  2  0  0  0  0
  6  5  1  0  0  0  0
  7 24  1  6  0  0  0
  7 17  1  0  0  0  0
  7 19  1  0  0  0  0
  9 15  1  0  0  0  0
  9 28  1  0  0  0  0
 10 20  1  0  0  0  0
 12  8  1  1  0  0  0
 13 11  1  1  0  0  0
 13 12  1  0  0  0  0
 14 23  1  6  0  0  0
 14 27  1  0  0  0  0
 15 18  2  0  0  0  0
 16  1  1  0  0  0  0
 17  8  1  6  0  0  0
 17 10  1  0  0  0  0
 18  6  1  0  0  0  0
 19 16  1  0  0  0  0
 20  1  1  0  0  0  0
 20 29  1  1  0  0  0
 21  4  1  0  0  0  0
 22 21  1  6  0  0  0
 22 14  1  0  0  0  0
 22 13  1  0  0  0  0
 23 28  1  0  0  0  0
 26  9  1  0  0  0  0
 27  2  1  0  0  0  0
 28  6  2  0  0  0  0
 29 30  1  0  0  0  0
 30 31  1  0  0  0  0
 32 30  2  0  0  0  0
M  END
>  <MODEL>
1

>  <REMARK>
 VINA RESULT:      -9.0      0.000      0.000
  Name = 
  2 active torsions:
  status: ('A' for Active; 'I' for Inactive)
    1  A    between atoms: C_20  and  C_29
    2  A    between atoms: C_29  and  C_30
                            x       y       z     vdW  Elec       q    Type
                         _______ _______ _______ _____ _____    ______ ____

>  <TORSDO>
F 2

$$$$
=
 OpenBabel11122410433D

 32 37  0  0  1  0  0  0  0  0999 V2000
  181.3540  178.3150  138.7750 C   0  0  0  0  0  2  0  0  0  0  0  0
  185.8190  178.6970  141.9620 C   0  0  2  0  0  3  0  0  0  0  0  0
  185.3200  179.3120  146.5860 C   0  0  0  0  0  2  0  0  0  0  0  0
  185.9180  177.9520  146.9810 C   0  0  0  0  0  2  0  0  0  0  0  0
  188.2010  178.2870  141.1920 C   0  0  0  0  0  0  0  0  0  0  0  0
  189.4620  177.5960  141.3940 C   0  0  0  0  0  0  0  0  0  0  0  0
  183.9400  179.0000  140.3020 C   0  0  2  0  0  3  0  0  0  0  0  0
  183.3950  178.7290  142.7510 C   0  0  0  0  0  2  0  0  0  0  0  0
  191.0000  176.5020  142.4890 N   0  0  0  0  0  0  0  0  0  0  0  0
  181.5760  179.2070  141.1650 C   0  0  0  0  0  2  0  0  0  0  0  0
  184.7930  179.3220  145.1340 C   0  0  0  0  0  2  0  0  0  0  0  0
  184.7930  178.1380  142.9680 C   0  0  2  0  0  3  0  0  0  0  0  0
  185.2290  178.1350  144.3830 N   0  0  1  0  0  0  0  0  0  0  0  0
  187.3930  177.3090  143.4130 C   0  0  2  0  0  3  0  0  0  0  0  0
  191.5050  176.7810  141.2960 N   0  0  0  0  0  0  0  0  0  0  0  0
  182.3330  179.2830  138.5240 O   0  0  0  0  0  0  0  0  0  0  0  0
  182.9070  178.4800  141.3270 C   0  0  1  0  0  3  0  0  0  0  0  0
  190.5750  177.4660  140.5850 C   0  0  0  0  0  3  0  0  0  0  0  0
  183.5370  178.6590  138.8690 C   0  0  0  0  0  2  0  0  0  0  0  0
  180.6620  178.5590  140.1180 C   0  0  1  0  0  3  0  0  0  0  0  0
  186.9680  177.4620  145.9690 C   0  0  0  0  0  2  0  0  0  0  0  0
  186.6820  178.0180  144.5690 C   0  0  2  0  0  3  0  0  0  0  0  0
  188.8900  177.1070  143.7730 C   0  0  0  0  0  2  0  0  0  0  0  0
  185.3050  178.3660  140.5590 C   0  0  0  0  0  2  0  0  0  0  0  0
  188.0390  179.0320  140.1880 O   0  0  0  0  0  0  0  0  0  0  0  0
  191.7380  175.8380  143.5500 C   0  0  0  0  0  1  0  0  0  0  0  0
  187.1570  178.1110  142.1810 N   0  0  0  0  0  0  0  0  0  0  0  0
  189.7470  176.9750  142.5610 C   0  0  0  0  0  0  0  0  0  0  0  0
  179.4280  179.4220  139.8990 C   0  0  0  0  0  2  0  0  0  0  0  0
  179.7000  180.8390  140.2730 C   0  0  0  0  0  0  0  0  0  0  0  0
  179.4270  181.2840  141.5600 O   0  0  0  0  0  1  0  0  0  0  0  0
  180.2000  181.6280  139.4290 O   0  0  0  0  0  0  0  0  0  0  0  0
  1 20  1  0  0  0  0
  2 24  1  6  0  0  0
  2 27  1  0  0  0  0
  2 12  1  0  0  0  0
  3  4  1  0  0  0  0
  5  6  1  0  0  0  0
  5 27  1  0  0  0  0
  6 28  2  0  0  0  0
  7 19  1  6  0  0  0
  7 24  1  0  0  0  0
  7 17  1  0  0  0  0
  9 28  1  0  0  0  0
  9 26  1  0  0  0  0
 11  3  1  0  0  0  0
 12  8  1  1  0  0  0
 12 13  1  0  0  0  0
 13 22  1  0  0  0  0
 13 11  1  6  0  0  0
 14 23  1  1  0  0  0
 14 22  1  0  0  0  0
 15  9  1  0  0  0  0
 16  1  1  0  0  0  0
 16 19  1  0  0  0  0
 17 10  1  6  0  0  0
 17  8  1  0  0  0  0
 18 15  2  0  0  0  0
 18  6  1  0  0  0  0
 20 29  1  6  0  0  0
 20 10  1  0  0  0  0
 21  4  1  0  0  0  0
 22 21  1  1  0  0  0
 25  5  2  0  0  0  0
 27 14  1  0  0  0  0
 28 23  1  0  0  0  0
 29 30  1  0  0  0  0
 30 31  1  0  0  0  0
 32 30  2  0  0  0  0
M  END
>  <MODEL>
2

>  <REMARK>
 VINA RESULT:      -8.9      3.877      9.079
  Name = 
  2 active torsions:
  status: ('A' for Active; 'I' for Inactive)
    1  A    between atoms: C_20  and  C_29
    2  A    between atoms: C_29  and  C_30
                            x       y       z     vdW  Elec       q    Type
                         _______ _______ _______ _____ _____    ______ ____

>  <TORSDO>
F 2

$$$$
=
 OpenBabel11122410433D

 32 37  0  0  1  0  0  0  0  0999 V2000
  188.5530  176.7520  147.9420 C   0  0  0  0  0  2  0  0  0  0  0  0
  186.0390  178.6810  143.4470 C   0  0  2  0  0  3  0  0  0  0  0  0
  188.4130  178.9770  139.4120 C   0  0  0  0  0  2  0  0  0  0  0  0
  187.5740  177.9240  138.6700 C   0  0  0  0  0  2  0  0  0  0  0  0
  183.5600  179.1880  143.2660 C   0  0  0  0  0  0  0  0  0  0  0  0
  182.3120  179.0030  142.5480 C   0  0  0  0  0  0  0  0  0  0  0  0
  187.1380  178.3070  145.6900 C   0  0  2  0  0  3  0  0  0  0  0  0
  188.4300  177.8060  143.5810 C   0  0  0  0  0  2  0  0  0  0  0  0
  181.0200  178.5280  140.8550 N   0  0  0  0  0  0  0  0  0  0  0  0
  189.5660  177.6160  145.7540 C   0  0  0  0  0  2  0  0  0  0  0  0
  188.3260  178.8230  140.9470 C   0  0  0  0  0  2  0  0  0  0  0  0
  187.1040  177.7650  142.8120 C   0  0  2  0  0  3  0  0  0  0  0  0
  187.2570  177.8930  141.3450 N   0  0  1  0  0  0  0  0  0  0  0  0
  184.7470  177.9380  141.3770 C   0  0  2  0  0  3  0  0  0  0  0  0
  180.2350  178.9960  141.8160 N   0  0  0  0  0  0  0  0  0  0  0  0
  187.9530  178.0170  147.9430 O   0  0  0  0  0  0  0  0  0  0  0  0
  188.2300  177.4250  145.0450 C   0  0  1  0  0  3  0  0  0  0  0  0
  181.0060  179.3070  142.8870 C   0  0  0  0  0  3  0  0  0  0  0  0
  186.8310  177.8710  147.1210 C   0  0  0  0  0  2  0  0  0  0  0  0
  189.7360  176.6990  146.9720 C   0  0  1  0  0  3  0  0  0  0  0  0
  186.1230  177.8730  139.1770 C   0  0  0  0  0  2  0  0  0  0  0  0
  186.0370  178.3130  140.6430 C   0  0  2  0  0  3  0  0  0  0  0  0
  183.5250  178.2920  140.4870 C   0  0  0  0  0  2  0  0  0  0  0  0
  185.8410  178.2130  144.8910 C   0  0  0  0  0  2  0  0  0  0  0  0
  183.5820  179.8420  144.3440 O   0  0  0  0  0  0  0  0  0  0  0  0
  180.5520  178.1600  139.5300 C   0  0  0  0  0  1  0  0  0  0  0  0
  184.7670  178.6220  142.6990 N   0  0  0  0  0  0  0  0  0  0  0  0
  182.2880  178.5070  141.2900 C   0  0  0  0  0  0  0  0  0  0  0  0
  191.0140  177.0540  147.7170 C   0  0  0  0  0  2  0  0  0  0  0  0
  192.0520  176.0030  147.5170 C   0  0  0  0  0  0  0  0  0  0  0  0
  192.2050  175.4040  146.2740 O   0  0  0  0  0  0  0  0  0  0  0  0
  192.8080  175.6760  148.4690 O   0  0  0  0  0  1  0  0  0  0  0  0
  1 16  1  0  0  0  0
  2 24  1  1  0  0  0
  3 11  1  0  0  0  0
  4 21  1  0  0  0  0
  4  3  1  0  0  0  0
  5 25  2  0  0  0  0
  6 18  1  0  0  0  0
  6  5  1  0  0  0  0
  7 24  1  6  0  0  0
  7 19  1  0  0  0  0
  9 28  1  0  0  0  0
  9 15  1  0  0  0  0
 10 20  1  0  0  0  0
 12  2  1  0  0  0  0
 12  8  1  1  0  0  0
 13 11  1  1  0  0  0
 13 12  1  0  0  0  0
 14 23  1  6  0  0  0
 14 27  1  0  0  0  0
 15 18  2  0  0  0  0
 17  8  1  6  0  0  0
 17  7  1  0  0  0  0
 17 10  1  0  0  0  0
 19 16  1  0  0  0  0
 20 29  1  1  0  0  0
 20  1  1  0  0  0  0
 22 21  1  6  0  0  0
 22 13  1  0  0  0  0
 22 14  1  0  0  0  0
 23 28  1  0  0  0  0
 26  9  1  0  0  0  0
 27  5  1  0  0  0  0
 27  2  1  0  0  0  0
 28  6  2  0  0  0  0
 30 29  1  0  0  0  0
 30 32  1  0  0  0  0
 31 30  2  0  0  0  0
M  END
>  <MODEL>
3

>  <REMARK>
 VINA RESULT:      -8.8      3.096      4.359
  Name = 
  2 active torsions:
  status: ('A' for Active; 'I' for Inactive)
    1  A    between atoms: C_20  and  C_29
    2  A    between atoms: C_29  and  C_30
                            x       y       z     vdW  Elec       q    Type
                         _______ _______ _______ _____ _____    ______ ____

>  <TORSDO>
F 2

$$$$
=
 OpenBabel11122410433D

 32 37  0  0  1  0  0  0  0  0999 V2000
  192.3230  175.6790  137.6490 C   0  0  0  0  0  2  0  0  0  0  0  0
  189.6840  177.8400  141.9630 C   0  0  2  0  0  3  0  0  0  0  0  0
  185.2800  179.3740  141.4540 C   0  0  0  0  0  2  0  0  0  0  0  0
  184.6510  178.3250  142.3850 C   0  0  0  0  0  2  0  0  0  0  0  0
  190.5450  177.8400  144.3490 C   0  0  0  0  0  0  0  0  0  0  0  0
  190.3040  177.5350  145.7480 C   0  0  0  0  0  0  0  0  0  0  0  0
  191.2060  177.2940  140.0230 C   0  0  2  0  0  3  0  0  0  0  0  0
  188.7200  177.4770  139.6310 C   0  0  0  0  0  2  0  0  0  0  0  0
  189.1300  177.1230  147.5410 N   0  0  0  0  0  0  0  0  0  0  0  0
  190.2120  177.1280  137.7070 C   0  0  0  0  0  2  0  0  0  0  0  0
  186.6500  178.9220  140.9010 C   0  0  0  0  0  2  0  0  0  0  0  0
  188.4980  177.3020  141.1370 C   0  0  2  0  0  3  0  0  0  0  0  0
  187.1580  177.7310  141.6000 N   0  0  1  0  0  0  0  0  0  0  0  0
  188.1040  177.2410  143.8740 C   0  0  2  0  0  3  0  0  0  0  0  0
  190.3950  177.2290  147.9260 N   0  0  0  0  0  0  0  0  0  0  0  0
  192.8610  176.7670  138.3470 O   0  0  0  0  0  0  0  0  0  0  0  0
  190.0100  176.7970  139.1820 C   0  0  1  0  0  3  0  0  0  0  0  0
  191.1560  177.4890  146.8360 C   0  0  0  0  0  3  0  0  0  0  0  0
  192.4910  176.5440  139.6770 C   0  0  0  0  0  2  0  0  0  0  0  0
  191.0130  176.0570  136.9550 C   0  0  1  0  0  3  0  0  0  0  0  0
  185.6170  177.8770  143.4950 C   0  0  0  0  0  2  0  0  0  0  0  0
  187.0750  178.0090  143.0400 C   0  0  2  0  0  3  0  0  0  0  0  0
  187.8370  177.4900  145.3830 C   0  0  0  0  0  2  0  0  0  0  0  0
  190.9330  177.0800  141.5090 C   0  0  0  0  0  2  0  0  0  0  0  0
  191.6700  178.2720  143.9780 O   0  0  0  0  0  0  0  0  0  0  0  0
  188.0170  176.9180  148.4500 C   0  0  0  0  0  1  0  0  0  0  0  0
  189.4570  177.6560  143.4110 N   0  0  0  0  0  0  0  0  0  0  0  0
  189.0580  177.2880  146.2120 C   0  0  0  0  0  0  0  0  0  0  0  0
  191.3090  176.5270  135.5390 C   0  0  0  0  0  2  0  0  0  0  0  0
  192.3350  175.6570  134.8960 C   0  0  0  0  0  0  0  0  0  0  0  0
  192.0400  174.3320  134.6060 O   0  0  0  0  0  1  0  0  0  0  0  0
  193.4610  176.1300  134.5940 O   0  0  0  0  0  0  0  0  0  0  0  0
  1 16  1  0  0  0  0
  2 24  1  6  0  0  0
  2 27  1  0  0  0  0
  3  4  1  0  0  0  0
  4 21  1  0  0  0  0
  5  6  1  0  0  0  0
  6 28  2  0  0  0  0
  6 18  1  0  0  0  0
  7 19  1  6  0  0  0
  7 24  1  0  0  0  0
  9 15  1  0  0  0  0
  9 26  1  0  0  0  0
 11  3  1  0  0  0  0
 12  8  1  6  0  0  0
 12 13  1  0  0  0  0
 12  2  1  0  0  0  0
 13 11  1  6  0  0  0
 13 22  1  0  0  0  0
 14 23  1  1  0  0  0
 16 19  1  0  0  0  0
 17 10  1  6  0  0  0
 17  8  1  0  0  0  0
 17  7  1  0  0  0  0
 18 15  2  0  0  0  0
 20 29  1  6  0  0  0
 20  1  1  0  0  0  0
 20 10  1  0  0  0  0
 22 21  1  1  0  0  0
 22 14  1  0  0  0  0
 23 28  1  0  0  0  0
 25  5  2  0  0  0  0
 27 14  1  0  0  0  0
 27  5  1  0  0  0  0
 28  9  1  0  0  0  0
 30 29  1  0  0  0  0
 31 30  1  0  0  0  0
 32 30  2  0  0  0  0
M  END
>  <MODEL>
4

>  <REMARK>
 VINA RESULT:      -8.1      3.713      8.506
  Name = 
  2 active torsions:
  status: ('A' for Active; 'I' for Inactive)
    1  A    between atoms: C_20  and  C_29
    2  A    between atoms: C_29  and  C_30
                            x       y       z     vdW  Elec       q    Type
                         _______ _______ _______ _____ _____    ______ ____

>  <TORSDO>
F 2

$$$$
=
 OpenBabel11122410433D

 32 37  0  0  1  0  0  0  0  0999 V2000
  189.2380  176.7500  145.7020 C   0  0  0  0  0  2  0  0  0  0  0  0
  186.6650  178.6280  141.2190 C   0  0  2  0  0  3  0  0  0  0  0  0
  189.0570  179.1340  137.2150 C   0  0  0  0  0  2  0  0  0  0  0  0
  188.2840  178.0510  136.4450 C   0  0  0  0  0  2  0  0  0  0  0  0
  184.1640  179.0030  141.0220 C   0  0  0  0  0  0  0  0  0  0  0  0
  182.9340  178.7640  140.2870 C   0  0  0  0  0  0  0  0  0  0  0  0
  187.7610  178.2700  143.4660 C   0  0  2  0  0  3  0  0  0  0  0  0
  189.0990  177.8820  141.3610 C   0  0  0  0  0  2  0  0  0  0  0  0
  181.6860  178.2540  138.5710 N   0  0  0  0  0  0  0  0  0  0  0  0
  190.2230  177.7110  143.5420 C   0  0  0  0  0  2  0  0  0  0  0  0
  188.9640  178.9450  138.7460 C   0  0  0  0  0  2  0  0  0  0  0  0
  187.7850  177.7840  140.5780 C   0  0  2  0  0  3  0  0  0  0  0  0
  187.9440  177.9500  139.1150 N   0  0  1  0  0  0  0  0  0  0  0  0
  185.4350  177.8570  139.1210 C   0  0  2  0  0  3  0  0  0  0  0  0
  180.8680  178.6590  139.5330 N   0  0  0  0  0  0  0  0  0  0  0  0
  188.5690  177.9790  145.7210 O   0  0  0  0  0  0  0  0  0  0  0  0
  188.9060  177.4610  142.8150 C   0  0  1  0  0  3  0  0  0  0  0  0
  181.6110  178.9900  140.6180 C   0  0  0  0  0  3  0  0  0  0  0  0
  187.4650  177.7890  144.8840 C   0  0  0  0  0  2  0  0  0  0  0  0
  190.4310  176.7800  144.7440 C   0  0  1  0  0  3  0  0  0  0  0  0
  186.8330  177.9110  136.9350 C   0  0  0  0  0  2  0  0  0  0  0  0
  186.7100  178.3170  138.4080 C   0  0  2  0  0  3  0  0  0  0  0  0
  184.2040  178.1620  138.2260 C   0  0  0  0  0  2  0  0  0  0  0  0
  186.4790  178.1210  142.6520 C   0  0  0  0  0  2  0  0  0  0  0  0
  184.1390  179.6350  142.1120 O   0  0  0  0  0  0  0  0  0  0  0  0
  181.2520  177.8870  137.2350 C   0  0  0  0  0  1  0  0  0  0  0  0
  185.4050  178.5150  140.4560 N   0  0  0  0  0  0  0  0  0  0  0  0
  182.9490  178.2930  139.0200 C   0  0  0  0  0  0  0  0  0  0  0  0
  191.6800  177.1890  145.5080 C   0  0  0  0  0  2  0  0  0  0  0  0
  192.0560  176.1470  146.5060 C   0  0  0  0  0  0  0  0  0  0  0  0
  192.4260  174.8780  146.0800 O   0  0  0  0  0  0  0  0  0  0  0  0
  192.0610  176.4230  147.7330 O   0  0  0  0  0  1  0  0  0  0  0  0
  1 16  1  0  0  0  0
  2 24  1  1  0  0  0
  3 11  1  0  0  0  0
  4 21  1  0  0  0  0
  4  3  1  0  0  0  0
  5 25  2  0  0  0  0
  6 18  1  0  0  0  0
  6  5  1  0  0  0  0
  7 24  1  6  0  0  0
  7 19  1  0  0  0  0
  9 28  1  0  0  0  0
  9 15  1  0  0  0  0
 10 20  1  0  0  0  0
 12  2  1  0  0  0  0
 12  8  1  1  0  0  0
 13 11  1  1  0  0  0
 13 12  1  0  0  0  0
 14 23  1  6  0  0  0
 14 27  1  0  0  0  0
 15 18  2  0  0  0  0
 17  8  1  6  0  0  0
 17  7  1  0  0  0  0
 17 10  1  0  0  0  0
 19 16  1  0  0  0  0
 20 29  1  1  0  0  0
 20  1  1  0  0  0  0
 22 21  1  6  0  0  0
 22 13  1  0  0  0  0
 22 14  1  0  0  0  0
 23 28  1  0  0  0  0
 26  9  1  0  0  0  0
 27  5  1  0  0  0  0
 27  2  1  0  0  0  0
 28  6  2  0  0  0  0
 29 30  1  0  0  0  0
 30 32  1  0  0  0  0
 31 30  2  0  0  0  0
M  END
>  <MODEL>
5

>  <REMARK>
 VINA RESULT:      -8.0      2.222      3.374
  Name = 
  2 active torsions:
  status: ('A' for Active; 'I' for Inactive)
    1  A    between atoms: C_20  and  C_29
    2  A    between atoms: C_29  and  C_30
                            x       y       z     vdW  Elec       q    Type
                         _______ _______ _______ _____ _____    ______ ____

>  <TORSDO>
F 2

$$$$
=
 OpenBabel11122410433D

 32 37  0  0  1  0  0  0  0  0999 V2000
  180.3780  180.0870  141.8510 C   0  0  0  0  0  2  0  0  0  0  0  0
  185.4680  178.0190  141.5990 C   0  0  2  0  0  3  0  0  0  0  0  0
  187.5060  177.3830  137.4220 C   0  0  0  0  0  2  0  0  0  0  0  0
  188.6120  178.4300  137.6370 C   0  0  0  0  0  2  0  0  0  0  0  0
  186.9800  177.6160  143.5960 C   0  0  0  0  0  0  0  0  0  0  0  0
  188.2730  177.8160  144.2250 C   0  0  0  0  0  0  0  0  0  0  0  0
  183.0010  178.4710  141.8960 C   0  0  2  0  0  3  0  0  0  0  0  0
  184.0530  178.7910  139.6240 C   0  0  0  0  0  2  0  0  0  0  0  0
  190.4080  178.2500  144.3330 N   0  0  0  0  0  0  0  0  0  0  0  0
  181.6190  179.0540  139.8640 C   0  0  0  0  0  2  0  0  0  0  0  0
  186.2800  177.6290  138.3300 C   0  0  0  0  0  2  0  0  0  0  0  0
  185.4280  178.8480  140.3000 C   0  0  2  0  0  3  0  0  0  0  0  0
  186.5610  178.6280  139.3730 N   0  0  1  0  0  0  0  0  0  0  0  0
  187.9240  178.7000  141.4810 C   0  0  2  0  0  3  0  0  0  0  0  0
  190.0320  177.8740  145.5480 N   0  0  0  0  0  0  0  0  0  0  0  0
  180.6810  178.8530  142.4400 O   0  0  0  0  0  0  0  0  0  0  0  0
  182.9540  179.2640  140.5710 C   0  0  1  0  0  3  0  0  0  0  0  0
  188.7070  177.5910  145.5190 C   0  0  0  0  0  3  0  0  0  0  0  0
  181.9900  179.0030  142.9090 C   0  0  0  0  0  2  0  0  0  0  0  0
  180.5320  180.0300  140.3300 C   0  0  1  0  0  3  0  0  0  0  0  0
  188.9950  178.5750  139.1200 C   0  0  0  0  0  2  0  0  0  0  0  0
  187.8120  178.2240  140.0290 C   0  0  2  0  0  3  0  0  0  0  0  0
  189.3330  178.3510  142.0320 C   0  0  0  0  0  2  0  0  0  0  0  0
  184.3860  178.5780  142.5270 C   0  0  0  0  0  2  0  0  0  0  0  0
  186.0560  177.0250  144.2170 O   0  0  0  0  0  0  0  0  0  0  0  0
  191.7780  178.5630  143.9670 C   0  0  0  0  0  1  0  0  0  0  0  0
  186.7970  178.0930  142.2400 N   0  0  0  0  0  0  0  0  0  0  0  0
  189.3440  178.2390  143.5180 C   0  0  0  0  0  0  0  0  0  0  0  0
  179.1970  179.6610  139.7030 C   0  0  0  0  0  2  0  0  0  0  0  0
  179.2140  179.9130  138.2330 C   0  0  0  0  0  0  0  0  0  0  0  0
  179.5400  181.1720  137.7470 O   0  0  0  0  0  1  0  0  0  0  0  0
  178.9590  178.9770  137.4310 O   0  0  0  0  0  0  0  0  0  0  0  0
  1 16  1  0  0  0  0
  2 27  1  0  0  0  0
  2 24  1  1  0  0  0
  3  4  1  0  0  0  0
  3 11  1  0  0  0  0
  4 21  1  0  0  0  0
  5 25  2  0  0  0  0
  5  6  1  0  0  0  0
  6 18  1  0  0  0  0
  7 24  1  1  0  0  0
  7 19  1  0  0  0  0
  9 15  1  0  0  0  0
 10 20  1  0  0  0  0
 10 17  1  0  0  0  0
 12  8  1  6  0  0  0
 12  2  1  0  0  0  0
 13 11  1  6  0  0  0
 13 22  1  0  0  0  0
 13 12  1  0  0  0  0
 14 23  1  1  0  0  0
 14 27  1  0  0  0  0
 16 19  1  0  0  0  0
 17  8  1  6  0  0  0
 17  7  1  0  0  0  0
 18 15  2  0  0  0  0
 20 29  1  6  0  0  0
 20  1  1  0  0  0  0
 22 21  1  6  0  0  0
 22 14  1  0  0  0  0
 23 28  1  0  0  0  0
 26  9  1  0  0  0  0
 27  5  1  0  0  0  0
 28  6  2  0  0  0  0
 28  9  1  0  0  0  0
 30 29  1  0  0  0  0
 31 30  1  0  0  0  0
 32 30  2  0  0  0  0
M  END
>  <MODEL>
6

>  <REMARK>
 VINA RESULT:      -7.9      3.995      8.862
  Name = 
  2 active torsions:
  status: ('A' for Active; 'I' for Inactive)
    1  A    between atoms: C_20  and  C_29
    2  A    between atoms: C_29  and  C_30
                            x       y       z     vdW  Elec       q    Type
                         _______ _______ _______ _____ _____    ______ ____

>  <TORSDO>
F 2

$$$$
=
 OpenBabel11122410433D

 32 37  0  0  1  0  0  0  0  0999 V2000
  187.5970  177.1100  145.5940 C   0  0  0  0  0  2  0  0  0  0  0  0
  186.0480  178.5810  140.5260 C   0  0  2  0  0  3  0  0  0  0  0  0
  189.2800  179.0390  137.1570 C   0  0  0  0  0  2  0  0  0  0  0  0
  188.7670  177.8700  136.3010 C   0  0  0  0  0  2  0  0  0  0  0  0
  183.6470  178.7790  139.7340 C   0  0  0  0  0  0  0  0  0  0  0  0
  182.6370  178.4220  138.7530 C   0  0  0  0  0  0  0  0  0  0  0  0
  186.6060  178.4120  142.9840 C   0  0  2  0  0  3  0  0  0  0  0  0
  188.4170  178.0070  141.2730 C   0  0  0  0  0  2  0  0  0  0  0  0
  181.8540  177.7430  136.8330 N   0  0  0  0  0  0  0  0  0  0  0  0
  189.0080  178.0220  143.6610 C   0  0  0  0  0  2  0  0  0  0  0  0
  188.8420  178.9230  138.6340 C   0  0  0  0  0  2  0  0  0  0  0  0
  187.3300  177.7820  140.2170 C   0  0  2  0  0  3  0  0  0  0  0  0
  187.8180  177.8830  138.8220 N   0  0  1  0  0  0  0  0  0  0  0  0
  185.3850  177.6240  138.2560 C   0  0  2  0  0  3  0  0  0  0  0  0
  180.8130  178.1420  137.5520 N   0  0  0  0  0  0  0  0  0  0  0  0
  186.8790  178.2920  145.3780 O   0  0  0  0  0  0  0  0  0  0  0  0
  187.9120  177.6490  142.6680 C   0  0  1  0  0  3  0  0  0  0  0  0
  181.2630  178.5760  138.7550 C   0  0  0  0  0  3  0  0  0  0  0  0
  186.0120  177.9850  144.3240 C   0  0  0  0  0  2  0  0  0  0  0  0
  188.9770  177.1700  144.9360 C   0  0  1  0  0  3  0  0  0  0  0  0
  187.2510  177.6590  136.4520 C   0  0  0  0  0  2  0  0  0  0  0  0
  186.7660  178.1300  137.8280 C   0  0  2  0  0  3  0  0  0  0  0  0
  184.3830  177.8000  137.0840 C   0  0  0  0  0  2  0  0  0  0  0  0
  185.5600  178.1370  141.9070 C   0  0  0  0  0  2  0  0  0  0  0  0
  183.3350  179.4630  140.7460 O   0  0  0  0  0  0  0  0  0  0  0  0
  181.7640  177.2800  135.4600 C   0  0  0  0  0  1  0  0  0  0  0  0
  185.0100  178.3460  139.5030 N   0  0  0  0  0  0  0  0  0  0  0  0
  182.9730  177.8890  137.5570 C   0  0  0  0  0  0  0  0  0  0  0  0
  189.9900  177.7000  145.9400 C   0  0  0  0  0  2  0  0  0  0  0  0
  191.2260  176.8660  145.9350 C   0  0  0  0  0  0  0  0  0  0  0  0
  191.5990  176.1820  144.7850 O   0  0  0  0  0  0  0  0  0  0  0  0
  191.9460  176.8010  146.9650 O   0  0  0  0  0  1  0  0  0  0  0  0
  2 24  1  1  0  0  0
  3 11  1  0  0  0  0
  4 21  1  0  0  0  0
  4  3  1  0  0  0  0
  5 25  2  0  0  0  0
  6 18  1  0  0  0  0
  6  5  1  0  0  0  0
  7 24  1  6  0  0  0
  7 19  1  0  0  0  0
  9 15  1  0  0  0  0
  9 28  1  0  0  0  0
 10 20  1  0  0  0  0
 12  2  1  0  0  0  0
 12  8  1  1  0  0  0
 13 11  1  1  0  0  0
 13 12  1  0  0  0  0
 14 23  1  6  0  0  0
 14 27  1  0  0  0  0
 15 18  2  0  0  0  0
 16  1  1  0  0  0  0
 17  8  1  6  0  0  0
 17  7  1  0  0  0  0
 17 10  1  0  0  0  0
 19 16  1  0  0  0  0
 20  1  1  0  0  0  0
 20 29  1  1  0  0  0
 22 21  1  6  0  0  0
 22 14  1  0  0  0  0
 22 13  1  0  0  0  0
 23 28  1  0  0  0  0
 26  9  1  0  0  0  0
 27  5  1  0  0  0  0
 27  2  1  0  0  0  0
 28  6  2  0  0  0  0
 30 29  1  0  0  0  0
 30 32  1  0  0  0  0
 31 30  2  0  0  0  0
M  END
>  <MODEL>
7

>  <REMARK>
 VINA RESULT:      -7.8      2.353      3.483
  Name = 
  2 active torsions:
  status: ('A' for Active; 'I' for Inactive)
    1  A    between atoms: C_20  and  C_29
    2  A    between atoms: C_29  and  C_30
                            x       y       z     vdW  Elec       q    Type
                         _______ _______ _______ _____ _____    ______ ____

>  <TORSDO>
F 2

$$$$
=
 OpenBabel11122410433D

 32 37  0  0  1  0  0  0  0  0999 V2000
  188.1080  178.1410  144.2130 C   0  0  0  0  0  2  0  0  0  0  0  0
  183.1580  178.1800  141.8180 C   0  0  2  0  0  3  0  0  0  0  0  0
  179.3170  178.7630  144.4470 C   0  0  0  0  0  2  0  0  0  0  0  0
  178.9310  180.1230  143.8430 C   0  0  0  0  0  2  0  0  0  0  0  0
  182.7480  178.1870  139.3140 C   0  0  0  0  0  0  0  0  0  0  0  0
  182.0910  178.7980  138.1730 C   0  0  0  0  0  0  0  0  0  0  0  0
  185.4330  177.6370  142.7700 C   0  0  2  0  0  3  0  0  0  0  0  0
  183.6390  178.5460  144.2940 C   0  0  0  0  0  2  0  0  0  0  0  0
  180.6040  179.9940  137.1140 N   0  0  0  0  0  0  0  0  0  0  0  0
  185.7900  177.8470  145.2610 C   0  0  0  0  0  2  0  0  0  0  0  0
  180.8150  178.4400  144.2560 C   0  0  0  0  0  2  0  0  0  0  0  0
  182.8860  179.0520  143.0590 C   0  0  2  0  0  3  0  0  0  0  0  0
  181.4610  179.3660  143.3130 N   0  0  1  0  0  0  0  0  0  0  0  0
  181.4010  179.7440  140.8310 C   0  0  2  0  0  3  0  0  0  0  0  0
  181.3380  179.3890  136.1900 N   0  0  0  0  0  0  0  0  0  0  0  0
  187.6830  177.0630  143.4280 O   0  0  0  0  0  0  0  0  0  0  0  0
  185.1410  178.4770  144.0330 C   0  0  1  0  0  3  0  0  0  0  0  0
  182.2740  178.6310  136.8130 C   0  0  0  0  0  3  0  0  0  0  0  0
  186.9180  177.6490  142.4140 C   0  0  0  0  0  2  0  0  0  0  0  0
  187.2440  178.2930  145.4660 C   0  0  1  0  0  3  0  0  0  0  0  0
  179.3820  180.2600  142.3790 C   0  0  0  0  0  2  0  0  0  0  0  0
  180.6240  179.4030  142.1060 C   0  0  2  0  0  3  0  0  0  0  0  0
  180.4080  179.9010  139.6480 C   0  0  0  0  0  2  0  0  0  0  0  0
  184.6690  178.1980  141.5740 C   0  0  0  0  0  2  0  0  0  0  0  0
  183.5570  177.2340  139.1460 O   0  0  0  0  0  0  0  0  0  0  0  0
  179.4560  180.8330  136.8200 C   0  0  0  0  0  1  0  0  0  0  0  0
  182.4310  178.6870  140.6360 N   0  0  0  0  0  0  0  0  0  0  0  0
  181.0610  179.6600  138.3300 C   0  0  0  0  0  0  0  0  0  0  0  0
  187.8720  177.5100  146.6080 C   0  0  0  0  0  2  0  0  0  0  0  0
  187.8070  178.2840  147.8800 C   0  0  0  0  0  0  0  0  0  0  0  0
  188.8310  178.1760  148.8130 O   0  0  0  0  0  1  0  0  0  0  0  0
  186.8380  179.0560  148.0990 O   0  0  0  0  0  0  0  0  0  0  0  0
  1 20  1  0  0  0  0
  2 24  1  6  0  0  0
  2 12  1  0  0  0  0
  4  3  1  0  0  0  0
  5 27  1  0  0  0  0
  6 28  2  0  0  0  0
  6  5  1  0  0  0  0
  7 24  1  6  0  0  0
  7 17  1  0  0  0  0
  9 28  1  0  0  0  0
 10 20  1  0  0  0  0
 11  3  1  0  0  0  0
 12 13  1  0  0  0  0
 12  8  1  1  0  0  0
 13 11  1  1  0  0  0
 14 23  1  6  0  0  0
 14 22  1  0  0  0  0
 15 18  2  0  0  0  0
 15  9  1  0  0  0  0
 16  1  1  0  0  0  0
 17  8  1  1  0  0  0
 17 10  1  0  0  0  0
 18  6  1  0  0  0  0
 19  7  1  0  0  0  0
 19 16  1  0  0  0  0
 20 29  1  1  0  0  0
 21  4  1  0  0  0  0
 22 21  1  1  0  0  0
 22 13  1  0  0  0  0
 25  5  2  0  0  0  0
 26  9  1  0  0  0  0
 27 14  1  0  0  0  0
 27  2  1  0  0  0  0
 28 23  1  0  0  0  0
 29 30  1  0  0  0  0
 30 32  2  0  0  0  0
 30 31  1  0  0  0  0
M  END
>  <MODEL>
8

>  <REMARK>
 VINA RESULT:      -7.4      4.590      7.523
  Name = 
  2 active torsions:
  status: ('A' for Active; 'I' for Inactive)
    1  A    between atoms: C_20  and  C_29
    2  A    between atoms: C_29  and  C_30
                            x       y       z     vdW  Elec       q    Type
                         _______ _______ _______ _____ _____    ______ ____

>  <TORSDO>
F 2

$$$$
=
 OpenBabel11122410433D

 32 37  0  0  1  0  0  0  0  0999 V2000
  182.4640  179.7910  140.4900 C   0  0  0  0  0  2  0  0  0  0  0  0
  186.8120  177.6230  143.0670 C   0  0  2  0  0  3  0  0  0  0  0  0
  190.7290  176.7260  140.6470 C   0  0  0  0  0  2  0  0  0  0  0  0
  191.5950  177.7630  141.3810 C   0  0  0  0  0  2  0  0  0  0  0  0
  187.0100  177.3020  145.5750 C   0  0  0  0  0  0  0  0  0  0  0  0
  187.7780  177.5130  146.7900 C   0  0  0  0  0  0  0  0  0  0  0  0
  184.5870  178.1340  141.9850 C   0  0  2  0  0  3  0  0  0  0  0  0
  186.7000  178.3110  140.6150 C   0  0  0  0  0  2  0  0  0  0  0  0
  189.5450  177.9150  148.0040 N   0  0  0  0  0  0  0  0  0  0  0  0
  184.5250  178.6300  139.5100 C   0  0  0  0  0  2  0  0  0  0  0  0
  189.2200  177.0420  140.7510 C   0  0  0  0  0  2  0  0  0  0  0  0
  187.5050  178.3810  141.9170 C   0  0  2  0  0  3  0  0  0  0  0  0
  188.9470  178.0910  141.7470 N   0  0  1  0  0  0  0  0  0  0  0  0
  188.9810  178.2530  144.2520 C   0  0  2  0  0  3  0  0  0  0  0  0
  188.5650  177.6120  148.8440 N   0  0  0  0  0  0  0  0  0  0  0  0
  182.3530  178.5860  141.1940 O   0  0  0  0  0  0  0  0  0  0  0  0
  185.2870  178.8550  140.8110 C   0  0  1  0  0  3  0  0  0  0  0  0
  187.4470  177.3510  148.1230 C   0  0  0  0  0  3  0  0  0  0  0  0
  183.2170  178.7380  142.2830 C   0  0  0  0  0  2  0  0  0  0  0  0
  183.4010  179.6500  139.2890 C   0  0  1  0  0  3  0  0  0  0  0  0
  191.1370  177.9820  142.8330 C   0  0  0  0  0  2  0  0  0  0  0  0
  189.6380  177.7020  142.9830 C   0  0  2  0  0  3  0  0  0  0  0  0
  189.8640  177.9100  145.4820 C   0  0  0  0  0  2  0  0  0  0  0  0
  185.4280  178.2510  143.2540 C   0  0  0  0  0  2  0  0  0  0  0  0
  185.8720  176.7620  145.6290 O   0  0  0  0  0  0  0  0  0  0  0  0
  190.9130  178.1830  148.4140 C   0  0  0  0  0  1  0  0  0  0  0  0
  187.5970  177.7080  144.3150 N   0  0  0  0  0  0  0  0  0  0  0  0
  189.0790  177.8780  146.7480 C   0  0  0  0  0  0  0  0  0  0  0  0
  182.5890  179.2710  138.0590 C   0  0  0  0  0  2  0  0  0  0  0  0
  181.3950  180.1530  137.9200 C   0  0  0  0  0  0  0  0  0  0  0  0
  181.5550  181.5290  137.8250 O   0  0  0  0  0  0  0  0  0  0  0  0
  180.2440  179.6500  137.8640 O   0  0  0  0  0  1  0  0  0  0  0  0
  1 16  1  0  0  0  0
  2 24  1  1  0  0  0
  2 27  1  0  0  0  0
  3 11  1  0  0  0  0
  3  4  1  0  0  0  0
  4 21  1  0  0  0  0
  5 25  2  0  0  0  0
  5  6  1  0  0  0  0
  6 18  1  0  0  0  0
  7 19  1  1  0  0  0
  7 24  1  0  0  0  0
  8 17  1  0  0  0  0
  9 26  1  0  0  0  0
  9 15  1  0  0  0  0
 12  8  1  6  0  0  0
 12  2  1  0  0  0  0
 13 11  1  6  0  0  0
 13 12  1  0  0  0  0
 13 22  1  0  0  0  0
 14 27  1  0  0  0  0
 14 23  1  1  0  0  0
 16 19  1  0  0  0  0
 17 10  1  6  0  0  0
 17  7  1  0  0  0  0
 18 15  2  0  0  0  0
 20 29  1  6  0  0  0
 20 10  1  0  0  0  0
 20  1  1  0  0  0  0
 22 21  1  6  0  0  0
 22 14  1  0  0  0  0
 23 28  1  0  0  0  0
 27  5  1  0  0  0  0
 28  6  2  0  0  0  0
 28  9  1  0  0  0  0
 30 29  1  0  0  0  0
 31 30  2  0  0  0  0
 32 30  1  0  0  0  0
M  END
>  <MODEL>
9

>  <REMARK>
 VINA RESULT:      -7.4      3.522      8.783
  Name = 
  2 active torsions:
  status: ('A' for Active; 'I' for Inactive)
    1  A    between atoms: C_20  and  C_29
    2  A    between atoms: C_29  and  C_30
                            x       y       z     vdW  Elec       q    Type
                         _______ _______ _______ _____ _____    ______ ____

>  <TORSDO>
F 2

$$$$
