=
 OpenBabel11122412233D

 34 40  0  0  1  0  0  0  0  0999 V2000
  186.2900  178.2730  146.0750 C   0  0  0  0  0  0  0  0  0  0  0  0
  183.9880  178.7970  145.0370 C   0  0  0  0  0  2  0  0  0  0  0  0
  192.0600  175.3180  145.5950 C   0  0  0  0  0  0  0  0  0  0  0  0
  188.5380  177.7000  146.8500 C   0  0  0  0  0  0  0  0  0  0  0  0
  190.1770  176.9260  145.2170 C   0  0  0  0  0  0  0  0  0  0  0  0
  191.7250  176.3060  143.2900 C   0  0  0  0  0  1  0  0  0  0  0  0
  192.1480  173.9500  144.9970 C   0  0  0  0  0  1  0  0  0  0  0  0
  192.2560  176.7600  147.4760 C   0  0  0  0  0  2  0  0  0  0  0  0
  185.7450  178.0460  143.6590 C   0  0  0  0  0  0  0  0  0  0  0  0
  185.9920  179.0610  140.7840 C   0  0  0  0  0  3  0  0  0  0  0  0
  189.2280  177.0590  144.2470 N   0  0  0  0  0  0  0  0  0  0  0  0
  190.7890  177.0650  147.7580 C   0  0  0  0  0  2  0  0  0  0  0  0
  186.9780  177.5950  143.3880 C   0  0  0  0  0  0  0  0  0  0  0  0
  183.5200  178.8370  143.5770 C   0  0  0  0  0  2  0  0  0  0  0  0
  189.8500  177.2500  146.5710 C   0  0  0  0  0  0  0  0  0  0  0  0
  192.3790  175.4760  146.8300 N   0  0  0  0  0  0  0  0  0  0  0  0
  184.8050  178.8720  141.3830 C   0  0  0  0  0  0  0  0  0  0  0  0
  187.5970  177.8200  145.8090 C   0  0  0  0  0  0  0  0  0  0  0  0
  191.5650  176.4990  144.7970 C   0  0  2  0  0  3  0  0  0  0  0  0
  187.9640  177.4840  144.4960 C   0  0  0  0  0  0  0  0  0  0  0  0
  186.8430  178.4820  148.4200 C   0  0  0  0  0  3  0  0  0  0  0  0
  187.3630  178.7040  141.2760 C   0  0  0  0  0  2  0  0  0  0  0  0
  188.1410  178.0360  148.1580 C   0  0  0  0  0  3  0  0  0  0  0  0
  187.3900  177.3620  141.9780 C   0  0  0  0  0  2  0  0  0  0  0  0
  184.5950  178.1480  142.7140 C   0  0  1  0  0  3  0  0  0  0  0  0
  185.9170  178.6010  147.3810 C   0  0  0  0  0  3  0  0  0  0  0  0
  185.3730  178.3850  144.9800 N   0  0  0  0  0  0  0  0  0  0  0  0
  183.6960  179.2890  140.6390 O   0  0  0  0  0  0  0  0  0  0  0  0
  182.9480  178.4140  139.8790 N   0  0  0  0  0  0  0  0  0  0  0  0
  179.5190  177.3810  139.9060 N   0  0  0  0  0  2  0  0  0  0  0  0
  180.9140  178.9720  141.1150 C   0  0  0  0  0  2  0  0  0  0  0  0
  181.6800  178.2610  140.0840 C   0  0  0  0  0  0  0  0  0  0  0  0
  179.4940  178.5100  140.8430 C   0  0  0  0  0  2  0  0  0  0  0  0
  180.8470  177.3390  139.3010 C   0  0  0  0  0  2  0  0  0  0  0  0
  1 26  1  0  0  0  0
  3 16  2  0  0  0  0
  4 23  2  0  0  0  0
  5 15  2  0  0  0  0
  7  3  1  0  0  0  0
  8 12  1  0  0  0  0
  9 27  1  0  0  0  0
 10 22  1  0  0  0  0
 10 17  2  0  0  0  0
 11 20  2  0  0  0  0
 11  5  1  0  0  0  0
 13  9  2  0  0  0  0
 13 20  1  0  0  0  0
 14  2  1  0  0  0  0
 15  4  1  0  0  0  0
 15 12  1  0  0  0  0
 16  8  1  0  0  0  0
 17 25  1  0  0  0  0
 18  1  2  0  0  0  0
 18  4  1  0  0  0  0
 19  6  1  6  0  0  0
 19  5  1  0  0  0  0
 19  3  1  0  0  0  0
 20 18  1  0  0  0  0
 22 24  1  0  0  0  0
 23 21  1  0  0  0  0
 24 13  1  0  0  0  0
 25 14  1  1  0  0  0
 25  9  1  0  0  0  0
 26 21  2  0  0  0  0
 27  2  1  0  0  0  0
 27  1  1  0  0  0  0
 28 17  1  0  0  0  0
 29 32  2  0  0  0  0
 29 28  1  0  0  0  0
 30 33  1  0  0  0  0
 32 31  1  0  0  0  0
 33 31  1  0  0  0  0
 34 30  1  0  0  0  0
 34 32  1  0  0  0  0
M  END
>  <MODEL>
1

>  <REMARK>
 VINA RESULT:     -10.1      0.000      0.000
  Name = 
  2 active torsions:
  status: ('A' for Active; 'I' for Inactive)
    1  A    between atoms: C_17  and  O_28
    2  A    between atoms: O_28  and  N_29
                            x       y       z     vdW  Elec       q    Type
                         _______ _______ _______ _____ _____    ______ ____

>  <TORSDO>
F 2

$$$$
=
 OpenBabel11122412233D

 34 40  0  0  1  0  0  0  0  0999 V2000
  183.9830  178.6420  144.3020 C   0  0  0  0  0  0  0  0  0  0  0  0
  181.6030  178.9130  143.3460 C   0  0  0  0  0  2  0  0  0  0  0  0
  190.0870  176.5540  143.5080 C   0  0  0  0  0  0  0  0  0  0  0  0
  186.3090  178.3350  144.9940 C   0  0  0  0  0  0  0  0  0  0  0  0
  187.9920  177.9070  143.2800 C   0  0  0  0  0  0  0  0  0  0  0  0
  189.5560  177.6410  141.2860 C   0  0  0  0  0  1  0  0  0  0  0  0
  190.3450  175.2550  142.8130 C   0  0  0  0  0  1  0  0  0  0  0  0
  190.1370  177.8770  145.4830 C   0  0  0  0  0  2  0  0  0  0  0  0
  183.4080  178.5080  141.8870 C   0  0  0  0  0  0  0  0  0  0  0  0
  183.4340  179.7420  139.0870 C   0  0  0  0  0  3  0  0  0  0  0  0
  187.0080  177.9740  142.3390 N   0  0  0  0  0  0  0  0  0  0  0  0
  188.6500  177.9560  145.8130 C   0  0  0  0  0  2  0  0  0  0  0  0
  184.6820  178.2510  141.5620 C   0  0  0  0  0  0  0  0  0  0  0  0
  181.0940  178.9880  141.9010 C   0  0  0  0  0  2  0  0  0  0  0  0
  187.6620  178.0900  144.6590 C   0  0  0  0  0  0  0  0  0  0  0  0
  190.4160  176.6690  144.7450 N   0  0  0  0  0  0  0  0  0  0  0  0
  182.3000  179.3490  139.6920 C   0  0  0  0  0  0  0  0  0  0  0  0
  185.3310  178.3940  143.9810 C   0  0  0  0  0  0  0  0  0  0  0  0
  189.4140  177.7070  142.8050 C   0  0  2  0  0  3  0  0  0  0  0  0
  185.7050  178.2020  142.6410 C   0  0  0  0  0  0  0  0  0  0  0  0
  184.5670  178.7650  146.6460 C   0  0  0  0  0  3  0  0  0  0  0  0
  184.8540  179.5450  139.5280 C   0  0  0  0  0  2  0  0  0  0  0  0
  185.9060  178.5220  146.3280 C   0  0  0  0  0  3  0  0  0  0  0  0
  185.0830  178.1740  140.1310 C   0  0  0  0  0  2  0  0  0  0  0  0
  182.2290  178.5150  140.9720 C   0  0  1  0  0  3  0  0  0  0  0  0
  183.6050  178.8260  145.6350 C   0  0  0  0  0  3  0  0  0  0  0  0
  183.0290  178.7010  143.2350 N   0  0  0  0  0  0  0  0  0  0  0  0
  181.1250  179.6590  139.0000 O   0  0  0  0  0  0  0  0  0  0  0  0
  180.6490  180.9500  138.8980 N   0  0  0  0  0  0  0  0  0  0  0  0
  180.0590  183.1870  136.1640 N   0  0  0  0  0  2  0  0  0  0  0  0
  180.7900  180.8810  136.4590 C   0  0  0  0  0  2  0  0  0  0  0  0
  180.4910  181.5180  137.7470 C   0  0  0  0  0  0  0  0  0  0  0  0
  180.3240  181.9260  135.4610 C   0  0  0  0  0  2  0  0  0  0  0  0
  179.9900  182.8900  137.5920 C   0  0  0  0  0  2  0  0  0  0  0  0
  1 26  1  0  0  0  0
  3 16  2  0  0  0  0
  4 23  2  0  0  0  0
  5 15  2  0  0  0  0
  7  3  1  0  0  0  0
  8 12  1  0  0  0  0
  9 27  1  0  0  0  0
 10 22  1  0  0  0  0
 10 17  2  0  0  0  0
 11 20  2  0  0  0  0
 11  5  1  0  0  0  0
 13  9  2  0  0  0  0
 13 20  1  0  0  0  0
 14  2  1  0  0  0  0
 15  4  1  0  0  0  0
 15 12  1  0  0  0  0
 16  8  1  0  0  0  0
 17 25  1  0  0  0  0
 18  1  2  0  0  0  0
 18  4  1  0  0  0  0
 19  6  1  6  0  0  0
 19  5  1  0  0  0  0
 19  3  1  0  0  0  0
 20 18  1  0  0  0  0
 22 24  1  0  0  0  0
 23 21  1  0  0  0  0
 24 13  1  0  0  0  0
 25  9  1  0  0  0  0
 25 14  1  1  0  0  0
 26 21  2  0  0  0  0
 27  2  1  0  0  0  0
 27  1  1  0  0  0  0
 28 17  1  0  0  0  0
 29 28  1  0  0  0  0
 30 34  1  0  0  0  0
 31 32  1  0  0  0  0
 32 29  2  0  0  0  0
 33 30  1  0  0  0  0
 33 31  1  0  0  0  0
 34 32  1  0  0  0  0
M  END
>  <MODEL>
2

>  <REMARK>
 VINA RESULT:      -9.5      2.642      3.586
  Name = 
  2 active torsions:
  status: ('A' for Active; 'I' for Inactive)
    1  A    between atoms: C_17  and  O_28
    2  A    between atoms: O_28  and  N_29
                            x       y       z     vdW  Elec       q    Type
                         _______ _______ _______ _____ _____    ______ ____

>  <TORSDO>
F 2

$$$$
=
 OpenBabel11122412233D

 34 40  0  0  1  0  0  0  0  0999 V2000
  189.0770  177.6910  144.4790 C   0  0  0  0  0  0  0  0  0  0  0  0
  187.1480  177.8770  146.1810 C   0  0  0  0  0  2  0  0  0  0  0  0
  191.0420  176.3310  138.4340 C   0  0  0  0  0  0  0  0  0  0  0  0
  190.7440  177.5030  142.6990 C   0  0  0  0  0  0  0  0  0  0  0  0
  189.9850  177.5000  140.3810 C   0  0  0  0  0  0  0  0  0  0  0  0
  188.9380  177.6870  138.0650 C   0  0  0  0  0  1  0  0  0  0  0  0
  190.4340  175.1830  137.6940 C   0  0  0  0  0  1  0  0  0  0  0  0
  192.9220  177.3400  139.4850 C   0  0  0  0  0  2  0  0  0  0  0  0
  186.6710  177.8700  143.8740 C   0  0  0  0  0  0  0  0  0  0  0  0
  184.3330  179.5080  142.7770 C   0  0  0  0  0  3  0  0  0  0  0  0
  188.7040  177.6150  140.8320 N   0  0  0  0  0  0  0  0  0  0  0  0
  192.5240  177.2280  140.9530 C   0  0  0  0  0  2  0  0  0  0  0  0
  186.9580  177.7850  142.5670 C   0  0  0  0  0  0  0  0  0  0  0  0
  185.6460  178.1210  145.9880 C   0  0  0  0  0  2  0  0  0  0  0  0
  191.0600  177.4410  141.3210 C   0  0  0  0  0  0  0  0  0  0  0  0
  192.2950  176.2900  138.7210 N   0  0  0  0  0  0  0  0  0  0  0  0
  184.3000  178.9240  143.9860 C   0  0  0  0  0  0  0  0  0  0  0  0
  189.4020  177.6220  143.1100 C   0  0  0  0  0  0  0  0  0  0  0  0
  190.2140  177.5090  138.8860 C   0  0  2  0  0  3  0  0  0  0  0  0
  188.3800  177.6710  142.1480 C   0  0  0  0  0  0  0  0  0  0  0  0
  191.4220  177.5130  145.0420 C   0  0  0  0  0  3  0  0  0  0  0  0
  185.3660  179.3820  141.6970 C   0  0  0  0  0  2  0  0  0  0  0  0
  191.7470  177.4480  143.6840 C   0  0  0  0  0  3  0  0  0  0  0  0
  185.8800  177.9640  141.5580 C   0  0  0  0  0  2  0  0  0  0  0  0
  185.3170  177.9030  144.4990 C   0  0  1  0  0  3  0  0  0  0  0  0
  190.0890  177.6350  145.4410 C   0  0  0  0  0  3  0  0  0  0  0  0
  187.6980  177.8200  144.8450 N   0  0  0  0  0  0  0  0  0  0  0  0
  183.1700  179.2220  144.7550 O   0  0  0  0  0  0  0  0  0  0  0  0
  182.0490  178.4180  144.7600 N   0  0  0  0  0  0  0  0  0  0  0  0
  178.9310  178.4660  142.9990 N   0  0  0  0  0  2  0  0  0  0  0  0
  180.9990  179.7550  143.0030 C   0  0  0  0  0  2  0  0  0  0  0  0
  181.0550  178.6480  143.9660 C   0  0  0  0  0  0  0  0  0  0  0  0
  179.6940  179.4900  142.2750 C   0  0  0  0  0  2  0  0  0  0  0  0
  179.8420  177.8190  143.9390 C   0  0  0  0  0  2  0  0  0  0  0  0
  1 27  1  0  0  0  0
  1 26  1  0  0  0  0
  3 16  2  0  0  0  0
  3 19  1  0  0  0  0
  4 18  1  0  0  0  0
  4 23  2  0  0  0  0
  5 11  1  0  0  0  0
  5 15  2  0  0  0  0
  7  3  1  0  0  0  0
  8 12  1  0  0  0  0
  9 25  1  0  0  0  0
  9 27  1  0  0  0  0
 10 17  2  0  0  0  0
 11 20  2  0  0  0  0
 12 15  1  0  0  0  0
 13  9  2  0  0  0  0
 14  2  1  0  0  0  0
 15  4  1  0  0  0  0
 16  8  1  0  0  0  0
 17 25  1  0  0  0  0
 17 28  1  0  0  0  0
 18  1  2  0  0  0  0
 19  6  1  6  0  0  0
 19  5  1  0  0  0  0
 20 13  1  0  0  0  0
 20 18  1  0  0  0  0
 21 26  2  0  0  0  0
 22 10  1  0  0  0  0
 23 21  1  0  0  0  0
 24 22  1  0  0  0  0
 24 13  1  0  0  0  0
 25 14  1  1  0  0  0
 27  2  1  0  0  0  0
 28 29  1  0  0  0  0
 30 34  1  0  0  0  0
 31 32  1  0  0  0  0
 32 29  2  0  0  0  0
 33 30  1  0  0  0  0
 33 31  1  0  0  0  0
 34 32  1  0  0  0  0
M  END
>  <MODEL>
3

>  <REMARK>
 VINA RESULT:      -9.4      2.784      4.612
  Name = 
  2 active torsions:
  status: ('A' for Active; 'I' for Inactive)
    1  A    between atoms: C_17  and  O_28
    2  A    between atoms: O_28  and  N_29
                            x       y       z     vdW  Elec       q    Type
                         _______ _______ _______ _____ _____    ______ ____

>  <TORSDO>
F 2

$$$$
=
 OpenBabel11122412233D

 34 40  0  0  1  0  0  0  0  0999 V2000
  190.7790  177.2210  142.7650 C   0  0  0  0  0  0  0  0  0  0  0  0
  192.5410  177.1020  140.8840 C   0  0  0  0  0  2  0  0  0  0  0  0
  184.9040  179.1560  144.7600 C   0  0  0  0  0  0  0  0  0  0  0  0
  188.9560  177.3990  144.3860 C   0  0  0  0  0  0  0  0  0  0  0  0
  186.7110  177.8940  143.5710 C   0  0  0  0  0  0  0  0  0  0  0  0
  184.4560  178.2530  142.4400 C   0  0  0  0  0  1  0  0  0  0  0  0
  184.3790  180.4920  144.3430 C   0  0  0  0  0  1  0  0  0  0  0  0
  185.6850  177.6900  146.4620 C   0  0  0  0  0  2  0  0  0  0  0  0
  190.2910  177.5510  140.3490 C   0  0  0  0  0  0  0  0  0  0  0  0
  189.0960  176.5270  137.7260 C   0  0  0  0  0  3  0  0  0  0  0  0
  187.2110  177.9300  142.3040 N   0  0  0  0  0  0  0  0  0  0  0  0
  187.1730  177.6370  146.1340 C   0  0  0  0  0  2  0  0  0  0  0  0
  188.9980  177.7890  140.6070 C   0  0  0  0  0  0  0  0  0  0  0  0
  192.3990  177.1510  139.3580 C   0  0  0  0  0  2  0  0  0  0  0  0
  187.5880  177.6220  144.6670 C   0  0  0  0  0  0  0  0  0  0  0  0
  185.1230  178.9390  146.0080 N   0  0  0  0  0  0  0  0  0  0  0  0
  190.3790  176.9110  137.8330 C   0  0  0  0  0  0  0  0  0  0  0  0
  189.4200  177.4470  143.0560 C   0  0  0  0  0  0  0  0  0  0  0  0
  185.2210  178.0810  143.7510 C   0  0  2  0  0  3  0  0  0  0  0  0
  188.5200  177.7240  142.0140 C   0  0  0  0  0  0  0  0  0  0  0  0
  191.2300  176.9080  145.1200 C   0  0  0  0  0  3  0  0  0  0  0  0
  187.9910  176.6430  138.7330 C   0  0  0  0  0  2  0  0  0  0  0  0
  189.8810  177.1280  145.4110 C   0  0  0  0  0  3  0  0  0  0  0  0
  188.0350  177.9570  139.4850 C   0  0  0  0  0  2  0  0  0  0  0  0
  190.9790  177.6520  139.0290 C   0  0  1  0  0  3  0  0  0  0  0  0
  191.6810  176.9530  143.7990 C   0  0  0  0  0  3  0  0  0  0  0  0
  191.1990  177.2730  141.3960 N   0  0  0  0  0  0  0  0  0  0  0  0
  191.1570  176.6930  136.6910 O   0  0  0  0  0  0  0  0  0  0  0  0
  191.5530  175.4300  136.3010 N   0  0  0  0  0  0  0  0  0  0  0  0
  194.6980  173.9560  135.4290 N   0  0  0  0  0  2  0  0  0  0  0  0
  193.8980  176.1170  136.2210 C   0  0  0  0  0  2  0  0  0  0  0  0
  192.7980  175.1550  136.0850 C   0  0  0  0  0  0  0  0  0  0  0  0
  195.1210  175.2540  135.9670 C   0  0  0  0  0  2  0  0  0  0  0  0
  193.2630  173.8260  135.6660 C   0  0  0  0  0  2  0  0  0  0  0  0
  1 18  2  0  0  0  0
  1 26  1  0  0  0  0
  2 27  1  0  0  0  0
  3 16  2  0  0  0  0
  4 15  1  0  0  0  0
  4 23  2  0  0  0  0
  5 19  1  0  0  0  0
  5 15  2  0  0  0  0
  7  3  1  0  0  0  0
  9 13  2  0  0  0  0
  9 27  1  0  0  0  0
 10 17  2  0  0  0  0
 10 22  1  0  0  0  0
 11  5  1  0  0  0  0
 12  8  1  0  0  0  0
 13 20  1  0  0  0  0
 14  2  1  0  0  0  0
 15 12  1  0  0  0  0
 16  8  1  0  0  0  0
 17 25  1  0  0  0  0
 18  4  1  0  0  0  0
 19  6  1  6  0  0  0
 19  3  1  0  0  0  0
 20 11  2  0  0  0  0
 20 18  1  0  0  0  0
 21 23  1  0  0  0  0
 22 24  1  0  0  0  0
 24 13  1  0  0  0  0
 25 14  1  1  0  0  0
 25  9  1  0  0  0  0
 26 21  2  0  0  0  0
 27  1  1  0  0  0  0
 28 17  1  0  0  0  0
 29 28  1  0  0  0  0
 30 34  1  0  0  0  0
 30 33  1  0  0  0  0
 32 31  1  0  0  0  0
 32 29  2  0  0  0  0
 33 31  1  0  0  0  0
 34 32  1  0  0  0  0
M  END
>  <MODEL>
4

>  <REMARK>
 VINA RESULT:      -9.2      4.421      8.142
  Name = 
  2 active torsions:
  status: ('A' for Active; 'I' for Inactive)
    1  A    between atoms: C_17  and  O_28
    2  A    between atoms: O_28  and  N_29
                            x       y       z     vdW  Elec       q    Type
                         _______ _______ _______ _____ _____    ______ ____

>  <TORSDO>
F 2

$$$$
=
 OpenBabel11122412233D

 34 40  0  0  1  0  0  0  0  0999 V2000
  185.5360  178.5350  142.6680 C   0  0  0  0  0  0  0  0  0  0  0  0
  187.8950  178.3660  141.6380 C   0  0  0  0  0  2  0  0  0  0  0  0
  179.2920  180.2140  142.0070 C   0  0  0  0  0  0  0  0  0  0  0  0
  183.2200  178.7320  143.4290 C   0  0  0  0  0  0  0  0  0  0  0  0
  181.4580  178.9800  141.7620 C   0  0  0  0  0  0  0  0  0  0  0  0
  179.8140  179.0620  139.8160 C   0  0  0  0  0  1  0  0  0  0  0  0
  178.9310  181.4620  141.2680 C   0  0  0  0  0  1  0  0  0  0  0  0
  179.3910  178.9790  144.0380 C   0  0  0  0  0  2  0  0  0  0  0  0
  186.0210  178.5950  140.2290 C   0  0  0  0  0  0  0  0  0  0  0  0
  185.9770  177.2390  137.4880 C   0  0  0  0  0  3  0  0  0  0  0  0
  182.4120  178.9310  140.7890 N   0  0  0  0  0  0  0  0  0  0  0  0
  180.8900  179.0050  144.3160 C   0  0  0  0  0  2  0  0  0  0  0  0
  184.7230  178.7610  139.9400 C   0  0  0  0  0  0  0  0  0  0  0  0
  188.3590  178.2580  140.1800 C   0  0  0  0  0  2  0  0  0  0  0  0
  181.8450  178.8790  143.1340 C   0  0  0  0  0  0  0  0  0  0  0  0
  179.0120  180.1340  143.2600 N   0  0  0  0  0  0  0  0  0  0  0  0
  187.1040  177.7260  138.0340 C   0  0  0  0  0  0  0  0  0  0  0  0
  184.1650  178.6870  142.3850 C   0  0  0  0  0  0  0  0  0  0  0  0
  180.0110  179.0730  141.3310 C   0  0  2  0  0  3  0  0  0  0  0  0
  183.7360  178.7960  141.0520 C   0  0  0  0  0  0  0  0  0  0  0  0
  185.0410  178.4820  145.0340 C   0  0  0  0  0  3  0  0  0  0  0  0
  184.5630  177.3700  137.9700 C   0  0  0  0  0  2  0  0  0  0  0  0
  183.6790  178.6290  144.7550 C   0  0  0  0  0  3  0  0  0  0  0  0
  184.2700  178.7490  138.5230 C   0  0  0  0  0  2  0  0  0  0  0  0
  187.1670  178.6190  139.2730 C   0  0  1  0  0  3  0  0  0  0  0  0
  185.9700  178.4340  143.9920 C   0  0  0  0  0  3  0  0  0  0  0  0
  186.4560  178.4860  141.5690 N   0  0  0  0  0  0  0  0  0  0  0  0
  188.2720  177.4570  137.3130 O   0  0  0  0  0  0  0  0  0  0  0  0
  188.7270  176.1720  137.1010 N   0  0  0  0  0  0  0  0  0  0  0  0
  191.8730  174.5250  137.5650 N   0  0  0  0  0  2  0  0  0  0  0  0
  190.9330  176.7320  137.9920 C   0  0  0  0  0  2  0  0  0  0  0  0
  189.9350  175.8280  137.4070 C   0  0  0  0  0  0  0  0  0  0  0  0
  192.1070  175.8040  138.2470 C   0  0  0  0  0  2  0  0  0  0  0  0
  190.4620  174.4730  137.1960 C   0  0  0  0  0  2  0  0  0  0  0  0
  1 26  1  0  0  0  0
  3 16  2  0  0  0  0
  4 23  2  0  0  0  0
  5 15  2  0  0  0  0
  7  3  1  0  0  0  0
  8 12  1  0  0  0  0
  9 27  1  0  0  0  0
 10 22  1  0  0  0  0
 10 17  2  0  0  0  0
 11 20  2  0  0  0  0
 11  5  1  0  0  0  0
 13  9  2  0  0  0  0
 13 20  1  0  0  0  0
 14  2  1  0  0  0  0
 15  4  1  0  0  0  0
 15 12  1  0  0  0  0
 16  8  1  0  0  0  0
 17 25  1  0  0  0  0
 18  1  2  0  0  0  0
 18  4  1  0  0  0  0
 19  6  1  6  0  0  0
 19  5  1  0  0  0  0
 19  3  1  0  0  0  0
 20 18  1  0  0  0  0
 22 24  1  0  0  0  0
 23 21  1  0  0  0  0
 24 13  1  0  0  0  0
 25 14  1  1  0  0  0
 25  9  1  0  0  0  0
 26 21  2  0  0  0  0
 27  2  1  0  0  0  0
 27  1  1  0  0  0  0
 28 17  1  0  0  0  0
 29 28  1  0  0  0  0
 29 32  2  0  0  0  0
 30 33  1  0  0  0  0
 31 33  1  0  0  0  0
 32 31  1  0  0  0  0
 34 32  1  0  0  0  0
 34 30  1  0  0  0  0
M  END
>  <MODEL>
5

>  <REMARK>
 VINA RESULT:      -9.1      3.883      8.728
  Name = 
  2 active torsions:
  status: ('A' for Active; 'I' for Inactive)
    1  A    between atoms: C_17  and  O_28
    2  A    between atoms: O_28  and  N_29
                            x       y       z     vdW  Elec       q    Type
                         _______ _______ _______ _____ _____    ______ ____

>  <TORSDO>
F 2

$$$$
=
 OpenBabel11122412233D

 34 40  0  0  1  0  0  0  0  0999 V2000
  188.4660  177.5950  141.3550 C   0  0  0  0  0  0  0  0  0  0  0  0
  187.9490  177.9500  138.8520 C   0  0  0  0  0  2  0  0  0  0  0  0
  186.9130  178.7270  147.5640 C   0  0  0  0  0  0  0  0  0  0  0  0
  188.7440  177.3420  143.7710 C   0  0  0  0  0  0  0  0  0  0  0  0
  186.8470  177.8340  145.2250 C   0  0  0  0  0  0  0  0  0  0  0  0
  184.6730  178.2530  146.4870 C   0  0  0  0  0  1  0  0  0  0  0  0
  186.4300  180.0810  147.9760 C   0  0  0  0  0  1  0  0  0  0  0  0
  188.5670  177.0200  147.6400 C   0  0  0  0  0  2  0  0  0  0  0  0
  186.2700  178.3440  140.4570 C   0  0  0  0  0  0  0  0  0  0  0  0
  183.3410  177.7590  139.8010 C   0  0  0  0  0  3  0  0  0  0  0  0
  186.1160  178.1430  144.1160 N   0  0  0  0  0  0  0  0  0  0  0  0
  189.1550  177.1280  146.2370 C   0  0  0  0  0  2  0  0  0  0  0  0
  185.7600  178.4430  141.6930 C   0  0  0  0  0  0  0  0  0  0  0  0
  186.6400  178.2780  138.1240 C   0  0  0  0  0  2  0  0  0  0  0  0
  188.2070  177.4180  145.0780 C   0  0  0  0  0  0  0  0  0  0  0  0
  188.0220  178.2920  148.0470 N   0  0  0  0  0  0  0  0  0  0  0  0
  184.2130  178.2000  138.8790 C   0  0  0  0  0  0  0  0  0  0  0  0
  187.9430  177.6720  142.6600 C   0  0  0  0  0  0  0  0  0  0  0  0
  186.1540  177.8860  146.5680 C   0  0  2  0  0  3  0  0  0  0  0  0
  186.6140  178.0820  142.8560 C   0  0  0  0  0  0  0  0  0  0  0  0
  190.5920  176.8710  142.2510 C   0  0  0  0  0  3  0  0  0  0  0  0
  183.5300  177.6100  141.2810 C   0  0  0  0  0  2  0  0  0  0  0  0
  190.0740  176.9430  143.5470 C   0  0  0  0  0  3  0  0  0  0  0  0
  184.3180  178.7580  141.8780 C   0  0  0  0  0  2  0  0  0  0  0  0
  185.6130  178.7380  139.1770 C   0  0  1  0  0  3  0  0  0  0  0  0
  189.7900  177.1960  141.1540 C   0  0  0  0  0  3  0  0  0  0  0  0
  187.6080  177.9330  140.2580 N   0  0  0  0  0  0  0  0  0  0  0  0
  183.7140  178.2530  137.5730 O   0  0  0  0  0  0  0  0  0  0  0  0
  182.8390  177.3070  137.0800 N   0  0  0  0  0  0  0  0  0  0  0  0
  183.1370  174.5960  134.7590 N   0  0  0  0  0  2  0  0  0  0  0  0
  184.6130  176.2490  135.7730 C   0  0  0  0  0  2  0  0  0  0  0  0
  183.2360  176.3880  136.2610 C   0  0  0  0  0  0  0  0  0  0  0  0
  184.5430  174.9730  134.9540 C   0  0  0  0  0  2  0  0  0  0  0  0
  182.3390  175.3640  135.7100 C   0  0  0  0  0  2  0  0  0  0  0  0
  1 18  1  0  0  0  0
  2 27  1  0  0  0  0
  3  7  1  0  0  0  0
  3 16  2  0  0  0  0
  4 15  1  0  0  0  0
  5 19  1  0  0  0  0
  8 16  1  0  0  0  0
  9 13  2  0  0  0  0
 10 22  1  0  0  0  0
 11  5  1  0  0  0  0
 12  8  1  0  0  0  0
 13 24  1  0  0  0  0
 13 20  1  0  0  0  0
 14  2  1  0  0  0  0
 15  5  2  0  0  0  0
 15 12  1  0  0  0  0
 17 25  1  0  0  0  0
 17 10  2  0  0  0  0
 18 20  1  0  0  0  0
 18  4  2  0  0  0  0
 19  6  1  6  0  0  0
 19  3  1  0  0  0  0
 20 11  2  0  0  0  0
 21 23  2  0  0  0  0
 22 24  1  0  0  0  0
 23  4  1  0  0  0  0
 25 14  1  6  0  0  0
 25  9  1  0  0  0  0
 26  1  2  0  0  0  0
 26 21  1  0  0  0  0
 27  9  1  0  0  0  0
 27  1  1  0  0  0  0
 28 17  1  0  0  0  0
 29 28  1  0  0  0  0
 30 33  1  0  0  0  0
 30 34  1  0  0  0  0
 31 32  1  0  0  0  0
 32 29  2  0  0  0  0
 33 31  1  0  0  0  0
 34 32  1  0  0  0  0
M  END
>  <MODEL>
6

>  <REMARK>
 VINA RESULT:      -9.1      2.752      5.165
  Name = 
  2 active torsions:
  status: ('A' for Active; 'I' for Inactive)
    1  A    between atoms: C_17  and  O_28
    2  A    between atoms: O_28  and  N_29
                            x       y       z     vdW  Elec       q    Type
                         _______ _______ _______ _____ _____    ______ ____

>  <TORSDO>
F 2

$$$$
=
 OpenBabel11122412233D

 34 40  0  0  1  0  0  0  0  0999 V2000
  188.1660  177.7850  141.0750 C   0  0  0  0  0  0  0  0  0  0  0  0
  187.4950  178.1850  138.6170 C   0  0  0  0  0  2  0  0  0  0  0  0
  186.9130  178.6700  147.3910 C   0  0  0  0  0  0  0  0  0  0  0  0
  188.5900  177.4790  143.4650 C   0  0  0  0  0  0  0  0  0  0  0  0
  186.7570  177.8410  145.0330 C   0  0  0  0  0  0  0  0  0  0  0  0
  184.6410  178.1210  146.4250 C   0  0  0  0  0  1  0  0  0  0  0  0
  186.3930  179.9880  147.8700 C   0  0  0  0  0  1  0  0  0  0  0  0
  188.6450  177.0420  147.3250 C   0  0  0  0  0  2  0  0  0  0  0  0
  185.8930  178.4550  140.3220 C   0  0  0  0  0  0  0  0  0  0  0  0
  182.9610  177.7500  139.8090 C   0  0  0  0  0  3  0  0  0  0  0  0
  185.9520  178.1450  143.9760 N   0  0  0  0  0  0  0  0  0  0  0  0
  189.1480  177.2160  145.8960 C   0  0  0  0  0  2  0  0  0  0  0  0
  185.4480  178.4950  141.5860 C   0  0  0  0  0  0  0  0  0  0  0  0
  186.1330  178.4700  137.9710 C   0  0  0  0  0  2  0  0  0  0  0  0
  188.1250  177.4930  144.8000 C   0  0  0  0  0  0  0  0  0  0  0  0
  188.0660  178.2750  147.8000 N   0  0  0  0  0  0  0  0  0  0  0  0
  183.7590  178.2570  138.8540 C   0  0  0  0  0  0  0  0  0  0  0  0
  187.7140  177.8010  142.4090 C   0  0  0  0  0  0  0  0  0  0  0  0
  186.1390  177.8220  146.4130 C   0  0  2  0  0  3  0  0  0  0  0  0
  186.3810  178.1420  142.6890 C   0  0  0  0  0  0  0  0  0  0  0  0
  190.3700  177.1380  141.8320 C   0  0  0  0  0  3  0  0  0  0  0  0
  183.2380  177.5690  141.2710 C   0  0  0  0  0  2  0  0  0  0  0  0
  189.9230  177.1500  143.1560 C   0  0  0  0  0  3  0  0  0  0  0  0
  184.0050  178.7360  141.8590 C   0  0  0  0  0  2  0  0  0  0  0  0
  185.1470  178.8520  139.0920 C   0  0  1  0  0  3  0  0  0  0  0  0
  189.4940  177.4550  140.7910 C   0  0  0  0  0  3  0  0  0  0  0  0
  187.2340  178.1130  140.0370 N   0  0  0  0  0  0  0  0  0  0  0  0
  183.1850  178.3230  137.5800 O   0  0  0  0  0  0  0  0  0  0  0  0
  181.8260  178.2030  137.3770 N   0  0  0  0  0  0  0  0  0  0  0  0
  179.0810  180.5030  137.4290 N   0  0  0  0  0  2  0  0  0  0  0  0
  181.5040  180.6090  137.6670 C   0  0  0  0  0  2  0  0  0  0  0  0
  181.0490  179.2370  137.4130 C   0  0  0  0  0  0  0  0  0  0  0  0
  180.2290  181.4150  137.4860 C   0  0  0  0  0  2  0  0  0  0  0  0
  179.5970  179.1560  137.2050 C   0  0  0  0  0  2  0  0  0  0  0  0
  1 18  1  0  0  0  0
  2 27  1  0  0  0  0
  3 16  2  0  0  0  0
  3  7  1  0  0  0  0
  4 15  1  0  0  0  0
  5 19  1  0  0  0  0
  8 16  1  0  0  0  0
  9 13  2  0  0  0  0
 10 22  1  0  0  0  0
 11  5  1  0  0  0  0
 12  8  1  0  0  0  0
 13 24  1  0  0  0  0
 13 20  1  0  0  0  0
 14  2  1  0  0  0  0
 15  5  2  0  0  0  0
 15 12  1  0  0  0  0
 17 25  1  0  0  0  0
 17 10  2  0  0  0  0
 18 20  1  0  0  0  0
 18  4  2  0  0  0  0
 19  6  1  6  0  0  0
 19  3  1  0  0  0  0
 20 11  2  0  0  0  0
 21 23  2  0  0  0  0
 22 24  1  0  0  0  0
 23  4  1  0  0  0  0
 25 14  1  6  0  0  0
 25  9  1  0  0  0  0
 26  1  2  0  0  0  0
 26 21  1  0  0  0  0
 27  9  1  0  0  0  0
 27  1  1  0  0  0  0
 28 17  1  0  0  0  0
 29 32  2  0  0  0  0
 29 28  1  0  0  0  0
 30 33  1  0  0  0  0
 32 31  1  0  0  0  0
 33 31  1  0  0  0  0
 34 32  1  0  0  0  0
 34 30  1  0  0  0  0
M  END
>  <MODEL>
7

>  <REMARK>
 VINA RESULT:      -8.8      2.295      4.808
  Name = 
  2 active torsions:
  status: ('A' for Active; 'I' for Inactive)
    1  A    between atoms: C_17  and  O_28
    2  A    between atoms: O_28  and  N_29
                            x       y       z     vdW  Elec       q    Type
                         _______ _______ _______ _____ _____    ______ ____

>  <TORSDO>
F 2

$$$$
=
 OpenBabel11122412233D

 34 40  0  0  1  0  0  0  0  0999 V2000
  186.5710  178.2130  142.5920 C   0  0  0  0  0  0  0  0  0  0  0  0
  189.1280  177.8770  142.5410 C   0  0  0  0  0  2  0  0  0  0  0  0
  181.1570  180.1390  139.5550 C   0  0  0  0  0  0  0  0  0  0  0  0
  184.1570  178.5600  142.4110 C   0  0  0  0  0  0  0  0  0  0  0  0
  183.1720  178.7950  140.1920 C   0  0  0  0  0  0  0  0  0  0  0  0
  182.3910  178.8430  137.7660 C   0  0  0  0  0  1  0  0  0  0  0  0
  181.1820  181.3590  138.6910 C   0  0  0  0  0  1  0  0  0  0  0  0
  180.4040  179.0180  141.5130 C   0  0  0  0  0  2  0  0  0  0  0  0
  187.9420  178.1130  140.5190 C   0  0  0  0  0  0  0  0  0  0  0  0
  188.8460  176.6080  138.0150 C   0  0  0  0  0  3  0  0  0  0  0  0
  184.4170  178.6470  139.6570 N   0  0  0  0  0  0  0  0  0  0  0  0
  181.6860  178.9900  142.3380 C   0  0  0  0  0  2  0  0  0  0  0  0
  186.8610  178.3220  139.7540 C   0  0  0  0  0  0  0  0  0  0  0  0
  190.0990  177.6650  141.3720 C   0  0  0  0  0  2  0  0  0  0  0  0
  183.0060  178.7540  141.6110 C   0  0  0  0  0  0  0  0  0  0  0  0
  180.4220  180.1430  140.6100 N   0  0  0  0  0  0  0  0  0  0  0  0
  189.7130  177.0720  138.9300 C   0  0  0  0  0  0  0  0  0  0  0  0
  185.4210  178.4120  141.8060 C   0  0  0  0  0  0  0  0  0  0  0  0
  182.0030  178.9300  139.2420 C   0  0  2  0  0  3  0  0  0  0  0  0
  185.5320  178.4650  140.4070 C   0  0  0  0  0  0  0  0  0  0  0  0
  185.2190  178.3160  144.5940 C   0  0  0  0  0  3  0  0  0  0  0  0
  187.3660  176.8310  137.9200 C   0  0  0  0  0  2  0  0  0  0  0  0
  184.0740  178.5110  143.8150 C   0  0  0  0  0  3  0  0  0  0  0  0
  186.9760  178.2520  138.2720 C   0  0  0  0  0  2  0  0  0  0  0  0
  189.3620  178.0300  140.0690 C   0  0  1  0  0  3  0  0  0  0  0  0
  186.4660  178.1670  143.9850 C   0  0  0  0  0  3  0  0  0  0  0  0
  187.8310  178.0600  141.9270 N   0  0  0  0  0  0  0  0  0  0  0  0
  191.0470  176.7090  138.7170 O   0  0  0  0  0  0  0  0  0  0  0  0
  191.4110  175.4330  138.3380 N   0  0  0  0  0  0  0  0  0  0  0  0
  194.0440  174.0800  136.3230 N   0  0  0  0  0  2  0  0  0  0  0  0
  193.3660  176.2750  137.1360 C   0  0  0  0  0  2  0  0  0  0  0  0
  192.4660  175.2220  137.6200 C   0  0  0  0  0  0  0  0  0  0  0  0
  194.4690  175.4780  136.4610 C   0  0  0  0  0  2  0  0  0  0  0  0
  192.8890  173.8810  137.1930 C   0  0  0  0  0  2  0  0  0  0  0  0
  1 26  1  0  0  0  0
  3 16  2  0  0  0  0
  4 23  2  0  0  0  0
  5 15  2  0  0  0  0
  7  3  1  0  0  0  0
  8 12  1  0  0  0  0
  9 27  1  0  0  0  0
 10 17  2  0  0  0  0
 11  5  1  0  0  0  0
 11 20  2  0  0  0  0
 13 20  1  0  0  0  0
 13  9  2  0  0  0  0
 14  2  1  0  0  0  0
 15 12  1  0  0  0  0
 15  4  1  0  0  0  0
 16  8  1  0  0  0  0
 17 25  1  0  0  0  0
 18  4  1  0  0  0  0
 18  1  2  0  0  0  0
 19  6  1  6  0  0  0
 19  3  1  0  0  0  0
 19  5  1  0  0  0  0
 20 18  1  0  0  0  0
 22 10  1  0  0  0  0
 22 24  1  0  0  0  0
 23 21  1  0  0  0  0
 24 13  1  0  0  0  0
 25  9  1  0  0  0  0
 25 14  1  1  0  0  0
 26 21  2  0  0  0  0
 27  2  1  0  0  0  0
 27  1  1  0  0  0  0
 28 17  1  0  0  0  0
 29 28  1  0  0  0  0
 30 33  1  0  0  0  0
 30 34  1  0  0  0  0
 31 32  1  0  0  0  0
 32 29  2  0  0  0  0
 33 31  1  0  0  0  0
 34 32  1  0  0  0  0
M  END
>  <MODEL>
8

>  <REMARK>
 VINA RESULT:      -8.8      3.858      9.161
  Name = 
  2 active torsions:
  status: ('A' for Active; 'I' for Inactive)
    1  A    between atoms: C_17  and  O_28
    2  A    between atoms: O_28  and  N_29
                            x       y       z     vdW  Elec       q    Type
                         _______ _______ _______ _____ _____    ______ ____

>  <TORSDO>
F 2

$$$$
=
 OpenBabel11122412233D

 34 40  0  0  1  0  0  0  0  0999 V2000
  189.9870  177.2530  142.1170 C   0  0  0  0  0  0  0  0  0  0  0  0
  190.3380  177.5400  139.5770 C   0  0  0  0  0  2  0  0  0  0  0  0
  186.7240  178.8890  147.4950 C   0  0  0  0  0  0  0  0  0  0  0  0
  189.4530  177.0930  144.4980 C   0  0  0  0  0  0  0  0  0  0  0  0
  187.2800  177.8910  145.2660 C   0  0  0  0  0  0  0  0  0  0  0  0
  184.8960  178.6410  145.7650 C   0  0  0  0  0  1  0  0  0  0  0  0
  186.3230  180.3110  147.7190 C   0  0  0  0  0  1  0  0  0  0  0  0
  188.0260  176.9950  148.1110 C   0  0  0  0  0  2  0  0  0  0  0  0
  188.3080  178.2220  140.5590 C   0  0  0  0  0  0  0  0  0  0  0  0
  185.6840  177.9720  139.0070 C   0  0  0  0  0  3  0  0  0  0  0  0
  186.9830  178.2310  143.9790 N   0  0  0  0  0  0  0  0  0  0  0  0
  189.0340  176.9570  146.9680 C   0  0  0  0  0  2  0  0  0  0  0  0
  187.4530  178.4470  141.5660 C   0  0  0  0  0  0  0  0  0  0  0  0
  189.3810  177.9900  138.4660 C   0  0  0  0  0  2  0  0  0  0  0  0
  188.5470  177.3020  145.5650 C   0  0  0  0  0  0  0  0  0  0  0  0
  187.5560  178.3450  148.3110 N   0  0  0  0  0  0  0  0  0  0  0  0
  186.8520  178.2530  138.4080 C   0  0  0  0  0  0  0  0  0  0  0  0
  189.0950  177.4620  143.1860 C   0  0  0  0  0  0  0  0  0  0  0  0
  186.2120  178.0980  146.3170 C   0  0  2  0  0  3  0  0  0  0  0  0
  187.8400  178.0430  142.9440 C   0  0  0  0  0  0  0  0  0  0  0  0
  191.6050  176.3180  143.6510 C   0  0  0  0  0  3  0  0  0  0  0  0
  185.3750  177.8770  140.4720 C   0  0  0  0  0  2  0  0  0  0  0  0
  190.7200  176.5210  144.7140 C   0  0  0  0  0  3  0  0  0  0  0  0
  186.0810  178.9480  141.2780 C   0  0  0  0  0  2  0  0  0  0  0  0
  188.1460  178.6280  139.1320 C   0  0  1  0  0  3  0  0  0  0  0  0
  191.2400  176.6820  142.3530 C   0  0  0  0  0  3  0  0  0  0  0  0
  189.5720  177.6380  140.8000 N   0  0  0  0  0  0  0  0  0  0  0  0
  186.8020  178.3010  137.0100 O   0  0  0  0  0  0  0  0  0  0  0  0
  185.9800  177.4720  136.2750 N   0  0  0  0  0  0  0  0  0  0  0  0
  186.4420  174.3440  134.5940 N   0  0  0  0  0  2  0  0  0  0  0  0
  187.7710  175.8340  135.9910 C   0  0  0  0  0  2  0  0  0  0  0  0
  186.4080  176.3460  135.8060 C   0  0  0  0  0  0  0  0  0  0  0  0
  187.6950  174.4590  135.3500 C   0  0  0  0  0  2  0  0  0  0  0  0
  185.5690  175.4340  135.0170 C   0  0  0  0  0  2  0  0  0  0  0  0
  1 26  2  0  0  0  0
  1 18  1  0  0  0  0
  2 27  1  0  0  0  0
  3  7  1  0  0  0  0
  3 16  2  0  0  0  0
  4 23  1  0  0  0  0
  4 15  1  0  0  0  0
  5 15  2  0  0  0  0
  5 19  1  0  0  0  0
  8 16  1  0  0  0  0
  9 27  1  0  0  0  0
  9 13  2  0  0  0  0
 10 22  1  0  0  0  0
 11  5  1  0  0  0  0
 12  8  1  0  0  0  0
 13 20  1  0  0  0  0
 14  2  1  0  0  0  0
 15 12  1  0  0  0  0
 17 10  2  0  0  0  0
 17 25  1  0  0  0  0
 18  4  2  0  0  0  0
 19  6  1  6  0  0  0
 19  3  1  0  0  0  0
 20 18  1  0  0  0  0
 20 11  2  0  0  0  0
 21 23  2  0  0  0  0
 22 24  1  0  0  0  0
 24 13  1  0  0  0  0
 25 14  1  6  0  0  0
 25  9  1  0  0  0  0
 26 21  1  0  0  0  0
 27  1  1  0  0  0  0
 28 17  1  0  0  0  0
 29 28  1  0  0  0  0
 30 34  1  0  0  0  0
 30 33  1  0  0  0  0
 32 31  1  0  0  0  0
 32 29  2  0  0  0  0
 33 31  1  0  0  0  0
 34 32  1  0  0  0  0
M  END
>  <MODEL>
9

>  <REMARK>
 VINA RESULT:      -8.7      3.292      5.766
  Name = 
  2 active torsions:
  status: ('A' for Active; 'I' for Inactive)
    1  A    between atoms: C_17  and  O_28
    2  A    between atoms: O_28  and  N_29
                            x       y       z     vdW  Elec       q    Type
                         _______ _______ _______ _____ _____    ______ ____

>  <TORSDO>
F 2

$$$$
