=
 OpenBabel11122412163D

 34 40  0  0  1  0  0  0  0  0999 V2000
  188.8020  177.5440  137.6670 C   0  0  0  0  0  0  0  0  0  0  0  0
  191.0380  177.1060  138.8010 C   0  0  0  0  0  3  0  0  0  0  0  0
  182.7180  176.5400  139.7810 C   0  0  0  0  0  2  0  0  0  0  0  0
  186.5180  177.9620  136.9590 C   0  0  0  0  0  0  0  0  0  0  0  0
  184.8400  178.7220  138.6600 C   0  0  0  0  0  0  0  0  0  0  0  0
  182.9170  179.0040  140.2590 C   0  0  0  0  0  2  0  0  0  0  0  0
  181.9670  177.8180  140.1330 C   0  0  0  0  0  2  0  0  0  0  0  0
  182.8530  176.9080  137.2740 C   0  0  0  0  0  2  0  0  0  0  0  0
  189.2650  177.6940  140.0510 C   0  0  0  0  0  0  0  0  0  0  0  0
  189.1670  176.6310  142.8660 C   0  0  0  0  0  2  0  0  0  0  0  0
  185.7500  178.6280  139.5890 N   0  0  0  0  0  0  0  0  0  0  0  0
  184.3690  176.7870  137.1710 C   0  0  0  0  0  2  0  0  0  0  0  0
  187.9860  178.0350  140.3590 N   0  0  0  0  0  0  0  0  0  0  0  0
  191.4180  177.1200  140.1090 N   0  0  0  0  0  0  0  0  0  0  0  0
  185.0580  178.1490  137.2760 C   0  0  2  0  0  3  0  0  0  0  0  0
  182.3160  176.0290  138.4000 C   0  0  0  0  0  2  0  0  0  0  0  0
  190.3050  177.5260  142.3630 C   0  0  2  0  0  3  0  0  0  0  0  0
  187.4630  177.8760  137.9900 C   0  0  0  0  0  0  0  0  0  0  0  0
  183.5560  179.2610  138.9780 N   0  0  0  0  0  2  0  0  0  0  0  0
  187.0770  178.1420  139.3330 C   0  0  0  0  0  0  0  0  0  0  0  0
  188.1930  177.4410  135.3440 C   0  0  0  0  0  3  0  0  0  0  0  0
  187.7530  177.2180  142.6980 C   0  0  0  0  0  2  0  0  0  0  0  0
  186.9050  177.7410  135.6710 N   0  0  0  0  0  0  0  0  0  0  0  0
  187.6240  178.4000  141.7310 C   0  0  0  0  0  2  0  0  0  0  0  0
  190.3440  177.4710  140.8630 C   0  0  0  0  0  0  0  0  0  0  0  0
  189.1680  177.3300  136.3390 C   0  0  0  0  0  3  0  0  0  0  0  0
  189.7000  177.4490  138.7190 C   0  0  0  0  0  0  0  0  0  0  0  0
  191.6260  177.0740  142.9690 C   0  0  0  0  0  2  0  0  0  0  0  0
  191.3780  176.1380  144.1400 C   0  0  0  0  0  2  0  0  0  0  0  0
  190.3030  176.7580  147.3080 C   0  0  0  0  0  2  0  0  0  0  0  0
  192.1910  175.7420  146.3020 C   0  0  0  0  0  2  0  0  0  0  0  0
  191.7640  176.7890  145.3820 N   0  0  0  0  0  0  0  0  0  0  0  0
  191.5770  176.0400  147.6460 C   0  0  0  0  0  2  0  0  0  0  0  0
  190.5540  177.3770  145.9490 C   0  0  0  0  0  2  0  0  0  0  0  0
  1 18  1  0  0  0  0
  1 27  2  0  0  0  0
  2 14  2  0  0  0  0
  3  7  1  0  0  0  0
  4 15  1  0  0  0  0
  4 18  1  0  0  0  0
  5 19  1  0  0  0  0
  5 11  2  0  0  0  0
  7  6  1  0  0  0  0
  8 16  1  0  0  0  0
  9 13  1  0  0  0  0
  9 25  2  0  0  0  0
 12  8  1  0  0  0  0
 13 24  1  0  0  0  0
 14 25  1  0  0  0  0
 15 12  1  1  0  0  0
 15  5  1  0  0  0  0
 16  3  1  0  0  0  0
 17 10  1  0  0  0  0
 17 28  1  1  0  0  0
 18 20  2  0  0  0  0
 19  6  1  0  0  0  0
 20 11  1  0  0  0  0
 20 13  1  0  0  0  0
 21 23  1  0  0  0  0
 21 26  2  0  0  0  0
 22 10  1  0  0  0  0
 23  4  2  0  0  0  0
 24 22  1  0  0  0  0
 25 17  1  0  0  0  0
 26  1  1  0  0  0  0
 27  2  1  0  0  0  0
 27  9  1  0  0  0  0
 28 29  1  0  0  0  0
 29 32  1  0  0  0  0
 30 33  1  0  0  0  0
 31 33  1  0  0  0  0
 32 34  1  0  0  0  0
 32 31  1  0  0  0  0
 34 30  1  0  0  0  0
M  END
>  <MODEL>
1

>  <REMARK>
 VINA RESULT:      -9.3      0.000      0.000
  Name = 
  3 active torsions:
  status: ('A' for Active; 'I' for Inactive)
    1  A    between atoms: C_17  and  C_28
    2  A    between atoms: C_28  and  C_29
    3  A    between atoms: C_29  and  N_32
                            x       y       z     vdW  Elec       q    Type
                         _______ _______ _______ _____ _____    ______ ____

>  <TORSDO>
F 3

$$$$
=
 OpenBabel11122412163D

 34 40  0  0  1  0  0  0  0  0999 V2000
  188.3990  177.6340  143.2870 C   0  0  0  0  0  0  0  0  0  0  0  0
  186.4530  177.7890  144.9200 C   0  0  0  0  0  3  0  0  0  0  0  0
  188.4890  176.1430  136.9420 C   0  0  0  0  0  2  0  0  0  0  0  0
  189.9760  177.5390  141.4440 C   0  0  0  0  0  0  0  0  0  0  0  0
  189.2540  178.3570  139.1860 C   0  0  0  0  0  0  0  0  0  0  0  0
  188.5970  178.6530  136.7750 C   0  0  0  0  0  2  0  0  0  0  0  0
  188.7650  177.3320  136.0320 C   0  0  0  0  0  2  0  0  0  0  0  0
  190.7790  176.0120  138.0280 C   0  0  0  0  0  2  0  0  0  0  0  0
  186.1290  178.3340  142.7630 C   0  0  0  0  0  0  0  0  0  0  0  0
  183.3780  177.8600  141.6360 C   0  0  0  0  0  2  0  0  0  0  0  0
  188.0640  178.5950  139.6610 N   0  0  0  0  0  0  0  0  0  0  0  0
  190.2850  176.1110  139.4670 C   0  0  0  0  0  2  0  0  0  0  0  0
  186.4070  178.5270  141.4470 N   0  0  0  0  0  0  0  0  0  0  0  0
  185.1440  178.1270  144.7530 N   0  0  0  0  0  0  0  0  0  0  0  0
  190.2750  177.5560  139.9680 C   0  0  2  0  0  3  0  0  0  0  0  0
  189.7490  175.3060  137.1510 C   0  0  0  0  0  2  0  0  0  0  0  0
  183.6310  178.8010  142.8180 C   0  0  2  0  0  3  0  0  0  0  0  0
  188.6830  177.8120  141.9110 C   0  0  0  0  0  0  0  0  0  0  0  0
  189.5740  178.7420  137.8490 N   0  0  0  0  0  2  0  0  0  0  0  0
  187.6860  178.2810  141.0100 C   0  0  0  0  0  0  0  0  0  0  0  0
  190.6810  176.9700  143.6490 C   0  0  0  0  0  3  0  0  0  0  0  0
  184.1920  178.1740  140.3670 C   0  0  0  0  0  2  0  0  0  0  0  0
  190.9350  177.1260  142.3200 N   0  0  0  0  0  0  0  0  0  0  0  0
  185.3990  179.1000  140.5520 C   0  0  0  0  0  2  0  0  0  0  0  0
  184.9490  178.4510  143.4480 C   0  0  0  0  0  0  0  0  0  0  0  0
  189.4030  177.2160  144.1590 C   0  0  0  0  0  3  0  0  0  0  0  0
  187.1020  177.8950  143.7030 C   0  0  0  0  0  0  0  0  0  0  0  0
  182.4920  178.6930  143.8210 C   0  0  0  0  0  2  0  0  0  0  0  0
  181.1550  178.6620  143.1000 C   0  0  0  0  0  2  0  0  0  0  0  0
  179.2410  180.1050  140.6850 C   0  0  0  0  0  2  0  0  0  0  0  0
  179.7710  180.5480  142.9500 C   0  0  0  0  0  2  0  0  0  0  0  0
  180.9520  179.9110  142.3820 N   0  0  0  0  0  0  0  0  0  0  0  0
  178.9330  181.0560  141.8050 C   0  0  0  0  0  2  0  0  0  0  0  0
  180.6170  179.5610  141.0050 C   0  0  0  0  0  2  0  0  0  0  0  0
  1 27  2  0  0  0  0
  1 26  1  0  0  0  0
  3 16  1  0  0  0  0
  4 18  1  0  0  0  0
  4 23  2  0  0  0  0
  5 11  2  0  0  0  0
  5 15  1  0  0  0  0
  6 19  1  0  0  0  0
  7  6  1  0  0  0  0
  7  3  1  0  0  0  0
  8 12  1  0  0  0  0
  9 25  2  0  0  0  0
  9 27  1  0  0  0  0
 10 17  1  0  0  0  0
 11 20  1  0  0  0  0
 13  9  1  0  0  0  0
 14  2  2  0  0  0  0
 15 12  1  6  0  0  0
 15  4  1  0  0  0  0
 16  8  1  0  0  0  0
 17 25  1  0  0  0  0
 17 28  1  1  0  0  0
 18  1  1  0  0  0  0
 19  5  1  0  0  0  0
 20 13  1  0  0  0  0
 20 18  2  0  0  0  0
 21 26  2  0  0  0  0
 22 24  1  0  0  0  0
 22 10  1  0  0  0  0
 23 21  1  0  0  0  0
 24 13  1  0  0  0  0
 25 14  1  0  0  0  0
 27  2  1  0  0  0  0
 29 28  1  0  0  0  0
 30 34  1  0  0  0  0
 30 33  1  0  0  0  0
 32 31  1  0  0  0  0
 32 29  1  0  0  0  0
 33 31  1  0  0  0  0
 34 32  1  0  0  0  0
M  END
>  <MODEL>
2

>  <REMARK>
 VINA RESULT:      -9.1      2.487      7.780
  Name = 
  3 active torsions:
  status: ('A' for Active; 'I' for Inactive)
    1  A    between atoms: C_17  and  C_28
    2  A    between atoms: C_28  and  C_29
    3  A    between atoms: C_29  and  N_32
                            x       y       z     vdW  Elec       q    Type
                         _______ _______ _______ _____ _____    ______ ____

>  <TORSDO>
F 3

$$$$
=
 OpenBabel11122412163D

 34 40  0  0  1  0  0  0  0  0999 V2000
  189.1550  177.7240  138.7490 C   0  0  0  0  0  0  0  0  0  0  0  0
  191.0160  177.3290  140.4390 C   0  0  0  0  0  3  0  0  0  0  0  0
  182.7710  176.4600  139.1150 C   0  0  0  0  0  2  0  0  0  0  0  0
  187.1330  178.0850  137.4550 C   0  0  0  0  0  0  0  0  0  0  0  0
  185.0290  178.7410  138.6510 C   0  0  0  0  0  0  0  0  0  0  0  0
  182.7350  178.9150  139.6720 C   0  0  0  0  0  2  0  0  0  0  0  0
  181.9030  177.7010  139.2730 C   0  0  0  0  0  2  0  0  0  0  0  0
  183.5640  176.9010  136.7460 C   0  0  0  0  0  2  0  0  0  0  0  0
  188.9490  177.8230  141.1710 C   0  0  0  0  0  0  0  0  0  0  0  0
  188.1360  176.6790  143.8340 C   0  0  0  0  0  2  0  0  0  0  0  0
  185.6570  178.6520  139.7890 N   0  0  0  0  0  0  0  0  0  0  0  0
  185.0550  176.8340  137.0550 C   0  0  0  0  0  2  0  0  0  0  0  0
  187.6220  178.1130  141.1270 N   0  0  0  0  0  0  0  0  0  0  0  0
  191.0280  177.3190  141.8020 N   0  0  0  0  0  0  0  0  0  0  0  0
  185.6350  178.2140  137.3670 C   0  0  2  0  0  3  0  0  0  0  0  0
  182.7780  175.9740  137.6680 C   0  0  0  0  0  2  0  0  0  0  0  0
  189.3310  177.6240  143.6760 C   0  0  2  0  0  3  0  0  0  0  0  0
  187.7670  178.0020  138.7020 C   0  0  0  0  0  0  0  0  0  0  0  0
  183.6870  179.2290  138.6180 N   0  0  0  0  0  2  0  0  0  0  0  0
  187.0210  178.2180  139.8950 C   0  0  0  0  0  0  0  0  0  0  0  0
  189.2010  177.6660  136.3460 C   0  0  0  0  0  3  0  0  0  0  0  0
  186.7980  177.2230  143.3000 C   0  0  0  0  0  2  0  0  0  0  0  0
  187.8620  177.9140  136.3170 N   0  0  0  0  0  0  0  0  0  0  0  0
  186.8890  178.4260  142.3550 C   0  0  0  0  0  2  0  0  0  0  0  0
  189.7770  177.6130  142.2420 C   0  0  0  0  0  0  0  0  0  0  0  0
  189.8750  177.5600  137.5660 C   0  0  0  0  0  3  0  0  0  0  0  0
  189.7380  177.6290  140.0040 C   0  0  0  0  0  0  0  0  0  0  0  0
  190.4560  177.2010  144.6090 C   0  0  0  0  0  2  0  0  0  0  0  0
  189.8930  176.7710  145.9530 C   0  0  0  0  0  2  0  0  0  0  0  0
  187.7950  177.6760  148.4740 C   0  0  0  0  0  2  0  0  0  0  0  0
  190.0820  177.9930  147.9450 C   0  0  0  0  0  2  0  0  0  0  0  0
  189.3820  177.9300  146.6670 N   0  0  0  0  0  0  0  0  0  0  0  0
  189.0570  178.2870  149.0100 C   0  0  0  0  0  2  0  0  0  0  0  0
  187.9800  177.6590  146.9710 C   0  0  0  0  0  2  0  0  0  0  0  0
  1 27  2  0  0  0  0
  2 14  2  0  0  0  0
  3  7  1  0  0  0  0
  4 18  1  0  0  0  0
  5 11  2  0  0  0  0
  7  6  1  0  0  0  0
  8 12  1  0  0  0  0
  8 16  1  0  0  0  0
  9 25  2  0  0  0  0
 11 20  1  0  0  0  0
 13  9  1  0  0  0  0
 13 24  1  0  0  0  0
 14 25  1  0  0  0  0
 15 12  1  1  0  0  0
 15  4  1  0  0  0  0
 15  5  1  0  0  0  0
 16  3  1  0  0  0  0
 17 10  1  0  0  0  0
 17 28  1  1  0  0  0
 18  1  1  0  0  0  0
 18 20  2  0  0  0  0
 19  5  1  0  0  0  0
 19  6  1  0  0  0  0
 20 13  1  0  0  0  0
 21 26  2  0  0  0  0
 22 10  1  0  0  0  0
 23 21  1  0  0  0  0
 23  4  2  0  0  0  0
 24 22  1  0  0  0  0
 25 17  1  0  0  0  0
 26  1  1  0  0  0  0
 27  2  1  0  0  0  0
 27  9  1  0  0  0  0
 28 29  1  0  0  0  0
 29 32  1  0  0  0  0
 30 33  1  0  0  0  0
 31 33  1  0  0  0  0
 32 34  1  0  0  0  0
 32 31  1  0  0  0  0
 34 30  1  0  0  0  0
M  END
>  <MODEL>
3

>  <REMARK>
 VINA RESULT:      -9.0      1.276      1.641
  Name = 
  3 active torsions:
  status: ('A' for Active; 'I' for Inactive)
    1  A    between atoms: C_17  and  C_28
    2  A    between atoms: C_28  and  C_29
    3  A    between atoms: C_29  and  N_32
                            x       y       z     vdW  Elec       q    Type
                         _______ _______ _______ _____ _____    ______ ____

>  <TORSDO>
F 3

$$$$
=
 OpenBabel11122412163D

 34 40  0  0  1  0  0  0  0  0999 V2000
  191.2730  177.0530  139.6280 C   0  0  0  0  0  0  0  0  0  0  0  0
  192.0400  177.3230  142.0390 C   0  0  0  0  0  3  0  0  0  0  0  0
  185.5270  175.1540  137.2040 C   0  0  0  0  0  2  0  0  0  0  0  0
  190.1680  176.8300  137.4770 C   0  0  0  0  0  0  0  0  0  0  0  0
  187.7620  177.5040  137.2740 C   0  0  0  0  0  0  0  0  0  0  0  0
  185.2680  177.6480  136.9680 C   0  0  0  0  0  2  0  0  0  0  0  0
  184.7200  176.2810  136.5720 C   0  0  0  0  0  2  0  0  0  0  0  0
  187.4020  175.0810  135.4950 C   0  0  0  0  0  2  0  0  0  0  0  0
  189.8930  177.7300  141.5130 C   0  0  0  0  0  0  0  0  0  0  0  0
  187.8410  177.1990  143.6520 C   0  0  0  0  0  2  0  0  0  0  0  0
  187.7390  177.7790  138.5470 N   0  0  0  0  0  0  0  0  0  0  0  0
  188.5400  175.2760  136.4900 C   0  0  0  0  0  2  0  0  0  0  0  0
  188.7690  177.8360  140.7560 N   0  0  0  0  0  0  0  0  0  0  0  0
  191.3730  177.6570  143.1790 N   0  0  0  0  0  0  0  0  0  0  0  0
  188.9160  176.7500  136.6460 C   0  0  2  0  0  3  0  0  0  0  0  0
  186.2430  174.3260  136.1400 C   0  0  0  0  0  2  0  0  0  0  0  0
  188.9760  178.2130  143.8340 C   0  0  2  0  0  3  0  0  0  0  0  0
  190.0970  177.1390  138.8420 C   0  0  0  0  0  0  0  0  0  0  0  0
  186.6240  177.8010  136.4640 N   0  0  0  0  0  2  0  0  0  0  0  0
  188.8620  177.5550  139.4140 C   0  0  0  0  0  0  0  0  0  0  0  0
  192.5060  176.4010  137.6690 C   0  0  0  0  0  3  0  0  0  0  0  0
  186.9570  177.4260  142.4120 C   0  0  0  0  0  2  0  0  0  0  0  0
  191.3630  176.4690  136.9310 N   0  0  0  0  0  0  0  0  0  0  0  0
  187.5290  178.3560  141.3360 C   0  0  0  0  0  2  0  0  0  0  0  0
  190.0750  177.8970  142.8600 C   0  0  0  0  0  0  0  0  0  0  0  0
  192.4820  176.6860  139.0370 C   0  0  0  0  0  3  0  0  0  0  0  0
  191.1540  177.3470  140.9780 C   0  0  0  0  0  0  0  0  0  0  0  0
  189.4800  178.1760  145.2690 C   0  0  0  0  0  2  0  0  0  0  0  0
  189.5930  176.7400  145.7530 C   0  0  0  0  0  2  0  0  0  0  0  0
  189.3410  178.5170  148.6430 C   0  0  0  0  0  2  0  0  0  0  0  0
  187.8590  177.3550  147.2060 C   0  0  0  0  0  2  0  0  0  0  0  0
  189.1300  176.6450  147.1280 N   0  0  0  0  0  0  0  0  0  0  0  0
  187.8860  178.1980  148.4550 C   0  0  0  0  0  2  0  0  0  0  0  0
  190.0780  177.3910  147.9490 C   0  0  0  0  0  2  0  0  0  0  0  0
  1 27  2  0  0  0  0
  2 14  2  0  0  0  0
  4 18  1  0  0  0  0
  5 11  2  0  0  0  0
  7  6  1  0  0  0  0
  7  3  1  0  0  0  0
  8 16  1  0  0  0  0
  8 12  1  0  0  0  0
  9 25  2  0  0  0  0
 10 17  1  0  0  0  0
 11 20  1  0  0  0  0
 13 24  1  0  0  0  0
 13  9  1  0  0  0  0
 15 12  1  1  0  0  0
 15  5  1  0  0  0  0
 15  4  1  0  0  0  0
 16  3  1  0  0  0  0
 17 28  1  1  0  0  0
 18 20  2  0  0  0  0
 18  1  1  0  0  0  0
 19  6  1  0  0  0  0
 19  5  1  0  0  0  0
 20 13  1  0  0  0  0
 21 26  2  0  0  0  0
 22 10  1  0  0  0  0
 23  4  2  0  0  0  0
 23 21  1  0  0  0  0
 24 22  1  0  0  0  0
 25 14  1  0  0  0  0
 25 17  1  0  0  0  0
 26  1  1  0  0  0  0
 27  9  1  0  0  0  0
 27  2  1  0  0  0  0
 28 29  1  0  0  0  0
 29 32  1  0  0  0  0
 31 33  1  0  0  0  0
 32 31  1  0  0  0  0
 32 34  1  0  0  0  0
 33 30  1  0  0  0  0
 34 30  1  0  0  0  0
M  END
>  <MODEL>
4

>  <REMARK>
 VINA RESULT:      -8.8      2.096      3.460
  Name = 
  3 active torsions:
  status: ('A' for Active; 'I' for Inactive)
    1  A    between atoms: C_17  and  C_28
    2  A    between atoms: C_28  and  C_29
    3  A    between atoms: C_29  and  N_32
                            x       y       z     vdW  Elec       q    Type
                         _______ _______ _______ _____ _____    ______ ____

>  <TORSDO>
F 3

$$$$
=
 OpenBabel11122412163D

 34 40  0  0  1  0  0  0  0  0999 V2000
  187.2750  178.0770  143.0330 C   0  0  0  0  0  0  0  0  0  0  0  0
  185.0330  178.2350  144.2270 C   0  0  0  0  0  3  0  0  0  0  0  0
  188.7360  175.9890  137.0340 C   0  0  0  0  0  2  0  0  0  0  0  0
  189.1960  177.9290  141.5560 C   0  0  0  0  0  0  0  0  0  0  0  0
  188.8990  178.4640  139.1250 C   0  0  0  0  0  0  0  0  0  0  0  0
  188.7280  178.4720  136.6130 C   0  0  0  0  0  2  0  0  0  0  0  0
  189.1200  177.1030  136.0680 C   0  0  0  0  0  2  0  0  0  0  0  0
  190.7610  176.1470  138.5540 C   0  0  0  0  0  2  0  0  0  0  0  0
  185.1210  178.5400  142.0020 C   0  0  0  0  0  0  0  0  0  0  0  0
  182.6880  177.7420  140.4190 C   0  0  0  0  0  2  0  0  0  0  0  0
  187.6260  178.6520  139.3280 N   0  0  0  0  0  0  0  0  0  0  0  0
  189.9820  176.3450  139.8480 C   0  0  0  0  0  2  0  0  0  0  0  0
  185.6480  178.6260  140.7520 N   0  0  0  0  0  0  0  0  0  0  0  0
  183.7670  178.4490  143.7710 N   0  0  0  0  0  0  0  0  0  0  0  0
  189.7850  177.8270  140.1740 C   0  0  2  0  0  3  0  0  0  0  0  0
  189.9740  175.2800  137.5760 C   0  0  0  0  0  2  0  0  0  0  0  0
  182.6410  178.8100  141.5160 C   0  0  2  0  0  3  0  0  0  0  0  0
  187.8210  178.1420  141.7280 C   0  0  0  0  0  0  0  0  0  0  0  0
  189.4600  178.7420  137.8410 N   0  0  0  0  0  2  0  0  0  0  0  0
  187.0020  178.4410  140.6040 C   0  0  0  0  0  0  0  0  0  0  0  0
  189.4710  177.6350  143.9060 C   0  0  0  0  0  3  0  0  0  0  0  0
  183.7230  177.9950  139.3060 C   0  0  0  0  0  2  0  0  0  0  0  0
  189.9790  177.6800  142.6430 N   0  0  0  0  0  0  0  0  0  0  0  0
  184.8110  179.0280  139.6200 C   0  0  0  0  0  2  0  0  0  0  0  0
  183.8220  178.6290  142.4260 C   0  0  0  0  0  0  0  0  0  0  0  0
  188.1050  177.8270  144.1260 C   0  0  0  0  0  3  0  0  0  0  0  0
  185.9080  178.2730  143.1570 C   0  0  0  0  0  0  0  0  0  0  0  0
  181.3300  178.7100  142.2830 C   0  0  0  0  0  2  0  0  0  0  0  0
  180.2980  177.9520  141.4660 C   0  0  0  0  0  2  0  0  0  0  0  0
  179.6460  181.1210  140.4150 C   0  0  0  0  0  2  0  0  0  0  0  0
  179.1980  178.9280  139.6410 C   0  0  0  0  0  2  0  0  0  0  0  0
  179.2100  178.8430  141.0960 N   0  0  0  0  0  0  0  0  0  0  0  0
  179.0170  180.3790  139.2720 C   0  0  0  0  0  2  0  0  0  0  0  0
  179.5600  180.1710  141.5900 C   0  0  0  0  0  2  0  0  0  0  0  0
  1 27  2  0  0  0  0
  1 26  1  0  0  0  0
  3 16  1  0  0  0  0
  4 18  1  0  0  0  0
  4 23  2  0  0  0  0
  5 11  2  0  0  0  0
  5 15  1  0  0  0  0
  6 19  1  0  0  0  0
  7  6  1  0  0  0  0
  7  3  1  0  0  0  0
  8 12  1  0  0  0  0
  9 25  2  0  0  0  0
  9 27  1  0  0  0  0
 10 17  1  0  0  0  0
 11 20  1  0  0  0  0
 13  9  1  0  0  0  0
 14  2  2  0  0  0  0
 15 12  1  6  0  0  0
 15  4  1  0  0  0  0
 16  8  1  0  0  0  0
 17 28  1  1  0  0  0
 17 25  1  0  0  0  0
 18  1  1  0  0  0  0
 19  5  1  0  0  0  0
 20 13  1  0  0  0  0
 20 18  2  0  0  0  0
 21 26  2  0  0  0  0
 22 24  1  0  0  0  0
 22 10  1  0  0  0  0
 23 21  1  0  0  0  0
 24 13  1  0  0  0  0
 25 14  1  0  0  0  0
 27  2  1  0  0  0  0
 29 28  1  0  0  0  0
 30 34  1  0  0  0  0
 31 32  1  0  0  0  0
 32 29  1  0  0  0  0
 32 34  1  0  0  0  0
 33 31  1  0  0  0  0
 33 30  1  0  0  0  0
M  END
>  <MODEL>
5

>  <REMARK>
 VINA RESULT:      -8.7      2.352      8.229
  Name = 
  3 active torsions:
  status: ('A' for Active; 'I' for Inactive)
    1  A    between atoms: C_17  and  C_28
    2  A    between atoms: C_28  and  C_29
    3  A    between atoms: C_29  and  N_32
                            x       y       z     vdW  Elec       q    Type
                         _______ _______ _______ _____ _____    ______ ____

>  <TORSDO>
F 3

$$$$
=
 OpenBabel11122412163D

 34 40  0  0  1  0  0  0  0  0999 V2000
  186.5260  177.6690  137.8100 C   0  0  0  0  0  0  0  0  0  0  0  0
  188.8590  177.4640  138.8050 C   0  0  0  0  0  3  0  0  0  0  0  0
  180.6670  177.0100  140.5920 C   0  0  0  0  0  2  0  0  0  0  0  0
  184.1800  177.9310  137.2400 C   0  0  0  0  0  0  0  0  0  0  0  0
  182.6340  178.9720  138.9160 C   0  0  0  0  0  0  0  0  0  0  0  0
  180.8440  179.5220  140.5990 C   0  0  0  0  0  2  0  0  0  0  0  0
  179.9180  178.3240  140.7720 C   0  0  0  0  0  2  0  0  0  0  0  0
  180.5820  176.9180  138.0570 C   0  0  0  0  0  2  0  0  0  0  0  0
  187.1830  178.2530  140.0780 C   0  0  0  0  0  0  0  0  0  0  0  0
  187.3480  177.7170  143.0360 C   0  0  0  0  0  2  0  0  0  0  0  0
  183.6200  179.0560  139.7640 N   0  0  0  0  0  0  0  0  0  0  0  0
  182.0860  176.7950  137.8460 C   0  0  0  0  0  2  0  0  0  0  0  0
  185.9260  178.6330  140.4300 N   0  0  0  0  0  0  0  0  0  0  0  0
  189.3470  177.7180  140.0520 N   0  0  0  0  0  0  0  0  0  0  0  0
  182.7480  178.1590  137.6440 C   0  0  2  0  0  3  0  0  0  0  0  0
  180.1640  176.2530  139.3650 C   0  0  0  0  0  2  0  0  0  0  0  0
  188.4180  178.5160  142.2840 C   0  0  2  0  0  3  0  0  0  0  0  0
  185.2110  178.0410  138.1830 C   0  0  0  0  0  0  0  0  0  0  0  0
  181.3680  179.5480  139.2420 N   0  0  0  0  0  2  0  0  0  0  0  0
  184.9320  178.5440  139.4850 C   0  0  0  0  0  0  0  0  0  0  0  0
  185.7260  177.1410  135.6050 C   0  0  0  0  0  3  0  0  0  0  0  0
  185.9110  178.2510  142.8900 C   0  0  0  0  0  2  0  0  0  0  0  0
  184.4630  177.4840  135.9840 N   0  0  0  0  0  0  0  0  0  0  0  0
  185.6730  179.2370  141.7400 C   0  0  0  0  0  2  0  0  0  0  0  0
  188.3320  178.1910  140.8210 C   0  0  0  0  0  0  0  0  0  0  0  0
  186.7840  177.2210  136.5150 C   0  0  0  0  0  3  0  0  0  0  0  0
  187.5110  177.7740  138.7800 C   0  0  0  0  0  0  0  0  0  0  0  0
  189.7960  178.1930  142.8440 C   0  0  0  0  0  2  0  0  0  0  0  0
  189.6840  177.1790  143.9690 C   0  0  0  0  0  2  0  0  0  0  0  0
  189.8530  176.7530  147.3400 C   0  0  0  0  0  2  0  0  0  0  0  0
  191.3810  176.7530  145.5300 C   0  0  0  0  0  2  0  0  0  0  0  0
  190.3300  177.6960  145.1660 N   0  0  0  0  0  0  0  0  0  0  0  0
  191.3050  176.5430  147.0210 C   0  0  0  0  0  2  0  0  0  0  0  0
  189.3390  177.6530  146.2370 C   0  0  0  0  0  2  0  0  0  0  0  0
  1 18  1  0  0  0  0
  1 27  2  0  0  0  0
  2 14  2  0  0  0  0
  3  7  1  0  0  0  0
  4 15  1  0  0  0  0
  4 18  1  0  0  0  0
  5 19  1  0  0  0  0
  5 11  2  0  0  0  0
  6  7  1  0  0  0  0
  8 16  1  0  0  0  0
  9 13  1  0  0  0  0
  9 25  2  0  0  0  0
 12  8  1  0  0  0  0
 13 24  1  0  0  0  0
 14 25  1  0  0  0  0
 15 12  1  1  0  0  0
 15  5  1  0  0  0  0
 16  3  1  0  0  0  0
 17 28  1  1  0  0  0
 17 10  1  0  0  0  0
 18 20  2  0  0  0  0
 19  6  1  0  0  0  0
 20 11  1  0  0  0  0
 20 13  1  0  0  0  0
 21 23  1  0  0  0  0
 21 26  2  0  0  0  0
 22 10  1  0  0  0  0
 23  4  2  0  0  0  0
 24 22  1  0  0  0  0
 25 17  1  0  0  0  0
 26  1  1  0  0  0  0
 27  2  1  0  0  0  0
 27  9  1  0  0  0  0
 28 29  1  0  0  0  0
 29 32  1  0  0  0  0
 31 33  1  0  0  0  0
 32 31  1  0  0  0  0
 32 34  1  0  0  0  0
 33 30  1  0  0  0  0
 34 30  1  0  0  0  0
M  END
>  <MODEL>
6

>  <REMARK>
 VINA RESULT:      -8.6      1.440      2.123
  Name = 
  3 active torsions:
  status: ('A' for Active; 'I' for Inactive)
    1  A    between atoms: C_17  and  C_28
    2  A    between atoms: C_28  and  C_29
    3  A    between atoms: C_29  and  N_32
                            x       y       z     vdW  Elec       q    Type
                         _______ _______ _______ _____ _____    ______ ____

>  <TORSDO>
F 3

$$$$
=
 OpenBabel11122412163D

 34 40  0  0  1  0  0  0  0  0999 V2000
  181.4980  179.0160  143.3920 C   0  0  0  0  0  0  0  0  0  0  0  0
  183.5040  178.6320  144.9100 C   0  0  0  0  0  3  0  0  0  0  0  0
  181.1760  181.3820  137.3260 C   0  0  0  0  0  2  0  0  0  0  0  0
  179.8530  179.3710  141.6420 C   0  0  0  0  0  0  0  0  0  0  0  0
  180.4820  178.8770  139.2670 C   0  0  0  0  0  0  0  0  0  0  0  0
  181.0450  178.9200  136.8140 C   0  0  0  0  0  2  0  0  0  0  0  0
  180.8580  180.3320  136.2690 C   0  0  0  0  0  2  0  0  0  0  0  0
  178.9310  181.3620  138.5080 C   0  0  0  0  0  2  0  0  0  0  0  0
  183.7420  178.3940  142.6880 C   0  0  0  0  0  0  0  0  0  0  0  0
  186.4510  179.0170  141.5320 C   0  0  0  0  0  2  0  0  0  0  0  0
  181.6880  178.5720  139.6570 N   0  0  0  0  0  0  0  0  0  0  0  0
  179.4780  181.0620  139.8980 C   0  0  0  0  0  2  0  0  0  0  0  0
  183.4130  178.3880  141.3690 N   0  0  0  0  0  0  0  0  0  0  0  0
  184.8040  178.3190  144.6470 N   0  0  0  0  0  0  0  0  0  0  0  0
  179.4980  179.5610  140.1910 C   0  0  2  0  0  3  0  0  0  0  0  0
  179.9310  182.1830  137.6980 C   0  0  0  0  0  2  0  0  0  0  0  0
  186.2370  177.9200  142.5800 C   0  0  2  0  0  3  0  0  0  0  0  0
  181.1600  179.0340  142.0160 C   0  0  0  0  0  0  0  0  0  0  0  0
  180.1090  178.6830  137.9010 N   0  0  0  0  0  2  0  0  0  0  0  0
  182.1190  178.6940  141.0210 C   0  0  0  0  0  0  0  0  0  0  0  0
  179.2360  179.6260  143.9310 C   0  0  0  0  0  3  0  0  0  0  0  0
  185.5870  178.8860  140.2640 C   0  0  0  0  0  2  0  0  0  0  0  0
  178.9310  179.6590  142.6040 N   0  0  0  0  0  0  0  0  0  0  0  0
  184.3820  177.9440  140.3640 C   0  0  0  0  0  2  0  0  0  0  0  0
  184.9460  178.1800  143.3040 C   0  0  0  0  0  0  0  0  0  0  0  0
  180.5310  179.3090  144.3520 C   0  0  0  0  0  3  0  0  0  0  0  0
  182.8080  178.6980  143.7170 C   0  0  0  0  0  0  0  0  0  0  0  0
  187.4150  177.8850  143.5430 C   0  0  0  0  0  2  0  0  0  0  0  0
  188.3140  176.7000  143.2340 C   0  0  0  0  0  2  0  0  0  0  0  0
  191.6550  177.2880  142.9730 C   0  0  0  0  0  2  0  0  0  0  0  0
  189.8390  178.2040  144.1870 C   0  0  0  0  0  2  0  0  0  0  0  0
  189.5340  176.7880  144.0210 N   0  0  0  0  0  0  0  0  0  0  0  0
  191.3160  178.3830  143.9430 C   0  0  0  0  0  2  0  0  0  0  0  0
  190.6060  176.2220  143.2090 C   0  0  0  0  0  2  0  0  0  0  0  0
  1 27  2  0  0  0  0
  1 26  1  0  0  0  0
  3 16  1  0  0  0  0
  4 18  1  0  0  0  0
  4 23  2  0  0  0  0
  5 11  2  0  0  0  0
  5 15  1  0  0  0  0
  6 19  1  0  0  0  0
  7  6  1  0  0  0  0
  7  3  1  0  0  0  0
  8 12  1  0  0  0  0
  9 25  2  0  0  0  0
  9 27  1  0  0  0  0
 10 17  1  0  0  0  0
 11 20  1  0  0  0  0
 13  9  1  0  0  0  0
 14  2  2  0  0  0  0
 15 12  1  6  0  0  0
 15  4  1  0  0  0  0
 16  8  1  0  0  0  0
 17 25  1  0  0  0  0
 17 28  1  1  0  0  0
 18  1  1  0  0  0  0
 19  5  1  0  0  0  0
 20 13  1  0  0  0  0
 20 18  2  0  0  0  0
 21 26  2  0  0  0  0
 22 24  1  0  0  0  0
 22 10  1  0  0  0  0
 23 21  1  0  0  0  0
 24 13  1  0  0  0  0
 25 14  1  0  0  0  0
 27  2  1  0  0  0  0
 29 28  1  0  0  0  0
 29 32  1  0  0  0  0
 30 34  1  0  0  0  0
 30 33  1  0  0  0  0
 32 31  1  0  0  0  0
 33 31  1  0  0  0  0
 34 32  1  0  0  0  0
M  END
>  <MODEL>
7

>  <REMARK>
 VINA RESULT:      -8.3      3.310      6.508
  Name = 
  3 active torsions:
  status: ('A' for Active; 'I' for Inactive)
    1  A    between atoms: C_17  and  C_28
    2  A    between atoms: C_28  and  C_29
    3  A    between atoms: C_29  and  N_32
                            x       y       z     vdW  Elec       q    Type
                         _______ _______ _______ _____ _____    ______ ____

>  <TORSDO>
F 3

$$$$
=
 OpenBabel11122412163D

 34 40  0  0  1  0  0  0  0  0999 V2000
  188.2170  178.2220  141.1020 C   0  0  0  0  0  0  0  0  0  0  0  0
  186.0140  178.8900  142.1850 C   0  0  0  0  0  3  0  0  0  0  0  0
  189.4200  174.3710  135.9820 C   0  0  0  0  0  2  0  0  0  0  0  0
  190.0970  177.5040  139.7440 C   0  0  0  0  0  0  0  0  0  0  0  0
  189.8010  177.3280  137.2600 C   0  0  0  0  0  0  0  0  0  0  0  0
  189.5900  176.6160  134.8550 C   0  0  0  0  0  2  0  0  0  0  0  0
  189.8700  175.1220  134.7360 C   0  0  0  0  0  2  0  0  0  0  0  0
  191.4770  174.8110  137.4020 C   0  0  0  0  0  2  0  0  0  0  0  0
  186.0870  178.5260  139.9680 C   0  0  0  0  0  0  0  0  0  0  0  0
  183.5760  177.4870  138.6720 C   0  0  0  0  0  2  0  0  0  0  0  0
  188.5490  177.6630  137.3930 N   0  0  0  0  0  0  0  0  0  0  0  0
  190.7360  175.4360  138.5770 C   0  0  0  0  0  2  0  0  0  0  0  0
  186.5980  178.2030  138.7510 N   0  0  0  0  0  0  0  0  0  0  0  0
  184.7600  179.0570  141.6790 N   0  0  0  0  0  0  0  0  0  0  0  0
  190.6550  176.9590  138.4560 C   0  0  2  0  0  3  0  0  0  0  0  0
  190.6110  173.7580  136.7150 C   0  0  0  0  0  2  0  0  0  0  0  0
  183.6260  178.8300  139.4100 C   0  0  2  0  0  3  0  0  0  0  0  0
  188.7460  177.8620  139.8380 C   0  0  0  0  0  0  0  0  0  0  0  0
  190.3600  177.1760  135.9540 N   0  0  0  0  0  2  0  0  0  0  0  0
  187.9320  177.8810  138.6710 C   0  0  0  0  0  0  0  0  0  0  0  0
  190.3890  177.8880  142.0790 C   0  0  0  0  0  3  0  0  0  0  0  0
  184.6080  177.3260  137.5410 C   0  0  0  0  0  2  0  0  0  0  0  0
  190.8780  177.5240  140.8600 N   0  0  0  0  0  0  0  0  0  0  0  0
  185.7750  178.3200  137.5450 C   0  0  0  0  0  2  0  0  0  0  0  0
  184.8050  178.8330  140.3400 C   0  0  0  0  0  0  0  0  0  0  0  0
  189.0440  178.2390  142.2250 C   0  0  0  0  0  3  0  0  0  0  0  0
  186.8710  178.5480  141.1550 C   0  0  0  0  0  0  0  0  0  0  0  0
  182.3240  179.0570  140.1640 C   0  0  0  0  0  2  0  0  0  0  0  0
  181.7110  180.3890  139.7690 C   0  0  0  0  0  2  0  0  0  0  0  0
  179.6890  180.7070  137.0510 C   0  0  0  0  0  2  0  0  0  0  0  0
  181.4640  181.9360  138.0250 C   0  0  0  0  0  2  0  0  0  0  0  0
  181.7390  180.5360  138.3220 N   0  0  0  0  0  0  0  0  0  0  0  0
  180.4770  181.9740  136.8860 C   0  0  0  0  0  2  0  0  0  0  0  0
  180.6150  179.7680  137.7950 C   0  0  0  0  0  2  0  0  0  0  0  0
  1 27  2  0  0  0  0
  1 26  1  0  0  0  0
  3 16  1  0  0  0  0
  4 18  1  0  0  0  0
  4 23  2  0  0  0  0
  5 11  2  0  0  0  0
  5 15  1  0  0  0  0
  6 19  1  0  0  0  0
  7  6  1  0  0  0  0
  7  3  1  0  0  0  0
  8 12  1  0  0  0  0
  9 25  2  0  0  0  0
  9 27  1  0  0  0  0
 10 17  1  0  0  0  0
 11 20  1  0  0  0  0
 13  9  1  0  0  0  0
 14  2  2  0  0  0  0
 15 12  1  1  0  0  0
 15  4  1  0  0  0  0
 16  8  1  0  0  0  0
 17 28  1  1  0  0  0
 17 25  1  0  0  0  0
 18  1  1  0  0  0  0
 19  5  1  0  0  0  0
 20 13  1  0  0  0  0
 20 18  2  0  0  0  0
 21 26  2  0  0  0  0
 22 24  1  0  0  0  0
 22 10  1  0  0  0  0
 23 21  1  0  0  0  0
 24 13  1  0  0  0  0
 25 14  1  0  0  0  0
 27  2  1  0  0  0  0
 29 28  1  0  0  0  0
 30 34  1  0  0  0  0
 31 32  1  0  0  0  0
 32 29  1  0  0  0  0
 33 30  1  0  0  0  0
 33 31  1  0  0  0  0
 34 32  1  0  0  0  0
M  END
>  <MODEL>
8

>  <REMARK>
 VINA RESULT:      -6.9      2.362      8.325
  Name = 
  3 active torsions:
  status: ('A' for Active; 'I' for Inactive)
    1  A    between atoms: C_17  and  C_28
    2  A    between atoms: C_28  and  C_29
    3  A    between atoms: C_29  and  N_32
                            x       y       z     vdW  Elec       q    Type
                         _______ _______ _______ _____ _____    ______ ____

>  <TORSDO>
F 3

$$$$
=
 OpenBabel11122412163D

 34 40  0  0  1  0  0  0  0  0999 V2000
  190.3770  177.3610  141.9160 C   0  0  0  0  0  0  0  0  0  0  0  0
  189.6120  177.2660  144.3410 C   0  0  0  0  0  3  0  0  0  0  0  0
  187.0340  176.4860  136.3890 C   0  0  0  0  0  2  0  0  0  0  0  0
  190.7180  177.5160  139.5170 C   0  0  0  0  0  0  0  0  0  0  0  0
  188.9070  178.5100  138.0970 C   0  0  0  0  0  0  0  0  0  0  0  0
  187.0620  179.0030  136.4570 C   0  0  0  0  0  2  0  0  0  0  0  0
  186.7910  177.7690  135.6040 C   0  0  0  0  0  2  0  0  0  0  0  0
  189.5470  176.3620  136.0620 C   0  0  0  0  0  2  0  0  0  0  0  0
  188.1880  177.9980  142.7640 C   0  0  0  0  0  0  0  0  0  0  0  0
  185.2560  177.5030  143.2380 C   0  0  0  0  0  2  0  0  0  0  0  0
  188.1600  178.6450  139.1560 N   0  0  0  0  0  0  0  0  0  0  0  0
  189.9030  176.3000  137.5430 C   0  0  0  0  0  2  0  0  0  0  0  0
  187.7180  178.3280  141.5320 N   0  0  0  0  0  0  0  0  0  0  0  0
  188.4210  177.5550  144.9370 N   0  0  0  0  0  0  0  0  0  0  0  0
  190.1790  177.6880  138.1220 C   0  0  2  0  0  3  0  0  0  0  0  0
  188.2000  175.6950  135.8020 C   0  0  0  0  0  2  0  0  0  0  0  0
  186.1140  178.3380  144.1940 C   0  0  2  0  0  3  0  0  0  0  0  0
  189.8800  177.6820  140.6290 C   0  0  0  0  0  0  0  0  0  0  0  0
  188.4640  179.0360  136.8450 N   0  0  0  0  0  2  0  0  0  0  0  0
  188.5610  178.1860  140.4560 C   0  0  0  0  0  0  0  0  0  0  0  0
  192.4900  176.7740  140.9300 C   0  0  0  0  0  3  0  0  0  0  0  0
  185.2660  177.9750  141.7720 C   0  0  0  0  0  2  0  0  0  0  0  0
  191.9920  177.0680  139.6960 N   0  0  0  0  0  0  0  0  0  0  0  0
  186.3940  178.9360  141.3800 C   0  0  0  0  0  2  0  0  0  0  0  0
  187.5600  177.9930  143.9810 C   0  0  0  0  0  0  0  0  0  0  0  0
  191.6880  176.9100  142.0670 C   0  0  0  0  0  3  0  0  0  0  0  0
  189.5080  177.5180  142.9850 C   0  0  0  0  0  0  0  0  0  0  0  0
  185.6890  178.0810  145.6320 C   0  0  0  0  0  2  0  0  0  0  0  0
  186.0550  179.2650  146.5110 C   0  0  0  0  0  2  0  0  0  0  0  0
  188.1270  177.0030  147.9820 C   0  0  0  0  0  2  0  0  0  0  0  0
  187.8410  179.3530  148.0270 C   0  0  0  0  0  2  0  0  0  0  0  0
  186.5120  178.7940  147.8090 N   0  0  0  0  0  0  0  0  0  0  0  0
  188.7130  178.2520  148.5730 C   0  0  0  0  0  2  0  0  0  0  0  0
  186.6790  177.3480  147.7020 C   0  0  0  0  0  2  0  0  0  0  0  0
  1 26  1  0  0  0  0
  1 27  2  0  0  0  0
  2 14  2  0  0  0  0
  4 23  2  0  0  0  0
  4 18  1  0  0  0  0
  5 15  1  0  0  0  0
  5 11  2  0  0  0  0
  6 19  1  0  0  0  0
  7  3  1  0  0  0  0
  7  6  1  0  0  0  0
  8 12  1  0  0  0  0
  9 27  1  0  0  0  0
  9 25  2  0  0  0  0
 10 17  1  0  0  0  0
 11 20  1  0  0  0  0
 13  9  1  0  0  0  0
 15 12  1  1  0  0  0
 15  4  1  0  0  0  0
 16  8  1  0  0  0  0
 16  3  1  0  0  0  0
 17 28  1  1  0  0  0
 18  1  1  0  0  0  0
 19  5  1  0  0  0  0
 20 18  2  0  0  0  0
 20 13  1  0  0  0  0
 21 26  2  0  0  0  0
 22 10  1  0  0  0  0
 23 21  1  0  0  0  0
 24 13  1  0  0  0  0
 24 22  1  0  0  0  0
 25 17  1  0  0  0  0
 25 14  1  0  0  0  0
 27  2  1  0  0  0  0
 28 29  1  0  0  0  0
 29 32  1  0  0  0  0
 30 33  1  0  0  0  0
 31 33  1  0  0  0  0
 32 31  1  0  0  0  0
 34 32  1  0  0  0  0
 34 30  1  0  0  0  0
M  END
>  <MODEL>
9

>  <REMARK>
 VINA RESULT:      -6.8      2.457      5.006
  Name = 
  3 active torsions:
  status: ('A' for Active; 'I' for Inactive)
    1  A    between atoms: C_17  and  C_28
    2  A    between atoms: C_28  and  C_29
    3  A    between atoms: C_29  and  N_32
                            x       y       z     vdW  Elec       q    Type
                         _______ _______ _______ _____ _____    ______ ____

>  <TORSDO>
F 3

$$$$
