=
 OpenBabel11122411563D

 28 32  0  0  1  0  0  0  0  0999 V2000
  189.4100  178.1410  138.0610 C   0  0  0  0  0  0  0  0  0  0  0  0
  192.3470  175.9210  134.5940 F   0  0  0  0  0  0  0  0  0  0  0  0
  186.6290  174.6080  137.2980 O   0  0  0  0  0  0  0  0  0  0  0  0
  189.9400  176.8310  140.4780 C   0  0  0  0  0  3  0  0  0  0  0  0
  188.7700  173.6880  136.7590 C   0  0  0  0  0  0  0  0  0  0  0  0
  189.1040  178.7510  136.8440 O   0  0  0  0  0  0  0  0  0  0  0  0
  193.9190  176.7130  136.1630 C   0  0  0  0  0  1  0  0  0  0  0  0
  192.9450  175.6080  135.8050 C   0  0  1  0  0  0  0  0  0  0  0  0
  192.7300  173.1670  135.5000 C   0  0  1  0  0  3  0  0  0  0  0  0
  191.8980  175.4730  136.9330 C   0  0  2  0  0  3  0  0  0  0  0  0
  186.4080  177.5140  137.6050 O   0  0  0  0  0  1  0  0  0  0  0  0
  189.6940  175.7040  135.8840 C   0  0  1  0  0  3  0  0  0  0  0  0
  192.0370  172.9890  136.7120 O   0  0  0  0  0  0  0  0  0  0  0  0
  193.7220  174.3120  135.6380 C   0  0  0  0  0  2  0  0  0  0  0  0
  186.8450  177.9700  136.3600 C   0  0  2  0  0  3  0  0  0  0  0  0
  190.2200  176.9960  138.0650 C   0  0  0  0  0  0  0  0  0  0  0  0
  187.7980  174.7420  136.8490 C   0  0  0  0  0  0  0  0  0  0  0  0
  193.4770  171.8950  135.1590 C   0  0  0  0  0  1  0  0  0  0  0  0
  187.4350  176.8330  135.5160 C   0  0  0  0  0  2  0  0  0  0  0  0
  190.4680  176.3380  139.2830 C   0  0  0  0  0  3  0  0  0  0  0  0
  188.8770  178.6300  139.2630 C   0  0  0  0  0  3  0  0  0  0  0  0
  189.1460  177.9790  140.4680 C   0  0  0  0  0  3  0  0  0  0  0  0
  187.7860  179.1670  136.5130 C   0  0  0  0  0  2  0  0  0  0  0  0
  189.9790  174.1910  136.0560 C   0  0  1  0  0  3  0  0  0  0  0  0
  188.3010  175.9440  136.2900 N   0  0  0  0  0  0  0  0  0  0  0  0
  191.2010  174.1060  136.9570 C   0  0  2  0  0  3  0  0  0  0  0  0
  188.6010  172.5090  137.1660 O   0  0  0  0  0  0  0  0  0  0  0  0
  190.7420  176.4560  136.7460 C   0  0  1  0  0  3  0  0  0  0  0  0
  1 16  2  0  0  0  0
  1 21  1  0  0  0  0
  2  8  1  0  0  0  0
  5 17  1  0  0  0  0
  5 27  2  0  0  0  0
  6  1  1  0  0  0  0
  8  7  1  1  0  0  0
  8 10  1  0  0  0  0
  9 18  1  1  0  0  0
  9 14  1  0  0  0  0
  9 13  1  0  0  0  0
 10 26  1  0  0  0  0
 12 24  1  0  0  0  0
 12 25  1  0  0  0  0
 12 28  1  0  0  0  0
 13 26  1  0  0  0  0
 14  8  1  0  0  0  0
 15 23  1  0  0  0  0
 15 11  1  0  0  0  0
 16 20  1  0  0  0  0
 17  3  2  0  0  0  0
 19 25  1  0  0  0  0
 19 15  1  0  0  0  0
 20  4  2  0  0  0  0
 21 22  2  0  0  0  0
 22  4  1  0  0  0  0
 23  6  1  0  0  0  0
 24  5  1  0  0  0  0
 24 26  1  0  0  0  0
 25 17  1  0  0  0  0
 28 10  1  0  0  0  0
 28 16  1  0  0  0  0
M  END
>  <MODEL>
1

>  <REMARK>
 VINA RESULT:      -6.1      0.000      0.000
  Name = 
  0 active torsions:
  status: ('A' for Active; 'I' for Inactive)
                            x       y       z     vdW  Elec       q    Type
                         _______ _______ _______ _____ _____    ______ ____

>  <TORSDO>
F 0

$$$$
=
 OpenBabel11122411563D

 28 32  0  0  1  0  0  0  0  0999 V2000
  179.8680  179.2020  137.2330 C   0  0  0  0  0  0  0  0  0  0  0  0
  181.2850  174.5740  138.7020 F   0  0  0  0  0  0  0  0  0  0  0  0
  183.8220  180.5030  139.0940 O   0  0  0  0  0  0  0  0  0  0  0  0
  181.1820  179.6810  134.8080 C   0  0  0  0  0  3  0  0  0  0  0  0
  184.2820  178.2400  138.4670 C   0  0  0  0  0  0  0  0  0  0  0  0
  179.2620  178.9840  138.4710 O   0  0  0  0  0  0  0  0  0  0  0  0
  180.2920  174.1620  136.6030 C   0  0  0  0  0  1  0  0  0  0  0  0
  181.5430  174.6000  137.3400 C   0  0  1  0  0  0  0  0  0  0  0  0
  183.9600  174.1570  137.5940 C   0  0  1  0  0  3  0  0  0  0  0  0
  181.9400  176.0150  136.8650 C   0  0  2  0  0  3  0  0  0  0  0  0
  181.0350  181.4070  139.0740 O   0  0  0  0  0  1  0  0  0  0  0  0
  182.0810  177.4190  138.8710 C   0  0  1  0  0  3  0  0  0  0  0  0
  184.3340  175.3050  136.8710 O   0  0  0  0  0  0  0  0  0  0  0  0
  182.6530  173.6050  137.0420 C   0  0  0  0  0  2  0  0  0  0  0  0
  180.4360  180.5140  139.9640 C   0  0  2  0  0  3  0  0  0  0  0  0
  180.8330  178.2920  136.7780 C   0  0  0  0  0  0  0  0  0  0  0  0
  183.4420  179.3150  138.9160 C   0  0  0  0  0  0  0  0  0  0  0  0
  185.0430  173.1080  137.4630 C   0  0  0  0  0  1  0  0  0  0  0  0
  181.3900  179.3780  140.3550 C   0  0  0  0  0  2  0  0  0  0  0  0
  181.4970  178.5500  135.5650 C   0  0  0  0  0  3  0  0  0  0  0  0
  179.5570  180.3390  136.4730 C   0  0  0  0  0  3  0  0  0  0  0  0
  180.2090  180.5740  135.2620 C   0  0  0  0  0  3  0  0  0  0  0  0
  179.0900  180.0230  139.4260 C   0  0  0  0  0  2  0  0  0  0  0  0
  183.5170  176.9670  138.5100 C   0  0  1  0  0  3  0  0  0  0  0  0
  182.1360  178.8480  139.2140 N   0  0  0  0  0  0  0  0  0  0  0  0
  183.4140  176.3530  137.1220 C   0  0  2  0  0  3  0  0  0  0  0  0
  185.4920  178.3530  138.1400 O   0  0  0  0  0  0  0  0  0  0  0  0
  181.1890  177.0970  137.6430 C   0  0  1  0  0  3  0  0  0  0  0  0
  1  6  1  0  0  0  0
  4 22  2  0  0  0  0
  4 20  1  0  0  0  0
  5 24  1  0  0  0  0
  5 17  1  0  0  0  0
  6 23  1  0  0  0  0
  8  7  1  6  0  0  0
  8  2  1  0  0  0  0
  9 18  1  6  0  0  0
 10 26  1  0  0  0  0
 10  8  1  0  0  0  0
 10 28  1  0  0  0  0
 11 15  1  0  0  0  0
 12 25  1  0  0  0  0
 13 26  1  0  0  0  0
 13  9  1  0  0  0  0
 14  8  1  0  0  0  0
 14  9  1  0  0  0  0
 15 19  1  0  0  0  0
 16  1  1  0  0  0  0
 16 28  1  0  0  0  0
 17  3  2  0  0  0  0
 17 25  1  0  0  0  0
 20 16  2  0  0  0  0
 21  1  2  0  0  0  0
 22 21  1  0  0  0  0
 23 15  1  0  0  0  0
 24 12  1  0  0  0  0
 25 19  1  0  0  0  0
 26 24  1  0  0  0  0
 27  5  2  0  0  0  0
 28 12  1  0  0  0  0
M  END
>  <MODEL>
2

>  <REMARK>
 VINA RESULT:      -5.2      6.426      9.263
  Name = 
  0 active torsions:
  status: ('A' for Active; 'I' for Inactive)
                            x       y       z     vdW  Elec       q    Type
                         _______ _______ _______ _____ _____    ______ ____

>  <TORSDO>
F 0

$$$$
=
 OpenBabel11122411563D

 28 32  0  0  1  0  0  0  0  0999 V2000
  180.7820  177.7830  137.9760 C   0  0  0  0  0  0  0  0  0  0  0  0
  183.8600  173.8540  137.1580 F   0  0  0  0  0  0  0  0  0  0  0  0
  184.5550  179.8290  139.5160 O   0  0  0  0  0  0  0  0  0  0  0  0
  181.1020  179.4880  135.7780 C   0  0  0  0  0  3  0  0  0  0  0  0
  185.4420  178.2530  137.9500 C   0  0  0  0  0  0  0  0  0  0  0  0
  180.6700  176.9610  139.0980 O   0  0  0  0  0  0  0  0  0  0  0  0
  182.4440  173.7950  135.2730 C   0  0  0  0  0  1  0  0  0  0  0  0
  183.6750  174.4160  135.9040 C   0  0  1  0  0  0  0  0  0  0  0  0
  186.0740  174.8820  135.5460 C   0  0  1  0  0  3  0  0  0  0  0  0
  183.4800  175.9460  135.9930 C   0  0  2  0  0  3  0  0  0  0  0  0
  181.7560  179.5430  140.3350 O   0  0  0  0  0  1  0  0  0  0  0  0
  183.8050  176.5640  138.3430 C   0  0  1  0  0  3  0  0  0  0  0  0
  185.8610  176.2520  135.3070 O   0  0  0  0  0  0  0  0  0  0  0  0
  184.8830  174.0800  135.0430 C   0  0  0  0  0  2  0  0  0  0  0  0
  181.7420  178.2530  140.8670 C   0  0  2  0  0  3  0  0  0  0  0  0
  181.7860  177.5160  137.0330 C   0  0  0  0  0  0  0  0  0  0  0  0
  184.5020  178.7130  138.9330 C   0  0  0  0  0  0  0  0  0  0  0  0
  187.3230  174.4340  134.8180 C   0  0  0  0  0  1  0  0  0  0  0  0
  183.0570  177.5120  140.5920 C   0  0  0  0  0  2  0  0  0  0  0  0
  181.9470  178.3870  135.9400 C   0  0  0  0  0  3  0  0  0  0  0  0
  179.9400  178.8920  137.8120 C   0  0  0  0  0  3  0  0  0  0  0  0
  180.0960  179.7380  136.7140 C   0  0  0  0  0  3  0  0  0  0  0  0
  180.5010  177.4840  140.4090 C   0  0  0  0  0  2  0  0  0  0  0  0
  185.1310  176.8430  137.5940 C   0  0  1  0  0  3  0  0  0  0  0  0
  183.5440  177.7100  139.2270 N   0  0  0  0  0  0  0  0  0  0  0  0
  184.7970  176.7220  136.1150 C   0  0  2  0  0  3  0  0  0  0  0  0
  186.4090  178.9220  137.5000 O   0  0  0  0  0  0  0  0  0  0  0  0
  182.7190  176.3400  137.2600 C   0  0  1  0  0  3  0  0  0  0  0  0
  1  6  1  0  0  0  0
  4 20  2  0  0  0  0
  4 22  1  0  0  0  0
  5 17  1  0  0  0  0
  6 23  1  0  0  0  0
  8  7  1  6  0  0  0
  8 10  1  0  0  0  0
  8  2  1  0  0  0  0
  9 18  1  6  0  0  0
 10 26  1  0  0  0  0
 10 28  1  0  0  0  0
 11 15  1  0  0  0  0
 12 25  1  0  0  0  0
 13  9  1  0  0  0  0
 13 26  1  0  0  0  0
 14  9  1  0  0  0  0
 14  8  1  0  0  0  0
 16 28  1  0  0  0  0
 16  1  2  0  0  0  0
 17 25  1  0  0  0  0
 17  3  2  0  0  0  0
 19 15  1  0  0  0  0
 20 16  1  0  0  0  0
 21  1  1  0  0  0  0
 22 21  2  0  0  0  0
 23 15  1  0  0  0  0
 24  5  1  0  0  0  0
 24 12  1  0  0  0  0
 25 19  1  0  0  0  0
 26 24  1  0  0  0  0
 27  5  2  0  0  0  0
 28 12  1  0  0  0  0
M  END
>  <MODEL>
3

>  <REMARK>
 VINA RESULT:      -5.0      5.070      7.955
  Name = 
  0 active torsions:
  status: ('A' for Active; 'I' for Inactive)
                            x       y       z     vdW  Elec       q    Type
                         _______ _______ _______ _____ _____    ______ ____

>  <TORSDO>
F 0

$$$$
=
 OpenBabel11122411563D

 28 32  0  0  1  0  0  0  0  0999 V2000
  179.6010  177.2040  138.6410 C   0  0  0  0  0  0  0  0  0  0  0  0
  181.1110  180.1760  142.4440 F   0  0  0  0  0  0  0  0  0  0  0  0
  183.6410  178.2700  136.8130 O   0  0  0  0  0  0  0  0  0  0  0  0
  180.7880  174.7080  139.0900 C   0  0  0  0  0  3  0  0  0  0  0  0
  184.0770  178.4830  139.1550 C   0  0  0  0  0  0  0  0  0  0  0  0
  179.0610  178.4650  138.3880 O   0  0  0  0  0  0  0  0  0  0  0  0
  180.0140  178.4200  143.5730 C   0  0  0  0  0  1  0  0  0  0  0  0
  181.2990  178.8860  142.9170 C   0  0  1  0  0  0  0  0  0  0  0  0
  183.7280  179.1640  143.2730 C   0  0  1  0  0  3  0  0  0  0  0  0
  181.6650  177.9130  141.7750 C   0  0  2  0  0  3  0  0  0  0  0  0
  180.8520  178.0620  135.9370 O   0  0  0  0  0  1  0  0  0  0  0  0
  181.9030  179.2650  139.7430 C   0  0  1  0  0  3  0  0  0  0  0  0
  184.0600  178.0570  142.4700 O   0  0  0  0  0  0  0  0  0  0  0  0
  182.3970  178.9140  143.9680 C   0  0  0  0  0  2  0  0  0  0  0  0
  180.3030  179.2430  136.4380 C   0  0  2  0  0  3  0  0  0  0  0  0
  180.5470  177.0620  139.6680 C   0  0  0  0  0  0  0  0  0  0  0  0
  183.2570  178.5530  137.9790 C   0  0  0  0  0  0  0  0  0  0  0  0
  184.8070  179.3680  144.3140 C   0  0  0  0  0  1  0  0  0  0  0  0
  181.2810  179.9710  137.3700 C   0  0  0  0  0  2  0  0  0  0  0  0
  181.1460  175.8060  139.8750 C   0  0  0  0  0  3  0  0  0  0  0  0
  179.2480  176.1000  137.8510 C   0  0  0  0  0  3  0  0  0  0  0  0
  179.8350  174.8550  138.0800 C   0  0  0  0  0  3  0  0  0  0  0  0
  178.9340  178.9870  137.0710 C   0  0  0  0  0  2  0  0  0  0  0  0
  183.3210  179.0210  140.3160 C   0  0  1  0  0  3  0  0  0  0  0  0
  181.9700  179.0640  138.2880 N   0  0  0  0  0  0  0  0  0  0  0  0
  183.1500  177.9570  141.3890 C   0  0  2  0  0  3  0  0  0  0  0  0
  185.2680  178.0780  139.1860 O   0  0  0  0  0  0  0  0  0  0  0  0
  180.9510  178.2820  140.4740 C   0  0  1  0  0  3  0  0  0  0  0  0
  1 16  1  0  0  0  0
  2  8  1  0  0  0  0
  3 17  2  0  0  0  0
  4 20  1  0  0  0  0
  5 27  2  0  0  0  0
  5 24  1  0  0  0  0
  6  1  1  0  0  0  0
  8  7  1  1  0  0  0
  8 14  1  0  0  0  0
  9 14  1  0  0  0  0
  9 18  1  1  0  0  0
 10  8  1  0  0  0  0
 11 15  1  0  0  0  0
 12 24  1  0  0  0  0
 12 28  1  0  0  0  0
 13  9  1  0  0  0  0
 15 23  1  0  0  0  0
 15 19  1  0  0  0  0
 16 20  2  0  0  0  0
 16 28  1  0  0  0  0
 17 25  1  0  0  0  0
 17  5  1  0  0  0  0
 19 25  1  0  0  0  0
 21 22  1  0  0  0  0
 21  1  2  0  0  0  0
 22  4  2  0  0  0  0
 23  6  1  0  0  0  0
 24 26  1  0  0  0  0
 25 12  1  0  0  0  0
 26 10  1  0  0  0  0
 26 13  1  0  0  0  0
 28 10  1  0  0  0  0
M  END
>  <MODEL>
4

>  <REMARK>
 VINA RESULT:      -4.9      7.770     10.358
  Name = 
  0 active torsions:
  status: ('A' for Active; 'I' for Inactive)
                            x       y       z     vdW  Elec       q    Type
                         _______ _______ _______ _____ _____    ______ ____

>  <TORSDO>
F 0

$$$$
=
 OpenBabel11122411563D

 28 32  0  0  1  0  0  0  0  0999 V2000
  180.4790  176.6610  136.6910 C   0  0  0  0  0  0  0  0  0  0  0  0
  184.9850  174.6090  137.7190 F   0  0  0  0  0  0  0  0  0  0  0  0
  181.6710  179.7310  139.8450 O   0  0  0  0  0  0  0  0  0  0  0  0
  180.9720  178.7470  134.8900 C   0  0  0  0  0  3  0  0  0  0  0  0
  183.7960  179.0110  139.0150 C   0  0  0  0  0  0  0  0  0  0  0  0
  180.2440  175.6600  137.6340 O   0  0  0  0  0  0  0  0  0  0  0  0
  184.8270  174.3470  135.3810 C   0  0  0  0  0  1  0  0  0  0  0  0
  185.1770  175.2820  136.5220 C   0  0  1  0  0  0  0  0  0  0  0  0
  186.9440  176.7600  137.4130 C   0  0  1  0  0  3  0  0  0  0  0  0
  184.2870  176.5420  136.4340 C   0  0  2  0  0  3  0  0  0  0  0  0
  179.3030  178.1560  139.1390 O   0  0  0  0  0  1  0  0  0  0  0  0
  183.1480  176.7560  138.5950 C   0  0  1  0  0  3  0  0  0  0  0  0
  186.2690  177.9360  137.0410 O   0  0  0  0  0  0  0  0  0  0  0  0
  186.6460  175.6550  136.4100 C   0  0  0  0  0  2  0  0  0  0  0  0
  179.6330  176.8970  139.6450 C   0  0  2  0  0  3  0  0  0  0  0  0
  181.8020  177.0280  136.4010 C   0  0  0  0  0  0  0  0  0  0  0  0
  182.4150  178.8340  139.3640 C   0  0  0  0  0  0  0  0  0  0  0  0
  188.4340  177.0240  137.4410 C   0  0  0  0  0  1  0  0  0  0  0  0
  181.0940  176.8380  140.1080 C   0  0  0  0  0  2  0  0  0  0  0  0
  182.0370  178.0870  135.5050 C   0  0  0  0  0  3  0  0  0  0  0  0
  179.4120  177.3310  136.0740 C   0  0  0  0  0  3  0  0  0  0  0  0
  179.6580  178.3670  135.1720 C   0  0  0  0  0  3  0  0  0  0  0  0
  179.2620  175.7930  138.6530 C   0  0  0  0  0  2  0  0  0  0  0  0
  184.3740  177.7020  138.6120 C   0  0  1  0  0  3  0  0  0  0  0  0
  182.0120  177.4890  139.1730 N   0  0  0  0  0  0  0  0  0  0  0  0
  184.8710  177.7520  137.1750 C   0  0  2  0  0  3  0  0  0  0  0  0
  184.4310  180.0950  139.0910 O   0  0  0  0  0  0  0  0  0  0  0  0
  182.9380  176.3240  137.1200 C   0  0  1  0  0  3  0  0  0  0  0  0
  1  6  1  0  0  0  0
  4 22  2  0  0  0  0
  4 20  1  0  0  0  0
  5 27  2  0  0  0  0
  5 17  1  0  0  0  0
  6 23  1  0  0  0  0
  8  7  1  6  0  0  0
  8  2  1  0  0  0  0
  9 18  1  6  0  0  0
 10  8  1  0  0  0  0
 10 28  1  0  0  0  0
 10 26  1  0  0  0  0
 11 15  1  0  0  0  0
 12 24  1  0  0  0  0
 12 25  1  0  0  0  0
 13 26  1  0  0  0  0
 13  9  1  0  0  0  0
 14  8  1  0  0  0  0
 14  9  1  0  0  0  0
 15 19  1  0  0  0  0
 16  1  1  0  0  0  0
 16 28  1  0  0  0  0
 17  3  2  0  0  0  0
 20 16  2  0  0  0  0
 21  1  2  0  0  0  0
 22 21  1  0  0  0  0
 23 15  1  0  0  0  0
 24  5  1  0  0  0  0
 25 17  1  0  0  0  0
 25 19  1  0  0  0  0
 26 24  1  0  0  0  0
 28 12  1  0  0  0  0
M  END
>  <MODEL>
5

>  <REMARK>
 VINA RESULT:      -4.8      5.381      8.327
  Name = 
  0 active torsions:
  status: ('A' for Active; 'I' for Inactive)
                            x       y       z     vdW  Elec       q    Type
                         _______ _______ _______ _____ _____    ______ ____

>  <TORSDO>
F 0

$$$$
=
 OpenBabel11122411563D

 28 32  0  0  1  0  0  0  0  0999 V2000
  182.5430  177.5350  136.7280 C   0  0  0  0  0  0  0  0  0  0  0  0
  184.6110  177.2670  141.3360 F   0  0  0  0  0  0  0  0  0  0  0  0
  178.9310  175.6130  138.7400 O   0  0  0  0  0  0  0  0  0  0  0  0
  180.9530  179.8390  136.7260 C   0  0  0  0  0  3  0  0  0  0  0  0
  179.9600  176.7750  140.5600 C   0  0  0  0  0  0  0  0  0  0  0  0
  183.2890  176.3560  136.7520 O   0  0  0  0  0  0  0  0  0  0  0  0
  185.3790  179.3540  140.5520 C   0  0  0  0  0  1  0  0  0  0  0  0
  184.2380  178.5960  141.2010 C   0  0  1  0  0  0  0  0  0  0  0  0
  182.7200  178.5690  143.1490 C   0  0  1  0  0  3  0  0  0  0  0  0
  182.9730  178.7420  140.3260 C   0  0  2  0  0  3  0  0  0  0  0  0
  180.4610  175.2860  136.2630 O   0  0  0  0  0  1  0  0  0  0  0  0
  182.2030  176.4710  139.8120 C   0  0  1  0  0  3  0  0  0  0  0  0
  181.6140  179.0180  142.4030 O   0  0  0  0  0  0  0  0  0  0  0  0
  183.9990  179.1720  142.5870 C   0  0  0  0  0  2  0  0  0  0  0  0
  181.5940  174.6030  136.7110 C   0  0  2  0  0  3  0  0  0  0  0  0
  182.3410  178.2380  137.9260 C   0  0  0  0  0  0  0  0  0  0  0  0
  179.9600  176.0460  139.3230 C   0  0  0  0  0  0  0  0  0  0  0  0
  182.5560  178.9940  144.5920 C   0  0  0  0  0  1  0  0  0  0  0  0
  181.6450  174.5370  138.2430 C   0  0  0  0  0  2  0  0  0  0  0  0
  181.5290  179.3860  137.9150 C   0  0  0  0  0  3  0  0  0  0  0  0
  181.9590  177.9910  135.5370 C   0  0  0  0  0  3  0  0  0  0  0  0
  181.1720  179.1420  135.5360 C   0  0  0  0  0  3  0  0  0  0  0  0
  182.8650  175.1760  136.0820 C   0  0  0  0  0  2  0  0  0  0  0  0
  181.3620  176.9970  141.0010 C   0  0  1  0  0  3  0  0  0  0  0  0
  181.2840  175.8050  138.8770 N   0  0  0  0  0  0  0  0  0  0  0  0
  181.6690  178.4840  141.0930 C   0  0  2  0  0  3  0  0  0  0  0  0
  178.9310  177.1240  141.1960 O   0  0  0  0  0  0  0  0  0  0  0  0
  182.9400  177.6960  139.2110 C   0  0  1  0  0  3  0  0  0  0  0  0
  1  6  1  0  0  0  0
  1 16  1  0  0  0  0
  3 17  2  0  0  0  0
  4 20  1  0  0  0  0
  5 24  1  0  0  0  0
  5 27  2  0  0  0  0
  8  7  1  6  0  0  0
  8  2  1  0  0  0  0
  8 14  1  0  0  0  0
  9 18  1  1  0  0  0
 10 26  1  0  0  0  0
 10  8  1  0  0  0  0
 11 15  1  0  0  0  0
 12 24  1  0  0  0  0
 13  9  1  0  0  0  0
 14  9  1  0  0  0  0
 15 19  1  0  0  0  0
 16 28  1  0  0  0  0
 17  5  1  0  0  0  0
 19 25  1  0  0  0  0
 20 16  2  0  0  0  0
 21  1  2  0  0  0  0
 22 21  1  0  0  0  0
 22  4  2  0  0  0  0
 23 15  1  0  0  0  0
 23  6  1  0  0  0  0
 24 26  1  0  0  0  0
 25 17  1  0  0  0  0
 25 12  1  0  0  0  0
 26 13  1  0  0  0  0
 28 12  1  0  0  0  0
 28 10  1  0  0  0  0
M  END
>  <MODEL>
6

>  <REMARK>
 VINA RESULT:      -4.6      7.248      9.771
  Name = 
  0 active torsions:
  status: ('A' for Active; 'I' for Inactive)
                            x       y       z     vdW  Elec       q    Type
                         _______ _______ _______ _____ _____    ______ ____

>  <TORSDO>
F 0

$$$$
=
 OpenBabel11122411563D

 28 32  0  0  1  0  0  0  0  0999 V2000
  180.2660  174.6530  137.5280 C   0  0  0  0  0  0  0  0  0  0  0  0
  184.6680  172.2030  137.9740 F   0  0  0  0  0  0  0  0  0  0  0  0
  182.8640  178.3980  137.6440 O   0  0  0  0  0  0  0  0  0  0  0  0
  179.9970  175.2730  134.8110 C   0  0  0  0  0  3  0  0  0  0  0  0
  184.3680  176.7710  136.7410 C   0  0  0  0  0  0  0  0  0  0  0  0
  180.4320  174.3950  138.8890 O   0  0  0  0  0  0  0  0  0  0  0  0
  183.4780  170.8420  136.4600 C   0  0  0  0  0  1  0  0  0  0  0  0
  184.3370  172.0790  136.6330 C   0  0  1  0  0  0  0  0  0  0  0  0
  186.3780  173.2120  135.8260 C   0  0  1  0  0  3  0  0  0  0  0  0
  183.5560  173.3120  136.1270 C   0  0  2  0  0  3  0  0  0  0  0  0
  180.3640  177.4560  138.8480 O   0  0  0  0  0  1  0  0  0  0  0  0
  183.5040  174.9230  137.9750 C   0  0  1  0  0  3  0  0  0  0  0  0
  185.6580  174.1700  135.0870 O   0  0  0  0  0  0  0  0  0  0  0  0
  185.6190  171.8940  135.8360 C   0  0  0  0  0  2  0  0  0  0  0  0
  180.8300  176.6010  139.8490 C   0  0  2  0  0  3  0  0  0  0  0  0
  181.3370  174.4140  136.6540 C   0  0  0  0  0  0  0  0  0  0  0  0
  183.2780  177.2100  137.5670 C   0  0  0  0  0  0  0  0  0  0  0  0
  187.7350  173.0050  135.1890 C   0  0  0  0  0  1  0  0  0  0  0  0
  182.3410  176.3630  139.7320 C   0  0  0  0  0  2  0  0  0  0  0  0
  181.1950  174.7430  135.2940 C   0  0  0  0  0  3  0  0  0  0  0  0
  179.0660  175.1900  137.0400 C   0  0  0  0  0  3  0  0  0  0  0  0
  178.9310  175.4930  135.6850 C   0  0  0  0  0  3  0  0  0  0  0  0
  180.0110  175.3100  139.8920 C   0  0  0  0  0  2  0  0  0  0  0  0
  184.6490  175.3380  137.0190 C   0  0  1  0  0  3  0  0  0  0  0  0
  182.7750  176.1430  138.3520 N   0  0  0  0  0  0  0  0  0  0  0  0
  184.4590  174.4980  135.7650 C   0  0  2  0  0  3  0  0  0  0  0  0
  185.0160  177.5010  135.9460 O   0  0  0  0  0  0  0  0  0  0  0  0
  182.6430  173.8810  137.2140 C   0  0  1  0  0  3  0  0  0  0  0  0
  1  6  1  0  0  0  0
  4 20  2  0  0  0  0
  4 22  1  0  0  0  0
  5 24  1  0  0  0  0
  5 17  1  0  0  0  0
  6 23  1  0  0  0  0
  8  7  1  6  0  0  0
  8  2  1  0  0  0  0
  9 18  1  6  0  0  0
  9 14  1  0  0  0  0
 10  8  1  0  0  0  0
 10 28  1  0  0  0  0
 11 15  1  0  0  0  0
 12 25  1  0  0  0  0
 13 26  1  0  0  0  0
 13  9  1  0  0  0  0
 14  8  1  0  0  0  0
 15 23  1  0  0  0  0
 16 28  1  0  0  0  0
 16  1  2  0  0  0  0
 17  3  2  0  0  0  0
 17 25  1  0  0  0  0
 19 15  1  0  0  0  0
 20 16  1  0  0  0  0
 21  1  1  0  0  0  0
 22 21  2  0  0  0  0
 24 12  1  0  0  0  0
 25 19  1  0  0  0  0
 26 10  1  0  0  0  0
 26 24  1  0  0  0  0
 27  5  2  0  0  0  0
 28 12  1  0  0  0  0
M  END
>  <MODEL>
7

>  <REMARK>
 VINA RESULT:      -4.5      5.662      8.277
  Name = 
  0 active torsions:
  status: ('A' for Active; 'I' for Inactive)
                            x       y       z     vdW  Elec       q    Type
                         _______ _______ _______ _____ _____    ______ ____

>  <TORSDO>
F 0

$$$$
=
 OpenBabel11122411563D

 28 32  0  0  1  0  0  0  0  0999 V2000
  181.7970  179.5100  138.5550 C   0  0  0  0  0  0  0  0  0  0  0  0
  185.3260  177.3740  135.6280 F   0  0  0  0  0  0  0  0  0  0  0  0
  179.2300  175.9760  137.2460 O   0  0  0  0  0  0  0  0  0  0  0  0
  181.9000  178.1580  141.0040 C   0  0  0  0  0  3  0  0  0  0  0  0
  181.4410  175.0790  137.0820 C   0  0  0  0  0  0  0  0  0  0  0  0
  181.7080  180.1410  137.3140 O   0  0  0  0  0  0  0  0  0  0  0  0
  186.5860  178.1460  137.4670 C   0  0  0  0  0  1  0  0  0  0  0  0
  185.7010  177.0420  136.9210 C   0  0  1  0  0  0  0  0  0  0  0  0
  185.5670  174.6050  136.5400 C   0  0  1  0  0  3  0  0  0  0  0  0
  184.4720  176.8790  137.8420 C   0  0  2  0  0  3  0  0  0  0  0  0
  178.9310  178.8740  137.5600 O   0  0  0  0  0  1  0  0  0  0  0  0
  182.4880  177.1160  136.4210 C   0  0  1  0  0  3  0  0  0  0  0  0
  184.6710  174.4000  137.6060 O   0  0  0  0  0  0  0  0  0  0  0  0
  186.5080  175.7540  136.8730 C   0  0  0  0  0  2  0  0  0  0  0  0
  179.5780  179.3560  136.4210 C   0  0  2  0  0  3  0  0  0  0  0  0
  182.6050  178.3700  138.6830 C   0  0  0  0  0  0  0  0  0  0  0  0
  180.4600  176.1250  137.0160 C   0  0  0  0  0  0  0  0  0  0  0  0
  186.3740  173.3450  136.3160 C   0  0  0  0  0  1  0  0  0  0  0  0
  180.3200  178.2390  135.6750 C   0  0  0  0  0  2  0  0  0  0  0  0
  182.6380  177.6910  139.9140 C   0  0  0  0  0  3  0  0  0  0  0  0
  181.0540  179.9730  139.6510 C   0  0  0  0  0  3  0  0  0  0  0  0
  181.1110  179.3020  140.8720 C   0  0  0  0  0  3  0  0  0  0  0  0
  180.4660  180.5560  136.7600 C   0  0  0  0  0  2  0  0  0  0  0  0
  182.7510  175.6030  136.6140 C   0  0  1  0  0  3  0  0  0  0  0  0
  181.0430  177.3400  136.5760 N   0  0  0  0  0  0  0  0  0  0  0  0
  183.7950  175.5080  137.7170 C   0  0  2  0  0  3  0  0  0  0  0  0
  181.2140  173.8910  137.4310 O   0  0  0  0  0  0  0  0  0  0  0  0
  183.3580  177.8580  137.4690 C   0  0  1  0  0  3  0  0  0  0  0  0
  1 16  2  0  0  0  0
  1 21  1  0  0  0  0
  2  8  1  0  0  0  0
  5 27  2  0  0  0  0
  6  1  1  0  0  0  0
  8  7  1  1  0  0  0
  8 10  1  0  0  0  0
  9 18  1  1  0  0  0
  9 14  1  0  0  0  0
  9 13  1  0  0  0  0
 12 25  1  0  0  0  0
 12 24  1  0  0  0  0
 12 28  1  0  0  0  0
 13 26  1  0  0  0  0
 14  8  1  0  0  0  0
 15 23  1  0  0  0  0
 15 11  1  0  0  0  0
 16 20  1  0  0  0  0
 17  5  1  0  0  0  0
 17  3  2  0  0  0  0
 19 15  1  0  0  0  0
 19 25  1  0  0  0  0
 20  4  2  0  0  0  0
 21 22  2  0  0  0  0
 22  4  1  0  0  0  0
 23  6  1  0  0  0  0
 24  5  1  0  0  0  0
 24 26  1  0  0  0  0
 25 17  1  0  0  0  0
 26 10  1  0  0  0  0
 28 10  1  0  0  0  0
 28 16  1  0  0  0  0
M  END
>  <MODEL>
8

>  <REMARK>
 VINA RESULT:      -4.5      5.489      7.571
  Name = 
  0 active torsions:
  status: ('A' for Active; 'I' for Inactive)
                            x       y       z     vdW  Elec       q    Type
                         _______ _______ _______ _____ _____    ______ ____

>  <TORSDO>
F 0

$$$$
=
 OpenBabel11122411563D

 28 32  0  0  1  0  0  0  0  0999 V2000
  180.8420  178.7460  138.3170 C   0  0  0  0  0  0  0  0  0  0  0  0
  180.8060  173.6890  138.3570 F   0  0  0  0  0  0  0  0  0  0  0  0
  185.3670  178.2540  138.0380 O   0  0  0  0  0  0  0  0  0  0  0  0
  181.0480  179.4980  135.6280 C   0  0  0  0  0  3  0  0  0  0  0  0
  184.5780  176.2340  137.0270 C   0  0  0  0  0  0  0  0  0  0  0  0
  180.8000  178.3680  139.6590 O   0  0  0  0  0  0  0  0  0  0  0  0
  178.9310  174.2030  137.0220 C   0  0  0  0  0  1  0  0  0  0  0  0
  180.4360  174.0280  137.0640 C   0  0  1  0  0  0  0  0  0  0  0  0
  182.3320  172.8490  136.0060 C   0  0  1  0  0  3  0  0  0  0  0  0
  181.1100  175.3410  136.6090 C   0  0  2  0  0  3  0  0  0  0  0  0
  183.4530  179.8930  139.5330 O   0  0  0  0  0  1  0  0  0  0  0  0
  182.6440  176.0070  138.4020 C   0  0  1  0  0  3  0  0  0  0  0  0
  182.7750  173.9960  135.3220 O   0  0  0  0  0  0  0  0  0  0  0  0
  180.8170  172.8830  136.1390 C   0  0  0  0  0  2  0  0  0  0  0  0
  183.0010  178.9960  140.5030 C   0  0  2  0  0  3  0  0  0  0  0  0
  181.0710  177.7660  137.3390 C   0  0  0  0  0  0  0  0  0  0  0  0
  184.5140  177.3300  137.9520 C   0  0  0  0  0  0  0  0  0  0  0  0
  182.7410  171.6150  135.2320 C   0  0  0  0  0  1  0  0  0  0  0  0
  183.4960  177.5700  140.2310 C   0  0  0  0  0  2  0  0  0  0  0  0
  181.1860  178.1570  135.9930 C   0  0  0  0  0  3  0  0  0  0  0  0
  180.7090  180.0920  137.9460 C   0  0  0  0  0  3  0  0  0  0  0  0
  180.8060  180.4650  136.6050 C   0  0  0  0  0  3  0  0  0  0  0  0
  181.4830  179.0920  140.6740 C   0  0  0  0  0  2  0  0  0  0  0  0
  183.4750  175.2810  137.3150 C   0  0  1  0  0  3  0  0  0  0  0  0
  183.4000  177.1970  138.8190 N   0  0  0  0  0  0  0  0  0  0  0  0
  182.5500  175.1480  136.1150 C   0  0  2  0  0  3  0  0  0  0  0  0
  185.4630  176.0800  136.1450 O   0  0  0  0  0  0  0  0  0  0  0  0
  181.2630  176.3230  137.7710 C   0  0  1  0  0  3  0  0  0  0  0  0
  1  6  1  0  0  0  0
  4 20  2  0  0  0  0
  4 22  1  0  0  0  0
  5 24  1  0  0  0  0
  5 17  1  0  0  0  0
  6 23  1  0  0  0  0
  8  7  1  6  0  0  0
  8  2  1  0  0  0  0
  9 18  1  6  0  0  0
  9 14  1  0  0  0  0
 10  8  1  0  0  0  0
 10 28  1  0  0  0  0
 11 15  1  0  0  0  0
 12 25  1  0  0  0  0
 13  9  1  0  0  0  0
 13 26  1  0  0  0  0
 14  8  1  0  0  0  0
 15 23  1  0  0  0  0
 16 28  1  0  0  0  0
 16  1  2  0  0  0  0
 17  3  2  0  0  0  0
 17 25  1  0  0  0  0
 19 15  1  0  0  0  0
 20 16  1  0  0  0  0
 21  1  1  0  0  0  0
 22 21  2  0  0  0  0
 24 12  1  0  0  0  0
 25 19  1  0  0  0  0
 26 10  1  0  0  0  0
 26 24  1  0  0  0  0
 27  5  2  0  0  0  0
 28 12  1  0  0  0  0
M  END
>  <MODEL>
9

>  <REMARK>
 VINA RESULT:      -4.5      6.463      9.021
  Name = 
  0 active torsions:
  status: ('A' for Active; 'I' for Inactive)
                            x       y       z     vdW  Elec       q    Type
                         _______ _______ _______ _____ _____    ______ ____

>  <TORSDO>
F 0

$$$$
