=
 OpenBabel11122412083D

 34 42  0  0  1  0  0  0  0  0999 V2000
  189.6860  177.6990  138.9130 C   0  0  0  0  0  0  0  0  0  0  0  0
  188.8620  178.2000  136.6020 C   0  0  0  0  0  2  0  0  0  0  0  0
  190.3550  178.5920  144.5740 C   0  0  2  0  0  0  0  0  0  0  0  0
  190.1290  176.6130  141.0160 C   0  0  0  0  0  0  0  0  0  0  0  0
  188.7060  177.2040  143.0640 C   0  0  1  0  0  3  0  0  0  0  0  0
  190.6660  178.9110  143.1140 C   0  0  2  0  0  3  0  0  0  0  0  0
  191.3970  179.6340  144.2270 C   0  0  0  0  0  2  0  0  0  0  0  0
  191.6750  176.4280  143.9430 C   0  0  0  0  0  2  0  0  0  0  0  0
  187.4770  178.8890  138.4870 N   0  0  2  0  0  0  0  0  0  0  0  0
  184.5040  177.5840  138.2820 C   0  0  0  0  0  2  0  0  0  0  0  0
  187.5680  177.4360  142.0720 C   0  0  0  0  0  2  0  0  0  0  0  0
  190.6800  175.4920  143.2890 C   0  0  0  0  0  2  0  0  0  0  0  0
  187.0120  178.1540  139.6910 C   0  0  1  0  0  3  0  0  0  0  0  0
  187.5250  178.6400  136.0750 C   0  0  0  0  0  2  0  0  0  0  0  0
  189.6750  176.2130  142.3930 C   0  0  2  0  0  3  0  0  0  0  0  0
  190.9750  177.2520  145.0200 C   0  0  0  0  0  2  0  0  0  0  0  0
  185.7060  177.4280  137.3320 C   0  0  1  0  0  3  0  0  0  0  0  0
  189.3070  177.4430  140.2300 C   0  0  0  0  0  0  0  0  0  0  0  0
  189.2410  178.5840  143.5310 C   0  0  2  0  0  3  0  0  0  0  0  0
  188.0800  178.1170  140.7850 C   0  0  2  0  0  3  0  0  0  0  0  0
  191.6150  176.3530  139.1980 C   0  0  0  0  0  3  0  0  0  0  0  0
  184.5750  178.8180  139.1880 C   0  0  0  0  0  2  0  0  0  0  0  0
  191.2520  176.0720  140.4750 N   0  0  0  0  0  0  0  0  0  0  0  0
  185.6950  178.7380  140.2290 C   0  0  0  0  0  2  0  0  0  0  0  0
  186.6280  178.6760  137.2910 C   0  0  1  0  0  3  0  0  0  0  0  0
  190.8420  177.1640  138.4310 N   0  0  0  0  0  0  0  0  0  0  0  0
  188.8750  178.6400  138.0530 C   0  0  1  0  0  3  0  0  0  0  0  0
  186.4240  176.2720  137.6620 O   0  0  0  0  0  0  0  0  0  0  0  0
  186.0150  175.3020  136.7450 C   0  0  0  0  0  2  0  0  0  0  0  0
  188.7940  172.8760  136.8010 O   0  0  0  0  0  0  0  0  0  0  0  0
  186.5180  172.9540  137.1820 N   0  0  0  0  0  0  0  0  0  0  0  0
  186.9120  174.1180  136.8490 C   0  0  0  0  0  0  0  0  0  0  0  0
  187.6760  172.1750  137.1550 N   0  0  0  0  0  2  0  0  0  0  0  0
  188.3030  174.1350  136.6130 N   0  0  0  0  0  2  0  0  0  0  0  0
  1 18  1  0  0  0  0
  2 27  1  0  0  0  0
  3  7  1  1  0  0  0
  3 16  1  0  0  0  0
  4 15  1  0  0  0  0
  5 11  1  6  0  0  0
  5 19  1  0  0  0  0
  6 19  1  0  0  0  0
  6  7  1  1  0  0  0
  6  3  1  0  0  0  0
  8 16  1  0  0  0  0
  9 13  1  0  0  0  0
 10 22  1  0  0  0  0
 12  8  1  0  0  0  0
 13 24  1  0  0  0  0
 13 20  1  0  0  0  0
 14  2  1  0  0  0  0
 14 25  1  0  0  0  0
 15  5  1  0  0  0  0
 15 12  1  0  0  0  0
 17 28  1  0  0  0  0
 17 10  1  0  0  0  0
 18 20  1  0  0  0  0
 18  4  2  0  0  0  0
 19  3  1  0  0  0  0
 20 11  1  0  0  0  0
 21 23  2  0  0  0  0
 22 24  1  0  0  0  0
 23  4  1  0  0  0  0
 25 17  1  0  0  0  0
 25  9  1  0  0  0  0
 26  1  2  0  0  0  0
 26 21  1  0  0  0  0
 27  9  1  0  0  0  0
 27  1  1  0  0  0  0
 29 32  1  0  0  0  0
 29 28  1  0  0  0  0
 30 33  1  0  0  0  0
 32 31  2  0  0  0  0
 33 31  1  0  0  0  0
 34 30  1  0  0  0  0
 34 32  1  0  0  0  0
M  END
>  <MODEL>
1

>  <REMARK>
 VINA RESULT:      -7.6      0.000      0.000
  Name = 
  3 active torsions:
  status: ('A' for Active; 'I' for Inactive)
    1  A    between atoms: C_17  and  O_28
    2  A    between atoms: O_28  and  C_29
    3  A    between atoms: C_29  and  C_32
                            x       y       z     vdW  Elec       q    Type
                         _______ _______ _______ _____ _____    ______ ____

>  <TORSDO>
F 3

$$$$
=
 OpenBabel11122412083D

 34 42  0  0  1  0  0  0  0  0999 V2000
  189.7190  177.7060  138.8270 C   0  0  0  0  0  0  0  0  0  0  0  0
  188.9240  178.2240  136.5100 C   0  0  0  0  0  2  0  0  0  0  0  0
  190.3210  178.5590  144.5030 C   0  0  2  0  0  0  0  0  0  0  0  0
  190.1330  176.6050  140.9290 C   0  0  0  0  0  0  0  0  0  0  0  0
  188.6870  177.1840  142.9640 C   0  0  1  0  0  3  0  0  0  0  0  0
  190.6500  178.8870  143.0490 C   0  0  2  0  0  3  0  0  0  0  0  0
  191.3680  179.6010  144.1750 C   0  0  0  0  0  2  0  0  0  0  0  0
  191.6440  176.3960  143.8730 C   0  0  0  0  0  2  0  0  0  0  0  0
  187.5180  178.9030  138.3830 N   0  0  2  0  0  0  0  0  0  0  0  0
  184.5450  177.6060  138.1320 C   0  0  0  0  0  2  0  0  0  0  0  0
  187.5610  177.4260  141.9590 C   0  0  0  0  0  2  0  0  0  0  0  0
  190.6550  175.4670  143.2000 C   0  0  0  0  0  2  0  0  0  0  0  0
  187.0370  178.1610  139.5760 C   0  0  1  0  0  3  0  0  0  0  0  0
  187.5950  178.6700  135.9700 C   0  0  0  0  0  2  0  0  0  0  0  0
  189.6620  176.1960  142.2980 C   0  0  2  0  0  3  0  0  0  0  0  0
  190.9320  177.2140  144.9470 C   0  0  0  0  0  2  0  0  0  0  0  0
  185.7580  177.4540  137.1970 C   0  0  1  0  0  3  0  0  0  0  0  0
  189.3230  177.4410  140.1390 C   0  0  0  0  0  0  0  0  0  0  0  0
  189.2190  178.5600  143.4460 C   0  0  2  0  0  3  0  0  0  0  0  0
  188.0910  178.1140  140.6830 C   0  0  2  0  0  3  0  0  0  0  0  0
  191.6420  176.3530  139.1270 C   0  0  0  0  0  3  0  0  0  0  0  0
  184.6070  178.8340  139.0480 C   0  0  0  0  0  2  0  0  0  0  0  0
  191.2620  176.0650  140.3980 N   0  0  0  0  0  0  0  0  0  0  0  0
  185.7140  178.7440  140.1010 C   0  0  0  0  0  2  0  0  0  0  0  0
  186.6830  178.7000  137.1750 C   0  0  1  0  0  3  0  0  0  0  0  0
  190.8790  177.1720  138.3570 N   0  0  0  0  0  0  0  0  0  0  0  0
  188.9200  178.6540  137.9650 C   0  0  1  0  0  3  0  0  0  0  0  0
  186.4690  176.2940  137.5270 O   0  0  0  0  0  0  0  0  0  0  0  0
  186.2970  175.4260  136.4470 C   0  0  0  0  0  2  0  0  0  0  0  0
  183.5340  173.0600  137.0560 O   0  0  0  0  0  0  0  0  0  0  0  0
  185.7800  173.3040  137.5340 N   0  0  0  0  0  0  0  0  0  0  0  0
  185.4010  174.3090  136.8520 C   0  0  0  0  0  0  0  0  0  0  0  0
  184.6310  172.5220  137.6680 N   0  0  0  0  0  2  0  0  0  0  0  0
  184.0320  174.2110  136.5190 N   0  0  0  0  0  2  0  0  0  0  0  0
  1 18  1  0  0  0  0
  2 27  1  0  0  0  0
  3  7  1  1  0  0  0
  3 16  1  0  0  0  0
  4 15  1  0  0  0  0
  5 11  1  6  0  0  0
  5 19  1  0  0  0  0
  6 19  1  0  0  0  0
  6  7  1  1  0  0  0
  6  3  1  0  0  0  0
  8 16  1  0  0  0  0
  9 13  1  0  0  0  0
 10 22  1  0  0  0  0
 12  8  1  0  0  0  0
 13 24  1  0  0  0  0
 13 20  1  0  0  0  0
 14  2  1  0  0  0  0
 14 25  1  0  0  0  0
 15  5  1  0  0  0  0
 15 12  1  0  0  0  0
 17 28  1  0  0  0  0
 17 10  1  0  0  0  0
 18 20  1  0  0  0  0
 18  4  2  0  0  0  0
 19  3  1  0  0  0  0
 20 11  1  0  0  0  0
 21 23  2  0  0  0  0
 22 24  1  0  0  0  0
 23  4  1  0  0  0  0
 25 17  1  0  0  0  0
 25  9  1  0  0  0  0
 26  1  2  0  0  0  0
 26 21  1  0  0  0  0
 27  9  1  0  0  0  0
 27  1  1  0  0  0  0
 29 32  1  0  0  0  0
 29 28  1  0  0  0  0
 30 33  1  0  0  0  0
 31 33  1  0  0  0  0
 32 31  2  0  0  0  0
 34 32  1  0  0  0  0
 34 30  1  0  0  0  0
M  END
>  <MODEL>
2

>  <REMARK>
 VINA RESULT:      -7.6      1.001      1.321
  Name = 
  3 active torsions:
  status: ('A' for Active; 'I' for Inactive)
    1  A    between atoms: C_17  and  O_28
    2  A    between atoms: O_28  and  C_29
    3  A    between atoms: C_29  and  C_32
                            x       y       z     vdW  Elec       q    Type
                         _______ _______ _______ _____ _____    ______ ____

>  <TORSDO>
F 3

$$$$
=
 OpenBabel11122412083D

 34 42  0  0  1  0  0  0  0  0999 V2000
  187.0380  178.4130  140.2620 C   0  0  0  0  0  0  0  0  0  0  0  0
  185.1700  179.2780  138.8380 C   0  0  0  0  0  2  0  0  0  0  0  0
  190.4740  178.2180  144.8940 C   0  0  2  0  0  0  0  0  0  0  0  0
  188.4660  176.9800  141.5680 C   0  0  0  0  0  0  0  0  0  0  0  0
  188.2740  176.9970  144.1240 C   0  0  1  0  0  3  0  0  0  0  0  0
  190.0120  178.8540  143.5850 C   0  0  2  0  0  3  0  0  0  0  0  0
  191.2110  179.4110  144.3240 C   0  0  0  0  0  2  0  0  0  0  0  0
  191.2730  176.3730  143.2260 C   0  0  0  0  0  2  0  0  0  0  0  0
  184.9290  179.4280  141.2590 N   0  0  2  0  0  0  0  0  0  0  0  0
  182.2410  177.8890  142.2570 C   0  0  0  0  0  2  0  0  0  0  0  0
  186.7930  177.3040  143.9020 C   0  0  0  0  0  2  0  0  0  0  0  0
  190.0730  175.4890  142.9550 C   0  0  0  0  0  2  0  0  0  0  0  0
  185.1240  178.4230  142.3350 C   0  0  1  0  0  3  0  0  0  0  0  0
  183.7540  179.6730  139.1510 C   0  0  0  0  0  2  0  0  0  0  0  0
  188.7620  176.2670  142.8600 C   0  0  2  0  0  3  0  0  0  0  0  0
  191.2190  176.8880  144.6620 C   0  0  0  0  0  2  0  0  0  0  0  0
  182.8000  178.0520  140.8310 C   0  0  1  0  0  3  0  0  0  0  0  0
  187.3710  177.8600  141.4990 C   0  0  0  0  0  0  0  0  0  0  0  0
  188.9860  178.3040  144.5640 C   0  0  2  0  0  3  0  0  0  0  0  0
  186.5970  178.2780  142.7210 C   0  0  2  0  0  3  0  0  0  0  0  0
  188.8340  177.2440  139.2490 C   0  0  0  0  0  3  0  0  0  0  0  0
  182.7720  178.9170  143.2610 C   0  0  0  0  0  2  0  0  0  0  0  0
  189.1590  176.6770  140.4390 N   0  0  0  0  0  0  0  0  0  0  0  0
  184.2620  178.7470  143.5670 C   0  0  0  0  0  2  0  0  0  0  0  0
  183.5910  179.3720  140.6240 C   0  0  1  0  0  3  0  0  0  0  0  0
  187.7890  178.1080  139.1680 N   0  0  0  0  0  0  0  0  0  0  0  0
  185.9150  179.4170  140.1510 C   0  0  1  0  0  3  0  0  0  0  0  0
  183.5740  176.9340  140.4950 O   0  0  0  0  0  0  0  0  0  0  0  0
  182.7360  176.1100  139.7410 C   0  0  0  0  0  2  0  0  0  0  0  0
  182.7250  176.9480  136.1490 O   0  0  0  0  0  0  0  0  0  0  0  0
  184.0970  175.9590  137.7210 N   0  0  0  0  0  0  0  0  0  0  0  0
  183.0170  176.3140  138.2940 C   0  0  0  0  0  0  0  0  0  0  0  0
  183.9280  176.3470  136.3910 N   0  0  0  0  0  2  0  0  0  0  0  0
  182.1390  176.9370  137.3810 N   0  0  0  0  0  2  0  0  0  0  0  0
  1 18  1  0  0  0  0
  2 14  1  0  0  0  0
  2 27  1  0  0  0  0
  3  7  1  1  0  0  0
  4 15  1  0  0  0  0
  5 11  1  6  0  0  0
  5 19  1  0  0  0  0
  6  7  1  1  0  0  0
  6 19  1  0  0  0  0
  6  3  1  0  0  0  0
  8 16  1  0  0  0  0
  9 13  1  0  0  0  0
 10 22  1  0  0  0  0
 12  8  1  0  0  0  0
 13 20  1  0  0  0  0
 13 24  1  0  0  0  0
 14 25  1  0  0  0  0
 15 12  1  0  0  0  0
 15  5  1  0  0  0  0
 16  3  1  0  0  0  0
 17 10  1  0  0  0  0
 18  4  2  0  0  0  0
 18 20  1  0  0  0  0
 19  3  1  0  0  0  0
 20 11  1  0  0  0  0
 21 23  2  0  0  0  0
 22 24  1  0  0  0  0
 23  4  1  0  0  0  0
 25 17  1  0  0  0  0
 25  9  1  0  0  0  0
 26 21  1  0  0  0  0
 26  1  2  0  0  0  0
 27  1  1  0  0  0  0
 27  9  1  0  0  0  0
 28 17  1  0  0  0  0
 29 28  1  0  0  0  0
 30 33  1  0  0  0  0
 30 34  1  0  0  0  0
 31 32  2  0  0  0  0
 32 29  1  0  0  0  0
 33 31  1  0  0  0  0
 34 32  1  0  0  0  0
M  END
>  <MODEL>
3

>  <REMARK>
 VINA RESULT:      -7.1      2.663      3.614
  Name = 
  3 active torsions:
  status: ('A' for Active; 'I' for Inactive)
    1  A    between atoms: C_17  and  O_28
    2  A    between atoms: O_28  and  C_29
    3  A    between atoms: C_29  and  C_32
                            x       y       z     vdW  Elec       q    Type
                         _______ _______ _______ _____ _____    ______ ____

>  <TORSDO>
F 3

$$$$
=
 OpenBabel11122412083D

 34 42  0  0  1  0  0  0  0  0999 V2000
  186.2520  176.2090  135.3200 C   0  0  0  0  0  0  0  0  0  0  0  0
  188.1830  177.6290  134.5950 C   0  0  0  0  0  2  0  0  0  0  0  0
  183.3140  171.2990  136.0660 C   0  0  2  0  0  0  0  0  0  0  0  0
  184.5440  175.1440  136.6410 C   0  0  0  0  0  0  0  0  0  0  0  0
  184.9320  172.7710  137.5290 C   0  0  1  0  0  3  0  0  0  0  0  0
  183.8540  172.4260  135.1890 C   0  0  2  0  0  3  0  0  0  0  0  0
  182.9620  171.3560  134.5950 C   0  0  0  0  0  2  0  0  0  0  0  0
  181.8320  173.2610  136.9460 C   0  0  0  0  0  2  0  0  0  0  0  0
  188.6490  175.3530  135.3330 N   0  0  2  0  0  0  0  0  0  0  0  0
  190.7610  175.3430  137.8070 C   0  0  0  0  0  2  0  0  0  0  0  0
  186.4100  173.1550  137.5970 C   0  0  0  0  0  2  0  0  0  0  0  0
  182.6540  173.9870  137.9900 C   0  0  0  0  0  2  0  0  0  0  0  0
  188.2230  174.6000  136.5400 C   0  0  1  0  0  3  0  0  0  0  0  0
  189.6700  177.4720  134.7430 C   0  0  0  0  0  2  0  0  0  0  0  0
  184.1350  174.0850  137.6280 C   0  0  2  0  0  3  0  0  0  0  0  0
  182.1630  171.7720  136.9760 C   0  0  0  0  0  2  0  0  0  0  0  0
  190.1750  176.5360  137.0290 C   0  0  1  0  0  3  0  0  0  0  0  0
  185.8570  175.1480  136.1350 C   0  0  0  0  0  0  0  0  0  0  0  0
  184.7190  171.8500  136.2990 C   0  0  2  0  0  3  0  0  0  0  0  0
  186.8180  174.0160  136.3830 C   0  0  2  0  0  3  0  0  0  0  0  0
  184.1010  177.1810  135.5280 C   0  0  0  0  0  3  0  0  0  0  0  0
  190.6730  174.0050  137.0660 C   0  0  0  0  0  2  0  0  0  0  0  0
  183.7040  176.1700  136.3420 N   0  0  0  0  0  0  0  0  0  0  0  0
  189.2370  173.5010  136.9010 C   0  0  0  0  0  2  0  0  0  0  0  0
  189.8420  176.2050  135.5490 C   0  0  1  0  0  3  0  0  0  0  0  0
  185.3600  177.1920  135.0190 N   0  0  0  0  0  0  0  0  0  0  0  0
  187.6280  176.2210  134.6960 C   0  0  1  0  0  3  0  0  0  0  0  0
  189.0570  177.0390  137.7050 O   0  0  0  0  0  0  0  0  0  0  0  0
  189.5650  177.7500  138.7940 C   0  0  0  0  0  2  0  0  0  0  0  0
  187.3250  178.6110  141.5960 O   0  0  0  0  0  0  0  0  0  0  0  0
  187.2730  178.4240  139.2950 N   0  0  0  0  0  0  0  0  0  0  0  0
  188.4450  178.1330  139.6970 C   0  0  0  0  0  0  0  0  0  0  0  0
  186.5690  178.7220  140.4620 N   0  0  0  0  0  2  0  0  0  0  0  0
  188.5420  178.2410  141.1010 N   0  0  0  0  0  2  0  0  0  0  0  0
  1 18  1  0  0  0  0
  2 27  1  0  0  0  0
  2 14  1  0  0  0  0
  3  7  1  6  0  0  0
  3 19  1  0  0  0  0
  3 16  1  0  0  0  0
  4 15  1  0  0  0  0
  5 11  1  6  0  0  0
  5 15  1  0  0  0  0
  6  7  1  6  0  0  0
  6  3  1  0  0  0  0
  6 19  1  0  0  0  0
  8 16  1  0  0  0  0
  8 12  1  0  0  0  0
  9 25  1  0  0  0  0
  9 13  1  0  0  0  0
 13 24  1  0  0  0  0
 14 25  1  0  0  0  0
 15 12  1  0  0  0  0
 17 28  1  0  0  0  0
 17 10  1  0  0  0  0
 18 20  1  0  0  0  0
 18  4  2  0  0  0  0
 19  5  1  0  0  0  0
 20 13  1  0  0  0  0
 20 11  1  0  0  0  0
 21 23  2  0  0  0  0
 22 10  1  0  0  0  0
 23  4  1  0  0  0  0
 24 22  1  0  0  0  0
 25 17  1  0  0  0  0
 26  1  2  0  0  0  0
 26 21  1  0  0  0  0
 27  1  1  0  0  0  0
 27  9  1  0  0  0  0
 28 29  1  0  0  0  0
 29 32  1  0  0  0  0
 31 32  2  0  0  0  0
 31 33  1  0  0  0  0
 32 34  1  0  0  0  0
 33 30  1  0  0  0  0
 34 30  1  0  0  0  0
M  END
>  <MODEL>
4

>  <REMARK>
 VINA RESULT:      -6.5      3.309      7.899
  Name = 
  3 active torsions:
  status: ('A' for Active; 'I' for Inactive)
    1  A    between atoms: C_17  and  O_28
    2  A    between atoms: O_28  and  C_29
    3  A    between atoms: C_29  and  C_32
                            x       y       z     vdW  Elec       q    Type
                         _______ _______ _______ _____ _____    ______ ____

>  <TORSDO>
F 3

$$$$
=
 OpenBabel11122412083D

 34 42  0  0  1  0  0  0  0  0999 V2000
  185.6630  178.0800  137.5030 C   0  0  0  0  0  0  0  0  0  0  0  0
  187.9390  179.0230  137.0560 C   0  0  0  0  0  2  0  0  0  0  0  0
  180.8770  175.0840  136.3120 C   0  0  2  0  0  0  0  0  0  0  0  0
  183.8140  176.8920  138.4870 C   0  0  0  0  0  0  0  0  0  0  0  0
  183.1460  174.6000  137.5540 C   0  0  1  0  0  3  0  0  0  0  0  0
  181.7790  176.3050  136.1460 C   0  0  2  0  0  3  0  0  0  0  0  0
  180.4310  176.2510  135.4580 C   0  0  0  0  0  2  0  0  0  0  0  0
  180.5900  176.1440  138.6820 C   0  0  0  0  0  2  0  0  0  0  0  0
  187.3680  176.8800  136.0430 N   0  0  2  0  0  0  0  0  0  0  0  0
  189.4920  174.5770  136.9200 C   0  0  0  0  0  2  0  0  0  0  0  0
  184.6290  174.4190  137.2330 C   0  0  0  0  0  2  0  0  0  0  0  0
  181.7670  175.6720  139.5110 C   0  0  0  0  0  2  0  0  0  0  0  0
  186.7770  175.6440  136.6150 C   0  0  1  0  0  3  0  0  0  0  0  0
  189.1870  178.4270  136.4680 C   0  0  0  0  0  2  0  0  0  0  0  0
  183.0710  175.6050  138.7190 C   0  0  2  0  0  3  0  0  0  0  0  0
  180.1880  175.0550  137.6920 C   0  0  0  0  0  2  0  0  0  0  0  0
  189.4480  176.0650  137.3140 C   0  0  1  0  0  3  0  0  0  0  0  0
  184.9120  176.9090  137.6070 C   0  0  0  0  0  0  0  0  0  0  0  0
  182.3920  174.9160  136.2350 C   0  0  2  0  0  3  0  0  0  0  0  0
  185.2550  175.7370  136.7260 C   0  0  2  0  0  3  0  0  0  0  0  0
  184.2530  179.1350  139.0880 C   0  0  0  0  0  3  0  0  0  0  0  0
  188.7080  174.2410  135.6470 C   0  0  0  0  0  2  0  0  0  0  0  0
  183.5230  177.9990  139.2210 N   0  0  0  0  0  0  0  0  0  0  0  0
  187.1940  174.4000  135.8120 C   0  0  0  0  0  2  0  0  0  0  0  0
  188.8370  176.9780  136.2170 C   0  0  1  0  0  3  0  0  0  0  0  0
  185.3060  179.1730  138.2310 N   0  0  0  0  0  0  0  0  0  0  0  0
  186.8070  178.1690  136.5190 C   0  0  1  0  0  3  0  0  0  0  0  0
  188.7770  176.2120  138.5340 O   0  0  0  0  0  0  0  0  0  0  0  0
  189.7150  176.7520  139.4160 C   0  0  0  0  0  2  0  0  0  0  0  0
  187.5350  178.6280  141.7260 O   0  0  0  0  0  0  0  0  0  0  0  0
  189.2900  177.1280  141.7890 N   0  0  0  0  0  0  0  0  0  0  0  0
  189.0070  177.3680  140.5720 C   0  0  0  0  0  0  0  0  0  0  0  0
  188.3840  177.9040  142.5150 N   0  0  0  0  0  2  0  0  0  0  0  0
  187.9300  178.2740  140.4690 N   0  0  0  0  0  2  0  0  0  0  0  0
  1 18  2  0  0  0  0
  1 26  1  0  0  0  0
  3  7  1  6  0  0  0
  3 16  1  0  0  0  0
  4 15  1  0  0  0  0
  4 23  2  0  0  0  0
  5 11  1  6  0  0  0
  5 15  1  0  0  0  0
  6  7  1  6  0  0  0
  6 19  1  0  0  0  0
  6  3  1  0  0  0  0
  8 12  1  0  0  0  0
  9 25  1  0  0  0  0
  9 27  1  0  0  0  0
  9 13  1  0  0  0  0
 10 17  1  0  0  0  0
 13 20  1  0  0  0  0
 14  2  1  0  0  0  0
 15 12  1  0  0  0  0
 16  8  1  0  0  0  0
 17 28  1  0  0  0  0
 18  4  1  0  0  0  0
 19  3  1  0  0  0  0
 19  5  1  0  0  0  0
 20 11  1  0  0  0  0
 20 18  1  0  0  0  0
 21 23  1  0  0  0  0
 22 24  1  0  0  0  0
 22 10  1  0  0  0  0
 24 13  1  0  0  0  0
 25 14  1  0  0  0  0
 25 17  1  0  0  0  0
 26 21  2  0  0  0  0
 27  2  1  0  0  0  0
 27  1  1  0  0  0  0
 28 29  1  0  0  0  0
 29 32  1  0  0  0  0
 30 33  1  0  0  0  0
 31 33  1  0  0  0  0
 32 31  2  0  0  0  0
 34 32  1  0  0  0  0
 34 30  1  0  0  0  0
M  END
>  <MODEL>
5

>  <REMARK>
 VINA RESULT:      -6.2      2.794      7.558
  Name = 
  3 active torsions:
  status: ('A' for Active; 'I' for Inactive)
    1  A    between atoms: C_17  and  O_28
    2  A    between atoms: O_28  and  C_29
    3  A    between atoms: C_29  and  C_32
                            x       y       z     vdW  Elec       q    Type
                         _______ _______ _______ _____ _____    ______ ____

>  <TORSDO>
F 3

$$$$
=
 OpenBabel11122412083D

 34 42  0  0  1  0  0  0  0  0999 V2000
  183.9690  177.8880  139.3270 C   0  0  0  0  0  0  0  0  0  0  0  0
  181.7130  178.2550  140.3470 C   0  0  0  0  0  2  0  0  0  0  0  0
  187.8620  175.2930  135.9480 C   0  0  2  0  0  0  0  0  0  0  0  0
  186.0440  178.2070  138.1450 C   0  0  0  0  0  0  0  0  0  0  0  0
  186.2630  177.3720  135.7320 C   0  0  1  0  0  3  0  0  0  0  0  0
  186.9810  175.3460  137.1940 C   0  0  2  0  0  3  0  0  0  0  0  0
  187.9470  174.1970  136.9880 C   0  0  0  0  0  2  0  0  0  0  0  0
  189.0740  177.2150  137.2360 C   0  0  0  0  0  2  0  0  0  0  0  0
  181.8130  177.3680  138.0790 N   0  0  2  0  0  0  0  0  0  0  0  0
  180.1830  179.2780  136.0110 C   0  0  0  0  0  2  0  0  0  0  0  0
  184.7710  177.6810  135.6050 C   0  0  0  0  0  2  0  0  0  0  0  0
  188.3150  178.4880  136.9250 C   0  0  0  0  0  2  0  0  0  0  0  0
  182.5680  177.8090  136.8790 C   0  0  1  0  0  3  0  0  0  0  0  0
  180.3280  178.2800  139.7660 C   0  0  0  0  0  2  0  0  0  0  0  0
  186.8030  178.2840  136.8490 C   0  0  2  0  0  3  0  0  0  0  0  0
  189.0390  176.2860  136.0260 C   0  0  0  0  0  2  0  0  0  0  0  0
  180.3960  179.4390  137.5270 C   0  0  1  0  0  3  0  0  0  0  0  0
  184.6870  177.8310  138.1320 C   0  0  0  0  0  0  0  0  0  0  0  0
  186.4370  175.8360  135.8610 C   0  0  2  0  0  3  0  0  0  0  0  0
  184.0120  177.3040  136.8940 C   0  0  2  0  0  3  0  0  0  0  0  0
  185.9030  178.6540  140.4620 C   0  0  0  0  0  3  0  0  0  0  0  0
  180.3970  177.8510  135.4950 C   0  0  0  0  0  2  0  0  0  0  0  0
  186.6140  178.6280  139.3050 N   0  0  0  0  0  0  0  0  0  0  0  0
  181.8540  177.3900  135.5830 C   0  0  0  0  0  2  0  0  0  0  0  0
  180.5340  178.0890  138.2800 C   0  0  1  0  0  3  0  0  0  0  0  0
  184.5980  178.2790  140.4690 N   0  0  0  0  0  0  0  0  0  0  0  0
  182.5320  177.4270  139.3760 C   0  0  1  0  0  3  0  0  0  0  0  0
  181.4960  180.2720  137.7650 O   0  0  0  0  0  0  0  0  0  0  0  0
  180.9880  181.3810  138.4440 C   0  0  0  0  0  2  0  0  0  0  0  0
  181.9300  184.6270  136.9660 O   0  0  0  0  0  0  0  0  0  0  0  0
  180.6400  182.7760  136.4720 N   0  0  0  0  0  0  0  0  0  0  0  0
  181.1810  182.6000  137.6110 C   0  0  0  0  0  0  0  0  0  0  0  0
  181.0970  184.0300  136.0620 N   0  0  0  0  0  2  0  0  0  0  0  0
  181.9930  183.6990  137.9640 N   0  0  0  0  0  2  0  0  0  0  0  0
  1 27  1  0  0  0  0
  1 26  1  0  0  0  0
  3 16  1  6  0  0  0
  3  7  1  0  0  0  0
  3  6  1  0  0  0  0
  4 23  2  0  0  0  0
  5 11  1  1  0  0  0
  5 19  1  0  0  0  0
  5 15  1  0  0  0  0
  6  7  1  6  0  0  0
  9 25  1  0  0  0  0
  9 27  1  0  0  0  0
 10 17  1  0  0  0  0
 11 20  1  0  0  0  0
 12  8  1  0  0  0  0
 13 20  1  0  0  0  0
 13  9  1  0  0  0  0
 14  2  1  0  0  0  0
 15 12  1  0  0  0  0
 15  4  1  0  0  0  0
 16  8  1  0  0  0  0
 17 28  1  0  0  0  0
 17 25  1  0  0  0  0
 18  4  1  0  0  0  0
 18  1  2  0  0  0  0
 19  3  1  0  0  0  0
 19  6  1  0  0  0  0
 20 18  1  0  0  0  0
 21 26  2  0  0  0  0
 22 24  1  0  0  0  0
 22 10  1  0  0  0  0
 23 21  1  0  0  0  0
 24 13  1  0  0  0  0
 25 14  1  0  0  0  0
 27  2  1  0  0  0  0
 28 29  1  0  0  0  0
 30 34  1  0  0  0  0
 31 32  2  0  0  0  0
 32 34  1  0  0  0  0
 32 29  1  0  0  0  0
 33 31  1  0  0  0  0
 33 30  1  0  0  0  0
M  END
>  <MODEL>
6

>  <REMARK>
 VINA RESULT:      -5.9      4.505      7.949
  Name = 
  3 active torsions:
  status: ('A' for Active; 'I' for Inactive)
    1  A    between atoms: C_17  and  O_28
    2  A    between atoms: O_28  and  C_29
    3  A    between atoms: C_29  and  C_32
                            x       y       z     vdW  Elec       q    Type
                         _______ _______ _______ _____ _____    ______ ____

>  <TORSDO>
F 3

$$$$
=
 OpenBabel11122412083D

 34 42  0  0  1  0  0  0  0  0999 V2000
  183.7930  177.3680  138.7470 C   0  0  0  0  0  0  0  0  0  0  0  0
  181.4090  177.1940  139.4890 C   0  0  0  0  0  2  0  0  0  0  0  0
  188.6130  175.6680  136.0670 C   0  0  2  0  0  0  0  0  0  0  0  0
  185.8480  178.1430  137.7570 C   0  0  0  0  0  0  0  0  0  0  0  0
  186.5740  177.2250  135.4770 C   0  0  1  0  0  3  0  0  0  0  0  0
  187.5990  175.5750  137.2050 C   0  0  2  0  0  3  0  0  0  0  0  0
  188.8450  174.7130  137.2180 C   0  0  0  0  0  2  0  0  0  0  0  0
  189.1200  177.9310  137.2690 C   0  0  0  0  0  2  0  0  0  0  0  0
  182.0170  176.2030  137.3450 N   0  0  2  0  0  0  0  0  0  0  0  0
  180.2240  177.4550  134.9360 C   0  0  0  0  0  2  0  0  0  0  0  0
  185.0820  177.1140  135.1670 C   0  0  0  0  0  2  0  0  0  0  0  0
  188.1050  178.9300  136.7520 C   0  0  0  0  0  2  0  0  0  0  0  0
  182.7780  176.7420  136.1890 C   0  0  1  0  0  3  0  0  0  0  0  0
  180.1480  176.8060  138.7690 C   0  0  0  0  0  2  0  0  0  0  0  0
  186.7190  178.3250  136.5440 C   0  0  2  0  0  3  0  0  0  0  0  0
  189.4770  176.9420  136.1630 C   0  0  0  0  0  2  0  0  0  0  0  0
  180.1970  177.7770  136.4420 C   0  0  1  0  0  3  0  0  0  0  0  0
  184.6460  177.4190  137.6440 C   0  0  0  0  0  0  0  0  0  0  0  0
  187.1200  175.8030  135.7800 C   0  0  2  0  0  3  0  0  0  0  0  0
  184.2890  176.6420  136.4040 C   0  0  2  0  0  3  0  0  0  0  0  0
  185.3080  178.7020  139.9890 C   0  0  0  0  0  3  0  0  0  0  0  0
  180.8600  176.1030  134.5940 C   0  0  0  0  0  2  0  0  0  0  0  0
  186.1400  178.7840  138.9190 N   0  0  0  0  0  0  0  0  0  0  0  0
  182.3630  176.0550  134.8770 C   0  0  0  0  0  2  0  0  0  0  0  0
  180.5810  176.5700  137.3400 C   0  0  1  0  0  3  0  0  0  0  0  0
  184.1520  177.9950  139.9010 N   0  0  0  0  0  0  0  0  0  0  0  0
  182.5270  176.5450  138.6960 C   0  0  1  0  0  3  0  0  0  0  0  0
  181.0070  178.8880  136.7040 O   0  0  0  0  0  0  0  0  0  0  0  0
  180.6670  179.8380  135.7390 C   0  0  0  0  0  2  0  0  0  0  0  0
  181.1360  182.8260  137.8500 O   0  0  0  0  0  0  0  0  0  0  0  0
  180.5880  182.2760  135.6750 N   0  0  0  0  0  0  0  0  0  0  0  0
  180.7800  181.2000  136.3280 C   0  0  0  0  0  0  0  0  0  0  0  0
  180.8050  183.2910  136.6080 N   0  0  0  0  0  2  0  0  0  0  0  0
  181.1300  181.4740  137.6670 N   0  0  0  0  0  2  0  0  0  0  0  0
  1 26  1  0  0  0  0
  3 16  1  6  0  0  0
  3  6  1  0  0  0  0
  3  7  1  0  0  0  0
  4 23  2  0  0  0  0
  5 11  1  1  0  0  0
  5 19  1  0  0  0  0
  5 15  1  0  0  0  0
  6  7  1  6  0  0  0
  9 27  1  0  0  0  0
 10 17  1  0  0  0  0
 11 20  1  0  0  0  0
 12  8  1  0  0  0  0
 13 20  1  0  0  0  0
 13  9  1  0  0  0  0
 14  2  1  0  0  0  0
 15 12  1  0  0  0  0
 15  4  1  0  0  0  0
 16  8  1  0  0  0  0
 17 28  1  0  0  0  0
 17 25  1  0  0  0  0
 18  4  1  0  0  0  0
 18  1  2  0  0  0  0
 19  3  1  0  0  0  0
 19  6  1  0  0  0  0
 20 18  1  0  0  0  0
 22 24  1  0  0  0  0
 22 10  1  0  0  0  0
 23 21  1  0  0  0  0
 24 13  1  0  0  0  0
 25  9  1  0  0  0  0
 25 14  1  0  0  0  0
 26 21  2  0  0  0  0
 27  1  1  0  0  0  0
 27  2  1  0  0  0  0
 29 32  1  0  0  0  0
 29 28  1  0  0  0  0
 31 32  2  0  0  0  0
 31 33  1  0  0  0  0
 32 34  1  0  0  0  0
 33 30  1  0  0  0  0
 34 30  1  0  0  0  0
M  END
>  <MODEL>
7

>  <REMARK>
 VINA RESULT:      -5.5      4.719      7.826
  Name = 
  3 active torsions:
  status: ('A' for Active; 'I' for Inactive)
    1  A    between atoms: C_17  and  O_28
    2  A    between atoms: O_28  and  C_29
    3  A    between atoms: C_29  and  C_32
                            x       y       z     vdW  Elec       q    Type
                         _______ _______ _______ _____ _____    ______ ____

>  <TORSDO>
F 3

$$$$
=
 OpenBabel11122412083D

 34 42  0  0  1  0  0  0  0  0999 V2000
  183.4030  178.0270  139.2790 C   0  0  0  0  0  0  0  0  0  0  0  0
  181.4800  178.9200  140.6100 C   0  0  0  0  0  2  0  0  0  0  0  0
  186.1930  174.2220  135.9570 C   0  0  2  0  0  0  0  0  0  0  0  0
  185.1660  177.7830  137.6560 C   0  0  0  0  0  0  0  0  0  0  0  0
  184.7550  176.3870  135.5470 C   0  0  1  0  0  3  0  0  0  0  0  0
  185.6320  174.6800  137.3010 C   0  0  2  0  0  3  0  0  0  0  0  0
  186.4310  173.3970  137.2040 C   0  0  0  0  0  2  0  0  0  0  0  0
  187.8170  176.2120  136.4320 C   0  0  0  0  0  2  0  0  0  0  0  0
  180.9830  177.5220  138.6750 N   0  0  2  0  0  0  0  0  0  0  0  0
  179.0720  179.0970  136.5650 C   0  0  0  0  0  2  0  0  0  0  0  0
  183.3030  176.8530  135.6520 C   0  0  0  0  0  2  0  0  0  0  0  0
  187.1080  177.4670  135.9660 C   0  0  0  0  0  2  0  0  0  0  0  0
  181.4720  177.5670  137.2740 C   0  0  1  0  0  3  0  0  0  0  0  0
  180.0040  178.9920  140.3380 C   0  0  0  0  0  2  0  0  0  0  0  0
  185.6090  177.4530  136.2570 C   0  0  2  0  0  3  0  0  0  0  0  0
  187.4300  175.0390  135.5350 C   0  0  0  0  0  2  0  0  0  0  0  0
  179.6430  179.5780  137.9120 C   0  0  1  0  0  3  0  0  0  0  0  0
  183.8190  177.5980  138.0180 C   0  0  0  0  0  0  0  0  0  0  0  0
  184.8340  174.9130  136.0270 C   0  0  2  0  0  3  0  0  0  0  0  0
  182.8360  176.8920  137.1230 C   0  0  2  0  0  3  0  0  0  0  0  0
  185.6010  178.7720  139.7580 C   0  0  0  0  0  3  0  0  0  0  0  0
  179.0490  177.5740  136.4010 C   0  0  0  0  0  2  0  0  0  0  0  0
  186.0200  178.3840  138.5270 N   0  0  0  0  0  0  0  0  0  0  0  0
  180.4460  176.9560  136.3040 C   0  0  0  0  0  2  0  0  0  0  0  0
  179.8460  178.4350  138.9420 C   0  0  1  0  0  3  0  0  0  0  0  0
  184.3080  178.5870  140.1280 N   0  0  0  0  0  0  0  0  0  0  0  0
  181.9850  177.7860  139.7380 C   0  0  1  0  0  3  0  0  0  0  0  0
  180.8290  180.2890  137.6970 O   0  0  0  0  0  0  0  0  0  0  0  0
  180.6880  180.8860  136.4430 C   0  0  0  0  0  2  0  0  0  0  0  0
  181.4410  184.3430  137.4890 O   0  0  0  0  0  0  0  0  0  0  0  0
  180.7930  183.1750  135.6050 N   0  0  0  0  0  0  0  0  0  0  0  0
  180.9210  182.3510  136.5660 C   0  0  0  0  0  0  0  0  0  0  0  0
  181.1130  184.4140  136.1640 N   0  0  0  0  0  2  0  0  0  0  0  0
  181.3270  183.0080  137.7480 N   0  0  0  0  0  2  0  0  0  0  0  0
  1 27  1  0  0  0  0
  1 26  1  0  0  0  0
  3 16  1  6  0  0  0
  3 19  1  0  0  0  0
  3  7  1  0  0  0  0
  3  6  1  0  0  0  0
  4 18  1  0  0  0  0
  4 23  2  0  0  0  0
  5 11  1  1  0  0  0
  5 19  1  0  0  0  0
  5 15  1  0  0  0  0
  6  7  1  1  0  0  0
  9 25  1  0  0  0  0
  9 27  1  0  0  0  0
 10 17  1  0  0  0  0
 11 20  1  0  0  0  0
 12 15  1  0  0  0  0
 12  8  1  0  0  0  0
 13  9  1  0  0  0  0
 14  2  1  0  0  0  0
 15  4  1  0  0  0  0
 16  8  1  0  0  0  0
 17 25  1  0  0  0  0
 18  1  2  0  0  0  0
 19  6  1  0  0  0  0
 20 13  1  0  0  0  0
 20 18  1  0  0  0  0
 21 26  2  0  0  0  0
 22 10  1  0  0  0  0
 23 21  1  0  0  0  0
 24 22  1  0  0  0  0
 24 13  1  0  0  0  0
 25 14  1  0  0  0  0
 27  2  1  0  0  0  0
 28 17  1  0  0  0  0
 29 32  1  0  0  0  0
 29 28  1  0  0  0  0
 30 34  1  0  0  0  0
 31 33  1  0  0  0  0
 31 32  2  0  0  0  0
 32 34  1  0  0  0  0
 33 30  1  0  0  0  0
M  END
>  <MODEL>
8

>  <REMARK>
 VINA RESULT:      -5.5      4.960      8.500
  Name = 
  3 active torsions:
  status: ('A' for Active; 'I' for Inactive)
    1  A    between atoms: C_17  and  O_28
    2  A    between atoms: O_28  and  C_29
    3  A    between atoms: C_29  and  C_32
                            x       y       z     vdW  Elec       q    Type
                         _______ _______ _______ _____ _____    ______ ____

>  <TORSDO>
F 3

$$$$
=
 OpenBabel11122412083D

 34 42  0  0  1  0  0  0  0  0999 V2000
  185.7500  178.3150  139.5470 C   0  0  0  0  0  0  0  0  0  0  0  0
  188.2210  178.0230  139.2680 C   0  0  0  0  0  2  0  0  0  0  0  0
  180.4850  180.2300  138.1670 C   0  0  2  0  0  0  0  0  0  0  0  0
  183.3940  177.8890  139.8040 C   0  0  0  0  0  0  0  0  0  0  0  0
  181.8570  178.0220  137.7580 C   0  0  1  0  0  3  0  0  0  0  0  0
  181.8970  180.4430  138.7050 C   0  0  2  0  0  3  0  0  0  0  0  0
  180.8960  181.5790  138.7170 C   0  0  0  0  0  2  0  0  0  0  0  0
  180.2890  178.8880  140.4000 C   0  0  0  0  0  2  0  0  0  0  0  0
  186.8580  178.2350  137.2580 N   0  0  2  0  0  0  0  0  0  0  0  0
  187.2520  175.6600  135.3090 C   0  0  0  0  0  2  0  0  0  0  0  0
  183.0640  177.5380  136.9550 C   0  0  0  0  0  2  0  0  0  0  0  0
  180.8480  177.5080  140.1230 C   0  0  0  0  0  2  0  0  0  0  0  0
  185.6100  177.5510  136.8340 C   0  0  1  0  0  3  0  0  0  0  0  0
  189.0750  177.6920  138.0770 C   0  0  0  0  0  2  0  0  0  0  0  0
  182.0650  177.5260  139.2000 C   0  0  2  0  0  3  0  0  0  0  0  0
  179.6050  179.4270  139.1470 C   0  0  0  0  0  2  0  0  0  0  0  0
  187.8970  175.9580  136.6750 C   0  0  1  0  0  3  0  0  0  0  0  0
  184.5010  178.1040  138.9630 C   0  0  0  0  0  0  0  0  0  0  0  0
  181.6730  179.5420  137.5010 C   0  0  2  0  0  3  0  0  0  0  0  0
  184.3690  178.1860  137.4650 C   0  0  2  0  0  3  0  0  0  0  0  0
  184.7860  178.1060  141.7020 C   0  0  0  0  0  3  0  0  0  0  0  0
  186.6960  176.8950  134.5940 C   0  0  0  0  0  2  0  0  0  0  0  0
  183.5660  177.8750  141.1530 N   0  0  0  0  0  0  0  0  0  0  0  0
  185.4860  177.5090  135.3020 C   0  0  0  0  0  2  0  0  0  0  0  0
  188.0920  177.4730  136.9500 C   0  0  1  0  0  3  0  0  0  0  0  0
  185.8610  178.3310  140.9040 N   0  0  0  0  0  0  0  0  0  0  0  0
  186.9540  178.6210  138.6870 C   0  0  1  0  0  3  0  0  0  0  0  0
  187.1570  175.3440  137.6930 O   0  0  0  0  0  0  0  0  0  0  0  0
  187.0670  173.9980  137.3340 C   0  0  0  0  0  2  0  0  0  0  0  0
  183.3960  173.7080  137.5530 O   0  0  0  0  0  0  0  0  0  0  0  0
  185.2420  172.3950  137.1030 N   0  0  0  0  0  0  0  0  0  0  0  0
  185.6390  173.5780  137.3510 C   0  0  0  0  0  0  0  0  0  0  0  0
  183.8530  172.4620  137.2250 N   0  0  0  0  0  2  0  0  0  0  0  0
  184.5490  174.4330  137.6250 N   0  0  0  0  0  2  0  0  0  0  0  0
  1 26  1  0  0  0  0
  3  6  1  0  0  0  0
  3  7  1  6  0  0  0
  3 16  1  0  0  0  0
  4 23  2  0  0  0  0
  5 11  1  6  0  0  0
  5 15  1  0  0  0  0
  6  7  1  6  0  0  0
  9 27  1  0  0  0  0
 10 17  1  0  0  0  0
 11 20  1  0  0  0  0
 12  8  1  0  0  0  0
 13  9  1  0  0  0  0
 13 20  1  0  0  0  0
 14  2  1  0  0  0  0
 15  4  1  0  0  0  0
 15 12  1  0  0  0  0
 16  8  1  0  0  0  0
 17 25  1  0  0  0  0
 17 28  1  0  0  0  0
 18  1  2  0  0  0  0
 18  4  1  0  0  0  0
 19  5  1  0  0  0  0
 19  3  1  0  0  0  0
 19  6  1  0  0  0  0
 20 18  1  0  0  0  0
 22 24  1  0  0  0  0
 22 10  1  0  0  0  0
 23 21  1  0  0  0  0
 24 13  1  0  0  0  0
 25  9  1  0  0  0  0
 25 14  1  0  0  0  0
 26 21  2  0  0  0  0
 27  2  1  0  0  0  0
 27  1  1  0  0  0  0
 29 32  1  0  0  0  0
 29 28  1  0  0  0  0
 30 34  1  0  0  0  0
 31 33  1  0  0  0  0
 31 32  2  0  0  0  0
 32 34  1  0  0  0  0
 33 30  1  0  0  0  0
M  END
>  <MODEL>
9

>  <REMARK>
 VINA RESULT:      -5.0      3.346      6.754
  Name = 
  3 active torsions:
  status: ('A' for Active; 'I' for Inactive)
    1  A    between atoms: C_17  and  O_28
    2  A    between atoms: O_28  and  C_29
    3  A    between atoms: C_29  and  C_32
                            x       y       z     vdW  Elec       q    Type
                         _______ _______ _______ _____ _____    ______ ____

>  <TORSDO>
F 3

$$$$
