=
 OpenBabel11122412253D

 34 40  0  0  1  0  0  0  0  0999 V2000
  184.3680  178.5480  144.5350 C   0  0  0  0  0  0  0  0  0  0  0  0
  181.9010  178.9570  143.9600 C   0  0  0  0  0  2  0  0  0  0  0  0
  190.4520  176.4420  143.1170 C   0  0  0  0  0  0  0  0  0  0  0  0
  186.7410  178.0640  144.9230 C   0  0  0  0  0  0  0  0  0  0  0  0
  188.2310  177.6400  143.0170 C   0  0  0  0  0  0  0  0  0  0  0  0
  189.5860  177.1570  140.8830 C   0  0  0  0  0  1  0  0  0  0  0  0
  190.4630  175.2640  142.7950 O   0  0  0  0  0  0  0  0  0  0  0  0
  190.5060  177.9850  145.0630 C   0  0  0  0  0  2  0  0  0  0  0  0
  183.5230  178.6200  142.2650 C   0  0  0  0  0  0  0  0  0  0  0  0
  182.9770  178.9640  139.3050 C   0  0  0  0  0  2  0  0  0  0  0  0
  187.1410  177.8530  142.1610 C   0  0  0  0  0  3  0  0  0  0  0  0
  189.1190  177.4880  145.4510 C   0  0  0  0  0  2  0  0  0  0  0  0
  184.8010  178.3470  141.7440 C   0  0  0  0  0  0  0  0  0  0  0  0
  181.2220  179.1180  142.6020 C   0  0  0  0  0  2  0  0  0  0  0  0
  188.0330  177.7690  144.4270 C   0  0  0  0  0  0  0  0  0  0  0  0
  191.2500  176.8980  144.2960 C   0  0  0  0  0  2  0  0  0  0  0  0
  182.2980  179.6360  140.4030 N   0  0  0  0  0  0  0  0  0  0  0  0
  185.6590  178.2520  144.0390 C   0  0  0  0  0  0  0  0  0  0  0  0
  189.6010  177.4360  142.3840 C   0  0  2  0  0  3  0  0  0  0  0  0
  185.8660  178.1430  142.6430 C   0  0  0  0  0  0  0  0  0  0  0  0
  185.3040  178.4540  146.8780 C   0  0  0  0  0  3  0  0  0  0  0  0
  184.4750  179.1610  139.4190 C   0  0  0  0  0  2  0  0  0  0  0  0
  186.5080  178.1840  146.3780 C   0  0  0  0  0  3  0  0  0  0  0  0
  185.0420  178.2630  140.3660 O   0  0  0  0  0  0  0  0  0  0  0  0
  182.2300  178.6830  141.5180 C   0  0  1  0  0  3  0  0  0  0  0  0
  184.0900  178.6500  146.0150 C   0  0  0  0  0  3  0  0  0  0  0  0
  183.3220  178.7200  143.6220 C   0  0  2  0  0  3  0  0  0  0  0  0
  180.9530  179.8980  139.9020 C   0  0  0  0  0  2  0  0  0  0  0  0
  180.9130  179.6730  138.4010 C   0  0  0  0  0  2  0  0  0  0  0  0
  180.6220  182.4010  136.2290 N   0  0  0  0  0  2  0  0  0  0  0  0
  180.2680  181.9110  138.5320 C   0  0  0  0  0  2  0  0  0  0  0  0
  180.0860  180.6890  137.7730 N   0  0  0  0  0  0  0  0  0  0  0  0
  180.6370  182.9980  137.5500 C   0  0  0  0  0  2  0  0  0  0  0  0
  180.6620  180.9670  136.4650 C   0  0  0  0  0  2  0  0  0  0  0  0
  1 26  2  0  0  0  0
  3 16  1  0  0  0  0
  4 23  1  0  0  0  0
  5 15  1  0  0  0  0
  7  3  2  0  0  0  0
  8 12  1  0  0  0  0
  9 27  1  0  0  0  0
 10 22  1  0  0  0  0
 10 17  1  0  0  0  0
 11 20  1  0  0  0  0
 11  5  2  0  0  0  0
 13  9  2  0  0  0  0
 13 20  1  0  0  0  0
 14  2  1  0  0  0  0
 15  4  2  0  0  0  0
 15 12  1  0  0  0  0
 16  8  1  0  0  0  0
 17 25  1  0  0  0  0
 18  1  1  0  0  0  0
 18  4  1  0  0  0  0
 19  6  1  6  0  0  0
 19  5  1  0  0  0  0
 19  3  1  0  0  0  0
 20 18  2  0  0  0  0
 22 24  1  0  0  0  0
 23 21  2  0  0  0  0
 24 13  1  0  0  0  0
 25  9  1  0  0  0  0
 25 14  1  1  0  0  0
 26 21  1  0  0  0  0
 27  2  1  1  0  0  0
 27  1  1  0  0  0  0
 28 17  1  0  0  0  0
 29 28  1  0  0  0  0
 30 34  1  0  0  0  0
 30 33  1  0  0  0  0
 32 29  1  0  0  0  0
 32 31  1  0  0  0  0
 33 31  1  0  0  0  0
 34 32  1  0  0  0  0
M  END
>  <MODEL>
1

>  <REMARK>
 VINA RESULT:     -11.4      0.000      0.000
  Name = 
  3 active torsions:
  status: ('A' for Active; 'I' for Inactive)
    1  A    between atoms: N_17  and  C_28
    2  A    between atoms: C_28  and  C_29
    3  A    between atoms: C_29  and  N_32
                            x       y       z     vdW  Elec       q    Type
                         _______ _______ _______ _____ _____    ______ ____

>  <TORSDO>
F 3

$$$$
=
 OpenBabel11122412253D

 34 40  0  0  1  0  0  0  0  0999 V2000
  185.7320  178.2820  145.0050 C   0  0  0  0  0  0  0  0  0  0  0  0
  183.6870  178.7250  143.5200 C   0  0  0  0  0  2  0  0  0  0  0  0
  191.7690  175.8750  146.1110 C   0  0  0  0  0  0  0  0  0  0  0  0
  187.7550  177.7530  146.2860 C   0  0  0  0  0  0  0  0  0  0  0  0
  189.8210  177.1330  145.1100 C   0  0  0  0  0  0  0  0  0  0  0  0
  191.8430  176.4420  143.6760 C   0  0  0  0  0  1  0  0  0  0  0  0
  191.8290  174.6750  145.8880 O   0  0  0  0  0  0  0  0  0  0  0  0
  191.1840  177.5630  147.8380 C   0  0  0  0  0  2  0  0  0  0  0  0
  185.8010  178.2050  142.5840 C   0  0  0  0  0  0  0  0  0  0  0  0
  186.4210  178.3350  139.6210 C   0  0  0  0  0  2  0  0  0  0  0  0
  189.1430  177.3150  143.8960 C   0  0  0  0  0  3  0  0  0  0  0  0
  189.7260  177.1430  147.7040 C   0  0  0  0  0  2  0  0  0  0  0  0
  187.1630  177.8500  142.5990 C   0  0  0  0  0  0  0  0  0  0  0  0
  183.5740  178.8030  141.9990 C   0  0  0  0  0  2  0  0  0  0  0  0
  189.1190  177.3780  146.3310 C   0  0  0  0  0  0  0  0  0  0  0  0
  192.0950  176.3950  147.4740 C   0  0  0  0  0  2  0  0  0  0  0  0
  185.4220  179.1120  140.3400 N   0  0  0  0  0  0  0  0  0  0  0  0
  187.0950  177.9070  145.0500 C   0  0  0  0  0  0  0  0  0  0  0  0
  191.3130  176.8360  145.0530 C   0  0  2  0  0  3  0  0  0  0  0  0
  187.8010  177.6830  143.8440 C   0  0  0  0  0  0  0  0  0  0  0  0
  185.7190  178.3400  147.5290 C   0  0  0  0  0  3  0  0  0  0  0  0
  187.7770  178.4920  140.2780 C   0  0  0  0  0  2  0  0  0  0  0  0
  187.0040  177.9940  147.5360 C   0  0  0  0  0  3  0  0  0  0  0  0
  187.8950  177.6520  141.4210 O   0  0  0  0  0  0  0  0  0  0  0  0
  184.8860  178.2520  141.4030 C   0  0  1  0  0  3  0  0  0  0  0  0
  184.9290  178.5080  146.2620 C   0  0  0  0  0  3  0  0  0  0  0  0
  185.1150  178.4170  143.7570 C   0  0  2  0  0  3  0  0  0  0  0  0
  184.3790  179.3780  139.3550 C   0  0  0  0  0  2  0  0  0  0  0  0
  184.4530  178.3490  138.2410 C   0  0  0  0  0  2  0  0  0  0  0  0
  181.1210  177.9250  139.2200 N   0  0  0  0  0  2  0  0  0  0  0  0
  183.0110  176.5740  138.7000 C   0  0  0  0  0  2  0  0  0  0  0  0
  183.1270  177.8210  137.9690 N   0  0  0  0  0  0  0  0  0  0  0  0
  181.7440  176.6510  139.5190 C   0  0  0  0  0  2  0  0  0  0  0  0
  182.1680  178.7180  138.5980 C   0  0  0  0  0  2  0  0  0  0  0  0
  1 18  1  0  0  0  0
  1 26  2  0  0  0  0
  3 16  1  0  0  0  0
  4 15  2  0  0  0  0
  4 23  1  0  0  0  0
  5 15  1  0  0  0  0
  7  3  2  0  0  0  0
  9 13  2  0  0  0  0
  9 27  1  0  0  0  0
 10 22  1  0  0  0  0
 10 17  1  0  0  0  0
 11  5  2  0  0  0  0
 12  8  1  0  0  0  0
 13 20  1  0  0  0  0
 14  2  1  0  0  0  0
 15 12  1  0  0  0  0
 16  8  1  0  0  0  0
 17 25  1  0  0  0  0
 18  4  1  0  0  0  0
 19  6  1  6  0  0  0
 19  5  1  0  0  0  0
 19  3  1  0  0  0  0
 20 11  1  0  0  0  0
 20 18  2  0  0  0  0
 21 23  2  0  0  0  0
 22 24  1  0  0  0  0
 24 13  1  0  0  0  0
 25 14  1  1  0  0  0
 25  9  1  0  0  0  0
 26 21  1  0  0  0  0
 27  2  1  1  0  0  0
 27  1  1  0  0  0  0
 28 17  1  0  0  0  0
 29 28  1  0  0  0  0
 30 33  1  0  0  0  0
 31 33  1  0  0  0  0
 32 29  1  0  0  0  0
 32 34  1  0  0  0  0
 32 31  1  0  0  0  0
 34 30  1  0  0  0  0
M  END
>  <MODEL>
2

>  <REMARK>
 VINA RESULT:     -11.3      2.126      3.211
  Name = 
  3 active torsions:
  status: ('A' for Active; 'I' for Inactive)
    1  A    between atoms: N_17  and  C_28
    2  A    between atoms: C_28  and  C_29
    3  A    between atoms: C_29  and  N_32
                            x       y       z     vdW  Elec       q    Type
                         _______ _______ _______ _____ _____    ______ ____

>  <TORSDO>
F 3

$$$$
=
 OpenBabel11122412253D

 34 40  0  0  1  0  0  0  0  0999 V2000
  184.6190  178.5170  144.6930 C   0  0  0  0  0  0  0  0  0  0  0  0
  182.1410  178.9130  144.1590 C   0  0  0  0  0  2  0  0  0  0  0  0
  190.6770  176.3920  143.1940 C   0  0  0  0  0  0  0  0  0  0  0  0
  186.9990  178.0420  145.0430 C   0  0  0  0  0  0  0  0  0  0  0  0
  188.4530  177.5860  143.1170 C   0  0  0  0  0  0  0  0  0  0  0  0
  189.7680  177.0670  140.9650 C   0  0  0  0  0  1  0  0  0  0  0  0
  190.6840  175.2080  142.8930 O   0  0  0  0  0  0  0  0  0  0  0  0
  190.7660  177.9690  145.1120 C   0  0  0  0  0  2  0  0  0  0  0  0
  183.7300  178.5480  142.4390 C   0  0  0  0  0  0  0  0  0  0  0  0
  183.1270  178.8400  139.4840 C   0  0  0  0  0  2  0  0  0  0  0  0
  187.3460  177.7830  142.2780 C   0  0  0  0  0  3  0  0  0  0  0  0
  189.3880  177.4770  145.5350 C   0  0  0  0  0  2  0  0  0  0  0  0
  184.9990  178.2670  141.8970 C   0  0  0  0  0  0  0  0  0  0  0  0
  181.4350  179.0500  142.8110 C   0  0  0  0  0  2  0  0  0  0  0  0
  188.2820  177.7400  144.5270 C   0  0  0  0  0  0  0  0  0  0  0  0
  191.4980  176.8690  144.3490 C   0  0  0  0  0  2  0  0  0  0  0  0
  182.4680  179.5310  140.5830 N   0  0  0  0  0  0  0  0  0  0  0  0
  185.9010  178.2130  144.1770 C   0  0  0  0  0  0  0  0  0  0  0  0
  189.8110  177.3730  142.4610 C   0  0  2  0  0  3  0  0  0  0  0  0
  186.0810  178.0800  142.7800 C   0  0  0  0  0  0  0  0  0  0  0  0
  185.6000  178.4640  147.0190 C   0  0  0  0  0  3  0  0  0  0  0  0
  184.6270  179.0410  139.5650 C   0  0  0  0  0  2  0  0  0  0  0  0
  186.7950  178.1870  146.5000 C   0  0  0  0  0  3  0  0  0  0  0  0
  185.2120  178.1600  140.5170 O   0  0  0  0  0  0  0  0  0  0  0  0
  182.4230  178.5970  141.7160 C   0  0  1  0  0  3  0  0  0  0  0  0
  184.3700  178.6440  146.1760 C   0  0  0  0  0  3  0  0  0  0  0  0
  183.5560  178.6720  143.7970 C   0  0  2  0  0  3  0  0  0  0  0  0
  181.1130  179.7830  140.1040 C   0  0  0  0  0  2  0  0  0  0  0  0
  180.8630  178.9850  138.8360 C   0  0  0  0  0  2  0  0  0  0  0  0
  178.9310  177.0630  141.0300 N   0  0  0  0  0  2  0  0  0  0  0  0
  180.3640  176.7290  139.1580 C   0  0  0  0  0  2  0  0  0  0  0  0
  179.7720  178.0490  139.0510 N   0  0  0  0  0  0  0  0  0  0  0  0
  179.8480  176.1100  140.4360 C   0  0  0  0  0  2  0  0  0  0  0  0
  179.2200  178.3240  140.3690 C   0  0  0  0  0  2  0  0  0  0  0  0
  1 26  2  0  0  0  0
  3 16  1  0  0  0  0
  4 23  1  0  0  0  0
  5 15  1  0  0  0  0
  7  3  2  0  0  0  0
  8 12  1  0  0  0  0
  9 27  1  0  0  0  0
 10 22  1  0  0  0  0
 10 17  1  0  0  0  0
 11 20  1  0  0  0  0
 11  5  2  0  0  0  0
 13  9  2  0  0  0  0
 13 20  1  0  0  0  0
 14  2  1  0  0  0  0
 15  4  2  0  0  0  0
 15 12  1  0  0  0  0
 16  8  1  0  0  0  0
 17 25  1  0  0  0  0
 18  1  1  0  0  0  0
 18  4  1  0  0  0  0
 19  6  1  6  0  0  0
 19  5  1  0  0  0  0
 19  3  1  0  0  0  0
 20 18  2  0  0  0  0
 22 24  1  0  0  0  0
 23 21  2  0  0  0  0
 24 13  1  0  0  0  0
 25  9  1  0  0  0  0
 25 14  1  1  0  0  0
 26 21  1  0  0  0  0
 27  2  1  1  0  0  0
 27  1  1  0  0  0  0
 28 17  1  0  0  0  0
 29 32  1  0  0  0  0
 29 28  1  0  0  0  0
 31 33  1  0  0  0  0
 32 31  1  0  0  0  0
 32 34  1  0  0  0  0
 33 30  1  0  0  0  0
 34 30  1  0  0  0  0
M  END
>  <MODEL>
3

>  <REMARK>
 VINA RESULT:     -11.2      1.470      2.261
  Name = 
  3 active torsions:
  status: ('A' for Active; 'I' for Inactive)
    1  A    between atoms: N_17  and  C_28
    2  A    between atoms: C_28  and  C_29
    3  A    between atoms: C_29  and  N_32
                            x       y       z     vdW  Elec       q    Type
                         _______ _______ _______ _____ _____    ______ ____

>  <TORSDO>
F 3

$$$$
=
 OpenBabel11122412253D

 34 40  0  0  1  0  0  0  0  0999 V2000
  185.1700  178.5630  142.1910 C   0  0  0  0  0  0  0  0  0  0  0  0
  184.5970  178.5560  139.6900 C   0  0  0  0  0  2  0  0  0  0  0  0
  188.9730  176.9990  147.3430 C   0  0  0  0  0  0  0  0  0  0  0  0
  185.8580  178.4520  144.5420 C   0  0  0  0  0  0  0  0  0  0  0  0
  188.1760  177.8780  145.1130 C   0  0  0  0  0  0  0  0  0  0  0  0
  190.6290  177.1890  145.4790 C   0  0  0  0  0  1  0  0  0  0  0  0
  189.1390  175.7920  147.4380 O   0  0  0  0  0  0  0  0  0  0  0  0
  187.4410  178.8620  147.9370 C   0  0  0  0  0  2  0  0  0  0  0  0
  186.7990  178.1210  140.4520 C   0  0  0  0  0  0  0  0  0  0  0  0
  189.2020  177.8570  138.6270 C   0  0  0  0  0  2  0  0  0  0  0  0
  188.4580  177.7980  143.7420 C   0  0  0  0  0  3  0  0  0  0  0  0
  186.4140  178.2760  146.9770 C   0  0  0  0  0  2  0  0  0  0  0  0
  187.8130  177.9180  141.4060 C   0  0  0  0  0  0  0  0  0  0  0  0
  185.5050  178.3860  138.4730 C   0  0  0  0  0  2  0  0  0  0  0  0
  186.8540  178.2330  145.5230 C   0  0  0  0  0  0  0  0  0  0  0  0
  188.3440  177.7540  148.4690 C   0  0  0  0  0  2  0  0  0  0  0  0
  187.9930  178.6280  138.3740 N   0  0  0  0  0  0  0  0  0  0  0  0
  186.1660  178.3430  143.1710 C   0  0  0  0  0  0  0  0  0  0  0  0
  189.3380  177.7330  146.0870 C   0  0  2  0  0  3  0  0  0  0  0  0
  187.4820  178.0110  142.7710 C   0  0  0  0  0  0  0  0  0  0  0  0
  183.5160  179.0080  144.0460 C   0  0  0  0  0  3  0  0  0  0  0  0
  189.8060  178.2540  139.9590 C   0  0  0  0  0  2  0  0  0  0  0  0
  184.4780  178.8020  144.9420 C   0  0  0  0  0  3  0  0  0  0  0  0
  189.1320  177.6180  141.0380 O   0  0  0  0  0  0  0  0  0  0  0  0
  186.8760  177.8900  138.9770 C   0  0  1  0  0  3  0  0  0  0  0  0
  183.7460  178.8940  142.5660 C   0  0  0  0  0  3  0  0  0  0  0  0
  185.5180  178.4380  140.8420 C   0  0  2  0  0  3  0  0  0  0  0  0
  187.8510  178.6280  136.9220 C   0  0  0  0  0  2  0  0  0  0  0  0
  188.7180  177.5360  136.3220 C   0  0  0  0  0  2  0  0  0  0  0  0
  185.5980  176.6030  135.0430 N   0  0  0  0  0  2  0  0  0  0  0  0
  187.4530  175.5850  136.1330 C   0  0  0  0  0  2  0  0  0  0  0  0
  187.9340  176.7370  135.3950 N   0  0  0  0  0  0  0  0  0  0  0  0
  185.9580  175.5150  135.9300 C   0  0  0  0  0  2  0  0  0  0  0  0
  186.7390  177.5020  135.0700 C   0  0  0  0  0  2  0  0  0  0  0  0
  1 26  2  0  0  0  0
  1 18  1  0  0  0  0
  3  7  2  0  0  0  0
  3 16  1  0  0  0  0
  4 23  1  0  0  0  0
  4 15  2  0  0  0  0
  5 15  1  0  0  0  0
  5 19  1  0  0  0  0
  8 16  1  0  0  0  0
  9 27  1  0  0  0  0
  9 13  2  0  0  0  0
 10 22  1  0  0  0  0
 11  5  2  0  0  0  0
 12  8  1  0  0  0  0
 13 20  1  0  0  0  0
 14  2  1  0  0  0  0
 15 12  1  0  0  0  0
 17 10  1  0  0  0  0
 17 25  1  0  0  0  0
 18  4  1  0  0  0  0
 19  6  1  6  0  0  0
 19  3  1  0  0  0  0
 20 18  2  0  0  0  0
 20 11  1  0  0  0  0
 21 23  2  0  0  0  0
 22 24  1  0  0  0  0
 24 13  1  0  0  0  0
 25 14  1  6  0  0  0
 25  9  1  0  0  0  0
 26 21  1  0  0  0  0
 27  2  1  1  0  0  0
 27  1  1  0  0  0  0
 28 17  1  0  0  0  0
 29 28  1  0  0  0  0
 30 34  1  0  0  0  0
 30 33  1  0  0  0  0
 32 31  1  0  0  0  0
 32 29  1  0  0  0  0
 33 31  1  0  0  0  0
 34 32  1  0  0  0  0
M  END
>  <MODEL>
4

>  <REMARK>
 VINA RESULT:     -10.5      3.228      5.273
  Name = 
  3 active torsions:
  status: ('A' for Active; 'I' for Inactive)
    1  A    between atoms: N_17  and  C_28
    2  A    between atoms: C_28  and  C_29
    3  A    between atoms: C_29  and  N_32
                            x       y       z     vdW  Elec       q    Type
                         _______ _______ _______ _____ _____    ______ ____

>  <TORSDO>
F 3

$$$$
=
 OpenBabel11122412253D

 34 40  0  0  1  0  0  0  0  0999 V2000
  186.1450  178.3530  143.3230 C   0  0  0  0  0  0  0  0  0  0  0  0
  188.6260  178.1680  142.7000 C   0  0  0  0  0  2  0  0  0  0  0  0
  179.8880  180.0120  142.0720 C   0  0  0  0  0  0  0  0  0  0  0  0
  183.7470  178.6280  143.7610 C   0  0  0  0  0  0  0  0  0  0  0  0
  182.1970  179.0030  141.8950 C   0  0  0  0  0  0  0  0  0  0  0  0
  180.7720  179.4560  139.7990 C   0  0  0  0  0  1  0  0  0  0  0  0
  179.7770  181.1970  141.7970 O   0  0  0  0  0  0  0  0  0  0  0  0
  179.9910  178.3950  143.9550 C   0  0  0  0  0  2  0  0  0  0  0  0
  186.9550  178.4370  141.0410 C   0  0  0  0  0  0  0  0  0  0  0  0
  187.4780  178.2530  138.0630 C   0  0  0  0  0  2  0  0  0  0  0  0
  183.2860  178.9120  141.0160 C   0  0  0  0  0  3  0  0  0  0  0  0
  181.3390  178.9880  144.3440 C   0  0  0  0  0  2  0  0  0  0  0  0
  185.6500  178.6260  140.5480 C   0  0  0  0  0  0  0  0  0  0  0  0
  189.2940  178.1140  141.3270 C   0  0  0  0  0  2  0  0  0  0  0  0
  182.4270  178.8360  143.2950 C   0  0  0  0  0  0  0  0  0  0  0  0
  179.1490  179.4470  143.2420 C   0  0  0  0  0  2  0  0  0  0  0  0
  188.2270  177.5960  139.1240 N   0  0  0  0  0  0  0  0  0  0  0  0
  184.8250  178.5620  142.8570 C   0  0  0  0  0  0  0  0  0  0  0  0
  180.8040  179.1190  141.2890 C   0  0  2  0  0  3  0  0  0  0  0  0
  184.5880  178.7080  141.4690 C   0  0  0  0  0  0  0  0  0  0  0  0
  185.2430  178.2810  145.6810 C   0  0  0  0  0  3  0  0  0  0  0  0
  186.0030  177.9310  138.1880 C   0  0  0  0  0  2  0  0  0  0  0  0
  184.0130  178.4700  145.2070 C   0  0  0  0  0  3  0  0  0  0  0  0
  185.3810  178.7430  139.1780 O   0  0  0  0  0  0  0  0  0  0  0  0
  188.2360  178.5080  140.2750 C   0  0  1  0  0  3  0  0  0  0  0  0
  186.4540  178.2170  144.7940 C   0  0  0  0  0  3  0  0  0  0  0  0
  187.1850  178.3020  142.3900 C   0  0  2  0  0  3  0  0  0  0  0  0
  189.5800  177.4640  138.5950 C   0  0  0  0  0  2  0  0  0  0  0  0
  189.8510  176.0130  138.2390 C   0  0  0  0  0  2  0  0  0  0  0  0
  193.2480  176.7510  138.6390 N   0  0  0  0  0  2  0  0  0  0  0  0
  191.8960  175.1040  137.5780 C   0  0  0  0  0  2  0  0  0  0  0  0
  191.1680  175.6260  138.7180 N   0  0  0  0  0  0  0  0  0  0  0  0
  193.2120  175.8420  137.5110 C   0  0  0  0  0  2  0  0  0  0  0  0
  191.8690  176.8470  139.0870 C   0  0  0  0  0  2  0  0  0  0  0  0
  1 26  2  0  0  0  0
  3 16  1  0  0  0  0
  4 23  1  0  0  0  0
  5 15  1  0  0  0  0
  7  3  2  0  0  0  0
  8 12  1  0  0  0  0
  9 27  1  0  0  0  0
 10 22  1  0  0  0  0
 10 17  1  0  0  0  0
 11 20  1  0  0  0  0
 11  5  2  0  0  0  0
 13  9  2  0  0  0  0
 13 20  1  0  0  0  0
 14  2  1  0  0  0  0
 15  4  2  0  0  0  0
 15 12  1  0  0  0  0
 16  8  1  0  0  0  0
 17 25  1  0  0  0  0
 18  1  1  0  0  0  0
 18  4  1  0  0  0  0
 19  6  1  6  0  0  0
 19  5  1  0  0  0  0
 19  3  1  0  0  0  0
 20 18  2  0  0  0  0
 22 24  1  0  0  0  0
 23 21  2  0  0  0  0
 24 13  1  0  0  0  0
 25  9  1  0  0  0  0
 25 14  1  1  0  0  0
 26 21  1  0  0  0  0
 27  2  1  1  0  0  0
 27  1  1  0  0  0  0
 28 17  1  0  0  0  0
 29 28  1  0  0  0  0
 29 32  1  0  0  0  0
 30 34  1  0  0  0  0
 31 32  1  0  0  0  0
 32 34  1  0  0  0  0
 33 31  1  0  0  0  0
 33 30  1  0  0  0  0
M  END
>  <MODEL>
5

>  <REMARK>
 VINA RESULT:     -10.3      3.544      8.076
  Name = 
  3 active torsions:
  status: ('A' for Active; 'I' for Inactive)
    1  A    between atoms: N_17  and  C_28
    2  A    between atoms: C_28  and  C_29
    3  A    between atoms: C_29  and  N_32
                            x       y       z     vdW  Elec       q    Type
                         _______ _______ _______ _____ _____    ______ ____

>  <TORSDO>
F 3

$$$$
=
 OpenBabel11122412253D

 34 40  0  0  1  0  0  0  0  0999 V2000
  189.7620  177.5900  141.7150 C   0  0  0  0  0  0  0  0  0  0  0  0
  190.0580  177.7900  139.1750 C   0  0  0  0  0  2  0  0  0  0  0  0
  186.5320  178.7130  147.3520 C   0  0  0  0  0  0  0  0  0  0  0  0
  189.3340  177.5180  144.1290 C   0  0  0  0  0  0  0  0  0  0  0  0
  187.0880  178.0130  144.9900 C   0  0  0  0  0  0  0  0  0  0  0  0
  184.6840  178.6360  145.6690 C   0  0  0  0  0  1  0  0  0  0  0  0
  186.3700  179.9070  147.5550 O   0  0  0  0  0  0  0  0  0  0  0  0
  188.1330  176.8350  147.6350 C   0  0  0  0  0  2  0  0  0  0  0  0
  187.9500  178.1340  140.2010 C   0  0  0  0  0  0  0  0  0  0  0  0
  185.3600  178.4950  138.6720 C   0  0  0  0  0  2  0  0  0  0  0  0
  186.6570  178.1890  143.6670 C   0  0  0  0  0  3  0  0  0  0  0  0
  189.0450  177.5050  146.6160 C   0  0  0  0  0  2  0  0  0  0  0  0
  187.0440  178.2510  141.2720 C   0  0  0  0  0  0  0  0  0  0  0  0
  189.0220  178.0350  138.0800 C   0  0  0  0  0  2  0  0  0  0  0  0
  188.4490  177.6480  145.2260 C   0  0  0  0  0  0  0  0  0  0  0  0
  187.2860  177.8870  148.3440 C   0  0  0  0  0  2  0  0  0  0  0  0
  186.5390  177.7640  138.2330 N   0  0  0  0  0  0  0  0  0  0  0  0
  188.8780  177.7220  142.8120 C   0  0  0  0  0  0  0  0  0  0  0  0
  186.0380  178.0680  146.0910 C   0  0  2  0  0  3  0  0  0  0  0  0
  187.5230  178.0630  142.5830 C   0  0  0  0  0  0  0  0  0  0  0  0
  191.6120  177.0350  143.3420 C   0  0  0  0  0  3  0  0  0  0  0  0
  184.9080  177.9920  140.0280 C   0  0  0  0  0  2  0  0  0  0  0  0
  190.7510  177.1590  144.3500 C   0  0  0  0  0  3  0  0  0  0  0  0
  185.6910  178.5570  141.0730 O   0  0  0  0  0  0  0  0  0  0  0  0
  187.7100  178.4720  138.7650 C   0  0  1  0  0  3  0  0  0  0  0  0
  191.2200  177.2530  141.9080 C   0  0  0  0  0  3  0  0  0  0  0  0
  189.2670  177.8080  140.4250 C   0  0  2  0  0  3  0  0  0  0  0  0
  186.5230  177.8720  136.7780 C   0  0  0  0  0  2  0  0  0  0  0  0
  186.2560  176.5090  136.1660 C   0  0  0  0  0  2  0  0  0  0  0  0
  187.5970  173.3460  136.8290 N   0  0  0  0  0  2  0  0  0  0  0  0
  185.5210  174.4860  137.0650 C   0  0  0  0  0  2  0  0  0  0  0  0
  186.5880  175.4660  137.1220 N   0  0  0  0  0  0  0  0  0  0  0  0
  186.1630  173.1360  136.8510 C   0  0  0  0  0  2  0  0  0  0  0  0
  187.7640  174.7740  136.6150 C   0  0  0  0  0  2  0  0  0  0  0  0
  1 26  2  0  0  0  0
  1 18  1  0  0  0  0
  3  7  2  0  0  0  0
  3 16  1  0  0  0  0
  4 23  1  0  0  0  0
  4 15  2  0  0  0  0
  5 15  1  0  0  0  0
  5 19  1  0  0  0  0
  8 16  1  0  0  0  0
  9 27  1  0  0  0  0
  9 13  2  0  0  0  0
 10 22  1  0  0  0  0
 11  5  2  0  0  0  0
 12  8  1  0  0  0  0
 13 20  1  0  0  0  0
 14  2  1  0  0  0  0
 15 12  1  0  0  0  0
 17 10  1  0  0  0  0
 17 25  1  0  0  0  0
 18  4  1  0  0  0  0
 19  6  1  6  0  0  0
 19  3  1  0  0  0  0
 20 18  2  0  0  0  0
 20 11  1  0  0  0  0
 21 23  2  0  0  0  0
 22 24  1  0  0  0  0
 24 13  1  0  0  0  0
 25 14  1  6  0  0  0
 25  9  1  0  0  0  0
 26 21  1  0  0  0  0
 27  2  1  1  0  0  0
 27  1  1  0  0  0  0
 28 17  1  0  0  0  0
 29 28  1  0  0  0  0
 29 32  1  0  0  0  0
 30 33  1  0  0  0  0
 31 32  1  0  0  0  0
 33 31  1  0  0  0  0
 34 30  1  0  0  0  0
 34 32  1  0  0  0  0
M  END
>  <MODEL>
6

>  <REMARK>
 VINA RESULT:     -10.1      3.466      6.309
  Name = 
  3 active torsions:
  status: ('A' for Active; 'I' for Inactive)
    1  A    between atoms: N_17  and  C_28
    2  A    between atoms: C_28  and  C_29
    3  A    between atoms: C_29  and  N_32
                            x       y       z     vdW  Elec       q    Type
                         _______ _______ _______ _____ _____    ______ ____

>  <TORSDO>
F 3

$$$$
=
 OpenBabel11122412253D

 34 40  0  0  1  0  0  0  0  0999 V2000
  188.1010  177.7510  141.9610 C   0  0  0  0  0  0  0  0  0  0  0  0
  186.2350  178.6350  140.4380 C   0  0  0  0  0  2  0  0  0  0  0  0
  191.0730  177.0630  147.8050 C   0  0  0  0  0  0  0  0  0  0  0  0
  189.8130  177.0110  143.5540 C   0  0  0  0  0  0  0  0  0  0  0  0
  189.3440  177.0580  145.9640 C   0  0  0  0  0  0  0  0  0  0  0  0
  188.6620  177.2620  148.4380 C   0  0  0  0  0  1  0  0  0  0  0  0
  191.3490  178.1420  148.3060 O   0  0  0  0  0  0  0  0  0  0  0  0
  191.8780  175.3280  146.2190 C   0  0  0  0  0  2  0  0  0  0  0  0
  185.9520  178.5060  142.7870 C   0  0  0  0  0  0  0  0  0  0  0  0
  183.3270  179.0200  144.2090 C   0  0  0  0  0  2  0  0  0  0  0  0
  188.0590  177.5350  145.6700 C   0  0  0  0  0  3  0  0  0  0  0  0
  191.6710  176.3210  145.0830 C   0  0  0  0  0  2  0  0  0  0  0  0
  186.3380  178.2570  144.1180 C   0  0  0  0  0  0  0  0  0  0  0  0
  184.8090  179.0630  140.7780 C   0  0  0  0  0  2  0  0  0  0  0  0
  190.2330  176.7690  144.8830 C   0  0  0  0  0  0  0  0  0  0  0  0
  192.1600  176.0770  147.5170 C   0  0  0  0  0  2  0  0  0  0  0  0
  183.5040  178.5380  142.8460 N   0  0  0  0  0  0  0  0  0  0  0  0
  188.5220  177.5110  143.2900 C   0  0  0  0  0  0  0  0  0  0  0  0
  189.6630  176.7280  147.4160 C   0  0  2  0  0  3  0  0  0  0  0  0
  187.6380  177.7760  144.3630 C   0  0  0  0  0  0  0  0  0  0  0  0
  190.3610  176.9590  141.1590 C   0  0  0  0  0  3  0  0  0  0  0  0
  184.0920  178.1400  145.1770 C   0  0  0  0  0  2  0  0  0  0  0  0
  190.7220  176.7360  142.4200 C   0  0  0  0  0  3  0  0  0  0  0  0
  185.4740  178.4810  145.1980 O   0  0  0  0  0  0  0  0  0  0  0  0
  184.7090  179.1850  142.3120 C   0  0  1  0  0  3  0  0  0  0  0  0
  189.0140  177.5080  140.7840 C   0  0  0  0  0  2  0  0  0  0  0  0
  186.8140  178.2540  141.7460 C   0  0  0  0  0  0  0  0  0  0  0  0
  182.3300  179.0220  142.1270 C   0  0  0  0  0  2  0  0  0  0  0  0
  181.2240  179.3510  143.1150 C   0  0  0  0  0  2  0  0  0  0  0  0
  179.2580  179.0770  140.2330 N   0  0  0  0  0  2  0  0  0  0  0  0
  179.3510  180.4050  142.2070 C   0  0  0  0  0  2  0  0  0  0  0  0
  179.9290  179.1080  142.5020 N   0  0  0  0  0  0  0  0  0  0  0  0
  178.9480  180.3940  140.7510 C   0  0  0  0  0  2  0  0  0  0  0  0
  180.1730  178.4980  141.2030 C   0  0  0  0  0  2  0  0  0  0  0  0
  1 18  1  0  0  0  0
  2 14  1  0  0  0  0
  2 27  1  0  0  0  0
  3  7  2  0  0  0  0
  4 15  1  0  0  0  0
  5 19  1  0  0  0  0
  8 16  1  0  0  0  0
  9 13  2  0  0  0  0
 10 22  1  0  0  0  0
 11  5  1  0  0  0  0
 12  8  1  0  0  0  0
 13 20  1  0  0  0  0
 13 24  1  0  0  0  0
 15 12  1  0  0  0  0
 15  5  2  0  0  0  0
 16  3  1  0  0  0  0
 17 10  1  0  0  0  0
 18  4  2  0  0  0  0
 18 20  1  0  0  0  0
 19  3  1  0  0  0  0
 19  6  1  1  0  0  0
 20 11  2  0  0  0  0
 21 23  2  0  0  0  0
 22 24  1  0  0  0  0
 23  4  1  0  0  0  0
 25 14  1  6  0  0  0
 25  9  1  0  0  0  0
 25 17  1  0  0  0  0
 26 21  1  0  0  0  0
 26  1  1  0  0  0  0
 27  1  2  0  0  0  0
 27  9  1  0  0  0  0
 28 17  1  0  0  0  0
 28 29  1  0  0  0  0
 30 33  1  0  0  0  0
 30 34  1  0  0  0  0
 31 32  1  0  0  0  0
 32 29  1  0  0  0  0
 33 31  1  0  0  0  0
 34 32  1  0  0  0  0
M  END
>  <MODEL>
7

>  <REMARK>
 VINA RESULT:     -10.1      2.454      4.628
  Name = 
  3 active torsions:
  status: ('A' for Active; 'I' for Inactive)
    1  A    between atoms: N_17  and  C_28
    2  A    between atoms: C_28  and  C_29
    3  A    between atoms: C_29  and  N_32
                            x       y       z     vdW  Elec       q    Type
                         _______ _______ _______ _____ _____    ______ ____

>  <TORSDO>
F 3

$$$$
=
 OpenBabel11122412253D

 34 40  0  0  1  0  0  0  0  0999 V2000
  185.8570  178.5030  142.0110 C   0  0  0  0  0  0  0  0  0  0  0  0
  185.6240  178.4570  139.4570 C   0  0  0  0  0  2  0  0  0  0  0  0
  188.8320  176.8640  147.6620 C   0  0  0  0  0  0  0  0  0  0  0  0
  186.2170  178.4190  144.4360 C   0  0  0  0  0  0  0  0  0  0  0  0
  188.3970  177.7230  145.3260 C   0  0  0  0  0  0  0  0  0  0  0  0
  190.7310  176.8980  146.0340 C   0  0  0  0  0  1  0  0  0  0  0  0
  188.9060  175.6530  147.8030 O   0  0  0  0  0  0  0  0  0  0  0  0
  187.3560  178.8320  148.0040 C   0  0  0  0  0  2  0  0  0  0  0  0
  187.6720  177.9130  140.5170 C   0  0  0  0  0  0  0  0  0  0  0  0
  190.2760  177.4510  139.0400 C   0  0  0  0  0  2  0  0  0  0  0  0
  188.8540  177.5870  144.0080 C   0  0  0  0  0  3  0  0  0  0  0  0
  186.4310  178.2820  146.9260 C   0  0  0  0  0  2  0  0  0  0  0  0
  188.5360  177.6770  141.6040 C   0  0  0  0  0  0  0  0  0  0  0  0
  186.6730  178.1970  138.3780 C   0  0  0  0  0  2  0  0  0  0  0  0
  187.0570  178.1700  145.5470 C   0  0  0  0  0  0  0  0  0  0  0  0
  188.1070  177.6880  148.6760 C   0  0  0  0  0  2  0  0  0  0  0  0
  189.1630  178.2860  138.6100 N   0  0  0  0  0  0  0  0  0  0  0  0
  186.6970  178.2520  143.1220 C   0  0  0  0  0  0  0  0  0  0  0  0
  189.4070  177.5370  146.4510 C   0  0  2  0  0  3  0  0  0  0  0  0
  188.0310  177.8300  142.9100 C   0  0  0  0  0  0  0  0  0  0  0  0
  184.0020  179.1010  143.6160 C   0  0  0  0  0  3  0  0  0  0  0  0
  190.7200  177.8500  140.4320 C   0  0  0  0  0  2  0  0  0  0  0  0
  184.8210  178.8640  144.6390 C   0  0  0  0  0  3  0  0  0  0  0  0
  189.8690  177.2870  141.4240 O   0  0  0  0  0  0  0  0  0  0  0  0
  187.9310  177.6340  139.0720 C   0  0  1  0  0  3  0  0  0  0  0  0
  184.4210  178.9310  142.1830 C   0  0  0  0  0  3  0  0  0  0  0  0
  186.3740  178.3180  140.7240 C   0  0  2  0  0  3  0  0  0  0  0  0
  189.2160  178.2520  137.1520 C   0  0  0  0  0  2  0  0  0  0  0  0
  189.9700  177.0160  136.6960 C   0  0  0  0  0  2  0  0  0  0  0  0
  187.3790  175.9520  134.5990 N   0  0  0  0  0  2  0  0  0  0  0  0
  189.4990  175.1690  135.3490 C   0  0  0  0  0  2  0  0  0  0  0  0
  189.5120  176.6200  135.3740 N   0  0  0  0  0  0  0  0  0  0  0  0
  188.1280  174.7430  134.8800 C   0  0  0  0  0  2  0  0  0  0  0  0
  188.1150  177.0120  135.2650 C   0  0  0  0  0  2  0  0  0  0  0  0
  1 26  2  0  0  0  0
  1 18  1  0  0  0  0
  3  7  2  0  0  0  0
  3 16  1  0  0  0  0
  4 23  1  0  0  0  0
  4 15  2  0  0  0  0
  5 15  1  0  0  0  0
  5 19  1  0  0  0  0
  8 16  1  0  0  0  0
  9 27  1  0  0  0  0
  9 13  2  0  0  0  0
 10 22  1  0  0  0  0
 11  5  2  0  0  0  0
 12  8  1  0  0  0  0
 13 20  1  0  0  0  0
 14  2  1  0  0  0  0
 15 12  1  0  0  0  0
 17 10  1  0  0  0  0
 17 25  1  0  0  0  0
 18  4  1  0  0  0  0
 19  6  1  6  0  0  0
 19  3  1  0  0  0  0
 20 18  2  0  0  0  0
 20 11  1  0  0  0  0
 21 23  2  0  0  0  0
 22 24  1  0  0  0  0
 24 13  1  0  0  0  0
 25 14  1  6  0  0  0
 25  9  1  0  0  0  0
 26 21  1  0  0  0  0
 27  2  1  1  0  0  0
 27  1  1  0  0  0  0
 28 17  1  0  0  0  0
 29 28  1  0  0  0  0
 30 33  1  0  0  0  0
 30 34  1  0  0  0  0
 31 32  1  0  0  0  0
 32 29  1  0  0  0  0
 33 31  1  0  0  0  0
 34 32  1  0  0  0  0
M  END
>  <MODEL>
8

>  <REMARK>
 VINA RESULT:     -10.0      3.771      6.149
  Name = 
  3 active torsions:
  status: ('A' for Active; 'I' for Inactive)
    1  A    between atoms: N_17  and  C_28
    2  A    between atoms: C_28  and  C_29
    3  A    between atoms: C_29  and  N_32
                            x       y       z     vdW  Elec       q    Type
                         _______ _______ _______ _____ _____    ______ ____

>  <TORSDO>
F 3

$$$$
=
 OpenBabel11122412253D

 34 40  0  0  1  0  0  0  0  0999 V2000
  190.6500  177.4430  142.8330 C   0  0  0  0  0  0  0  0  0  0  0  0
  192.5640  177.2080  141.1410 C   0  0  0  0  0  2  0  0  0  0  0  0
  184.5210  179.1530  144.5590 C   0  0  0  0  0  0  0  0  0  0  0  0
  188.7250  177.7610  144.3190 C   0  0  0  0  0  0  0  0  0  0  0  0
  186.4880  178.1080  143.3670 C   0  0  0  0  0  0  0  0  0  0  0  0
  184.2570  178.5250  142.1520 C   0  0  0  0  0  1  0  0  0  0  0  0
  184.2950  180.3310  144.3320 O   0  0  0  0  0  0  0  0  0  0  0  0
  185.4820  177.5850  146.2300 C   0  0  0  0  0  2  0  0  0  0  0  0
  190.3160  177.4560  140.4330 C   0  0  0  0  0  0  0  0  0  0  0  0
  189.4060  177.1870  137.5560 C   0  0  0  0  0  2  0  0  0  0  0  0
  187.0490  177.9790  142.0890 C   0  0  0  0  0  3  0  0  0  0  0  0
  186.8570  178.1690  145.9350 C   0  0  0  0  0  2  0  0  0  0  0  0
  188.9310  177.6500  140.5920 C   0  0  0  0  0  0  0  0  0  0  0  0
  192.5230  177.1100  139.6170 C   0  0  0  0  0  2  0  0  0  0  0  0
  187.3380  177.9740  144.5080 C   0  0  0  0  0  0  0  0  0  0  0  0
  184.4050  178.6290  145.9540 C   0  0  0  0  0  2  0  0  0  0  0  0
  190.5600  176.5480  138.1710 N   0  0  0  0  0  0  0  0  0  0  0  0
  189.2640  177.6580  143.0210 C   0  0  0  0  0  0  0  0  0  0  0  0
  184.9730  178.2270  143.4680 C   0  0  2  0  0  3  0  0  0  0  0  0
  188.4130  177.7700  141.8960 C   0  0  0  0  0  0  0  0  0  0  0  0
  190.9370  177.4440  145.3420 C   0  0  0  0  0  3  0  0  0  0  0  0
  188.1550  176.8880  138.3570 C   0  0  0  0  0  2  0  0  0  0  0  0
  189.6280  177.6380  145.4830 C   0  0  0  0  0  3  0  0  0  0  0  0
  188.0600  177.7340  139.4970 O   0  0  0  0  0  0  0  0  0  0  0  0
  191.0990  177.4900  139.1600 C   0  0  1  0  0  3  0  0  0  0  0  0
  191.6020  177.3420  143.9990 C   0  0  0  0  0  3  0  0  0  0  0  0
  191.1430  177.3530  141.5270 C   0  0  2  0  0  3  0  0  0  0  0  0
  191.5170  176.3840  137.0820 C   0  0  0  0  0  2  0  0  0  0  0  0
  190.9290  175.4750  136.0170 C   0  0  0  0  0  2  0  0  0  0  0  0
  192.9140  172.5970  136.1740 N   0  0  0  0  0  2  0  0  0  0  0  0
  190.8350  173.2790  135.2350 C   0  0  0  0  0  2  0  0  0  0  0  0
  191.0900  174.0850  136.4130 N   0  0  0  0  0  0  0  0  0  0  0  0
  192.0120  172.3470  135.0670 C   0  0  0  0  0  2  0  0  0  0  0  0
  192.5000  173.8820  136.7120 C   0  0  0  0  0  2  0  0  0  0  0  0
  1 18  1  0  0  0  0
  1 26  2  0  0  0  0
  3 16  1  0  0  0  0
  4 15  2  0  0  0  0
  4 23  1  0  0  0  0
  5 19  1  0  0  0  0
  5 15  1  0  0  0  0
  7  3  2  0  0  0  0
  9 13  2  0  0  0  0
  9 27  1  0  0  0  0
 10 17  1  0  0  0  0
 10 22  1  0  0  0  0
 11  5  2  0  0  0  0
 12  8  1  0  0  0  0
 13 20  1  0  0  0  0
 14  2  1  0  0  0  0
 15 12  1  0  0  0  0
 16  8  1  0  0  0  0
 17 25  1  0  0  0  0
 18  4  1  0  0  0  0
 19  6  1  6  0  0  0
 19  3  1  0  0  0  0
 20 11  1  0  0  0  0
 20 18  2  0  0  0  0
 21 23  2  0  0  0  0
 22 24  1  0  0  0  0
 24 13  1  0  0  0  0
 25 14  1  1  0  0  0
 25  9  1  0  0  0  0
 26 21  1  0  0  0  0
 27  2  1  6  0  0  0
 27  1  1  0  0  0  0
 28 17  1  0  0  0  0
 29 32  1  0  0  0  0
 29 28  1  0  0  0  0
 30 34  1  0  0  0  0
 31 32  1  0  0  0  0
 32 34  1  0  0  0  0
 33 31  1  0  0  0  0
 33 30  1  0  0  0  0
M  END
>  <MODEL>
9

>  <REMARK>
 VINA RESULT:      -9.7      4.442      8.378
  Name = 
  3 active torsions:
  status: ('A' for Active; 'I' for Inactive)
    1  A    between atoms: N_17  and  C_28
    2  A    between atoms: C_28  and  C_29
    3  A    between atoms: C_29  and  N_32
                            x       y       z     vdW  Elec       q    Type
                         _______ _______ _______ _____ _____    ______ ____

>  <TORSDO>
F 3

$$$$
