=
 OpenBabel11122410283D

 30 35  0  0  1  0  0  0  0  0999 V2000
  186.7160  177.9760  140.9470 C   0  0  0  0  0  0  0  0  0  0  0  0
  184.3050  178.3920  140.2130 C   0  0  0  0  0  0  0  0  0  0  0  0
  185.7340  178.3640  144.9180 N   0  0  0  0  0  2  0  0  0  0  0  0
  187.6760  177.7970  141.9780 C   0  0  0  0  0  0  0  0  0  0  0  0
  187.1400  177.8780  139.5820 N   0  0  0  0  0  2  0  0  0  0  0  0
  190.5380  176.8580  139.9220 O   0  0  0  0  0  0  0  0  0  0  0  0
  190.3450  177.7520  143.6260 C   0  0  1  0  0  3  0  0  0  0  0  0
  189.4170  177.3330  140.2500 C   0  0  0  0  0  0  0  0  0  0  0  0
  189.3800  178.0230  144.7710 C   0  0  2  0  0  3  0  0  0  0  0  0
  186.9800  178.2050  145.4140 C   0  0  0  0  0  0  0  0  0  0  0  0
  188.5440  177.9300  139.1910 C   0  0  2  0  0  3  0  0  0  0  0  0
  188.9970  177.3330  141.6270 N   0  0  0  0  0  0  0  0  0  0  0  0
  182.9710  178.9900  140.5630 C   0  0  0  0  0  2  0  0  0  0  0  0
  189.7910  177.0780  145.8810 C   0  0  0  0  0  2  0  0  0  0  0  0
  191.6260  177.2670  144.2880 C   0  0  0  0  0  2  0  0  0  0  0  0
  184.5210  178.0610  139.0180 O   0  0  0  0  0  0  0  0  0  0  0  0
  185.9250  178.2280  143.5950 C   0  0  0  0  0  0  0  0  0  0  0  0
  182.6290  178.8560  142.0220 C   0  0  0  0  0  3  0  0  0  0  0  0
  185.3520  178.2400  141.2570 C   0  0  0  0  0  0  0  0  0  0  0  0
  187.2450  177.9800  143.3110 C   0  0  0  0  0  0  0  0  0  0  0  0
  187.2270  178.3200  146.6450 O   0  0  0  0  0  0  0  0  0  0  0  0
  187.9360  177.9560  144.4800 N   0  0  0  0  0  0  0  0  0  0  0  0
  191.2920  176.9360  145.7350 C   0  0  0  0  0  2  0  0  0  0  0  0
  189.3000  175.4320  143.1790 C   0  0  0  0  0  1  0  0  0  0  0  0
  183.5460  178.6020  142.9570 C   0  0  0  0  0  3  0  0  0  0  0  0
  184.9570  178.3620  142.6050 C   0  0  0  0  0  0  0  0  0  0  0  0
  189.8830  176.7210  142.6050 C   0  0  2  0  0  3  0  0  0  0  0  0
  188.9610  179.3620  138.8620 C   0  0  0  0  0  2  0  0  0  0  0  0
  189.1400  178.3470  136.7700 C   0  0  0  0  0  1  0  0  0  0  0  0
  188.9030  179.6160  137.4310 N   0  0  0  0  0  2  0  0  0  0  0  0
  1 19  2  0  0  0  0
  1  4  1  0  0  0  0
  2 13  1  0  0  0  0
  2 19  1  0  0  0  0
  3 10  1  0  0  0  0
  4 20  2  0  0  0  0
  5  1  1  0  0  0  0
  6  8  2  0  0  0  0
  7 15  1  1  0  0  0
  7  9  1  0  0  0  0
  8 12  1  0  0  0  0
  9 14  1  1  0  0  0
 10 21  2  0  0  0  0
 11 28  1  1  0  0  0
 11  5  1  0  0  0  0
 11  8  1  0  0  0  0
 12  4  1  0  0  0  0
 12 27  1  0  0  0  0
 13 18  1  0  0  0  0
 15 23  1  0  0  0  0
 16  2  2  0  0  0  0
 17  3  1  0  0  0  0
 18 25  2  0  0  0  0
 19 26  1  0  0  0  0
 20 17  1  0  0  0  0
 20 22  1  0  0  0  0
 22  9  1  0  0  0  0
 22 10  1  0  0  0  0
 23 14  1  0  0  0  0
 26 25  1  0  0  0  0
 26 17  2  0  0  0  0
 27 24  1  1  0  0  0
 27  7  1  0  0  0  0
 29 30  1  0  0  0  0
 30 28  1  0  0  0  0
M  END
>  <MODEL>
1

>  <REMARK>
 VINA RESULT:      -7.9      0.000      0.000
  Name = 
  2 active torsions:
  status: ('A' for Active; 'I' for Inactive)
    1  A    between atoms: C_11  and  C_28
    2  A    between atoms: C_28  and  N_30
                            x       y       z     vdW  Elec       q    Type
                         _______ _______ _______ _____ _____    ______ ____

>  <TORSDO>
F 2

$$$$
=
 OpenBabel11122410283D

 30 35  0  0  1  0  0  0  0  0999 V2000
  187.3910  178.2640  140.0170 C   0  0  0  0  0  0  0  0  0  0  0  0
  189.4520  177.8890  138.5570 C   0  0  0  0  0  0  0  0  0  0  0  0
  189.4210  177.1850  143.4240 N   0  0  0  0  0  2  0  0  0  0  0  0
  186.7810  178.3040  141.2990 C   0  0  0  0  0  0  0  0  0  0  0  0
  186.6080  178.6040  138.8670 N   0  0  0  0  0  2  0  0  0  0  0  0
  183.5420  179.6760  140.3340 O   0  0  0  0  0  0  0  0  0  0  0  0
  184.7000  178.1720  143.6430 C   0  0  1  0  0  3  0  0  0  0  0  0
  184.6660  179.1120  140.2450 C   0  0  0  0  0  0  0  0  0  0  0  0
  185.9240  177.6790  144.4020 C   0  0  2  0  0  3  0  0  0  0  0  0
  188.3840  177.3050  144.2800 C   0  0  0  0  0  0  0  0  0  0  0  0
  185.1510  178.6680  138.9000 C   0  0  2  0  0  3  0  0  0  0  0  0
  185.4570  178.8680  141.4230 N   0  0  0  0  0  0  0  0  0  0  0  0
  190.7760  177.1920  138.4080 C   0  0  0  0  0  2  0  0  0  0  0  0
  185.9230  178.4410  145.7120 C   0  0  0  0  0  2  0  0  0  0  0  0
  183.7040  178.5860  144.7160 C   0  0  0  0  0  2  0  0  0  0  0  0
  188.9350  178.4210  137.5400 O   0  0  0  0  0  0  0  0  0  0  0  0
  188.8750  177.5470  142.2500 C   0  0  0  0  0  0  0  0  0  0  0  0
  191.5270  177.0690  139.7060 C   0  0  0  0  0  3  0  0  0  0  0  0
  188.7600  177.9030  139.8720 C   0  0  0  0  0  0  0  0  0  0  0  0
  187.5540  177.8870  142.4050 C   0  0  0  0  0  0  0  0  0  0  0  0
  188.4860  176.9960  145.4980 O   0  0  0  0  0  0  0  0  0  0  0  0
  187.2270  177.7400  143.7150 N   0  0  0  0  0  0  0  0  0  0  0  0
  184.4600  178.6590  146.0340 C   0  0  0  0  0  2  0  0  0  0  0  0
  185.7650  180.4940  143.2600 C   0  0  0  0  0  1  0  0  0  0  0  0
  190.9370  177.1970  140.8950 C   0  0  0  0  0  3  0  0  0  0  0  0
  189.5090  177.5440  141.0110 C   0  0  0  0  0  0  0  0  0  0  0  0
  184.9380  179.3410  142.6980 C   0  0  2  0  0  3  0  0  0  0  0  0
  184.5400  177.3270  138.5000 C   0  0  0  0  0  2  0  0  0  0  0  0
  182.6280  177.9070  137.2970 C   0  0  0  0  0  1  0  0  0  0  0  0
  183.9730  177.3820  137.1610 N   0  0  0  0  0  2  0  0  0  0  0  0
  1  4  1  0  0  0  0
  2 19  1  0  0  0  0
  3 10  1  0  0  0  0
  4 12  1  0  0  0  0
  4 20  2  0  0  0  0
  5 11  1  0  0  0  0
  5  1  1  0  0  0  0
  7  9  1  0  0  0  0
  7 15  1  1  0  0  0
  8  6  2  0  0  0  0
  8 12  1  0  0  0  0
  9 14  1  1  0  0  0
 10 21  2  0  0  0  0
 11 28  1  1  0  0  0
 11  8  1  0  0  0  0
 12 27  1  0  0  0  0
 13  2  1  0  0  0  0
 13 18  1  0  0  0  0
 14 23  1  0  0  0  0
 15 23  1  0  0  0  0
 16  2  2  0  0  0  0
 17 20  1  0  0  0  0
 17  3  1  0  0  0  0
 18 25  2  0  0  0  0
 19  1  2  0  0  0  0
 19 26  1  0  0  0  0
 20 22  1  0  0  0  0
 22 10  1  0  0  0  0
 22  9  1  0  0  0  0
 25 26  1  0  0  0  0
 26 17  2  0  0  0  0
 27 24  1  1  0  0  0
 27  7  1  0  0  0  0
 30 29  1  0  0  0  0
 30 28  1  0  0  0  0
M  END
>  <MODEL>
2

>  <REMARK>
 VINA RESULT:      -7.9      1.904      5.165
  Name = 
  2 active torsions:
  status: ('A' for Active; 'I' for Inactive)
    1  A    between atoms: C_11  and  C_28
    2  A    between atoms: C_28  and  N_30
                            x       y       z     vdW  Elec       q    Type
                         _______ _______ _______ _____ _____    ______ ____

>  <TORSDO>
F 2

$$$$
=
 OpenBabel11122410283D

 30 35  0  0  1  0  0  0  0  0999 V2000
  189.1530  177.8020  143.4880 C   0  0  0  0  0  0  0  0  0  0  0  0
  191.2580  177.3450  144.8610 C   0  0  0  0  0  0  0  0  0  0  0  0
  186.7550  177.6090  146.8190 N   0  0  0  0  0  2  0  0  0  0  0  0
  187.7540  178.0340  143.4200 C   0  0  0  0  0  0  0  0  0  0  0  0
  189.9200  177.8340  142.2780 N   0  0  0  0  0  2  0  0  0  0  0  0
  187.4990  178.8770  139.8800 O   0  0  0  0  0  0  0  0  0  0  0  0
  184.7720  178.1670  142.4520 C   0  0  1  0  0  3  0  0  0  0  0  0
  187.9570  178.4160  140.9600 C   0  0  0  0  0  0  0  0  0  0  0  0
  184.5170  177.9510  143.9370 C   0  0  2  0  0  3  0  0  0  0  0  0
  185.5760  177.7950  146.1870 C   0  0  0  0  0  0  0  0  0  0  0  0
  189.3060  177.7650  140.9580 C   0  0  2  0  0  3  0  0  0  0  0  0
  187.1830  178.4840  142.1710 N   0  0  0  0  0  0  0  0  0  0  0  0
  191.8330  176.7620  146.1210 C   0  0  0  0  0  2  0  0  0  0  0  0
  183.4430  178.9510  144.3140 C   0  0  0  0  0  2  0  0  0  0  0  0
  183.4580  178.6870  141.8910 C   0  0  0  0  0  2  0  0  0  0  0  0
  192.0400  177.6160  143.9130 O   0  0  0  0  0  0  0  0  0  0  0  0
  187.6420  177.6810  145.8120 C   0  0  0  0  0  0  0  0  0  0  0  0
  190.9510  176.9680  147.3220 C   0  0  0  0  0  3  0  0  0  0  0  0
  189.7910  177.5510  144.7350 C   0  0  0  0  0  0  0  0  0  0  0  0
  187.0120  177.9170  144.6160 C   0  0  0  0  0  0  0  0  0  0  0  0
  184.4760  177.7420  146.7990 O   0  0  0  0  0  0  0  0  0  0  0  0
  185.6770  178.0000  144.8460 N   0  0  0  0  0  0  0  0  0  0  0  0
  182.5870  179.0880  143.0730 C   0  0  0  0  0  2  0  0  0  0  0  0
  185.8810  180.4600  142.8880 C   0  0  0  0  0  1  0  0  0  0  0  0
  189.6560  177.2690  147.2220 C   0  0  0  0  0  3  0  0  0  0  0  0
  189.0180  177.4950  145.9130 C   0  0  0  0  0  0  0  0  0  0  0  0
  185.8880  179.1450  142.1120 C   0  0  2  0  0  3  0  0  0  0  0  0
  189.2290  176.3200  140.4700 C   0  0  0  0  0  2  0  0  0  0  0  0
  190.3110  176.9820  138.5140 C   0  0  0  0  0  1  0  0  0  0  0  0
  190.3350  176.0010  139.5810 N   0  0  0  0  0  2  0  0  0  0  0  0
  1 19  1  0  0  0  0
  2 13  1  0  0  0  0
  4  1  2  0  0  0  0
  4 20  1  0  0  0  0
  5  1  1  0  0  0  0
  6  8  2  0  0  0  0
  7 15  1  6  0  0  0
  7  9  1  0  0  0  0
  8 12  1  0  0  0  0
  9 14  1  1  0  0  0
  9 22  1  0  0  0  0
 10 21  2  0  0  0  0
 10  3  1  0  0  0  0
 11 28  1  1  0  0  0
 11  8  1  0  0  0  0
 11  5  1  0  0  0  0
 12  4  1  0  0  0  0
 13 18  1  0  0  0  0
 15 23  1  0  0  0  0
 16  2  2  0  0  0  0
 17 26  1  0  0  0  0
 17  3  1  0  0  0  0
 19  2  1  0  0  0  0
 19 26  2  0  0  0  0
 20 22  1  0  0  0  0
 20 17  2  0  0  0  0
 22 10  1  0  0  0  0
 23 14  1  0  0  0  0
 25 18  2  0  0  0  0
 26 25  1  0  0  0  0
 27 12  1  0  0  0  0
 27  7  1  0  0  0  0
 27 24  1  1  0  0  0
 29 30  1  0  0  0  0
 30 28  1  0  0  0  0
M  END
>  <MODEL>
3

>  <REMARK>
 VINA RESULT:      -7.8      1.914      5.578
  Name = 
  2 active torsions:
  status: ('A' for Active; 'I' for Inactive)
    1  A    between atoms: C_11  and  C_28
    2  A    between atoms: C_28  and  N_30
                            x       y       z     vdW  Elec       q    Type
                         _______ _______ _______ _____ _____    ______ ____

>  <TORSDO>
F 2

$$$$
=
 OpenBabel11122410283D

 30 35  0  0  1  0  0  0  0  0999 V2000
  186.0440  178.3680  140.2840 C   0  0  0  0  0  0  0  0  0  0  0  0
  187.4820  178.2560  138.1760 C   0  0  0  0  0  0  0  0  0  0  0  0
  189.2840  177.6620  142.7120 N   0  0  0  0  0  2  0  0  0  0  0  0
  185.9310  178.3480  141.7000 C   0  0  0  0  0  0  0  0  0  0  0  0
  184.8640  178.5670  139.4980 N   0  0  0  0  0  2  0  0  0  0  0  0
  182.4030  179.2260  141.9910 O   0  0  0  0  0  0  0  0  0  0  0  0
  184.8620  177.9740  144.6260 C   0  0  1  0  0  3  0  0  0  0  0  0
  183.4890  178.8260  141.4910 C   0  0  0  0  0  0  0  0  0  0  0  0
  186.3320  177.6770  144.8840 C   0  0  2  0  0  3  0  0  0  0  0  0
  188.6140  177.6520  143.8850 C   0  0  0  0  0  0  0  0  0  0  0  0
  183.5210  178.4260  140.0490 C   0  0  2  0  0  3  0  0  0  0  0  0
  184.6730  178.7220  142.3030 N   0  0  0  0  0  0  0  0  0  0  0  0
  188.7490  177.7510  137.5450 C   0  0  0  0  0  2  0  0  0  0  0  0
  186.6910  178.4590  146.1310 C   0  0  0  0  0  2  0  0  0  0  0  0
  184.2650  178.2670  145.9940 C   0  0  0  0  0  2  0  0  0  0  0  0
  186.5670  178.6870  137.4260 O   0  0  0  0  0  0  0  0  0  0  0  0
  188.3110  177.9170  141.8210 C   0  0  0  0  0  0  0  0  0  0  0  0
  189.9220  177.7650  138.4870 C   0  0  0  0  0  3  0  0  0  0  0  0
  187.3080  178.2010  139.6510 C   0  0  0  0  0  0  0  0  0  0  0  0
  187.0980  178.0700  142.4450 C   0  0  0  0  0  0  0  0  0  0  0  0
  189.1860  177.3880  144.9770 O   0  0  0  0  0  0  0  0  0  0  0  0
  187.2830  177.9070  143.7810 N   0  0  0  0  0  0  0  0  0  0  0  0
  185.4230  178.4750  146.9580 C   0  0  0  0  0  2  0  0  0  0  0  0
  185.3840  180.4150  143.9590 C   0  0  0  0  0  1  0  0  0  0  0  0
  189.7820  177.8340  139.8110 C   0  0  0  0  0  3  0  0  0  0  0  0
  188.4560  177.9770  140.4380 C   0  0  0  0  0  0  0  0  0  0  0  0
  184.5820  179.1440  143.6920 C   0  0  2  0  0  3  0  0  0  0  0  0
  183.0010  177.0030  139.8510 C   0  0  0  0  0  2  0  0  0  0  0  0
  182.6530  175.2300  138.3770 C   0  0  0  0  0  1  0  0  0  0  0  0
  183.3650  176.4830  138.5420 N   0  0  0  0  0  2  0  0  0  0  0  0
  1  4  1  0  0  0  0
  2 19  1  0  0  0  0
  3 10  1  0  0  0  0
  4 12  1  0  0  0  0
  4 20  2  0  0  0  0
  5 11  1  0  0  0  0
  5  1  1  0  0  0  0
  7  9  1  0  0  0  0
  7 15  1  1  0  0  0
  8  6  2  0  0  0  0
  8 12  1  0  0  0  0
  9 14  1  1  0  0  0
 10 21  2  0  0  0  0
 11 28  1  1  0  0  0
 11  8  1  0  0  0  0
 12 27  1  0  0  0  0
 13  2  1  0  0  0  0
 13 18  1  0  0  0  0
 14 23  1  0  0  0  0
 15 23  1  0  0  0  0
 16  2  2  0  0  0  0
 17 20  1  0  0  0  0
 17  3  1  0  0  0  0
 18 25  2  0  0  0  0
 19  1  2  0  0  0  0
 19 26  1  0  0  0  0
 20 22  1  0  0  0  0
 22 10  1  0  0  0  0
 22  9  1  0  0  0  0
 25 26  1  0  0  0  0
 26 17  2  0  0  0  0
 27 24  1  6  0  0  0
 27  7  1  0  0  0  0
 29 30  1  0  0  0  0
 30 28  1  0  0  0  0
M  END
>  <MODEL>
4

>  <REMARK>
 VINA RESULT:      -7.5      2.105      5.104
  Name = 
  2 active torsions:
  status: ('A' for Active; 'I' for Inactive)
    1  A    between atoms: C_11  and  C_28
    2  A    between atoms: C_28  and  N_30
                            x       y       z     vdW  Elec       q    Type
                         _______ _______ _______ _____ _____    ______ ____

>  <TORSDO>
F 2

$$$$
=
 OpenBabel11122410283D

 30 35  0  0  1  0  0  0  0  0999 V2000
  184.1510  178.5700  140.6890 C   0  0  0  0  0  0  0  0  0  0  0  0
  183.4660  178.7180  143.1460 C   0  0  0  0  0  0  0  0  0  0  0  0
  188.1190  178.1370  141.6630 N   0  0  0  0  0  2  0  0  0  0  0  0
  185.1500  178.3770  139.6990 C   0  0  0  0  0  0  0  0  0  0  0  0
  182.7940  178.7670  140.2740 N   0  0  0  0  0  2  0  0  0  0  0  0
  183.0010  178.2520  136.7540 O   0  0  0  0  0  0  0  0  0  0  0  0
  186.7990  178.4790  137.0320 C   0  0  1  0  0  3  0  0  0  0  0  0
  183.3890  178.4850  137.9300 C   0  0  0  0  0  0  0  0  0  0  0  0
  187.9610  178.4020  138.0120 C   0  0  2  0  0  3  0  0  0  0  0  0
  188.5970  178.0960  140.4010 C   0  0  0  0  0  0  0  0  0  0  0  0
  182.4330  179.1040  138.9020 C   0  0  2  0  0  3  0  0  0  0  0  0
  184.7420  178.1900  138.3260 N   0  0  0  0  0  0  0  0  0  0  0  0
  183.8940  179.0330  144.5510 C   0  0  0  0  0  2  0  0  0  0  0  0
  188.9040  177.3620  137.4410 C   0  0  0  0  0  2  0  0  0  0  0  0
  187.3870  178.0990  135.6820 C   0  0  0  0  0  2  0  0  0  0  0  0
  182.2360  178.6280  142.8970 O   0  0  0  0  0  0  0  0  0  0  0  0
  186.7940  178.2530  141.4720 C   0  0  0  0  0  0  0  0  0  0  0  0
  185.3060  178.6070  144.8470 C   0  0  0  0  0  3  0  0  0  0  0  0
  184.4830  178.5620  142.0730 C   0  0  0  0  0  0  0  0  0  0  0  0
  186.4890  178.2660  140.1340 C   0  0  0  0  0  0  0  0  0  0  0  0
  189.8330  178.0430  140.1570 O   0  0  0  0  0  0  0  0  0  0  0  0
  187.6460  178.1580  139.4310 N   0  0  0  0  0  0  0  0  0  0  0  0
  188.7550  177.4850  135.9400 C   0  0  0  0  0  2  0  0  0  0  0  0
  185.9610  176.1300  137.7060 C   0  0  0  0  0  1  0  0  0  0  0  0
  186.1970  178.3490  143.8900 C   0  0  0  0  0  3  0  0  0  0  0  0
  185.8280  178.3950  142.4630 C   0  0  0  0  0  0  0  0  0  0  0  0
  185.6170  177.5720  137.3410 C   0  0  2  0  0  3  0  0  0  0  0  0
  182.3520  180.6180  138.7190 C   0  0  0  0  0  2  0  0  0  0  0  0
  181.1170  182.4410  137.9510 C   0  0  0  0  0  1  0  0  0  0  0  0
  181.1970  180.9930  137.9170 N   0  0  0  0  0  2  0  0  0  0  0  0
  1 19  1  0  0  0  0
  2 13  1  0  0  0  0
  4 20  1  0  0  0  0
  4  1  2  0  0  0  0
  5  1  1  0  0  0  0
  6  8  2  0  0  0  0
  7 15  1  6  0  0  0
  7 27  1  0  0  0  0
  7  9  1  0  0  0  0
  8 12  1  0  0  0  0
  8 11  1  0  0  0  0
  9 14  1  6  0  0  0
  9 22  1  0  0  0  0
 10  3  1  0  0  0  0
 11 28  1  1  0  0  0
 11  5  1  0  0  0  0
 12  4  1  0  0  0  0
 13 18  1  0  0  0  0
 15 23  1  0  0  0  0
 16  2  2  0  0  0  0
 17  3  1  0  0  0  0
 17 26  1  0  0  0  0
 19 26  2  0  0  0  0
 19  2  1  0  0  0  0
 20 17  2  0  0  0  0
 21 10  2  0  0  0  0
 22 20  1  0  0  0  0
 22 10  1  0  0  0  0
 23 14  1  0  0  0  0
 25 18  2  0  0  0  0
 26 25  1  0  0  0  0
 27 24  1  1  0  0  0
 27 12  1  0  0  0  0
 30 29  1  0  0  0  0
 30 28  1  0  0  0  0
M  END
>  <MODEL>
5

>  <REMARK>
 VINA RESULT:      -7.1      2.736      5.988
  Name = 
  2 active torsions:
  status: ('A' for Active; 'I' for Inactive)
    1  A    between atoms: C_11  and  C_28
    2  A    between atoms: C_28  and  N_30
                            x       y       z     vdW  Elec       q    Type
                         _______ _______ _______ _____ _____    ______ ____

>  <TORSDO>
F 2

$$$$
=
 OpenBabel11122410283D

 30 35  0  0  1  0  0  0  0  0999 V2000
  186.8560  177.7380  138.6200 C   0  0  0  0  0  0  0  0  0  0  0  0
  184.5770  178.8770  138.7970 C   0  0  0  0  0  0  0  0  0  0  0  0
  185.5390  175.2250  135.6470 N   0  0  0  0  0  2  0  0  0  0  0  0
  187.7190  176.8020  137.9910 C   0  0  0  0  0  0  0  0  0  0  0  0
  187.3700  178.5450  139.6860 N   0  0  0  0  0  2  0  0  0  0  0  0
  190.8270  177.6800  139.6860 O   0  0  0  0  0  0  0  0  0  0  0  0
  189.9980  174.7190  137.4280 C   0  0  1  0  0  3  0  0  0  0  0  0
  189.5940  177.5840  139.4440 C   0  0  0  0  0  0  0  0  0  0  0  0
  188.9390  174.1530  136.4920 C   0  0  2  0  0  3  0  0  0  0  0  0
  186.6830  174.5230  135.5030 C   0  0  0  0  0  0  0  0  0  0  0  0
  188.6180  178.2360  140.3730 C   0  0  2  0  0  3  0  0  0  0  0  0
  189.1280  176.8300  138.3100 N   0  0  0  0  0  0  0  0  0  0  0  0
  183.0970  178.7670  138.5590 C   0  0  0  0  0  2  0  0  0  0  0  0
  189.6610  173.8670  135.1900 C   0  0  0  0  0  2  0  0  0  0  0  0
  191.3110  174.1040  136.9690 C   0  0  0  0  0  2  0  0  0  0  0  0
  185.0000  179.8000  139.5410 O   0  0  0  0  0  0  0  0  0  0  0  0
  185.8600  176.1190  136.5980 C   0  0  0  0  0  0  0  0  0  0  0  0
  182.7560  178.0160  137.3020 C   0  0  0  0  0  3  0  0  0  0  0  0
  185.5050  177.8820  138.1980 C   0  0  0  0  0  0  0  0  0  0  0  0
  187.1640  175.9640  136.9990 C   0  0  0  0  0  0  0  0  0  0  0  0
  186.7670  173.5380  134.7210 O   0  0  0  0  0  0  0  0  0  0  0  0
  187.7080  174.9400  136.2930 N   0  0  0  0  0  0  0  0  0  0  0  0
  191.0660  173.4830  135.6010 C   0  0  0  0  0  2  0  0  0  0  0  0
  190.1580  176.9070  136.0630 C   0  0  0  0  0  1  0  0  0  0  0  0
  183.6210  177.2090  136.6870 C   0  0  0  0  0  3  0  0  0  0  0  0
  185.0070  177.0600  137.1670 C   0  0  0  0  0  0  0  0  0  0  0  0
  190.1270  176.2360  137.4340 C   0  0  2  0  0  3  0  0  0  0  0  0
  188.3580  177.3740  141.6070 C   0  0  0  0  0  2  0  0  0  0  0  0
  189.8480  176.4480  143.1430 C   0  0  0  0  0  1  0  0  0  0  0  0
  189.2790  177.7000  142.6850 N   0  0  0  0  0  2  0  0  0  0  0  0
  1  5  1  0  0  0  0
  2 16  2  0  0  0  0
  3 17  1  0  0  0  0
  4 12  1  0  0  0  0
  4  1  2  0  0  0  0
  5 11  1  0  0  0  0
  7 15  1  6  0  0  0
  7 27  1  0  0  0  0
  8  6  2  0  0  0  0
  8 11  1  0  0  0  0
  9 14  1  6  0  0  0
  9  7  1  0  0  0  0
 10  3  1  0  0  0  0
 10 22  1  0  0  0  0
 11 28  1  1  0  0  0
 12  8  1  0  0  0  0
 13  2  1  0  0  0  0
 14 23  1  0  0  0  0
 17 20  2  0  0  0  0
 17 26  1  0  0  0  0
 18 13  1  0  0  0  0
 19  1  1  0  0  0  0
 19  2  1  0  0  0  0
 20  4  1  0  0  0  0
 21 10  2  0  0  0  0
 22  9  1  0  0  0  0
 22 20  1  0  0  0  0
 23 15  1  0  0  0  0
 25 26  1  0  0  0  0
 25 18  2  0  0  0  0
 26 19  2  0  0  0  0
 27 24  1  6  0  0  0
 27 12  1  0  0  0  0
 28 30  1  0  0  0  0
 30 29  1  0  0  0  0
M  END
>  <MODEL>
6

>  <REMARK>
 VINA RESULT:      -6.8      3.287      6.587
  Name = 
  2 active torsions:
  status: ('A' for Active; 'I' for Inactive)
    1  A    between atoms: C_11  and  C_28
    2  A    between atoms: C_28  and  N_30
                            x       y       z     vdW  Elec       q    Type
                         _______ _______ _______ _____ _____    ______ ____

>  <TORSDO>
F 2

$$$$
=
 OpenBabel11122410283D

 30 35  0  0  1  0  0  0  0  0999 V2000
  186.6040  178.3350  140.5260 C   0  0  0  0  0  0  0  0  0  0  0  0
  184.5350  179.0240  141.8560 C   0  0  0  0  0  0  0  0  0  0  0  0
  184.3980  177.7460  137.1100 N   0  0  0  0  0  2  0  0  0  0  0  0
  187.2080  177.9570  139.2980 C   0  0  0  0  0  0  0  0  0  0  0  0
  187.4280  178.4720  141.6900 N   0  0  0  0  0  2  0  0  0  0  0  0
  190.6990  178.0030  140.3560 O   0  0  0  0  0  0  0  0  0  0  0  0
  189.1080  176.6870  137.1480 C   0  0  1  0  0  3  0  0  0  0  0  0
  189.4410  177.9630  140.4180 C   0  0  0  0  0  0  0  0  0  0  0  0
  187.8090  176.6430  136.3550 C   0  0  2  0  0  3  0  0  0  0  0  0
  185.4130  177.3220  136.3270 C   0  0  0  0  0  0  0  0  0  0  0  0
  188.7810  177.9330  141.7620 C   0  0  2  0  0  3  0  0  0  0  0  0
  188.6500  177.9120  139.2160 N   0  0  0  0  0  0  0  0  0  0  0  0
  183.0390  178.9520  141.9770 C   0  0  0  0  0  2  0  0  0  0  0  0
  188.1590  177.1620  134.9750 C   0  0  0  0  0  2  0  0  0  0  0  0
  190.2140  176.5180  136.1170 C   0  0  0  0  0  2  0  0  0  0  0  0
  185.2000  179.4260  142.8470 O   0  0  0  0  0  0  0  0  0  0  0  0
  185.0140  178.0030  138.2760 C   0  0  0  0  0  0  0  0  0  0  0  0
  182.3380  178.9790  140.6460 C   0  0  0  0  0  3  0  0  0  0  0  0
  185.2050  178.5850  140.6040 C   0  0  0  0  0  0  0  0  0  0  0  0
  186.3600  177.7520  138.1870 C   0  0  0  0  0  0  0  0  0  0  0  0
  185.2230  176.9270  135.1450 O   0  0  0  0  0  0  0  0  0  0  0  0
  186.6310  177.3170  136.9300 N   0  0  0  0  0  0  0  0  0  0  0  0
  189.5890  176.7220  134.7440 C   0  0  0  0  0  2  0  0  0  0  0  0
  189.0890  179.2710  137.1970 C   0  0  0  0  0  1  0  0  0  0  0  0
  182.9580  178.7010  139.4990 C   0  0  0  0  0  3  0  0  0  0  0  0
  184.4040  178.4180  139.4560 C   0  0  0  0  0  0  0  0  0  0  0  0
  189.3500  177.9640  137.9420 C   0  0  2  0  0  3  0  0  0  0  0  0
  188.7720  176.5230  142.3490 C   0  0  0  0  0  2  0  0  0  0  0  0
  188.7800  177.0190  144.6280 C   0  0  0  0  0  1  0  0  0  0  0  0
  187.9710  176.4590  143.5620 N   0  0  0  0  0  2  0  0  0  0  0  0
  1 19  1  0  0  0  0
  1  5  1  0  0  0  0
  2 13  1  0  0  0  0
  2 16  2  0  0  0  0
  3 17  1  0  0  0  0
  4  1  2  0  0  0  0
  5 11  1  0  0  0  0
  6  8  2  0  0  0  0
  7 15  1  6  0  0  0
  7 27  1  0  0  0  0
  8 11  1  0  0  0  0
  9 14  1  6  0  0  0
  9 22  1  0  0  0  0
  9  7  1  0  0  0  0
 10 22  1  0  0  0  0
 10  3  1  0  0  0  0
 11 28  1  6  0  0  0
 12  4  1  0  0  0  0
 12  8  1  0  0  0  0
 17 26  1  0  0  0  0
 18 13  1  0  0  0  0
 19  2  1  0  0  0  0
 20 17  2  0  0  0  0
 20  4  1  0  0  0  0
 21 10  2  0  0  0  0
 22 20  1  0  0  0  0
 23 14  1  0  0  0  0
 23 15  1  0  0  0  0
 25 18  2  0  0  0  0
 26 25  1  0  0  0  0
 26 19  2  0  0  0  0
 27 24  1  6  0  0  0
 27 12  1  0  0  0  0
 28 30  1  0  0  0  0
 30 29  1  0  0  0  0
M  END
>  <MODEL>
7

>  <REMARK>
 VINA RESULT:      -6.8      2.079      6.105
  Name = 
  2 active torsions:
  status: ('A' for Active; 'I' for Inactive)
    1  A    between atoms: C_11  and  C_28
    2  A    between atoms: C_28  and  N_30
                            x       y       z     vdW  Elec       q    Type
                         _______ _______ _______ _____ _____    ______ ____

>  <TORSDO>
F 2

$$$$
=
 OpenBabel11122410283D

 30 35  0  0  1  0  0  0  0  0999 V2000
  187.4580  178.0670  142.1190 C   0  0  0  0  0  0  0  0  0  0  0  0
  185.9430  178.6030  144.1050 C   0  0  0  0  0  0  0  0  0  0  0  0
  184.3500  178.4310  139.4560 N   0  0  0  0  0  2  0  0  0  0  0  0
  187.6490  177.9250  140.7190 C   0  0  0  0  0  0  0  0  0  0  0  0
  188.5760  177.8740  142.9930 N   0  0  0  0  0  2  0  0  0  0  0  0
  191.2660  177.4570  140.6920 O   0  0  0  0  0  0  0  0  0  0  0  0
  188.6990  177.0200  137.9050 C   0  0  1  0  0  3  0  0  0  0  0  0
  190.0790  177.5040  141.1130 C   0  0  0  0  0  0  0  0  0  0  0  0
  187.2410  177.2560  137.5350 C   0  0  2  0  0  3  0  0  0  0  0  0
  185.0460  178.1120  138.3430 C   0  0  0  0  0  0  0  0  0  0  0  0
  189.8090  177.2270  142.5600 C   0  0  2  0  0  3  0  0  0  0  0  0
  188.9930  177.7850  140.2100 N   0  0  0  0  0  0  0  0  0  0  0  0
  184.5410  178.6260  144.6440 C   0  0  0  0  0  2  0  0  0  0  0  0
  187.2730  178.0410  136.2390 C   0  0  0  0  0  2  0  0  0  0  0  0
  189.4490  176.9970  136.5820 C   0  0  0  0  0  2  0  0  0  0  0  0
  186.9010  178.7200  144.9140 O   0  0  0  0  0  0  0  0  0  0  0  0
  185.2880  178.3710  140.4160 C   0  0  0  0  0  0  0  0  0  0  0  0
  183.5170  179.0040  143.6090 C   0  0  0  0  0  3  0  0  0  0  0  0
  186.1810  178.4020  142.6510 C   0  0  0  0  0  0  0  0  0  0  0  0
  186.5120  178.0410  139.8890 C   0  0  0  0  0  0  0  0  0  0  0  0
  184.4900  178.0070  137.2170 O   0  0  0  0  0  0  0  0  0  0  0  0
  186.3690  177.8770  138.5490 N   0  0  0  0  0  0  0  0  0  0  0  0
  188.5110  177.5510  135.5190 C   0  0  0  0  0  2  0  0  0  0  0  0
  189.0550  179.5200  138.4500 C   0  0  0  0  0  1  0  0  0  0  0  0
  183.7590  178.9410  142.2990 C   0  0  0  0  0  3  0  0  0  0  0  0
  185.0850  178.5610  141.7800 C   0  0  0  0  0  0  0  0  0  0  0  0
  189.3230  178.0640  138.8210 C   0  0  2  0  0  3  0  0  0  0  0  0
  189.7630  175.7280  142.8440 C   0  0  0  0  0  2  0  0  0  0  0  0
  191.4420  176.3560  144.3350 C   0  0  0  0  0  1  0  0  0  0  0  0
  190.9860  175.2710  143.4870 N   0  0  0  0  0  2  0  0  0  0  0  0
  1 19  1  0  0  0  0
  1  5  1  0  0  0  0
  2 13  1  0  0  0  0
  2 16  2  0  0  0  0
  3 17  1  0  0  0  0
  4  1  2  0  0  0  0
  6  8  2  0  0  0  0
  7 15  1  6  0  0  0
  7 27  1  0  0  0  0
  8 11  1  0  0  0  0
  9 14  1  6  0  0  0
  9  7  1  0  0  0  0
  9 22  1  0  0  0  0
 10 22  1  0  0  0  0
 10  3  1  0  0  0  0
 11 28  1  6  0  0  0
 11  5  1  0  0  0  0
 12  4  1  0  0  0  0
 12  8  1  0  0  0  0
 17 26  1  0  0  0  0
 18 13  1  0  0  0  0
 19  2  1  0  0  0  0
 20 17  2  0  0  0  0
 20  4  1  0  0  0  0
 21 10  2  0  0  0  0
 22 20  1  0  0  0  0
 23 14  1  0  0  0  0
 23 15  1  0  0  0  0
 25 18  2  0  0  0  0
 26 25  1  0  0  0  0
 26 19  2  0  0  0  0
 27 24  1  6  0  0  0
 27 12  1  0  0  0  0
 28 30  1  0  0  0  0
 30 29  1  0  0  0  0
M  END
>  <MODEL>
8

>  <REMARK>
 VINA RESULT:      -6.8      1.548      5.613
  Name = 
  2 active torsions:
  status: ('A' for Active; 'I' for Inactive)
    1  A    between atoms: C_11  and  C_28
    2  A    between atoms: C_28  and  N_30
                            x       y       z     vdW  Elec       q    Type
                         _______ _______ _______ _____ _____    ______ ____

>  <TORSDO>
F 2

$$$$
=
 OpenBabel11122410283D

 30 35  0  0  1  0  0  0  0  0999 V2000
  189.5300  177.2550  141.0010 C   0  0  0  0  0  0  0  0  0  0  0  0
  190.2030  177.0630  138.5450 C   0  0  0  0  0  0  0  0  0  0  0  0
  185.8610  178.8320  140.0300 N   0  0  0  0  0  2  0  0  0  0  0  0
  188.5630  177.5710  141.9920 C   0  0  0  0  0  0  0  0  0  0  0  0
  190.8080  176.7580  141.4150 N   0  0  0  0  0  2  0  0  0  0  0  0
  190.3680  176.3900  144.9330 O   0  0  0  0  0  0  0  0  0  0  0  0
  187.1710  178.4530  144.6610 C   0  0  1  0  0  3  0  0  0  0  0  0
  190.1460  176.7900  143.7580 C   0  0  0  0  0  0  0  0  0  0  0  0
  186.1220  178.9620  143.6830 C   0  0  2  0  0  3  0  0  0  0  0  0
  185.4220  179.0230  141.2920 C   0  0  0  0  0  0  0  0  0  0  0  0
  191.2840  176.8660  142.7890 C   0  0  2  0  0  3  0  0  0  0  0  0
  188.8230  177.2000  143.3630 N   0  0  0  0  0  0  0  0  0  0  0  0
  189.9870  177.5570  137.1410 C   0  0  0  0  0  2  0  0  0  0  0  0
  184.7890  178.5160  144.2480 C   0  0  0  0  0  2  0  0  0  0  0  0
  186.4690  178.4020  146.0100 C   0  0  0  0  0  2  0  0  0  0  0  0
  191.2310  176.3800  138.7910 O   0  0  0  0  0  0  0  0  0  0  0  0
  187.0720  178.2810  140.2200 C   0  0  0  0  0  0  0  0  0  0  0  0
  188.5490  177.8800  136.8450 C   0  0  0  0  0  3  0  0  0  0  0  0
  189.2380  177.4200  139.6180 C   0  0  0  0  0  0  0  0  0  0  0  0
  187.3420  178.1340  141.5580 C   0  0  0  0  0  0  0  0  0  0  0  0
  184.3190  179.5810  141.5370 O   0  0  0  0  0  0  0  0  0  0  0  0
  186.2800  178.6040  142.2610 N   0  0  0  0  0  0  0  0  0  0  0  0
  184.9760  178.5400  145.7500 C   0  0  0  0  0  2  0  0  0  0  0  0
  186.7490  175.9990  143.9710 C   0  0  0  0  0  1  0  0  0  0  0  0
  187.6440  178.0870  137.8020 C   0  0  0  0  0  3  0  0  0  0  0  0
  187.9860  177.9370  139.2280 C   0  0  0  0  0  0  0  0  0  0  0  0
  187.7560  177.0840  144.3450 C   0  0  2  0  0  3  0  0  0  0  0  0
  192.0980  178.1440  142.9820 C   0  0  0  0  0  2  0  0  0  0  0  0
  191.1500  179.9280  144.1470 C   0  0  0  0  0  1  0  0  0  0  0  0
  191.9040  178.7000  144.3120 N   0  0  0  0  0  2  0  0  0  0  0  0
  1  5  1  0  0  0  0
  1  4  1  0  0  0  0
  2 16  2  0  0  0  0
  2 19  1  0  0  0  0
  3 17  1  0  0  0  0
  3 10  1  0  0  0  0
  4 12  1  0  0  0  0
  5 11  1  0  0  0  0
  7 15  1  1  0  0  0
  8  6  2  0  0  0  0
  9 14  1  1  0  0  0
  9  7  1  0  0  0  0
 10 21  2  0  0  0  0
 10 22  1  0  0  0  0
 11 28  1  6  0  0  0
 11  8  1  0  0  0  0
 12  8  1  0  0  0  0
 12 27  1  0  0  0  0
 13  2  1  0  0  0  0
 14 23  1  0  0  0  0
 17 20  1  0  0  0  0
 18 13  1  0  0  0  0
 18 25  2  0  0  0  0
 19  1  2  0  0  0  0
 20  4  2  0  0  0  0
 20 22  1  0  0  0  0
 22  9  1  0  0  0  0
 23 15  1  0  0  0  0
 25 26  1  0  0  0  0
 26 19  1  0  0  0  0
 26 17  2  0  0  0  0
 27 24  1  6  0  0  0
 27  7  1  0  0  0  0
 28 30  1  0  0  0  0
 29 30  1  0  0  0  0
M  END
>  <MODEL>
9

>  <REMARK>
 VINA RESULT:      -6.7      1.944      5.098
  Name = 
  2 active torsions:
  status: ('A' for Active; 'I' for Inactive)
    1  A    between atoms: C_11  and  C_28
    2  A    between atoms: C_28  and  N_30
                            x       y       z     vdW  Elec       q    Type
                         _______ _______ _______ _____ _____    ______ ____

>  <TORSDO>
F 2

$$$$
