=
 OpenBabel11122410393D

 32 37  0  0  1  0  0  0  0  0999 V2000
  186.0490  179.0640  145.8860 C   0  0  0  0  0  2  0  0  0  0  0  0
  185.0890  178.3220  140.4890 C   0  0  1  0  0  3  0  0  0  0  0  0
  189.5160  178.4210  138.2130 C   0  0  0  0  0  2  0  0  0  0  0  0
  188.7330  177.7320  137.1890 N   0  0  0  0  0  2  0  0  0  0  0  0
  183.0320  178.7130  139.0730 C   0  0  0  0  0  0  0  0  0  0  0  0
  182.5690  177.4320  138.4320 C   0  0  2  0  0  3  0  0  0  0  0  0
  184.8770  178.1030  142.9820 C   0  0  1  0  0  3  0  0  0  0  0  0
  187.0210  177.7470  141.7370 C   0  0  0  0  0  2  0  0  0  0  0  0
  183.2180  175.4200  137.4320 C   0  0  1  0  0  3  0  0  0  0  0  0
  187.0380  177.4060  144.1990 C   0  0  0  0  0  2  0  0  0  0  0  0
  188.7790  178.4300  139.5580 C   0  0  0  0  0  2  0  0  0  0  0  0
  186.5410  178.5780  140.6270 N   0  0  1  0  0  0  0  0  0  0  0  0
  187.2690  178.1490  139.4190 C   0  0  1  0  0  3  0  0  0  0  0  0
  185.2460  178.5940  137.9750 C   0  0  1  0  0  3  0  0  0  0  0  0
  182.4930  175.1600  138.6770 N   0  0  0  0  0  2  0  0  0  0  0  0
  184.9620  179.6880  144.9970 C   0  0  0  0  0  2  0  0  0  0  0  0
  186.4130  178.2100  143.0560 C   0  0  2  0  0  3  0  0  0  0  0  0
  182.4340  176.3660  139.4050 N   0  0  0  0  0  2  0  0  0  0  0  0
  184.1440  178.6550  144.2150 C   0  0  0  0  0  2  0  0  0  0  0  0
  186.3670  177.5990  145.5660 C   0  0  1  0  0  3  0  0  0  0  0  0
  187.5410  178.5320  136.8960 C   0  0  0  0  0  2  0  0  0  0  0  0
  186.7340  178.8620  138.1670 C   0  0  2  0  0  3  0  0  0  0  0  0
  184.9650  177.1240  137.6490 C   0  0  0  0  0  2  0  0  0  0  0  0
  184.3670  178.8280  141.7430 C   0  0  0  0  0  2  0  0  0  0  0  0
  182.1650  179.5040  139.5870 N   0  0  0  0  0  2  0  0  0  0  0  0
  182.3710  174.9800  136.2530 C   0  0  0  0  0  1  0  0  0  0  0  0
  184.4980  179.0130  139.2410 C   0  0  2  0  0  3  0  0  0  0  0  0
  183.4820  176.9010  137.3470 C   0  0  2  0  0  3  0  0  0  0  0  0
  187.2390  177.0180  146.6660 C   0  0  0  0  0  2  0  0  0  0  0  0
  188.4000  177.9100  146.9480 C   0  0  0  0  0  0  0  0  0  0  0  0
  188.4980  178.4830  148.0650 O   0  0  0  0  0  1  0  0  0  0  0  0
  189.3910  178.0840  145.9920 O   0  0  0  0  0  0  0  0  0  0  0  0
  2 12  1  0  0  0  0
  2 24  1  1  0  0  0
  3 11  1  0  0  0  0
  4  3  1  0  0  0  0
  5 25  2  0  0  0  0
  6  5  1  1  0  0  0
  6 18  1  0  0  0  0
  7 24  1  6  0  0  0
  7 17  1  0  0  0  0
  7 19  1  0  0  0  0
  9 26  1  6  0  0  0
  9 15  1  0  0  0  0
 10 20  1  0  0  0  0
 12  8  1  1  0  0  0
 13 11  1  1  0  0  0
 13 12  1  0  0  0  0
 14 23  1  1  0  0  0
 14 22  1  0  0  0  0
 14 27  1  0  0  0  0
 15 18  1  0  0  0  0
 16  1  1  0  0  0  0
 17  8  1  6  0  0  0
 17 10  1  0  0  0  0
 19 16  1  0  0  0  0
 20  1  1  0  0  0  0
 20 29  1  1  0  0  0
 21  4  1  0  0  0  0
 22 21  1  6  0  0  0
 22 13  1  0  0  0  0
 27  5  1  6  0  0  0
 27  2  1  0  0  0  0
 28  9  1  0  0  0  0
 28 23  1  1  0  0  0
 28  6  1  0  0  0  0
 29 30  1  0  0  0  0
 30 31  1  0  0  0  0
 32 30  2  0  0  0  0
M  END
>  <MODEL>
1

>  <REMARK>
 VINA RESULT:      -8.1      0.000      0.000
  Name = 
  2 active torsions:
  status: ('A' for Active; 'I' for Inactive)
    1  A    between atoms: C_20  and  C_29
    2  A    between atoms: C_29  and  C_30
                            x       y       z     vdW  Elec       q    Type
                         _______ _______ _______ _____ _____    ______ ____

>  <TORSDO>
F 2

$$$$
=
 OpenBabel11122410393D

 32 37  0  0  1  0  0  0  0  0999 V2000
  185.6590  179.4080  145.0980 C   0  0  0  0  0  2  0  0  0  0  0  0
  185.1500  178.1620  139.7320 C   0  0  1  0  0  3  0  0  0  0  0  0
  189.7170  178.3840  137.7630 C   0  0  0  0  0  2  0  0  0  0  0  0
  189.0580  177.5610  136.7520 N   0  0  0  0  0  2  0  0  0  0  0  0
  183.1820  178.2900  138.1500 C   0  0  0  0  0  0  0  0  0  0  0  0
  182.8510  176.9320  137.5930 C   0  0  2  0  0  3  0  0  0  0  0  0
  184.7680  178.1320  142.2140 C   0  0  1  0  0  3  0  0  0  0  0  0
  187.0170  177.8280  141.1540 C   0  0  0  0  0  2  0  0  0  0  0  0
  183.6990  174.8950  136.8170 C   0  0  1  0  0  3  0  0  0  0  0  0
  186.8750  177.6910  143.6320 C   0  0  0  0  0  2  0  0  0  0  0  0
  188.8840  178.4510  139.0490 C   0  0  0  0  0  2  0  0  0  0  0  0
  186.5680  178.5290  139.9460 N   0  0  1  0  0  0  0  0  0  0  0  0
  187.4100  178.0550  138.8320 C   0  0  1  0  0  3  0  0  0  0  0  0
  185.4740  178.2380  137.2200 C   0  0  1  0  0  3  0  0  0  0  0  0
  182.9030  174.6880  138.0270 N   0  0  0  0  0  2  0  0  0  0  0  0
  184.6020  179.8790  144.0850 C   0  0  0  0  0  2  0  0  0  0  0  0
  186.2850  178.3530  142.3840 C   0  0  2  0  0  3  0  0  0  0  0  0
  182.7130  175.9420  138.6430 N   0  0  0  0  0  2  0  0  0  0  0  0
  183.9120  178.7310  143.3430 C   0  0  0  0  0  2  0  0  0  0  0  0
  186.0930  177.9480  144.9280 C   0  0  1  0  0  3  0  0  0  0  0  0
  187.8420  178.2480  136.3100 C   0  0  0  0  0  2  0  0  0  0  0  0
  186.9240  178.6240  137.4890 C   0  0  2  0  0  3  0  0  0  0  0  0
  185.3130  176.7300  137.0050 C   0  0  0  0  0  2  0  0  0  0  0  0
  184.3060  178.7170  140.8850 C   0  0  0  0  0  2  0  0  0  0  0  0
  182.2300  179.0580  138.5340 N   0  0  0  0  0  2  0  0  0  0  0  0
  182.9720  174.3020  135.6250 C   0  0  0  0  0  1  0  0  0  0  0  0
  184.6100  178.7050  138.3920 C   0  0  2  0  0  3  0  0  0  0  0  0
  183.8740  176.3790  136.6230 C   0  0  2  0  0  3  0  0  0  0  0  0
  186.9170  177.5210  146.1310 C   0  0  0  0  0  2  0  0  0  0  0  0
  186.5410  178.3120  147.3380 C   0  0  0  0  0  0  0  0  0  0  0  0
  187.4300  178.6920  148.1450 O   0  0  0  0  0  1  0  0  0  0  0  0
  185.2140  178.6600  147.5550 O   0  0  0  0  0  0  0  0  0  0  0  0
  2 12  1  0  0  0  0
  2 24  1  1  0  0  0
  3 11  1  0  0  0  0
  4  3  1  0  0  0  0
  5 25  2  0  0  0  0
  6  5  1  1  0  0  0
  6 18  1  0  0  0  0
  7 24  1  6  0  0  0
  7 17  1  0  0  0  0
  7 19  1  0  0  0  0
  9 26  1  6  0  0  0
  9 15  1  0  0  0  0
 10 20  1  0  0  0  0
 12  8  1  1  0  0  0
 13 11  1  1  0  0  0
 13 12  1  0  0  0  0
 14 23  1  1  0  0  0
 14 22  1  0  0  0  0
 14 27  1  0  0  0  0
 15 18  1  0  0  0  0
 16  1  1  0  0  0  0
 17  8  1  6  0  0  0
 17 10  1  0  0  0  0
 19 16  1  0  0  0  0
 20  1  1  0  0  0  0
 20 29  1  1  0  0  0
 21  4  1  0  0  0  0
 22 21  1  6  0  0  0
 22 13  1  0  0  0  0
 27  5  1  6  0  0  0
 27  2  1  0  0  0  0
 28  9  1  0  0  0  0
 28 23  1  1  0  0  0
 28  6  1  0  0  0  0
 29 30  1  0  0  0  0
 30 32  2  0  0  0  0
 30 31  1  0  0  0  0
M  END
>  <MODEL>
2

>  <REMARK>
 VINA RESULT:      -7.6      1.028      1.192
  Name = 
  2 active torsions:
  status: ('A' for Active; 'I' for Inactive)
    1  A    between atoms: C_20  and  C_29
    2  A    between atoms: C_29  and  C_30
                            x       y       z     vdW  Elec       q    Type
                         _______ _______ _______ _____ _____    ______ ____

>  <TORSDO>
F 2

$$$$
=
 OpenBabel11122410393D

 32 37  0  0  1  0  0  0  0  0999 V2000
  190.5680  178.3730  143.5500 C   0  0  0  0  0  2  0  0  0  0  0  0
  189.0820  177.1220  138.3700 C   0  0  1  0  0  3  0  0  0  0  0  0
  193.2510  175.9280  135.9250 C   0  0  0  0  0  2  0  0  0  0  0  0
  192.2680  175.2940  135.0500 N   0  0  0  0  0  2  0  0  0  0  0  0
  187.0560  177.7570  136.9970 C   0  0  0  0  0  0  0  0  0  0  0  0
  186.2870  176.5330  136.5760 C   0  0  2  0  0  3  0  0  0  0  0  0
  189.0100  177.3020  140.8750 C   0  0  1  0  0  3  0  0  0  0  0  0
  190.9340  176.3140  139.6110 C   0  0  0  0  0  2  0  0  0  0  0  0
  186.4200  174.3100  135.8650 C   0  0  1  0  0  3  0  0  0  0  0  0
  191.0580  176.3210  142.0930 C   0  0  0  0  0  2  0  0  0  0  0  0
  192.6330  176.2850  137.2830 C   0  0  0  0  0  2  0  0  0  0  0  0
  190.5610  177.0680  138.4080 N   0  0  1  0  0  0  0  0  0  0  0  0
  191.0920  176.3270  137.2500 C   0  0  1  0  0  3  0  0  0  0  0  0
  189.1090  177.0030  135.8390 C   0  0  1  0  0  3  0  0  0  0  0  0
  185.7500  174.3900  137.1630 N   0  0  0  0  0  2  0  0  0  0  0  0
  189.5750  179.0920  142.6220 C   0  0  0  0  0  2  0  0  0  0  0  0
  190.5360  177.0770  140.8680 C   0  0  2  0  0  3  0  0  0  0  0  0
  186.0010  175.6680  137.7040 N   0  0  0  0  0  2  0  0  0  0  0  0
  188.5020  178.1670  142.0400 C   0  0  0  0  0  2  0  0  0  0  0  0
  190.5430  176.8440  143.4420 C   0  0  1  0  0  3  0  0  0  0  0  0
  191.2530  176.2880  134.6890 C   0  0  0  0  0  2  0  0  0  0  0  0
  190.6300  176.9600  135.9280 C   0  0  2  0  0  3  0  0  0  0  0  0
  188.5000  175.6010  135.7510 C   0  0  0  0  0  2  0  0  0  0  0  0
  188.5760  177.9430  139.5620 C   0  0  0  0  0  2  0  0  0  0  0  0
  186.4160  178.7830  137.4220 N   0  0  0  0  0  2  0  0  0  0  0  0
  185.4160  173.9080  134.8010 C   0  0  0  0  0  1  0  0  0  0  0  0
  188.5610  177.7470  137.0580 C   0  0  2  0  0  3  0  0  0  0  0  0
  186.9850  175.6700  135.5470 C   0  0  2  0  0  3  0  0  0  0  0  0
  191.3500  176.2430  144.5800 C   0  0  0  0  0  2  0  0  0  0  0  0
  190.8940  176.7810  145.8940 C   0  0  0  0  0  0  0  0  0  0  0  0
  191.7370  177.2080  146.7270 O   0  0  0  0  0  1  0  0  0  0  0  0
  189.5390  176.8420  146.1870 O   0  0  0  0  0  0  0  0  0  0  0  0
  2 12  1  0  0  0  0
  2 24  1  1  0  0  0
  3 11  1  0  0  0  0
  4  3  1  0  0  0  0
  5 25  2  0  0  0  0
  6  5  1  1  0  0  0
  6 18  1  0  0  0  0
  7 24  1  6  0  0  0
  7 19  1  0  0  0  0
  9 26  1  6  0  0  0
  9 15  1  0  0  0  0
 10 20  1  0  0  0  0
 12  8  1  1  0  0  0
 13 11  1  6  0  0  0
 13 12  1  0  0  0  0
 14 23  1  1  0  0  0
 14 22  1  0  0  0  0
 14 27  1  0  0  0  0
 15 18  1  0  0  0  0
 16  1  1  0  0  0  0
 17  8  1  6  0  0  0
 17  7  1  0  0  0  0
 17 10  1  0  0  0  0
 19 16  1  0  0  0  0
 20  1  1  0  0  0  0
 20 29  1  1  0  0  0
 21  4  1  0  0  0  0
 22 21  1  6  0  0  0
 22 13  1  0  0  0  0
 27  5  1  1  0  0  0
 27  2  1  0  0  0  0
 28 23  1  1  0  0  0
 28  9  1  0  0  0  0
 28  6  1  0  0  0  0
 29 30  1  0  0  0  0
 30 32  2  0  0  0  0
 30 31  1  0  0  0  0
M  END
>  <MODEL>
3

>  <REMARK>
 VINA RESULT:      -6.8      3.295      4.492
  Name = 
  2 active torsions:
  status: ('A' for Active; 'I' for Inactive)
    1  A    between atoms: C_20  and  C_29
    2  A    between atoms: C_29  and  C_30
                            x       y       z     vdW  Elec       q    Type
                         _______ _______ _______ _____ _____    ______ ____

>  <TORSDO>
F 2

$$$$
=
 OpenBabel11122410393D

 32 37  0  0  1  0  0  0  0  0999 V2000
  185.8540  179.3670  144.4470 C   0  0  0  0  0  2  0  0  0  0  0  0
  187.8870  177.5870  139.6200 C   0  0  1  0  0  3  0  0  0  0  0  0
  192.8220  177.2350  140.1790 C   0  0  0  0  0  2  0  0  0  0  0  0
  192.6470  176.3610  139.0210 N   0  0  0  0  0  2  0  0  0  0  0  0
  186.9780  177.6950  137.2640 C   0  0  0  0  0  0  0  0  0  0  0  0
  186.7990  176.3140  136.6930 C   0  0  2  0  0  3  0  0  0  0  0  0
  186.3400  177.8580  141.5800 C   0  0  1  0  0  3  0  0  0  0  0  0
  188.7640  177.2650  141.8000 C   0  0  0  0  0  2  0  0  0  0  0  0
  187.6620  174.1460  136.5580 C   0  0  1  0  0  3  0  0  0  0  0  0
  187.4120  177.4110  143.8800 C   0  0  0  0  0  2  0  0  0  0  0  0
  191.4820  177.5070  140.8730 C   0  0  0  0  0  2  0  0  0  0  0  0
  189.0520  177.8630  140.4910 N   0  0  1  0  0  0  0  0  0  0  0  0
  190.2660  177.2060  139.9730 C   0  0  1  0  0  3  0  0  0  0  0  0
  189.4060  177.3630  137.6040 C   0  0  1  0  0  3  0  0  0  0  0  0
  186.3580  174.1340  137.2200 N   0  0  0  0  0  2  0  0  0  0  0  0
  185.4940  179.8060  143.0190 C   0  0  0  0  0  2  0  0  0  0  0  0
  187.5940  177.9770  142.4700 C   0  0  2  0  0  3  0  0  0  0  0  0
  186.0450  175.4590  137.5880 N   0  0  0  0  0  2  0  0  0  0  0  0
  185.1220  178.6410  142.0960 C   0  0  0  0  0  2  0  0  0  0  0  0
  186.1340  177.8670  144.5980 C   0  0  1  0  0  3  0  0  0  0  0  0
  191.8970  177.0890  137.9950 C   0  0  0  0  0  2  0  0  0  0  0  0
  190.5730  177.6620  138.5370 C   0  0  2  0  0  3  0  0  0  0  0  0
  189.1880  175.8580  137.4210 C   0  0  0  0  0  2  0  0  0  0  0  0
  186.6620  178.3290  140.1660 C   0  0  0  0  0  2  0  0  0  0  0  0
  186.0610  178.5730  137.0790 N   0  0  0  0  0  2  0  0  0  0  0  0
  187.5450  173.4840  135.1980 C   0  0  0  0  0  1  0  0  0  0  0  0
  188.1430  178.0210  138.1610 C   0  0  2  0  0  3  0  0  0  0  0  0
  188.0890  175.5810  136.3930 C   0  0  2  0  0  3  0  0  0  0  0  0
  186.2050  177.5110  146.0730 C   0  0  0  0  0  2  0  0  0  0  0  0
  185.4360  178.4930  146.8920 C   0  0  0  0  0  0  0  0  0  0  0  0
  184.1790  178.4310  146.9340 O   0  0  0  0  0  0  0  0  0  0  0  0
  186.1080  179.4540  147.6350 O   0  0  0  0  0  1  0  0  0  0  0  0
  1 20  1  0  0  0  0
  2 24  1  1  0  0  0
  2 12  1  0  0  0  0
  3 11  1  0  0  0  0
  4  3  1  0  0  0  0
  6  5  1  1  0  0  0
  6 18  1  0  0  0  0
  7 24  1  6  0  0  0
  7 19  1  0  0  0  0
  7 17  1  0  0  0  0
  9 26  1  6  0  0  0
  9 15  1  0  0  0  0
 10 20  1  0  0  0  0
 12  8  1  1  0  0  0
 13 12  1  0  0  0  0
 13 11  1  1  0  0  0
 14 23  1  1  0  0  0
 14 27  1  0  0  0  0
 14 22  1  0  0  0  0
 15 18  1  0  0  0  0
 16  1  1  0  0  0  0
 17  8  1  6  0  0  0
 17 10  1  0  0  0  0
 19 16  1  0  0  0  0
 20 29  1  1  0  0  0
 21  4  1  0  0  0  0
 22 21  1  6  0  0  0
 22 13  1  0  0  0  0
 25  5  2  0  0  0  0
 27  5  1  6  0  0  0
 27  2  1  0  0  0  0
 28  9  1  0  0  0  0
 28  6  1  0  0  0  0
 28 23  1  1  0  0  0
 29 30  1  0  0  0  0
 30 31  2  0  0  0  0
 30 32  1  0  0  0  0
M  END
>  <MODEL>
4

>  <REMARK>
 VINA RESULT:      -6.6      2.600      3.612
  Name = 
  2 active torsions:
  status: ('A' for Active; 'I' for Inactive)
    1  A    between atoms: C_20  and  C_29
    2  A    between atoms: C_29  and  C_30
                            x       y       z     vdW  Elec       q    Type
                         _______ _______ _______ _____ _____    ______ ____

>  <TORSDO>
F 2

$$$$
=
 OpenBabel11122410393D

 32 37  0  0  1  0  0  0  0  0999 V2000
  184.7670  179.9450  144.4730 C   0  0  0  0  0  2  0  0  0  0  0  0
  182.2950  177.8060  140.0100 C   0  0  1  0  0  3  0  0  0  0  0  0
  185.7210  177.6520  136.4010 C   0  0  0  0  0  2  0  0  0  0  0  0
  184.7720  176.6740  135.8750 N   0  0  0  0  0  2  0  0  0  0  0  0
  179.8640  177.6780  139.3270 C   0  0  0  0  0  0  0  0  0  0  0  0
  179.4250  176.2470  139.1690 C   0  0  2  0  0  3  0  0  0  0  0  0
  182.9070  178.2040  142.4130 C   0  0  1  0  0  3  0  0  0  0  0  0
  184.5840  177.7050  140.6210 C   0  0  0  0  0  2  0  0  0  0  0  0
  180.0260  174.1010  138.4610 C   0  0  1  0  0  3  0  0  0  0  0  0
  185.4200  177.9940  142.9430 C   0  0  0  0  0  2  0  0  0  0  0  0
  185.4490  177.9450  137.8820 C   0  0  0  0  0  2  0  0  0  0  0  0
  183.6610  178.1930  139.5890 N   0  0  1  0  0  0  0  0  0  0  0  0
  184.0320  177.5290  138.3270 C   0  0  1  0  0  3  0  0  0  0  0  0
  181.6160  177.4490  137.5950 C   0  0  1  0  0  3  0  0  0  0  0  0
  179.7750  174.1100  139.9020 N   0  0  0  0  0  2  0  0  0  0  0  0
  183.3750  180.2460  143.8940 C   0  0  0  0  0  2  0  0  0  0  0  0
  184.3550  178.4380  141.9370 C   0  0  2  0  0  3  0  0  0  0  0  0
  179.7640  175.4520  140.3340 N   0  0  0  0  0  2  0  0  0  0  0  0
  182.5210  178.9920  143.6750 C   0  0  0  0  0  2  0  0  0  0  0  0
  185.1880  178.4740  144.3830 C   0  0  1  0  0  3  0  0  0  0  0  0
  183.4410  177.2850  135.8410 C   0  0  0  0  0  2  0  0  0  0  0  0
  183.0310  177.8640  137.2090 C   0  0  2  0  0  3  0  0  0  0  0  0
  181.4740  175.9280  137.7050 C   0  0  0  0  0  2  0  0  0  0  0  0
  181.9320  178.5560  141.2970 C   0  0  0  0  0  2  0  0  0  0  0  0
  179.0910  178.5080  139.9250 N   0  0  0  0  0  2  0  0  0  0  0  0
  178.9310  173.3190  137.7610 C   0  0  0  0  0  1  0  0  0  0  0  0
  181.2470  178.1160  138.9200 C   0  0  2  0  0  3  0  0  0  0  0  0
  180.0230  175.5290  137.9780 C   0  0  2  0  0  3  0  0  0  0  0  0
  186.4370  178.2530  145.2180 C   0  0  0  0  0  2  0  0  0  0  0  0
  186.1170  178.3070  146.6740 C   0  0  0  0  0  0  0  0  0  0  0  0
  187.0460  178.3130  147.5230 O   0  0  0  0  0  1  0  0  0  0  0  0
  184.7960  178.3860  147.0920 O   0  0  0  0  0  0  0  0  0  0  0  0
  2 24  1  1  0  0  0
  3 11  1  0  0  0  0
  4  3  1  0  0  0  0
  5 25  2  0  0  0  0
  6  5  1  1  0  0  0
  6 18  1  0  0  0  0
  7 24  1  6  0  0  0
  7 19  1  0  0  0  0
  9 26  1  6  0  0  0
  9 15  1  0  0  0  0
 10 20  1  0  0  0  0
 12  2  1  0  0  0  0
 12  8  1  1  0  0  0
 13 11  1  6  0  0  0
 13 12  1  0  0  0  0
 14 23  1  1  0  0  0
 14 27  1  0  0  0  0
 15 18  1  0  0  0  0
 16  1  1  0  0  0  0
 17  8  1  6  0  0  0
 17  7  1  0  0  0  0
 17 10  1  0  0  0  0
 19 16  1  0  0  0  0
 20  1  1  0  0  0  0
 20 29  1  1  0  0  0
 21  4  1  0  0  0  0
 22 21  1  6  0  0  0
 22 14  1  0  0  0  0
 22 13  1  0  0  0  0
 27  5  1  1  0  0  0
 27  2  1  0  0  0  0
 28 23  1  1  0  0  0
 28  9  1  0  0  0  0
 28  6  1  0  0  0  0
 29 30  1  0  0  0  0
 30 32  2  0  0  0  0
 30 31  1  0  0  0  0
M  END
>  <MODEL>
5

>  <REMARK>
 VINA RESULT:      -6.6      2.236      3.209
  Name = 
  2 active torsions:
  status: ('A' for Active; 'I' for Inactive)
    1  A    between atoms: C_20  and  C_29
    2  A    between atoms: C_29  and  C_30
                            x       y       z     vdW  Elec       q    Type
                         _______ _______ _______ _____ _____    ______ ____

>  <TORSDO>
F 2

$$$$
=
 OpenBabel11122410393D

 32 37  0  0  1  0  0  0  0  0999 V2000
  181.4610  179.9800  139.9160 C   0  0  0  0  0  2  0  0  0  0  0  0
  186.3470  177.9370  138.3170 C   0  0  1  0  0  3  0  0  0  0  0  0
  189.4400  178.4020  142.1910 C   0  0  0  0  0  2  0  0  0  0  0  0
  190.1520  177.3740  141.4350 N   0  0  0  0  0  2  0  0  0  0  0  0
  187.3720  177.6130  136.0290 C   0  0  0  0  0  0  0  0  0  0  0  0
  187.6750  176.1600  135.7760 C   0  0  2  0  0  3  0  0  0  0  0  0
  183.8620  178.2160  138.5540 C   0  0  1  0  0  3  0  0  0  0  0  0
  185.4270  178.0250  140.5000 C   0  0  0  0  0  2  0  0  0  0  0  0
  188.4190  174.1460  136.7020 C   0  0  1  0  0  3  0  0  0  0  0  0
  182.9970  178.2250  140.9810 C   0  0  0  0  0  2  0  0  0  0  0  0
  187.9970  178.5550  141.6920 C   0  0  0  0  0  2  0  0  0  0  0  0
  186.5470  178.4910  139.6750 N   0  0  1  0  0  0  0  0  0  0  0  0
  187.7820  177.9650  140.2830 C   0  0  1  0  0  3  0  0  0  0  0  0
  188.8510  177.6930  138.0110 C   0  0  1  0  0  3  0  0  0  0  0  0
  187.0290  174.0210  136.2610 N   0  0  0  0  0  2  0  0  0  0  0  0
  182.2120  180.1790  138.5890 C   0  0  0  0  0  2  0  0  0  0  0  0
  184.1150  178.6310  140.0170 C   0  0  2  0  0  3  0  0  0  0  0  0
  186.5240  175.3200  136.0430 N   0  0  0  0  0  2  0  0  0  0  0  0
  182.6230  178.8650  137.9170 C   0  0  0  0  0  2  0  0  0  0  0  0
  181.5790  178.5710  140.5060 C   0  0  1  0  0  3  0  0  0  0  0  0
  190.3360  177.8470  140.0610 C   0  0  0  0  0  2  0  0  0  0  0  0
  189.0080  178.2780  139.4090 C   0  0  2  0  0  3  0  0  0  0  0  0
  188.8530  176.1620  138.0260 C   0  0  0  0  0  2  0  0  0  0  0  0
  185.0820  178.5490  137.7030 C   0  0  0  0  0  2  0  0  0  0  0  0
  186.8410  178.3130  135.0950 N   0  0  0  0  0  2  0  0  0  0  0  0
  189.3110  173.3100  135.8040 C   0  0  0  0  0  1  0  0  0  0  0  0
  187.5530  178.2190  137.3960 C   0  0  2  0  0  3  0  0  0  0  0  0
  188.8110  175.5970  136.6040 C   0  0  2  0  0  3  0  0  0  0  0  0
  180.5900  178.4160  141.6490 C   0  0  0  0  0  2  0  0  0  0  0  0
  180.9100  179.3620  142.7570 C   0  0  0  0  0  0  0  0  0  0  0  0
  180.3210  180.4730  142.8270 O   0  0  0  0  0  0  0  0  0  0  0  0
  181.8320  179.0050  143.7300 O   0  0  0  0  0  1  0  0  0  0  0  0
  1 20  1  0  0  0  0
  2 24  1  6  0  0  0
  2 12  1  0  0  0  0
  4  3  1  0  0  0  0
  6  5  1  1  0  0  0
  6 18  1  0  0  0  0
  6 28  1  0  0  0  0
  7 24  1  6  0  0  0
  7 17  1  0  0  0  0
  9 26  1  6  0  0  0
 11  3  1  0  0  0  0
 12 13  1  0  0  0  0
 12  8  1  1  0  0  0
 13 11  1  1  0  0  0
 14 23  1  1  0  0  0
 14 22  1  0  0  0  0
 15  9  1  0  0  0  0
 16  1  1  0  0  0  0
 17  8  1  1  0  0  0
 17 10  1  0  0  0  0
 18 15  1  0  0  0  0
 19  7  1  0  0  0  0
 19 16  1  0  0  0  0
 20 10  1  0  0  0  0
 20 29  1  1  0  0  0
 21  4  1  0  0  0  0
 22 21  1  1  0  0  0
 22 13  1  0  0  0  0
 25  5  2  0  0  0  0
 27  5  1  6  0  0  0
 27 14  1  0  0  0  0
 27  2  1  0  0  0  0
 28  9  1  0  0  0  0
 28 23  1  1  0  0  0
 29 30  1  0  0  0  0
 30 31  2  0  0  0  0
 30 32  1  0  0  0  0
M  END
>  <MODEL>
6

>  <REMARK>
 VINA RESULT:      -6.4      3.491      5.545
  Name = 
  2 active torsions:
  status: ('A' for Active; 'I' for Inactive)
    1  A    between atoms: C_20  and  C_29
    2  A    between atoms: C_29  and  C_30
                            x       y       z     vdW  Elec       q    Type
                         _______ _______ _______ _____ _____    ______ ____

>  <TORSDO>
F 2

$$$$
=
 OpenBabel11122410393D

 32 37  0  0  1  0  0  0  0  0999 V2000
  193.8090  173.2610  135.2420 C   0  0  0  0  0  2  0  0  0  0  0  0
  190.6820  176.3280  138.6220 C   0  0  1  0  0  3  0  0  0  0  0  0
  186.4510  177.2970  136.1840 C   0  0  0  0  0  2  0  0  0  0  0  0
  186.0040  177.5460  137.5530 N   0  0  0  0  0  2  0  0  0  0  0  0
  191.2720  177.8080  140.5850 C   0  0  0  0  0  0  0  0  0  0  0  0
  190.6040  177.3220  141.8440 C   0  0  2  0  0  3  0  0  0  0  0  0
  192.3010  174.5750  137.8380 C   0  0  1  0  0  3  0  0  0  0  0  0
  189.9860  174.8350  136.9170 C   0  0  0  0  0  2  0  0  0  0  0  0
  188.6810  176.3760  142.7770 C   0  0  1  0  0  3  0  0  0  0  0  0
  191.3860  172.9810  136.0320 C   0  0  0  0  0  2  0  0  0  0  0  0
  187.7780  176.5290  136.1680 C   0  0  0  0  0  2  0  0  0  0  0  0
  189.9510  176.2400  137.3380 N   0  0  1  0  0  0  0  0  0  0  0  0
  188.5340  176.6060  137.5100 C   0  0  1  0  0  3  0  0  0  0  0  0
  189.1080  178.1410  139.4320 C   0  0  1  0  0  3  0  0  0  0  0  0
  189.8190  175.4690  142.9280 N   0  0  0  0  0  2  0  0  0  0  0  0
  194.2130  174.4490  136.1320 C   0  0  0  0  0  2  0  0  0  0  0  0
  191.4120  174.4070  136.5890 C   0  0  2  0  0  3  0  0  0  0  0  0
  190.8430  175.9100  142.0650 N   0  0  0  0  0  2  0  0  0  0  0  0
  193.7920  174.2860  137.5960 C   0  0  0  0  0  2  0  0  0  0  0  0
  192.7650  172.3280  135.8660 C   0  0  1  0  0  3  0  0  0  0  0  0
  186.9290  178.4920  138.1820 C   0  0  0  0  0  2  0  0  0  0  0  0
  188.3940  178.0220  138.0910 C   0  0  2  0  0  3  0  0  0  0  0  0
  188.4420  177.2850  140.5140 C   0  0  0  0  0  2  0  0  0  0  0  0
  192.1590  175.9900  138.3870 C   0  0  0  0  0  2  0  0  0  0  0  0
  192.4970  178.1820  140.6300 N   0  0  0  0  0  2  0  0  0  0  0  0
  188.2840  176.9210  144.1360 C   0  0  0  0  0  1  0  0  0  0  0  0
  190.5700  177.7320  139.2540 C   0  0  2  0  0  3  0  0  0  0  0  0
  189.1020  177.5080  141.8760 C   0  0  2  0  0  3  0  0  0  0  0  0
  192.6510  171.0650  135.0290 C   0  0  0  0  0  2  0  0  0  0  0  0
  193.6790  170.0650  135.4380 C   0  0  0  0  0  0  0  0  0  0  0  0
  194.5120  169.6380  134.5960 O   0  0  0  0  0  0  0  0  0  0  0  0
  193.7390  169.6290  136.7540 O   0  0  0  0  0  1  0  0  0  0  0  0
  1 20  1  0  0  0  0
  1 16  1  0  0  0  0
  2 24  1  6  0  0  0
  2 27  1  0  0  0  0
  3  4  1  0  0  0  0
  4 21  1  0  0  0  0
  5 25  2  0  0  0  0
  6  5  1  6  0  0  0
  6 28  1  0  0  0  0
  6 18  1  0  0  0  0
  7 19  1  6  0  0  0
  7 24  1  0  0  0  0
  9 15  1  0  0  0  0
  9 26  1  1  0  0  0
 11  3  1  0  0  0  0
 12  8  1  1  0  0  0
 12 13  1  0  0  0  0
 12  2  1  0  0  0  0
 13 11  1  6  0  0  0
 13 22  1  0  0  0  0
 14 23  1  1  0  0  0
 16 19  1  0  0  0  0
 17 10  1  1  0  0  0
 17  8  1  0  0  0  0
 17  7  1  0  0  0  0
 18 15  1  0  0  0  0
 20 29  1  6  0  0  0
 20 10  1  0  0  0  0
 22 21  1  1  0  0  0
 22 14  1  0  0  0  0
 27 14  1  0  0  0  0
 27  5  1  1  0  0  0
 28 23  1  6  0  0  0
 28  9  1  0  0  0  0
 29 30  1  0  0  0  0
 30 32  1  0  0  0  0
 31 30  2  0  0  0  0
M  END
>  <MODEL>
7

>  <REMARK>
 VINA RESULT:      -6.3      5.627      9.397
  Name = 
  2 active torsions:
  status: ('A' for Active; 'I' for Inactive)
    1  A    between atoms: C_20  and  C_29
    2  A    between atoms: C_29  and  C_30
                            x       y       z     vdW  Elec       q    Type
                         _______ _______ _______ _____ _____    ______ ____

>  <TORSDO>
F 2

$$$$
=
 OpenBabel11122410393D

 32 37  0  0  1  0  0  0  0  0999 V2000
  187.5660  176.9620  145.0270 C   0  0  0  0  0  2  0  0  0  0  0  0
  183.4770  178.4700  141.6190 C   0  0  1  0  0  3  0  0  0  0  0  0
  179.3400  178.7600  144.3740 C   0  0  0  0  0  2  0  0  0  0  0  0
  178.9310  179.5800  143.2370 N   0  0  0  0  0  2  0  0  0  0  0  0
  183.2070  178.2650  139.1140 C   0  0  0  0  0  0  0  0  0  0  0  0
  183.0510  179.6190  138.4770 C   0  0  2  0  0  3  0  0  0  0  0  0
  185.7600  178.3210  142.6550 C   0  0  1  0  0  3  0  0  0  0  0  0
  183.6880  178.8810  143.9450 C   0  0  0  0  0  2  0  0  0  0  0  0
  182.1400  181.7630  138.6800 C   0  0  1  0  0  3  0  0  0  0  0  0
  185.8480  178.8600  145.1730 C   0  0  0  0  0  2  0  0  0  0  0  0
  180.8590  178.5450  144.3830 C   0  0  0  0  0  2  0  0  0  0  0  0
  182.8530  178.2150  142.9380 N   0  0  1  0  0  0  0  0  0  0  0  0
  181.5130  178.8250  143.0140 C   0  0  1  0  0  3  0  0  0  0  0  0
  181.1950  178.5690  140.5220 C   0  0  1  0  0  3  0  0  0  0  0  0
  183.6010  181.8300  138.6670 N   0  0  0  0  0  2  0  0  0  0  0  0
  187.2460  176.4600  143.6090 C   0  0  0  0  0  2  0  0  0  0  0  0
  185.0600  178.2230  144.0250 C   0  0  2  0  0  3  0  0  0  0  0  0
  184.0980  180.5310  138.8950 N   0  0  0  0  0  2  0  0  0  0  0  0
  187.1090  177.5860  142.5790 C   0  0  0  0  0  2  0  0  0  0  0  0
  187.3290  178.4610  145.2370 C   0  0  1  0  0  3  0  0  0  0  0  0
  179.1530  178.8170  142.0060 C   0  0  0  0  0  2  0  0  0  0  0  0
  180.5990  178.2950  141.8970 C   0  0  2  0  0  3  0  0  0  0  0  0
  181.2480  180.0680  140.2080 C   0  0  0  0  0  2  0  0  0  0  0  0
  184.8440  177.7780  141.5650 C   0  0  0  0  0  2  0  0  0  0  0  0
  183.9690  177.3960  138.5590 N   0  0  0  0  0  2  0  0  0  0  0  0
  181.5940  182.3600  137.3970 C   0  0  0  0  0  1  0  0  0  0  0  0
  182.5970  177.9620  140.4580 C   0  0  2  0  0  3  0  0  0  0  0  0
  181.7400  180.3140  138.7810 C   0  0  2  0  0  3  0  0  0  0  0  0
  187.9300  178.8870  146.5670 C   0  0  0  0  0  2  0  0  0  0  0  0
  188.7170  177.7740  147.1720 C   0  0  0  0  0  0  0  0  0  0  0  0
  188.2100  177.0670  148.0830 O   0  0  0  0  0  1  0  0  0  0  0  0
  189.9950  177.4940  146.7100 O   0  0  0  0  0  0  0  0  0  0  0  0
  1 20  1  0  0  0  0
  2 24  1  1  0  0  0
  2 12  1  0  0  0  0
  3 11  1  0  0  0  0
  4  3  1  0  0  0  0
  6 28  1  0  0  0  0
  6 18  1  1  0  0  0
  6  5  1  0  0  0  0
  7 24  1  6  0  0  0
  7 17  1  0  0  0  0
  9 26  1  6  0  0  0
  9 28  1  0  0  0  0
 10 20  1  0  0  0  0
 12 13  1  0  0  0  0
 12  8  1  1  0  0  0
 13 11  1  1  0  0  0
 14 23  1  1  0  0  0
 14 22  1  0  0  0  0
 15  9  1  0  0  0  0
 15 18  1  0  0  0  0
 16  1  1  0  0  0  0
 17  8  1  6  0  0  0
 17 10  1  0  0  0  0
 19  7  1  0  0  0  0
 19 16  1  0  0  0  0
 20 29  1  1  0  0  0
 21  4  1  0  0  0  0
 22 21  1  6  0  0  0
 22 13  1  0  0  0  0
 25  5  2  0  0  0  0
 27  5  1  6  0  0  0
 27 14  1  0  0  0  0
 27  2  1  0  0  0  0
 28 23  1  1  0  0  0
 29 30  1  0  0  0  0
 30 31  1  0  0  0  0
 32 30  2  0  0  0  0
M  END
>  <MODEL>
8

>  <REMARK>
 VINA RESULT:      -6.2      2.548      5.332
  Name = 
  2 active torsions:
  status: ('A' for Active; 'I' for Inactive)
    1  A    between atoms: C_20  and  C_29
    2  A    between atoms: C_29  and  C_30
                            x       y       z     vdW  Elec       q    Type
                         _______ _______ _______ _____ _____    ______ ____

>  <TORSDO>
F 2

$$$$
=
 OpenBabel11122410393D

 32 37  0  0  1  0  0  0  0  0999 V2000
  186.9260  175.8650  136.3660 C   0  0  0  0  0  2  0  0  0  0  0  0
  182.5410  178.4590  138.5220 C   0  0  1  0  0  3  0  0  0  0  0  0
  183.2470  178.6280  143.4480 C   0  0  0  0  0  2  0  0  0  0  0  0
  182.2640  179.7000  143.3080 N   0  0  0  0  0  2  0  0  0  0  0  0
  180.1870  178.7930  137.6610 C   0  0  0  0  0  0  0  0  0  0  0  0
  179.8730  180.2570  137.5110 C   0  0  2  0  0  3  0  0  0  0  0  0
  184.3890  177.8610  136.9300 C   0  0  1  0  0  3  0  0  0  0  0  0
  184.7590  178.3670  139.3560 C   0  0  0  0  0  2  0  0  0  0  0  0
  180.1500  182.4010  138.4020 C   0  0  1  0  0  3  0  0  0  0  0  0
  186.7520  177.8680  137.9580 C   0  0  0  0  0  2  0  0  0  0  0  0
  183.8550  178.2550  142.0900 C   0  0  0  0  0  2  0  0  0  0  0  0
  183.3690  178.0120  139.6650 N   0  0  1  0  0  0  0  0  0  0  0  0
  183.0020  178.7330  140.8970 C   0  0  1  0  0  3  0  0  0  0  0  0
  180.6280  179.0210  140.0860 C   0  0  1  0  0  3  0  0  0  0  0  0
  180.7790  182.3120  137.0840 N   0  0  0  0  0  2  0  0  0  0  0  0
  185.4340  175.6970  136.0320 C   0  0  0  0  0  2  0  0  0  0  0  0
  185.2660  177.5640  138.1640 C   0  0  2  0  0  3  0  0  0  0  0  0
  180.8940  180.9480  136.7480 N   0  0  0  0  0  2  0  0  0  0  0  0
  184.7320  177.0160  135.6930 C   0  0  0  0  0  2  0  0  0  0  0  0
  187.3510  177.3080  136.6600 C   0  0  1  0  0  3  0  0  0  0  0  0
  181.1090  179.1820  142.5700 C   0  0  0  0  0  2  0  0  0  0  0  0
  181.5130  178.5410  141.2290 C   0  0  2  0  0  3  0  0  0  0  0  0
  180.7170  180.5380  139.8890 C   0  0  0  0  0  2  0  0  0  0  0  0
  182.9200  177.6490  137.2770 C   0  0  0  0  0  2  0  0  0  0  0  0
  179.8290  177.9780  136.7390 N   0  0  0  0  0  2  0  0  0  0  0  0
  178.9310  183.3000  138.3210 C   0  0  0  0  0  1  0  0  0  0  0  0
  181.0320  178.2930  138.8040 C   0  0  2  0  0  3  0  0  0  0  0  0
  179.7360  181.0130  138.8160 C   0  0  2  0  0  3  0  0  0  0  0  0
  188.8680  177.3900  136.7040 C   0  0  0  0  0  2  0  0  0  0  0  0
  189.3160  178.3640  137.7400 C   0  0  0  0  0  0  0  0  0  0  0  0
  189.9640  177.9640  138.7420 O   0  0  0  0  0  1  0  0  0  0  0  0
  189.0470  179.7170  137.5840 O   0  0  0  0  0  0  0  0  0  0  0  0
  1 20  1  0  0  0  0
  2 24  1  6  0  0  0
  2 27  1  0  0  0  0
  2 12  1  0  0  0  0
  4  3  1  0  0  0  0
  6 18  1  6  0  0  0
  6  5  1  0  0  0  0
  6 28  1  0  0  0  0
  7 19  1  6  0  0  0
  7 24  1  0  0  0  0
  7 17  1  0  0  0  0
  9 26  1  6  0  0  0
  9 28  1  0  0  0  0
 11  3  1  0  0  0  0
 12  8  1  6  0  0  0
 12 13  1  0  0  0  0
 13 22  1  0  0  0  0
 13 11  1  1  0  0  0
 14 23  1  6  0  0  0
 14 22  1  0  0  0  0
 15  9  1  0  0  0  0
 16  1  1  0  0  0  0
 17 10  1  6  0  0  0
 17  8  1  0  0  0  0
 18 15  1  0  0  0  0
 19 16  1  0  0  0  0
 20 29  1  1  0  0  0
 20 10  1  0  0  0  0
 21  4  1  0  0  0  0
 22 21  1  1  0  0  0
 25  5  2  0  0  0  0
 27  5  1  6  0  0  0
 27 14  1  0  0  0  0
 28 23  1  1  0  0  0
 29 30  1  0  0  0  0
 30 31  1  0  0  0  0
 32 30  2  0  0  0  0
M  END
>  <MODEL>
9

>  <REMARK>
 VINA RESULT:      -6.2      3.426      6.971
  Name = 
  2 active torsions:
  status: ('A' for Active; 'I' for Inactive)
    1  A    between atoms: C_20  and  C_29
    2  A    between atoms: C_29  and  C_30
                            x       y       z     vdW  Elec       q    Type
                         _______ _______ _______ _____ _____    ______ ____

>  <TORSDO>
F 2

$$$$
