=
 OpenBabel11122411243D

 37 43  0  0  1  0  0  0  0  0999 V2000
  186.8930  177.5310  139.1340 C   0  0  0  0  0  2  0  0  0  0  0  0
  182.7890  176.3780  136.3890 C   0  0  0  0  0  0  0  0  0  0  0  0
  186.3780  174.2310  136.7190 C   0  0  0  0  0  0  0  0  0  0  0  0
  187.5330  178.6630  139.9370 C   0  0  2  0  0  3  0  0  0  0  0  0
  189.1820  176.2530  135.8780 O   0  0  0  0  0  0  0  0  0  0  0  0
  184.0440  174.1650  136.1480 C   0  0  0  0  0  0  0  0  0  0  0  0
  187.3610  175.2740  137.1750 C   0  0  1  0  0  3  0  0  0  0  0  0
  189.7280  177.6520  138.9430 C   0  0  2  0  0  3  0  0  0  0  0  0
  185.1690  174.8450  136.5790 C   0  0  0  0  0  0  0  0  0  0  0  0
  188.8290  175.1870  136.7170 C   0  0  1  0  0  3  0  0  0  0  0  0
  184.1520  172.8310  135.8890 N   0  0  0  0  0  0  0  0  0  0  0  0
  189.0720  178.6410  139.9200 C   0  0  0  0  0  2  0  0  0  0  0  0
  185.2240  176.2420  136.7400 N   0  0  0  0  0  0  0  0  0  0  0  0
  182.4170  176.3450  137.8620 C   0  0  0  0  0  1  0  0  0  0  0  0
  187.8210  172.1350  136.3980 C   0  0  0  0  0  2  0  0  0  0  0  0
  185.3450  172.1710  136.0330 C   0  0  0  0  0  3  0  0  0  0  0  0
  184.1500  177.0820  136.2140 C   0  0  0  0  0  2  0  0  0  0  0  0
  189.5150  177.9810  137.5210 N   0  0  1  0  0  0  0  0  0  0  0  0
  190.1250  177.0020  136.6030 C   0  0  0  0  0  2  0  0  0  0  0  0
  186.5030  172.8550  136.4540 C   0  0  0  0  0  0  0  0  0  0  0  0
  186.6420  176.5810  136.7660 C   0  0  1  0  0  3  0  0  0  0  0  0
  182.7930  174.9380  135.8220 C   0  0  0  0  0  2  0  0  0  0  0  0
  189.2620  173.8250  136.1760 C   0  0  2  0  0  3  0  0  0  0  0  0
  181.7360  177.1800  135.6530 C   0  0  0  0  0  1  0  0  0  0  0  0
  188.2110  178.5380  137.1130 C   0  0  0  0  0  2  0  0  0  0  0  0
  189.4000  176.3410  139.2470 F   0  0  0  0  0  0  0  0  0  0  0  0
  186.9610  177.7960  137.6270 C   0  0  2  0  0  3  0  0  0  0  0  0
  188.8400  172.8270  137.0650 O   0  0  0  0  0  0  0  0  0  0  0  0
  191.3140  173.5260  134.7360 C   0  0  0  0  0  3  0  0  0  0  0  0
  190.7470  173.7580  135.9980 C   0  0  0  0  0  0  0  0  0  0  0  0
  191.5770  173.9020  137.1150 C   0  0  0  0  0  3  0  0  0  0  0  0
  193.7670  173.9640  138.0550 F   0  0  0  0  0  0  0  0  0  0  0  0
  193.5280  173.5960  135.7120 C   0  0  0  0  0  3  0  0  0  0  0  0
  192.9660  173.8230  136.9720 C   0  0  0  0  0  0  0  0  0  0  0  0
  192.7020  173.4470  134.5940 C   0  0  0  0  0  3  0  0  0  0  0  0
  185.8360  179.3950  141.5230 N   0  0  0  0  0  1  0  0  0  0  0  0
  187.0550  178.6180  141.3770 C   0  0  0  0  0  2  0  0  0  0  0  0
  1  4  1  0  0  0  0
  2 14  1  0  0  0  0
  4 37  1  1  0  0  0
  5 19  1  0  0  0  0
  6  9  2  0  0  0  0
  7  3  1  6  0  0  0
  8 26  1  6  0  0  0
  8 12  1  0  0  0  0
  9  3  1  0  0  0  0
  9 13  1  0  0  0  0
 10  5  1  6  0  0  0
 10  7  1  0  0  0  0
 11 16  2  0  0  0  0
 11  6  1  0  0  0  0
 12  4  1  0  0  0  0
 15 20  1  0  0  0  0
 15 28  1  0  0  0  0
 16 20  1  0  0  0  0
 17  2  1  0  0  0  0
 17 13  1  0  0  0  0
 18 19  1  6  0  0  0
 18  8  1  0  0  0  0
 20  3  2  0  0  0  0
 21 13  1  1  0  0  0
 21  7  1  0  0  0  0
 21 27  1  0  0  0  0
 22  6  1  0  0  0  0
 22  2  1  0  0  0  0
 23 30  1  1  0  0  0
 23 10  1  0  0  0  0
 23 28  1  0  0  0  0
 24  2  1  0  0  0  0
 25 18  1  0  0  0  0
 27 25  1  6  0  0  0
 27  1  1  0  0  0  0
 29 30  1  0  0  0  0
 30 31  2  0  0  0  0
 33 34  2  0  0  0  0
 34 31  1  0  0  0  0
 34 32  1  0  0  0  0
 35 29  2  0  0  0  0
 35 33  1  0  0  0  0
 37 36  1  0  0  0  0
M  END
>  <MODEL>
1

>  <REMARK>
 VINA RESULT:      -5.9      0.000      0.000
  Name = 
  2 active torsions:
  status: ('A' for Active; 'I' for Inactive)
    1  A    between atoms: C_4  and  C_37
    2  A    between atoms: C_23  and  C_30
                            x       y       z     vdW  Elec       q    Type
                         _______ _______ _______ _____ _____    ______ ____

>  <TORSDO>
F 2

$$$$
=
 OpenBabel11122411243D

 37 43  0  0  1  0  0  0  0  0999 V2000
  185.0600  174.1730  136.7960 C   0  0  0  0  0  2  0  0  0  0  0  0
  189.7460  175.9500  136.0280 C   0  0  0  0  0  0  0  0  0  0  0  0
  186.7940  177.4420  138.6100 C   0  0  0  0  0  0  0  0  0  0  0  0
  184.0280  173.1970  136.2310 C   0  0  2  0  0  3  0  0  0  0  0  0
  183.7780  178.1510  136.8610 O   0  0  0  0  0  0  0  0  0  0  0  0
  189.1370  177.3500  138.0770 C   0  0  0  0  0  0  0  0  0  0  0  0
  185.5200  176.8990  138.0250 C   0  0  1  0  0  3  0  0  0  0  0  0
  182.3640  175.0500  137.0240 C   0  0  2  0  0  3  0  0  0  0  0  0
  187.8210  177.0070  137.8240 C   0  0  0  0  0  0  0  0  0  0  0  0
  184.2260  177.7270  138.1190 C   0  0  1  0  0  3  0  0  0  0  0  0
  189.4080  178.1230  139.1670 N   0  0  0  0  0  0  0  0  0  0  0  0
  182.5700  173.6300  136.4700 C   0  0  0  0  0  2  0  0  0  0  0  0
  187.3970  176.3400  136.6590 N   0  0  0  0  0  0  0  0  0  0  0  0
  189.8440  174.5630  136.6400 C   0  0  0  0  0  1  0  0  0  0  0  0
  185.9920  178.9180  140.5480 C   0  0  0  0  0  2  0  0  0  0  0  0
  188.4080  178.5680  139.9920 C   0  0  0  0  0  3  0  0  0  0  0  0
  188.3070  176.1960  135.5270 C   0  0  0  0  0  2  0  0  0  0  0  0
  182.7420  176.1220  136.0850 N   0  0  1  0  0  0  0  0  0  0  0  0
  182.5660  177.4730  136.6480 C   0  0  0  0  0  2  0  0  0  0  0  0
  187.0620  178.2400  139.7370 C   0  0  0  0  0  0  0  0  0  0  0  0
  185.9580  176.5640  136.5780 C   0  0  1  0  0  3  0  0  0  0  0  0
  190.1980  177.0080  137.0640 C   0  0  0  0  0  2  0  0  0  0  0  0
  184.2450  178.8460  139.1610 C   0  0  2  0  0  3  0  0  0  0  0  0
  190.6840  176.0110  134.8400 C   0  0  0  0  0  1  0  0  0  0  0  0
  183.9200  175.9200  135.2200 C   0  0  0  0  0  2  0  0  0  0  0  0
  182.9430  175.2000  138.2730 F   0  0  0  0  0  0  0  0  0  0  0  0
  185.2000  175.4200  135.9180 C   0  0  2  0  0  3  0  0  0  0  0  0
  184.7320  178.3330  140.3720 O   0  0  0  0  0  0  0  0  0  0  0  0
  182.4780  180.5850  138.6850 C   0  0  0  0  0  3  0  0  0  0  0  0
  182.8790  179.4240  139.3630 C   0  0  0  0  0  0  0  0  0  0  0  0
  182.0010  178.8100  140.2630 C   0  0  0  0  0  3  0  0  0  0  0  0
  179.8810  178.7470  141.3500 F   0  0  0  0  0  0  0  0  0  0  0  0
  180.3310  180.5010  139.7990 C   0  0  0  0  0  3  0  0  0  0  0  0
  180.7280  179.3460  140.4800 C   0  0  0  0  0  0  0  0  0  0  0  0
  181.2060  181.1210  138.9030 C   0  0  0  0  0  3  0  0  0  0  0  0
  182.9660  171.1130  136.9090 N   0  0  0  0  0  1  0  0  0  0  0  0
  184.2350  171.8150  136.8230 C   0  0  0  0  0  2  0  0  0  0  0  0
  2 14  1  0  0  0  0
  2 22  1  0  0  0  0
  3 20  1  0  0  0  0
  4 12  1  0  0  0  0
  4  1  1  0  0  0  0
  4 37  1  1  0  0  0
  6 11  2  0  0  0  0
  7 10  1  0  0  0  0
  7  3  1  6  0  0  0
  8 26  1  1  0  0  0
  9  6  1  0  0  0  0
  9  3  2  0  0  0  0
 10  5  1  6  0  0  0
 10 23  1  0  0  0  0
 11 16  1  0  0  0  0
 12  8  1  0  0  0  0
 13  9  1  0  0  0  0
 17  2  1  0  0  0  0
 17 13  1  0  0  0  0
 18 25  1  1  0  0  0
 18 19  1  0  0  0  0
 18  8  1  0  0  0  0
 19  5  1  0  0  0  0
 20 16  2  0  0  0  0
 20 15  1  0  0  0  0
 21 13  1  1  0  0  0
 21  7  1  0  0  0  0
 22  6  1  0  0  0  0
 23 30  1  1  0  0  0
 23 28  1  0  0  0  0
 24  2  1  0  0  0  0
 27 25  1  1  0  0  0
 27 21  1  0  0  0  0
 27  1  1  0  0  0  0
 28 15  1  0  0  0  0
 29 35  2  0  0  0  0
 29 30  1  0  0  0  0
 30 31  2  0  0  0  0
 31 34  1  0  0  0  0
 33 34  2  0  0  0  0
 34 32  1  0  0  0  0
 35 33  1  0  0  0  0
 37 36  1  0  0  0  0
M  END
>  <MODEL>
2

>  <REMARK>
 VINA RESULT:      -5.7      3.280      8.378
  Name = 
  2 active torsions:
  status: ('A' for Active; 'I' for Inactive)
    1  A    between atoms: C_4  and  C_37
    2  A    between atoms: C_23  and  C_30
                            x       y       z     vdW  Elec       q    Type
                         _______ _______ _______ _____ _____    ______ ____

>  <TORSDO>
F 2

$$$$
=
 OpenBabel11122411243D

 37 43  0  0  1  0  0  0  0  0999 V2000
  184.0150  174.8920  136.4450 C   0  0  0  0  0  2  0  0  0  0  0  0
  188.5410  177.1250  135.9600 C   0  0  0  0  0  0  0  0  0  0  0  0
  185.5700  177.8740  138.8270 C   0  0  0  0  0  0  0  0  0  0  0  0
  183.0370  173.9680  135.7200 C   0  0  2  0  0  3  0  0  0  0  0  0
  182.4620  178.6780  137.2950 O   0  0  0  0  0  0  0  0  0  0  0  0
  187.8970  178.0590  138.2500 C   0  0  0  0  0  0  0  0  0  0  0  0
  184.3200  177.3590  138.1690 C   0  0  1  0  0  3  0  0  0  0  0  0
  181.2720  175.5060  136.8800 C   0  0  2  0  0  3  0  0  0  0  0  0
  186.6010  177.6740  137.9560 C   0  0  0  0  0  0  0  0  0  0  0  0
  182.9750  178.0560  138.4420 C   0  0  1  0  0  3  0  0  0  0  0  0
  188.1450  178.6270  139.4640 N   0  0  0  0  0  0  0  0  0  0  0  0
  181.5610  174.2380  136.0600 C   0  0  0  0  0  2  0  0  0  0  0  0
  186.1900  177.2120  136.6920 N   0  0  0  0  0  0  0  0  0  0  0  0
  188.7530  175.6580  136.2920 C   0  0  0  0  0  1  0  0  0  0  0  0
  184.7250  178.8890  141.0250 C   0  0  0  0  0  2  0  0  0  0  0  0
  187.1420  178.8310  140.3750 C   0  0  0  0  0  3  0  0  0  0  0  0
  187.0740  177.3550  135.5390 C   0  0  0  0  0  2  0  0  0  0  0  0
  181.5460  176.7640  136.1590 N   0  0  1  0  0  0  0  0  0  0  0  0
  181.2930  177.9660  136.9750 C   0  0  0  0  0  2  0  0  0  0  0  0
  185.8150  178.4590  140.0830 C   0  0  0  0  0  0  0  0  0  0  0  0
  184.7370  177.3400  136.6780 C   0  0  1  0  0  3  0  0  0  0  0  0
  188.9480  177.9960  137.1730 C   0  0  0  0  0  2  0  0  0  0  0  0
  182.9470  178.9530  139.6790 C   0  0  2  0  0  3  0  0  0  0  0  0
  189.4370  177.4810  134.7920 C   0  0  0  0  0  1  0  0  0  0  0  0
  182.7100  176.8180  135.2540 C   0  0  0  0  0  2  0  0  0  0  0  0
  181.8770  175.4580  138.1260 F   0  0  0  0  0  0  0  0  0  0  0  0
  184.0420  176.2900  135.8220 C   0  0  2  0  0  3  0  0  0  0  0  0
  183.5040  178.2560  140.7600 O   0  0  0  0  0  0  0  0  0  0  0  0
  180.6770  178.5240  140.6980 C   0  0  0  0  0  3  0  0  0  0  0  0
  181.5500  179.3800  140.0100 C   0  0  0  0  0  0  0  0  0  0  0  0
  181.1050  180.6410  139.6020 C   0  0  0  0  0  3  0  0  0  0  0  0
  179.3700  182.2730  139.4880 F   0  0  0  0  0  0  0  0  0  0  0  0
  178.9310  180.1960  140.5730 C   0  0  0  0  0  3  0  0  0  0  0  0
  179.7970  181.0500  139.8840 C   0  0  0  0  0  0  0  0  0  0  0  0
  179.3710  178.9320  140.9790 C   0  0  0  0  0  3  0  0  0  0  0  0
  184.2070  172.4350  137.2070 N   0  0  0  0  0  1  0  0  0  0  0  0
  183.3580  172.5180  136.0310 C   0  0  0  0  0  2  0  0  0  0  0  0
  2 14  1  0  0  0  0
  2 22  1  0  0  0  0
  3 20  1  0  0  0  0
  4 37  1  1  0  0  0
  4 12  1  0  0  0  0
  4  1  1  0  0  0  0
  6 11  2  0  0  0  0
  7 10  1  0  0  0  0
  7  3  1  1  0  0  0
  8 26  1  1  0  0  0
  9  6  1  0  0  0  0
  9  3  2  0  0  0  0
 10  5  1  6  0  0  0
 10 23  1  0  0  0  0
 11 16  1  0  0  0  0
 12  8  1  0  0  0  0
 13  9  1  0  0  0  0
 17  2  1  0  0  0  0
 17 13  1  0  0  0  0
 18 25  1  1  0  0  0
 18  8  1  0  0  0  0
 18 19  1  0  0  0  0
 19  5  1  0  0  0  0
 20 16  2  0  0  0  0
 20 15  1  0  0  0  0
 21 13  1  1  0  0  0
 21  7  1  0  0  0  0
 22  6  1  0  0  0  0
 23 30  1  1  0  0  0
 23 28  1  0  0  0  0
 24  2  1  0  0  0  0
 27 25  1  1  0  0  0
 27  1  1  0  0  0  0
 27 21  1  0  0  0  0
 28 15  1  0  0  0  0
 29 35  1  0  0  0  0
 30 29  2  0  0  0  0
 31 34  2  0  0  0  0
 31 30  1  0  0  0  0
 32 34  1  0  0  0  0
 33 35  2  0  0  0  0
 34 33  1  0  0  0  0
 37 36  1  0  0  0  0
M  END
>  <MODEL>
3

>  <REMARK>
 VINA RESULT:      -5.7      3.800      8.923
  Name = 
  2 active torsions:
  status: ('A' for Active; 'I' for Inactive)
    1  A    between atoms: C_4  and  C_37
    2  A    between atoms: C_23  and  C_30
                            x       y       z     vdW  Elec       q    Type
                         _______ _______ _______ _____ _____    ______ ____

>  <TORSDO>
F 2

$$$$
=
 OpenBabel11122411243D

 37 43  0  0  1  0  0  0  0  0999 V2000
  189.1930  173.8080  135.8980 C   0  0  0  0  0  2  0  0  0  0  0  0
  193.8610  175.7790  135.7060 C   0  0  0  0  0  0  0  0  0  0  0  0
  190.8240  176.5650  138.4920 C   0  0  0  0  0  0  0  0  0  0  0  0
  188.1930  172.9840  135.0880 C   0  0  2  0  0  3  0  0  0  0  0  0
  187.8350  177.6360  136.8870 O   0  0  0  0  0  0  0  0  0  0  0  0
  193.1790  176.6350  138.0150 C   0  0  0  0  0  0  0  0  0  0  0  0
  189.5730  176.1620  137.7600 C   0  0  1  0  0  3  0  0  0  0  0  0
  186.4770  174.5680  136.2600 C   0  0  2  0  0  3  0  0  0  0  0  0
  191.8760  176.3460  137.6520 C   0  0  0  0  0  0  0  0  0  0  0  0
  188.2620  176.9260  138.0180 C   0  0  1  0  0  3  0  0  0  0  0  0
  193.4100  177.1250  139.2670 N   0  0  0  0  0  0  0  0  0  0  0  0
  186.7230  173.3270  135.3850 C   0  0  0  0  0  2  0  0  0  0  0  0
  191.4910  175.9750  136.3500 N   0  0  0  0  0  0  0  0  0  0  0  0
  193.9710  174.2870  135.9680 C   0  0  0  0  0  1  0  0  0  0  0  0
  189.9500  177.5180  140.7070 C   0  0  0  0  0  2  0  0  0  0  0  0
  192.3840  177.3440  140.1470 C   0  0  0  0  0  3  0  0  0  0  0  0
  192.4290  176.1200  135.2410 C   0  0  0  0  0  2  0  0  0  0  0  0
  186.8550  175.8410  135.6170 N   0  0  1  0  0  0  0  0  0  0  0  0
  186.6400  177.0130  136.4840 C   0  0  0  0  0  2  0  0  0  0  0  0
  191.0500  177.0700  139.7860 C   0  0  0  0  0  0  0  0  0  0  0  0
  190.0500  176.1920  136.2880 C   0  0  1  0  0  3  0  0  0  0  0  0
  194.2690  176.5610  136.9780 C   0  0  0  0  0  2  0  0  0  0  0  0
  188.2360  177.7600  139.2990 C   0  0  2  0  0  3  0  0  0  0  0  0
  194.8240  176.1380  134.5940 C   0  0  0  0  0  1  0  0  0  0  0  0
  188.0560  175.8690  134.7610 C   0  0  0  0  0  2  0  0  0  0  0  0
  187.0250  174.4190  137.5230 F   0  0  0  0  0  0  0  0  0  0  0  0
  189.3300  175.2320  135.3510 C   0  0  2  0  0  3  0  0  0  0  0  0
  188.7060  176.9760  140.3620 O   0  0  0  0  0  0  0  0  0  0  0  0
  185.8880  178.3520  138.5870 C   0  0  0  0  0  3  0  0  0  0  0  0
  186.8550  178.2550  139.5980 C   0  0  0  0  0  0  0  0  0  0  0  0
  186.5360  178.6490  140.9010 C   0  0  0  0  0  3  0  0  0  0  0  0
  184.9520  179.5120  142.4600 F   0  0  0  0  0  0  0  0  0  0  0  0
  184.2950  179.2250  140.1870 C   0  0  0  0  0  3  0  0  0  0  0  0
  185.2580  179.1320  141.1960 C   0  0  0  0  0  0  0  0  0  0  0  0
  184.6100  178.8350  138.8810 C   0  0  0  0  0  3  0  0  0  0  0  0
  187.2100  170.7570  135.0090 N   0  0  0  0  0  1  0  0  0  0  0  0
  188.4140  171.5030  135.3340 C   0  0  0  0  0  2  0  0  0  0  0  0
  2 14  1  0  0  0  0
  2 22  1  0  0  0  0
  3 20  1  0  0  0  0
  4 37  1  1  0  0  0
  4 12  1  0  0  0  0
  4  1  1  0  0  0  0
  6 11  2  0  0  0  0
  7 10  1  0  0  0  0
  7  3  1  1  0  0  0
  8 26  1  1  0  0  0
  9  6  1  0  0  0  0
  9  3  2  0  0  0  0
 10  5  1  6  0  0  0
 10 23  1  0  0  0  0
 11 16  1  0  0  0  0
 12  8  1  0  0  0  0
 13  9  1  0  0  0  0
 17  2  1  0  0  0  0
 17 13  1  0  0  0  0
 18 25  1  1  0  0  0
 18  8  1  0  0  0  0
 18 19  1  0  0  0  0
 19  5  1  0  0  0  0
 20 16  2  0  0  0  0
 20 15  1  0  0  0  0
 21 13  1  1  0  0  0
 21  7  1  0  0  0  0
 22  6  1  0  0  0  0
 23 30  1  1  0  0  0
 23 28  1  0  0  0  0
 24  2  1  0  0  0  0
 27 25  1  1  0  0  0
 27  1  1  0  0  0  0
 27 21  1  0  0  0  0
 28 15  1  0  0  0  0
 29 35  2  0  0  0  0
 29 30  1  0  0  0  0
 30 31  2  0  0  0  0
 31 34  1  0  0  0  0
 33 34  2  0  0  0  0
 34 32  1  0  0  0  0
 35 33  1  0  0  0  0
 36 37  1  0  0  0  0
M  END
>  <MODEL>
4

>  <REMARK>
 VINA RESULT:      -5.5      2.783      7.974
  Name = 
  2 active torsions:
  status: ('A' for Active; 'I' for Inactive)
    1  A    between atoms: C_4  and  C_37
    2  A    between atoms: C_23  and  C_30
                            x       y       z     vdW  Elec       q    Type
                         _______ _______ _______ _____ _____    ______ ____

>  <TORSDO>
F 2

$$$$
=
 OpenBabel11122411243D

 37 43  0  0  1  0  0  0  0  0999 V2000
  188.7550  176.2090  138.6780 C   0  0  0  0  0  2  0  0  0  0  0  0
  190.4550  177.9790  143.1140 C   0  0  0  0  0  0  0  0  0  0  0  0
  186.5010  177.8430  141.7170 C   0  0  0  0  0  0  0  0  0  0  0  0
  189.2250  175.7480  137.2980 C   0  0  2  0  0  3  0  0  0  0  0  0
  186.1760  179.4970  138.5830 O   0  0  0  0  0  0  0  0  0  0  0  0
  187.9520  178.0010  143.6280 C   0  0  0  0  0  0  0  0  0  0  0  0
  186.6680  177.7580  140.2240 C   0  0  1  0  0  3  0  0  0  0  0  0
  186.9920  176.8800  136.5490 C   0  0  2  0  0  3  0  0  0  0  0  0
  187.7500  177.8970  142.2630 C   0  0  0  0  0  0  0  0  0  0  0  0
  185.6300  178.4260  139.3040 C   0  0  1  0  0  3  0  0  0  0  0  0
  186.8610  178.0200  144.4450 N   0  0  0  0  0  0  0  0  0  0  0  0
  188.2050  176.0120  136.1760 C   0  0  0  0  0  2  0  0  0  0  0  0
  188.7790  178.0120  141.3090 N   0  0  0  0  0  0  0  0  0  0  0  0
  190.7270  176.4850  143.0480 C   0  0  0  0  0  1  0  0  0  0  0  0
  183.9620  177.9970  142.0370 C   0  0  0  0  0  2  0  0  0  0  0  0
  185.5890  177.9520  143.9380 C   0  0  0  0  0  3  0  0  0  0  0  0
  190.0950  178.5030  141.7090 C   0  0  0  0  0  2  0  0  0  0  0  0
  187.3280  178.2840  136.8520 N   0  0  1  0  0  0  0  0  0  0  0  0
  186.1550  179.0900  137.2380 C   0  0  0  0  0  2  0  0  0  0  0  0
  185.3680  177.8620  142.5500 C   0  0  0  0  0  0  0  0  0  0  0  0
  188.1120  178.2820  140.0410 C   0  0  1  0  0  3  0  0  0  0  0  0
  189.3410  178.2580  144.1510 C   0  0  0  0  0  2  0  0  0  0  0  0
  184.2950  178.7650  139.9690 C   0  0  2  0  0  3  0  0  0  0  0  0
  191.7220  178.6700  143.5740 C   0  0  0  0  0  1  0  0  0  0  0  0
  188.5850  178.5700  137.5700 C   0  0  0  0  0  2  0  0  0  0  0  0
  186.2240  176.2860  137.5370 F   0  0  0  0  0  0  0  0  0  0  0  0
  188.8560  177.7290  138.8320 C   0  0  2  0  0  3  0  0  0  0  0  0
  183.8460  177.6470  140.6860 O   0  0  0  0  0  0  0  0  0  0  0  0
  182.8400  178.2700  137.9660 C   0  0  0  0  0  3  0  0  0  0  0  0
  183.2690  179.1680  138.9540 C   0  0  0  0  0  0  0  0  0  0  0  0
  182.7550  180.4680  138.9800 C   0  0  0  0  0  3  0  0  0  0  0  0
  181.3150  182.1290  138.0580 F   0  0  0  0  0  0  0  0  0  0  0  0
  181.3820  179.9710  137.0480 C   0  0  0  0  0  3  0  0  0  0  0  0
  181.8120  180.8690  138.0290 C   0  0  0  0  0  0  0  0  0  0  0  0
  181.8970  178.6710  137.0150 C   0  0  0  0  0  3  0  0  0  0  0  0
  190.8340  174.0280  136.6760 N   0  0  0  0  0  1  0  0  0  0  0  0
  189.5560  174.2670  137.3250 C   0  0  0  0  0  2  0  0  0  0  0  0
  1 27  1  0  0  0  0
  2 24  1  0  0  0  0
  2 22  1  0  0  0  0
  3  9  2  0  0  0  0
  3 20  1  0  0  0  0
  4 37  1  1  0  0  0
  4  1  1  0  0  0  0
  6 22  1  0  0  0  0
  6 11  2  0  0  0  0
  7  3  1  1  0  0  0
  8 18  1  0  0  0  0
  8 26  1  1  0  0  0
  9  6  1  0  0  0  0
 10  5  1  1  0  0  0
 10 23  1  0  0  0  0
 10  7  1  0  0  0  0
 12  8  1  0  0  0  0
 12  4  1  0  0  0  0
 13 17  1  0  0  0  0
 13  9  1  0  0  0  0
 14  2  1  0  0  0  0
 15 20  1  0  0  0  0
 16 11  1  0  0  0  0
 17  2  1  0  0  0  0
 18 19  1  1  0  0  0
 18 25  1  0  0  0  0
 19  5  1  0  0  0  0
 20 16  2  0  0  0  0
 21  7  1  0  0  0  0
 21 13  1  1  0  0  0
 23 30  1  6  0  0  0
 23 28  1  0  0  0  0
 27 25  1  6  0  0  0
 27 21  1  0  0  0  0
 28 15  1  0  0  0  0
 29 30  1  0  0  0  0
 30 31  2  0  0  0  0
 33 34  2  0  0  0  0
 34 32  1  0  0  0  0
 34 31  1  0  0  0  0
 35 33  1  0  0  0  0
 35 29  2  0  0  0  0
 36 37  1  0  0  0  0
M  END
>  <MODEL>
5

>  <REMARK>
 VINA RESULT:      -4.9      3.407      8.396
  Name = 
  2 active torsions:
  status: ('A' for Active; 'I' for Inactive)
    1  A    between atoms: C_4  and  C_37
    2  A    between atoms: C_23  and  C_30
                            x       y       z     vdW  Elec       q    Type
                         _______ _______ _______ _____ _____    ______ ____

>  <TORSDO>
F 2

$$$$
=
 OpenBabel11122411243D

 37 43  0  0  1  0  0  0  0  0999 V2000
  186.9790  173.8680  136.2200 C   0  0  0  0  0  2  0  0  0  0  0  0
  191.6670  175.7730  136.5320 C   0  0  0  0  0  0  0  0  0  0  0  0
  188.2250  176.9970  138.5960 C   0  0  0  0  0  0  0  0  0  0  0  0
  186.1080  172.9280  135.3870 C   0  0  2  0  0  3  0  0  0  0  0  0
  185.5860  177.8070  136.3510 O   0  0  0  0  0  0  0  0  0  0  0  0
  190.6280  176.9850  138.5280 C   0  0  0  0  0  0  0  0  0  0  0  0
  187.1060  176.4860  137.7300 C   0  0  1  0  0  3  0  0  0  0  0  0
  184.2640  174.6820  135.9840 C   0  0  2  0  0  3  0  0  0  0  0  0
  189.3970  176.6460  137.9940 C   0  0  0  0  0  0  0  0  0  0  0  0
  185.7930  177.2850  137.6350 C   0  0  1  0  0  3  0  0  0  0  0  0
  190.6570  177.6670  139.7080 N   0  0  0  0  0  0  0  0  0  0  0  0
  184.6190  173.3180  135.3690 C   0  0  0  0  0  2  0  0  0  0  0  0
  189.2290  176.0740  136.7200 N   0  0  0  0  0  0  0  0  0  0  0  0
  191.6870  174.3410  137.0380 C   0  0  0  0  0  1  0  0  0  0  0  0
  187.0150  178.2910  140.4500 C   0  0  0  0  0  2  0  0  0  0  0  0
  189.5030  178.0250  140.3540 C   0  0  0  0  0  3  0  0  0  0  0  0
  190.3470  176.0390  135.7800 C   0  0  0  0  0  2  0  0  0  0  0  0
  184.7840  175.8360  135.2260 N   0  0  1  0  0  0  0  0  0  0  0  0
  184.4600  177.1320  135.8500 C   0  0  0  0  0  2  0  0  0  0  0  0
  188.2430  177.7000  139.8140 C   0  0  0  0  0  0  0  0  0  0  0  0
  187.8280  176.2820  136.3760 C   0  0  1  0  0  3  0  0  0  0  0  0
  191.8760  176.7460  137.7180 C   0  0  0  0  0  2  0  0  0  0  0  0
  185.5740  178.3110  138.7470 C   0  0  2  0  0  3  0  0  0  0  0  0
  192.8160  175.9490  135.5610 C   0  0  0  0  0  1  0  0  0  0  0  0
  186.1140  175.7260  134.5960 C   0  0  0  0  0  2  0  0  0  0  0  0
  184.5850  174.7340  137.3300 F   0  0  0  0  0  0  0  0  0  0  0  0
  187.2490  175.1870  135.4890 C   0  0  2  0  0  3  0  0  0  0  0  0
  185.8330  177.7040  139.9840 O   0  0  0  0  0  0  0  0  0  0  0  0
  183.0720  177.9880  138.6770 C   0  0  0  0  0  3  0  0  0  0  0  0
  184.1770  178.8500  138.7220 C   0  0  0  0  0  0  0  0  0  0  0  0
  183.9780  180.2340  138.7160 C   0  0  0  0  0  3  0  0  0  0  0  0
  182.4920  182.0980  138.6700 F   0  0  0  0  0  0  0  0  0  0  0  0
  181.5810  179.8950  138.6330 C   0  0  0  0  0  3  0  0  0  0  0  0
  182.6820  180.7570  138.6730 C   0  0  0  0  0  0  0  0  0  0  0  0
  181.7760  178.5110  138.6340 C   0  0  0  0  0  3  0  0  0  0  0  0
  185.1780  170.6780  135.3460 N   0  0  0  0  0  1  0  0  0  0  0  0
  186.2390  171.5050  135.8950 C   0  0  0  0  0  2  0  0  0  0  0  0
  2 14  1  0  0  0  0
  2 22  1  0  0  0  0
  3 20  1  0  0  0  0
  4 37  1  1  0  0  0
  4  1  1  0  0  0  0
  6 11  2  0  0  0  0
  7  3  1  1  0  0  0
  8 26  1  1  0  0  0
  9  6  1  0  0  0  0
  9  3  2  0  0  0  0
 10  5  1  6  0  0  0
 10  7  1  0  0  0  0
 10 23  1  0  0  0  0
 11 16  1  0  0  0  0
 12  4  1  0  0  0  0
 12  8  1  0  0  0  0
 13  9  1  0  0  0  0
 17  2  1  0  0  0  0
 17 13  1  0  0  0  0
 18 25  1  1  0  0  0
 18 19  1  0  0  0  0
 18  8  1  0  0  0  0
 19  5  1  0  0  0  0
 20 16  2  0  0  0  0
 20 15  1  0  0  0  0
 21 13  1  1  0  0  0
 21  7  1  0  0  0  0
 22  6  1  0  0  0  0
 23 30  1  1  0  0  0
 23 28  1  0  0  0  0
 24  2  1  0  0  0  0
 27 25  1  1  0  0  0
 27  1  1  0  0  0  0
 27 21  1  0  0  0  0
 28 15  1  0  0  0  0
 29 30  1  0  0  0  0
 31 30  2  0  0  0  0
 32 34  1  0  0  0  0
 33 35  1  0  0  0  0
 33 34  2  0  0  0  0
 34 31  1  0  0  0  0
 35 29  2  0  0  0  0
 36 37  1  0  0  0  0
M  END
>  <MODEL>
6

>  <REMARK>
 VINA RESULT:      -4.9      2.800      8.036
  Name = 
  2 active torsions:
  status: ('A' for Active; 'I' for Inactive)
    1  A    between atoms: C_4  and  C_37
    2  A    between atoms: C_23  and  C_30
                            x       y       z     vdW  Elec       q    Type
                         _______ _______ _______ _____ _____    ______ ____

>  <TORSDO>
F 2

$$$$
=
 OpenBabel11122411243D

 37 43  0  0  1  0  0  0  0  0999 V2000
  182.0190  179.3480  140.6540 C   0  0  0  0  0  2  0  0  0  0  0  0
  179.9100  182.6940  137.4810 C   0  0  0  0  0  0  0  0  0  0  0  0
  180.9820  178.7100  136.7160 C   0  0  0  0  0  0  0  0  0  0  0  0
  182.7010  179.2370  142.0170 C   0  0  2  0  0  3  0  0  0  0  0  0
  184.4130  178.1260  137.4520 O   0  0  0  0  0  0  0  0  0  0  0  0
  179.6370  180.5910  136.0550 C   0  0  0  0  0  0  0  0  0  0  0  0
  182.0120  178.4230  137.7730 C   0  0  1  0  0  3  0  0  0  0  0  0
  184.0970  177.4110  140.7750 C   0  0  2  0  0  3  0  0  0  0  0  0
  180.5740  180.0010  136.8850 C   0  0  0  0  0  0  0  0  0  0  0  0
  183.1760  177.4660  137.4600 C   0  0  1  0  0  3  0  0  0  0  0  0
  179.0890  179.8400  135.0580 N   0  0  0  0  0  0  0  0  0  0  0  0
  183.7390  178.1030  142.0990 C   0  0  0  0  0  2  0  0  0  0  0  0
  181.3150  180.7040  137.8530 N   0  0  0  0  0  0  0  0  0  0  0  0
  178.9350  182.4100  138.6110 C   0  0  0  0  0  1  0  0  0  0  0  0
  180.9410  176.5660  135.3090 C   0  0  0  0  0  2  0  0  0  0  0  0
  179.4590  178.5350  134.8640 C   0  0  0  0  0  3  0  0  0  0  0  0
  181.3090  182.1650  137.8590 C   0  0  0  0  0  2  0  0  0  0  0  0
  184.8180  178.2750  139.8200 N   0  0  1  0  0  0  0  0  0  0  0  0
  185.1240  177.6000  138.5460 C   0  0  0  0  0  2  0  0  0  0  0  0
  180.4230  177.9250  135.6910 C   0  0  0  0  0  0  0  0  0  0  0  0
  182.4520  179.8510  138.1770 C   0  0  1  0  0  3  0  0  0  0  0  0
  179.3790  182.0710  136.1680 C   0  0  0  0  0  2  0  0  0  0  0  0
  182.9670  176.5630  136.2440 C   0  0  2  0  0  3  0  0  0  0  0  0
  179.9980  184.1950  137.2980 C   0  0  0  0  0  1  0  0  0  0  0  0
  184.4420  179.6990  139.7360 C   0  0  0  0  0  2  0  0  0  0  0  0
  182.9970  176.7860  140.2100 F   0  0  0  0  0  0  0  0  0  0  0  0
  182.9350  180.0000  139.6140 C   0  0  2  0  0  3  0  0  0  0  0  0
  181.6970  175.9740  136.3280 O   0  0  0  0  0  0  0  0  0  0  0  0
  184.9690  175.4980  135.1350 C   0  0  0  0  0  3  0  0  0  0  0  0
  184.0200  175.5010  136.1680 C   0  0  0  0  0  0  0  0  0  0  0  0
  184.0370  174.4840  137.1270 C   0  0  0  0  0  3  0  0  0  0  0  0
  185.0160  172.4900  137.9940 F   0  0  0  0  0  0  0  0  0  0  0  0
  185.9480  173.4750  136.0330 C   0  0  0  0  0  3  0  0  0  0  0  0
  185.0010  173.4730  137.0610 C   0  0  0  0  0  0  0  0  0  0  0  0
  185.9310  174.4870  135.0690 C   0  0  0  0  0  3  0  0  0  0  0  0
  182.3060  178.6030  144.3350 N   0  0  0  0  0  1  0  0  0  0  0  0
  181.6630  179.0360  143.1060 C   0  0  0  0  0  2  0  0  0  0  0  0
  1  4  1  0  0  0  0
  2 17  1  0  0  0  0
  2 14  1  0  0  0  0
  3  9  1  0  0  0  0
  4 12  1  0  0  0  0
  4 37  1  1  0  0  0
  5 19  1  0  0  0  0
  6 22  1  0  0  0  0
  6  9  2  0  0  0  0
  7  3  1  6  0  0  0
  7 21  1  0  0  0  0
  8 26  1  6  0  0  0
  8 12  1  0  0  0  0
  9 13  1  0  0  0  0
 10  5  1  6  0  0  0
 10  7  1  0  0  0  0
 11  6  1  0  0  0  0
 13 17  1  0  0  0  0
 15 20  1  0  0  0  0
 15 28  1  0  0  0  0
 16 11  2  0  0  0  0
 16 20  1  0  0  0  0
 18 19  1  6  0  0  0
 18  8  1  0  0  0  0
 20  3  2  0  0  0  0
 21 13  1  1  0  0  0
 21 27  1  0  0  0  0
 22  2  1  0  0  0  0
 23 30  1  1  0  0  0
 23 28  1  0  0  0  0
 23 10  1  0  0  0  0
 24  2  1  0  0  0  0
 25 18  1  0  0  0  0
 27 25  1  6  0  0  0
 27  1  1  0  0  0  0
 29 30  1  0  0  0  0
 30 31  2  0  0  0  0
 33 34  2  0  0  0  0
 34 31  1  0  0  0  0
 34 32  1  0  0  0  0
 35 29  2  0  0  0  0
 35 33  1  0  0  0  0
 37 36  1  0  0  0  0
M  END
>  <MODEL>
7

>  <REMARK>
 VINA RESULT:      -4.3      4.302      6.772
  Name = 
  2 active torsions:
  status: ('A' for Active; 'I' for Inactive)
    1  A    between atoms: C_4  and  C_37
    2  A    between atoms: C_23  and  C_30
                            x       y       z     vdW  Elec       q    Type
                         _______ _______ _______ _____ _____    ______ ____

>  <TORSDO>
F 2

$$$$
=
 OpenBabel11122411243D

 37 43  0  0  1  0  0  0  0  0999 V2000
  187.1920  177.5940  141.3870 C   0  0  0  0  0  2  0  0  0  0  0  0
  183.0830  179.1110  138.8320 C   0  0  0  0  0  0  0  0  0  0  0  0
  186.0610  176.4260  137.5990 C   0  0  0  0  0  0  0  0  0  0  0  0
  188.0310  177.9080  142.6250 C   0  0  2  0  0  3  0  0  0  0  0  0
  189.2950  177.8980  137.7870 O   0  0  0  0  0  0  0  0  0  0  0  0
  183.8070  177.2040  137.2930 C   0  0  0  0  0  0  0  0  0  0  0  0
  187.2320  176.7870  138.4710 C   0  0  1  0  0  3  0  0  0  0  0  0
  189.9850  177.1770  141.0510 C   0  0  2  0  0  3  0  0  0  0  0  0
  185.0350  177.2600  137.9300 C   0  0  0  0  0  0  0  0  0  0  0  0
  188.6620  176.6540  137.9180 C   0  0  1  0  0  3  0  0  0  0  0  0
  183.6200  176.2600  136.3270 N   0  0  0  0  0  0  0  0  0  0  0  0
  189.5220  177.5630  142.4650 C   0  0  0  0  0  2  0  0  0  0  0  0
  185.4000  178.2730  138.8360 N   0  0  0  0  0  0  0  0  0  0  0  0
  182.6360  178.3400  140.0630 C   0  0  0  0  0  1  0  0  0  0  0  0
  187.0000  174.6160  136.0430 C   0  0  0  0  0  2  0  0  0  0  0  0
  184.6210  175.3920  135.9760 C   0  0  0  0  0  3  0  0  0  0  0  0
  184.5770  179.4730  138.9610 C   0  0  0  0  0  2  0  0  0  0  0  0
  189.9280  178.2840  140.0770 N   0  0  1  0  0  0  0  0  0  0  0  0
  190.3450  177.8840  138.7210 C   0  0  0  0  0  2  0  0  0  0  0  0
  185.8800  175.4480  136.6040 C   0  0  0  0  0  0  0  0  0  0  0  0
  186.8540  178.2190  138.9230 C   0  0  1  0  0  3  0  0  0  0  0  0
  182.7860  178.2780  137.5620 C   0  0  0  0  0  2  0  0  0  0  0  0
  188.7990  175.7740  136.6750 C   0  0  2  0  0  3  0  0  0  0  0  0
  182.2820  180.3950  138.7610 C   0  0  0  0  0  1  0  0  0  0  0  0
  188.8100  179.2430  140.1630 C   0  0  0  0  0  2  0  0  0  0  0  0
  189.3500  176.0320  140.6010 F   0  0  0  0  0  0  0  0  0  0  0  0
  187.3980  178.6360  140.2840 C   0  0  2  0  0  3  0  0  0  0  0  0
  188.1130  174.5710  136.8910 O   0  0  0  0  0  0  0  0  0  0  0  0
  190.8160  175.9440  135.1660 C   0  0  0  0  0  3  0  0  0  0  0  0
  190.2370  175.4950  136.3620 C   0  0  0  0  0  0  0  0  0  0  0  0
  191.0020  174.7520  137.2670 C   0  0  0  0  0  3  0  0  0  0  0  0
  193.0800  173.7460  137.8620 F   0  0  0  0  0  0  0  0  0  0  0  0
  192.9170  174.9170  135.7920 C   0  0  0  0  0  3  0  0  0  0  0  0
  192.3410  174.4650  136.9830 C   0  0  0  0  0  0  0  0  0  0  0  0
  192.1540  175.6570  134.8830 C   0  0  0  0  0  3  0  0  0  0  0  0
  186.1340  177.6300  144.1270 N   0  0  0  0  0  1  0  0  0  0  0  0
  187.4800  177.1700  143.8310 C   0  0  0  0  0  2  0  0  0  0  0  0
  1  4  1  0  0  0  0
  2 17  1  0  0  0  0
  2 14  1  0  0  0  0
  3  9  1  0  0  0  0
  4 37  1  1  0  0  0
  5 19  1  0  0  0  0
  6 22  1  0  0  0  0
  6  9  2  0  0  0  0
  7  3  1  6  0  0  0
  7 21  1  0  0  0  0
  8 26  1  6  0  0  0
  8 12  1  0  0  0  0
  9 13  1  0  0  0  0
 10  5  1  6  0  0  0
 10  7  1  0  0  0  0
 11  6  1  0  0  0  0
 12  4  1  0  0  0  0
 13 17  1  0  0  0  0
 15 20  1  0  0  0  0
 15 28  1  0  0  0  0
 16 11  2  0  0  0  0
 16 20  1  0  0  0  0
 18 19  1  6  0  0  0
 18 25  1  0  0  0  0
 18  8  1  0  0  0  0
 20  3  2  0  0  0  0
 21 13  1  1  0  0  0
 21 27  1  0  0  0  0
 22  2  1  0  0  0  0
 23 30  1  1  0  0  0
 23 28  1  0  0  0  0
 23 10  1  0  0  0  0
 24  2  1  0  0  0  0
 27 25  1  6  0  0  0
 27  1  1  0  0  0  0
 29 30  1  0  0  0  0
 30 31  2  0  0  0  0
 33 34  2  0  0  0  0
 34 31  1  0  0  0  0
 34 32  1  0  0  0  0
 35 29  2  0  0  0  0
 35 33  1  0  0  0  0
 37 36  1  0  0  0  0
M  END
>  <MODEL>
8

>  <REMARK>
 VINA RESULT:      -4.3      1.970      2.676
  Name = 
  2 active torsions:
  status: ('A' for Active; 'I' for Inactive)
    1  A    between atoms: C_4  and  C_37
    2  A    between atoms: C_23  and  C_30
                            x       y       z     vdW  Elec       q    Type
                         _______ _______ _______ _____ _____    ______ ____

>  <TORSDO>
F 2

$$$$
=
 OpenBabel11122411243D

 37 43  0  0  1  0  0  0  0  0999 V2000
  188.2470  177.7200  137.2040 C   0  0  0  0  0  2  0  0  0  0  0  0
  187.8110  177.9420  142.2510 C   0  0  0  0  0  0  0  0  0  0  0  0
  191.2540  177.1930  139.9730 C   0  0  0  0  0  0  0  0  0  0  0  0
  187.4210  177.6530  135.9200 C   0  0  2  0  0  3  0  0  0  0  0  0
  190.7790  174.4410  137.7680 O   0  0  0  0  0  0  0  0  0  0  0  0
  190.3610  177.9050  142.0890 C   0  0  0  0  0  0  0  0  0  0  0  0
  190.7000  176.7120  138.6600 C   0  0  1  0  0  3  0  0  0  0  0  0
  189.4020  176.1350  135.1440 C   0  0  2  0  0  3  0  0  0  0  0  0
  190.1950  177.4600  140.7890 C   0  0  0  0  0  0  0  0  0  0  0  0
  191.4730  175.6560  137.8500 C   0  0  1  0  0  3  0  0  0  0  0  0
  191.6290  178.1100  142.5470 N   0  0  0  0  0  0  0  0  0  0  0  0
  188.1150  176.8920  134.7760 C   0  0  0  0  0  2  0  0  0  0  0  0
  188.9540  177.0750  140.2470 N   0  0  0  0  0  0  0  0  0  0  0  0
  187.5010  179.3120  141.6730 C   0  0  0  0  0  1  0  0  0  0  0  0
  193.7920  176.9590  139.6820 C   0  0  0  0  0  2  0  0  0  0  0  0
  192.7210  177.8690  141.7540 C   0  0  0  0  0  3  0  0  0  0  0  0
  187.8000  176.8890  141.1230 C   0  0  0  0  0  2  0  0  0  0  0  0
  189.1870  174.9890  136.0480 N   0  0  1  0  0  0  0  0  0  0  0  0
  190.4360  174.2970  136.4130 C   0  0  0  0  0  2  0  0  0  0  0  0
  192.5670  177.4000  140.4350 C   0  0  0  0  0  0  0  0  0  0  0  0
  189.2690  176.2820  139.0650 C   0  0  1  0  0  3  0  0  0  0  0  0
  189.1650  177.9880  143.0000 C   0  0  0  0  0  2  0  0  0  0  0  0
  192.9420  175.4870  138.2370 C   0  0  2  0  0  3  0  0  0  0  0  0
  186.7250  177.5900  143.2460 C   0  0  0  0  0  1  0  0  0  0  0  0
  188.1690  175.1080  137.1090 C   0  0  0  0  0  2  0  0  0  0  0  0
  190.3900  176.9950  135.5930 F   0  0  0  0  0  0  0  0  0  0  0  0
  188.2220  176.3900  137.9640 C   0  0  2  0  0  3  0  0  0  0  0  0
  193.5400  176.7520  138.3210 O   0  0  0  0  0  0  0  0  0  0  0  0
  193.8920  175.0910  135.9320 C   0  0  0  0  0  3  0  0  0  0  0  0
  193.6730  174.6390  137.2410 C   0  0  0  0  0  0  0  0  0  0  0  0
  194.1170  173.3680  137.6200 C   0  0  0  0  0  3  0  0  0  0  0  0
  195.2150  171.3250  137.0690 F   0  0  0  0  0  0  0  0  0  0  0  0
  195.0050  173.0090  135.3950 C   0  0  0  0  0  3  0  0  0  0  0  0
  194.7840  172.5550  136.6990 C   0  0  0  0  0  0  0  0  0  0  0  0
  194.5580  174.2770  135.0110 C   0  0  0  0  0  3  0  0  0  0  0  0
  187.2660  180.0070  136.5240 N   0  0  0  0  0  1  0  0  0  0  0  0
  187.0790  179.0530  135.4450 C   0  0  0  0  0  2  0  0  0  0  0  0
  1 27  1  0  0  0  0
  2 22  1  0  0  0  0
  2 24  1  0  0  0  0
  3 20  2  0  0  0  0
  3  9  1  0  0  0  0
  4 37  1  6  0  0  0
  4  1  1  0  0  0  0
  6 11  1  0  0  0  0
  6 22  1  0  0  0  0
  7 21  1  0  0  0  0
  7  3  1  1  0  0  0
  8 26  1  1  0  0  0
  8 18  1  0  0  0  0
  9  6  2  0  0  0  0
 10  5  1  1  0  0  0
 10 23  1  0  0  0  0
 10  7  1  0  0  0  0
 12  8  1  0  0  0  0
 12  4  1  0  0  0  0
 13  9  1  0  0  0  0
 13 17  1  0  0  0  0
 14  2  1  0  0  0  0
 15 20  1  0  0  0  0
 16 11  2  0  0  0  0
 17  2  1  0  0  0  0
 18 19  1  1  0  0  0
 18 25  1  0  0  0  0
 19  5  1  0  0  0  0
 20 16  1  0  0  0  0
 21 13  1  1  0  0  0
 23 30  1  6  0  0  0
 23 28  1  0  0  0  0
 27 25  1  6  0  0  0
 27 21  1  0  0  0  0
 28 15  1  0  0  0  0
 29 30  1  0  0  0  0
 30 31  2  0  0  0  0
 33 34  2  0  0  0  0
 34 32  1  0  0  0  0
 34 31  1  0  0  0  0
 35 33  1  0  0  0  0
 35 29  2  0  0  0  0
 37 36  1  0  0  0  0
M  END
>  <MODEL>
9

>  <REMARK>
 VINA RESULT:      -3.9      3.064      5.858
  Name = 
  2 active torsions:
  status: ('A' for Active; 'I' for Inactive)
    1  A    between atoms: C_4  and  C_37
    2  A    between atoms: C_23  and  C_30
                            x       y       z     vdW  Elec       q    Type
                         _______ _______ _______ _____ _____    ______ ____

>  <TORSDO>
F 2

$$$$
