=
 OpenBabel11122411173D

 31 35  0  0  1  0  0  0  0  0999 V2000
  191.3970  176.6070  144.9980 C   0  0  0  0  0  0  0  0  0  0  0  0
  187.7420  176.9890  144.0040 C   0  0  2  0  0  3  0  0  0  0  0  0
  187.0380  177.7890  145.0840 C   0  0  0  0  0  0  0  0  0  0  0  0
  186.9090  178.6550  147.3520 C   0  0  0  0  0  0  0  0  0  0  0  0
  189.2430  177.1610  144.0280 C   0  0  0  0  0  0  0  0  0  0  0  0
  192.0260  177.4860  144.1130 C   0  0  0  0  0  3  0  0  0  0  0  0
  187.5890  177.9310  146.3680 C   0  0  0  0  0  3  0  0  0  0  0  0
  187.6660  178.6700  142.0920 C   0  0  2  0  0  3  0  0  0  0  0  0
  192.1320  175.9110  145.8990 F   0  0  0  0  0  0  0  0  0  0  0  0
  185.1900  178.1690  143.5250 N   0  0  0  0  0  2  0  0  0  0  0  0
  187.4540  178.7980  148.5840 F   0  0  0  0  0  0  0  0  0  0  0  0
  189.1240  178.7310  142.1350 N   0  0  0  0  0  2  0  0  0  0  0  0
  187.1740  177.3060  142.6000 C   0  0  2  0  0  3  0  0  0  0  0  0
  190.0090  176.4420  144.9550 C   0  0  0  0  0  3  0  0  0  0  0  0
  185.6700  179.2340  147.0640 C   0  0  0  0  0  3  0  0  0  0  0  0
  189.8810  178.0460  143.1360 C   0  0  0  0  0  0  0  0  0  0  0  0
  191.2700  178.2000  143.1800 C   0  0  0  0  0  3  0  0  0  0  0  0
  185.7070  177.2330  142.6060 N   0  0  0  0  0  2  0  0  0  0  0  0
  185.7740  178.3400  144.8180 C   0  0  0  0  0  0  0  0  0  0  0  0
  185.1020  179.0760  145.7970 C   0  0  0  0  0  3  0  0  0  0  0  0
  188.6220  177.2910  139.7870 O   0  0  0  0  0  0  0  0  0  0  0  0
  187.7230  178.1590  139.6170 C   0  0  0  0  0  0  0  0  0  0  0  0
  187.2070  178.8930  140.7290 N   0  0  0  0  0  2  0  0  0  0  0  0
  187.6450  176.6780  135.9210 N   0  0  0  0  0  0  0  0  0  0  0  0
  186.2370  177.3220  137.8000 C   0  0  0  0  0  2  0  0  0  0  0  0
  189.0340  179.6750  137.3530 O   0  0  0  0  0  0  0  0  0  0  0  0
  188.3840  175.5690  135.3460 C   0  0  0  0  0  1  0  0  0  0  0  0
  187.0010  176.1800  137.1330 C   0  0  0  0  0  2  0  0  0  0  0  0
  188.3050  178.6530  137.2670 C   0  0  0  0  0  0  0  0  0  0  0  0
  187.1870  178.4370  138.2480 C   0  0  2  0  0  3  0  0  0  0  0  0
  188.5920  177.6570  136.2780 N   0  0  0  0  0  2  0  0  0  0  0  0
  1  9  1  0  0  0  0
  2  5  1  6  0  0  0
  2  3  1  0  0  0  0
  3  7  1  0  0  0  0
  4 11  1  0  0  0  0
  5 14  2  0  0  0  0
  6  1  2  0  0  0  0
  7  4  2  0  0  0  0
  8 23  1  6  0  0  0
  8 12  1  0  0  0  0
  8 13  1  0  0  0  0
 10 19  1  0  0  0  0
 12 16  1  0  0  0  0
 13 18  1  1  0  0  0
 13  2  1  0  0  0  0
 14  1  1  0  0  0  0
 15  4  1  0  0  0  0
 16 17  2  0  0  0  0
 16  5  1  0  0  0  0
 17  6  1  0  0  0  0
 18 10  1  0  0  0  0
 19  3  2  0  0  0  0
 19 20  1  0  0  0  0
 20 15  2  0  0  0  0
 22 21  2  0  0  0  0
 22 23  1  0  0  0  0
 24 31  1  0  0  0  0
 24 28  1  0  0  0  0
 25 30  1  0  0  0  0
 27 24  1  0  0  0  0
 28 25  1  0  0  0  0
 29 26  2  0  0  0  0
 29 30  1  0  0  0  0
 30 22  1  1  0  0  0
 31 29  1  0  0  0  0
M  END
>  <MODEL>
1

>  <REMARK>
 VINA RESULT:      -9.1      0.000      0.000
  Name = 
  2 active torsions:
  status: ('A' for Active; 'I' for Inactive)
    1  A    between atoms: C_5  and  C_30
    2  A    between atoms: C_10  and  N_16
                            x       y       z     vdW  Elec       q    Type
                         _______ _______ _______ _____ _____    ______ ____

>  <TORSDO>
F 2

$$$$
=
 OpenBabel11122411173D

 31 35  0  0  1  0  0  0  0  0999 V2000
  190.0300  176.0050  142.7620 C   0  0  0  0  0  0  0  0  0  0  0  0
  186.4500  177.1250  143.4090 C   0  0  2  0  0  3  0  0  0  0  0  0
  186.4140  177.8550  144.7380 C   0  0  0  0  0  0  0  0  0  0  0  0
  187.3750  178.3750  146.9100 C   0  0  0  0  0  0  0  0  0  0  0  0
  187.8390  177.0440  142.8190 C   0  0  0  0  0  0  0  0  0  0  0  0
  190.4300  176.8940  141.7610 C   0  0  0  0  0  3  0  0  0  0  0  0
  187.4430  177.7090  145.6830 C   0  0  0  0  0  3  0  0  0  0  0  0
  185.9840  179.0680  141.8290 C   0  0  2  0  0  3  0  0  0  0  0  0
  190.8950  175.0700  143.2220 F   0  0  0  0  0  0  0  0  0  0  0  0
  184.2280  178.7640  144.1210 N   0  0  0  0  0  2  0  0  0  0  0  0
  188.3780  178.2380  147.8110 F   0  0  0  0  0  0  0  0  0  0  0  0
  187.3180  178.8830  141.2660 N   0  0  0  0  0  2  0  0  0  0  0  0
  185.4560  177.7410  142.3960 C   0  0  2  0  0  3  0  0  0  0  0  0
  188.7370  176.0770  143.2880 C   0  0  0  0  0  3  0  0  0  0  0  0
  186.2760  179.1850  147.2060 C   0  0  0  0  0  3  0  0  0  0  0  0
  188.2440  177.9390  141.8080 C   0  0  0  0  0  0  0  0  0  0  0  0
  189.5370  177.8560  141.2810 C   0  0  0  0  0  3  0  0  0  0  0  0
  184.1300  177.9080  143.0060 N   0  0  0  0  0  2  0  0  0  0  0  0
  185.2950  178.6390  145.0630 C   0  0  0  0  0  0  0  0  0  0  0  0
  185.2350  179.3170  146.2830 C   0  0  0  0  0  3  0  0  0  0  0  0
  185.4060  177.7520  139.3660 O   0  0  0  0  0  0  0  0  0  0  0  0
  184.8310  178.8520  139.5900 C   0  0  0  0  0  0  0  0  0  0  0  0
  185.0840  179.5670  140.8000 N   0  0  0  0  0  2  0  0  0  0  0  0
  180.9730  178.9010  138.6010 N   0  0  0  0  0  0  0  0  0  0  0  0
  182.8370  180.3140  139.2770 C   0  0  0  0  0  2  0  0  0  0  0  0
  183.9310  177.6750  136.9540 O   0  0  0  0  0  0  0  0  0  0  0  0
  179.8710  178.1050  139.1090 C   0  0  0  0  0  1  0  0  0  0  0  0
  181.6410  179.4930  139.7560 C   0  0  0  0  0  2  0  0  0  0  0  0
  183.2400  178.3410  137.7680 C   0  0  0  0  0  0  0  0  0  0  0  0
  183.8790  179.4270  138.5880 C   0  0  2  0  0  3  0  0  0  0  0  0
  181.8610  178.0100  137.9680 N   0  0  0  0  0  2  0  0  0  0  0  0
  1  9  1  0  0  0  0
  1 14  1  0  0  0  0
  2  5  1  6  0  0  0
  2  3  1  0  0  0  0
  3 19  2  0  0  0  0
  3  7  1  0  0  0  0
  4 15  1  0  0  0  0
  4 11  1  0  0  0  0
  5 14  2  0  0  0  0
  6  1  2  0  0  0  0
  7  4  2  0  0  0  0
  8 23  1  6  0  0  0
  8 13  1  0  0  0  0
 10 19  1  0  0  0  0
 12 16  1  0  0  0  0
 12  8  1  0  0  0  0
 13 18  1  1  0  0  0
 13  2  1  0  0  0  0
 16  5  1  0  0  0  0
 17  6  1  0  0  0  0
 17 16  2  0  0  0  0
 18 10  1  0  0  0  0
 19 20  1  0  0  0  0
 20 15  2  0  0  0  0
 21 22  2  0  0  0  0
 22 23  1  0  0  0  0
 24 27  1  0  0  0  0
 24 28  1  0  0  0  0
 25 28  1  0  0  0  0
 26 29  2  0  0  0  0
 29 31  1  0  0  0  0
 29 30  1  0  0  0  0
 30 25  1  0  0  0  0
 30 22  1  1  0  0  0
 31 24  1  0  0  0  0
M  END
>  <MODEL>
2

>  <REMARK>
 VINA RESULT:      -8.5      3.038      3.706
  Name = 
  2 active torsions:
  status: ('A' for Active; 'I' for Inactive)
    1  A    between atoms: C_5  and  C_30
    2  A    between atoms: C_10  and  N_16
                            x       y       z     vdW  Elec       q    Type
                         _______ _______ _______ _____ _____    ______ ____

>  <TORSDO>
F 2

$$$$
=
 OpenBabel11122411173D

 31 35  0  0  1  0  0  0  0  0999 V2000
  191.2520  176.0900  143.5930 C   0  0  0  0  0  0  0  0  0  0  0  0
  187.5470  176.9150  143.8740 C   0  0  2  0  0  3  0  0  0  0  0  0
  187.3220  177.6450  145.1840 C   0  0  0  0  0  0  0  0  0  0  0  0
  188.0190  178.2520  147.4330 C   0  0  0  0  0  0  0  0  0  0  0  0
  188.9890  176.9460  143.4230 C   0  0  0  0  0  0  0  0  0  0  0  0
  191.6750  177.0050  142.6240 C   0  0  0  0  0  3  0  0  0  0  0  0
  188.2610  177.5880  146.2270 C   0  0  0  0  0  3  0  0  0  0  0  0
  187.0810  178.8060  142.2320 C   0  0  2  0  0  3  0  0  0  0  0  0
  192.1420  175.2320  144.1470 F   0  0  0  0  0  0  0  0  0  0  0  0
  185.1390  178.3690  144.3460 N   0  0  0  0  0  2  0  0  0  0  0  0
  188.9360  178.2020  148.4280 F   0  0  0  0  0  0  0  0  0  0  0  0
  188.4750  178.7290  141.8040 N   0  0  0  0  0  2  0  0  0  0  0  0
  186.6100  177.4430  142.7610 C   0  0  2  0  0  3  0  0  0  0  0  0
  189.9120  176.0580  143.9890 C   0  0  0  0  0  3  0  0  0  0  0  0
  186.8330  178.9700  147.6100 C   0  0  0  0  0  3  0  0  0  0  0  0
  189.4180  177.8660  142.4460 C   0  0  0  0  0  0  0  0  0  0  0  0
  190.7580  177.8880  142.0480 C   0  0  0  0  0  3  0  0  0  0  0  0
  185.2220  177.5030  143.2370 N   0  0  0  0  0  2  0  0  0  0  0  0
  186.1160  178.3360  145.3880 C   0  0  0  0  0  0  0  0  0  0  0  0
  185.8820  179.0120  146.5880 C   0  0  0  0  0  3  0  0  0  0  0  0
  187.1850  177.7120  139.6010 O   0  0  0  0  0  0  0  0  0  0  0  0
  186.3460  178.6280  139.8200 C   0  0  0  0  0  0  0  0  0  0  0  0
  186.2490  179.2250  141.1140 N   0  0  0  0  0  2  0  0  0  0  0  0
  183.0100  177.6690  137.8670 N   0  0  0  0  0  0  0  0  0  0  0  0
  184.0340  179.3780  139.2670 C   0  0  0  0  0  2  0  0  0  0  0  0
  186.4550  177.9830  136.8680 O   0  0  0  0  0  0  0  0  0  0  0  0
  182.2260  176.4480  137.9050 C   0  0  0  0  0  1  0  0  0  0  0  0
  183.1810  178.1110  139.2480 C   0  0  0  0  0  2  0  0  0  0  0  0
  185.4280  178.1360  137.5790 C   0  0  0  0  0  0  0  0  0  0  0  0
  185.4420  179.1060  138.7270 C   0  0  2  0  0  3  0  0  0  0  0  0
  184.2700  177.3280  137.3390 N   0  0  0  0  0  2  0  0  0  0  0  0
  1 14  1  0  0  0  0
  1  9  1  0  0  0  0
  2  5  1  6  0  0  0
  2  3  1  0  0  0  0
  3 19  2  0  0  0  0
  3  7  1  0  0  0  0
  4 15  1  0  0  0  0
  4 11  1  0  0  0  0
  5 14  2  0  0  0  0
  6  1  2  0  0  0  0
  7  4  2  0  0  0  0
  8 23  1  6  0  0  0
  8 13  1  0  0  0  0
 10 19  1  0  0  0  0
 12  8  1  0  0  0  0
 12 16  1  0  0  0  0
 13 18  1  1  0  0  0
 13  2  1  0  0  0  0
 16  5  1  0  0  0  0
 17 16  2  0  0  0  0
 17  6  1  0  0  0  0
 18 10  1  0  0  0  0
 19 20  1  0  0  0  0
 20 15  2  0  0  0  0
 21 22  2  0  0  0  0
 22 23  1  0  0  0  0
 24 27  1  0  0  0  0
 24 28  1  0  0  0  0
 26 29  2  0  0  0  0
 28 25  1  0  0  0  0
 29 30  1  0  0  0  0
 30 25  1  0  0  0  0
 30 22  1  1  0  0  0
 31 29  1  0  0  0  0
 31 24  1  0  0  0  0
M  END
>  <MODEL>
3

>  <REMARK>
 VINA RESULT:      -8.2      1.972      2.385
  Name = 
  2 active torsions:
  status: ('A' for Active; 'I' for Inactive)
    1  A    between atoms: C_5  and  C_30
    2  A    between atoms: C_10  and  N_16
                            x       y       z     vdW  Elec       q    Type
                         _______ _______ _______ _____ _____    ______ ____

>  <TORSDO>
F 2

$$$$
=
 OpenBabel11122411173D

 31 35  0  0  1  0  0  0  0  0999 V2000
  189.3820  178.0150  143.8550 C   0  0  0  0  0  0  0  0  0  0  0  0
  187.0380  178.9910  141.0200 C   0  0  2  0  0  3  0  0  0  0  0  0
  187.3890  178.1540  139.8040 C   0  0  0  0  0  0  0  0  0  0  0  0
  188.9360  176.7540  138.5560 C   0  0  0  0  0  0  0  0  0  0  0  0
  187.5500  178.3980  142.3110 C   0  0  0  0  0  0  0  0  0  0  0  0
  188.5320  177.2810  144.6880 C   0  0  0  0  0  3  0  0  0  0  0  0
  188.6280  177.5020  139.6960 C   0  0  0  0  0  3  0  0  0  0  0  0
  184.7520  178.0170  141.5780 C   0  0  2  0  0  3  0  0  0  0  0  0
  190.6820  178.1860  144.1970 F   0  0  0  0  0  0  0  0  0  0  0  0
  185.2380  178.7770  138.8180 N   0  0  0  0  0  2  0  0  0  0  0  0
  190.1280  176.1180  138.4650 F   0  0  0  0  0  0  0  0  0  0  0  0
  185.3060  177.5320  142.8390 N   0  0  0  0  0  2  0  0  0  0  0  0
  185.5170  179.2610  141.1030 C   0  0  2  0  0  3  0  0  0  0  0  0
  188.8920  178.5740  142.6720 C   0  0  0  0  0  3  0  0  0  0  0  0
  188.0130  176.6600  137.5110 C   0  0  0  0  0  3  0  0  0  0  0  0
  186.6950  177.6590  143.1530 C   0  0  0  0  0  0  0  0  0  0  0  0
  187.1900  177.1090  144.3400 C   0  0  0  0  0  3  0  0  0  0  0  0
  185.0040  179.7460  139.8140 N   0  0  0  0  0  2  0  0  0  0  0  0
  186.4860  178.0870  138.7310 C   0  0  0  0  0  0  0  0  0  0  0  0
  186.7880  177.3270  137.5980 C   0  0  0  0  0  3  0  0  0  0  0  0
  182.6180  176.9190  140.0390 O   0  0  0  0  0  0  0  0  0  0  0  0
  182.3190  177.7360  140.9520 C   0  0  0  0  0  0  0  0  0  0  0  0
  183.3410  178.3310  141.7530 N   0  0  0  0  0  2  0  0  0  0  0  0
  179.5800  180.4890  140.0660 N   0  0  0  0  0  0  0  0  0  0  0  0
  180.0930  178.1150  139.8980 C   0  0  0  0  0  2  0  0  0  0  0  0
  181.1820  179.4940  143.1330 O   0  0  0  0  0  0  0  0  0  0  0  0
  179.7250  181.7630  139.3850 C   0  0  0  0  0  1  0  0  0  0  0  0
  180.1860  179.4740  139.2080 C   0  0  0  0  0  2  0  0  0  0  0  0
  180.7900  179.4080  141.9400 C   0  0  0  0  0  0  0  0  0  0  0  0
  180.8900  178.1000  141.2060 C   0  0  2  0  0  3  0  0  0  0  0  0
  180.3220  180.5780  141.2590 N   0  0  0  0  0  2  0  0  0  0  0  0
  1  9  1  0  0  0  0
  1  6  1  0  0  0  0
  2  3  1  6  0  0  0
  2 13  1  0  0  0  0
  2  5  1  0  0  0  0
  4  7  2  0  0  0  0
  5 14  1  0  0  0  0
  5 16  2  0  0  0  0
  7  3  1  0  0  0  0
  8 23  1  1  0  0  0
  8 12  1  0  0  0  0
 10 18  1  0  0  0  0
 11  4  1  0  0  0  0
 12 16  1  0  0  0  0
 13 18  1  6  0  0  0
 13  8  1  0  0  0  0
 14  1  2  0  0  0  0
 15 20  2  0  0  0  0
 15  4  1  0  0  0  0
 16 17  1  0  0  0  0
 17  6  2  0  0  0  0
 19 10  1  0  0  0  0
 19  3  2  0  0  0  0
 20 19  1  0  0  0  0
 21 22  2  0  0  0  0
 22 23  1  0  0  0  0
 24 31  1  0  0  0  0
 25 30  1  0  0  0  0
 27 24  1  0  0  0  0
 28 25  1  0  0  0  0
 28 24  1  0  0  0  0
 29 26  2  0  0  0  0
 30 22  1  6  0  0  0
 30 29  1  0  0  0  0
 31 29  1  0  0  0  0
M  END
>  <MODEL>
4

>  <REMARK>
 VINA RESULT:      -8.0      4.235      6.700
  Name = 
  2 active torsions:
  status: ('A' for Active; 'I' for Inactive)
    1  A    between atoms: C_5  and  C_30
    2  A    between atoms: C_10  and  N_16
                            x       y       z     vdW  Elec       q    Type
                         _______ _______ _______ _____ _____    ______ ____

>  <TORSDO>
F 2

$$$$
=
 OpenBabel11122411173D

 31 35  0  0  1  0  0  0  0  0999 V2000
  188.7690  178.0230  144.1300 C   0  0  0  0  0  0  0  0  0  0  0  0
  186.8130  179.0030  141.0150 C   0  0  2  0  0  3  0  0  0  0  0  0
  187.3140  178.1620  139.8560 C   0  0  0  0  0  0  0  0  0  0  0  0
  189.0020  176.7520  138.8190 C   0  0  0  0  0  0  0  0  0  0  0  0
  187.1530  178.4110  142.3630 C   0  0  0  0  0  0  0  0  0  0  0  0
  187.8160  177.2960  144.8480 C   0  0  0  0  0  3  0  0  0  0  0  0
  188.5530  177.5040  139.9090 C   0  0  0  0  0  3  0  0  0  0  0  0
  184.4700  178.0400  141.2770 C   0  0  2  0  0  3  0  0  0  0  0  0
  190.0150  178.1890  144.6350 F   0  0  0  0  0  0  0  0  0  0  0  0
  185.3100  178.7910  138.6010 N   0  0  0  0  0  2  0  0  0  0  0  0
  190.1930  176.1110  138.8840 F   0  0  0  0  0  0  0  0  0  0  0  0
  184.8560  177.5560  142.5990 N   0  0  0  0  0  2  0  0  0  0  0  0
  185.2950  179.2800  140.9020 C   0  0  2  0  0  3  0  0  0  0  0  0
  188.4380  178.5820  142.8920 C   0  0  0  0  0  3  0  0  0  0  0  0
  188.2200  176.6590  137.6650 C   0  0  0  0  0  3  0  0  0  0  0  0
  186.1930  177.6780  143.0890 C   0  0  0  0  0  0  0  0  0  0  0  0
  186.5290  177.1280  144.3310 C   0  0  0  0  0  3  0  0  0  0  0  0
  184.9550  179.7640  139.5570 N   0  0  0  0  0  2  0  0  0  0  0  0
  186.5550  178.0950  138.6760 C   0  0  0  0  0  0  0  0  0  0  0  0
  186.9970  177.3310  137.5930 C   0  0  0  0  0  3  0  0  0  0  0  0
  182.5640  177.0260  139.4140 O   0  0  0  0  0  0  0  0  0  0  0  0
  182.1460  177.8090  140.3100 C   0  0  0  0  0  0  0  0  0  0  0  0
  183.0500  178.3600  141.2690 N   0  0  0  0  0  2  0  0  0  0  0  0
  179.2950  178.8430  142.8920 N   0  0  0  0  0  0  0  0  0  0  0  0
  180.5220  179.5960  140.9290 C   0  0  0  0  0  2  0  0  0  0  0  0
  179.7620  175.9980  140.7350 O   0  0  0  0  0  0  0  0  0  0  0  0
  179.3070  178.8420  144.3430 C   0  0  0  0  0  1  0  0  0  0  0  0
  180.4670  179.5960  142.4550 C   0  0  0  0  0  2  0  0  0  0  0  0
  179.9230  177.1640  141.1790 C   0  0  0  0  0  0  0  0  0  0  0  0
  180.6970  178.1760  140.3800 C   0  0  2  0  0  3  0  0  0  0  0  0
  179.4360  177.5030  142.4830 N   0  0  0  0  0  2  0  0  0  0  0  0
  1  9  1  0  0  0  0
  1  6  1  0  0  0  0
  2  3  1  6  0  0  0
  2  5  1  0  0  0  0
  3  7  1  0  0  0  0
  4 11  1  0  0  0  0
  4  7  2  0  0  0  0
  5 14  1  0  0  0  0
  5 16  2  0  0  0  0
  8 23  1  1  0  0  0
  8 12  1  0  0  0  0
 10 19  1  0  0  0  0
 10 18  1  0  0  0  0
 12 16  1  0  0  0  0
 13 18  1  6  0  0  0
 13  2  1  0  0  0  0
 13  8  1  0  0  0  0
 14  1  2  0  0  0  0
 15  4  1  0  0  0  0
 16 17  1  0  0  0  0
 17  6  2  0  0  0  0
 19  3  2  0  0  0  0
 20 15  2  0  0  0  0
 20 19  1  0  0  0  0
 21 22  2  0  0  0  0
 22 23  1  0  0  0  0
 24 27  1  0  0  0  0
 25 28  1  0  0  0  0
 26 29  2  0  0  0  0
 28 24  1  0  0  0  0
 29 31  1  0  0  0  0
 30 22  1  1  0  0  0
 30 25  1  0  0  0  0
 30 29  1  0  0  0  0
 31 24  1  0  0  0  0
M  END
>  <MODEL>
5

>  <REMARK>
 VINA RESULT:      -8.0      4.157      7.070
  Name = 
  2 active torsions:
  status: ('A' for Active; 'I' for Inactive)
    1  A    between atoms: C_5  and  C_30
    2  A    between atoms: C_10  and  N_16
                            x       y       z     vdW  Elec       q    Type
                         _______ _______ _______ _____ _____    ______ ____

>  <TORSDO>
F 2

$$$$
=
 OpenBabel11122411173D

 31 35  0  0  1  0  0  0  0  0999 V2000
  186.6850  178.4050  147.0000 C   0  0  0  0  0  0  0  0  0  0  0  0
  189.7820  178.2390  144.7930 C   0  0  2  0  0  3  0  0  0  0  0  0
  190.6190  177.0550  145.2400 C   0  0  0  0  0  0  0  0  0  0  0  0
  191.2420  175.3900  146.8980 C   0  0  0  0  0  0  0  0  0  0  0  0
  188.3440  178.1490  145.2490 C   0  0  0  0  0  0  0  0  0  0  0  0
  185.6890  177.9600  146.1260 C   0  0  0  0  0  3  0  0  0  0  0  0
  190.4430  176.4660  146.5020 C   0  0  0  0  0  3  0  0  0  0  0  0
  189.0230  177.4050  142.5100 C   0  0  2  0  0  3  0  0  0  0  0  0
  186.3670  178.7450  148.2720 F   0  0  0  0  0  0  0  0  0  0  0  0
  191.8520  177.1980  143.1300 N   0  0  0  0  0  2  0  0  0  0  0  0
  191.0570  174.8200  148.1120 F   0  0  0  0  0  0  0  0  0  0  0  0
  187.6490  177.4070  143.0060 N   0  0  0  0  0  2  0  0  0  0  0  0
  189.8630  178.4470  143.2620 C   0  0  2  0  0  3  0  0  0  0  0  0
  188.0090  178.5020  146.5620 C   0  0  0  0  0  3  0  0  0  0  0  0
  192.2300  174.9000  146.0390 C   0  0  0  0  0  3  0  0  0  0  0  0
  187.3380  177.7010  144.3700 C   0  0  0  0  0  0  0  0  0  0  0  0
  186.0140  177.6140  144.8120 C   0  0  0  0  0  3  0  0  0  0  0  0
  191.2610  178.4370  142.8100 N   0  0  0  0  0  2  0  0  0  0  0  0
  191.6420  176.5810  144.4020 C   0  0  0  0  0  0  0  0  0  0  0  0
  192.4310  175.4960  144.7920 C   0  0  0  0  0  3  0  0  0  0  0  0
  190.5540  176.0030  140.5560 O   0  0  0  0  0  0  0  0  0  0  0  0
  189.8130  176.9410  140.1550 C   0  0  0  0  0  0  0  0  0  0  0  0
  189.0270  177.6900  141.0830 N   0  0  0  0  0  2  0  0  0  0  0  0
  187.2900  177.1020  137.0770 N   0  0  0  0  0  0  0  0  0  0  0  0
  188.7760  178.4460  138.4600 C   0  0  0  0  0  2  0  0  0  0  0  0
  190.2230  175.1320  137.7670 O   0  0  0  0  0  0  0  0  0  0  0  0
  185.9260  176.6180  136.9640 C   0  0  0  0  0  1  0  0  0  0  0  0
  187.3480  177.9390  138.2730 C   0  0  0  0  0  2  0  0  0  0  0  0
  189.4030  176.0810  137.8740 C   0  0  0  0  0  0  0  0  0  0  0  0
  189.7500  177.2880  138.7000 C   0  0  2  0  0  3  0  0  0  0  0  0
  188.1090  175.9730  137.2710 N   0  0  0  0  0  2  0  0  0  0  0  0
  1  9  1  0  0  0  0
  2  3  1  6  0  0  0
  2  5  1  0  0  0  0
  3  7  1  0  0  0  0
  4 11  1  0  0  0  0
  5 14  2  0  0  0  0
  6  1  2  0  0  0  0
  7  4  2  0  0  0  0
  8 23  1  6  0  0  0
  8 12  1  0  0  0  0
  8 13  1  0  0  0  0
 10 19  1  0  0  0  0
 12 16  1  0  0  0  0
 13 18  1  6  0  0  0
 13  2  1  0  0  0  0
 14  1  1  0  0  0  0
 15  4  1  0  0  0  0
 16 17  2  0  0  0  0
 16  5  1  0  0  0  0
 17  6  1  0  0  0  0
 18 10  1  0  0  0  0
 19 20  1  0  0  0  0
 19  3  2  0  0  0  0
 20 15  2  0  0  0  0
 22 21  2  0  0  0  0
 22 23  1  0  0  0  0
 24 31  1  0  0  0  0
 24 28  1  0  0  0  0
 25 30  1  0  0  0  0
 26 29  2  0  0  0  0
 27 24  1  0  0  0  0
 28 25  1  0  0  0  0
 29 30  1  0  0  0  0
 30 22  1  1  0  0  0
 31 29  1  0  0  0  0
M  END
>  <MODEL>
6

>  <REMARK>
 VINA RESULT:      -7.9      1.785      4.433
  Name = 
  2 active torsions:
  status: ('A' for Active; 'I' for Inactive)
    1  A    between atoms: C_5  and  C_30
    2  A    between atoms: C_10  and  N_16
                            x       y       z     vdW  Elec       q    Type
                         _______ _______ _______ _____ _____    ______ ____

>  <TORSDO>
F 2

$$$$
=
 OpenBabel11122411173D

 31 35  0  0  1  0  0  0  0  0999 V2000
  183.9590  178.7950  144.4920 C   0  0  0  0  0  0  0  0  0  0  0  0
  182.6730  178.0550  140.9870 C   0  0  2  0  0  3  0  0  0  0  0  0
  181.4770  178.9500  140.7220 C   0  0  0  0  0  0  0  0  0  0  0  0
  179.6650  180.3710  141.5010 C   0  0  0  0  0  0  0  0  0  0  0  0
  183.5450  178.5570  142.1140 C   0  0  0  0  0  0  0  0  0  0  0  0
  185.1320  179.5050  144.2220 C   0  0  0  0  0  3  0  0  0  0  0  0
  180.7770  179.5690  141.7700 C   0  0  0  0  0  3  0  0  0  0  0  0
  184.3470  179.0650  139.3550 C   0  0  2  0  0  3  0  0  0  0  0  0
  183.5870  178.5650  145.7750 F   0  0  0  0  0  0  0  0  0  0  0  0
  181.6980  178.4510  138.3360 N   0  0  0  0  0  2  0  0  0  0  0  0
  179.0040  180.9750  142.5170 F   0  0  0  0  0  0  0  0  0  0  0  0
  185.1680  179.4590  140.4960 N   0  0  0  0  0  2  0  0  0  0  0  0
  183.5080  177.8270  139.7040 C   0  0  2  0  0  3  0  0  0  0  0  0
  183.1690  178.3190  143.4420 C   0  0  0  0  0  3  0  0  0  0  0  0
  179.2370  180.5540  140.1830 C   0  0  0  0  0  3  0  0  0  0  0  0
  184.7300  179.2720  141.8440 C   0  0  0  0  0  0  0  0  0  0  0  0
  185.5190  179.7380  142.9000 C   0  0  0  0  0  3  0  0  0  0  0  0
  182.6410  177.4330  138.5850 N   0  0  0  0  0  2  0  0  0  0  0  0
  181.0140  179.1070  139.4050 C   0  0  0  0  0  0  0  0  0  0  0  0
  179.9110  179.9210  139.1350 C   0  0  0  0  0  3  0  0  0  0  0  0
  187.0860  178.2870  139.4990 O   0  0  0  0  0  0  0  0  0  0  0  0
  186.5680  178.3900  138.3540 C   0  0  0  0  0  0  0  0  0  0  0  0
  185.2030  178.7850  138.2110 N   0  0  0  0  0  2  0  0  0  0  0  0
  189.6560  176.2270  137.0690 N   0  0  0  0  0  0  0  0  0  0  0  0
  187.2760  176.6250  136.7430 C   0  0  0  0  0  2  0  0  0  0  0  0
  189.0820  179.7670  137.3930 O   0  0  0  0  0  0  0  0  0  0  0  0
  190.6120  175.4310  137.8170 C   0  0  0  0  0  1  0  0  0  0  0  0
  188.3230  175.7890  137.4770 C   0  0  0  0  0  2  0  0  0  0  0  0
  188.8030  178.5420  137.3100 C   0  0  0  0  0  0  0  0  0  0  0  0
  187.3770  178.1040  137.1280 C   0  0  2  0  0  3  0  0  0  0  0  0
  189.8380  177.5650  137.4680 N   0  0  0  0  0  2  0  0  0  0  0  0
  1  9  1  0  0  0  0
  2  3  1  6  0  0  0
  2  5  1  0  0  0  0
  3  7  1  0  0  0  0
  4  7  2  0  0  0  0
  4 11  1  0  0  0  0
  5 14  1  0  0  0  0
  6  1  1  0  0  0  0
  8 23  1  6  0  0  0
  8 13  1  0  0  0  0
  8 12  1  0  0  0  0
 10 18  1  0  0  0  0
 10 19  1  0  0  0  0
 12 16  1  0  0  0  0
 13 18  1  6  0  0  0
 13  2  1  0  0  0  0
 14  1  2  0  0  0  0
 15  4  1  0  0  0  0
 16  5  2  0  0  0  0
 16 17  1  0  0  0  0
 17  6  2  0  0  0  0
 19  3  2  0  0  0  0
 20 19  1  0  0  0  0
 20 15  2  0  0  0  0
 22 21  2  0  0  0  0
 23 22  1  0  0  0  0
 24 31  1  0  0  0  0
 24 28  1  0  0  0  0
 24 27  1  0  0  0  0
 25 30  1  0  0  0  0
 25 28  1  0  0  0  0
 29 26  2  0  0  0  0
 29 31  1  0  0  0  0
 30 29  1  0  0  0  0
 30 22  1  1  0  0  0
M  END
>  <MODEL>
7

>  <REMARK>
 VINA RESULT:      -7.8      4.355      5.931
  Name = 
  2 active torsions:
  status: ('A' for Active; 'I' for Inactive)
    1  A    between atoms: C_5  and  C_30
    2  A    between atoms: C_10  and  N_16
                            x       y       z     vdW  Elec       q    Type
                         _______ _______ _______ _____ _____    ______ ____

>  <TORSDO>
F 2

$$$$
=
 OpenBabel11122411173D

 31 35  0  0  1  0  0  0  0  0999 V2000
  186.2150  177.9310  138.1120 C   0  0  0  0  0  0  0  0  0  0  0  0
  189.6520  177.8490  139.7450 C   0  0  2  0  0  3  0  0  0  0  0  0
  189.4940  177.3200  141.1580 C   0  0  0  0  0  0  0  0  0  0  0  0
  188.1310  176.8380  143.1130 C   0  0  0  0  0  0  0  0  0  0  0  0
  188.4850  177.5010  138.8510 C   0  0  0  0  0  0  0  0  0  0  0  0
  186.2960  176.8540  137.2240 C   0  0  0  0  0  3  0  0  0  0  0  0
  188.2470  177.3110  141.8030 C   0  0  0  0  0  3  0  0  0  0  0  0
  190.9290  175.9140  138.6900 C   0  0  2  0  0  3  0  0  0  0  0  0
  185.0770  178.6620  138.1870 F   0  0  0  0  0  0  0  0  0  0  0  0
  191.9090  176.9310  141.2270 N   0  0  0  0  0  2  0  0  0  0  0  0
  186.9220  176.8220  143.7230 F   0  0  0  0  0  0  0  0  0  0  0  0
  189.7830  175.6820  137.8160 N   0  0  0  0  0  2  0  0  0  0  0  0
  190.9870  177.3900  139.1120 C   0  0  2  0  0  3  0  0  0  0  0  0
  187.3070  178.2550  138.9210 C   0  0  0  0  0  3  0  0  0  0  0  0
  189.2630  176.3780  143.7920 C   0  0  0  0  0  3  0  0  0  0  0  0
  188.5640  176.4170  137.9540 C   0  0  0  0  0  0  0  0  0  0  0  0
  187.4700  176.1020  137.1420 C   0  0  0  0  0  3  0  0  0  0  0  0
  192.1090  177.6430  140.0260 N   0  0  0  0  0  2  0  0  0  0  0  0
  190.6310  176.8930  141.8640 C   0  0  0  0  0  0  0  0  0  0  0  0
  190.5130  176.4060  143.1680 C   0  0  0  0  0  3  0  0  0  0  0  0
  191.2790  173.5640  137.1140 O   0  0  0  0  0  0  0  0  0  0  0  0
  192.2600  174.3500  137.2170 C   0  0  0  0  0  0  0  0  0  0  0  0
  192.1540  175.5400  138.0000 N   0  0  0  0  0  2  0  0  0  0  0  0
  196.1830  174.1100  137.8650 N   0  0  0  0  0  0  0  0  0  0  0  0
  194.2340  172.8300  137.1610 C   0  0  0  0  0  2  0  0  0  0  0  0
  194.1430  176.2570  135.8160 O   0  0  0  0  0  0  0  0  0  0  0  0
  196.9610  174.5030  139.0250 C   0  0  0  0  0  1  0  0  0  0  0  0
  195.1090  173.2430  138.3430 C   0  0  0  0  0  2  0  0  0  0  0  0
  194.4490  175.2500  136.5070 C   0  0  0  0  0  0  0  0  0  0  0  0
  193.5510  174.0450  136.5250 C   0  0  2  0  0  3  0  0  0  0  0  0
  195.6170  175.2860  137.3370 N   0  0  0  0  0  2  0  0  0  0  0  0
  1  9  1  0  0  0  0
  1 14  1  0  0  0  0
  2  5  1  6  0  0  0
  2  3  1  0  0  0  0
  3  7  2  0  0  0  0
  3 19  1  0  0  0  0
  4 11  1  0  0  0  0
  4 15  2  0  0  0  0
  5 14  2  0  0  0  0
  6  1  2  0  0  0  0
  7  4  1  0  0  0  0
  8 23  1  6  0  0  0
  8 13  1  0  0  0  0
 10 19  1  0  0  0  0
 12 16  1  0  0  0  0
 12  8  1  0  0  0  0
 13  2  1  0  0  0  0
 13 18  1  1  0  0  0
 16  5  1  0  0  0  0
 17  6  1  0  0  0  0
 17 16  2  0  0  0  0
 18 10  1  0  0  0  0
 19 20  2  0  0  0  0
 20 15  1  0  0  0  0
 21 22  2  0  0  0  0
 22 23  1  0  0  0  0
 24 28  1  0  0  0  0
 24 27  1  0  0  0  0
 25 28  1  0  0  0  0
 26 29  2  0  0  0  0
 29 30  1  0  0  0  0
 29 31  1  0  0  0  0
 30 25  1  0  0  0  0
 30 22  1  1  0  0  0
 31 24  1  0  0  0  0
M  END
>  <MODEL>
8

>  <REMARK>
 VINA RESULT:      -7.8      4.744      6.951
  Name = 
  2 active torsions:
  status: ('A' for Active; 'I' for Inactive)
    1  A    between atoms: C_5  and  C_30
    2  A    between atoms: C_10  and  N_16
                            x       y       z     vdW  Elec       q    Type
                         _______ _______ _______ _____ _____    ______ ____

>  <TORSDO>
F 2

$$$$
=
 OpenBabel11122411173D

 31 35  0  0  1  0  0  0  0  0999 V2000
  183.5850  179.0030  143.2620 C   0  0  0  0  0  0  0  0  0  0  0  0
  182.9220  177.9160  139.6750 C   0  0  2  0  0  3  0  0  0  0  0  0
  182.0770  178.9820  139.0040 C   0  0  0  0  0  0  0  0  0  0  0  0
  180.5650  180.8830  139.1130 C   0  0  0  0  0  0  0  0  0  0  0  0
  183.6360  178.4190  140.9080 C   0  0  0  0  0  0  0  0  0  0  0  0
  184.9300  179.3780  143.2010 C   0  0  0  0  0  3  0  0  0  0  0  0
  181.3540  179.9240  139.7540 C   0  0  0  0  0  3  0  0  0  0  0  0
  185.1030  178.2140  138.3940 C   0  0  2  0  0  3  0  0  0  0  0  0
  182.9060  179.1040  144.4290 F   0  0  0  0  0  0  0  0  0  0  0  0
  182.6610  178.0090  136.8360 N   0  0  0  0  0  2  0  0  0  0  0  0
  179.8810  181.7950  139.8430 F   0  0  0  0  0  0  0  0  0  0  0  0
  185.7380  178.6280  139.6420 N   0  0  0  0  0  2  0  0  0  0  0  0
  183.9220  177.2760  138.6820 C   0  0  2  0  0  3  0  0  0  0  0  0
  182.9400  178.5220  142.1190 C   0  0  0  0  0  3  0  0  0  0  0  0
  180.4850  180.9030  137.7170 C   0  0  0  0  0  3  0  0  0  0  0  0
  184.9920  178.7960  140.8500 C   0  0  0  0  0  0  0  0  0  0  0  0
  185.6340  179.2690  141.9990 C   0  0  0  0  0  3  0  0  0  0  0  0
  183.2390  176.8760  137.4440 N   0  0  0  0  0  2  0  0  0  0  0  0
  181.9570  178.9860  137.6050 C   0  0  0  0  0  0  0  0  0  0  0  0
  181.1810  179.9550  136.9640 C   0  0  0  0  0  3  0  0  0  0  0  0
  187.1220  179.5210  136.8620 O   0  0  0  0  0  0  0  0  0  0  0  0
  187.0740  178.2620  136.8110 C   0  0  0  0  0  0  0  0  0  0  0  0
  186.0800  177.5460  137.5470 N   0  0  0  0  0  2  0  0  0  0  0  0
  187.5770  174.7560  134.9890 N   0  0  0  0  0  0  0  0  0  0  0  0
  187.4500  177.1580  134.6090 C   0  0  0  0  0  2  0  0  0  0  0  0
  189.2660  176.3870  137.7180 O   0  0  0  0  0  0  0  0  0  0  0  0
  186.7800  173.5460  135.0620 C   0  0  0  0  0  1  0  0  0  0  0  0
  186.6650  175.8490  134.6610 C   0  0  0  0  0  2  0  0  0  0  0  0
  188.5370  176.2730  136.6990 C   0  0  0  0  0  0  0  0  0  0  0  0
  188.0530  177.4990  135.9750 C   0  0  2  0  0  3  0  0  0  0  0  0
  188.1050  174.9740  136.2760 N   0  0  0  0  0  2  0  0  0  0  0  0
  1  9  1  0  0  0  0
  2  3  1  6  0  0  0
  2  5  1  0  0  0  0
  3  7  1  0  0  0  0
  4  7  2  0  0  0  0
  4 11  1  0  0  0  0
  5 14  1  0  0  0  0
  6  1  1  0  0  0  0
  8 23  1  6  0  0  0
  8 13  1  0  0  0  0
  8 12  1  0  0  0  0
 10 18  1  0  0  0  0
 10 19  1  0  0  0  0
 12 16  1  0  0  0  0
 13 18  1  6  0  0  0
 13  2  1  0  0  0  0
 14  1  2  0  0  0  0
 15  4  1  0  0  0  0
 16  5  2  0  0  0  0
 16 17  1  0  0  0  0
 17  6  2  0  0  0  0
 19  3  2  0  0  0  0
 20 19  1  0  0  0  0
 20 15  2  0  0  0  0
 22 21  2  0  0  0  0
 22 23  1  0  0  0  0
 24 27  1  0  0  0  0
 24 31  1  0  0  0  0
 25 28  1  0  0  0  0
 25 30  1  0  0  0  0
 28 24  1  0  0  0  0
 29 26  2  0  0  0  0
 30 29  1  0  0  0  0
 30 22  1  1  0  0  0
 31 29  1  0  0  0  0
M  END
>  <MODEL>
9

>  <REMARK>
 VINA RESULT:      -7.6      4.256      6.632
  Name = 
  2 active torsions:
  status: ('A' for Active; 'I' for Inactive)
    1  A    between atoms: C_5  and  C_30
    2  A    between atoms: C_10  and  N_16
                            x       y       z     vdW  Elec       q    Type
                         _______ _______ _______ _____ _____    ______ ____

>  <TORSDO>
F 2

$$$$
