=
 OpenBabel11122411573D

 28 32  0  0  1  0  0  0  0  0999 V2000
  189.5740  178.1390  138.1660 C   0  0  0  0  0  0  0  0  0  0  0  0
  192.6970  175.5630  134.5940 C   0  0  0  0  0  1  0  0  0  0  0  0
  186.6130  174.8170  137.2180 O   0  0  0  0  0  0  0  0  0  0  0  0
  189.9650  176.7140  140.5430 C   0  0  0  0  0  3  0  0  0  0  0  0
  188.6950  173.8220  136.7570 N   0  0  0  0  0  0  0  0  0  0  0  0
  189.3350  178.8100  136.9660 O   0  0  0  0  0  0  0  0  0  0  0  0
  193.7720  176.8340  136.3930 C   0  0  0  0  0  1  0  0  0  0  0  0
  193.1080  175.5090  136.0600 C   0  0  0  0  0  0  0  0  0  0  0  0
  193.6500  173.2300  136.8690 C   0  0  2  0  0  3  0  0  0  0  0  0
  191.8770  175.3260  136.9930 C   0  0  2  0  0  3  0  0  0  0  0  0
  186.5400  177.7510  137.6400 O   0  0  0  0  0  1  0  0  0  0  0  0
  189.7330  175.7880  135.9000 C   0  0  1  0  0  3  0  0  0  0  0  0
  192.1140  172.6470  136.0930 S   0  0  0  0  0  0  0  0  0  0  0  0
  194.1270  174.4560  136.2210 N   0  0  0  0  0  2  0  0  0  0  0  0
  187.0310  178.2150  136.4190 C   0  0  2  0  0  3  0  0  0  0  0  0
  190.3030  176.9400  138.1420 C   0  0  0  0  0  0  0  0  0  0  0  0
  187.8040  174.9140  136.8160 C   0  0  0  0  0  0  0  0  0  0  0  0
  194.7110  172.1580  136.7580 C   0  0  0  0  0  1  0  0  0  0  0  0
  187.5500  177.0660  135.5450 C   0  0  0  0  0  2  0  0  0  0  0  0
  190.4800  176.2240  139.3390 C   0  0  0  0  0  3  0  0  0  0  0  0
  189.0560  178.6250  139.3750 C   0  0  0  0  0  3  0  0  0  0  0  0
  189.2560  177.9150  140.5600 C   0  0  0  0  0  3  0  0  0  0  0  0
  188.0560  179.3330  136.6290 C   0  0  0  0  0  2  0  0  0  0  0  0
  189.8790  174.2570  136.0330 C   0  0  1  0  0  3  0  0  0  0  0  0
  188.3590  176.1100  136.3000 N   0  0  0  0  0  0  0  0  0  0  0  0
  191.1340  173.9910  136.8450 C   0  0  2  0  0  3  0  0  0  0  0  0
  188.3050  172.4310  136.9200 C   0  0  0  0  0  1  0  0  0  0  0  0
  190.8110  176.4090  136.8140 C   0  0  1  0  0  3  0  0  0  0  0  0
  1 21  1  0  0  0  0
  2  8  1  0  0  0  0
  4 22  1  0  0  0  0
  5 17  1  0  0  0  0
  5 27  1  0  0  0  0
  6  1  1  0  0  0  0
  8 14  1  0  0  0  0
  8  7  1  0  0  0  0
  9 18  1  6  0  0  0
 10  8  1  6  0  0  0
 12 24  1  0  0  0  0
 12 25  1  1  0  0  0
 12 28  1  0  0  0  0
 13  9  1  0  0  0  0
 14  9  1  0  0  0  0
 15 23  1  0  0  0  0
 15 11  1  1  0  0  0
 16  1  2  0  0  0  0
 16 20  1  0  0  0  0
 17  3  2  0  0  0  0
 19 25  1  0  0  0  0
 19 15  1  0  0  0  0
 20  4  2  0  0  0  0
 21 22  2  0  0  0  0
 23  6  1  0  0  0  0
 24  5  1  1  0  0  0
 24 26  1  0  0  0  0
 25 17  1  0  0  0  0
 26 13  1  6  0  0  0
 26 10  1  0  0  0  0
 28 10  1  0  0  0  0
 28 16  1  1  0  0  0
M  END
>  <MODEL>
1

>  <REMARK>
 VINA RESULT:      -5.7      0.000      0.000
  Name = 
  0 active torsions:
  status: ('A' for Active; 'I' for Inactive)
                            x       y       z     vdW  Elec       q    Type
                         _______ _______ _______ _____ _____    ______ ____

>  <TORSDO>
F 0

$$$$
=
 OpenBabel11122411573D

 28 32  0  0  1  0  0  0  0  0999 V2000
  179.7050  179.6330  136.9750 C   0  0  0  0  0  0  0  0  0  0  0  0
  180.6200  174.6620  138.8720 C   0  0  0  0  0  1  0  0  0  0  0  0
  183.7070  180.5720  138.9260 O   0  0  0  0  0  0  0  0  0  0  0  0
  181.1760  179.7200  134.5950 C   0  0  0  0  0  3  0  0  0  0  0  0
  183.8670  178.2700  138.4630 N   0  0  0  0  0  0  0  0  0  0  0  0
  179.0220  179.6080  138.1910 O   0  0  0  0  0  0  0  0  0  0  0  0
  179.2760  174.9150  136.8380 C   0  0  0  0  0  1  0  0  0  0  0  0
  180.7000  174.8690  137.3640 C   0  0  0  0  0  0  0  0  0  0  0  0
  182.7320  173.9060  136.3240 C   0  0  2  0  0  3  0  0  0  0  0  0
  181.4010  176.2110  137.0070 C   0  0  2  0  0  3  0  0  0  0  0  0
  181.0460  181.8560  138.6760 O   0  0  0  0  0  1  0  0  0  0  0  0
  181.5790  177.7640  138.8940 C   0  0  1  0  0  3  0  0  0  0  0  0
  183.7120  174.6920  137.6360 S   0  0  0  0  0  0  0  0  0  0  0  0
  181.3510  173.6890  136.7650 N   0  0  0  0  0  2  0  0  0  0  0  0
  180.3030  181.1300  139.6070 C   0  0  2  0  0  3  0  0  0  0  0  0
  180.5700  178.5750  136.6570 C   0  0  0  0  0  0  0  0  0  0  0  0
  183.1620  179.4410  138.8110 C   0  0  0  0  0  0  0  0  0  0  0  0
  183.3550  172.5770  135.9540 C   0  0  0  0  0  1  0  0  0  0  0  0
  181.0950  179.9340  140.1520 C   0  0  0  0  0  2  0  0  0  0  0  0
  181.3160  178.6360  135.4660 C   0  0  0  0  0  3  0  0  0  0  0  0
  179.5710  180.7210  136.1000 C   0  0  0  0  0  3  0  0  0  0  0  0
  180.3010  180.7600  134.9110 C   0  0  0  0  0  3  0  0  0  0  0  0
  178.9340  180.7470  139.0380 C   0  0  0  0  0  2  0  0  0  0  0  0
  182.9710  177.1410  138.6590 C   0  0  1  0  0  3  0  0  0  0  0  0
  181.7960  179.2000  139.1000 N   0  0  0  0  0  0  0  0  0  0  0  0
  182.8830  176.3010  137.3970 C   0  0  2  0  0  3  0  0  0  0  0  0
  185.3160  178.1630  138.4230 C   0  0  0  0  0  1  0  0  0  0  0  0
  180.7360  177.4330  137.6430 C   0  0  1  0  0  3  0  0  0  0  0  0
  1  6  1  0  0  0  0
  4 22  2  0  0  0  0
  4 20  1  0  0  0  0
  5 17  1  0  0  0  0
  6 23  1  0  0  0  0
  7  8  1  0  0  0  0
  8  2  1  0  0  0  0
  9 18  1  1  0  0  0
  9 14  1  0  0  0  0
  9 13  1  0  0  0  0
 10  8  1  1  0  0  0
 10 26  1  0  0  0  0
 10 28  1  0  0  0  0
 12 25  1  6  0  0  0
 14  8  1  0  0  0  0
 15 11  1  6  0  0  0
 15 19  1  0  0  0  0
 16  1  1  0  0  0  0
 17  3  2  0  0  0  0
 17 25  1  0  0  0  0
 20 16  2  0  0  0  0
 21  1  2  0  0  0  0
 22 21  1  0  0  0  0
 23 15  1  0  0  0  0
 24  5  1  6  0  0  0
 24 12  1  0  0  0  0
 25 19  1  0  0  0  0
 26 13  1  1  0  0  0
 26 24  1  0  0  0  0
 27  5  1  0  0  0  0
 28 16  1  6  0  0  0
 28 12  1  0  0  0  0
M  END
>  <MODEL>
2

>  <REMARK>
 VINA RESULT:      -4.8      6.714      9.878
  Name = 
  0 active torsions:
  status: ('A' for Active; 'I' for Inactive)
                            x       y       z     vdW  Elec       q    Type
                         _______ _______ _______ _____ _____    ______ ____

>  <TORSDO>
F 0

$$$$
=
 OpenBabel11122411573D

 28 32  0  0  1  0  0  0  0  0999 V2000
  180.4820  179.1300  138.4310 C   0  0  0  0  0  0  0  0  0  0  0  0
  184.7490  175.9420  137.5490 C   0  0  0  0  0  1  0  0  0  0  0  0
  182.0070  179.1400  142.7180 O   0  0  0  0  0  0  0  0  0  0  0  0
  181.5530  181.7150  138.3530 C   0  0  0  0  0  3  0  0  0  0  0  0
  183.9550  178.7350  141.4610 N   0  0  0  0  0  0  0  0  0  0  0  0
  179.9610  177.8390  138.5300 O   0  0  0  0  0  0  0  0  0  0  0  0
  183.9280  177.3420  135.7130 C   0  0  0  0  0  1  0  0  0  0  0  0
  184.7860  177.3490  136.9660 C   0  0  0  0  0  0  0  0  0  0  0  0
  186.8900  178.5730  137.4260 C   0  0  2  0  0  3  0  0  0  0  0  0
  184.2000  178.3950  137.9580 C   0  0  2  0  0  3  0  0  0  0  0  0
  179.3940  178.9400  141.3320 O   0  0  0  0  0  1  0  0  0  0  0  0
  182.9040  177.4040  139.7870 C   0  0  1  0  0  3  0  0  0  0  0  0
  186.7450  178.0620  139.1640 S   0  0  0  0  0  0  0  0  0  0  0  0
  186.1690  177.6460  136.5500 N   0  0  0  0  0  2  0  0  0  0  0  0
  179.4140  177.6140  140.8990 C   0  0  2  0  0  3  0  0  0  0  0  0
  181.8730  179.3000  138.3670 C   0  0  0  0  0  0  0  0  0  0  0  0
  182.5700  178.6340  141.7100 C   0  0  0  0  0  0  0  0  0  0  0  0
  188.3500  178.6070  137.0300 C   0  0  0  0  0  1  0  0  0  0  0  0
  180.7830  176.9630  141.1390 C   0  0  0  0  0  2  0  0  0  0  0  0
  182.4010  180.6030  138.3430 C   0  0  0  0  0  3  0  0  0  0  0  0
  179.6340  180.2470  138.4450 C   0  0  0  0  0  3  0  0  0  0  0  0
  180.1700  181.5360  138.4010 C   0  0  0  0  0  3  0  0  0  0  0  0
  178.9310  177.5030  139.4500 C   0  0  0  0  0  2  0  0  0  0  0  0
  184.2700  177.8430  140.3560 C   0  0  1  0  0  3  0  0  0  0  0  0
  181.8930  177.8350  140.7570 N   0  0  0  0  0  0  0  0  0  0  0  0
  185.0000  178.5900  139.2530 C   0  0  2  0  0  3  0  0  0  0  0  0
  184.9320  179.2170  142.4230 C   0  0  0  0  0  1  0  0  0  0  0  0
  182.7710  178.0780  138.4040 C   0  0  1  0  0  3  0  0  0  0  0  0
  1 21  1  0  0  0  0
  1  6  1  0  0  0  0
  4 22  1  0  0  0  0
  5 17  1  0  0  0  0
  5 27  1  0  0  0  0
  6 23  1  0  0  0  0
  7  8  1  0  0  0  0
  8  2  1  0  0  0  0
  9 18  1  6  0  0  0
  9 13  1  0  0  0  0
 10  8  1  1  0  0  0
 10 28  1  0  0  0  0
 10 26  1  0  0  0  0
 12 24  1  0  0  0  0
 12 25  1  1  0  0  0
 14  8  1  0  0  0  0
 14  9  1  0  0  0  0
 15 19  1  0  0  0  0
 15 11  1  6  0  0  0
 16  1  2  0  0  0  0
 17  3  2  0  0  0  0
 20  4  2  0  0  0  0
 20 16  1  0  0  0  0
 22 21  2  0  0  0  0
 23 15  1  0  0  0  0
 24  5  1  1  0  0  0
 25 19  1  0  0  0  0
 25 17  1  0  0  0  0
 26 13  1  6  0  0  0
 26 24  1  0  0  0  0
 28 16  1  1  0  0  0
 28 12  1  0  0  0  0
M  END
>  <MODEL>
3

>  <REMARK>
 VINA RESULT:      -4.6      6.112      8.814
  Name = 
  0 active torsions:
  status: ('A' for Active; 'I' for Inactive)
                            x       y       z     vdW  Elec       q    Type
                         _______ _______ _______ _____ _____    ______ ____

>  <TORSDO>
F 0

$$$$
=
 OpenBabel11122411573D

 28 32  0  0  1  0  0  0  0  0999 V2000
  186.5430  175.4920  136.6560 C   0  0  0  0  0  0  0  0  0  0  0  0
  183.0530  177.4610  140.2750 C   0  0  0  0  0  1  0  0  0  0  0  0
  182.7790  173.9780  134.5950 O   0  0  0  0  0  0  0  0  0  0  0  0
  186.5370  177.4070  134.6150 C   0  0  0  0  0  3  0  0  0  0  0  0
  182.0120  175.8500  135.7970 N   0  0  0  0  0  0  0  0  0  0  0  0
  186.4980  174.5100  137.6460 O   0  0  0  0  0  0  0  0  0  0  0  0
  185.1860  178.6220  139.9460 C   0  0  0  0  0  1  0  0  0  0  0  0
  183.7850  178.4570  139.3840 C   0  0  0  0  0  0  0  0  0  0  0  0
  182.3030  180.1410  138.3310 C   0  0  2  0  0  3  0  0  0  0  0  0
  183.8990  177.9410  137.9210 C   0  0  2  0  0  3  0  0  0  0  0  0
  185.4960  172.9570  135.2020 O   0  0  0  0  0  1  0  0  0  0  0  0
  183.4390  175.5460  137.6800 C   0  0  1  0  0  3  0  0  0  0  0  0
  181.1920  178.7850  137.8520 S   0  0  0  0  0  0  0  0  0  0  0  0
  183.1120  179.7640  139.4940 N   0  0  0  0  0  2  0  0  0  0  0  0
  185.3730  172.6380  136.5550 C   0  0  2  0  0  3  0  0  0  0  0  0
  185.6100  176.5400  136.6920 C   0  0  0  0  0  0  0  0  0  0  0  0
  182.8450  174.7280  135.6060 C   0  0  0  0  0  0  0  0  0  0  0  0
  181.4870  181.3700  138.6630 C   0  0  0  0  0  1  0  0  0  0  0  0
  184.0350  173.1240  137.1300 C   0  0  0  0  0  2  0  0  0  0  0  0
  185.6070  177.4880  135.6540 C   0  0  0  0  0  3  0  0  0  0  0  0
  187.4730  175.4120  135.6090 C   0  0  0  0  0  3  0  0  0  0  0  0
  187.4720  176.3710  134.5950 C   0  0  0  0  0  3  0  0  0  0  0  0
  186.5910  173.1230  137.3470 C   0  0  0  0  0  2  0  0  0  0  0  0
  182.2100  176.3200  137.1590 C   0  0  1  0  0  3  0  0  0  0  0  0
  183.7040  174.4840  136.7050 N   0  0  0  0  0  0  0  0  0  0  0  0
  182.5670  177.7970  137.1710 C   0  0  2  0  0  3  0  0  0  0  0  0
  180.8370  176.1490  134.9940 C   0  0  0  0  0  1  0  0  0  0  0  0
  184.5810  176.5760  137.8080 C   0  0  1  0  0  3  0  0  0  0  0  0
  1 16  1  0  0  0  0
  1  6  1  0  0  0  0
  3 17  2  0  0  0  0
  4 20  1  0  0  0  0
  8 14  1  0  0  0  0
  8  7  1  0  0  0  0
  8  2  1  0  0  0  0
  9 18  1  1  0  0  0
  9 14  1  0  0  0  0
 10  8  1  1  0  0  0
 12 25  1  6  0  0  0
 12 28  1  0  0  0  0
 13  9  1  0  0  0  0
 15 11  1  6  0  0  0
 15 19  1  0  0  0  0
 15 23  1  0  0  0  0
 17  5  1  0  0  0  0
 17 25  1  0  0  0  0
 20 16  2  0  0  0  0
 21  1  2  0  0  0  0
 22  4  2  0  0  0  0
 22 21  1  0  0  0  0
 23  6  1  0  0  0  0
 24  5  1  6  0  0  0
 24 26  1  0  0  0  0
 24 12  1  0  0  0  0
 25 19  1  0  0  0  0
 26 13  1  1  0  0  0
 26 10  1  0  0  0  0
 27  5  1  0  0  0  0
 28 16  1  6  0  0  0
 28 10  1  0  0  0  0
M  END
>  <MODEL>
4

>  <REMARK>
 VINA RESULT:      -4.6      5.244      8.344
  Name = 
  0 active torsions:
  status: ('A' for Active; 'I' for Inactive)
                            x       y       z     vdW  Elec       q    Type
                         _______ _______ _______ _____ _____    ______ ____

>  <TORSDO>
F 0

$$$$
=
 OpenBabel11122411573D

 28 32  0  0  1  0  0  0  0  0999 V2000
  185.2910  175.0030  136.7050 C   0  0  0  0  0  0  0  0  0  0  0  0
  182.0980  177.6690  140.1480 C   0  0  0  0  0  1  0  0  0  0  0  0
  181.3750  174.0490  134.5950 O   0  0  0  0  0  0  0  0  0  0  0  0
  185.6490  176.8070  134.5960 C   0  0  0  0  0  3  0  0  0  0  0  0
  180.9030  176.0700  135.7040 N   0  0  0  0  0  0  0  0  0  0  0  0
  185.0610  174.0840  137.7300 O   0  0  0  0  0  0  0  0  0  0  0  0
  184.4010  178.4470  139.8380 C   0  0  0  0  0  1  0  0  0  0  0  0
  183.0050  178.4930  139.2420 C   0  0  0  0  0  0  0  0  0  0  0  0
  181.8480  180.3540  138.0860 C   0  0  2  0  0  3  0  0  0  0  0  0
  183.0630  177.9050  137.8030 C   0  0  2  0  0  3  0  0  0  0  0  0
  183.8690  172.6190  135.3170 O   0  0  0  0  0  1  0  0  0  0  0  0
  182.2170  175.6120  137.6380 C   0  0  1  0  0  3  0  0  0  0  0  0
  180.5380  179.1820  137.6250 S   0  0  0  0  0  0  0  0  0  0  0  0
  182.5560  179.8970  139.2850 N   0  0  0  0  0  2  0  0  0  0  0  0
  183.6650  172.3800  136.6760 C   0  0  2  0  0  3  0  0  0  0  0  0
  184.5450  176.1910  136.6770 C   0  0  0  0  0  0  0  0  0  0  0  0
  181.5420  174.8190  135.5790 C   0  0  0  0  0  0  0  0  0  0  0  0
  181.2400  181.7140  138.3490 C   0  0  0  0  0  1  0  0  0  0  0  0
  182.4140  173.1040  137.1940 C   0  0  0  0  0  2  0  0  0  0  0  0
  184.7220  177.0840  135.6040 C   0  0  0  0  0  3  0  0  0  0  0  0
  186.2180  174.7280  135.6900 C   0  0  0  0  0  3  0  0  0  0  0  0
  186.3990  175.6310  134.6410 C   0  0  0  0  0  3  0  0  0  0  0  0
  184.9280  172.6890  137.4840 C   0  0  0  0  0  2  0  0  0  0  0  0
  181.1460  176.5570  137.0530 C   0  0  1  0  0  3  0  0  0  0  0  0
  182.3240  174.4810  136.7100 N   0  0  0  0  0  0  0  0  0  0  0  0
  181.7430  177.9530  137.0210 C   0  0  2  0  0  3  0  0  0  0  0  0
  179.8130  176.5260  134.8570 C   0  0  0  0  0  1  0  0  0  0  0  0
  183.5120  176.4430  137.7600 C   0  0  1  0  0  3  0  0  0  0  0  0
  1  6  1  0  0  0  0
  3 17  2  0  0  0  0
  4 22  2  0  0  0  0
  4 20  1  0  0  0  0
  8 14  1  0  0  0  0
  8  7  1  0  0  0  0
  8  2  1  0  0  0  0
  9 18  1  1  0  0  0
  9 14  1  0  0  0  0
 10  8  1  1  0  0  0
 12 25  1  6  0  0  0
 12 28  1  0  0  0  0
 13  9  1  0  0  0  0
 15 11  1  6  0  0  0
 15 19  1  0  0  0  0
 15 23  1  0  0  0  0
 16  1  1  0  0  0  0
 17  5  1  0  0  0  0
 17 25  1  0  0  0  0
 20 16  2  0  0  0  0
 21  1  2  0  0  0  0
 22 21  1  0  0  0  0
 23  6  1  0  0  0  0
 24  5  1  6  0  0  0
 24 12  1  0  0  0  0
 25 19  1  0  0  0  0
 26 24  1  0  0  0  0
 26 13  1  1  0  0  0
 26 10  1  0  0  0  0
 27  5  1  0  0  0  0
 28 16  1  6  0  0  0
 28 10  1  0  0  0  0
M  END
>  <MODEL>
5

>  <REMARK>
 VINA RESULT:      -4.4      6.177      9.119
  Name = 
  0 active torsions:
  status: ('A' for Active; 'I' for Inactive)
                            x       y       z     vdW  Elec       q    Type
                         _______ _______ _______ _____ _____    ______ ____

>  <TORSDO>
F 0

$$$$
=
 OpenBabel11122411573D

 28 32  0  0  1  0  0  0  0  0999 V2000
  182.0650  178.9270  138.3700 C   0  0  0  0  0  0  0  0  0  0  0  0
  184.6840  175.8340  134.8030 C   0  0  0  0  0  1  0  0  0  0  0  0
  178.9310  175.6350  138.1680 O   0  0  0  0  0  0  0  0  0  0  0  0
  182.6940  177.7730  140.8410 C   0  0  0  0  0  3  0  0  0  0  0  0
  180.9190  174.5130  137.5970 N   0  0  0  0  0  0  0  0  0  0  0  0
  181.7040  179.4630  137.1330 O   0  0  0  0  0  0  0  0  0  0  0  0
  185.9920  177.2630  136.3040 C   0  0  0  0  0  1  0  0  0  0  0  0
  185.2610  175.9350  136.2090 C   0  0  0  0  0  0  0  0  0  0  0  0
  185.8370  173.7470  137.2190 C   0  0  2  0  0  3  0  0  0  0  0  0
  184.1430  175.9100  137.2900 C   0  0  2  0  0  3  0  0  0  0  0  0
  178.9810  178.5980  138.2400 O   0  0  0  0  0  1  0  0  0  0  0  0
  181.8980  176.3240  136.3990 C   0  0  1  0  0  3  0  0  0  0  0  0
  184.2070  173.1380  136.6970 S   0  0  0  0  0  0  0  0  0  0  0  0
  186.2660  174.8690  136.3790 N   0  0  0  0  0  2  0  0  0  0  0  0
  179.3380  178.8990  136.9250 C   0  0  2  0  0  3  0  0  0  0  0  0
  182.7550  177.7060  138.4080 C   0  0  0  0  0  0  0  0  0  0  0  0
  180.0680  175.6380  137.6250 C   0  0  0  0  0  0  0  0  0  0  0  0
  186.8510  172.6280  137.1190 C   0  0  0  0  0  1  0  0  0  0  0  0
  179.7220  177.6360  136.1420 C   0  0  0  0  0  2  0  0  0  0  0  0
  183.0530  177.1280  139.6540 C   0  0  0  0  0  3  0  0  0  0  0  0
  181.7030  179.5700  139.5630 C   0  0  0  0  0  3  0  0  0  0  0  0
  182.0220  178.9950  140.7950 C   0  0  0  0  0  3  0  0  0  0  0  0
  180.4080  179.9930  136.8830 C   0  0  0  0  0  2  0  0  0  0  0  0
  182.0200  174.8140  136.6960 C   0  0  1  0  0  3  0  0  0  0  0  0
  180.5900  176.7430  136.9100 N   0  0  0  0  0  0  0  0  0  0  0  0
  183.3550  174.5960  137.3880 C   0  0  2  0  0  3  0  0  0  0  0  0
  180.5150  173.1670  137.9690 C   0  0  0  0  0  1  0  0  0  0  0  0
  183.0910  177.0050  137.1040 C   0  0  1  0  0  3  0  0  0  0  0  0
  1 16  2  0  0  0  0
  1 21  1  0  0  0  0
  2  8  1  0  0  0  0
  5 17  1  0  0  0  0
  5 27  1  0  0  0  0
  6  1  1  0  0  0  0
  8  7  1  0  0  0  0
  8 14  1  0  0  0  0
  9 18  1  6  0  0  0
 10  8  1  6  0  0  0
 10 26  1  0  0  0  0
 12 24  1  0  0  0  0
 12 25  1  1  0  0  0
 12 28  1  0  0  0  0
 13  9  1  0  0  0  0
 14  9  1  0  0  0  0
 15 11  1  1  0  0  0
 16 20  1  0  0  0  0
 17  3  2  0  0  0  0
 19 25  1  0  0  0  0
 19 15  1  0  0  0  0
 20  4  2  0  0  0  0
 21 22  2  0  0  0  0
 22  4  1  0  0  0  0
 23 15  1  0  0  0  0
 23  6  1  0  0  0  0
 24 26  1  0  0  0  0
 24  5  1  1  0  0  0
 25 17  1  0  0  0  0
 26 13  1  6  0  0  0
 28 10  1  0  0  0  0
 28 16  1  1  0  0  0
M  END
>  <MODEL>
6

>  <REMARK>
 VINA RESULT:      -4.3      5.840      7.744
  Name = 
  0 active torsions:
  status: ('A' for Active; 'I' for Inactive)
                            x       y       z     vdW  Elec       q    Type
                         _______ _______ _______ _____ _____    ______ ____

>  <TORSDO>
F 0

$$$$
=
 OpenBabel11122411573D

 28 32  0  0  1  0  0  0  0  0999 V2000
  181.9460  178.3140  138.3970 C   0  0  0  0  0  0  0  0  0  0  0  0
  186.4920  177.5100  135.5960 C   0  0  0  0  0  1  0  0  0  0  0  0
  180.0790  175.7390  135.1430 O   0  0  0  0  0  0  0  0  0  0  0  0
  181.7070  176.0020  139.9560 C   0  0  0  0  0  3  0  0  0  0  0  0
  182.3230  175.0280  135.1630 N   0  0  0  0  0  0  0  0  0  0  0  0
  182.0360  179.4380  137.5740 O   0  0  0  0  0  0  0  0  0  0  0  0
  186.6500  177.8770  138.0140 C   0  0  0  0  0  1  0  0  0  0  0  0
  186.3680  176.8280  136.9530 C   0  0  0  0  0  0  0  0  0  0  0  0
  186.9530  174.4210  136.9260 C   0  0  2  0  0  3  0  0  0  0  0  0
  184.9350  176.2680  137.1830 C   0  0  2  0  0  3  0  0  0  0  0  0
  179.3920  178.2060  136.6370 O   0  0  0  0  0  1  0  0  0  0  0  0
  183.2630  177.1660  135.6340 C   0  0  1  0  0  3  0  0  0  0  0  0
  185.9000  174.2360  135.4570 S   0  0  0  0  0  0  0  0  0  0  0  0
  187.4220  175.8030  137.0590 N   0  0  0  0  0  2  0  0  0  0  0  0
  180.1970  179.1480  135.9960 C   0  0  2  0  0  3  0  0  0  0  0  0
  182.8210  177.2390  138.1780 C   0  0  0  0  0  0  0  0  0  0  0  0
  181.3030  175.9930  135.3050 C   0  0  0  0  0  0  0  0  0  0  0  0
  188.1440  173.4940  136.8140 C   0  0  0  0  0  1  0  0  0  0  0  0
  181.1660  178.4840  135.0080 C   0  0  0  0  0  2  0  0  0  0  0  0
  182.6820  176.0760  138.9580 C   0  0  0  0  0  3  0  0  0  0  0  0
  180.9670  178.2350  139.3970 C   0  0  0  0  0  3  0  0  0  0  0  0
  180.8520  177.0830  140.1780 C   0  0  0  0  0  3  0  0  0  0  0  0
  180.8890  180.0620  137.0110 C   0  0  0  0  0  2  0  0  0  0  0  0
  183.5980  175.7270  135.1890 C   0  0  1  0  0  3  0  0  0  0  0  0
  181.8040  177.2920  135.5660 N   0  0  0  0  0  0  0  0  0  0  0  0
  184.5160  175.1310  136.2420 C   0  0  2  0  0  3  0  0  0  0  0  0
  182.1300  173.7050  134.5940 C   0  0  0  0  0  1  0  0  0  0  0  0
  183.8390  177.3280  137.0570 C   0  0  1  0  0  3  0  0  0  0  0  0
  1 21  1  0  0  0  0
  2  8  1  0  0  0  0
  3 17  2  0  0  0  0
  4 22  1  0  0  0  0
  5 17  1  0  0  0  0
  6  1  1  0  0  0  0
  8 14  1  0  0  0  0
  8  7  1  0  0  0  0
  9 18  1  6  0  0  0
  9 14  1  0  0  0  0
 10  8  1  6  0  0  0
 12 25  1  1  0  0  0
 12 28  1  0  0  0  0
 13  9  1  0  0  0  0
 15 11  1  1  0  0  0
 15 23  1  0  0  0  0
 16  1  2  0  0  0  0
 16 20  1  0  0  0  0
 17 25  1  0  0  0  0
 19 25  1  0  0  0  0
 19 15  1  0  0  0  0
 20  4  2  0  0  0  0
 21 22  2  0  0  0  0
 23  6  1  0  0  0  0
 24  5  1  1  0  0  0
 24 12  1  0  0  0  0
 24 26  1  0  0  0  0
 26 13  1  6  0  0  0
 26 10  1  0  0  0  0
 27  5  1  0  0  0  0
 28 10  1  0  0  0  0
 28 16  1  1  0  0  0
M  END
>  <MODEL>
7

>  <REMARK>
 VINA RESULT:      -4.2      5.188      7.109
  Name = 
  0 active torsions:
  status: ('A' for Active; 'I' for Inactive)
                            x       y       z     vdW  Elec       q    Type
                         _______ _______ _______ _____ _____    ______ ____

>  <TORSDO>
F 0

$$$$
=
 OpenBabel11122411573D

 28 32  0  0  1  0  0  0  0  0999 V2000
  182.2470  179.1700  138.7260 C   0  0  0  0  0  0  0  0  0  0  0  0
  179.3750  175.8480  135.5860 C   0  0  0  0  0  1  0  0  0  0  0  0
  179.6090  177.5070  142.0400 O   0  0  0  0  0  0  0  0  0  0  0  0
  184.2000  177.5070  139.8460 C   0  0  0  0  0  3  0  0  0  0  0  0
  179.6250  175.7720  140.4500 N   0  0  0  0  0  0  0  0  0  0  0  0
  181.2360  179.9840  138.2140 O   0  0  0  0  0  0  0  0  0  0  0  0
  181.6780  176.3800  134.9370 C   0  0  0  0  0  1  0  0  0  0  0  0
  180.8350  175.4950  135.8390 C   0  0  0  0  0  0  0  0  0  0  0  0
  181.1970  173.1380  136.5120 C   0  0  2  0  0  3  0  0  0  0  0  0
  181.2420  175.7660  137.3150 C   0  0  2  0  0  3  0  0  0  0  0  0
  180.6830  180.1470  141.2230 O   0  0  0  0  0  1  0  0  0  0  0  0
  179.6570  177.1850  138.5320 C   0  0  1  0  0  3  0  0  0  0  0  0
  179.8470  173.3290  137.7130 S   0  0  0  0  0  0  0  0  0  0  0  0
  181.0590  174.1000  135.4150 N   0  0  0  0  0  2  0  0  0  0  0  0
  179.8410  180.4680  140.1580 C   0  0  2  0  0  3  0  0  0  0  0  0
  182.1710  177.7830  138.5280 C   0  0  0  0  0  0  0  0  0  0  0  0
  179.6530  177.1280  140.8380 C   0  0  0  0  0  0  0  0  0  0  0  0
  181.1820  171.7320  135.9530 C   0  0  0  0  0  1  0  0  0  0  0  0
  178.9320  179.2900  139.7820 C   0  0  0  0  0  2  0  0  0  0  0  0
  183.1490  176.9560  139.1070 C   0  0  0  0  0  3  0  0  0  0  0  0
  183.3000  179.7190  139.4710 C   0  0  0  0  0  3  0  0  0  0  0  0
  184.2770  178.8890  140.0250 C   0  0  0  0  0  3  0  0  0  0  0  0
  180.6390  181.0260  138.9760 C   0  0  0  0  0  2  0  0  0  0  0  0
  179.4540  175.7300  139.0060 C   0  0  1  0  0  3  0  0  0  0  0  0
  179.6530  178.0190  139.7370 N   0  0  0  0  0  0  0  0  0  0  0  0
  180.5410  174.8880  138.3610 C   0  0  2  0  0  3  0  0  0  0  0  0
  179.3090  174.6670  141.3400 C   0  0  0  0  0  1  0  0  0  0  0  0
  180.9940  177.2090  137.7600 C   0  0  1  0  0  3  0  0  0  0  0  0
  1 21  1  0  0  0  0
  2  8  1  0  0  0  0
  4 22  1  0  0  0  0
  5 17  1  0  0  0  0
  5 27  1  0  0  0  0
  6  1  1  0  0  0  0
  6 23  1  0  0  0  0
  7  8  1  0  0  0  0
  9 18  1  6  0  0  0
  9 13  1  0  0  0  0
 10  8  1  6  0  0  0
 10 28  1  0  0  0  0
 10 26  1  0  0  0  0
 12 24  1  0  0  0  0
 12 25  1  1  0  0  0
 14  8  1  0  0  0  0
 14  9  1  0  0  0  0
 15 11  1  1  0  0  0
 16  1  2  0  0  0  0
 16 20  1  0  0  0  0
 17  3  2  0  0  0  0
 19 15  1  0  0  0  0
 20  4  2  0  0  0  0
 21 22  2  0  0  0  0
 23 15  1  0  0  0  0
 24  5  1  1  0  0  0
 25 19  1  0  0  0  0
 25 17  1  0  0  0  0
 26 13  1  6  0  0  0
 26 24  1  0  0  0  0
 28 16  1  1  0  0  0
 28 12  1  0  0  0  0
M  END
>  <MODEL>
8

>  <REMARK>
 VINA RESULT:      -4.2      8.080      9.975
  Name = 
  0 active torsions:
  status: ('A' for Active; 'I' for Inactive)
                            x       y       z     vdW  Elec       q    Type
                         _______ _______ _______ _____ _____    ______ ____

>  <TORSDO>
F 0

$$$$
=
 OpenBabel11122411573D

 28 32  0  0  1  0  0  0  0  0999 V2000
  182.3140  178.3390  137.7660 C   0  0  0  0  0  0  0  0  0  0  0  0
  186.4550  176.9000  134.6140 C   0  0  0  0  0  1  0  0  0  0  0  0
  180.9760  174.0390  137.1150 O   0  0  0  0  0  0  0  0  0  0  0  0
  183.0550  177.4160  140.3020 C   0  0  0  0  0  3  0  0  0  0  0  0
  183.3100  173.9190  136.8370 N   0  0  0  0  0  0  0  0  0  0  0  0
  181.9210  178.7440  136.4890 O   0  0  0  0  0  0  0  0  0  0  0  0
  186.8060  178.6560  136.2870 C   0  0  0  0  0  1  0  0  0  0  0  0
  186.7440  177.1520  136.0880 C   0  0  0  0  0  0  0  0  0  0  0  0
  188.0760  175.3650  137.1710 C   0  0  2  0  0  3  0  0  0  0  0  0
  185.6170  176.5820  136.9970 C   0  0  2  0  0  3  0  0  0  0  0  0
  179.7250  176.7260  137.1930 O   0  0  0  0  0  1  0  0  0  0  0  0
  183.5520  176.0460  135.7920 C   0  0  1  0  0  3  0  0  0  0  0  0
  186.9550  174.1480  136.4210 S   0  0  0  0  0  0  0  0  0  0  0  0
  188.0800  176.6130  136.4020 N   0  0  0  0  0  2  0  0  0  0  0  0
  180.0840  177.2320  135.9430 C   0  0  2  0  0  3  0  0  0  0  0  0
  183.4550  177.5340  137.9030 C   0  0  0  0  0  0  0  0  0  0  0  0
  182.0600  174.5650  136.7420 C   0  0  0  0  0  0  0  0  0  0  0  0
  189.4780  174.7990  137.2180 C   0  0  0  0  0  1  0  0  0  0  0  0
  181.0760  176.3080  135.2240 C   0  0  0  0  0  2  0  0  0  0  0  0
  183.8100  177.0630  139.1790 C   0  0  0  0  0  3  0  0  0  0  0  0
  181.5580  178.6880  138.8930 C   0  0  0  0  0  3  0  0  0  0  0  0
  181.9320  178.2320  140.1590 C   0  0  0  0  0  3  0  0  0  0  0  0
  180.5680  178.6800  136.0550 C   0  0  0  0  0  2  0  0  0  0  0  0
  184.2780  174.7200  136.1050 C   0  0  1  0  0  3  0  0  0  0  0  0
  182.1370  175.8290  136.1090 N   0  0  0  0  0  0  0  0  0  0  0  0
  185.4730  175.0540  136.9810 C   0  0  2  0  0  3  0  0  0  0  0  0
  183.4870  172.5090  137.1470 C   0  0  0  0  0  1  0  0  0  0  0  0
  184.2280  177.1280  136.6610 C   0  0  1  0  0  3  0  0  0  0  0  0
  1 16  2  0  0  0  0
  1 21  1  0  0  0  0
  2  8  1  0  0  0  0
  5 27  1  0  0  0  0
  6  1  1  0  0  0  0
  8  7  1  0  0  0  0
  8 14  1  0  0  0  0
  9 18  1  6  0  0  0
 10  8  1  6  0  0  0
 12 24  1  0  0  0  0
 12 25  1  1  0  0  0
 12 28  1  0  0  0  0
 13  9  1  0  0  0  0
 14  9  1  0  0  0  0
 15 23  1  0  0  0  0
 15 11  1  1  0  0  0
 16 20  1  0  0  0  0
 17  5  1  0  0  0  0
 17  3  2  0  0  0  0
 19 15  1  0  0  0  0
 19 25  1  0  0  0  0
 20  4  2  0  0  0  0
 21 22  2  0  0  0  0
 22  4  1  0  0  0  0
 23  6  1  0  0  0  0
 24  5  1  1  0  0  0
 24 26  1  0  0  0  0
 25 17  1  0  0  0  0
 26 13  1  6  0  0  0
 26 10  1  0  0  0  0
 28 10  1  0  0  0  0
 28 16  1  1  0  0  0
M  END
>  <MODEL>
9

>  <REMARK>
 VINA RESULT:      -4.1      4.672      6.482
  Name = 
  0 active torsions:
  status: ('A' for Active; 'I' for Inactive)
                            x       y       z     vdW  Elec       q    Type
                         _______ _______ _______ _____ _____    ______ ____

>  <TORSDO>
F 0

$$$$
