=
 OpenBabel11122410293D

 30 35  0  0  1  0  0  0  0  0999 V2000
  185.3540  178.4680  141.4760 C   0  0  0  0  0  0  0  0  0  0  0  0
  183.0960  178.6110  140.3880 C   0  0  2  0  0  3  0  0  0  0  0  0
  183.9660  178.7690  145.4540 C   0  0  0  0  0  2  0  0  0  0  0  0
  186.2250  178.3330  142.6040 C   0  0  0  0  0  0  0  0  0  0  0  0
  185.9010  178.5260  140.2360 N   0  0  0  0  0  0  0  0  0  0  0  0
  189.3120  178.0010  140.9020 O   0  0  0  0  0  0  0  0  0  0  0  0
  188.6940  178.0090  144.6230 C   0  0  1  0  0  3  0  0  0  0  0  0
  188.0780  178.1700  141.1100 C   0  0  0  0  0  0  0  0  0  0  0  0
  187.5100  178.0640  145.4450 N   0  0  0  0  0  0  0  0  0  0  0  0
  185.3020  178.9970  146.0740 C   0  0  0  0  0  0  0  0  0  0  0  0
  187.2360  178.4320  140.0280 C   0  0  0  0  0  0  0  0  0  0  0  0
  187.5640  178.0540  142.3750 N   0  0  0  0  0  0  0  0  0  0  0  0
  181.6740  178.9860  140.7210 C   0  0  0  0  0  3  0  0  0  0  0  0
  187.8210  177.5940  146.7480 C   0  0  0  0  0  3  0  0  0  0  0  0
  189.7240  177.2670  145.4740 C   0  0  0  0  0  2  0  0  0  0  0  0
  183.0880  177.2580  139.6960 C   0  0  0  0  0  1  0  0  0  0  0  0
  184.2970  178.4980  144.0660 N   0  0  0  0  0  0  0  0  0  0  0  0
  181.2180  179.0600  141.9740 C   0  0  0  0  0  3  0  0  0  0  0  0
  184.0060  178.5710  141.6030 C   0  0  0  0  0  0  0  0  0  0  0  0
  185.7040  178.4710  143.8550 C   0  0  0  0  0  0  0  0  0  0  0  0
  185.4480  179.2950  147.2480 O   0  0  0  0  0  0  0  0  0  0  0  0
  186.4240  178.9520  145.0770 C   0  0  2  0  0  3  0  0  0  0  0  0
  189.0560  177.1320  146.8040 C   0  0  0  0  0  3  0  0  0  0  0  0
  187.8380  175.8700  143.5170 C   0  0  0  0  0  1  0  0  0  0  0  0
  182.1040  178.8340  143.1250 C   0  0  0  0  0  3  0  0  0  0  0  0
  183.4090  178.6040  142.9550 C   0  0  0  0  0  0  0  0  0  0  0  0
  188.3920  177.2810  143.3210 C   0  0  2  0  0  3  0  0  0  0  0  0
  187.7690  178.5310  138.7050 N   0  0  0  0  0  2  0  0  0  0  0  0
  186.5920  177.4520  136.8830 C   0  0  0  0  0  1  0  0  0  0  0  0
  186.9250  178.7720  137.5470 C   0  0  0  0  0  2  0  0  0  0  0  0
  1 19  2  0  0  0  0
  1  4  1  0  0  0  0
  2 16  1  1  0  0  0
  2 13  1  0  0  0  0
  2 19  1  0  0  0  0
  3 10  1  0  0  0  0
  4 20  2  0  0  0  0
  5  1  1  0  0  0  0
  6  8  2  0  0  0  0
  7  9  1  0  0  0  0
  7 15  1  1  0  0  0
  8 12  1  0  0  0  0
  9 14  1  0  0  0  0
 10 21  2  0  0  0  0
 11  5  2  0  0  0  0
 11  8  1  0  0  0  0
 12  4  1  0  0  0  0
 12 27  1  0  0  0  0
 13 18  2  0  0  0  0
 14 23  2  0  0  0  0
 15 23  1  0  0  0  0
 17  3  1  0  0  0  0
 18 25  1  0  0  0  0
 19 26  1  0  0  0  0
 20 17  1  0  0  0  0
 22 20  1  6  0  0  0
 22  9  1  0  0  0  0
 22 10  1  0  0  0  0
 26 25  2  0  0  0  0
 26 17  1  0  0  0  0
 27 24  1  1  0  0  0
 27  7  1  0  0  0  0
 28 11  1  0  0  0  0
 29 30  1  0  0  0  0
 30 28  1  0  0  0  0
M  END
>  <MODEL>
1

>  <REMARK>
 VINA RESULT:      -9.7      0.000      0.000
  Name = 
  1 active torsions:
  status: ('A' for Active; 'I' for Inactive)
    1  A    between atoms: N_28  and  C_30
                            x       y       z     vdW  Elec       q    Type
                         _______ _______ _______ _____ _____    ______ ____

>  <TORSDO>
F 1

$$$$
=
 OpenBabel11122410293D

 30 35  0  0  1  0  0  0  0  0999 V2000
  186.5050  178.2600  142.2060 C   0  0  0  0  0  0  0  0  0  0  0  0
  184.0400  178.6390  141.9220 C   0  0  2  0  0  3  0  0  0  0  0  0
  186.4660  178.1330  146.4280 C   0  0  0  0  0  2  0  0  0  0  0  0
  187.6720  177.9470  142.9750 C   0  0  0  0  0  0  0  0  0  0  0  0
  186.6390  178.4450  140.8680 N   0  0  0  0  0  0  0  0  0  0  0  0
  190.0310  177.6840  140.3460 O   0  0  0  0  0  0  0  0  0  0  0  0
  190.6140  177.2640  144.0490 C   0  0  1  0  0  3  0  0  0  0  0  0
  188.9430  177.8840  140.9560 C   0  0  0  0  0  0  0  0  0  0  0  0
  189.7570  177.2720  145.2090 N   0  0  0  0  0  0  0  0  0  0  0  0
  187.9430  178.2230  146.6060 C   0  0  0  0  0  0  0  0  0  0  0  0
  187.8280  178.3150  140.2350 C   0  0  0  0  0  0  0  0  0  0  0  0
  188.8440  177.6370  142.3010 N   0  0  0  0  0  0  0  0  0  0  0  0
  182.8310  179.0360  142.7300 C   0  0  0  0  0  3  0  0  0  0  0  0
  190.4210  176.6320  146.2880 C   0  0  0  0  0  3  0  0  0  0  0  0
  191.7940  176.3770  144.4440 C   0  0  0  0  0  2  0  0  0  0  0  0
  183.7030  177.3830  141.1360 C   0  0  0  0  0  1  0  0  0  0  0  0
  186.3210  178.0210  144.9870 N   0  0  0  0  0  0  0  0  0  0  0  0
  182.7990  178.9770  144.0640 C   0  0  0  0  0  3  0  0  0  0  0  0
  185.2790  178.4080  142.7700 C   0  0  0  0  0  0  0  0  0  0  0  0
  187.5830  177.9550  144.3340 C   0  0  0  0  0  0  0  0  0  0  0  0
  188.4740  178.3670  147.6950 O   0  0  0  0  0  0  0  0  0  0  0  0
  188.6870  178.2480  145.3020 C   0  0  2  0  0  3  0  0  0  0  0  0
  191.5680  176.1100  145.8970 C   0  0  0  0  0  3  0  0  0  0  0  0
  189.2800  175.3190  143.0660 C   0  0  0  0  0  1  0  0  0  0  0  0
  183.9800  178.5700  144.8400 C   0  0  0  0  0  3  0  0  0  0  0  0
  185.1410  178.3030  144.2380 C   0  0  0  0  0  0  0  0  0  0  0  0
  189.8600  176.7160  142.8460 C   0  0  2  0  0  3  0  0  0  0  0  0
  187.9250  178.5510  138.8280 N   0  0  0  0  0  2  0  0  0  0  0  0
  186.1710  177.7640  137.3540 C   0  0  0  0  0  1  0  0  0  0  0  0
  186.7830  178.9700  138.0330 C   0  0  0  0  0  2  0  0  0  0  0  0
  1 19  2  0  0  0  0
  1  4  1  0  0  0  0
  2 16  1  1  0  0  0
  2 13  1  0  0  0  0
  2 19  1  0  0  0  0
  3 10  1  0  0  0  0
  4 20  2  0  0  0  0
  5  1  1  0  0  0  0
  6  8  2  0  0  0  0
  7 15  1  1  0  0  0
  7  9  1  0  0  0  0
  8 12  1  0  0  0  0
  9 22  1  0  0  0  0
  9 14  1  0  0  0  0
 10 21  2  0  0  0  0
 11  5  2  0  0  0  0
 11  8  1  0  0  0  0
 12 27  1  0  0  0  0
 12  4  1  0  0  0  0
 13 18  2  0  0  0  0
 15 23  1  0  0  0  0
 17  3  1  0  0  0  0
 18 25  1  0  0  0  0
 19 26  1  0  0  0  0
 20 17  1  0  0  0  0
 22 20  1  6  0  0  0
 22 10  1  0  0  0  0
 23 14  2  0  0  0  0
 26 25  2  0  0  0  0
 26 17  1  0  0  0  0
 27 24  1  1  0  0  0
 27  7  1  0  0  0  0
 28 11  1  0  0  0  0
 29 30  1  0  0  0  0
 30 28  1  0  0  0  0
M  END
>  <MODEL>
2

>  <REMARK>
 VINA RESULT:      -8.8      1.360      2.006
  Name = 
  1 active torsions:
  status: ('A' for Active; 'I' for Inactive)
    1  A    between atoms: N_28  and  C_30
                            x       y       z     vdW  Elec       q    Type
                         _______ _______ _______ _____ _____    ______ ____

>  <TORSDO>
F 1

$$$$
=
 OpenBabel11122410293D

 30 35  0  0  1  0  0  0  0  0999 V2000
  187.5790  177.7780  144.4760 C   0  0  0  0  0  0  0  0  0  0  0  0
  185.2840  178.5710  145.1130 C   0  0  0  0  0  0  0  0  0  0  0  0
  187.0630  178.1840  140.3040 C   0  0  0  0  0  2  0  0  0  0  0  0
  188.6470  177.5620  143.5470 C   0  0  0  0  0  0  0  0  0  0  0  0
  187.7810  177.4660  145.7810 N   0  0  0  0  0  0  0  0  0  0  0  0
  191.1680  176.5260  145.8080 O   0  0  0  0  0  0  0  0  0  0  0  0
  191.4000  176.8670  142.0590 C   0  0  1  0  0  3  0  0  0  0  0  0
  190.0460  176.8950  145.3620 C   0  0  0  0  0  0  0  0  0  0  0  0
  190.4990  177.3340  141.0340 N   0  0  0  0  0  0  0  0  0  0  0  0
  188.2890  177.4300  139.9160 C   0  0  0  0  0  0  0  0  0  0  0  0
  188.9620  176.9850  146.2370 C   0  0  0  0  0  0  0  0  0  0  0  0
  189.9020  177.2470  144.0450 N   0  0  0  0  0  0  0  0  0  0  0  0
  183.9380  178.8360  144.4890 C   0  0  0  0  0  3  0  0  0  0  0  0
  191.2410  177.6610  139.8690 C   0  0  0  0  0  3  0  0  0  0  0  0
  192.7970  177.1280  141.4960 C   0  0  0  0  0  2  0  0  0  0  0  0
  185.6800  179.7850  145.9360 C   0  0  0  0  0  1  0  0  0  0  0  0
  187.1740  178.2570  141.7500 N   0  0  0  0  0  0  0  0  0  0  0  0
  183.7670  178.9900  143.1730 C   0  0  0  0  0  3  0  0  0  0  0  0
  186.3660  178.2540  144.0950 C   0  0  0  0  0  0  0  0  0  0  0  0
  188.3920  177.6850  142.2150 C   0  0  0  0  0  0  0  0  0  0  0  0
  188.5460  177.1270  138.7620 O   0  0  0  0  0  0  0  0  0  0  0  0
  189.0940  176.9760  141.0990 C   0  0  2  0  0  3  0  0  0  0  0  0
  192.5380  177.5640  140.0890 C   0  0  0  0  0  3  0  0  0  0  0  0
  191.2740  179.1400  143.2180 C   0  0  0  0  0  1  0  0  0  0  0  0
  184.8900  178.8500  142.2340 C   0  0  0  0  0  3  0  0  0  0  0  0
  186.1070  178.5070  142.6620 C   0  0  2  0  0  3  0  0  0  0  0  0
  191.1530  177.6230  143.3560 C   0  0  2  0  0  3  0  0  0  0  0  0
  189.1160  176.6410  147.6160 N   0  0  0  0  0  2  0  0  0  0  0  0
  187.9210  178.1790  149.0550 C   0  0  0  0  0  1  0  0  0  0  0  0
  188.0240  176.7490  148.5670 C   0  0  0  0  0  2  0  0  0  0  0  0
  1  5  1  0  0  0  0
  2 16  1  0  0  0  0
  3 17  1  0  0  0  0
  4 12  1  0  0  0  0
  4  1  1  0  0  0  0
  5 11  2  0  0  0  0
  7 15  1  6  0  0  0
  7 27  1  0  0  0  0
  8  6  2  0  0  0  0
  8 11  1  0  0  0  0
  9 22  1  0  0  0  0
  9  7  1  0  0  0  0
 10  3  1  0  0  0  0
 11 28  1  0  0  0  0
 12  8  1  0  0  0  0
 13  2  2  0  0  0  0
 14 23  2  0  0  0  0
 14  9  1  0  0  0  0
 17 20  1  0  0  0  0
 17 26  1  0  0  0  0
 18 13  1  0  0  0  0
 19  1  2  0  0  0  0
 19  2  1  0  0  0  0
 20  4  2  0  0  0  0
 21 10  2  0  0  0  0
 22 10  1  6  0  0  0
 22 20  1  0  0  0  0
 23 15  1  0  0  0  0
 25 18  2  0  0  0  0
 26 25  1  6  0  0  0
 26 19  1  0  0  0  0
 27 24  1  6  0  0  0
 27 12  1  0  0  0  0
 28 30  1  0  0  0  0
 30 29  1  0  0  0  0
M  END
>  <MODEL>
3

>  <REMARK>
 VINA RESULT:      -8.4      2.388      6.051
  Name = 
  1 active torsions:
  status: ('A' for Active; 'I' for Inactive)
    1  A    between atoms: N_28  and  C_30
                            x       y       z     vdW  Elec       q    Type
                         _______ _______ _______ _____ _____    ______ ____

>  <TORSDO>
F 1

$$$$
=
 OpenBabel11122410293D

 30 35  0  0  1  0  0  0  0  0999 V2000
  189.4050  177.6590  139.6920 C   0  0  0  0  0  0  0  0  0  0  0  0
  189.0630  177.5080  137.2100 C   0  0  2  0  0  3  0  0  0  0  0  0
  185.4470  178.7920  140.6340 C   0  0  0  0  0  2  0  0  0  0  0  0
  188.9470  177.7930  141.0420 C   0  0  0  0  0  0  0  0  0  0  0  0
  190.7300  177.4560  139.4730 N   0  0  0  0  0  0  0  0  0  0  0  0
  191.9900  177.1660  142.7410 O   0  0  0  0  0  0  0  0  0  0  0  0
  188.6180  177.9750  144.2250 C   0  0  1  0  0  3  0  0  0  0  0  0
  191.1650  177.3490  141.8030 C   0  0  0  0  0  0  0  0  0  0  0  0
  187.3010  178.1820  143.6750 N   0  0  0  0  0  0  0  0  0  0  0  0
  185.7230  179.1810  142.0460 C   0  0  0  0  0  0  0  0  0  0  0  0
  191.6230  177.3490  140.4840 C   0  0  0  0  0  0  0  0  0  0  0  0
  189.8290  177.5010  142.0710 N   0  0  0  0  0  0  0  0  0  0  0  0
  188.0670  177.9150  136.1540 C   0  0  0  0  0  3  0  0  0  0  0  0
  186.3330  178.0170  144.6990 C   0  0  0  0  0  3  0  0  0  0  0  0
  188.3710  177.4610  145.6430 C   0  0  0  0  0  2  0  0  0  0  0  0
  189.3910  176.0370  137.0210 C   0  0  0  0  0  1  0  0  0  0  0  0
  186.7150  178.2320  140.2000 N   0  0  0  0  0  0  0  0  0  0  0  0
  186.8060  178.2520  136.4380 C   0  0  0  0  0  3  0  0  0  0  0  0
  188.5720  177.7570  138.6250 C   0  0  0  0  0  0  0  0  0  0  0  0
  187.6630  178.1910  141.2610 C   0  0  0  0  0  0  0  0  0  0  0  0
  184.8980  179.7320  142.7570 O   0  0  0  0  0  0  0  0  0  0  0  0
  187.1490  178.9440  142.4490 C   0  0  2  0  0  3  0  0  0  0  0  0
  186.8930  177.6060  145.8210 C   0  0  0  0  0  3  0  0  0  0  0  0
  188.6790  175.6280  143.2180 C   0  0  0  0  0  1  0  0  0  0  0  0
  186.3220  178.3040  137.8250 C   0  0  0  0  0  3  0  0  0  0  0  0
  187.1450  178.0720  138.8500 C   0  0  0  0  0  0  0  0  0  0  0  0
  189.3870  176.9730  143.3770 C   0  0  2  0  0  3  0  0  0  0  0  0
  193.0130  177.1670  140.2030 N   0  0  0  0  0  2  0  0  0  0  0  0
  193.5230  175.7000  138.3430 C   0  0  0  0  0  1  0  0  0  0  0  0
  193.5280  177.1290  138.8450 C   0  0  0  0  0  2  0  0  0  0  0  0
  1  4  1  0  0  0  0
  2 16  1  1  0  0  0
  2 19  1  0  0  0  0
  3 10  1  0  0  0  0
  4 20  2  0  0  0  0
  4 12  1  0  0  0  0
  5  1  1  0  0  0  0
  5 11  2  0  0  0  0
  7 15  1  1  0  0  0
  8 12  1  0  0  0  0
  8  6  2  0  0  0  0
  9  7  1  0  0  0  0
  9 14  1  0  0  0  0
 10 22  1  0  0  0  0
 10 21  2  0  0  0  0
 11  8  1  0  0  0  0
 12 27  1  0  0  0  0
 13 18  2  0  0  0  0
 13  2  1  0  0  0  0
 14 23  2  0  0  0  0
 15 23  1  0  0  0  0
 17  3  1  0  0  0  0
 17 20  1  0  0  0  0
 18 25  1  0  0  0  0
 19 26  1  0  0  0  0
 19  1  2  0  0  0  0
 22 20  1  6  0  0  0
 22  9  1  0  0  0  0
 25 26  2  0  0  0  0
 26 17  1  0  0  0  0
 27 24  1  6  0  0  0
 27  7  1  0  0  0  0
 28 11  1  0  0  0  0
 29 30  1  0  0  0  0
 30 28  1  0  0  0  0
M  END
>  <MODEL>
4

>  <REMARK>
 VINA RESULT:      -8.0      2.743      4.781
  Name = 
  1 active torsions:
  status: ('A' for Active; 'I' for Inactive)
    1  A    between atoms: N_28  and  C_30
                            x       y       z     vdW  Elec       q    Type
                         _______ _______ _______ _____ _____    ______ ____

>  <TORSDO>
F 1

$$$$
=
 OpenBabel11122410293D

 30 35  0  0  1  0  0  0  0  0999 V2000
  188.6840  177.7210  140.1780 C   0  0  0  0  0  0  0  0  0  0  0  0
  188.8820  178.0710  142.6560 C   0  0  0  0  0  0  0  0  0  0  0  0
  192.7210  176.6560  139.5400 C   0  0  0  0  0  2  0  0  0  0  0  0
  189.1690  177.2840  138.9030 C   0  0  0  0  0  0  0  0  0  0  0  0
  187.4180  178.2040  140.2600 N   0  0  0  0  0  0  0  0  0  0  0  0
  186.2120  177.6930  136.9980 O   0  0  0  0  0  0  0  0  0  0  0  0
  189.5870  176.4780  135.8290 C   0  0  1  0  0  3  0  0  0  0  0  0
  187.0140  177.7150  137.9730 C   0  0  0  0  0  0  0  0  0  0  0  0
  190.8380  176.1980  136.4890 N   0  0  0  0  0  0  0  0  0  0  0  0
  192.6800  176.7520  138.0530 C   0  0  0  0  0  0  0  0  0  0  0  0
  186.5930  178.2590  139.1880 C   0  0  0  0  0  0  0  0  0  0  0  0
  188.2670  177.1710  137.8560 N   0  0  0  0  0  0  0  0  0  0  0  0
  189.9390  178.2370  143.7190 C   0  0  0  0  0  3  0  0  0  0  0  0
  191.6270  175.3560  135.6630 C   0  0  0  0  0  3  0  0  0  0  0  0
  189.5810  175.5640  134.6040 C   0  0  0  0  0  2  0  0  0  0  0  0
  187.8960  177.0120  143.1180 C   0  0  0  0  0  1  0  0  0  0  0  0
  191.3330  176.8620  139.9150 N   0  0  0  0  0  0  0  0  0  0  0  0
  191.2130  177.8810  143.5360 C   0  0  0  0  0  3  0  0  0  0  0  0
  189.4510  177.6990  141.2970 C   0  0  0  0  0  0  0  0  0  0  0  0
  190.4910  176.9860  138.7730 C   0  0  0  0  0  0  0  0  0  0  0  0
  193.6760  176.6680  137.3540 O   0  0  0  0  0  0  0  0  0  0  0  0
  191.3150  177.0930  137.5270 C   0  0  2  0  0  3  0  0  0  0  0  0
  190.9540  174.9730  134.5940 C   0  0  0  0  0  3  0  0  0  0  0  0
  188.4120  174.7570  137.3090 C   0  0  0  0  0  1  0  0  0  0  0  0
  191.6830  177.3520  142.2470 C   0  0  0  0  0  3  0  0  0  0  0  0
  190.8610  177.2640  141.1980 C   0  0  2  0  0  3  0  0  0  0  0  0
  188.4250  176.1860  136.7680 C   0  0  2  0  0  3  0  0  0  0  0  0
  185.2780  178.8050  139.3170 N   0  0  0  0  0  2  0  0  0  0  0  0
  183.9270  178.3210  141.2690 C   0  0  0  0  0  1  0  0  0  0  0  0
  184.7870  179.3530  140.5700 C   0  0  0  0  0  2  0  0  0  0  0  0
  1  5  1  0  0  0  0
  1 19  2  0  0  0  0
  2 16  1  0  0  0  0
  2 13  2  0  0  0  0
  3 17  1  0  0  0  0
  4  1  1  0  0  0  0
  6  8  2  0  0  0  0
  7 15  1  6  0  0  0
  7  9  1  0  0  0  0
  7 27  1  0  0  0  0
  8 11  1  0  0  0  0
  9 22  1  0  0  0  0
 10  3  1  0  0  0  0
 11 28  1  0  0  0  0
 11  5  2  0  0  0  0
 12  8  1  0  0  0  0
 12  4  1  0  0  0  0
 14  9  1  0  0  0  0
 17 26  1  0  0  0  0
 18 13  1  0  0  0  0
 19  2  1  0  0  0  0
 20  4  2  0  0  0  0
 20 17  1  0  0  0  0
 21 10  2  0  0  0  0
 22 10  1  1  0  0  0
 22 20  1  0  0  0  0
 23 15  1  0  0  0  0
 23 14  2  0  0  0  0
 25 18  2  0  0  0  0
 26 19  1  0  0  0  0
 26 25  1  6  0  0  0
 27 24  1  1  0  0  0
 27 12  1  0  0  0  0
 28 30  1  0  0  0  0
 30 29  1  0  0  0  0
M  END
>  <MODEL>
5

>  <REMARK>
 VINA RESULT:      -7.7      3.400      7.925
  Name = 
  1 active torsions:
  status: ('A' for Active; 'I' for Inactive)
    1  A    between atoms: N_28  and  C_30
                            x       y       z     vdW  Elec       q    Type
                         _______ _______ _______ _____ _____    ______ ____

>  <TORSDO>
F 1

$$$$
=
 OpenBabel11122410293D

 30 35  0  0  1  0  0  0  0  0999 V2000
  188.3290  177.8150  141.1950 C   0  0  0  0  0  0  0  0  0  0  0  0
  187.9550  177.8510  143.6770 C   0  0  0  0  0  0  0  0  0  0  0  0
  192.4360  176.8450  141.3630 C   0  0  0  0  0  2  0  0  0  0  0  0
  189.1010  177.5420  140.0200 C   0  0  0  0  0  0  0  0  0  0  0  0
  187.0630  178.2810  141.0460 N   0  0  0  0  0  0  0  0  0  0  0  0
  186.6370  178.1830  137.5590 O   0  0  0  0  0  0  0  0  0  0  0  0
  190.2220  177.1300  137.0460 C   0  0  1  0  0  3  0  0  0  0  0  0
  187.1980  178.0830  138.6860 C   0  0  0  0  0  0  0  0  0  0  0  0
  191.3020  176.7720  137.9330 N   0  0  0  0  0  0  0  0  0  0  0  0
  192.7270  177.1280  139.9290 C   0  0  0  0  0  0  0  0  0  0  0  0
  186.4990  178.4690  139.8300 C   0  0  0  0  0  0  0  0  0  0  0  0
  188.4610  177.5610  138.7900 N   0  0  0  0  0  0  0  0  0  0  0  0
  188.7400  177.8840  144.9640 C   0  0  0  0  0  3  0  0  0  0  0  0
  192.2810  176.0420  137.2100 C   0  0  0  0  0  3  0  0  0  0  0  0
  190.5190  176.3780  135.7490 C   0  0  0  0  0  2  0  0  0  0  0  0
  186.9230  176.7400  143.7710 C   0  0  0  0  0  1  0  0  0  0  0  0
  190.9940  177.0000  141.4360 N   0  0  0  0  0  0  0  0  0  0  0  0
  190.0330  177.5560  145.0320 C   0  0  0  0  0  3  0  0  0  0  0  0
  188.8260  177.6540  142.4480 C   0  0  0  0  0  0  0  0  0  0  0  0
  190.4270  177.2650  140.1570 C   0  0  0  0  0  0  0  0  0  0  0  0
  193.8570  177.1330  139.4690 O   0  0  0  0  0  0  0  0  0  0  0  0
  191.5060  177.5300  139.1530 C   0  0  2  0  0  3  0  0  0  0  0  0
  191.8770  175.7950  135.9780 C   0  0  0  0  0  3  0  0  0  0  0  0
  188.7980  175.2350  138.0000 C   0  0  0  0  0  1  0  0  0  0  0  0
  190.7960  177.1940  143.8290 C   0  0  0  0  0  3  0  0  0  0  0  0
  190.2340  177.2370  142.6190 C   0  0  2  0  0  3  0  0  0  0  0  0
  188.8880  176.7210  137.6540 C   0  0  2  0  0  3  0  0  0  0  0  0
  185.1720  178.9930  139.7240 N   0  0  0  0  0  2  0  0  0  0  0  0
  183.4570  178.2510  141.2650 C   0  0  0  0  0  1  0  0  0  0  0  0
  184.3970  179.3780  140.8910 C   0  0  0  0  0  2  0  0  0  0  0  0
  1 19  2  0  0  0  0
  2 16  1  0  0  0  0
  2 13  2  0  0  0  0
  3 17  1  0  0  0  0
  4 20  2  0  0  0  0
  4  1  1  0  0  0  0
  5  1  1  0  0  0  0
  6  8  2  0  0  0  0
  7 15  1  6  0  0  0
  7 27  1  0  0  0  0
  7  9  1  0  0  0  0
  8 12  1  0  0  0  0
  8 11  1  0  0  0  0
  9 22  1  0  0  0  0
 10  3  1  0  0  0  0
 11  5  2  0  0  0  0
 12  4  1  0  0  0  0
 13 18  1  0  0  0  0
 14  9  1  0  0  0  0
 15 23  1  0  0  0  0
 17 26  1  0  0  0  0
 19 26  1  0  0  0  0
 19  2  1  0  0  0  0
 20 17  1  0  0  0  0
 21 10  2  0  0  0  0
 22 10  1  1  0  0  0
 22 20  1  0  0  0  0
 23 14  2  0  0  0  0
 25 18  2  0  0  0  0
 26 25  1  6  0  0  0
 27 24  1  1  0  0  0
 27 12  1  0  0  0  0
 28 11  1  0  0  0  0
 28 30  1  0  0  0  0
 30 29  1  0  0  0  0
M  END
>  <MODEL>
6

>  <REMARK>
 VINA RESULT:      -7.5      3.040      7.099
  Name = 
  1 active torsions:
  status: ('A' for Active; 'I' for Inactive)
    1  A    between atoms: N_28  and  C_30
                            x       y       z     vdW  Elec       q    Type
                         _______ _______ _______ _____ _____    ______ ____

>  <TORSDO>
F 1

$$$$
=
 OpenBabel11122410293D

 30 35  0  0  1  0  0  0  0  0999 V2000
  184.4320  178.4860  141.4410 C   0  0  0  0  0  0  0  0  0  0  0  0
  184.5900  178.8210  138.9580 C   0  0  2  0  0  3  0  0  0  0  0  0
  188.4980  177.5070  142.0320 C   0  0  0  0  0  2  0  0  0  0  0  0
  184.9910  178.2860  142.7440 C   0  0  0  0  0  0  0  0  0  0  0  0
  183.0870  178.6320  141.3270 N   0  0  0  0  0  0  0  0  0  0  0  0
  182.0490  178.6340  144.6850 O   0  0  0  0  0  0  0  0  0  0  0  0
  185.5530  177.9090  145.8770 C   0  0  1  0  0  3  0  0  0  0  0  0
  182.8130  178.5580  143.6830 C   0  0  0  0  0  0  0  0  0  0  0  0
  186.8360  177.8100  145.2270 N   0  0  0  0  0  0  0  0  0  0  0  0
  188.3420  177.0090  143.4280 C   0  0  0  0  0  0  0  0  0  0  0  0
  182.2640  178.6230  142.4010 C   0  0  0  0  0  0  0  0  0  0  0  0
  184.1710  178.4600  143.8490 N   0  0  0  0  0  0  0  0  0  0  0  0
  185.5270  178.5400  137.8110 C   0  0  0  0  0  3  0  0  0  0  0  0
  187.8660  177.9590  146.1930 C   0  0  0  0  0  3  0  0  0  0  0  0
  185.8750  178.3390  147.3080 C   0  0  0  0  0  2  0  0  0  0  0  0
  184.1770  180.2820  138.8960 C   0  0  0  0  0  1  0  0  0  0  0  0
  187.1760  178.0260  141.7260 N   0  0  0  0  0  0  0  0  0  0  0  0
  186.8200  178.2530  137.9860 C   0  0  0  0  0  3  0  0  0  0  0  0
  185.1920  178.5050  140.3170 C   0  0  0  0  0  0  0  0  0  0  0  0
  186.3050  177.9450  142.8480 C   0  0  0  0  0  0  0  0  0  0  0  0
  189.2410  176.4570  144.0410 O   0  0  0  0  0  0  0  0  0  0  0  0
  186.9380  177.1420  143.9420 C   0  0  2  0  0  3  0  0  0  0  0  0
  187.3670  178.2630  147.3760 C   0  0  0  0  0  3  0  0  0  0  0  0
  185.3060  180.3120  145.0460 C   0  0  0  0  0  1  0  0  0  0  0  0
  187.4030  178.1340  139.3300 C   0  0  0  0  0  3  0  0  0  0  0  0
  186.6450  178.2530  140.4220 C   0  0  0  0  0  0  0  0  0  0  0  0
  184.6780  178.9230  145.1560 C   0  0  2  0  0  3  0  0  0  0  0  0
  180.8500  178.7480  142.2270 N   0  0  0  0  0  2  0  0  0  0  0  0
  179.9870  180.3060  140.5850 C   0  0  0  0  0  1  0  0  0  0  0  0
  180.2380  178.8490  140.9130 C   0  0  0  0  0  2  0  0  0  0  0  0
  1  4  1  0  0  0  0
  2 16  1  1  0  0  0
  2 19  1  0  0  0  0
  3 10  1  0  0  0  0
  4 20  2  0  0  0  0
  4 12  1  0  0  0  0
  5  1  1  0  0  0  0
  5 11  2  0  0  0  0
  7 15  1  1  0  0  0
  8 12  1  0  0  0  0
  8  6  2  0  0  0  0
  9  7  1  0  0  0  0
  9 14  1  0  0  0  0
 10 22  1  0  0  0  0
 10 21  2  0  0  0  0
 11  8  1  0  0  0  0
 12 27  1  0  0  0  0
 13 18  2  0  0  0  0
 13  2  1  0  0  0  0
 14 23  2  0  0  0  0
 15 23  1  0  0  0  0
 17  3  1  0  0  0  0
 17 20  1  0  0  0  0
 18 25  1  0  0  0  0
 19 26  1  0  0  0  0
 19  1  2  0  0  0  0
 22 20  1  6  0  0  0
 22  9  1  0  0  0  0
 25 26  2  0  0  0  0
 26 17  1  0  0  0  0
 27 24  1  6  0  0  0
 27  7  1  0  0  0  0
 28 11  1  0  0  0  0
 29 30  1  0  0  0  0
 30 28  1  0  0  0  0
M  END
>  <MODEL>
7

>  <REMARK>
 VINA RESULT:      -7.1      1.776      4.765
  Name = 
  1 active torsions:
  status: ('A' for Active; 'I' for Inactive)
    1  A    between atoms: N_28  and  C_30
                            x       y       z     vdW  Elec       q    Type
                         _______ _______ _______ _____ _____    ______ ____

>  <TORSDO>
F 1

$$$$
=
 OpenBabel11122410293D

 30 35  0  0  1  0  0  0  0  0999 V2000
  187.9480  177.8920  141.3530 C   0  0  0  0  0  0  0  0  0  0  0  0
  188.7990  177.3280  143.6460 C   0  0  0  0  0  0  0  0  0  0  0  0
  191.3400  176.5070  139.2520 C   0  0  0  0  0  2  0  0  0  0  0  0
  188.0000  177.8540  139.9220 C   0  0  0  0  0  0  0  0  0  0  0  0
  186.8930  178.5050  141.9480 N   0  0  0  0  0  0  0  0  0  0  0  0
  184.8720  179.3460  139.1970 O   0  0  0  0  0  0  0  0  0  0  0  0
  187.4800  178.1080  136.7700 C   0  0  1  0  0  3  0  0  0  0  0  0
  185.8600  178.9060  139.8490 C   0  0  0  0  0  0  0  0  0  0  0  0
  188.7440  177.4280  136.9120 N   0  0  0  0  0  0  0  0  0  0  0  0
  190.9780  177.1170  137.9410 C   0  0  0  0  0  0  0  0  0  0  0  0
  185.8790  179.0530  141.2370 C   0  0  0  0  0  0  0  0  0  0  0  0
  186.8800  178.2510  139.2090 N   0  0  0  0  0  0  0  0  0  0  0  0
  190.0810  176.9520  144.3430 C   0  0  0  0  0  3  0  0  0  0  0  0
  189.0890  176.8140  135.6800 C   0  0  0  0  0  3  0  0  0  0  0  0
  186.9660  177.6870  135.3930 C   0  0  0  0  0  2  0  0  0  0  0  0
  187.7200  176.3390  144.0550 C   0  0  0  0  0  1  0  0  0  0  0  0
  190.1710  176.7810  140.0690 N   0  0  0  0  0  0  0  0  0  0  0  0
  191.1520  176.4900  143.6910 C   0  0  0  0  0  3  0  0  0  0  0  0
  188.9260  177.3670  142.1330 C   0  0  0  0  0  0  0  0  0  0  0  0
  189.1420  177.4200  139.3210 C   0  0  0  0  0  0  0  0  0  0  0  0
  191.7310  177.1280  136.9820 O   0  0  0  0  0  0  0  0  0  0  0  0
  189.6530  177.8240  137.9720 C   0  0  2  0  0  3  0  0  0  0  0  0
  188.1120  176.9320  134.8010 C   0  0  0  0  0  3  0  0  0  0  0  0
  186.3010  176.1830  137.9680 C   0  0  0  0  0  1  0  0  0  0  0  0
  191.1640  176.3740  142.2260 C   0  0  0  0  0  3  0  0  0  0  0  0
  190.1240  176.7820  141.4940 C   0  0  2  0  0  3  0  0  0  0  0  0
  186.5340  177.6910  137.8880 C   0  0  2  0  0  3  0  0  0  0  0  0
  184.8040  179.7160  141.9080 N   0  0  0  0  0  2  0  0  0  0  0  0
  183.6550  179.0100  143.9200 C   0  0  0  0  0  1  0  0  0  0  0  0
  184.7690  179.8650  143.3530 C   0  0  0  0  0  2  0  0  0  0  0  0
  1  5  1  0  0  0  0
  1 19  2  0  0  0  0
  2 16  1  0  0  0  0
  2 13  2  0  0  0  0
  3 17  1  0  0  0  0
  4  1  1  0  0  0  0
  6  8  2  0  0  0  0
  7 15  1  6  0  0  0
  7  9  1  0  0  0  0
  7 27  1  0  0  0  0
  8 11  1  0  0  0  0
  9 22  1  0  0  0  0
 10  3  1  0  0  0  0
 11 28  1  0  0  0  0
 11  5  2  0  0  0  0
 12  8  1  0  0  0  0
 12  4  1  0  0  0  0
 14  9  1  0  0  0  0
 17 26  1  0  0  0  0
 18 13  1  0  0  0  0
 19  2  1  0  0  0  0
 20  4  2  0  0  0  0
 20 17  1  0  0  0  0
 21 10  2  0  0  0  0
 22 10  1  6  0  0  0
 22 20  1  0  0  0  0
 23 15  1  0  0  0  0
 23 14  2  0  0  0  0
 25 18  2  0  0  0  0
 26 19  1  0  0  0  0
 26 25  1  1  0  0  0
 27 24  1  1  0  0  0
 27 12  1  0  0  0  0
 28 30  1  0  0  0  0
 30 29  1  0  0  0  0
M  END
>  <MODEL>
8

>  <REMARK>
 VINA RESULT:      -7.1      2.625      7.566
  Name = 
  1 active torsions:
  status: ('A' for Active; 'I' for Inactive)
    1  A    between atoms: N_28  and  C_30
                            x       y       z     vdW  Elec       q    Type
                         _______ _______ _______ _____ _____    ______ ____

>  <TORSDO>
F 1

$$$$
=
 OpenBabel11122410293D

 30 35  0  0  1  0  0  0  0  0999 V2000
  189.3120  177.0830  145.9220 C   0  0  0  0  0  0  0  0  0  0  0  0
  188.3810  177.7160  148.1660 C   0  0  0  0  0  0  0  0  0  0  0  0
  186.0580  178.5300  143.6510 C   0  0  0  0  0  2  0  0  0  0  0  0
  189.3220  177.0960  144.4900 C   0  0  0  0  0  0  0  0  0  0  0  0
  190.3210  176.4500  146.5730 N   0  0  0  0  0  0  0  0  0  0  0  0
  192.4300  175.4960  143.9290 O   0  0  0  0  0  0  0  0  0  0  0  0
  189.9690  176.7660  141.3680 C   0  0  1  0  0  3  0  0  0  0  0  0
  191.4300  175.9780  144.5290 C   0  0  0  0  0  0  0  0  0  0  0  0
  188.7220  177.4850  141.4430 N   0  0  0  0  0  0  0  0  0  0  0  0
  186.4570  177.8840  142.3690 C   0  0  0  0  0  0  0  0  0  0  0  0
  191.3460  175.8580  145.9170 C   0  0  0  0  0  0  0  0  0  0  0  0
  190.4590  176.6510  143.8340 N   0  0  0  0  0  0  0  0  0  0  0  0
  187.0820  178.1450  148.8000 C   0  0  0  0  0  3  0  0  0  0  0  0
  188.4490  178.0860  140.1870 C   0  0  0  0  0  3  0  0  0  0  0  0
  190.5540  177.1440  140.0080 C   0  0  0  0  0  2  0  0  0  0  0  0
  189.4710  178.6800  148.6040 C   0  0  0  0  0  1  0  0  0  0  0  0
  187.1810  178.2360  144.5230 N   0  0  0  0  0  0  0  0  0  0  0  0
  186.0560  178.6260  148.0930 C   0  0  0  0  0  3  0  0  0  0  0  0
  188.3170  177.6530  146.6500 C   0  0  0  0  0  0  0  0  0  0  0  0
  188.2210  177.5520  143.8320 C   0  0  0  0  0  0  0  0  0  0  0  0
  185.7440  177.8780  141.3780 O   0  0  0  0  0  0  0  0  0  0  0  0
  187.7560  177.1380  142.4700 C   0  0  2  0  0  3  0  0  0  0  0  0
  189.4580  177.9220  139.3530 C   0  0  0  0  0  3  0  0  0  0  0  0
  191.1550  178.6760  142.5820 C   0  0  0  0  0  1  0  0  0  0  0  0
  186.1100  178.7150  146.6270 C   0  0  0  0  0  3  0  0  0  0  0  0
  187.1670  178.2610  145.9490 C   0  0  2  0  0  3  0  0  0  0  0  0
  190.8780  177.1740  142.5180 C   0  0  2  0  0  3  0  0  0  0  0  0
  192.3700  175.1760  146.6460 N   0  0  0  0  0  2  0  0  0  0  0  0
  193.1800  176.1510  148.7100 C   0  0  0  0  0  1  0  0  0  0  0  0
  192.3390  175.0540  148.0940 C   0  0  0  0  0  2  0  0  0  0  0  0
  1  5  1  0  0  0  0
  1 19  2  0  0  0  0
  2 16  1  0  0  0  0
  2 13  2  0  0  0  0
  3 17  1  0  0  0  0
  4  1  1  0  0  0  0
  6  8  2  0  0  0  0
  7 15  1  6  0  0  0
  7  9  1  0  0  0  0
  7 27  1  0  0  0  0
  8 11  1  0  0  0  0
  9 22  1  0  0  0  0
 10  3  1  0  0  0  0
 11  5  2  0  0  0  0
 11 28  1  0  0  0  0
 12  4  1  0  0  0  0
 12  8  1  0  0  0  0
 14  9  1  0  0  0  0
 17 26  1  0  0  0  0
 18 13  1  0  0  0  0
 19  2  1  0  0  0  0
 20  4  2  0  0  0  0
 20 17  1  0  0  0  0
 21 10  2  0  0  0  0
 22 10  1  6  0  0  0
 22 20  1  0  0  0  0
 23 15  1  0  0  0  0
 23 14  2  0  0  0  0
 25 18  2  0  0  0  0
 26 25  1  1  0  0  0
 26 19  1  0  0  0  0
 27 24  1  1  0  0  0
 27 12  1  0  0  0  0
 28 30  1  0  0  0  0
 30 29  1  0  0  0  0
M  END
>  <MODEL>
9

>  <REMARK>
 VINA RESULT:      -6.8      2.854      6.869
  Name = 
  1 active torsions:
  status: ('A' for Active; 'I' for Inactive)
    1  A    between atoms: N_28  and  C_30
                            x       y       z     vdW  Elec       q    Type
                         _______ _______ _______ _____ _____    ______ ____

>  <TORSDO>
F 1

$$$$
