=
 OpenBabel11122411543D

 28 32  0  0  1  0  0  0  0  0999 V2000
  185.5820  176.7070  137.4420 C   0  0  0  0  0  0  0  0  0  0  0  0
  183.2610  177.5150  135.0500 O   0  0  0  0  0  0  0  0  0  0  0  0
  181.8350  179.0500  142.0360 O   0  0  0  0  0  0  0  0  0  0  0  0
  185.3170  173.9270  137.1960 C   0  0  0  0  0  3  0  0  0  0  0  0
  180.7800  177.6020  140.5170 N   0  0  0  0  0  0  0  0  0  0  0  0
  185.7710  178.1840  137.5950 C   0  0  0  0  0  2  0  0  0  0  0  0
  181.0560  176.4940  134.6670 O   0  0  0  0  0  0  0  0  0  0  0  0
  181.8680  177.3570  135.5900 S   0  0  0  0  0  0  0  0  0  0  0  0
  180.6520  179.3570  137.0100 C   0  0  0  0  0  0  0  0  0  0  0  0
  181.8960  176.6220  137.2080 C   0  0  2  0  0  3  0  0  0  0  0  0
  185.9060  178.9690  141.1760 O   0  0  0  0  0  0  0  0  0  0  0  0
  182.7280  176.6950  139.4690 C   0  0  2  0  0  3  0  0  0  0  0  0
  180.5470  178.5630  138.0350 N   0  0  0  0  0  0  0  0  0  0  0  0
  181.1210  178.8990  135.7440 N   0  0  0  0  0  2  0  0  0  0  0  0
  185.4010  178.8030  140.0350 C   0  0  0  0  0  0  0  0  0  0  0  0
  184.3270  176.1010  137.6420 C   0  0  0  0  0  0  0  0  0  0  0  0
  181.9130  178.2250  141.0870 C   0  0  0  0  0  0  0  0  0  0  0  0
  180.3390  180.7350  137.1690 N   0  0  0  0  0  1  0  0  0  0  0  0
  183.9250  178.9610  139.8600 C   0  0  0  0  0  2  0  0  0  0  0  0
  184.2070  174.7080  137.5230 C   0  0  0  0  0  3  0  0  0  0  0  0
  186.6920  175.9170  137.1180 C   0  0  0  0  0  3  0  0  0  0  0  0
  186.5580  174.5320  136.9910 C   0  0  0  0  0  3  0  0  0  0  0  0
  186.2580  178.4900  138.9320 N   0  0  0  0  0  2  0  0  0  0  0  0
  181.1860  176.6690  139.4800 C   0  0  2  0  0  3  0  0  0  0  0  0
  183.1870  177.7760  140.4830 C   0  0  2  0  0  3  0  0  0  0  0  0
  180.7410  177.1010  138.0760 C   0  0  2  0  0  3  0  0  0  0  0  0
  179.4180  177.7410  141.0060 C   0  0  0  0  0  1  0  0  0  0  0  0
  183.1390  176.9390  138.0180 C   0  0  1  0  0  3  0  0  0  0  0  0
  1  6  1  0  0  0  0
  1 16  1  0  0  0  0
  2  8  2  0  0  0  0
  4 20  1  0  0  0  0
  5 27  1  0  0  0  0
  5 17  1  0  0  0  0
  6 23  1  0  0  0  0
  7  8  2  0  0  0  0
  8 14  1  0  0  0  0
  9 18  1  0  0  0  0
  9 13  2  0  0  0  0
 10  8  1  6  0  0  0
 10 28  1  0  0  0  0
 10 26  1  0  0  0  0
 12 24  1  0  0  0  0
 12 25  1  0  0  0  0
 13 26  1  0  0  0  0
 14  9  1  0  0  0  0
 15 11  2  0  0  0  0
 16 28  1  0  0  0  0
 17  3  2  0  0  0  0
 19 15  1  0  0  0  0
 19 25  1  0  0  0  0
 20 16  2  0  0  0  0
 21  1  2  0  0  0  0
 22 21  1  0  0  0  0
 22  4  2  0  0  0  0
 23 15  1  0  0  0  0
 24  5  1  0  0  0  0
 25 17  1  0  0  0  0
 26 24  1  0  0  0  0
 28 12  1  0  0  0  0
M  END
>  <MODEL>
1

>  <REMARK>
 VINA RESULT:      -5.7      0.000      0.000
  Name = 
  0 active torsions:
  status: ('A' for Active; 'I' for Inactive)
                            x       y       z     vdW  Elec       q    Type
                         _______ _______ _______ _____ _____    ______ ____

>  <TORSDO>
F 0

$$$$
=
 OpenBabel11122411543D

 28 32  0  0  1  0  0  0  0  0999 V2000
  185.3180  175.7370  136.9740 C   0  0  0  0  0  0  0  0  0  0  0  0
  182.7070  175.4230  134.7720 O   0  0  0  0  0  0  0  0  0  0  0  0
  181.5920  178.8100  141.1350 O   0  0  0  0  0  0  0  0  0  0  0  0
  185.5320  173.0090  137.5830 C   0  0  0  0  0  3  0  0  0  0  0  0
  180.6930  176.8270  140.2520 N   0  0  0  0  0  0  0  0  0  0  0  0
  185.2530  177.2000  136.6670 C   0  0  0  0  0  2  0  0  0  0  0  0
  180.6950  174.0250  134.9920 O   0  0  0  0  0  0  0  0  0  0  0  0
  181.4120  175.2390  135.5110 S   0  0  0  0  0  0  0  0  0  0  0  0
  179.9770  177.3800  136.4340 C   0  0  0  0  0  0  0  0  0  0  0  0
  181.6990  175.0490  137.2550 C   0  0  2  0  0  3  0  0  0  0  0  0
  185.5300  179.0600  139.8160 O   0  0  0  0  0  0  0  0  0  0  0  0
  182.6820  175.9350  139.2700 C   0  0  2  0  0  3  0  0  0  0  0  0
  180.0970  176.9330  137.6500 N   0  0  0  0  0  0  0  0  0  0  0  0
  180.4180  176.6270  135.3060 N   0  0  0  0  0  2  0  0  0  0  0  0
  184.9740  178.4800  138.8480 C   0  0  0  0  0  0  0  0  0  0  0  0
  184.2100  175.0470  137.5030 C   0  0  0  0  0  0  0  0  0  0  0  0
  181.7390  177.7530  140.4650 C   0  0  0  0  0  0  0  0  0  0  0  0
  179.4370  178.6790  136.2250 N   0  0  0  0  0  1  0  0  0  0  0  0
  183.4840  178.3600  138.8280 C   0  0  0  0  0  2  0  0  0  0  0  0
  184.3300  173.6830  137.8100 C   0  0  0  0  0  3  0  0  0  0  0  0
  186.5200  175.0550  136.7530 C   0  0  0  0  0  3  0  0  0  0  0  0
  186.6260  173.6950  137.0530 C   0  0  0  0  0  3  0  0  0  0  0  0
  185.7820  177.9700  137.7830 N   0  0  0  0  0  2  0  0  0  0  0  0
  181.1750  175.6900  139.4870 C   0  0  2  0  0  3  0  0  0  0  0  0
  183.0210  177.3300  139.8580 C   0  0  2  0  0  3  0  0  0  0  0  0
  180.5500  175.5990  138.0880 C   0  0  2  0  0  3  0  0  0  0  0  0
  179.3710  176.9110  140.8520 C   0  0  0  0  0  1  0  0  0  0  0  0
  182.9260  175.7770  137.7700 C   0  0  1  0  0  3  0  0  0  0  0  0
  1 16  1  0  0  0  0
  2  8  2  0  0  0  0
  4 20  1  0  0  0  0
  5 17  1  0  0  0  0
  5 27  1  0  0  0  0
  6  1  1  0  0  0  0
  6 23  1  0  0  0  0
  7  8  2  0  0  0  0
  9 13  2  0  0  0  0
 10  8  1  6  0  0  0
 10 28  1  0  0  0  0
 10 26  1  0  0  0  0
 12 24  1  0  0  0  0
 12 25  1  0  0  0  0
 13 26  1  0  0  0  0
 14  8  1  0  0  0  0
 14  9  1  0  0  0  0
 15 11  2  0  0  0  0
 16 28  1  0  0  0  0
 16 20  2  0  0  0  0
 17  3  2  0  0  0  0
 18  9  1  0  0  0  0
 19 15  1  0  0  0  0
 19 25  1  0  0  0  0
 21  1  2  0  0  0  0
 21 22  1  0  0  0  0
 22  4  2  0  0  0  0
 23 15  1  0  0  0  0
 24  5  1  0  0  0  0
 25 17  1  0  0  0  0
 26 24  1  0  0  0  0
 28 12  1  0  0  0  0
M  END
>  <MODEL>
2

>  <REMARK>
 VINA RESULT:      -5.7      1.399      1.489
  Name = 
  0 active torsions:
  status: ('A' for Active; 'I' for Inactive)
                            x       y       z     vdW  Elec       q    Type
                         _______ _______ _______ _____ _____    ______ ____

>  <TORSDO>
F 0

$$$$
=
 OpenBabel11122411543D

 28 32  0  0  1  0  0  0  0  0999 V2000
  180.7940  180.5460  138.5950 C   0  0  0  0  0  0  0  0  0  0  0  0
  184.1620  180.3770  139.2190 O   0  0  0  0  0  0  0  0  0  0  0  0
  181.0540  175.2180  135.1060 O   0  0  0  0  0  0  0  0  0  0  0  0
  179.9720  180.0310  141.2250 C   0  0  0  0  0  3  0  0  0  0  0  0
  182.1200  175.1050  137.1960 N   0  0  0  0  0  0  0  0  0  0  0  0
  181.1850  180.8420  137.1810 C   0  0  0  0  0  2  0  0  0  0  0  0
  185.3690  178.7500  140.6140 O   0  0  0  0  0  0  0  0  0  0  0  0
  184.6070  178.9470  139.3340 S   0  0  0  0  0  0  0  0  0  0  0  0
  185.2520  177.4680  137.1220 C   0  0  0  0  0  0  0  0  0  0  0  0
  183.2130  177.8450  139.3060 C   0  0  2  0  0  3  0  0  0  0  0  0
  179.0520  178.8620  134.9490 O   0  0  0  0  0  0  0  0  0  0  0  0
  181.2240  177.0980  138.1660 C   0  0  2  0  0  3  0  0  0  0  0  0
  184.3090  176.6210  137.4170 N   0  0  0  0  0  0  0  0  0  0  0  0
  185.6090  178.5350  137.9980 N   0  0  0  0  0  2  0  0  0  0  0  0
  180.0550  179.1530  135.6520 C   0  0  0  0  0  0  0  0  0  0  0  0
  181.1940  179.3570  139.2350 C   0  0  0  0  0  0  0  0  0  0  0  0
  181.2930  175.7270  136.2330 C   0  0  0  0  0  0  0  0  0  0  0  0
  185.9120  177.3580  135.8680 N   0  0  0  0  0  1  0  0  0  0  0  0
  181.1570  178.1530  135.7990 C   0  0  0  0  0  2  0  0  0  0  0  0
  180.7710  179.1060  140.5500 C   0  0  0  0  0  3  0  0  0  0  0  0
  179.9900  181.4670  139.2780 C   0  0  0  0  0  3  0  0  0  0  0  0
  179.5840  181.2120  140.5890 C   0  0  0  0  0  3  0  0  0  0  0  0
  180.1220  180.4410  136.2730 N   0  0  0  0  0  2  0  0  0  0  0  0
  182.1680  175.9030  138.4090 C   0  0  2  0  0  3  0  0  0  0  0  0
  180.7130  177.0040  136.7040 C   0  0  2  0  0  3  0  0  0  0  0  0
  183.5550  176.5020  138.6790 C   0  0  2  0  0  3  0  0  0  0  0  0
  182.7020  173.7800  137.0630 C   0  0  0  0  0  1  0  0  0  0  0  0
  182.0310  178.3520  138.5000 C   0  0  1  0  0  3  0  0  0  0  0  0
  1 16  2  0  0  0  0
  1 21  1  0  0  0  0
  2  8  2  0  0  0  0
  3 17  2  0  0  0  0
  5 24  1  0  0  0  0
  6  1  1  0  0  0  0
  8  7  2  0  0  0  0
  9 13  2  0  0  0  0
  9 14  1  0  0  0  0
 10  8  1  6  0  0  0
 11 15  2  0  0  0  0
 12 24  1  0  0  0  0
 12 28  1  0  0  0  0
 13 26  1  0  0  0  0
 14  8  1  0  0  0  0
 15 19  1  0  0  0  0
 15 23  1  0  0  0  0
 16 20  1  0  0  0  0
 17 25  1  0  0  0  0
 17  5  1  0  0  0  0
 18  9  1  0  0  0  0
 19 25  1  0  0  0  0
 20  4  2  0  0  0  0
 21 22  2  0  0  0  0
 22  4  1  0  0  0  0
 23  6  1  0  0  0  0
 24 26  1  0  0  0  0
 25 12  1  0  0  0  0
 26 10  1  0  0  0  0
 27  5  1  0  0  0  0
 28 16  1  0  0  0  0
 28 10  1  0  0  0  0
M  END
>  <MODEL>
3

>  <REMARK>
 VINA RESULT:      -5.4      2.284      6.066
  Name = 
  0 active torsions:
  status: ('A' for Active; 'I' for Inactive)
                            x       y       z     vdW  Elec       q    Type
                         _______ _______ _______ _____ _____    ______ ____

>  <TORSDO>
F 0

$$$$
=
 OpenBabel11122411543D

 28 32  0  0  1  0  0  0  0  0999 V2000
  180.5400  179.5260  141.0820 C   0  0  0  0  0  0  0  0  0  0  0  0
  179.6730  177.1050  138.8120 O   0  0  0  0  0  0  0  0  0  0  0  0
  186.7320  178.2810  140.2200 O   0  0  0  0  0  0  0  0  0  0  0  0
  179.6900  181.7070  139.5400 C   0  0  0  0  0  3  0  0  0  0  0  0
  185.4750  178.5460  138.2530 N   0  0  0  0  0  0  0  0  0  0  0  0
  180.9910  178.3920  141.9490 C   0  0  0  0  0  2  0  0  0  0  0  0
  180.0010  177.1220  136.3740 O   0  0  0  0  0  0  0  0  0  0  0  0
  180.6880  177.0290  137.7070 S   0  0  0  0  0  0  0  0  0  0  0  0
  182.9700  175.5400  137.9650 C   0  0  0  0  0  0  0  0  0  0  0  0
  181.8770  178.3430  137.8470 C   0  0  2  0  0  3  0  0  0  0  0  0
  184.2420  179.2680  143.4040 O   0  0  0  0  0  0  0  0  0  0  0  0
  183.4990  179.4910  139.2120 C   0  0  2  0  0  3  0  0  0  0  0  0
  183.6870  176.6140  137.8020 N   0  0  0  0  0  0  0  0  0  0  0  0
  181.5540  175.5460  137.8080 N   0  0  0  0  0  2  0  0  0  0  0  0
  183.4240  178.7720  142.5860 C   0  0  0  0  0  0  0  0  0  0  0  0
  181.0820  179.7320  139.7990 C   0  0  0  0  0  0  0  0  0  0  0  0
  185.6560  178.6110  139.6530 C   0  0  0  0  0  0  0  0  0  0  0  0
  183.6130  174.3350  138.3610 N   0  0  0  0  0  1  0  0  0  0  0  0
  183.9420  178.1010  141.3540 C   0  0  0  0  0  2  0  0  0  0  0  0
  180.6540  180.8310  139.0380 C   0  0  0  0  0  3  0  0  0  0  0  0
  179.5770  180.4110  141.5800 C   0  0  0  0  0  3  0  0  0  0  0  0
  179.1500  181.4960  140.8100 C   0  0  0  0  0  3  0  0  0  0  0  0
  182.0240  178.8450  142.8690 N   0  0  0  0  0  2  0  0  0  0  0  0
  184.1550  179.0340  137.8930 C   0  0  2  0  0  3  0  0  0  0  0  0
  184.4730  179.1400  140.3670 C   0  0  2  0  0  3  0  0  0  0  0  0
  183.2460  177.9370  137.3210 C   0  0  2  0  0  3  0  0  0  0  0  0
  186.5130  178.2050  137.2940 C   0  0  0  0  0  1  0  0  0  0  0  0
  182.1360  178.8030  139.2690 C   0  0  1  0  0  3  0  0  0  0  0  0
  1 21  1  0  0  0  0
  1  6  1  0  0  0  0
  4 22  1  0  0  0  0
  5 17  1  0  0  0  0
  6 23  1  0  0  0  0
  7  8  2  0  0  0  0
  8 14  1  0  0  0  0
  8  2  2  0  0  0  0
  9 18  1  0  0  0  0
 10  8  1  1  0  0  0
 10 28  1  0  0  0  0
 12 28  1  0  0  0  0
 12 25  1  0  0  0  0
 13  9  2  0  0  0  0
 14  9  1  0  0  0  0
 15 23  1  0  0  0  0
 15 11  2  0  0  0  0
 16  1  2  0  0  0  0
 17  3  2  0  0  0  0
 17 25  1  0  0  0  0
 19 15  1  0  0  0  0
 20  4  2  0  0  0  0
 20 16  1  0  0  0  0
 22 21  2  0  0  0  0
 24  5  1  0  0  0  0
 24 12  1  0  0  0  0
 25 19  1  0  0  0  0
 26 13  1  0  0  0  0
 26 10  1  0  0  0  0
 26 24  1  0  0  0  0
 27  5  1  0  0  0  0
 28 16  1  0  0  0  0
M  END
>  <MODEL>
4

>  <REMARK>
 VINA RESULT:      -5.3      2.437      5.522
  Name = 
  0 active torsions:
  status: ('A' for Active; 'I' for Inactive)
                            x       y       z     vdW  Elec       q    Type
                         _______ _______ _______ _____ _____    ______ ____

>  <TORSDO>
F 0

$$$$
=
 OpenBabel11122411543D

 28 32  0  0  1  0  0  0  0  0999 V2000
  181.6190  178.1990  137.1820 C   0  0  0  0  0  0  0  0  0  0  0  0
  181.2470  174.8330  136.6350 O   0  0  0  0  0  0  0  0  0  0  0  0
  187.9350  177.5330  137.7220 O   0  0  0  0  0  0  0  0  0  0  0  0
  180.8720  179.0100  134.6050 C   0  0  0  0  0  3  0  0  0  0  0  0
  186.9680  176.4830  135.8560 N   0  0  0  0  0  0  0  0  0  0  0  0
  182.0060  177.8150  138.5750 C   0  0  0  0  0  2  0  0  0  0  0  0
  181.9300  173.5310  134.6630 O   0  0  0  0  0  0  0  0  0  0  0  0
  182.4170  174.2910  135.8640 S   0  0  0  0  0  0  0  0  0  0  0  0
  184.7240  173.5230  137.1210 C   0  0  0  0  0  0  0  0  0  0  0  0
  183.4890  175.6060  135.3310 C   0  0  2  0  0  3  0  0  0  0  0  0
  184.9460  179.7820  139.5450 O   0  0  0  0  0  0  0  0  0  0  0  0
  184.8180  177.5250  135.9300 C   0  0  2  0  0  3  0  0  0  0  0  0
  185.3890  174.4080  136.4360 N   0  0  0  0  0  0  0  0  0  0  0  0
  183.3490  173.2500  136.8670 N   0  0  0  0  0  2  0  0  0  0  0  0
  184.2910  178.8090  139.0890 C   0  0  0  0  0  0  0  0  0  0  0  0
  182.3300  177.7240  136.0630 C   0  0  0  0  0  0  0  0  0  0  0  0
  186.9360  177.3410  136.9780 C   0  0  0  0  0  0  0  0  0  0  0  0
  185.3750  172.8440  138.1880 N   0  0  0  0  0  1  0  0  0  0  0  0
  185.0250  177.6420  138.5110 C   0  0  0  0  0  2  0  0  0  0  0  0
  181.9520  178.1420  134.7770 C   0  0  0  0  0  3  0  0  0  0  0  0
  180.5390  179.0720  137.0000 C   0  0  0  0  0  3  0  0  0  0  0  0
  180.1650  179.4730  135.7160 C   0  0  0  0  0  3  0  0  0  0  0  0
  182.8620  178.8380  139.1570 N   0  0  0  0  0  2  0  0  0  0  0  0
  185.6880  176.5030  135.1700 C   0  0  2  0  0  3  0  0  0  0  0  0
  185.6300  178.0140  137.1580 C   0  0  2  0  0  3  0  0  0  0  0  0
  184.9420  175.1640  135.2510 C   0  0  2  0  0  3  0  0  0  0  0  0
  188.1550  175.8090  135.3570 C   0  0  0  0  0  1  0  0  0  0  0  0
  183.5060  176.8110  136.2510 C   0  0  1  0  0  3  0  0  0  0  0  0
  1  6  1  0  0  0  0
  4 20  2  0  0  0  0
  4 22  1  0  0  0  0
  5 17  1  0  0  0  0
  6 23  1  0  0  0  0
  7  8  2  0  0  0  0
  8  2  2  0  0  0  0
  8 14  1  0  0  0  0
  9 18  1  0  0  0  0
 10  8  1  1  0  0  0
 10 28  1  0  0  0  0
 12 28  1  0  0  0  0
 12 25  1  0  0  0  0
 13  9  2  0  0  0  0
 14  9  1  0  0  0  0
 15 23  1  0  0  0  0
 15 11  2  0  0  0  0
 16 28  1  0  0  0  0
 16  1  2  0  0  0  0
 17 25  1  0  0  0  0
 17  3  2  0  0  0  0
 19 15  1  0  0  0  0
 20 16  1  0  0  0  0
 21  1  1  0  0  0  0
 22 21  2  0  0  0  0
 24 26  1  0  0  0  0
 24  5  1  0  0  0  0
 24 12  1  0  0  0  0
 25 19  1  0  0  0  0
 26 10  1  0  0  0  0
 26 13  1  0  0  0  0
 27  5  1  0  0  0  0
M  END
>  <MODEL>
5

>  <REMARK>
 VINA RESULT:      -4.9      2.808      5.663
  Name = 
  0 active torsions:
  status: ('A' for Active; 'I' for Inactive)
                            x       y       z     vdW  Elec       q    Type
                         _______ _______ _______ _____ _____    ______ ____

>  <TORSDO>
F 0

$$$$
=
 OpenBabel11122411543D

 28 32  0  0  1  0  0  0  0  0999 V2000
  184.7930  176.2660  136.2580 C   0  0  0  0  0  0  0  0  0  0  0  0
  181.9770  177.7550  134.9870 O   0  0  0  0  0  0  0  0  0  0  0  0
  184.0990  179.3900  141.7710 O   0  0  0  0  0  0  0  0  0  0  0  0
  183.7340  173.6740  136.3880 C   0  0  0  0  0  3  0  0  0  0  0  0
  182.1620  178.3360  140.9610 N   0  0  0  0  0  0  0  0  0  0  0  0
  185.4080  177.6290  136.1900 C   0  0  0  0  0  2  0  0  0  0  0  0
  179.6360  177.3890  135.6460 O   0  0  0  0  0  0  0  0  0  0  0  0
  180.9570  177.9660  136.0690 S   0  0  0  0  0  0  0  0  0  0  0  0
  181.0250  180.1740  137.6860 C   0  0  0  0  0  0  0  0  0  0  0  0
  181.4740  177.1980  137.5860 C   0  0  2  0  0  3  0  0  0  0  0  0
  187.2450  178.2290  139.3080 O   0  0  0  0  0  0  0  0  0  0  0  0
  183.1720  176.9670  139.2810 C   0  0  2  0  0  3  0  0  0  0  0  0
  181.1600  179.4050  138.7260 N   0  0  0  0  0  0  0  0  0  0  0  0
  180.7760  179.6470  136.3850 N   0  0  0  0  0  2  0  0  0  0  0  0
  186.2810  178.2450  138.4980 C   0  0  0  0  0  0  0  0  0  0  0  0
  183.6310  176.0200  137.0140 C   0  0  0  0  0  0  0  0  0  0  0  0
  183.5490  178.6070  140.9510 C   0  0  0  0  0  0  0  0  0  0  0  0
  181.1800  181.5790  137.8400 N   0  0  0  0  0  1  0  0  0  0  0  0
  184.9670  178.8060  138.9410 C   0  0  0  0  0  2  0  0  0  0  0  0
  183.1130  174.7170  137.0770 C   0  0  0  0  0  3  0  0  0  0  0  0
  185.4120  175.2140  135.5720 C   0  0  0  0  0  3  0  0  0  0  0  0
  184.8820  173.9230  135.6340 C   0  0  0  0  0  3  0  0  0  0  0  0
  186.4760  177.7460  137.1720 N   0  0  0  0  0  2  0  0  0  0  0  0
  181.8320  177.3620  139.9340 C   0  0  2  0  0  3  0  0  0  0  0  0
  184.2820  177.8470  139.9140 C   0  0  2  0  0  3  0  0  0  0  0  0
  180.9650  177.9450  138.8100 C   0  0  2  0  0  3  0  0  0  0  0  0
  181.2240  178.8260  141.9570 C   0  0  0  0  0  1  0  0  0  0  0  0
  182.9780  177.1370  137.7750 C   0  0  1  0  0  3  0  0  0  0  0  0
  1 16  1  0  0  0  0
  2  8  2  0  0  0  0
  4 20  1  0  0  0  0
  5 27  1  0  0  0  0
  6  1  1  0  0  0  0
  6 23  1  0  0  0  0
  7  8  2  0  0  0  0
  8 14  1  0  0  0  0
  9 18  1  0  0  0  0
  9 13  2  0  0  0  0
 10  8  1  6  0  0  0
 10 28  1  0  0  0  0
 10 26  1  0  0  0  0
 12 25  1  0  0  0  0
 12 24  1  0  0  0  0
 13 26  1  0  0  0  0
 14  9  1  0  0  0  0
 15 19  1  0  0  0  0
 15 11  2  0  0  0  0
 16 20  2  0  0  0  0
 16 28  1  0  0  0  0
 17  5  1  0  0  0  0
 17  3  2  0  0  0  0
 19 25  1  0  0  0  0
 21 22  1  0  0  0  0
 21  1  2  0  0  0  0
 22  4  2  0  0  0  0
 23 15  1  0  0  0  0
 24  5  1  0  0  0  0
 25 17  1  0  0  0  0
 26 24  1  0  0  0  0
 28 12  1  0  0  0  0
M  END
>  <MODEL>
6

>  <REMARK>
 VINA RESULT:      -4.6      1.428      1.564
  Name = 
  0 active torsions:
  status: ('A' for Active; 'I' for Inactive)
                            x       y       z     vdW  Elec       q    Type
                         _______ _______ _______ _____ _____    ______ ____

>  <TORSDO>
F 0

$$$$
=
 OpenBabel11122411543D

 28 32  0  0  1  0  0  0  0  0999 V2000
  181.9100  176.6060  136.7680 C   0  0  0  0  0  0  0  0  0  0  0  0
  184.5520  178.4420  137.9560 O   0  0  0  0  0  0  0  0  0  0  0  0
  179.2440  176.4790  142.5570 O   0  0  0  0  0  0  0  0  0  0  0  0
  180.8260  178.6340  135.1660 C   0  0  0  0  0  3  0  0  0  0  0  0
  179.9630  178.5930  141.8270 N   0  0  0  0  0  0  0  0  0  0  0  0
  182.4610  175.4870  137.5950 C   0  0  0  0  0  2  0  0  0  0  0  0
  184.5550  180.7800  138.7190 O   0  0  0  0  0  0  0  0  0  0  0  0
  184.0980  179.3840  139.0350 S   0  0  0  0  0  0  0  0  0  0  0  0
  183.8830  178.5750  141.6410 C   0  0  0  0  0  0  0  0  0  0  0  0
  182.3270  179.3670  139.1870 C   0  0  2  0  0  3  0  0  0  0  0  0
  179.6810  173.8620  139.3520 O   0  0  0  0  0  0  0  0  0  0  0  0
  180.3200  178.0750  139.5200 C   0  0  2  0  0  3  0  0  0  0  0  0
  182.6140  178.8610  141.6230 N   0  0  0  0  0  0  0  0  0  0  0  0
  184.7440  178.8940  140.5510 N   0  0  0  0  0  2  0  0  0  0  0  0
  180.6390  174.6570  139.1640 C   0  0  0  0  0  0  0  0  0  0  0  0
  181.5330  177.8320  137.3480 C   0  0  0  0  0  0  0  0  0  0  0  0
  179.6810  177.2210  141.6380 C   0  0  0  0  0  0  0  0  0  0  0  0
  184.4170  177.8780  142.7590 N   0  0  0  0  0  1  0  0  0  0  0  0
  180.9680  175.6650  140.2190 C   0  0  0  0  0  2  0  0  0  0  0  0
  180.9850  178.8390  136.5380 C   0  0  0  0  0  3  0  0  0  0  0  0
  181.7430  176.4070  135.3930 C   0  0  0  0  0  3  0  0  0  0  0  0
  181.2070  177.4190  134.5940 C   0  0  0  0  0  3  0  0  0  0  0  0
  181.3990  174.5590  137.9560 N   0  0  0  0  0  2  0  0  0  0  0  0
  180.4030  179.1930  140.5790 C   0  0  2  0  0  3  0  0  0  0  0  0
  179.9100  176.7670  140.2480 C   0  0  2  0  0  3  0  0  0  0  0  0
  181.8720  179.6400  140.6130 C   0  0  2  0  0  3  0  0  0  0  0  0
  179.6930  179.3390  143.0450 C   0  0  0  0  0  1  0  0  0  0  0  0
  181.6810  178.0430  138.8270 C   0  0  1  0  0  3  0  0  0  0  0  0
  1 16  1  0  0  0  0
  1  6  1  0  0  0  0
  2  8  2  0  0  0  0
  4 20  1  0  0  0  0
  5 27  1  0  0  0  0
  6 23  1  0  0  0  0
  7  8  2  0  0  0  0
  8 14  1  0  0  0  0
  9 18  1  0  0  0  0
 10  8  1  1  0  0  0
 10 26  1  0  0  0  0
 12 25  1  0  0  0  0
 12 24  1  0  0  0  0
 13  9  2  0  0  0  0
 14  9  1  0  0  0  0
 15 11  2  0  0  0  0
 15 19  1  0  0  0  0
 16 28  1  0  0  0  0
 17  5  1  0  0  0  0
 17  3  2  0  0  0  0
 19 25  1  0  0  0  0
 20 16  2  0  0  0  0
 21  1  2  0  0  0  0
 22  4  2  0  0  0  0
 22 21  1  0  0  0  0
 23 15  1  0  0  0  0
 24 26  1  0  0  0  0
 24  5  1  0  0  0  0
 25 17  1  0  0  0  0
 26 13  1  0  0  0  0
 28 10  1  0  0  0  0
 28 12  1  0  0  0  0
M  END
>  <MODEL>
7

>  <REMARK>
 VINA RESULT:      -4.3      3.060      4.875
  Name = 
  0 active torsions:
  status: ('A' for Active; 'I' for Inactive)
                            x       y       z     vdW  Elec       q    Type
                         _______ _______ _______ _____ _____    ______ ____

>  <TORSDO>
F 0

$$$$
=
 OpenBabel11122411543D

 28 32  0  0  1  0  0  0  0  0999 V2000
  189.7180  174.3140  135.2880 C   0  0  0  0  0  0  0  0  0  0  0  0
  187.2480  176.6700  135.6210 O   0  0  0  0  0  0  0  0  0  0  0  0
  193.4150  177.4340  139.4380 O   0  0  0  0  0  0  0  0  0  0  0  0
  188.3100  172.2220  136.5130 C   0  0  0  0  0  3  0  0  0  0  0  0
  191.1940  177.0940  140.1260 N   0  0  0  0  0  0  0  0  0  0  0  0
  190.5010  175.3940  134.6110 C   0  0  0  0  0  2  0  0  0  0  0  0
  185.8100  177.0980  137.5700 O   0  0  0  0  0  0  0  0  0  0  0  0
  187.2070  177.1980  137.0270 S   0  0  0  0  0  0  0  0  0  0  0  0
  188.8420  179.2400  137.8330 C   0  0  0  0  0  0  0  0  0  0  0  0
  188.3130  176.2860  138.0780 C   0  0  2  0  0  3  0  0  0  0  0  0
  193.9360  175.3150  135.8950 O   0  0  0  0  0  0  0  0  0  0  0  0
  190.5500  175.4840  138.4810 C   0  0  2  0  0  3  0  0  0  0  0  0
  189.3720  178.4590  138.7290 N   0  0  0  0  0  0  0  0  0  0  0  0
  187.7200  178.8400  137.0510 N   0  0  0  0  0  2  0  0  0  0  0  0
  192.7280  175.6600  135.8100 C   0  0  0  0  0  0  0  0  0  0  0  0
  189.2490  174.4620  136.6080 C   0  0  0  0  0  0  0  0  0  0  0  0
  192.2940  176.8870  139.2630 C   0  0  0  0  0  0  0  0  0  0  0  0
  189.4310  180.5110  137.5900 N   0  0  0  0  0  1  0  0  0  0  0  0
  192.1720  176.6220  136.8110 C   0  0  0  0  0  2  0  0  0  0  0  0
  188.5510  173.4050  137.2140 C   0  0  0  0  0  3  0  0  0  0  0  0
  189.4750  173.1230  134.5940 C   0  0  0  0  0  3  0  0  0  0  0  0
  188.7700  172.0820  135.2020 C   0  0  0  0  0  3  0  0  0  0  0  0
  191.9270  175.1390  134.7460 N   0  0  0  0  0  2  0  0  0  0  0  0
  190.0590  176.2970  139.6960 C   0  0  2  0  0  3  0  0  0  0  0  0
  192.0000  175.9370  138.1660 C   0  0  2  0  0  3  0  0  0  0  0  0
  188.8830  177.1470  139.1950 C   0  0  2  0  0  3  0  0  0  0  0  0
  191.2390  177.8580  141.3620 C   0  0  0  0  0  1  0  0  0  0  0  0
  189.5300  175.7240  137.3690 C   0  0  1  0  0  3  0  0  0  0  0  0
  1 16  1  0  0  0  0
  2  8  2  0  0  0  0
  4 20  1  0  0  0  0
  5 27  1  0  0  0  0
  6 23  1  0  0  0  0
  6  1  1  0  0  0  0
  8 14  1  0  0  0  0
  8  7  2  0  0  0  0
  9 13  2  0  0  0  0
 10  8  1  6  0  0  0
 10 26  1  0  0  0  0
 12 24  1  0  0  0  0
 13 26  1  0  0  0  0
 14  9  1  0  0  0  0
 15 11  2  0  0  0  0
 15 19  1  0  0  0  0
 16 20  2  0  0  0  0
 16 28  1  0  0  0  0
 17  3  2  0  0  0  0
 17  5  1  0  0  0  0
 18  9  1  0  0  0  0
 19 25  1  0  0  0  0
 21 22  1  0  0  0  0
 21  1  2  0  0  0  0
 22  4  2  0  0  0  0
 23 15  1  0  0  0  0
 24  5  1  0  0  0  0
 25 12  1  0  0  0  0
 25 17  1  0  0  0  0
 26 24  1  0  0  0  0
 28 10  1  0  0  0  0
 28 12  1  0  0  0  0
M  END
>  <MODEL>
8

>  <REMARK>
 VINA RESULT:      -4.2      5.765      7.869
  Name = 
  0 active torsions:
  status: ('A' for Active; 'I' for Inactive)
                            x       y       z     vdW  Elec       q    Type
                         _______ _______ _______ _____ _____    ______ ____

>  <TORSDO>
F 0

$$$$
=
 OpenBabel11122411543D

 28 32  0  0  1  0  0  0  0  0999 V2000
  189.4410  178.2380  139.6170 C   0  0  0  0  0  0  0  0  0  0  0  0
  192.8280  178.0020  139.1330 O   0  0  0  0  0  0  0  0  0  0  0  0
  188.3430  174.4710  134.5940 O   0  0  0  0  0  0  0  0  0  0  0  0
  189.3780  176.8070  142.0270 C   0  0  0  0  0  3  0  0  0  0  0  0
  189.9550  173.6820  136.1090 N   0  0  0  0  0  0  0  0  0  0  0  0
  189.4270  179.0230  138.3430 C   0  0  0  0  0  2  0  0  0  0  0  0
  194.2770  176.0430  139.4670 O   0  0  0  0  0  0  0  0  0  0  0  0
  193.1940  176.6410  138.6150 S   0  0  0  0  0  0  0  0  0  0  0  0
  193.0790  176.0510  135.9440 C   0  0  0  0  0  0  0  0  0  0  0  0
  191.7820  175.5610  138.6170 C   0  0  2  0  0  3  0  0  0  0  0  0
  186.6190  177.8560  136.2910 O   0  0  0  0  0  0  0  0  0  0  0  0
  189.5060  175.1750  137.9220 C   0  0  2  0  0  3  0  0  0  0  0  0
  192.2080  175.1170  136.1900 N   0  0  0  0  0  0  0  0  0  0  0  0
  193.7410  176.7610  136.9880 N   0  0  0  0  0  2  0  0  0  0  0  0
  187.7990  177.9260  136.7260 C   0  0  0  0  0  0  0  0  0  0  0  0
  189.9300  176.9180  139.6630 C   0  0  0  0  0  0  0  0  0  0  0  0
  188.9280  174.5650  135.7050 C   0  0  0  0  0  0  0  0  0  0  0  0
  193.3420  176.4120  134.5940 N   0  0  0  0  0  1  0  0  0  0  0  0
  188.8290  176.9830  136.1930 C   0  0  0  0  0  2  0  0  0  0  0  0
  189.8870  176.2080  140.8730 C   0  0  0  0  0  3  0  0  0  0  0  0
  188.9270  178.8300  140.7780 C   0  0  0  0  0  3  0  0  0  0  0  0
  188.9000  178.1180  141.9790 C   0  0  0  0  0  3  0  0  0  0  0  0
  188.1240  178.9190  137.7040 N   0  0  0  0  0  2  0  0  0  0  0  0
  190.4010  174.0100  137.4530 C   0  0  2  0  0  3  0  0  0  0  0  0
  188.5920  175.5740  136.7340 C   0  0  2  0  0  3  0  0  0  0  0  0
  191.8430  174.5350  137.4950 C   0  0  2  0  0  3  0  0  0  0  0  0
  190.3880  172.5120  135.3650 C   0  0  0  0  0  1  0  0  0  0  0  0
  190.4540  176.2660  138.4160 C   0  0  1  0  0  3  0  0  0  0  0  0
  1 16  2  0  0  0  0
  1 21  1  0  0  0  0
  3 17  2  0  0  0  0
  5 24  1  0  0  0  0
  6  1  1  0  0  0  0
  8  2  2  0  0  0  0
  8  7  2  0  0  0  0
  9 13  2  0  0  0  0
  9 14  1  0  0  0  0
 10  8  1  6  0  0  0
 11 15  2  0  0  0  0
 12 28  1  0  0  0  0
 13 26  1  0  0  0  0
 14  8  1  0  0  0  0
 15 23  1  0  0  0  0
 16 20  1  0  0  0  0
 17  5  1  0  0  0  0
 17 25  1  0  0  0  0
 18  9  1  0  0  0  0
 19 15  1  0  0  0  0
 19 25  1  0  0  0  0
 20  4  2  0  0  0  0
 21 22  2  0  0  0  0
 22  4  1  0  0  0  0
 23  6  1  0  0  0  0
 24 26  1  0  0  0  0
 24 12  1  0  0  0  0
 25 12  1  0  0  0  0
 26 10  1  0  0  0  0
 27  5  1  0  0  0  0
 28 10  1  0  0  0  0
 28 16  1  0  0  0  0
M  END
>  <MODEL>
9

>  <REMARK>
 VINA RESULT:      -4.1      6.123      9.329
  Name = 
  0 active torsions:
  status: ('A' for Active; 'I' for Inactive)
                            x       y       z     vdW  Elec       q    Type
                         _______ _______ _______ _____ _____    ______ ____

>  <TORSDO>
F 0

$$$$
