=
 OpenBabel11122411523D

 28 32  0  0  1  0  0  0  0  0999 V2000
  180.4220  179.1590  138.9750 C   0  0  0  0  0  0  0  0  0  0  0  0
  183.2640  179.2890  141.9390 F   0  0  0  0  0  0  0  0  0  0  0  0
  184.1310  174.4860  137.6250 O   0  0  0  0  0  0  0  0  0  0  0  0
  181.0650  181.8320  138.3660 C   0  0  0  0  0  3  0  0  0  0  0  0
  185.3970  176.5500  137.6610 C   0  0  2  0  0  3  0  0  0  0  0  0
  180.0140  177.8160  139.2960 N   0  0  0  0  0  2  0  0  0  0  0  0
  184.1110  177.3080  141.2740 F   0  0  0  0  0  0  0  0  0  0  0  0
  184.2520  178.6840  141.1890 C   0  0  0  0  0  0  0  0  0  0  0  0
  186.7400  178.6730  140.8220 C   0  0  0  0  0  0  0  0  0  0  0  0
  184.1420  179.1450  139.7390 C   0  0  1  0  0  3  0  0  0  0  0  0
  179.9720  174.7030  139.0500 C   0  0  0  0  0  1  0  0  0  0  0  0
  183.3440  177.9470  137.7390 C   0  0  1  0  0  3  0  0  0  0  0  0
  186.5400  178.4760  139.5560 N   0  0  0  0  0  0  0  0  0  0  0  0
  185.6190  179.0940  141.7360 C   0  0  0  0  0  2  0  0  0  0  0  0
  181.1690  175.6290  139.1180 C   0  0  1  0  0  3  0  0  0  0  0  0
  181.7830  179.5610  138.8760 C   0  0  0  0  0  0  0  0  0  0  0  0
  184.1560  175.7440  137.6830 C   0  0  0  0  0  0  0  0  0  0  0  0
  188.1050  178.5160  141.3750 C   0  0  0  0  0  1  0  0  0  0  0  0
  181.6390  176.0110  137.7110 C   0  0  0  0  0  2  0  0  0  0  0  0
  182.0850  180.8990  138.5650 C   0  0  0  0  0  3  0  0  0  0  0  0
  179.4140  180.1030  138.7490 C   0  0  0  0  0  3  0  0  0  0  0  0
  179.7310  181.4330  138.4520 C   0  0  0  0  0  3  0  0  0  0  0  0
  180.8580  176.8430  139.9860 C   0  0  0  0  0  2  0  0  0  0  0  0
  184.8870  177.9970  137.7290 C   0  0  1  0  0  3  0  0  0  0  0  0
  182.9950  176.5370  137.7450 N   0  0  0  0  0  0  0  0  0  0  0  0
  185.2670  178.6320  138.9800 N   0  0  0  0  0  0  0  0  0  0  0  0
  186.0510  176.3540  136.4440 O   0  0  0  0  0  1  0  0  0  0  0  0
  182.9060  178.5800  139.0560 C   0  0  2  0  0  3  0  0  0  0  0  0
  1  6  1  0  0  0  0
  3 17  2  0  0  0  0
  4 22  2  0  0  0  0
  4 20  1  0  0  0  0
  5 27  1  6  0  0  0
  5 17  1  0  0  0  0
  5 24  1  0  0  0  0
  6 23  1  0  0  0  0
  8  7  1  0  0  0  0
  8 14  1  0  0  0  0
  8  2  1  0  0  0  0
  9 18  1  0  0  0  0
  9 14  1  0  0  0  0
 10 26  1  6  0  0  0
 10  8  1  0  0  0  0
 12 25  1  1  0  0  0
 12 28  1  0  0  0  0
 13  9  2  0  0  0  0
 15 11  1  6  0  0  0
 15 23  1  0  0  0  0
 16  1  1  0  0  0  0
 17 25  1  0  0  0  0
 19 25  1  0  0  0  0
 19 15  1  0  0  0  0
 20 16  2  0  0  0  0
 21  1  2  0  0  0  0
 22 21  1  0  0  0  0
 24 12  1  0  0  0  0
 24 26  1  1  0  0  0
 26 13  1  0  0  0  0
 28 16  1  6  0  0  0
 28 10  1  0  0  0  0
M  END
>  <MODEL>
1

>  <REMARK>
 VINA RESULT:      -6.4      0.000      0.000
  Name = 
  0 active torsions:
  status: ('A' for Active; 'I' for Inactive)
                            x       y       z     vdW  Elec       q    Type
                         _______ _______ _______ _____ _____    ______ ____

>  <TORSDO>
F 0

$$$$
=
 OpenBabel11122411523D

 28 32  0  0  1  0  0  0  0  0999 V2000
  180.8450  176.9280  137.1610 C   0  0  0  0  0  0  0  0  0  0  0  0
  184.2520  177.7620  139.2990 F   0  0  0  0  0  0  0  0  0  0  0  0
  179.4020  182.0030  140.2560 O   0  0  0  0  0  0  0  0  0  0  0  0
  180.8340  174.3740  138.3450 C   0  0  0  0  0  3  0  0  0  0  0  0
  180.0240  180.2490  141.8060 C   0  0  2  0  0  3  0  0  0  0  0  0
  180.8490  178.1970  136.4810 N   0  0  0  0  0  2  0  0  0  0  0  0
  183.4190  179.7590  139.9310 F   0  0  0  0  0  0  0  0  0  0  0  0
  183.6010  178.4380  140.3100 C   0  0  0  0  0  0  0  0  0  0  0  0
  183.6950  178.8830  142.7840 C   0  0  0  0  0  0  0  0  0  0  0  0
  182.2560  177.7710  140.5840 C   0  0  1  0  0  3  0  0  0  0  0  0
  180.0640  181.1790  135.9830 C   0  0  0  0  0  1  0  0  0  0  0  0
  179.9690  178.5040  140.0390 C   0  0  1  0  0  3  0  0  0  0  0  0
  182.3990  178.8610  142.8250 N   0  0  0  0  0  0  0  0  0  0  0  0
  184.4490  178.3820  141.5800 C   0  0  0  0  0  2  0  0  0  0  0  0
  180.5070  180.5220  137.2740 C   0  0  1  0  0  3  0  0  0  0  0  0
  181.0650  176.7890  138.5590 C   0  0  0  0  0  0  0  0  0  0  0  0
  179.6810  180.7940  140.4740 C   0  0  0  0  0  0  0  0  0  0  0  0
  184.4510  179.3770  143.9580 C   0  0  0  0  0  1  0  0  0  0  0  0
  179.2960  180.0500  138.0850 C   0  0  0  0  0  2  0  0  0  0  0  0
  181.0510  175.5050  139.1340 C   0  0  0  0  0  3  0  0  0  0  0  0
  180.6060  175.7850  136.3900 C   0  0  0  0  0  3  0  0  0  0  0  0
  180.6060  174.5140  136.9760 C   0  0  0  0  0  3  0  0  0  0  0  0
  181.5010  179.4020  136.9900 C   0  0  0  0  0  2  0  0  0  0  0  0
  180.2470  178.7540  141.5360 C   0  0  1  0  0  3  0  0  0  0  0  0
  179.6670  179.8070  139.4710 N   0  0  0  0  0  0  0  0  0  0  0  0
  181.6370  178.3830  141.7440 N   0  0  0  0  0  0  0  0  0  0  0  0
  178.9310  180.4000  142.6600 O   0  0  0  0  0  1  0  0  0  0  0  0
  181.2740  177.9850  139.4430 C   0  0  2  0  0  3  0  0  0  0  0  0
  1 16  1  0  0  0  0
  2  8  1  0  0  0  0
  3 17  2  0  0  0  0
  4 20  1  0  0  0  0
  5 27  1  1  0  0  0
  6 23  1  0  0  0  0
  6  1  1  0  0  0  0
  7  8  1  0  0  0  0
  8 14  1  0  0  0  0
  9 13  2  0  0  0  0
  9 18  1  0  0  0  0
 10  8  1  6  0  0  0
 10 26  1  0  0  0  0
 12 25  1  6  0  0  0
 12 24  1  0  0  0  0
 14  9  1  0  0  0  0
 15 11  1  6  0  0  0
 15 19  1  0  0  0  0
 16 20  2  0  0  0  0
 17  5  1  0  0  0  0
 19 25  1  0  0  0  0
 21 22  1  0  0  0  0
 21  1  2  0  0  0  0
 22  4  2  0  0  0  0
 23 15  1  0  0  0  0
 24 26  1  6  0  0  0
 24  5  1  0  0  0  0
 25 17  1  0  0  0  0
 26 13  1  0  0  0  0
 28 16  1  1  0  0  0
 28 12  1  0  0  0  0
 28 10  1  0  0  0  0
M  END
>  <MODEL>
2

>  <REMARK>
 VINA RESULT:      -5.7      3.439      5.352
  Name = 
  0 active torsions:
  status: ('A' for Active; 'I' for Inactive)
                            x       y       z     vdW  Elec       q    Type
                         _______ _______ _______ _____ _____    ______ ____

>  <TORSDO>
F 0

$$$$
=
 OpenBabel11122411523D

 28 32  0  0  1  0  0  0  0  0999 V2000
  192.0680  176.8860  139.2040 C   0  0  0  0  0  0  0  0  0  0  0  0
  189.4390  178.9800  136.8410 F   0  0  0  0  0  0  0  0  0  0  0  0
  190.8190  173.0050  134.6430 O   0  0  0  0  0  0  0  0  0  0  0  0
  190.3130  177.3010  141.3670 C   0  0  0  0  0  3  0  0  0  0  0  0
  188.7710  173.6150  135.7820 C   0  0  2  0  0  3  0  0  0  0  0  0
  193.0250  176.7090  138.1430 N   0  0  0  0  0  2  0  0  0  0  0  0
  189.5610  177.4040  135.2330 F   0  0  0  0  0  0  0  0  0  0  0  0
  188.8260  177.8600  136.3160 C   0  0  0  0  0  0  0  0  0  0  0  0
  186.6020  177.0100  135.5050 C   0  0  0  0  0  0  0  0  0  0  0  0
  188.7320  176.7820  137.3910 C   0  0  1  0  0  3  0  0  0  0  0  0
  194.4420  175.2290  135.7860 C   0  0  0  0  0  1  0  0  0  0  0  0
  189.9930  174.6830  137.6620 C   0  0  1  0  0  3  0  0  0  0  0  0
  186.8790  175.8460  136.0060 N   0  0  0  0  0  0  0  0  0  0  0  0
  187.4150  178.2270  135.8590 C   0  0  0  0  0  2  0  0  0  0  0  0
  192.9590  175.4170  136.0280 C   0  0  1  0  0  3  0  0  0  0  0  0
  190.6710  176.6780  139.0390 C   0  0  0  0  0  0  0  0  0  0  0  0
  190.2400  173.5650  135.6110 C   0  0  0  0  0  0  0  0  0  0  0  0
  185.4440  177.1520  134.5940 C   0  0  0  0  0  1  0  0  0  0  0  0
  192.3790  174.2240  136.7940 C   0  0  0  0  0  2  0  0  0  0  0  0
  189.8100  176.8840  140.1330 C   0  0  0  0  0  3  0  0  0  0  0  0
  192.5560  177.2810  140.4540 C   0  0  0  0  0  3  0  0  0  0  0  0
  191.6850  177.4930  141.5290 C   0  0  0  0  0  3  0  0  0  0  0  0
  192.6940  176.7490  136.7200 C   0  0  0  0  0  2  0  0  0  0  0  0
  188.5880  174.3720  137.1060 C   0  0  1  0  0  3  0  0  0  0  0  0
  190.9300  174.1860  136.6690 N   0  0  0  0  0  0  0  0  0  0  0  0
  187.9560  175.6630  136.8910 N   0  0  0  0  0  0  0  0  0  0  0  0
  188.2800  172.3160  135.9270 O   0  0  0  0  0  1  0  0  0  0  0  0
  190.0960  176.2030  137.7350 C   0  0  2  0  0  3  0  0  0  0  0  0
  1 21  1  0  0  0  0
  3 17  2  0  0  0  0
  4 22  1  0  0  0  0
  5 27  1  1  0  0  0
  5 24  1  0  0  0  0
  6  1  1  0  0  0  0
  7  8  1  0  0  0  0
  8  2  1  0  0  0  0
  9 14  1  0  0  0  0
  9 13  2  0  0  0  0
 10  8  1  6  0  0  0
 10 28  1  0  0  0  0
 12 25  1  6  0  0  0
 12 28  1  0  0  0  0
 13 26  1  0  0  0  0
 14  8  1  0  0  0  0
 15 11  1  1  0  0  0
 15 23  1  0  0  0  0
 15 19  1  0  0  0  0
 16  1  2  0  0  0  0
 16 20  1  0  0  0  0
 17  5  1  0  0  0  0
 17 25  1  0  0  0  0
 18  9  1  0  0  0  0
 20  4  2  0  0  0  0
 21 22  2  0  0  0  0
 23  6  1  0  0  0  0
 24 26  1  6  0  0  0
 24 12  1  0  0  0  0
 25 19  1  0  0  0  0
 26 10  1  0  0  0  0
 28 16  1  1  0  0  0
M  END
>  <MODEL>
3

>  <REMARK>
 VINA RESULT:      -5.7      5.789      9.091
  Name = 
  0 active torsions:
  status: ('A' for Active; 'I' for Inactive)
                            x       y       z     vdW  Elec       q    Type
                         _______ _______ _______ _____ _____    ______ ____

>  <TORSDO>
F 0

$$$$
=
 OpenBabel11122411523D

 28 32  0  0  1  0  0  0  0  0999 V2000
  180.4140  180.4940  139.4390 C   0  0  0  0  0  0  0  0  0  0  0  0
  183.9760  178.5030  138.9650 F   0  0  0  0  0  0  0  0  0  0  0  0
  179.2270  174.8850  141.5710 O   0  0  0  0  0  0  0  0  0  0  0  0
  180.4840  181.0880  136.6870 C   0  0  0  0  0  3  0  0  0  0  0  0
  179.9580  174.7460  139.2670 C   0  0  2  0  0  3  0  0  0  0  0  0
  180.3720  180.2720  140.8610 N   0  0  0  0  0  2  0  0  0  0  0  0
  183.2000  176.7450  140.1440 F   0  0  0  0  0  0  0  0  0  0  0  0
  183.4050  177.2500  138.8700 C   0  0  0  0  0  0  0  0  0  0  0  0
  183.6870  175.0190  137.7430 C   0  0  0  0  0  0  0  0  0  0  0  0
  182.0830  177.3500  138.1150 C   0  0  1  0  0  3  0  0  0  0  0  0
  179.5630  178.8240  143.5070 C   0  0  0  0  0  1  0  0  0  0  0  0
  179.7630  177.2000  138.9320 C   0  0  1  0  0  3  0  0  0  0  0  0
  182.3980  174.9180  137.6470 N   0  0  0  0  0  0  0  0  0  0  0  0
  184.3460  176.3260  138.0980 C   0  0  0  0  0  2  0  0  0  0  0  0
  180.0990  178.2200  142.2260 C   0  0  1  0  0  3  0  0  0  0  0  0
  180.7390  179.4790  138.4970 C   0  0  0  0  0  0  0  0  0  0  0  0
  179.5170  175.4570  140.4870 C   0  0  0  0  0  0  0  0  0  0  0  0
  184.5310  173.8340  137.4650 C   0  0  0  0  0  1  0  0  0  0  0  0
  178.9520  177.7830  141.3110 C   0  0  0  0  0  2  0  0  0  0  0  0
  180.7630  179.7930  137.1260 C   0  0  0  0  0  3  0  0  0  0  0  0
  180.1140  181.7810  138.9780 C   0  0  0  0  0  3  0  0  0  0  0  0
  180.1530  182.0800  137.6110 C   0  0  0  0  0  3  0  0  0  0  0  0
  181.0650  179.1820  141.5440 C   0  0  0  0  0  2  0  0  0  0  0  0
  180.1550  175.8750  138.2440 C   0  0  1  0  0  3  0  0  0  0  0  0
  179.4250  176.8490  140.3000 N   0  0  0  0  0  0  0  0  0  0  0  0
  181.5550  176.0190  137.8820 N   0  0  0  0  0  0  0  0  0  0  0  0
  178.9320  173.9070  138.8280 O   0  0  0  0  0  1  0  0  0  0  0  0
  181.0180  178.0680  138.9300 C   0  0  2  0  0  3  0  0  0  0  0  0
  1  6  1  0  0  0  0
  4 20  2  0  0  0  0
  4 22  1  0  0  0  0
  5 27  1  6  0  0  0
  5 17  1  0  0  0  0
  6 23  1  0  0  0  0
  8  2  1  0  0  0  0
  8  7  1  0  0  0  0
  9 14  1  0  0  0  0
 10 26  1  1  0  0  0
 10  8  1  0  0  0  0
 10 28  1  0  0  0  0
 12 25  1  1  0  0  0
 13  9  2  0  0  0  0
 13 26  1  0  0  0  0
 14  8  1  0  0  0  0
 15 11  1  1  0  0  0
 16  1  2  0  0  0  0
 17  3  2  0  0  0  0
 18  9  1  0  0  0  0
 19 15  1  0  0  0  0
 20 16  1  0  0  0  0
 21  1  1  0  0  0  0
 22 21  2  0  0  0  0
 23 15  1  0  0  0  0
 24 26  1  1  0  0  0
 24 12  1  0  0  0  0
 24  5  1  0  0  0  0
 25 17  1  0  0  0  0
 25 19  1  0  0  0  0
 28 16  1  6  0  0  0
 28 12  1  0  0  0  0
M  END
>  <MODEL>
4

>  <REMARK>
 VINA RESULT:      -5.7      3.069      4.366
  Name = 
  0 active torsions:
  status: ('A' for Active; 'I' for Inactive)
                            x       y       z     vdW  Elec       q    Type
                         _______ _______ _______ _____ _____    ______ ____

>  <TORSDO>
F 0

$$$$
=
 OpenBabel11122411523D

 28 32  0  0  1  0  0  0  0  0999 V2000
  183.8140  176.4650  137.5040 C   0  0  0  0  0  0  0  0  0  0  0  0
  181.5270  179.6230  136.2090 F   0  0  0  0  0  0  0  0  0  0  0  0
  178.9310  176.3170  141.1860 O   0  0  0  0  0  0  0  0  0  0  0  0
  185.9400  178.2740  137.8750 C   0  0  0  0  0  3  0  0  0  0  0  0
  180.0410  178.4600  141.3850 C   0  0  2  0  0  3  0  0  0  0  0  0
  182.7770  175.4960  137.2650 N   0  0  0  0  0  2  0  0  0  0  0  0
  179.8100  178.9710  137.5170 F   0  0  0  0  0  0  0  0  0  0  0  0
  180.8980  179.8240  137.4210 C   0  0  0  0  0  0  0  0  0  0  0  0
  179.9480  181.6320  138.8890 C   0  0  0  0  0  0  0  0  0  0  0  0
  181.8840  179.5630  138.5550 C   0  0  1  0  0  3  0  0  0  0  0  0
  180.3640  173.6500  137.9910 C   0  0  0  0  0  1  0  0  0  0  0  0
  182.0380  177.6770  140.1330 C   0  0  1  0  0  3  0  0  0  0  0  0
  180.3680  180.9880  139.9330 N   0  0  0  0  0  0  0  0  0  0  0  0
  180.4220  181.2740  137.5050 C   0  0  0  0  0  2  0  0  0  0  0  0
  180.5680  175.1130  138.3260 C   0  0  1  0  0  3  0  0  0  0  0  0
  183.5860  177.7120  138.1490 C   0  0  0  0  0  0  0  0  0  0  0  0
  179.9180  177.0570  140.9320 C   0  0  0  0  0  0  0  0  0  0  0  0
  179.0100  182.7650  139.0630 C   0  0  0  0  0  1  0  0  0  0  0  0
  181.2200  175.2680  139.7030 C   0  0  0  0  0  2  0  0  0  0  0  0
  184.6610  178.6010  138.3300 C   0  0  0  0  0  3  0  0  0  0  0  0
  185.1070  176.1450  137.0750 C   0  0  0  0  0  3  0  0  0  0  0  0
  186.1640  177.0450  137.2540 C   0  0  0  0  0  3  0  0  0  0  0  0
  181.3500  175.8100  137.2190 C   0  0  0  0  0  2  0  0  0  0  0  0
  181.4110  178.8950  140.8440 C   0  0  1  0  0  3  0  0  0  0  0  0
  181.0430  176.6210  140.2080 N   0  0  0  0  0  0  0  0  0  0  0  0
  181.2730  179.9190  139.8220 N   0  0  0  0  0  0  0  0  0  0  0  0
  180.0700  178.4920  142.7800 O   0  0  0  0  0  1  0  0  0  0  0  0
  182.2300  178.0860  138.6760 C   0  0  2  0  0  3  0  0  0  0  0  0
  1 16  1  0  0  0  0
  2  8  1  0  0  0  0
  4 20  1  0  0  0  0
  5 27  1  1  0  0  0
  6  1  1  0  0  0  0
  8 14  1  0  0  0  0
  8  7  1  0  0  0  0
  9 18  1  0  0  0  0
  9 13  2  0  0  0  0
 10  8  1  6  0  0  0
 10 28  1  0  0  0  0
 10 26  1  0  0  0  0
 12 25  1  6  0  0  0
 12 24  1  0  0  0  0
 14  9  1  0  0  0  0
 15 11  1  6  0  0  0
 15 19  1  0  0  0  0
 16 20  2  0  0  0  0
 17  3  2  0  0  0  0
 17  5  1  0  0  0  0
 19 25  1  0  0  0  0
 21 22  1  0  0  0  0
 21  1  2  0  0  0  0
 22  4  2  0  0  0  0
 23  6  1  0  0  0  0
 23 15  1  0  0  0  0
 24 26  1  6  0  0  0
 24  5  1  0  0  0  0
 25 17  1  0  0  0  0
 26 13  1  0  0  0  0
 28 16  1  1  0  0  0
 28 12  1  0  0  0  0
M  END
>  <MODEL>
5

>  <REMARK>
 VINA RESULT:      -5.6      3.268      5.500
  Name = 
  0 active torsions:
  status: ('A' for Active; 'I' for Inactive)
                            x       y       z     vdW  Elec       q    Type
                         _______ _______ _______ _____ _____    ______ ____

>  <TORSDO>
F 0

$$$$
=
 OpenBabel11122411523D

 28 32  0  0  1  0  0  0  0  0999 V2000
  191.8750  176.3470  137.6880 C   0  0  0  0  0  0  0  0  0  0  0  0
  189.4850  173.0210  137.3680 F   0  0  0  0  0  0  0  0  0  0  0  0
  186.2080  178.6470  137.5840 O   0  0  0  0  0  0  0  0  0  0  0  0
  193.2120  175.5000  135.3590 C   0  0  0  0  0  3  0  0  0  0  0  0
  186.6050  177.3610  135.5710 C   0  0  2  0  0  3  0  0  0  0  0  0
  191.2650  176.7820  138.9180 N   0  0  0  0  0  2  0  0  0  0  0  0
  187.6360  174.2630  137.7210 F   0  0  0  0  0  0  0  0  0  0  0  0
  188.4400  173.6800  136.7540 C   0  0  0  0  0  0  0  0  0  0  0  0
  186.6140  173.3570  135.0530 C   0  0  0  0  0  0  0  0  0  0  0  0
  188.9930  174.7410  135.8080 C   0  0  1  0  0  3  0  0  0  0  0  0
  189.2920  178.4040  140.7150 C   0  0  0  0  0  1  0  0  0  0  0  0
  189.0440  177.1950  136.0150 C   0  0  1  0  0  3  0  0  0  0  0  0
  186.7850  174.5800  134.6560 N   0  0  0  0  0  0  0  0  0  0  0  0
  187.6200  172.6760  135.9440 C   0  0  0  0  0  2  0  0  0  0  0  0
  188.9940  177.6210  139.4540 C   0  0  1  0  0  3  0  0  0  0  0  0
  191.1320  175.9000  136.5620 C   0  0  0  0  0  0  0  0  0  0  0  0
  187.0040  178.0250  136.8320 C   0  0  0  0  0  0  0  0  0  0  0  0
  185.4260  172.6030  134.5940 C   0  0  0  0  0  1  0  0  0  0  0  0
  189.0580  178.5310  138.2230 C   0  0  0  0  0  2  0  0  0  0  0  0
  191.8170  175.4860  135.4040 C   0  0  0  0  0  3  0  0  0  0  0  0
  193.2720  176.3760  137.6160 C   0  0  0  0  0  3  0  0  0  0  0  0
  193.9390  175.9500  136.4620 C   0  0  0  0  0  3  0  0  0  0  0  0
  189.9170  176.4130  139.3440 C   0  0  0  0  0  2  0  0  0  0  0  0
  187.9240  176.7840  135.0360 C   0  0  1  0  0  3  0  0  0  0  0  0
  188.3830  177.9150  137.0910 N   0  0  0  0  0  0  0  0  0  0  0  0
  187.9070  175.3300  135.0480 N   0  0  0  0  0  0  0  0  0  0  0  0
  186.1310  178.3210  134.6760 O   0  0  0  0  0  1  0  0  0  0  0  0
  189.6300  175.8980  136.5630 C   0  0  2  0  0  3  0  0  0  0  0  0
  1  6  1  0  0  0  0
  4 20  2  0  0  0  0
  4 22  1  0  0  0  0
  5 27  1  6  0  0  0
  5 17  1  0  0  0  0
  6 23  1  0  0  0  0
  8  2  1  0  0  0  0
  8  7  1  0  0  0  0
  9 14  1  0  0  0  0
 10 26  1  1  0  0  0
 10 28  1  0  0  0  0
 10  8  1  0  0  0  0
 12 28  1  0  0  0  0
 12 25  1  1  0  0  0
 13 26  1  0  0  0  0
 13  9  2  0  0  0  0
 14  8  1  0  0  0  0
 15 11  1  1  0  0  0
 16  1  2  0  0  0  0
 17 25  1  0  0  0  0
 17  3  2  0  0  0  0
 18  9  1  0  0  0  0
 19 15  1  0  0  0  0
 20 16  1  0  0  0  0
 21  1  1  0  0  0  0
 22 21  2  0  0  0  0
 23 15  1  0  0  0  0
 24 26  1  1  0  0  0
 24  5  1  0  0  0  0
 24 12  1  0  0  0  0
 25 19  1  0  0  0  0
 28 16  1  6  0  0  0
M  END
>  <MODEL>
6

>  <REMARK>
 VINA RESULT:      -5.6      5.544      8.883
  Name = 
  0 active torsions:
  status: ('A' for Active; 'I' for Inactive)
                            x       y       z     vdW  Elec       q    Type
                         _______ _______ _______ _____ _____    ______ ____

>  <TORSDO>
F 0

$$$$
=
 OpenBabel11122411523D

 28 32  0  0  1  0  0  0  0  0999 V2000
  183.2750  178.7690  142.5000 C   0  0  0  0  0  0  0  0  0  0  0  0
  182.6560  175.4290  140.1880 F   0  0  0  0  0  0  0  0  0  0  0  0
  178.9310  180.5200  138.5650 O   0  0  0  0  0  0  0  0  0  0  0  0
  185.9980  178.6410  141.7960 C   0  0  0  0  0  3  0  0  0  0  0  0
  180.8990  179.8100  137.3470 C   0  0  2  0  0  3  0  0  0  0  0  0
  181.9050  178.8320  142.9400 N   0  0  0  0  0  2  0  0  0  0  0  0
  180.8550  176.3800  139.2210 F   0  0  0  0  0  0  0  0  0  0  0  0
  182.2110  176.1250  139.0830 C   0  0  0  0  0  0  0  0  0  0  0  0
  182.2170  176.0730  136.5690 C   0  0  0  0  0  0  0  0  0  0  0  0
  182.9900  177.4310  138.9570 C   0  0  1  0  0  3  0  0  0  0  0  0
  178.9310  179.7820  142.9050 C   0  0  0  0  0  1  0  0  0  0  0  0
  182.2960  179.7530  139.4000 C   0  0  1  0  0  3  0  0  0  0  0  0
  182.3160  177.3660  136.5540 N   0  0  0  0  0  0  0  0  0  0  0  0
  182.4490  175.2840  137.8300 C   0  0  0  0  0  2  0  0  0  0  0  0
  179.7850  179.3120  141.7460 C   0  0  1  0  0  3  0  0  0  0  0  0
  183.6520  178.5500  141.1460 C   0  0  0  0  0  0  0  0  0  0  0  0
  180.1420  180.1740  138.5640 C   0  0  0  0  0  0  0  0  0  0  0  0
  181.9020  175.3550  135.3120 C   0  0  0  0  0  1  0  0  0  0  0  0
  180.4620  180.4990  141.0550 C   0  0  0  0  0  2  0  0  0  0  0  0
  185.0180  178.4950  140.8120 C   0  0  0  0  0  3  0  0  0  0  0  0
  184.2710  178.9360  143.4680 C   0  0  0  0  0  3  0  0  0  0  0  0
  185.6250  178.8680  143.1210 C   0  0  0  0  0  3  0  0  0  0  0  0
  180.7790  178.2530  142.2110 C   0  0  0  0  0  2  0  0  0  0  0  0
  182.3070  179.4990  137.8780 C   0  0  1  0  0  3  0  0  0  0  0  0
  180.9310  180.1240  139.7290 N   0  0  0  0  0  0  0  0  0  0  0  0
  182.6320  178.0920  137.7160 N   0  0  0  0  0  0  0  0  0  0  0  0
  180.9660  180.9160  136.4980 O   0  0  0  0  0  1  0  0  0  0  0  0
  182.6260  178.4160  140.0570 C   0  0  2  0  0  3  0  0  0  0  0  0
  1  6  1  0  0  0  0
  1 21  1  0  0  0  0
  4 22  1  0  0  0  0
  5 27  1  6  0  0  0
  5 24  1  0  0  0  0
  5 17  1  0  0  0  0
  8  7  1  0  0  0  0
  8  2  1  0  0  0  0
  9 14  1  0  0  0  0
 10 26  1  6  0  0  0
 10  8  1  0  0  0  0
 10 28  1  0  0  0  0
 12 25  1  1  0  0  0
 12 28  1  0  0  0  0
 13  9  2  0  0  0  0
 13 26  1  0  0  0  0
 14  8  1  0  0  0  0
 15 23  1  0  0  0  0
 15 11  1  1  0  0  0
 16  1  2  0  0  0  0
 17  3  2  0  0  0  0
 17 25  1  0  0  0  0
 18  9  1  0  0  0  0
 19 15  1  0  0  0  0
 20 16  1  0  0  0  0
 20  4  2  0  0  0  0
 22 21  2  0  0  0  0
 23  6  1  0  0  0  0
 24 26  1  1  0  0  0
 24 12  1  0  0  0  0
 25 19  1  0  0  0  0
 28 16  1  1  0  0  0
M  END
>  <MODEL>
7

>  <REMARK>
 VINA RESULT:      -5.4      2.873      5.366
  Name = 
  0 active torsions:
  status: ('A' for Active; 'I' for Inactive)
                            x       y       z     vdW  Elec       q    Type
                         _______ _______ _______ _____ _____    ______ ____

>  <TORSDO>
F 0

$$$$
=
 OpenBabel11122411523D

 28 32  0  0  1  0  0  0  0  0999 V2000
  180.5580  177.0360  136.2800 C   0  0  0  0  0  0  0  0  0  0  0  0
  181.5330  177.9670  140.1610 F   0  0  0  0  0  0  0  0  0  0  0  0
  185.9720  174.3100  137.1020 O   0  0  0  0  0  0  0  0  0  0  0  0
  180.3100  179.7960  135.7760 C   0  0  0  0  0  3  0  0  0  0  0  0
  186.1860  176.6890  137.5010 C   0  0  2  0  0  3  0  0  0  0  0  0
  180.6080  175.6160  136.5100 N   0  0  0  0  0  2  0  0  0  0  0  0
  183.2780  176.5400  140.1100 F   0  0  0  0  0  0  0  0  0  0  0  0
  182.8970  177.8650  139.9730 C   0  0  0  0  0  0  0  0  0  0  0  0
  185.0840  178.8510  140.7280 C   0  0  0  0  0  0  0  0  0  0  0  0
  183.2580  178.3850  138.5850 C   0  0  1  0  0  3  0  0  0  0  0  0
  181.8870  172.7670  136.5490 C   0  0  0  0  0  1  0  0  0  0  0  0
  183.9410  177.1710  136.5530 C   0  0  1  0  0  3  0  0  0  0  0  0
  185.5470  178.7140  139.5240 N   0  0  0  0  0  0  0  0  0  0  0  0
  183.6130  178.7160  141.0210 C   0  0  0  0  0  2  0  0  0  0  0  0
  182.4720  174.0720  137.0470 C   0  0  1  0  0  3  0  0  0  0  0  0
  181.5520  177.9390  136.7480 C   0  0  0  0  0  0  0  0  0  0  0  0
  185.4800  175.4680  137.0530 C   0  0  0  0  0  0  0  0  0  0  0  0
  186.0150  179.1800  141.8320 C   0  0  0  0  0  1  0  0  0  0  0  0
  183.3170  174.7380  135.9580 C   0  0  0  0  0  2  0  0  0  0  0  0
  181.4140  179.3140  136.4810 C   0  0  0  0  0  3  0  0  0  0  0  0
  179.4700  177.5350  135.5550 C   0  0  0  0  0  3  0  0  0  0  0  0
  179.3420  178.9060  135.3080 C   0  0  0  0  0  3  0  0  0  0  0  0
  181.3720  174.9810  137.5820 C   0  0  0  0  0  2  0  0  0  0  0  0
  185.1800  177.8130  137.2100 C   0  0  1  0  0  3  0  0  0  0  0  0
  184.2010  175.7420  136.5320 N   0  0  0  0  0  0  0  0  0  0  0  0
  184.7010  178.4220  138.4400 N   0  0  0  0  0  0  0  0  0  0  0  0
  187.3220  176.8780  136.7130 O   0  0  0  0  0  1  0  0  0  0  0  0
  182.7680  177.4550  137.4860 C   0  0  2  0  0  3  0  0  0  0  0  0
  1  6  1  0  0  0  0
  1 16  1  0  0  0  0
  4 20  1  0  0  0  0
  5 27  1  6  0  0  0
  6 23  1  0  0  0  0
  8  7  1  0  0  0  0
  8  2  1  0  0  0  0
  8 14  1  0  0  0  0
  9 14  1  0  0  0  0
  9 18  1  0  0  0  0
 10 26  1  1  0  0  0
 10  8  1  0  0  0  0
 12 25  1  1  0  0  0
 12 24  1  0  0  0  0
 12 28  1  0  0  0  0
 13  9  2  0  0  0  0
 15 11  1  6  0  0  0
 15 23  1  0  0  0  0
 17  3  2  0  0  0  0
 17  5  1  0  0  0  0
 19 25  1  0  0  0  0
 19 15  1  0  0  0  0
 20 16  2  0  0  0  0
 21  1  2  0  0  0  0
 22 21  1  0  0  0  0
 22  4  2  0  0  0  0
 24  5  1  0  0  0  0
 24 26  1  1  0  0  0
 25 17  1  0  0  0  0
 26 13  1  0  0  0  0
 28 16  1  6  0  0  0
 28 10  1  0  0  0  0
M  END
>  <MODEL>
8

>  <REMARK>
 VINA RESULT:      -5.3      1.978      2.486
  Name = 
  0 active torsions:
  status: ('A' for Active; 'I' for Inactive)
                            x       y       z     vdW  Elec       q    Type
                         _______ _______ _______ _____ _____    ______ ____

>  <TORSDO>
F 0

$$$$
=
 OpenBabel11122411523D

 28 32  0  0  1  0  0  0  0  0999 V2000
  186.3920  178.0510  139.0730 C   0  0  0  0  0  0  0  0  0  0  0  0
  183.7210  181.1180  138.4920 F   0  0  0  0  0  0  0  0  0  0  0  0
  181.3000  175.2040  137.2340 O   0  0  0  0  0  0  0  0  0  0  0  0
  186.7440  178.9780  141.7090 C   0  0  0  0  0  3  0  0  0  0  0  0
  180.8430  176.4810  139.2400 C   0  0  2  0  0  3  0  0  0  0  0  0
  186.2930  177.5830  137.7150 N   0  0  0  0  0  2  0  0  0  0  0  0
  182.2440  179.7080  137.5370 F   0  0  0  0  0  0  0  0  0  0  0  0
  182.5990  180.3480  138.7140 C   0  0  0  0  0  0  0  0  0  0  0  0
  180.2740  180.4550  139.6680 C   0  0  0  0  0  0  0  0  0  0  0  0
  182.8910  179.3270  139.8090 C   0  0  1  0  0  3  0  0  0  0  0  0
  185.2400  175.8130  135.3680 C   0  0  0  0  0  1  0  0  0  0  0  0
  183.2540  176.8940  139.6690 C   0  0  1  0  0  3  0  0  0  0  0  0
  180.4160  179.2470  140.1180 N   0  0  0  0  0  0  0  0  0  0  0  0
  181.4530  181.2500  139.1730 C   0  0  0  0  0  2  0  0  0  0  0  0
  184.4450  176.5370  136.4350 C   0  0  1  0  0  3  0  0  0  0  0  0
  185.2620  178.3990  139.8640 C   0  0  0  0  0  0  0  0  0  0  0  0
  181.7190  175.8850  138.2060 C   0  0  0  0  0  0  0  0  0  0  0  0
  178.9310  181.0790  139.6740 C   0  0  0  0  0  1  0  0  0  0  0  0
  184.1670  175.6120  137.6240 C   0  0  0  0  0  2  0  0  0  0  0  0
  185.4580  178.8550  141.1810 C   0  0  0  0  0  3  0  0  0  0  0  0
  187.6720  178.1580  139.6270 C   0  0  0  0  0  3  0  0  0  0  0  0
  187.8500  178.6230  140.9350 C   0  0  0  0  0  3  0  0  0  0  0  0
  185.1480  177.8270  136.8410 C   0  0  0  0  0  2  0  0  0  0  0  0
  181.8290  177.1740  140.1910 C   0  0  1  0  0  3  0  0  0  0  0  0
  183.0830  176.1360  138.4420 N   0  0  0  0  0  0  0  0  0  0  0  0
  181.6730  178.6180  140.1520 N   0  0  0  0  0  0  0  0  0  0  0  0
  180.1850  175.4610  139.9280 O   0  0  0  0  0  1  0  0  0  0  0  0
  183.8620  178.2540  139.3400 C   0  0  2  0  0  3  0  0  0  0  0  0
  1 21  2  0  0  0  0
  1 16  1  0  0  0  0
  2  8  1  0  0  0  0
  3 17  2  0  0  0  0
  5 27  1  1  0  0  0
  5 24  1  0  0  0  0
  6  1  1  0  0  0  0
  7  8  1  0  0  0  0
  8 14  1  0  0  0  0
  9 18  1  0  0  0  0
  9 13  2  0  0  0  0
 10  8  1  6  0  0  0
 10 26  1  0  0  0  0
 12 25  1  6  0  0  0
 12 24  1  0  0  0  0
 13 26  1  0  0  0  0
 14  9  1  0  0  0  0
 15 11  1  6  0  0  0
 15 23  1  0  0  0  0
 15 19  1  0  0  0  0
 16 20  2  0  0  0  0
 17 25  1  0  0  0  0
 17  5  1  0  0  0  0
 19 25  1  0  0  0  0
 20  4  1  0  0  0  0
 21 22  1  0  0  0  0
 22  4  2  0  0  0  0
 23  6  1  0  0  0  0
 24 26  1  6  0  0  0
 28 12  1  0  0  0  0
 28 10  1  0  0  0  0
 28 16  1  1  0  0  0
M  END
>  <MODEL>
9

>  <REMARK>
 VINA RESULT:      -5.0      1.975      5.340
  Name = 
  0 active torsions:
  status: ('A' for Active; 'I' for Inactive)
                            x       y       z     vdW  Elec       q    Type
                         _______ _______ _______ _____ _____    ______ ____

>  <TORSDO>
F 0

$$$$
