=
 OpenBabel11122411563D

 28 32  0  0  1  0  0  0  0  0999 V2000
  180.9310  179.3100  137.7230 C   0  0  0  0  0  0  0  0  0  0  0  0
  185.2290  176.7200  138.4940 F   0  0  0  0  0  0  0  0  0  0  0  0
  180.7660  179.0070  142.5670 O   0  0  0  0  0  0  0  0  0  0  0  0
  181.5550  181.9780  138.3300 C   0  0  0  0  0  3  0  0  0  0  0  0
  183.1050  178.6600  142.1880 C   0  0  0  0  0  0  0  0  0  0  0  0
  180.5420  177.8910  137.4430 C   0  0  0  0  0  2  0  0  0  0  0  0
  185.7220  178.2660  136.7800 C   0  0  0  0  0  1  0  0  0  0  0  0
  185.6020  178.0380  138.2750 C   0  0  1  0  0  0  0  0  0  0  0  0
  186.7990  178.2460  140.4220 C   0  0  1  0  0  3  0  0  0  0  0  0
  184.5660  179.0240  138.8580 C   0  0  2  0  0  3  0  0  0  0  0  0
  179.0460  179.0060  140.0420 O   0  0  0  0  0  1  0  0  0  0  0  0
  182.8500  177.7030  140.0100 C   0  0  1  0  0  3  0  0  0  0  0  0
  186.0540  179.3780  140.8220 O   0  0  0  0  0  0  0  0  0  0  0  0
  186.9730  178.2530  138.9090 C   0  0  0  0  0  2  0  0  0  0  0  0
  179.2360  177.6690  139.6710 C   0  0  2  0  0  3  0  0  0  0  0  0
  182.1350  179.6060  138.3930 C   0  0  0  0  0  0  0  0  0  0  0  0
  181.7110  178.5990  141.8470 C   0  0  0  0  0  0  0  0  0  0  0  0
  188.0320  178.2540  141.0650 O   0  0  0  0  0  1  0  0  0  0  0  0
  180.4270  177.0340  140.3800 C   0  0  0  0  0  2  0  0  0  0  0  0
  182.4180  180.9480  138.7180 C   0  0  0  0  0  3  0  0  0  0  0  0
  180.0800  180.3530  137.3230 C   0  0  0  0  0  3  0  0  0  0  0  0
  180.3900  181.6760  137.6260 C   0  0  0  0  0  3  0  0  0  0  0  0
  179.2380  177.4990  138.1420 C   0  0  0  0  0  2  0  0  0  0  0  0
  183.9140  178.1350  141.0560 C   0  0  1  0  0  3  0  0  0  0  0  0
  181.5250  177.9780  140.5840 N   0  0  0  0  0  0  0  0  0  0  0  0
  184.7160  179.2310  140.3730 C   0  0  2  0  0  3  0  0  0  0  0  0
  183.5510  178.9030  143.3390 O   0  0  0  0  0  0  0  0  0  0  0  0
  183.1370  178.5010  138.7120 C   0  0  1  0  0  3  0  0  0  0  0  0
  1 16  1  0  0  0  0
  4 20  1  0  0  0  0
  5 27  2  0  0  0  0
  6  1  1  0  0  0  0
  6 23  1  0  0  0  0
  8  7  1  6  0  0  0
  8  2  1  0  0  0  0
  8 10  1  0  0  0  0
  8 14  1  0  0  0  0
  9 13  1  0  0  0  0
  9 18  1  1  0  0  0
 10 26  1  0  0  0  0
 12 25  1  0  0  0  0
 12 24  1  0  0  0  0
 14  9  1  0  0  0  0
 15 11  1  0  0  0  0
 15 19  1  0  0  0  0
 16 28  1  0  0  0  0
 16 20  2  0  0  0  0
 17  5  1  0  0  0  0
 17  3  2  0  0  0  0
 19 25  1  0  0  0  0
 21 22  1  0  0  0  0
 21  1  2  0  0  0  0
 22  4  2  0  0  0  0
 23 15  1  0  0  0  0
 24  5  1  0  0  0  0
 25 17  1  0  0  0  0
 26 13  1  0  0  0  0
 26 24  1  0  0  0  0
 28 10  1  0  0  0  0
 28 12  1  0  0  0  0
M  END
>  <MODEL>
1

>  <REMARK>
 VINA RESULT:      -5.8      0.000      0.000
  Name = 
  0 active torsions:
  status: ('A' for Active; 'I' for Inactive)
                            x       y       z     vdW  Elec       q    Type
                         _______ _______ _______ _____ _____    ______ ____

>  <TORSDO>
F 0

$$$$
=
 OpenBabel11122411563D

 28 32  0  0  1  0  0  0  0  0999 V2000
  189.4300  178.1170  138.1020 C   0  0  0  0  0  0  0  0  0  0  0  0
  192.3540  175.8990  134.5940 F   0  0  0  0  0  0  0  0  0  0  0  0
  186.7020  174.1980  137.2180 O   0  0  0  0  0  0  0  0  0  0  0  0
  189.9330  176.7130  140.4800 C   0  0  0  0  0  3  0  0  0  0  0  0
  188.8330  173.4300  136.4420 C   0  0  0  0  0  0  0  0  0  0  0  0
  189.0930  178.8560  136.8440 C   0  0  0  0  0  2  0  0  0  0  0  0
  193.8470  176.7550  136.2100 C   0  0  0  0  0  1  0  0  0  0  0  0
  192.9310  175.6090  135.8210 C   0  0  1  0  0  0  0  0  0  0  0  0
  192.8290  173.1660  135.4960 C   0  0  1  0  0  3  0  0  0  0  0  0
  191.8610  175.4190  136.9190 C   0  0  2  0  0  3  0  0  0  0  0  0
  186.5860  177.1730  137.9020 O   0  0  0  0  0  1  0  0  0  0  0  0
  189.6610  175.5940  135.8480 C   0  0  1  0  0  3  0  0  0  0  0  0
  192.1170  172.9530  136.6970 O   0  0  0  0  0  0  0  0  0  0  0  0
  193.7750  174.3490  135.6610 C   0  0  0  0  0  2  0  0  0  0  0  0
  186.7920  177.6830  136.6140 C   0  0  2  0  0  3  0  0  0  0  0  0
  190.1240  176.8900  138.0510 C   0  0  0  0  0  0  0  0  0  0  0  0
  187.8320  174.4220  136.7180 C   0  0  0  0  0  0  0  0  0  0  0  0
  193.5290  172.0110  135.1630 O   0  0  0  0  0  1  0  0  0  0  0  0
  187.3500  176.6340  135.6590 C   0  0  0  0  0  2  0  0  0  0  0  0
  190.3400  176.1830  139.2500 C   0  0  0  0  0  3  0  0  0  0  0  0
  189.0420  178.6470  139.3420 C   0  0  0  0  0  3  0  0  0  0  0  0
  189.2900  177.9490  140.5210 C   0  0  0  0  0  3  0  0  0  0  0  0
  187.5820  179.0030  136.6460 C   0  0  0  0  0  2  0  0  0  0  0  0
  190.0520  174.0930  135.9100 C   0  0  1  0  0  3  0  0  0  0  0  0
  188.2720  175.7100  136.3170 N   0  0  0  0  0  0  0  0  0  0  0  0
  191.2110  174.0280  136.8920 C   0  0  2  0  0  3  0  0  0  0  0  0
  188.6280  172.1880  136.4360 O   0  0  0  0  0  0  0  0  0  0  0  0
  190.6760  176.3670  136.7290 C   0  0  1  0  0  3  0  0  0  0  0  0
  1 21  1  0  0  0  0
  2  8  1  0  0  0  0
  4 22  1  0  0  0  0
  5 17  1  0  0  0  0
  6  1  1  0  0  0  0
  8  7  1  1  0  0  0
  8 10  1  0  0  0  0
  9 18  1  1  0  0  0
  9 14  1  0  0  0  0
  9 13  1  0  0  0  0
 12 24  1  0  0  0  0
 12 25  1  0  0  0  0
 12 28  1  0  0  0  0
 13 26  1  0  0  0  0
 14  8  1  0  0  0  0
 15 23  1  0  0  0  0
 15 11  1  0  0  0  0
 16  1  2  0  0  0  0
 16 20  1  0  0  0  0
 17  3  2  0  0  0  0
 19 25  1  0  0  0  0
 19 15  1  0  0  0  0
 20  4  2  0  0  0  0
 21 22  2  0  0  0  0
 23  6  1  0  0  0  0
 24  5  1  0  0  0  0
 24 26  1  0  0  0  0
 25 17  1  0  0  0  0
 26 10  1  0  0  0  0
 27  5  2  0  0  0  0
 28 10  1  0  0  0  0
 28 16  1  0  0  0  0
M  END
>  <MODEL>
2

>  <REMARK>
 VINA RESULT:      -5.8      6.055      8.954
  Name = 
  0 active torsions:
  status: ('A' for Active; 'I' for Inactive)
                            x       y       z     vdW  Elec       q    Type
                         _______ _______ _______ _____ _____    ______ ____

>  <TORSDO>
F 0

$$$$
=
 OpenBabel11122411563D

 28 32  0  0  1  0  0  0  0  0999 V2000
  180.3940  177.7830  138.0950 C   0  0  0  0  0  0  0  0  0  0  0  0
  183.6470  174.0300  137.0430 F   0  0  0  0  0  0  0  0  0  0  0  0
  184.5160  179.9570  139.4610 O   0  0  0  0  0  0  0  0  0  0  0  0
  180.6380  179.5930  135.9640 C   0  0  0  0  0  3  0  0  0  0  0  0
  185.3760  178.2770  137.9890 C   0  0  0  0  0  0  0  0  0  0  0  0
  180.2740  176.8710  139.2770 C   0  0  0  0  0  2  0  0  0  0  0  0
  182.0870  174.0290  135.2710 C   0  0  0  0  0  1  0  0  0  0  0  0
  183.3550  174.6430  135.8330 C   0  0  1  0  0  0  0  0  0  0  0  0
  185.7120  175.1620  135.3200 C   0  0  1  0  0  3  0  0  0  0  0  0
  183.1500  176.1650  136.0050 C   0  0  2  0  0  3  0  0  0  0  0  0
  181.5440  179.6850  140.1150 O   0  0  0  0  0  1  0  0  0  0  0  0
  183.6010  176.7150  138.3520 C   0  0  1  0  0  3  0  0  0  0  0  0
  185.4570  176.5410  135.1500 O   0  0  0  0  0  0  0  0  0  0  0  0
  184.5010  174.3550  134.8680 C   0  0  0  0  0  2  0  0  0  0  0  0
  181.6030  178.4760  140.8190 C   0  0  2  0  0  3  0  0  0  0  0  0
  181.4750  177.6580  137.1980 C   0  0  0  0  0  0  0  0  0  0  0  0
  184.4370  178.8230  138.9280 C   0  0  0  0  0  0  0  0  0  0  0  0
  186.8450  174.8080  134.5950 O   0  0  0  0  0  1  0  0  0  0  0  0
  182.9100  177.7290  140.5770 C   0  0  0  0  0  2  0  0  0  0  0  0
  181.5990  178.5950  136.1530 C   0  0  0  0  0  3  0  0  0  0  0  0
  179.4250  178.7770  137.8870 C   0  0  0  0  0  3  0  0  0  0  0  0
  179.5480  179.6760  136.8310 C   0  0  0  0  0  3  0  0  0  0  0  0
  180.3360  177.6310  140.6050 C   0  0  0  0  0  2  0  0  0  0  0  0
  184.9070  176.9390  137.5420 C   0  0  1  0  0  3  0  0  0  0  0  0
  183.4040  177.8910  139.2100 N   0  0  0  0  0  0  0  0  0  0  0  0
  184.4700  176.9460  136.0860 C   0  0  2  0  0  3  0  0  0  0  0  0
  186.5190  178.7510  137.7600 O   0  0  0  0  0  0  0  0  0  0  0  0
  182.4590  176.5010  137.3270 C   0  0  1  0  0  3  0  0  0  0  0  0
  1  6  1  0  0  0  0
  4 20  2  0  0  0  0
  4 22  1  0  0  0  0
  5 17  1  0  0  0  0
  6 23  1  0  0  0  0
  8  7  1  6  0  0  0
  8 10  1  0  0  0  0
  8  2  1  0  0  0  0
  9 18  1  6  0  0  0
 10 26  1  0  0  0  0
 10 28  1  0  0  0  0
 11 15  1  0  0  0  0
 12 25  1  0  0  0  0
 13  9  1  0  0  0  0
 13 26  1  0  0  0  0
 14  9  1  0  0  0  0
 14  8  1  0  0  0  0
 16 28  1  0  0  0  0
 16  1  2  0  0  0  0
 17 25  1  0  0  0  0
 17  3  2  0  0  0  0
 19 15  1  0  0  0  0
 20 16  1  0  0  0  0
 21  1  1  0  0  0  0
 22 21  2  0  0  0  0
 23 15  1  0  0  0  0
 24  5  1  0  0  0  0
 24 12  1  0  0  0  0
 25 19  1  0  0  0  0
 26 24  1  0  0  0  0
 27  5  2  0  0  0  0
 28 12  1  0  0  0  0
M  END
>  <MODEL>
3

>  <REMARK>
 VINA RESULT:      -5.4      2.979      4.178
  Name = 
  0 active torsions:
  status: ('A' for Active; 'I' for Inactive)
                            x       y       z     vdW  Elec       q    Type
                         _______ _______ _______ _____ _____    ______ ____

>  <TORSDO>
F 0

$$$$
=
 OpenBabel11122411563D

 28 32  0  0  1  0  0  0  0  0999 V2000
  180.5510  176.4520  136.3980 C   0  0  0  0  0  0  0  0  0  0  0  0
  185.4420  175.5290  137.3980 F   0  0  0  0  0  0  0  0  0  0  0  0
  180.6770  177.9810  141.0060 O   0  0  0  0  0  0  0  0  0  0  0  0
  180.4000  179.2140  135.9260 C   0  0  0  0  0  3  0  0  0  0  0  0
  182.9990  178.1200  140.4360 C   0  0  0  0  0  0  0  0  0  0  0  0
  180.5790  174.9840  136.6970 C   0  0  0  0  0  2  0  0  0  0  0  0
  185.3970  176.3780  135.1960 C   0  0  0  0  0  1  0  0  0  0  0  0
  185.4090  176.7120  136.6750 C   0  0  1  0  0  0  0  0  0  0  0  0
  186.5800  178.0160  138.4110 C   0  0  1  0  0  3  0  0  0  0  0  0
  184.1560  177.5490  137.0170 C   0  0  2  0  0  3  0  0  0  0  0  0
  178.9310  176.5840  138.9230 O   0  0  0  0  0  1  0  0  0  0  0  0
  182.9440  176.3770  138.7990 C   0  0  1  0  0  3  0  0  0  0  0  0
  185.5560  178.9860  138.4900 O   0  0  0  0  0  0  0  0  0  0  0  0
  186.6830  177.4910  136.9850 C   0  0  0  0  0  2  0  0  0  0  0  0
  179.4840  175.3020  139.0250 C   0  0  2  0  0  3  0  0  0  0  0  0
  181.6440  177.2740  136.7370 C   0  0  0  0  0  0  0  0  0  0  0  0
  181.6700  177.5830  140.3470 C   0  0  0  0  0  0  0  0  0  0  0  0
  187.7830  178.5800  138.8230 O   0  0  0  0  0  1  0  0  0  0  0  0
  180.8350  175.3080  139.7310 C   0  0  0  0  0  2  0  0  0  0  0  0
  181.5390  178.6630  136.5220 C   0  0  0  0  0  3  0  0  0  0  0  0
  179.4200  177.0110  135.7840 C   0  0  0  0  0  3  0  0  0  0  0  0
  179.3450  178.3820  135.5520 C   0  0  0  0  0  3  0  0  0  0  0  0
  179.4730  174.5700  137.6720 C   0  0  0  0  0  2  0  0  0  0  0  0
  183.8780  177.4280  139.4580 C   0  0  1  0  0  3  0  0  0  0  0  0
  181.6210  176.5040  139.4260 N   0  0  0  0  0  0  0  0  0  0  0  0
  184.3010  178.3460  138.3220 C   0  0  2  0  0  3  0  0  0  0  0  0
  183.4010  178.8860  141.3490 O   0  0  0  0  0  0  0  0  0  0  0  0
  182.9350  176.6660  137.2760 C   0  0  1  0  0  3  0  0  0  0  0  0
  1  6  1  0  0  0  0
  1 16  1  0  0  0  0
  4 20  1  0  0  0  0
  5 27  2  0  0  0  0
  6 23  1  0  0  0  0
  8  7  1  6  0  0  0
  8 14  1  0  0  0  0
  8 10  1  0  0  0  0
  8  2  1  0  0  0  0
  9 13  1  0  0  0  0
  9 18  1  6  0  0  0
 10 28  1  0  0  0  0
 10 26  1  0  0  0  0
 11 15  1  0  0  0  0
 12 25  1  0  0  0  0
 12 24  1  0  0  0  0
 14  9  1  0  0  0  0
 15 19  1  0  0  0  0
 16 28  1  0  0  0  0
 17  5  1  0  0  0  0
 17  3  2  0  0  0  0
 20 16  2  0  0  0  0
 21  1  2  0  0  0  0
 22 21  1  0  0  0  0
 22  4  2  0  0  0  0
 23 15  1  0  0  0  0
 24  5  1  0  0  0  0
 25 19  1  0  0  0  0
 25 17  1  0  0  0  0
 26 13  1  0  0  0  0
 26 24  1  0  0  0  0
 28 12  1  0  0  0  0
M  END
>  <MODEL>
4

>  <REMARK>
 VINA RESULT:      -5.1      1.991      2.549
  Name = 
  0 active torsions:
  status: ('A' for Active; 'I' for Inactive)
                            x       y       z     vdW  Elec       q    Type
                         _______ _______ _______ _____ _____    ______ ____

>  <TORSDO>
F 0

$$$$
=
 OpenBabel11122411563D

 28 32  0  0  1  0  0  0  0  0999 V2000
  179.5700  177.0860  138.7120 C   0  0  0  0  0  0  0  0  0  0  0  0
  181.2140  180.2040  142.3650 F   0  0  0  0  0  0  0  0  0  0  0  0
  183.9640  178.1010  136.9110 O   0  0  0  0  0  0  0  0  0  0  0  0
  180.8110  174.6220  139.2270 C   0  0  0  0  0  3  0  0  0  0  0  0
  184.3060  178.6320  139.2210 C   0  0  0  0  0  0  0  0  0  0  0  0
  178.9310  178.3970  138.3700 C   0  0  0  0  0  2  0  0  0  0  0  0
  180.0560  178.4770  143.4830 C   0  0  0  0  0  1  0  0  0  0  0  0
  181.3660  178.9160  142.8560 C   0  0  1  0  0  0  0  0  0  0  0  0
  183.7850  179.1630  143.2680 C   0  0  1  0  0  3  0  0  0  0  0  0
  181.7490  177.9240  141.7340 C   0  0  2  0  0  3  0  0  0  0  0  0
  181.0610  177.5370  136.1440 O   0  0  0  0  0  1  0  0  0  0  0  0
  182.0290  179.2160  139.6670 C   0  0  1  0  0  3  0  0  0  0  0  0
  184.1180  178.0330  142.4890 O   0  0  0  0  0  0  0  0  0  0  0  0
  182.4370  178.9460  143.9420 C   0  0  0  0  0  2  0  0  0  0  0  0
  180.5390  178.8150  136.3810 C   0  0  2  0  0  3  0  0  0  0  0  0
  180.6350  177.0250  139.6340 C   0  0  0  0  0  0  0  0  0  0  0  0
  183.5280  178.4930  138.0220 C   0  0  0  0  0  0  0  0  0  0  0  0
  184.7830  179.3840  144.2120 O   0  0  0  0  0  1  0  0  0  0  0  0
  181.4700  179.6720  137.2310 C   0  0  0  0  0  2  0  0  0  0  0  0
  181.2670  175.7850  139.8560 C   0  0  0  0  0  3  0  0  0  0  0  0
  179.1080  175.9110  138.0990 C   0  0  0  0  0  3  0  0  0  0  0  0
  179.7260  174.6900  138.3530 C   0  0  0  0  0  3  0  0  0  0  0  0
  179.0890  178.7500  136.8890 C   0  0  0  0  0  2  0  0  0  0  0  0
  183.4220  179.0620  140.3360 C   0  0  1  0  0  3  0  0  0  0  0  0
  182.1830  178.8920  138.2410 N   0  0  0  0  0  0  0  0  0  0  0  0
  183.2420  177.9670  141.3750 C   0  0  2  0  0  3  0  0  0  0  0  0
  185.5630  178.6150  139.2650 O   0  0  0  0  0  0  0  0  0  0  0  0
  181.0580  178.2650  140.4130 C   0  0  1  0  0  3  0  0  0  0  0  0
  1 16  1  0  0  0  0
  2  8  1  0  0  0  0
  3 17  2  0  0  0  0
  4 20  1  0  0  0  0
  5 27  2  0  0  0  0
  5 24  1  0  0  0  0
  6  1  1  0  0  0  0
  8  7  1  1  0  0  0
  8 14  1  0  0  0  0
  9 14  1  0  0  0  0
  9 18  1  1  0  0  0
 10  8  1  0  0  0  0
 11 15  1  0  0  0  0
 12 24  1  0  0  0  0
 12 28  1  0  0  0  0
 13  9  1  0  0  0  0
 15 23  1  0  0  0  0
 15 19  1  0  0  0  0
 16 20  2  0  0  0  0
 16 28  1  0  0  0  0
 17 25  1  0  0  0  0
 17  5  1  0  0  0  0
 19 25  1  0  0  0  0
 21 22  1  0  0  0  0
 21  1  2  0  0  0  0
 22  4  2  0  0  0  0
 23  6  1  0  0  0  0
 24 26  1  0  0  0  0
 25 12  1  0  0  0  0
 26 10  1  0  0  0  0
 26 13  1  0  0  0  0
 28 10  1  0  0  0  0
M  END
>  <MODEL>
5

>  <REMARK>
 VINA RESULT:      -5.0      2.352      4.711
  Name = 
  0 active torsions:
  status: ('A' for Active; 'I' for Inactive)
                            x       y       z     vdW  Elec       q    Type
                         _______ _______ _______ _____ _____    ______ ____

>  <TORSDO>
F 0

$$$$
=
 OpenBabel11122411563D

 28 32  0  0  1  0  0  0  0  0999 V2000
  185.1720  175.9880  135.8030 C   0  0  0  0  0  0  0  0  0  0  0  0
  181.9710  179.4980  137.5940 F   0  0  0  0  0  0  0  0  0  0  0  0
  187.9380  177.7760  139.3710 O   0  0  0  0  0  0  0  0  0  0  0  0
  184.9860  173.8350  137.5930 C   0  0  0  0  0  3  0  0  0  0  0  0
  185.7660  178.4470  140.1250 C   0  0  0  0  0  0  0  0  0  0  0  0
  185.3410  177.1360  134.8550 C   0  0  0  0  0  2  0  0  0  0  0  0
  180.6310  177.6200  137.0920 C   0  0  0  0  0  1  0  0  0  0  0  0
  181.5430  178.2830  138.1080 C   0  0  1  0  0  0  0  0  0  0  0  0
  181.7040  179.0130  140.4580 C   0  0  1  0  0  3  0  0  0  0  0  0
  182.7340  177.3450  138.4100 C   0  0  2  0  0  3  0  0  0  0  0  0
  188.0120  176.6280  136.5410 O   0  0  0  0  0  1  0  0  0  0  0  0
  184.7950  178.5900  137.9430 C   0  0  1  0  0  3  0  0  0  0  0  0
  182.5510  177.9420  140.8190 O   0  0  0  0  0  0  0  0  0  0  0  0
  180.7370  178.5610  139.3720 C   0  0  0  0  0  2  0  0  0  0  0  0
  187.6460  177.7870  135.8450 C   0  0  2  0  0  3  0  0  0  0  0  0
  184.5250  176.1690  137.0420 C   0  0  0  0  0  0  0  0  0  0  0  0
  186.7520  178.1160  139.1340 C   0  0  0  0  0  0  0  0  0  0  0  0
  181.0170  179.4590  141.5830 O   0  0  0  0  0  1  0  0  0  0  0  0
  187.0290  178.8400  136.7580 C   0  0  0  0  0  2  0  0  0  0  0  0
  184.4690  175.0870  137.9420 C   0  0  0  0  0  3  0  0  0  0  0  0
  185.6730  174.7240  135.4550 C   0  0  0  0  0  3  0  0  0  0  0  0
  185.5820  173.6570  136.3450 C   0  0  0  0  0  3  0  0  0  0  0  0
  186.8140  177.4590  134.5940 C   0  0  0  0  0  2  0  0  0  0  0  0
  184.4710  178.7370  139.4550 C   0  0  1  0  0  3  0  0  0  0  0  0
  186.2200  178.2520  137.8250 N   0  0  0  0  0  0  0  0  0  0  0  0
  183.4300  177.6660  139.7400 C   0  0  2  0  0  3  0  0  0  0  0  0
  186.0170  178.6780  141.3360 O   0  0  0  0  0  0  0  0  0  0  0  0
  183.8530  177.4960  137.3790 C   0  0  1  0  0  3  0  0  0  0  0  0
  1 16  1  0  0  0  0
  2  8  1  0  0  0  0
  4 20  1  0  0  0  0
  5 27  2  0  0  0  0
  6  1  1  0  0  0  0
  8  7  1  6  0  0  0
  8 10  1  0  0  0  0
  8 14  1  0  0  0  0
  9 13  1  0  0  0  0
  9 18  1  1  0  0  0
 10 26  1  0  0  0  0
 12 24  1  0  0  0  0
 14  9  1  0  0  0  0
 15 11  1  0  0  0  0
 15 19  1  0  0  0  0
 16 28  1  0  0  0  0
 16 20  2  0  0  0  0
 17  3  2  0  0  0  0
 17  5  1  0  0  0  0
 19 25  1  0  0  0  0
 21  1  2  0  0  0  0
 21 22  1  0  0  0  0
 22  4  2  0  0  0  0
 23  6  1  0  0  0  0
 23 15  1  0  0  0  0
 24 26  1  0  0  0  0
 24  5  1  0  0  0  0
 25 12  1  0  0  0  0
 25 17  1  0  0  0  0
 26 13  1  0  0  0  0
 28 12  1  0  0  0  0
 28 10  1  0  0  0  0
M  END
>  <MODEL>
6

>  <REMARK>
 VINA RESULT:      -4.8      2.638      6.094
  Name = 
  0 active torsions:
  status: ('A' for Active; 'I' for Inactive)
                            x       y       z     vdW  Elec       q    Type
                         _______ _______ _______ _____ _____    ______ ____

>  <TORSDO>
F 0

$$$$
=
 OpenBabel11122411563D

 28 32  0  0  1  0  0  0  0  0999 V2000
  187.5650  174.7400  135.6390 C   0  0  0  0  0  0  0  0  0  0  0  0
  183.9210  178.2380  135.1270 F   0  0  0  0  0  0  0  0  0  0  0  0
  188.6400  177.5120  139.4790 O   0  0  0  0  0  0  0  0  0  0  0  0
  186.6600  173.0190  137.6630 C   0  0  0  0  0  3  0  0  0  0  0  0
  186.3520  178.1230  139.1270 C   0  0  0  0  0  0  0  0  0  0  0  0
  188.1090  175.6660  134.5940 C   0  0  0  0  0  2  0  0  0  0  0  0
  182.8980  176.1780  134.5940 C   0  0  0  0  0  1  0  0  0  0  0  0
  183.3180  177.1280  135.7000 C   0  0  1  0  0  0  0  0  0  0  0  0
  182.5080  178.3630  137.6760 C   0  0  1  0  0  3  0  0  0  0  0  0
  184.2790  176.3950  136.6620 C   0  0  2  0  0  3  0  0  0  0  0  0
  189.8580  175.7890  137.2690 O   0  0  0  0  0  1  0  0  0  0  0  0
  186.3550  177.6980  136.7720 C   0  0  1  0  0  3  0  0  0  0  0  0
  183.1310  177.4800  138.5860 O   0  0  0  0  0  0  0  0  0  0  0  0
  182.0660  177.5970  136.4360 C   0  0  0  0  0  2  0  0  0  0  0  0
  189.8120  176.7300  136.2330 C   0  0  2  0  0  3  0  0  0  0  0  0
  186.4690  175.1240  136.4380 C   0  0  0  0  0  0  0  0  0  0  0  0
  187.6550  177.6790  138.7180 C   0  0  0  0  0  0  0  0  0  0  0  0
  181.4230  178.9760  138.2960 O   0  0  0  0  0  1  0  0  0  0  0  0
  188.8780  177.8930  136.5490 C   0  0  0  0  0  2  0  0  0  0  0  0
  186.0480  174.2620  137.4710 C   0  0  0  0  0  3  0  0  0  0  0  0
  188.1610  173.4840  135.8280 C   0  0  0  0  0  3  0  0  0  0  0  0
  187.7120  172.6310  136.8340 C   0  0  0  0  0  3  0  0  0  0  0  0
  189.5620  176.0620  134.8710 C   0  0  0  0  0  2  0  0  0  0  0  0
  185.4430  178.1370  137.9500 C   0  0  1  0  0  3  0  0  0  0  0  0
  187.7040  177.4770  137.3140 N   0  0  0  0  0  0  0  0  0  0  0  0
  184.3730  177.0610  138.0430 C   0  0  2  0  0  3  0  0  0  0  0  0
  186.0880  178.6330  140.2460 O   0  0  0  0  0  0  0  0  0  0  0  0
  185.7220  176.4230  136.1570 C   0  0  1  0  0  3  0  0  0  0  0  0
  1 21  2  0  0  0  0
  1 16  1  0  0  0  0
  2  8  1  0  0  0  0
  5 27  2  0  0  0  0
  6 23  1  0  0  0  0
  6  1  1  0  0  0  0
  8  7  1  6  0  0  0
  8 14  1  0  0  0  0
  8 10  1  0  0  0  0
  9 18  1  1  0  0  0
  9 13  1  0  0  0  0
 10 26  1  0  0  0  0
 12 25  1  0  0  0  0
 12 24  1  0  0  0  0
 14  9  1  0  0  0  0
 15 19  1  0  0  0  0
 15 11  1  0  0  0  0
 16 20  2  0  0  0  0
 17  5  1  0  0  0  0
 17  3  2  0  0  0  0
 19 25  1  0  0  0  0
 20  4  1  0  0  0  0
 21 22  1  0  0  0  0
 22  4  2  0  0  0  0
 23 15  1  0  0  0  0
 24 26  1  0  0  0  0
 24  5  1  0  0  0  0
 25 17  1  0  0  0  0
 26 13  1  0  0  0  0
 28 16  1  0  0  0  0
 28 10  1  0  0  0  0
 28 12  1  0  0  0  0
M  END
>  <MODEL>
7

>  <REMARK>
 VINA RESULT:      -4.6      3.608      7.356
  Name = 
  0 active torsions:
  status: ('A' for Active; 'I' for Inactive)
                            x       y       z     vdW  Elec       q    Type
                         _______ _______ _______ _____ _____    ______ ____

>  <TORSDO>
F 0

$$$$
=
 OpenBabel11122411563D

 28 32  0  0  1  0  0  0  0  0999 V2000
  182.2490  177.5430  136.8860 C   0  0  0  0  0  0  0  0  0  0  0  0
  186.3360  175.1780  135.0230 F   0  0  0  0  0  0  0  0  0  0  0  0
  180.5390  172.9980  136.8590 O   0  0  0  0  0  0  0  0  0  0  0  0
  182.3090  177.0580  139.6500 C   0  0  0  0  0  3  0  0  0  0  0  0
  182.8970  172.5770  136.8450 C   0  0  0  0  0  0  0  0  0  0  0  0
  182.1500  177.7790  135.4100 C   0  0  0  0  0  2  0  0  0  0  0  0
  187.1740  176.8020  136.5170 C   0  0  0  0  0  1  0  0  0  0  0  0
  186.5980  175.4070  136.3660 C   0  0  1  0  0  0  0  0  0  0  0  0
  186.9870  173.0270  136.8820 C   0  0  1  0  0  3  0  0  0  0  0  0
  185.3150  175.2910  137.2190 C   0  0  2  0  0  3  0  0  0  0  0  0
  179.7590  175.9220  136.4450 O   0  0  0  0  0  1  0  0  0  0  0  0
  183.4910  174.6080  135.7290 C   0  0  1  0  0  3  0  0  0  0  0  0
  186.0200  173.0060  137.9120 O   0  0  0  0  0  0  0  0  0  0  0  0
  187.6470  174.3980  136.8220 C   0  0  0  0  0  2  0  0  0  0  0  0
  180.2220  176.0690  135.1310 C   0  0  2  0  0  3  0  0  0  0  0  0
  183.1210  176.5610  137.4000 C   0  0  0  0  0  0  0  0  0  0  0  0
  181.7110  173.3330  136.5540 C   0  0  0  0  0  0  0  0  0  0  0  0
  187.9300  172.0300  137.1140 O   0  0  0  0  0  1  0  0  0  0  0  0
  181.1810  174.9550  134.7270 C   0  0  0  0  0  2  0  0  0  0  0  0
  183.1150  176.3080  138.7860 C   0  0  0  0  0  3  0  0  0  0  0  0
  181.4570  178.3010  137.7630 C   0  0  0  0  0  3  0  0  0  0  0  0
  181.4860  178.0580  139.1330 C   0  0  0  0  0  3  0  0  0  0  0  0
  180.7470  177.4910  134.8700 C   0  0  0  0  0  2  0  0  0  0  0  0
  184.0900  173.3310  136.3790 C   0  0  1  0  0  3  0  0  0  0  0  0
  182.0280  174.5160  135.8360 N   0  0  0  0  0  0  0  0  0  0  0  0
  184.9320  173.8380  137.5380 C   0  0  2  0  0  3  0  0  0  0  0  0
  182.9060  171.3770  137.2220 O   0  0  0  0  0  0  0  0  0  0  0  0
  184.0880  175.8250  136.4790 C   0  0  1  0  0  3  0  0  0  0  0  0
  1 16  2  0  0  0  0
  1 21  1  0  0  0  0
  2  8  1  0  0  0  0
  5 27  2  0  0  0  0
  6  1  1  0  0  0  0
  8  7  1  1  0  0  0
  8 14  1  0  0  0  0
  8 10  1  0  0  0  0
  9 18  1  1  0  0  0
  9 13  1  0  0  0  0
 10 26  1  0  0  0  0
 12 25  1  0  0  0  0
 12 24  1  0  0  0  0
 12 28  1  0  0  0  0
 14  9  1  0  0  0  0
 15 11  1  0  0  0  0
 16 20  1  0  0  0  0
 17  5  1  0  0  0  0
 17  3  2  0  0  0  0
 19 15  1  0  0  0  0
 19 25  1  0  0  0  0
 20  4  2  0  0  0  0
 21 22  2  0  0  0  0
 22  4  1  0  0  0  0
 23 15  1  0  0  0  0
 23  6  1  0  0  0  0
 24  5  1  0  0  0  0
 24 26  1  0  0  0  0
 25 17  1  0  0  0  0
 26 13  1  0  0  0  0
 28 10  1  0  0  0  0
 28 16  1  0  0  0  0
M  END
>  <MODEL>
8

>  <REMARK>
 VINA RESULT:      -4.5      4.454      5.498
  Name = 
  0 active torsions:
  status: ('A' for Active; 'I' for Inactive)
                            x       y       z     vdW  Elec       q    Type
                         _______ _______ _______ _____ _____    ______ ____

>  <TORSDO>
F 0

$$$$
=
 OpenBabel11122411563D

 28 32  0  0  1  0  0  0  0  0999 V2000
  182.2220  178.0630  138.2700 C   0  0  0  0  0  0  0  0  0  0  0  0
  184.3640  173.4670  138.0220 F   0  0  0  0  0  0  0  0  0  0  0  0
  186.7680  179.4090  137.2170 O   0  0  0  0  0  0  0  0  0  0  0  0
  181.8200  178.8370  135.6030 C   0  0  0  0  0  3  0  0  0  0  0  0
  186.7920  177.1440  136.4410 C   0  0  0  0  0  0  0  0  0  0  0  0
  182.4690  177.7110  139.7050 C   0  0  0  0  0  2  0  0  0  0  0  0
  182.2490  173.2330  137.0010 C   0  0  0  0  0  1  0  0  0  0  0  0
  183.6960  173.6500  136.8210 C   0  0  1  0  0  0  0  0  0  0  0  0
  185.7100  173.3020  135.4390 C   0  0  1  0  0  3  0  0  0  0  0  0
  183.7470  175.1260  136.3650 C   0  0  2  0  0  3  0  0  0  0  0  0
  184.2730  180.1920  138.7980 O   0  0  0  0  0  1  0  0  0  0  0  0
  185.1340  176.3520  137.9730 C   0  0  1  0  0  3  0  0  0  0  0  0
  185.5670  174.5380  134.7710 O   0  0  0  0  0  0  0  0  0  0  0  0
  184.3370  172.7380  135.7790 C   0  0  0  0  0  2  0  0  0  0  0  0
  184.4650  179.3530  139.9030 C   0  0  2  0  0  3  0  0  0  0  0  0
  182.8470  177.3380  137.2350 C   0  0  0  0  0  0  0  0  0  0  0  0
  186.3600  178.2230  137.2850 C   0  0  0  0  0  0  0  0  0  0  0  0
  186.4240  172.4210  134.6330 O   0  0  0  0  0  1  0  0  0  0  0  0
  185.4820  178.2520  139.6250 C   0  0  0  0  0  2  0  0  0  0  0  0
  182.6610  177.7600  135.9040 C   0  0  0  0  0  3  0  0  0  0  0  0
  181.3680  179.1310  137.9570 C   0  0  0  0  0  3  0  0  0  0  0  0
  181.1710  179.5160  136.6340 C   0  0  0  0  0  3  0  0  0  0  0  0
  183.1270  178.8570  140.4780 C   0  0  0  0  0  2  0  0  0  0  0  0
  186.0380  175.9110  136.7900 C   0  0  1  0  0  3  0  0  0  0  0  0
  185.4200  177.7680  138.2460 N   0  0  0  0  0  0  0  0  0  0  0  0
  185.0740  175.5030  135.6880 C   0  0  2  0  0  3  0  0  0  0  0  0
  187.8010  177.1820  135.6910 O   0  0  0  0  0  0  0  0  0  0  0  0
  183.6670  176.0910  137.5480 C   0  0  1  0  0  3  0  0  0  0  0  0
  1  6  1  0  0  0  0
  3 17  2  0  0  0  0
  4 20  2  0  0  0  0
  4 22  1  0  0  0  0
  5 24  1  0  0  0  0
  5 17  1  0  0  0  0
  6 23  1  0  0  0  0
  8  7  1  1  0  0  0
  8  2  1  0  0  0  0
  9 18  1  6  0  0  0
  9 14  1  0  0  0  0
 10  8  1  0  0  0  0
 10 28  1  0  0  0  0
 11 15  1  0  0  0  0
 12 25  1  0  0  0  0
 13  9  1  0  0  0  0
 13 26  1  0  0  0  0
 14  8  1  0  0  0  0
 15 23  1  0  0  0  0
 16 28  1  0  0  0  0
 16  1  2  0  0  0  0
 17 25  1  0  0  0  0
 19 15  1  0  0  0  0
 20 16  1  0  0  0  0
 21  1  1  0  0  0  0
 22 21  2  0  0  0  0
 24 12  1  0  0  0  0
 25 19  1  0  0  0  0
 26 10  1  0  0  0  0
 26 24  1  0  0  0  0
 27  5  2  0  0  0  0
 28 12  1  0  0  0  0
M  END
>  <MODEL>
9

>  <REMARK>
 VINA RESULT:      -4.5      3.762      5.497
  Name = 
  0 active torsions:
  status: ('A' for Active; 'I' for Inactive)
                            x       y       z     vdW  Elec       q    Type
                         _______ _______ _______ _____ _____    ______ ____

>  <TORSDO>
F 0

$$$$
