=
 OpenBabel11122410383D

 32 38  0  0  1  0  0  0  0  0999 V2000
  182.9220  178.8420  138.2920 C   0  0  2  0  0  3  0  0  0  0  0  0
  186.1070  177.9990  142.1370 C   0  0  1  0  0  3  0  0  0  0  0  0
  184.6370  178.8060  146.9170 C   0  0  0  0  0  2  0  0  0  0  0  0
  185.5320  177.6290  147.2830 C   0  0  0  0  0  2  0  0  0  0  0  0
  188.6220  177.7560  141.7530 C   0  0  0  0  0  0  0  0  0  0  0  0
  189.6390  176.7450  142.2440 C   0  0  1  0  0  3  0  0  0  0  0  0
  184.4390  178.5230  140.3400 C   0  0  1  0  0  3  0  0  0  0  0  0
  183.7560  178.2810  142.6310 O   0  0  0  0  0  0  0  0  0  0  0  0
  191.4730  177.4610  143.6580 C   0  0  1  0  0  3  0  0  0  0  0  0
  182.0710  179.0840  141.1080 C   0  0  0  0  0  2  0  0  0  0  0  0
  184.1890  178.7190  145.4540 C   0  0  0  0  0  2  0  0  0  0  0  0
  185.0500  178.5830  143.1010 C   0  0  1  0  0  3  0  0  0  0  0  0
  185.2180  178.0510  144.5270 C   0  0  1  0  0  3  0  0  0  0  0  0
  187.6640  177.6420  144.0740 C   0  0  2  0  0  3  0  0  0  0  0  0
  191.9820  176.8750  142.3620 C   0  0  0  0  0  2  0  0  0  0  0  0
  184.3040  178.3600  137.8620 C   0  0  0  0  0  2  0  0  0  0  0  0
  183.5560  179.0580  141.4770 C   0  0  2  0  0  3  0  0  0  0  0  0
  190.8560  176.7880  141.4340 N   0  0  0  0  0  2  0  0  0  0  0  0
  184.1880  179.2890  139.0480 C   0  0  1  0  0  3  0  0  0  0  0  0
  181.6350  177.8000  140.4080 C   0  0  0  0  0  2  0  0  0  0  0  0
  186.8180  177.6340  146.4490 C   0  0  0  0  0  2  0  0  0  0  0  0
  186.6530  178.2540  145.0460 C   0  0  2  0  0  3  0  0  0  0  0  0
  189.0990  177.8220  144.5540 C   0  0  0  0  0  2  0  0  0  0  0  0
  185.8980  178.6470  140.7640 C   0  0  0  0  0  2  0  0  0  0  0  0
  188.6980  178.1820  140.6100 O   0  0  0  0  0  0  0  0  0  0  0  0
  191.5790  179.2470  143.5360 Cl  0  0  0  0  0  0  0  0  0  0  0  0
  187.5250  178.2610  142.6740 C   0  0  2  0  0  3  0  0  0  0  0  0
  190.0470  176.9620  143.7050 C   0  0  1  0  0  3  0  0  0  0  0  0
  182.0580  177.7130  138.9310 C   0  0  2  0  0  3  0  0  0  0  0  0
  182.3410  176.3120  138.4840 C   0  0  0  0  0  0  0  0  0  0  0  0
  182.9550  175.5140  139.2420 O   0  0  0  0  0  0  0  0  0  0  0  0
  181.9330  175.8860  137.1910 N   0  0  0  0  0  1  0  0  0  0  0  0
  1 16  1  6  0  0  0
  1 29  1  0  0  0  0
  1 19  1  0  0  0  0
  2 24  1  6  0  0  0
  2 27  1  0  0  0  0
  2 12  1  0  0  0  0
  3  4  1  0  0  0  0
  5  6  1  0  0  0  0
  6 18  1  6  0  0  0
  6 28  1  0  0  0  0
  7 24  1  1  0  0  0
  7 17  1  0  0  0  0
  9 26  1  6  0  0  0
  9 28  1  0  0  0  0
 11  3  1  0  0  0  0
 12  8  1  6  0  0  0
 12 13  1  0  0  0  0
 13 22  1  0  0  0  0
 13 11  1  1  0  0  0
 14 23  1  1  0  0  0
 14 22  1  0  0  0  0
 15  9  1  0  0  0  0
 17 10  1  6  0  0  0
 17  8  1  0  0  0  0
 18 15  1  0  0  0  0
 19 16  1  6  0  0  0
 19  7  1  0  0  0  0
 20 10  1  0  0  0  0
 21  4  1  0  0  0  0
 22 21  1  1  0  0  0
 25  5  2  0  0  0  0
 27  5  1  6  0  0  0
 27 14  1  0  0  0  0
 28 23  1  6  0  0  0
 29 30  1  1  0  0  0
 29 20  1  0  0  0  0
 30 31  2  0  0  0  0
 32 30  1  0  0  0  0
M  END
>  <MODEL>
1

>  <REMARK>
 VINA RESULT:      -9.3      0.000      0.000
  Name = 
  1 active torsions:
  status: ('A' for Active; 'I' for Inactive)
    1  A    between atoms: C_29  and  C_30
                            x       y       z     vdW  Elec       q    Type
                         _______ _______ _______ _____ _____    ______ ____

>  <TORSDO>
F 1

$$$$
=
 OpenBabel11122410383D

 32 38  0  0  1  0  0  0  0  0999 V2000
  186.0530  177.8780  136.1190 C   0  0  2  0  0  3  0  0  0  0  0  0
  186.9240  177.7150  141.1040 C   0  0  1  0  0  3  0  0  0  0  0  0
  183.5640  179.6460  144.3660 C   0  0  0  0  0  2  0  0  0  0  0  0
  183.9890  178.5270  145.3090 C   0  0  0  0  0  2  0  0  0  0  0  0
  189.2590  177.2420  142.0330 C   0  0  0  0  0  0  0  0  0  0  0  0
  189.7590  176.3050  143.1140 C   0  0  1  0  0  3  0  0  0  0  0  0
  186.3810  177.9280  138.6660 C   0  0  1  0  0  3  0  0  0  0  0  0
  184.6890  178.2400  140.3440 O   0  0  0  0  0  0  0  0  0  0  0  0
  190.8210  177.2050  145.0990 C   0  0  1  0  0  3  0  0  0  0  0  0
  184.0490  178.7860  138.0860 C   0  0  0  0  0  2  0  0  0  0  0  0
  183.8340  179.2650  142.9060 C   0  0  0  0  0  2  0  0  0  0  0  0
  185.6500  178.5600  141.3250 C   0  0  1  0  0  3  0  0  0  0  0  0
  185.0550  178.3470  142.7190 C   0  0  1  0  0  3  0  0  0  0  0  0
  187.3340  177.7020  143.5820 C   0  0  2  0  0  3  0  0  0  0  0  0
  191.7700  176.3170  144.3290 C   0  0  0  0  0  2  0  0  0  0  0  0
  187.3810  177.2300  136.4990 C   0  0  0  0  0  2  0  0  0  0  0  0
  185.1710  178.7540  139.1270 C   0  0  2  0  0  3  0  0  0  0  0  0
  191.2020  176.0950  143.0010 N   0  0  0  0  0  2  0  0  0  0  0  0
  186.8800  178.4040  137.3080 C   0  0  1  0  0  3  0  0  0  0  0  0
  183.7880  177.4090  137.4870 C   0  0  0  0  0  2  0  0  0  0  0  0
  185.4970  178.2700  145.2130 C   0  0  0  0  0  2  0  0  0  0  0  0
  186.1000  178.5740  143.8270 C   0  0  2  0  0  3  0  0  0  0  0  0
  188.3930  177.8970  144.6590 C   0  0  0  0  0  2  0  0  0  0  0  0
  187.4780  178.0550  139.7160 C   0  0  0  0  0  2  0  0  0  0  0  0
  189.9200  177.3990  141.0170 O   0  0  0  0  0  0  0  0  0  0  0  0
  191.2530  178.9090  144.7500 Cl  0  0  0  0  0  0  0  0  0  0  0  0
  187.9560  178.0030  142.2090 C   0  0  2  0  0  3  0  0  0  0  0  0
  189.4750  176.8150  144.5310 C   0  0  1  0  0  3  0  0  0  0  0  0
  184.8250  176.9720  136.4360 C   0  0  2  0  0  3  0  0  0  0  0  0
  185.0550  175.4920  136.4210 C   0  0  0  0  0  0  0  0  0  0  0  0
  185.0860  174.8410  137.4990 O   0  0  0  0  0  0  0  0  0  0  0  0
  185.2610  174.8210  135.1840 N   0  0  0  0  0  1  0  0  0  0  0  0
  1 29  1  0  0  0  0
  1 16  1  6  0  0  0
  1 19  1  0  0  0  0
  2 24  1  6  0  0  0
  2 12  1  0  0  0  0
  2 27  1  0  0  0  0
  3  4  1  0  0  0  0
  6  5  1  6  0  0  0
  6 28  1  0  0  0  0
  7 17  1  0  0  0  0
  7 24  1  1  0  0  0
  9 26  1  6  0  0  0
 11  3  1  0  0  0  0
 12  8  1  6  0  0  0
 12 13  1  0  0  0  0
 13 11  1  1  0  0  0
 13 22  1  0  0  0  0
 14 22  1  0  0  0  0
 14 23  1  1  0  0  0
 15  9  1  0  0  0  0
 17 10  1  6  0  0  0
 17  8  1  0  0  0  0
 18  6  1  0  0  0  0
 18 15  1  0  0  0  0
 19 16  1  6  0  0  0
 19  7  1  0  0  0  0
 20 10  1  0  0  0  0
 21  4  1  0  0  0  0
 22 21  1  1  0  0  0
 25  5  2  0  0  0  0
 27  5  1  6  0  0  0
 27 14  1  0  0  0  0
 28 23  1  6  0  0  0
 28  9  1  0  0  0  0
 29 30  1  1  0  0  0
 29 20  1  0  0  0  0
 30 31  2  0  0  0  0
 32 30  1  0  0  0  0
M  END
>  <MODEL>
2

>  <REMARK>
 VINA RESULT:      -8.5      1.833      2.477
  Name = 
  1 active torsions:
  status: ('A' for Active; 'I' for Inactive)
    1  A    between atoms: C_29  and  C_30
                            x       y       z     vdW  Elec       q    Type
                         _______ _______ _______ _____ _____    ______ ____

>  <TORSDO>
F 1

$$$$
=
 OpenBabel11122410383D

 32 38  0  0  1  0  0  0  0  0999 V2000
  189.0940  177.3130  135.4190 C   0  0  2  0  0  3  0  0  0  0  0  0
  188.2130  177.4320  140.4040 C   0  0  1  0  0  3  0  0  0  0  0  0
  183.9240  179.4350  142.2090 C   0  0  0  0  0  2  0  0  0  0  0  0
  184.0120  178.3780  143.3040 C   0  0  0  0  0  2  0  0  0  0  0  0
  190.0940  177.0730  142.0970 C   0  0  0  0  0  0  0  0  0  0  0  0
  190.2030  176.2070  143.3370 C   0  0  1  0  0  3  0  0  0  0  0  0
  188.5330  177.5040  137.9190 C   0  0  1  0  0  3  0  0  0  0  0  0
  186.3670  177.8550  138.8990 O   0  0  0  0  0  0  0  0  0  0  0  0
  190.5160  177.2380  145.5080 C   0  0  1  0  0  3  0  0  0  0  0  0
  186.5310  178.2660  136.5310 C   0  0  0  0  0  2  0  0  0  0  0  0
  184.6790  178.9860  140.9540 C   0  0  0  0  0  2  0  0  0  0  0  0
  186.9320  178.2520  140.1280 C   0  0  1  0  0  3  0  0  0  0  0  0
  185.8990  178.0950  141.2460 C   0  0  1  0  0  3  0  0  0  0  0  0
  187.7520  177.5590  142.8690 C   0  0  2  0  0  3  0  0  0  0  0  0
  191.6780  176.3380  145.1600 C   0  0  0  0  0  2  0  0  0  0  0  0
  190.2180  176.7230  136.2650 C   0  0  0  0  0  2  0  0  0  0  0  0
  187.2300  178.3180  137.8910 C   0  0  2  0  0  3  0  0  0  0  0  0
  191.6000  176.0320  143.7340 N   0  0  0  0  0  2  0  0  0  0  0  0
  189.4610  177.9220  136.7860 C   0  0  1  0  0  3  0  0  0  0  0  0
  186.5020  176.8520  135.9590 C   0  0  0  0  0  2  0  0  0  0  0  0
  185.4640  178.1590  143.7420 C   0  0  0  0  0  2  0  0  0  0  0  0
  186.5010  178.4070  142.6280 C   0  0  2  0  0  3  0  0  0  0  0  0
  188.3780  177.8390  144.2300 C   0  0  0  0  0  2  0  0  0  0  0  0
  189.2040  177.7150  139.2700 C   0  0  0  0  0  2  0  0  0  0  0  0
  191.0610  177.1960  141.3600 O   0  0  0  0  0  0  0  0  0  0  0  0
  191.0260  178.9340  145.2300 Cl  0  0  0  0  0  0  0  0  0  0  0  0
  188.8020  177.8060  141.7750 C   0  0  2  0  0  3  0  0  0  0  0  0
  189.4480  176.7820  144.5400 C   0  0  1  0  0  3  0  0  0  0  0  0
  187.8390  176.3910  135.3520 C   0  0  2  0  0  3  0  0  0  0  0  0
  188.0740  174.9190  135.5020 C   0  0  0  0  0  0  0  0  0  0  0  0
  188.6690  174.2740  134.5980 O   0  0  0  0  0  0  0  0  0  0  0  0
  187.6040  174.2430  136.6610 N   0  0  0  0  0  1  0  0  0  0  0  0
  1 16  1  1  0  0  0
  1 19  1  0  0  0  0
  2 24  1  6  0  0  0
  2 27  1  0  0  0  0
  3  4  1  0  0  0  0
  4 21  1  0  0  0  0
  6  5  1  6  0  0  0
  6 18  1  0  0  0  0
  6 28  1  0  0  0  0
  7 24  1  1  0  0  0
  9 26  1  6  0  0  0
 11  3  1  0  0  0  0
 12  8  1  6  0  0  0
 12  2  1  0  0  0  0
 12 13  1  0  0  0  0
 13 11  1  6  0  0  0
 13 22  1  0  0  0  0
 14 23  1  1  0  0  0
 15  9  1  0  0  0  0
 17 10  1  6  0  0  0
 17  7  1  0  0  0  0
 17  8  1  0  0  0  0
 18 15  1  0  0  0  0
 19 16  1  1  0  0  0
 19  7  1  0  0  0  0
 20 10  1  0  0  0  0
 22 14  1  0  0  0  0
 22 21  1  1  0  0  0
 25  5  2  0  0  0  0
 27  5  1  1  0  0  0
 27 14  1  0  0  0  0
 28 23  1  6  0  0  0
 28  9  1  0  0  0  0
 29  1  1  0  0  0  0
 29 30  1  1  0  0  0
 29 20  1  0  0  0  0
 30 32  1  0  0  0  0
 31 30  2  0  0  0  0
M  END
>  <MODEL>
3

>  <REMARK>
 VINA RESULT:      -7.9      3.167      4.425
  Name = 
  1 active torsions:
  status: ('A' for Active; 'I' for Inactive)
    1  A    between atoms: C_29  and  C_30
                            x       y       z     vdW  Elec       q    Type
                         _______ _______ _______ _____ _____    ______ ____

>  <TORSDO>
F 1

$$$$
=
 OpenBabel11122410383D

 32 38  0  0  1  0  0  0  0  0999 V2000
  185.7780  177.8780  136.6950 C   0  0  2  0  0  3  0  0  0  0  0  0
  184.1540  178.2030  141.4800 C   0  0  1  0  0  3  0  0  0  0  0  0
  179.4400  179.7560  142.4950 C   0  0  0  0  0  2  0  0  0  0  0  0
  179.4860  178.7910  143.6740 C   0  0  0  0  0  2  0  0  0  0  0  0
  185.7900  178.1950  143.4440 C   0  0  0  0  0  0  0  0  0  0  0  0
  185.8130  177.4320  144.7530 C   0  0  1  0  0  3  0  0  0  0  0  0
  184.8310  178.1560  139.0670 C   0  0  1  0  0  3  0  0  0  0  0  0
  182.5180  178.2910  139.7010 O   0  0  0  0  0  0  0  0  0  0  0  0
  185.6760  178.6310  146.8560 C   0  0  1  0  0  3  0  0  0  0  0  0
  182.9850  178.5670  137.3540 C   0  0  0  0  0  2  0  0  0  0  0  0
  180.4220  179.3270  141.3990 C   0  0  0  0  0  2  0  0  0  0  0  0
  182.8420  178.8340  140.9600 C   0  0  1  0  0  3  0  0  0  0  0  0
  181.6790  178.6190  141.9310 C   0  0  1  0  0  3  0  0  0  0  0  0
  183.3180  178.4280  143.8370 C   0  0  2  0  0  3  0  0  0  0  0  0
  186.9740  177.8650  146.7490 C   0  0  0  0  0  2  0  0  0  0  0  0
  186.8240  177.4920  137.7350 C   0  0  0  0  0  2  0  0  0  0  0  0
  183.4620  178.7950  138.7890 C   0  0  2  0  0  3  0  0  0  0  0  0
  187.1450  177.4610  145.3550 N   0  0  0  0  0  2  0  0  0  0  0  0
  185.8630  178.6160  138.0450 C   0  0  1  0  0  3  0  0  0  0  0  0
  183.2060  177.1270  136.9010 C   0  0  0  0  0  2  0  0  0  0  0  0
  180.8720  178.7870  144.3280 C   0  0  0  0  0  2  0  0  0  0  0  0
  182.0270  179.0930  143.3540 C   0  0  2  0  0  3  0  0  0  0  0  0
  183.6980  178.8710  145.2440 C   0  0  0  0  0  2  0  0  0  0  0  0
  185.2640  178.5370  140.4770 C   0  0  0  0  0  2  0  0  0  0  0  0
  186.8350  178.3930  142.8430 O   0  0  0  0  0  0  0  0  0  0  0  0
  186.0210  180.3560  146.5140 Cl  0  0  0  0  0  0  0  0  0  0  0  0
  184.4850  178.7360  142.8850 C   0  0  2  0  0  3  0  0  0  0  0  0
  184.8240  177.9810  145.7880 C   0  0  1  0  0  3  0  0  0  0  0  0
  184.6640  176.8020  136.5270 C   0  0  2  0  0  3  0  0  0  0  0  0
  185.0430  175.3850  136.8290 C   0  0  0  0  0  0  0  0  0  0  0  0
  184.4980  174.7690  137.7840 O   0  0  0  0  0  0  0  0  0  0  0  0
  186.0370  174.7370  136.0450 N   0  0  0  0  0  1  0  0  0  0  0  0
  1 16  1  1  0  0  0
  1 19  1  0  0  0  0
  2 24  1  6  0  0  0
  2 27  1  0  0  0  0
  3  4  1  0  0  0  0
  4 21  1  0  0  0  0
  6  5  1  6  0  0  0
  6 18  1  0  0  0  0
  6 28  1  0  0  0  0
  7 24  1  1  0  0  0
  9 26  1  6  0  0  0
 11  3  1  0  0  0  0
 12  8  1  6  0  0  0
 12  2  1  0  0  0  0
 12 13  1  0  0  0  0
 13 11  1  6  0  0  0
 13 22  1  0  0  0  0
 14 23  1  1  0  0  0
 15  9  1  0  0  0  0
 17 10  1  6  0  0  0
 17  7  1  0  0  0  0
 17  8  1  0  0  0  0
 18 15  1  0  0  0  0
 19 16  1  1  0  0  0
 19  7  1  0  0  0  0
 20 10  1  0  0  0  0
 22 14  1  0  0  0  0
 22 21  1  1  0  0  0
 25  5  2  0  0  0  0
 27  5  1  1  0  0  0
 27 14  1  0  0  0  0
 28 23  1  6  0  0  0
 28  9  1  0  0  0  0
 29  1  1  0  0  0  0
 29 30  1  1  0  0  0
 29 20  1  0  0  0  0
 30 31  2  0  0  0  0
 32 30  1  0  0  0  0
M  END
>  <MODEL>
4

>  <REMARK>
 VINA RESULT:      -7.1      2.921      4.492
  Name = 
  1 active torsions:
  status: ('A' for Active; 'I' for Inactive)
    1  A    between atoms: C_29  and  C_30
                            x       y       z     vdW  Elec       q    Type
                         _______ _______ _______ _____ _____    ______ ____

>  <TORSDO>
F 1

$$$$
=
 OpenBabel11122410383D

 32 38  0  0  1  0  0  0  0  0999 V2000
  189.8710  177.6170  137.3830 C   0  0  2  0  0  3  0  0  0  0  0  0
  186.4170  177.9780  141.0690 C   0  0  1  0  0  3  0  0  0  0  0  0
  181.7310  179.6100  140.0500 C   0  0  0  0  0  2  0  0  0  0  0  0
  181.2700  178.6460  141.1370 C   0  0  0  0  0  2  0  0  0  0  0  0
  187.0930  177.9470  143.5340 C   0  0  0  0  0  0  0  0  0  0  0  0
  186.5600  177.1850  144.7310 C   0  0  1  0  0  3  0  0  0  0  0  0
  188.0320  177.9150  139.1520 C   0  0  1  0  0  3  0  0  0  0  0  0
  185.6660  178.0890  138.7730 O   0  0  0  0  0  0  0  0  0  0  0  0
  185.5840  178.3900  146.5950 C   0  0  1  0  0  3  0  0  0  0  0  0
  187.0670  178.3530  136.8310 C   0  0  0  0  0  2  0  0  0  0  0  0
  183.0720  179.1630  139.4560 C   0  0  0  0  0  2  0  0  0  0  0  0
  185.4490  178.6290  140.0560 C   0  0  1  0  0  3  0  0  0  0  0  0
  183.9840  178.4350  140.4580 C   0  0  1  0  0  3  0  0  0  0  0  0
  184.6850  178.2200  142.8700 C   0  0  2  0  0  3  0  0  0  0  0  0
  186.7980  177.6030  147.0310 C   0  0  0  0  0  2  0  0  0  0  0  0
  190.3860  177.2150  138.7610 C   0  0  0  0  0  2  0  0  0  0  0  0
  186.9100  178.5760  138.3360 C   0  0  2  0  0  3  0  0  0  0  0  0
  187.5240  177.1940  145.8310 N   0  0  0  0  0  2  0  0  0  0  0  0
  189.4010  178.3560  138.6520 C   0  0  1  0  0  3  0  0  0  0  0  0
  187.4330  176.9090  136.5030 C   0  0  0  0  0  2  0  0  0  0  0  0
  182.2600  178.6210  142.3060 C   0  0  0  0  0  2  0  0  0  0  0  0
  183.7200  178.9060  141.9000 C   0  0  2  0  0  3  0  0  0  0  0  0
  184.4550  178.6600  144.3100 C   0  0  0  0  0  2  0  0  0  0  0  0
  187.8480  178.2920  140.6170 C   0  0  0  0  0  2  0  0  0  0  0  0
  188.2970  178.1260  143.4200 O   0  0  0  0  0  0  0  0  0  0  0  0
  186.0670  180.1090  146.4350 Cl  0  0  0  0  0  0  0  0  0  0  0  0
  186.1450  178.5080  142.4870 C   0  0  2  0  0  3  0  0  0  0  0  0
  185.2410  177.7530  145.2670 C   0  0  1  0  0  3  0  0  0  0  0  0
  188.9090  176.5590  136.7640 C   0  0  2  0  0  3  0  0  0  0  0  0
  189.1070  175.1360  137.1880 C   0  0  0  0  0  0  0  0  0  0  0  0
  190.2500  174.7250  137.5210 O   0  0  0  0  0  0  0  0  0  0  0  0
  188.0030  174.2400  137.1950 N   0  0  0  0  0  1  0  0  0  0  0  0
  1 19  1  0  0  0  0
  1 16  1  1  0  0  0
  2 24  1  6  0  0  0
  2 27  1  0  0  0  0
  3  4  1  0  0  0  0
  4 21  1  0  0  0  0
  6  5  1  6  0  0  0
  6 28  1  0  0  0  0
  6 18  1  0  0  0  0
  7 24  1  1  0  0  0
  9 26  1  6  0  0  0
  9 15  1  0  0  0  0
 11  3  1  0  0  0  0
 12  8  1  6  0  0  0
 12 13  1  0  0  0  0
 12  2  1  0  0  0  0
 13 11  1  6  0  0  0
 13 22  1  0  0  0  0
 14 23  1  1  0  0  0
 17 10  1  6  0  0  0
 17  8  1  0  0  0  0
 17  7  1  0  0  0  0
 18 15  1  0  0  0  0
 19 16  1  1  0  0  0
 19  7  1  0  0  0  0
 20 29  1  0  0  0  0
 20 10  1  0  0  0  0
 22 21  1  1  0  0  0
 22 14  1  0  0  0  0
 25  5  2  0  0  0  0
 27 14  1  0  0  0  0
 27  5  1  1  0  0  0
 28 23  1  6  0  0  0
 28  9  1  0  0  0  0
 29 30  1  1  0  0  0
 29  1  1  0  0  0  0
 30 32  1  0  0  0  0
 30 31  2  0  0  0  0
M  END
>  <MODEL>
5

>  <REMARK>
 VINA RESULT:      -7.0      3.043      5.476
  Name = 
  1 active torsions:
  status: ('A' for Active; 'I' for Inactive)
    1  A    between atoms: C_29  and  C_30
                            x       y       z     vdW  Elec       q    Type
                         _______ _______ _______ _____ _____    ______ ____

>  <TORSDO>
F 1

$$$$
=
 OpenBabel11122410383D

 32 38  0  0  1  0  0  0  0  0999 V2000
  193.1220  175.1960  135.3290 C   0  0  2  0  0  3  0  0  0  0  0  0
  190.2220  176.7380  139.1840 C   0  0  1  0  0  3  0  0  0  0  0  0
  185.8120  179.0720  138.3100 C   0  0  0  0  0  2  0  0  0  0  0  0
  185.3140  178.3810  139.5740 C   0  0  0  0  0  2  0  0  0  0  0  0
  191.1550  176.9330  141.5560 C   0  0  0  0  0  0  0  0  0  0  0  0
  190.6350  176.4680  142.9010 C   0  0  1  0  0  3  0  0  0  0  0  0
  191.5750  176.0920  137.1740 C   0  0  1  0  0  3  0  0  0  0  0  0
  189.2490  176.6590  136.9710 O   0  0  0  0  0  0  0  0  0  0  0  0
  190.1020  178.0930  144.6190 C   0  0  1  0  0  3  0  0  0  0  0  0
  190.4470  176.3680  134.9010 C   0  0  0  0  0  2  0  0  0  0  0  0
  186.9780  178.2970  137.6860 C   0  0  0  0  0  2  0  0  0  0  0  0
  189.2760  177.4100  138.1640 C   0  0  1  0  0  3  0  0  0  0  0  0
  187.8550  177.5590  138.7130 C   0  0  1  0  0  3  0  0  0  0  0  0
  188.7730  177.5640  141.0600 C   0  0  2  0  0  3  0  0  0  0  0  0
  191.1990  177.1590  145.0740 C   0  0  0  0  0  2  0  0  0  0  0  0
  193.7100  174.9060  136.7060 C   0  0  0  0  0  2  0  0  0  0  0  0
  190.5020  176.8310  136.3590 C   0  0  2  0  0  3  0  0  0  0  0  0
  191.7020  176.4500  143.9000 N   0  0  0  0  0  2  0  0  0  0  0  0
  192.9350  176.1860  136.4960 C   0  0  1  0  0  3  0  0  0  0  0  0
  190.5140  174.8490  134.7820 C   0  0  0  0  0  2  0  0  0  0  0  0
  186.4090  178.3350  140.6450 C   0  0  0  0  0  2  0  0  0  0  0  0
  187.8410  178.2750  140.0760 C   0  0  2  0  0  3  0  0  0  0  0  0
  188.7880  178.2420  142.4240 C   0  0  0  0  0  2  0  0  0  0  0  0
  191.6260  176.7040  138.5680 C   0  0  0  0  0  2  0  0  0  0  0  0
  192.3510  176.8600  141.3140 O   0  0  0  0  0  0  0  0  0  0  0  0
  190.8580  179.6460  144.1430 Cl  0  0  0  0  0  0  0  0  0  0  0  0
  190.2090  177.5080  140.5150 C   0  0  2  0  0  3  0  0  0  0  0  0
  189.5050  177.3480  143.4460 C   0  0  1  0  0  3  0  0  0  0  0  0
  191.9250  174.2640  134.9720 C   0  0  2  0  0  3  0  0  0  0  0  0
  191.9160  172.9060  135.6040 C   0  0  0  0  0  0  0  0  0  0  0  0
  190.9690  172.5610  136.3600 O   0  0  0  0  0  0  0  0  0  0  0  0
  192.9920  172.0070  135.3640 N   0  0  0  0  0  1  0  0  0  0  0  0
  1 19  1  0  0  0  0
  1 16  1  1  0  0  0
  2 24  1  6  0  0  0
  2 27  1  0  0  0  0
  3  4  1  0  0  0  0
  4 21  1  0  0  0  0
  6  5  1  6  0  0  0
  6 28  1  0  0  0  0
  6 18  1  0  0  0  0
  7 24  1  1  0  0  0
  9 26  1  6  0  0  0
  9 15  1  0  0  0  0
 11  3  1  0  0  0  0
 12  8  1  6  0  0  0
 12 13  1  0  0  0  0
 12  2  1  0  0  0  0
 13 11  1  6  0  0  0
 13 22  1  0  0  0  0
 14 23  1  1  0  0  0
 17 10  1  6  0  0  0
 17  8  1  0  0  0  0
 17  7  1  0  0  0  0
 18 15  1  0  0  0  0
 19 16  1  1  0  0  0
 19  7  1  0  0  0  0
 20 10  1  0  0  0  0
 20 29  1  0  0  0  0
 22 21  1  1  0  0  0
 22 14  1  0  0  0  0
 25  5  2  0  0  0  0
 27 14  1  0  0  0  0
 27  5  1  1  0  0  0
 28 23  1  6  0  0  0
 28  9  1  0  0  0  0
 29  1  1  0  0  0  0
 29 30  1  1  0  0  0
 30 31  2  0  0  0  0
 32 30  1  0  0  0  0
M  END
>  <MODEL>
6

>  <REMARK>
 VINA RESULT:      -6.8      4.525      7.319
  Name = 
  1 active torsions:
  status: ('A' for Active; 'I' for Inactive)
    1  A    between atoms: C_29  and  C_30
                            x       y       z     vdW  Elec       q    Type
                         _______ _______ _______ _____ _____    ______ ____

>  <TORSDO>
F 1

$$$$
=
 OpenBabel11122410383D

 32 38  0  0  1  0  0  0  0  0999 V2000
  188.8640  178.0540  137.4130 C   0  0  2  0  0  3  0  0  0  0  0  0
  187.3660  177.8850  142.2470 C   0  0  1  0  0  3  0  0  0  0  0  0
  182.7400  179.4760  143.5620 C   0  0  0  0  0  2  0  0  0  0  0  0
  182.7760  178.3810  144.6210 C   0  0  0  0  0  2  0  0  0  0  0  0
  189.0450  177.5930  144.1520 C   0  0  0  0  0  0  0  0  0  0  0  0
  189.0700  176.6840  145.3640 C   0  0  1  0  0  3  0  0  0  0  0  0
  187.9840  178.0900  139.8260 C   0  0  1  0  0  3  0  0  0  0  0  0
  185.6930  178.2330  140.5350 O   0  0  0  0  0  0  0  0  0  0  0  0
  189.0280  177.6380  147.5930 C   0  0  1  0  0  3  0  0  0  0  0  0
  186.1150  178.7600  138.2230 C   0  0  0  0  0  2  0  0  0  0  0  0
  183.6780  179.1420  142.3970 C   0  0  0  0  0  2  0  0  0  0  0  0
  186.0680  178.6170  141.8390 C   0  0  1  0  0  3  0  0  0  0  0  0
  184.9200  178.3330  142.8110 C   0  0  1  0  0  3  0  0  0  0  0  0
  186.5950  177.8660  144.6360 C   0  0  2  0  0  3  0  0  0  0  0  0
  190.2930  176.8450  147.3640 C   0  0  0  0  0  2  0  0  0  0  0  0
  189.9190  177.5130  138.3740 C   0  0  0  0  0  2  0  0  0  0  0  0
  186.6340  178.8050  139.6620 C   0  0  2  0  0  3  0  0  0  0  0  0
  190.4160  176.5970  145.9290 N   0  0  0  0  0  2  0  0  0  0  0  0
  189.0090  178.6280  138.8360 C   0  0  1  0  0  3  0  0  0  0  0  0
  186.2710  177.3750  137.6030 C   0  0  0  0  0  2  0  0  0  0  0  0
  184.1750  178.2530  145.2330 C   0  0  0  0  0  2  0  0  0  0  0  0
  185.3190  178.6280  144.2680 C   0  0  2  0  0  3  0  0  0  0  0  0
  187.0230  178.1320  146.0740 C   0  0  0  0  0  2  0  0  0  0  0  0
  188.4640  178.2920  141.2580 C   0  0  0  0  0  2  0  0  0  0  0  0
  190.0830  177.8210  143.5480 O   0  0  0  0  0  0  0  0  0  0  0  0
  189.4300  179.3780  147.4400 Cl  0  0  0  0  0  0  0  0  0  0  0  0
  187.7490  178.2400  143.6940 C   0  0  2  0  0  3  0  0  0  0  0  0
  188.1280  177.1460  146.4810 C   0  0  1  0  0  3  0  0  0  0  0  0
  187.7060  177.0440  137.1550 C   0  0  2  0  0  3  0  0  0  0  0  0
  188.0380  175.5890  137.2830 C   0  0  0  0  0  0  0  0  0  0  0  0
  189.2200  175.1880  137.1130 O   0  0  0  0  0  0  0  0  0  0  0  0
  187.0090  174.6520  137.5770 N   0  0  0  0  0  1  0  0  0  0  0  0
  1 16  1  1  0  0  0
  1 19  1  0  0  0  0
  2 24  1  6  0  0  0
  2 27  1  0  0  0  0
  3  4  1  0  0  0  0
  4 21  1  0  0  0  0
  6  5  1  6  0  0  0
  6 18  1  0  0  0  0
  6 28  1  0  0  0  0
  7 24  1  1  0  0  0
  9 26  1  6  0  0  0
 11  3  1  0  0  0  0
 12  8  1  6  0  0  0
 12  2  1  0  0  0  0
 12 13  1  0  0  0  0
 13 11  1  6  0  0  0
 13 22  1  0  0  0  0
 14 23  1  1  0  0  0
 15  9  1  0  0  0  0
 17 10  1  6  0  0  0
 17  7  1  0  0  0  0
 17  8  1  0  0  0  0
 18 15  1  0  0  0  0
 19 16  1  1  0  0  0
 19  7  1  0  0  0  0
 20 10  1  0  0  0  0
 22 14  1  0  0  0  0
 22 21  1  1  0  0  0
 25  5  2  0  0  0  0
 27  5  1  1  0  0  0
 27 14  1  0  0  0  0
 28 23  1  6  0  0  0
 28  9  1  0  0  0  0
 29 30  1  1  0  0  0
 29  1  1  0  0  0  0
 29 20  1  0  0  0  0
 30 32  1  0  0  0  0
 31 30  2  0  0  0  0
M  END
>  <MODEL>
7

>  <REMARK>
 VINA RESULT:      -6.8      2.697      4.053
  Name = 
  1 active torsions:
  status: ('A' for Active; 'I' for Inactive)
    1  A    between atoms: C_29  and  C_30
                            x       y       z     vdW  Elec       q    Type
                         _______ _______ _______ _____ _____    ______ ____

>  <TORSDO>
F 1

$$$$
=
 OpenBabel11122410383D

 32 38  0  0  1  0  0  0  0  0999 V2000
  179.5380  179.3250  140.5590 C   0  0  2  0  0  3  0  0  0  0  0  0
  184.4920  178.2920  140.7310 C   0  0  1  0  0  3  0  0  0  0  0  0
  186.9620  178.2730  145.1530 C   0  0  0  0  0  2  0  0  0  0  0  0
  187.8100  177.1550  144.5580 C   0  0  0  0  0  2  0  0  0  0  0  0
  185.9410  178.3670  138.6260 C   0  0  0  0  0  0  0  0  0  0  0  0
  186.9680  177.4080  138.0560 C   0  0  1  0  0  3  0  0  0  0  0  0
  182.0570  178.8840  140.8010 C   0  0  1  0  0  3  0  0  0  0  0  0
  183.2370  178.2570  142.7980 O   0  0  0  0  0  0  0  0  0  0  0  0
  189.2760  178.1090  137.8190 C   0  0  1  0  0  3  0  0  0  0  0  0
  180.9960  179.0840  143.1130 C   0  0  0  0  0  2  0  0  0  0  0  0
  185.5920  178.3430  144.4710 C   0  0  0  0  0  2  0  0  0  0  0  0
  184.4780  178.6240  142.2400 C   0  0  1  0  0  3  0  0  0  0  0  0
  185.6110  177.9200  142.9920 C   0  0  1  0  0  3  0  0  0  0  0  0
  186.9570  177.8340  140.8620 C   0  0  2  0  0  3  0  0  0  0  0  0
  188.6720  177.7630  136.4790 C   0  0  0  0  0  2  0  0  0  0  0  0
  180.1650  179.0530  139.1960 C   0  0  0  0  0  2  0  0  0  0  0  0
  182.2860  179.1620  142.2940 C   0  0  2  0  0  3  0  0  0  0  0  0
  187.2220  177.6890  136.6440 N   0  0  0  0  0  2  0  0  0  0  0  0
  180.9710  179.7920  140.2380 C   0  0  1  0  0  3  0  0  0  0  0  0
  180.1520  177.8720  142.7340 C   0  0  0  0  0  2  0  0  0  0  0  0
  188.0920  177.4090  143.0730 C   0  0  0  0  0  2  0  0  0  0  0  0
  186.9820  178.1980  142.3490 C   0  0  2  0  0  3  0  0  0  0  0  0
  188.2990  178.0940  140.1880 C   0  0  0  0  0  2  0  0  0  0  0  0
  183.3730  179.0990  140.0630 C   0  0  0  0  0  2  0  0  0  0  0  0
  185.1790  178.9520  137.8710 O   0  0  0  0  0  0  0  0  0  0  0  0
  189.3130  179.8950  137.9660 Cl  0  0  0  0  0  0  0  0  0  0  0  0
  185.8660  178.6230  140.1220 C   0  0  2  0  0  3  0  0  0  0  0  0
  188.3130  177.4620  138.7890 C   0  0  1  0  0  3  0  0  0  0  0  0
  179.3720  178.0350  141.4170 C   0  0  2  0  0  3  0  0  0  0  0  0
  179.2030  176.7460  140.6740 C   0  0  0  0  0  0  0  0  0  0  0  0
  178.9310  176.7520  139.4430 O   0  0  0  0  0  0  0  0  0  0  0  0
  179.3300  175.5090  141.3640 N   0  0  0  0  0  1  0  0  0  0  0  0
  1 16  1  6  0  0  0
  1 29  1  0  0  0  0
  2 24  1  6  0  0  0
  2 12  1  0  0  0  0
  4  3  1  0  0  0  0
  6 18  1  6  0  0  0
  6  5  1  0  0  0  0
  6 28  1  0  0  0  0
  7 24  1  6  0  0  0
  7 17  1  0  0  0  0
  9 26  1  1  0  0  0
  9 28  1  0  0  0  0
 11  3  1  0  0  0  0
 12  8  1  1  0  0  0
 12 13  1  0  0  0  0
 13 11  1  1  0  0  0
 14 23  1  6  0  0  0
 14 22  1  0  0  0  0
 15 18  1  0  0  0  0
 15  9  1  0  0  0  0
 17  8  1  0  0  0  0
 17 10  1  1  0  0  0
 19 16  1  6  0  0  0
 19  1  1  0  0  0  0
 19  7  1  0  0  0  0
 20 10  1  0  0  0  0
 21  4  1  0  0  0  0
 22 13  1  0  0  0  0
 22 21  1  1  0  0  0
 25  5  2  0  0  0  0
 27  5  1  6  0  0  0
 27  2  1  0  0  0  0
 27 14  1  0  0  0  0
 28 23  1  1  0  0  0
 29 30  1  6  0  0  0
 29 20  1  0  0  0  0
 30 32  1  0  0  0  0
 31 30  2  0  0  0  0
M  END
>  <MODEL>
8

>  <REMARK>
 VINA RESULT:      -6.6      2.737      3.914
  Name = 
  1 active torsions:
  status: ('A' for Active; 'I' for Inactive)
    1  A    between atoms: C_29  and  C_30
                            x       y       z     vdW  Elec       q    Type
                         _______ _______ _______ _____ _____    ______ ____

>  <TORSDO>
F 1

$$$$
