=
 OpenBabel11122411103D

 31 35  0  0  0  0  0  0  0  0999 V2000
  184.9280  178.5740  144.7870 C   0  0  0  0  0  0  0  0  0  0  0  0
  188.5190  177.5330  144.4540 C   0  0  0  0  0  0  0  0  0  0  0  0
  189.0270  177.4740  145.7780 C   0  0  0  0  0  0  0  0  0  0  0  0
  188.3390  177.2370  139.2080 O   0  0  0  0  0  0  0  0  0  0  0  0
  189.5030  176.9320  139.5820 C   0  0  0  0  0  0  0  0  0  0  0  0
  188.7420  177.7380  148.1880 C   0  0  0  0  0  0  0  0  0  0  0  0
  187.1800  177.8910  144.1450 C   0  0  0  0  0  0  0  0  0  0  0  0
  184.5410  178.5940  143.4480 C   0  0  0  0  0  3  0  0  0  0  0  0
  188.2210  177.7300  146.8930 O   0  0  0  0  0  0  0  0  0  0  0  0
  188.9370  177.2570  142.0590 C   0  0  0  0  0  0  0  0  0  0  0  0
  184.0360  178.8920  145.7550 F   0  0  0  0  0  0  0  0  0  0  0  0
  191.1720  176.8140  144.9390 N   0  0  0  0  0  0  0  0  0  0  0  0
  187.9700  177.8740  149.1730 O   0  0  0  0  0  0  0  0  0  0  0  0
  187.6480  177.6040  141.8040 N   0  0  0  0  0  0  0  0  0  0  0  0
  189.3950  177.2150  143.3850 C   0  0  0  0  0  0  0  0  0  0  0  0
  189.8290  176.9330  140.9800 N   0  0  0  0  0  2  0  0  0  0  0  0
  186.2360  178.2270  145.1320 C   0  0  0  0  0  3  0  0  0  0  0  0
  190.2210  177.6610  148.4050 C   0  0  0  0  0  2  0  0  0  0  0  0
  186.7720  177.9170  142.7890 C   0  0  0  0  0  0  0  0  0  0  0  0
  185.4610  178.2660  142.4510 C   0  0  0  0  0  3  0  0  0  0  0  0
  190.7200  176.8540  143.6620 C   0  0  0  0  0  3  0  0  0  0  0  0
  190.3700  177.1200  145.9890 C   0  0  0  0  0  0  0  0  0  0  0  0
  190.8800  177.0580  147.2890 O   0  0  0  0  0  0  0  0  0  0  0  0
  192.4200  175.8270  136.6210 C   0  0  0  0  0  0  0  0  0  0  0  0
  190.1360  175.9780  137.3890 C   0  0  0  0  0  3  0  0  0  0  0  0
  192.6060  177.5170  140.2530 Cl  0  0  0  0  0  0  0  0  0  0  0  0
  193.3190  175.4700  135.6720 F   0  0  0  0  0  0  0  0  0  0  0  0
  191.0600  175.6090  136.4100 C   0  0  0  0  0  3  0  0  0  0  0  0
  191.9380  176.7870  138.7980 C   0  0  0  0  0  0  0  0  0  0  0  0
  190.5500  176.5700  138.5930 C   0  0  0  0  0  0  0  0  0  0  0  0
  192.8550  176.4130  137.8090 C   0  0  0  0  0  3  0  0  0  0  0  0
  1 17  1  0  0  0  0
  1 11  1  0  0  0  0
  2  3  2  0  0  0  0
  3 22  1  0  0  0  0
  3  9  1  0  0  0  0
  4  5  2  0  0  0  0
  5 16  1  0  0  0  0
  6 18  1  0  0  0  0
  6 13  2  0  0  0  0
  7  2  1  0  0  0  0
  7 17  2  0  0  0  0
  8  1  2  0  0  0  0
  9  6  1  0  0  0  0
 10 15  1  0  0  0  0
 12 22  2  0  0  0  0
 14 10  2  0  0  0  0
 14 19  1  0  0  0  0
 15 21  2  0  0  0  0
 15  2  1  0  0  0  0
 16 10  1  0  0  0  0
 19  7  1  0  0  0  0
 20 19  2  0  0  0  0
 20  8  1  0  0  0  0
 21 12  1  0  0  0  0
 22 23  1  0  0  0  0
 23 18  1  0  0  0  0
 24 31  1  0  0  0  0
 25 30  2  0  0  0  0
 27 24  1  0  0  0  0
 28 24  2  0  0  0  0
 28 25  1  0  0  0  0
 29 26  1  0  0  0  0
 30 29  1  0  0  0  0
 30  5  1  0  0  0  0
 31 29  2  0  0  0  0
M  END
>  <MODEL>
1

>  <REMARK>
 VINA RESULT:     -10.9      0.000      0.000
  Name = 
  1 active torsions:
  status: ('A' for Active; 'I' for Inactive)
    1  A    between atoms: C_5  and  C_30
                            x       y       z     vdW  Elec       q    Type
                         _______ _______ _______ _____ _____    ______ ____

>  <TORSDO>
F 1

$$$$
=
 OpenBabel11122411103D

 31 35  0  0  0  0  0  0  0  0999 V2000
  186.7840  178.1560  147.2920 C   0  0  0  0  0  0  0  0  0  0  0  0
  187.5680  177.9740  143.6260 C   0  0  0  0  0  0  0  0  0  0  0  0
  188.9660  177.7470  143.5420 C   0  0  0  0  0  0  0  0  0  0  0  0
  182.5850  178.7450  142.1370 O   0  0  0  0  0  0  0  0  0  0  0  0
  183.2920  178.6170  141.1020 C   0  0  0  0  0  0  0  0  0  0  0  0
  191.1460  177.4380  144.5970 C   0  0  0  0  0  0  0  0  0  0  0  0
  186.8680  178.1030  144.8550 C   0  0  0  0  0  0  0  0  0  0  0  0
  185.4070  178.3730  147.2500 C   0  0  0  0  0  3  0  0  0  0  0  0
  189.7620  177.5930  144.6840 O   0  0  0  0  0  0  0  0  0  0  0  0
  185.4460  178.2950  142.4500 C   0  0  0  0  0  0  0  0  0  0  0  0
  187.4210  178.0740  148.4850 F   0  0  0  0  0  0  0  0  0  0  0  0
  188.8340  177.7340  141.1500 N   0  0  0  0  0  0  0  0  0  0  0  0
  191.8170  177.2040  145.6360 O   0  0  0  0  0  0  0  0  0  0  0  0
  184.8120  178.4130  143.6470 N   0  0  0  0  0  0  0  0  0  0  0  0
  186.8320  178.0740  142.4180 C   0  0  0  0  0  0  0  0  0  0  0  0
  184.7050  178.3950  141.2230 N   0  0  0  0  0  2  0  0  0  0  0  0
  187.5070  178.0230  146.1050 C   0  0  0  0  0  3  0  0  0  0  0  0
  191.8440  177.6260  143.2860 C   0  0  0  0  0  2  0  0  0  0  0  0
  185.4700  178.3250  144.8280 C   0  0  0  0  0  0  0  0  0  0  0  0
  184.7510  178.4580  146.0200 C   0  0  0  0  0  3  0  0  0  0  0  0
  187.4960  177.9460  141.1910 C   0  0  0  0  0  3  0  0  0  0  0  0
  189.5760  177.6430  142.2810 C   0  0  0  0  0  0  0  0  0  0  0  0
  190.9540  177.4190  142.1880 O   0  0  0  0  0  0  0  0  0  0  0  0
  181.5260  178.9990  137.1990 C   0  0  0  0  0  0  0  0  0  0  0  0
  182.3960  179.9670  139.2320 C   0  0  0  0  0  3  0  0  0  0  0  0
  182.6770  175.9000  139.4690 Cl  0  0  0  0  0  0  0  0  0  0  0  0
  180.9710  179.1460  135.9720 F   0  0  0  0  0  0  0  0  0  0  0  0
  181.8230  180.1220  137.9690 C   0  0  0  0  0  3  0  0  0  0  0  0
  182.3770  177.5560  138.9570 C   0  0  0  0  0  0  0  0  0  0  0  0
  182.6830  178.6930  139.7500 C   0  0  0  0  0  0  0  0  0  0  0  0
  181.8030  177.7240  137.6910 C   0  0  0  0  0  3  0  0  0  0  0  0
  1 11  1  0  0  0  0
  2  7  1  0  0  0  0
  3  2  2  0  0  0  0
  3  9  1  0  0  0  0
  5 16  1  0  0  0  0
  5  4  2  0  0  0  0
  6  9  1  0  0  0  0
  6 13  2  0  0  0  0
  7 17  1  0  0  0  0
  8  1  1  0  0  0  0
 10 14  2  0  0  0  0
 12 21  1  0  0  0  0
 12 22  2  0  0  0  0
 14 19  1  0  0  0  0
 15 10  1  0  0  0  0
 15  2  1  0  0  0  0
 16 10  1  0  0  0  0
 17  1  2  0  0  0  0
 18  6  1  0  0  0  0
 19  7  2  0  0  0  0
 19 20  1  0  0  0  0
 20  8  2  0  0  0  0
 21 15  2  0  0  0  0
 22  3  1  0  0  0  0
 23 22  1  0  0  0  0
 23 18  1  0  0  0  0
 24 31  2  0  0  0  0
 24 28  1  0  0  0  0
 25 30  1  0  0  0  0
 27 24  1  0  0  0  0
 28 25  2  0  0  0  0
 29 26  1  0  0  0  0
 29 30  2  0  0  0  0
 30  5  1  0  0  0  0
 31 29  1  0  0  0  0
M  END
>  <MODEL>
2

>  <REMARK>
 VINA RESULT:     -10.7      4.307      6.360
  Name = 
  1 active torsions:
  status: ('A' for Active; 'I' for Inactive)
    1  A    between atoms: C_5  and  C_30
                            x       y       z     vdW  Elec       q    Type
                         _______ _______ _______ _____ _____    ______ ____

>  <TORSDO>
F 1

$$$$
=
 OpenBabel11122411103D

 31 35  0  0  0  0  0  0  0  0999 V2000
  190.9570  177.3040  141.8280 C   0  0  0  0  0  0  0  0  0  0  0  0
  187.5950  178.0140  143.3390 C   0  0  0  0  0  0  0  0  0  0  0  0
  187.7600  177.8490  144.7390 C   0  0  0  0  0  0  0  0  0  0  0  0
  185.3060  179.0080  138.7110 O   0  0  0  0  0  0  0  0  0  0  0  0
  184.4410  179.1430  139.6180 C   0  0  0  0  0  0  0  0  0  0  0  0
  189.1410  177.3040  146.6770 C   0  0  0  0  0  0  0  0  0  0  0  0
  188.6460  177.8350  142.4010 C   0  0  0  0  0  0  0  0  0  0  0  0
  190.6770  177.4970  140.4760 C   0  0  0  0  0  3  0  0  0  0  0  0
  188.9990  177.5320  145.3070 O   0  0  0  0  0  0  0  0  0  0  0  0
  186.1030  178.5570  141.4770 C   0  0  0  0  0  0  0  0  0  0  0  0
  192.2060  176.9530  142.2180 F   0  0  0  0  0  0  0  0  0  0  0  0
  185.4530  178.3960  145.0870 N   0  0  0  0  0  0  0  0  0  0  0  0
  190.2860  177.1180  147.1660 O   0  0  0  0  0  0  0  0  0  0  0  0
  187.1350  178.3770  140.6100 N   0  0  0  0  0  0  0  0  0  0  0  0
  186.3140  178.3790  142.8530 C   0  0  0  0  0  0  0  0  0  0  0  0
  184.8030  178.9270  140.9910 N   0  0  0  0  0  2  0  0  0  0  0  0
  189.9500  177.4710  142.7810 C   0  0  0  0  0  3  0  0  0  0  0  0
  187.9300  177.2040  147.5520 C   0  0  0  0  0  2  0  0  0  0  0  0
  188.3770  178.0280  141.0240 C   0  0  0  0  0  0  0  0  0  0  0  0
  189.3890  177.8590  140.0740 C   0  0  0  0  0  3  0  0  0  0  0  0
  185.2600  178.5670  143.7560 C   0  0  0  0  0  3  0  0  0  0  0  0
  186.6590  178.0370  145.5920 C   0  0  0  0  0  0  0  0  0  0  0  0
  186.8120  177.8770  146.9730 O   0  0  0  0  0  0  0  0  0  0  0  0
  180.4510  180.3890  138.6070 C   0  0  0  0  0  0  0  0  0  0  0  0
  182.8290  180.7900  138.7190 C   0  0  0  0  0  3  0  0  0  0  0  0
  182.0350  177.0760  140.2180 Cl  0  0  0  0  0  0  0  0  0  0  0  0
  179.2040  180.8050  138.2790 F   0  0  0  0  0  0  0  0  0  0  0  0
  181.5450  181.2210  138.3800 C   0  0  0  0  0  3  0  0  0  0  0  0
  181.9230  178.6840  139.5140 C   0  0  0  0  0  0  0  0  0  0  0  0
  183.0440  179.5240  139.2870 C   0  0  0  0  0  0  0  0  0  0  0  0
  180.6400  179.1280  139.1700 C   0  0  0  0  0  3  0  0  0  0  0  0
  1 11  1  0  0  0  0
  1 17  1  0  0  0  0
  2  3  2  0  0  0  0
  3  9  1  0  0  0  0
  3 22  1  0  0  0  0
  4  5  2  0  0  0  0
  5 16  1  0  0  0  0
  6 13  2  0  0  0  0
  6 18  1  0  0  0  0
  7 17  2  0  0  0  0
  7  2  1  0  0  0  0
  8  1  2  0  0  0  0
  9  6  1  0  0  0  0
 10 15  1  0  0  0  0
 12 22  2  0  0  0  0
 14 19  1  0  0  0  0
 14 10  2  0  0  0  0
 15  2  1  0  0  0  0
 15 21  2  0  0  0  0
 16 10  1  0  0  0  0
 19  7  1  0  0  0  0
 20  8  1  0  0  0  0
 20 19  2  0  0  0  0
 21 12  1  0  0  0  0
 22 23  1  0  0  0  0
 23 18  1  0  0  0  0
 24 31  1  0  0  0  0
 25 30  2  0  0  0  0
 27 24  1  0  0  0  0
 28 24  2  0  0  0  0
 28 25  1  0  0  0  0
 29 26  1  0  0  0  0
 30 29  1  0  0  0  0
 30  5  1  0  0  0  0
 31 29  2  0  0  0  0
M  END
>  <MODEL>
3

>  <REMARK>
 VINA RESULT:     -10.3      4.012      6.955
  Name = 
  1 active torsions:
  status: ('A' for Active; 'I' for Inactive)
    1  A    between atoms: C_5  and  C_30
                            x       y       z     vdW  Elec       q    Type
                         _______ _______ _______ _____ _____    ______ ____

>  <TORSDO>
F 1

$$$$
=
 OpenBabel11122411103D

 31 35  0  0  0  0  0  0  0  0999 V2000
  183.9060  179.0510  140.0460 C   0  0  0  0  0  0  0  0  0  0  0  0
  187.5520  178.1800  140.2350 C   0  0  0  0  0  0  0  0  0  0  0  0
  188.0210  178.1940  138.8950 C   0  0  0  0  0  0  0  0  0  0  0  0
  187.5560  177.7080  145.4710 O   0  0  0  0  0  0  0  0  0  0  0  0
  188.7200  177.4720  145.0520 C   0  0  0  0  0  0  0  0  0  0  0  0
  187.6350  178.4760  136.5010 C   0  0  0  0  0  0  0  0  0  0  0  0
  186.2090  178.4630  140.5970 C   0  0  0  0  0  0  0  0  0  0  0  0
  183.5620  179.0110  141.3970 C   0  0  0  0  0  3  0  0  0  0  0  0
  187.1880  178.5310  137.8220 O   0  0  0  0  0  0  0  0  0  0  0  0
  188.0600  177.8470  142.6050 C   0  0  0  0  0  0  0  0  0  0  0  0
  182.9680  179.3520  139.1170 F   0  0  0  0  0  0  0  0  0  0  0  0
  190.2200  177.6080  139.6450 N   0  0  0  0  0  0  0  0  0  0  0  0
  186.8910  178.8810  135.5700 O   0  0  0  0  0  0  0  0  0  0  0  0
  186.7650  178.1240  142.9120 N   0  0  0  0  0  0  0  0  0  0  0  0
  188.4760  177.8700  141.2650 C   0  0  0  0  0  0  0  0  0  0  0  0
  189.0010  177.5320  143.6440 N   0  0  0  0  0  2  0  0  0  0  0  0
  185.2170  178.7780  139.6500 C   0  0  0  0  0  3  0  0  0  0  0  0
  188.9660  177.8690  136.1820 C   0  0  0  0  0  2  0  0  0  0  0  0
  185.8440  178.4260  141.9650 C   0  0  0  0  0  0  0  0  0  0  0  0
  184.5290  178.6990  142.3550 C   0  0  0  0  0  3  0  0  0  0  0  0
  189.8090  177.5910  140.9370 C   0  0  0  0  0  3  0  0  0  0  0  0
  189.3660  177.8900  138.6300 C   0  0  0  0  0  0  0  0  0  0  0  0
  189.8380  177.9010  137.3130 O   0  0  0  0  0  0  0  0  0  0  0  0
  191.9700  176.4130  147.6620 C   0  0  0  0  0  0  0  0  0  0  0  0
  190.9270  176.4410  145.4850 C   0  0  0  0  0  3  0  0  0  0  0  0
  188.4760  178.3190  148.1580 Cl  0  0  0  0  0  0  0  0  0  0  0  0
  193.0060  176.0690  148.4640 F   0  0  0  0  0  0  0  0  0  0  0  0
  191.9960  176.0850  146.3090 C   0  0  0  0  0  3  0  0  0  0  0  0
  189.7980  177.4600  147.3760 C   0  0  0  0  0  0  0  0  0  0  0  0
  189.8150  177.1310  145.9950 C   0  0  0  0  0  0  0  0  0  0  0  0
  190.8760  177.0970  148.1920 C   0  0  0  0  0  3  0  0  0  0  0  0
  1  8  1  0  0  0  0
  2  7  1  0  0  0  0
  2 15  1  0  0  0  0
  3  2  2  0  0  0  0
  5  4  2  0  0  0  0
  5 30  1  0  0  0  0
  6  9  1  0  0  0  0
  7 19  2  0  0  0  0
  8 20  2  0  0  0  0
  9  3  1  0  0  0  0
 10 14  2  0  0  0  0
 10 16  1  0  0  0  0
 11  1  1  0  0  0  0
 12 21  1  0  0  0  0
 13  6  2  0  0  0  0
 15 10  1  0  0  0  0
 16  5  1  0  0  0  0
 17  1  2  0  0  0  0
 17  7  1  0  0  0  0
 18  6  1  0  0  0  0
 18 23  1  0  0  0  0
 19 20  1  0  0  0  0
 19 14  1  0  0  0  0
 21 15  2  0  0  0  0
 22  3  1  0  0  0  0
 22 12  2  0  0  0  0
 23 22  1  0  0  0  0
 24 31  1  0  0  0  0
 24 27  1  0  0  0  0
 25 30  2  0  0  0  0
 25 28  1  0  0  0  0
 28 24  2  0  0  0  0
 29 26  1  0  0  0  0
 29 31  2  0  0  0  0
 30 29  1  0  0  0  0
M  END
>  <MODEL>
4

>  <REMARK>
 VINA RESULT:     -10.2      3.581      7.649
  Name = 
  1 active torsions:
  status: ('A' for Active; 'I' for Inactive)
    1  A    between atoms: C_5  and  C_30
                            x       y       z     vdW  Elec       q    Type
                         _______ _______ _______ _____ _____    ______ ____

>  <TORSDO>
F 1

$$$$
=
 OpenBabel11122411103D

 31 35  0  0  0  0  0  0  0  0999 V2000
  191.4910  177.2670  141.4360 C   0  0  0  0  0  0  0  0  0  0  0  0
  188.6760  177.5100  143.9060 C   0  0  0  0  0  0  0  0  0  0  0  0
  189.2560  177.2530  145.1770 C   0  0  0  0  0  0  0  0  0  0  0  0
  185.0630  178.6210  140.2530 O   0  0  0  0  0  0  0  0  0  0  0  0
  184.4940  178.5960  141.3770 C   0  0  0  0  0  0  0  0  0  0  0  0
  191.1810  176.7030  146.5730 C   0  0  0  0  0  0  0  0  0  0  0  0
  189.4170  177.5130  142.6950 C   0  0  0  0  0  0  0  0  0  0  0  0
  190.8130  177.5360  140.2470 C   0  0  0  0  0  3  0  0  0  0  0  0
  190.6280  177.0220  145.3320 O   0  0  0  0  0  0  0  0  0  0  0  0
  186.6670  178.0400  142.6140 C   0  0  0  0  0  0  0  0  0  0  0  0
  192.8220  177.0160  141.4150 F   0  0  0  0  0  0  0  0  0  0  0  0
  187.1180  177.5320  146.2220 N   0  0  0  0  0  0  0  0  0  0  0  0
  192.4300  176.5980  146.6940 O   0  0  0  0  0  0  0  0  0  0  0  0
  187.4100  178.0340  141.4760 N   0  0  0  0  0  0  0  0  0  0  0  0
  187.2850  177.7780  143.8470 C   0  0  0  0  0  0  0  0  0  0  0  0
  185.2580  178.3120  142.5590 N   0  0  0  0  0  2  0  0  0  0  0  0
  190.7980  177.2550  142.6480 C   0  0  0  0  0  3  0  0  0  0  0  0
  190.2920  176.4110  147.7420 C   0  0  0  0  0  2  0  0  0  0  0  0
  188.7420  177.7830  141.4790 C   0  0  0  0  0  0  0  0  0  0  0  0
  189.4410  177.7930  140.2690 C   0  0  0  0  0  3  0  0  0  0  0  0
  186.5320  177.7850  145.0270 C   0  0  0  0  0  3  0  0  0  0  0  0
  188.4430  177.2600  146.3220 C   0  0  0  0  0  0  0  0  0  0  0  0
  189.0050  177.0100  147.5790 O   0  0  0  0  0  0  0  0  0  0  0  0
  180.2650  179.3480  141.5700 C   0  0  0  0  0  0  0  0  0  0  0  0
  182.2880  178.9480  140.3150 C   0  0  0  0  0  3  0  0  0  0  0  0
  183.1710  178.9310  144.3020 Cl  0  0  0  0  0  0  0  0  0  0  0  0
  178.9310  179.5840  141.6050 F   0  0  0  0  0  0  0  0  0  0  0  0
  180.9140  179.1910  140.3480 C   0  0  0  0  0  3  0  0  0  0  0  0
  182.3670  179.0180  142.7400 C   0  0  0  0  0  0  0  0  0  0  0  0
  183.0380  178.8570  141.4990 C   0  0  0  0  0  0  0  0  0  0  0  0
  180.9880  179.2620  142.7590 C   0  0  0  0  0  3  0  0  0  0  0  0
  1 17  1  0  0  0  0
  2  3  2  0  0  0  0
  3  9  1  0  0  0  0
  3 22  1  0  0  0  0
  4  5  2  0  0  0  0
  5 30  1  0  0  0  0
  5 16  1  0  0  0  0
  6 13  2  0  0  0  0
  6 18  1  0  0  0  0
  7  2  1  0  0  0  0
  8 20  1  0  0  0  0
  8  1  2  0  0  0  0
  9  6  1  0  0  0  0
 10 15  1  0  0  0  0
 11  1  1  0  0  0  0
 12 22  2  0  0  0  0
 14 19  1  0  0  0  0
 14 10  2  0  0  0  0
 15  2  1  0  0  0  0
 15 21  2  0  0  0  0
 16 10  1  0  0  0  0
 17  7  2  0  0  0  0
 19  7  1  0  0  0  0
 20 19  2  0  0  0  0
 21 12  1  0  0  0  0
 22 23  1  0  0  0  0
 23 18  1  0  0  0  0
 24 27  1  0  0  0  0
 24 31  1  0  0  0  0
 25 28  1  0  0  0  0
 25 30  2  0  0  0  0
 28 24  2  0  0  0  0
 29 31  2  0  0  0  0
 29 26  1  0  0  0  0
 30 29  1  0  0  0  0
M  END
>  <MODEL>
5

>  <REMARK>
 VINA RESULT:     -10.2      3.309      7.098
  Name = 
  1 active torsions:
  status: ('A' for Active; 'I' for Inactive)
    1  A    between atoms: C_5  and  C_30
                            x       y       z     vdW  Elec       q    Type
                         _______ _______ _______ _____ _____    ______ ____

>  <TORSDO>
F 1

$$$$
=
 OpenBabel11122411103D

 31 35  0  0  0  0  0  0  0  0999 V2000
  185.4480  178.1920  146.3580 C   0  0  0  0  0  0  0  0  0  0  0  0
  185.5640  178.3170  142.6090 C   0  0  0  0  0  0  0  0  0  0  0  0
  184.2490  178.6580  142.1940 C   0  0  0  0  0  0  0  0  0  0  0  0
  190.6660  177.0780  142.3480 O   0  0  0  0  0  0  0  0  0  0  0  0
  190.2360  177.2310  141.1740 C   0  0  0  0  0  0  0  0  0  0  0  0
  181.9200  179.1860  142.7010 C   0  0  0  0  0  0  0  0  0  0  0  0
  185.9410  178.1700  143.9690 C   0  0  0  0  0  0  0  0  0  0  0  0
  186.7710  177.8570  146.6450 C   0  0  0  0  0  3  0  0  0  0  0  0
  183.2260  178.9170  143.1140 O   0  0  0  0  0  0  0  0  0  0  0  0
  187.8640  177.7790  141.9710 C   0  0  0  0  0  0  0  0  0  0  0  0
  184.5600  178.3660  147.3660 F   0  0  0  0  0  0  0  0  0  0  0  0
  184.9390  178.5800  139.9010 N   0  0  0  0  0  0  0  0  0  0  0  0
  181.0490  179.5100  143.5500 O   0  0  0  0  0  0  0  0  0  0  0  0
  188.1870  177.6470  143.2850 N   0  0  0  0  0  0  0  0  0  0  0  0
  186.5500  178.1150  141.6100 C   0  0  0  0  0  0  0  0  0  0  0  0
  188.8590  177.5760  140.9550 N   0  0  0  0  0  2  0  0  0  0  0  0
  185.0370  178.3460  145.0320 C   0  0  0  0  0  3  0  0  0  0  0  0
  181.5350  179.0140  141.2640 C   0  0  0  0  0  2  0  0  0  0  0  0
  187.2820  177.8290  144.2760 C   0  0  0  0  0  0  0  0  0  0  0  0
  187.6860  177.6760  145.6060 C   0  0  0  0  0  3  0  0  0  0  0  0
  186.2050  178.2580  140.2600 C   0  0  0  0  0  3  0  0  0  0  0  0
  183.9640  178.7720  140.8240 C   0  0  0  0  0  0  0  0  0  0  0  0
  182.6720  179.1090  140.4050 O   0  0  0  0  0  0  0  0  0  0  0  0
  192.9650  176.7660  137.8820 C   0  0  0  0  0  0  0  0  0  0  0  0
  192.5120  177.2430  140.2050 C   0  0  0  0  0  3  0  0  0  0  0  0
  188.9870  176.4590  138.2980 Cl  0  0  0  0  0  0  0  0  0  0  0  0
  193.8440  176.6250  136.8620 F   0  0  0  0  0  0  0  0  0  0  0  0
  193.4210  177.0980  139.1560 C   0  0  0  0  0  3  0  0  0  0  0  0
  190.6800  176.7200  138.7030 C   0  0  0  0  0  0  0  0  0  0  0  0
  191.1350  177.0580  140.0040 C   0  0  0  0  0  0  0  0  0  0  0  0
  191.6010  176.5780  137.6580 C   0  0  0  0  0  3  0  0  0  0  0  0
  1  8  1  0  0  0  0
  1 11  1  0  0  0  0
  2  7  1  0  0  0  0
  3  2  2  0  0  0  0
  3  9  1  0  0  0  0
  5  4  2  0  0  0  0
  6  9  1  0  0  0  0
  6 13  2  0  0  0  0
  7 19  2  0  0  0  0
  7 17  1  0  0  0  0
 10 14  2  0  0  0  0
 12 21  1  0  0  0  0
 12 22  2  0  0  0  0
 14 19  1  0  0  0  0
 15 10  1  0  0  0  0
 15  2  1  0  0  0  0
 16  5  1  0  0  0  0
 16 10  1  0  0  0  0
 17  1  2  0  0  0  0
 18  6  1  0  0  0  0
 19 20  1  0  0  0  0
 20  8  2  0  0  0  0
 21 15  2  0  0  0  0
 22  3  1  0  0  0  0
 23 22  1  0  0  0  0
 23 18  1  0  0  0  0
 24 28  1  0  0  0  0
 26 29  1  0  0  0  0
 27 24  1  0  0  0  0
 28 25  2  0  0  0  0
 29 30  2  0  0  0  0
 30 25  1  0  0  0  0
 30  5  1  0  0  0  0
 31 24  2  0  0  0  0
 31 29  1  0  0  0  0
M  END
>  <MODEL>
6

>  <REMARK>
 VINA RESULT:      -9.8      2.869      5.108
  Name = 
  1 active torsions:
  status: ('A' for Active; 'I' for Inactive)
    1  A    between atoms: C_5  and  C_30
                            x       y       z     vdW  Elec       q    Type
                         _______ _______ _______ _____ _____    ______ ____

>  <TORSDO>
F 1

$$$$
=
 OpenBabel11122411103D

 31 35  0  0  0  0  0  0  0  0999 V2000
  183.5670  178.9650  138.4630 C   0  0  0  0  0  0  0  0  0  0  0  0
  183.5280  178.6920  142.2060 C   0  0  0  0  0  0  0  0  0  0  0  0
  182.1790  178.9060  142.5940 C   0  0  0  0  0  0  0  0  0  0  0  0
  188.6830  177.7270  142.5670 O   0  0  0  0  0  0  0  0  0  0  0  0
  188.1990  177.7290  143.7310 C   0  0  0  0  0  0  0  0  0  0  0  0
  179.8510  179.3940  142.0430 C   0  0  0  0  0  0  0  0  0  0  0  0
  183.9670  178.7120  140.8560 C   0  0  0  0  0  0  0  0  0  0  0  0
  184.9180  178.7370  138.2030 C   0  0  0  0  0  3  0  0  0  0  0  0
  181.1630  179.1160  141.6540 O   0  0  0  0  0  0  0  0  0  0  0  0
  185.8310  178.2240  142.8880 C   0  0  0  0  0  0  0  0  0  0  0  0
  182.7110  179.1990  137.4400 F   0  0  0  0  0  0  0  0  0  0  0  0
  182.7830  178.6280  144.8960 N   0  0  0  0  0  0  0  0  0  0  0  0
  178.9450  179.4790  141.1740 O   0  0  0  0  0  0  0  0  0  0  0  0
  186.2120  178.2500  141.5840 N   0  0  0  0  0  0  0  0  0  0  0  0
  184.4850  178.4440  143.2230 C   0  0  0  0  0  0  0  0  0  0  0  0
  186.7960  177.9720  143.9220 N   0  0  0  0  0  2  0  0  0  0  0  0
  183.0970  178.9530  139.7780 C   0  0  0  0  0  3  0  0  0  0  0  0
  179.5340  179.6650  143.4810 C   0  0  0  0  0  2  0  0  0  0  0  0
  185.3360  178.4840  140.5760 C   0  0  0  0  0  0  0  0  0  0  0  0
  185.8010  178.4970  139.2580 C   0  0  0  0  0  3  0  0  0  0  0  0
  184.0790  178.4140  144.5620 C   0  0  0  0  0  3  0  0  0  0  0  0
  181.8380  178.8790  143.9560 C   0  0  0  0  0  0  0  0  0  0  0  0
  180.5110  179.0880  144.3480 O   0  0  0  0  0  0  0  0  0  0  0  0
  190.8190  176.9960  147.0610 C   0  0  0  0  0  0  0  0  0  0  0  0
  190.4150  177.1930  144.6890 C   0  0  0  0  0  3  0  0  0  0  0  0
  186.9240  177.8780  146.6930 Cl  0  0  0  0  0  0  0  0  0  0  0  0
  191.6640  176.7620  148.0940 F   0  0  0  0  0  0  0  0  0  0  0  0
  191.2890  176.9510  145.7510 C   0  0  0  0  0  3  0  0  0  0  0  0
  188.5910  177.5280  146.2540 C   0  0  0  0  0  0  0  0  0  0  0  0
  189.0600  177.4840  144.9150 C   0  0  0  0  0  0  0  0  0  0  0  0
  189.4770  177.2830  147.3100 C   0  0  0  0  0  3  0  0  0  0  0  0
  1 17  1  0  0  0  0
  2  3  2  0  0  0  0
  2 15  1  0  0  0  0
  3 22  1  0  0  0  0
  4  5  2  0  0  0  0
  5 16  1  0  0  0  0
  5 30  1  0  0  0  0
  6 18  1  0  0  0  0
  7  2  1  0  0  0  0
  8  1  2  0  0  0  0
  8 20  1  0  0  0  0
  9  6  1  0  0  0  0
  9  3  1  0  0  0  0
 10 15  1  0  0  0  0
 10 16  1  0  0  0  0
 11  1  1  0  0  0  0
 13  6  2  0  0  0  0
 14 10  2  0  0  0  0
 15 21  2  0  0  0  0
 17  7  2  0  0  0  0
 18 23  1  0  0  0  0
 19  7  1  0  0  0  0
 19 14  1  0  0  0  0
 20 19  2  0  0  0  0
 21 12  1  0  0  0  0
 22 23  1  0  0  0  0
 22 12  2  0  0  0  0
 24 31  1  0  0  0  0
 24 27  1  0  0  0  0
 25 30  2  0  0  0  0
 25 28  1  0  0  0  0
 28 24  2  0  0  0  0
 29 26  1  0  0  0  0
 29 31  2  0  0  0  0
 30 29  1  0  0  0  0
M  END
>  <MODEL>
7

>  <REMARK>
 VINA RESULT:      -9.6      4.746      7.853
  Name = 
  1 active torsions:
  status: ('A' for Active; 'I' for Inactive)
    1  A    between atoms: C_5  and  C_30
                            x       y       z     vdW  Elec       q    Type
                         _______ _______ _______ _____ _____    ______ ____

>  <TORSDO>
F 1

$$$$
=
 OpenBabel11122411103D

 31 35  0  0  0  0  0  0  0  0999 V2000
  182.6120  178.4840  138.1440 C   0  0  0  0  0  0  0  0  0  0  0  0
  186.1140  178.2960  139.4800 C   0  0  0  0  0  0  0  0  0  0  0  0
  186.9600  178.2680  138.3400 C   0  0  0  0  0  0  0  0  0  0  0  0
  184.5980  178.3190  144.5140 O   0  0  0  0  0  0  0  0  0  0  0  0
  185.8560  178.2560  144.4800 C   0  0  0  0  0  0  0  0  0  0  0  0
  187.2820  178.2550  135.9200 C   0  0  0  0  0  0  0  0  0  0  0  0
  184.6980  178.3680  139.4020 C   0  0  0  0  0  0  0  0  0  0  0  0
  181.8840  178.5090  139.3330 C   0  0  0  0  0  3  0  0  0  0  0  0
  186.4520  178.3520  137.0390 O   0  0  0  0  0  0  0  0  0  0  0  0
  185.9220  178.2790  141.9190 C   0  0  0  0  0  0  0  0  0  0  0  0
  181.9660  178.5270  136.9540 F   0  0  0  0  0  0  0  0  0  0  0  0
  188.8880  178.1540  139.7590 N   0  0  0  0  0  0  0  0  0  0  0  0
  186.8050  178.4330  134.7690 O   0  0  0  0  0  0  0  0  0  0  0  0
  184.5690  178.3490  141.8030 N   0  0  0  0  0  0  0  0  0  0  0  0
  186.7170  178.2510  140.7630 C   0  0  0  0  0  0  0  0  0  0  0  0
  186.5380  178.2340  143.2160 N   0  0  0  0  0  2  0  0  0  0  0  0
  184.0060  178.4130  138.1790 C   0  0  0  0  0  3  0  0  0  0  0  0
  188.7190  177.8670  136.0810 C   0  0  0  0  0  2  0  0  0  0  0  0
  183.9450  178.3940  140.6010 C   0  0  0  0  0  0  0  0  0  0  0  0
  182.5500  178.4640  140.5590 C   0  0  0  0  0  3  0  0  0  0  0  0
  188.1120  178.1840  140.8690 C   0  0  0  0  0  3  0  0  0  0  0  0
  188.3520  178.1850  138.5130 C   0  0  0  0  0  0  0  0  0  0  0  0
  189.1940  178.1580  137.3970 O   0  0  0  0  0  0  0  0  0  0  0  0
  188.0390  178.1870  148.1850 C   0  0  0  0  0  0  0  0  0  0  0  0
  186.1120  178.8200  146.8750 C   0  0  0  0  0  3  0  0  0  0  0  0
  188.7150  176.7560  144.5000 Cl  0  0  0  0  0  0  0  0  0  0  0  0
  188.7070  178.1780  149.3630 F   0  0  0  0  0  0  0  0  0  0  0  0
  186.7980  178.8130  148.0910 C   0  0  0  0  0  3  0  0  0  0  0  0
  187.9150  177.5680  145.8400 C   0  0  0  0  0  0  0  0  0  0  0  0
  186.6500  178.2030  145.7340 C   0  0  0  0  0  0  0  0  0  0  0  0
  188.5930  177.5680  147.0650 C   0  0  0  0  0  3  0  0  0  0  0  0
  1 17  2  0  0  0  0
  1  8  1  0  0  0  0
  2 15  1  0  0  0  0
  3 22  1  0  0  0  0
  3  2  2  0  0  0  0
  5  4  2  0  0  0  0
  5 30  1  0  0  0  0
  6 18  1  0  0  0  0
  6  9  1  0  0  0  0
  7  2  1  0  0  0  0
  7 19  2  0  0  0  0
  8 20  2  0  0  0  0
  9  3  1  0  0  0  0
 10 16  1  0  0  0  0
 11  1  1  0  0  0  0
 12 21  1  0  0  0  0
 13  6  2  0  0  0  0
 14 10  2  0  0  0  0
 15 21  2  0  0  0  0
 15 10  1  0  0  0  0
 16  5  1  0  0  0  0
 17  7  1  0  0  0  0
 18 23  1  0  0  0  0
 19 14  1  0  0  0  0
 20 19  1  0  0  0  0
 22 12  2  0  0  0  0
 23 22  1  0  0  0  0
 24 27  1  0  0  0  0
 25 28  2  0  0  0  0
 26 29  1  0  0  0  0
 28 24  1  0  0  0  0
 29 31  1  0  0  0  0
 30 29  2  0  0  0  0
 30 25  1  0  0  0  0
 31 24  2  0  0  0  0
M  END
>  <MODEL>
8

>  <REMARK>
 VINA RESULT:      -9.5      3.934      8.514
  Name = 
  1 active torsions:
  status: ('A' for Active; 'I' for Inactive)
    1  A    between atoms: C_5  and  C_30
                            x       y       z     vdW  Elec       q    Type
                         _______ _______ _______ _____ _____    ______ ____

>  <TORSDO>
F 1

$$$$
=
 OpenBabel11122411103D

 31 35  0  0  0  0  0  0  0  0999 V2000
  188.4320  177.5300  146.8210 C   0  0  0  0  0  0  0  0  0  0  0  0
  187.7260  177.8750  143.1510 C   0  0  0  0  0  0  0  0  0  0  0  0
  188.9640  177.6400  142.4970 C   0  0  0  0  0  0  0  0  0  0  0  0
  182.6250  178.9400  143.8470 O   0  0  0  0  0  0  0  0  0  0  0  0
  182.8670  178.9540  142.6100 C   0  0  0  0  0  0  0  0  0  0  0  0
  191.3540  177.1430  142.5640 C   0  0  0  0  0  0  0  0  0  0  0  0
  187.5660  177.8340  144.5610 C   0  0  0  0  0  0  0  0  0  0  0  0
  187.1650  177.7740  147.3500 C   0  0  0  0  0  3  0  0  0  0  0  0
  190.1250  177.3060  143.2050 O   0  0  0  0  0  0  0  0  0  0  0  0
  185.3450  178.4010  142.9530 C   0  0  0  0  0  0  0  0  0  0  0  0
  189.4720  177.2630  147.6470 F   0  0  0  0  0  0  0  0  0  0  0  0
  187.9190  177.9810  140.3680 N   0  0  0  0  0  0  0  0  0  0  0  0
  192.3540  176.7470  143.2170 O   0  0  0  0  0  0  0  0  0  0  0  0
  185.2320  178.3530  144.3060 N   0  0  0  0  0  0  0  0  0  0  0  0
  186.5910  178.1640  142.3520 C   0  0  0  0  0  0  0  0  0  0  0  0
  184.1980  178.6920  142.1380 N   0  0  0  0  0  2  0  0  0  0  0  0
  188.6300  177.5610  145.4390 C   0  0  0  0  0  3  0  0  0  0  0  0
  191.5030  177.5090  141.1200 C   0  0  0  0  0  2  0  0  0  0  0  0
  186.2860  178.0810  145.1140 C   0  0  0  0  0  0  0  0  0  0  0  0
  186.0940  178.0500  146.4980 C   0  0  0  0  0  3  0  0  0  0  0  0
  186.7200  178.2060  140.9580 C   0  0  0  0  0  3  0  0  0  0  0  0
  189.0310  177.7120  141.0960 C   0  0  0  0  0  0  0  0  0  0  0  0
  190.2460  177.4800  140.4420 O   0  0  0  0  0  0  0  0  0  0  0  0
  179.8630  179.7790  139.6460 C   0  0  0  0  0  0  0  0  0  0  0  0
  182.1580  179.3780  140.2790 C   0  0  0  0  0  3  0  0  0  0  0  0
  179.8120  179.2290  143.6180 Cl  0  0  0  0  0  0  0  0  0  0  0  0
  178.9360  180.0390  138.6930 F   0  0  0  0  0  0  0  0  0  0  0  0
  181.2050  179.6450  139.2950 C   0  0  0  0  0  3  0  0  0  0  0  0
  180.4210  179.3760  141.9740 C   0  0  0  0  0  0  0  0  0  0  0  0
  181.7910  179.2380  141.6270 C   0  0  0  0  0  0  0  0  0  0  0  0
  179.4750  179.6450  140.9790 C   0  0  0  0  0  3  0  0  0  0  0  0
  1  8  1  0  0  0  0
  1 11  1  0  0  0  0
  2  7  1  0  0  0  0
  3  2  2  0  0  0  0
  3  9  1  0  0  0  0
  5  4  2  0  0  0  0
  6  9  1  0  0  0  0
  6 13  2  0  0  0  0
  7 19  2  0  0  0  0
  7 17  1  0  0  0  0
 10 14  2  0  0  0  0
 12 21  1  0  0  0  0
 12 22  2  0  0  0  0
 14 19  1  0  0  0  0
 15 10  1  0  0  0  0
 15  2  1  0  0  0  0
 16  5  1  0  0  0  0
 16 10  1  0  0  0  0
 17  1  2  0  0  0  0
 18  6  1  0  0  0  0
 19 20  1  0  0  0  0
 20  8  2  0  0  0  0
 21 15  2  0  0  0  0
 22  3  1  0  0  0  0
 23 22  1  0  0  0  0
 23 18  1  0  0  0  0
 24 31  1  0  0  0  0
 25 30  2  0  0  0  0
 27 24  1  0  0  0  0
 28 24  2  0  0  0  0
 28 25  1  0  0  0  0
 29 26  1  0  0  0  0
 30 29  1  0  0  0  0
 30  5  1  0  0  0  0
 31 29  2  0  0  0  0
M  END
>  <MODEL>
9

>  <REMARK>
 VINA RESULT:      -9.5      4.454      7.724
  Name = 
  1 active torsions:
  status: ('A' for Active; 'I' for Inactive)
    1  A    between atoms: C_5  and  C_30
                            x       y       z     vdW  Elec       q    Type
                         _______ _______ _______ _____ _____    ______ ____

>  <TORSDO>
F 1

$$$$
