=
 OpenBabel11122410323D

 30 35  0  0  1  0  0  0  0  0999 V2000
  185.8380  178.4750  139.7600 C   0  0  0  0  0  0  0  0  0  0  0  0
  186.8710  178.2300  137.5100 C   0  0  0  0  0  0  0  0  0  0  0  0
  189.5040  177.8920  141.6250 O   0  0  0  0  0  0  0  0  0  0  0  0
  185.9970  178.5520  141.1610 C   0  0  0  0  0  0  0  0  0  0  0  0
  184.5190  178.5930  139.2200 N   0  0  0  0  0  2  0  0  0  0  0  0
  182.5090  178.8110  142.1780 O   0  0  0  0  0  0  0  0  0  0  0  0
  185.3940  178.1460  144.2840 C   0  0  1  0  0  3  0  0  0  0  0  0
  183.5280  178.6840  141.4470 C   0  0  0  0  0  0  0  0  0  0  0  0
  186.7960  177.5350  144.0810 C   0  0  2  0  0  3  0  0  0  0  0  0
  189.2080  177.8500  143.0180 C   0  0  2  0  0  3  0  0  0  0  0  0
  183.3350  178.2780  140.0160 C   0  0  2  0  0  3  0  0  0  0  0  0
  184.8590  178.8630  141.9900 N   0  0  0  0  0  0  0  0  0  0  0  0
  187.9860  178.0180  136.7590 N   0  0  0  0  0  0  0  0  0  0  0  0
  187.3850  177.4810  145.4760 C   0  0  0  0  0  2  0  0  0  0  0  0
  185.2660  178.5370  145.6830 N   0  0  0  0  0  2  0  0  0  0  0  0
  185.6850  178.3990  136.8740 F   0  0  0  0  0  0  0  0  0  0  0  0
  188.3530  178.1020  140.8930 C   0  0  0  0  0  0  0  0  0  0  0  0
  189.2120  177.8390  137.3170 C   0  0  0  0  0  3  0  0  0  0  0  0
  186.9650  178.2730  138.9180 C   0  0  0  0  0  0  0  0  0  0  0  0
  187.2750  178.3240  141.7020 C   0  0  0  0  0  0  0  0  0  0  0  0
  189.4330  176.4220  143.5020 C   0  0  0  0  0  1  0  0  0  0  0  0
  187.7250  178.3320  143.1310 C   0  0  1  0  0  3  0  0  0  0  0  0
  186.2220  177.7190  146.4040 C   0  0  0  0  0  2  0  0  0  0  0  0
  184.0310  180.1060  143.8380 O   0  0  0  0  0  1  0  0  0  0  0  0
  189.3620  177.8660  138.7010 C   0  0  0  0  0  3  0  0  0  0  0  0
  188.2430  178.0840  139.5040 C   0  0  0  0  0  0  0  0  0  0  0  0
  185.0920  179.3290  143.3630 C   0  0  1  0  0  3  0  0  0  0  0  0
  183.0490  176.7850  139.9470 C   0  0  0  0  0  2  0  0  0  0  0  0
  183.5080  175.2890  138.0320 C   0  0  0  0  0  1  0  0  0  0  0  0
  182.6120  176.3940  138.5490 C   0  0  0  0  0  2  0  0  0  0  0  0
  1  4  1  0  0  0  0
  2 19  1  0  0  0  0
  3 10  1  0  0  0  0
  4 20  2  0  0  0  0
  4 12  1  0  0  0  0
  5  1  1  0  0  0  0
  5 11  1  0  0  0  0
  7 15  1  1  0  0  0
  8 12  1  0  0  0  0
  8  6  2  0  0  0  0
  9  7  1  0  0  0  0
  9 14  1  1  0  0  0
 10 22  1  0  0  0  0
 10 21  1  6  0  0  0
 11 28  1  1  0  0  0
 11  8  1  0  0  0  0
 12 27  1  0  0  0  0
 13 18  1  0  0  0  0
 13  2  2  0  0  0  0
 14 23  1  0  0  0  0
 15 23  1  0  0  0  0
 16  2  1  0  0  0  0
 17  3  1  0  0  0  0
 17 20  1  0  0  0  0
 18 25  2  0  0  0  0
 19 26  1  0  0  0  0
 19  1  2  0  0  0  0
 22 20  1  6  0  0  0
 22  9  1  0  0  0  0
 25 26  1  0  0  0  0
 26 17  2  0  0  0  0
 27 24  1  1  0  0  0
 27  7  1  0  0  0  0
 29 30  1  0  0  0  0
 30 28  1  0  0  0  0
M  END
>  <MODEL>
1

>  <REMARK>
 VINA RESULT:      -8.4      0.000      0.000
  Name = 
  2 active torsions:
  status: ('A' for Active; 'I' for Inactive)
    1  A    between atoms: C_11  and  C_28
    2  A    between atoms: C_28  and  C_30
                            x       y       z     vdW  Elec       q    Type
                         _______ _______ _______ _____ _____    ______ ____

>  <TORSDO>
F 2

$$$$
=
 OpenBabel11122410323D

 30 35  0  0  1  0  0  0  0  0999 V2000
  186.7550  178.4100  142.7110 C   0  0  0  0  0  0  0  0  0  0  0  0
  185.5950  178.6400  144.9000 C   0  0  0  0  0  0  0  0  0  0  0  0
  183.1670  178.7740  140.6500 O   0  0  0  0  0  0  0  0  0  0  0  0
  186.6900  178.4260  141.3010 C   0  0  0  0  0  0  0  0  0  0  0  0
  188.0250  178.1820  143.3280 N   0  0  0  0  0  2  0  0  0  0  0  0
  190.1430  177.5910  140.4980 O   0  0  0  0  0  0  0  0  0  0  0  0
  187.2880  177.6340  138.2520 C   0  0  1  0  0  3  0  0  0  0  0  0
  189.0990  177.8180  141.1680 C   0  0  0  0  0  0  0  0  0  0  0  0
  185.7600  177.4700  138.3980 C   0  0  2  0  0  3  0  0  0  0  0  0
  183.5000  178.5450  139.2840 C   0  0  2  0  0  3  0  0  0  0  0  0
  189.1000  177.4810  142.6300 C   0  0  2  0  0  3  0  0  0  0  0  0
  187.9050  178.3330  140.5310 N   0  0  0  0  0  0  0  0  0  0  0  0
  184.4340  178.8150  145.5890 N   0  0  0  0  0  0  0  0  0  0  0  0
  185.2450  177.4860  136.9740 C   0  0  0  0  0  2  0  0  0  0  0  0
  187.5870  177.8680  136.8440 N   0  0  0  0  0  2  0  0  0  0  0  0
  186.7500  178.5060  145.6010 F   0  0  0  0  0  0  0  0  0  0  0  0
  184.2950  178.6960  141.4410 C   0  0  0  0  0  0  0  0  0  0  0  0
  183.2360  178.9560  144.9640 C   0  0  0  0  0  3  0  0  0  0  0  0
  185.5810  178.6040  143.4890 C   0  0  0  0  0  0  0  0  0  0  0  0
  185.4270  178.5370  140.6920 C   0  0  0  0  0  0  0  0  0  0  0  0
  182.8900  177.2120  138.8690 C   0  0  0  0  0  1  0  0  0  0  0  0
  185.0630  178.5700  139.2390 C   0  0  1  0  0  3  0  0  0  0  0  0
  186.4670  177.3100  136.1110 C   0  0  0  0  0  2  0  0  0  0  0  0
  189.1430  179.1450  138.6720 O   0  0  0  0  0  1  0  0  0  0  0  0
  183.1630  178.9230  143.5740 C   0  0  0  0  0  3  0  0  0  0  0  0
  184.3320  178.7500  142.8330 C   0  0  0  0  0  0  0  0  0  0  0  0
  187.8800  178.7450  139.1210 C   0  0  1  0  0  3  0  0  0  0  0  0
  188.9350  175.9780  142.8020 C   0  0  0  0  0  2  0  0  0  0  0  0
  191.1500  176.3420  143.8400 C   0  0  0  0  0  1  0  0  0  0  0  0
  190.2660  175.3350  143.1360 C   0  0  0  0  0  2  0  0  0  0  0  0
  1  5  1  0  0  0  0
  1 19  1  0  0  0  0
  2 13  1  0  0  0  0
  2 16  1  0  0  0  0
  3 17  1  0  0  0  0
  4  1  2  0  0  0  0
  6  8  2  0  0  0  0
  7 15  1  6  0  0  0
  7  9  1  0  0  0  0
  7 27  1  0  0  0  0
  8 11  1  0  0  0  0
  9 14  1  6  0  0  0
  9 22  1  0  0  0  0
 10 21  1  1  0  0  0
 10  3  1  0  0  0  0
 11 28  1  6  0  0  0
 11  5  1  0  0  0  0
 12  8  1  0  0  0  0
 12  4  1  0  0  0  0
 17 26  1  0  0  0  0
 18 13  2  0  0  0  0
 19  2  2  0  0  0  0
 20  4  1  0  0  0  0
 20 17  2  0  0  0  0
 22 10  1  0  0  0  0
 22 20  1  1  0  0  0
 23 15  1  0  0  0  0
 23 14  1  0  0  0  0
 25 18  1  0  0  0  0
 26 19  1  0  0  0  0
 26 25  2  0  0  0  0
 27 24  1  6  0  0  0
 27 12  1  0  0  0  0
 28 30  1  0  0  0  0
 30 29  1  0  0  0  0
M  END
>  <MODEL>
2

>  <REMARK>
 VINA RESULT:      -8.4      2.285      6.965
  Name = 
  2 active torsions:
  status: ('A' for Active; 'I' for Inactive)
    1  A    between atoms: C_11  and  C_28
    2  A    between atoms: C_28  and  C_30
                            x       y       z     vdW  Elec       q    Type
                         _______ _______ _______ _____ _____    ______ ____

>  <TORSDO>
F 2

$$$$
=
 OpenBabel11122410323D

 30 35  0  0  1  0  0  0  0  0999 V2000
  187.9300  178.2410  140.6610 C   0  0  0  0  0  0  0  0  0  0  0  0
  185.6280  179.1200  140.9950 C   0  0  0  0  0  0  0  0  0  0  0  0
  187.1040  177.2760  136.7060 O   0  0  0  0  0  0  0  0  0  0  0  0
  188.9070  177.7070  139.7910 C   0  0  0  0  0  0  0  0  0  0  0  0
  188.2850  178.4480  142.0310 N   0  0  0  0  0  2  0  0  0  0  0  0
  191.6150  177.1300  142.1570 O   0  0  0  0  0  0  0  0  0  0  0  0
  191.3450  175.9070  138.7470 C   0  0  1  0  0  3  0  0  0  0  0  0
  190.4840  177.4450  141.6980 C   0  0  0  0  0  0  0  0  0  0  0  0
  190.1920  175.5950  137.7690 C   0  0  2  0  0  3  0  0  0  0  0  0
  188.2650  176.5930  136.2410 C   0  0  2  0  0  3  0  0  0  0  0  0
  189.3640  177.6950  142.6650 C   0  0  2  0  0  3  0  0  0  0  0  0
  190.2510  177.5020  140.2700 N   0  0  0  0  0  0  0  0  0  0  0  0
  184.3940  179.3780  140.4800 N   0  0  0  0  0  0  0  0  0  0  0  0
  190.8800  174.9930  136.5620 C   0  0  0  0  0  2  0  0  0  0  0  0
  192.6050  175.6250  138.0690 N   0  0  0  0  0  2  0  0  0  0  0  0
  185.8630  179.4300  142.2950 F   0  0  0  0  0  0  0  0  0  0  0  0
  187.2680  177.6670  138.0190 C   0  0  0  0  0  0  0  0  0  0  0  0
  184.0770  179.0980  139.1890 C   0  0  0  0  0  3  0  0  0  0  0  0
  186.6280  178.5480  140.1810 C   0  0  0  0  0  0  0  0  0  0  0  0
  188.5280  177.3970  138.4720 C   0  0  0  0  0  0  0  0  0  0  0  0
  187.8950  175.1300  136.0270 C   0  0  0  0  0  1  0  0  0  0  0  0
  189.3400  176.8210  137.3530 C   0  0  1  0  0  3  0  0  0  0  0  0
  192.2790  174.6760  137.0210 C   0  0  0  0  0  2  0  0  0  0  0  0
  192.5740  177.7100  139.8130 O   0  0  0  0  0  1  0  0  0  0  0  0
  185.0230  178.5280  138.3420 C   0  0  0  0  0  3  0  0  0  0  0  0
  186.3000  178.2530  138.8330 C   0  0  0  0  0  0  0  0  0  0  0  0
  191.3320  177.3370  139.2890 C   0  0  1  0  0  3  0  0  0  0  0  0
  188.8330  176.3640  143.1780 C   0  0  0  0  0  2  0  0  0  0  0  0
  187.8820  177.2840  145.2680 C   0  0  0  0  0  1  0  0  0  0  0  0
  187.5580  176.5740  143.9710 C   0  0  0  0  0  2  0  0  0  0  0  0
  1  5  1  0  0  0  0
  2 16  1  0  0  0  0
  3 17  1  0  0  0  0
  4 12  1  0  0  0  0
  4  1  2  0  0  0  0
  5 11  1  0  0  0  0
  7 15  1  6  0  0  0
  7 27  1  0  0  0  0
  8  6  2  0  0  0  0
  8 11  1  0  0  0  0
  9 14  1  6  0  0  0
  9  7  1  0  0  0  0
 10 21  1  1  0  0  0
 10  3  1  0  0  0  0
 10 22  1  0  0  0  0
 11 28  1  6  0  0  0
 12  8  1  0  0  0  0
 13  2  1  0  0  0  0
 14 23  1  0  0  0  0
 17 20  2  0  0  0  0
 17 26  1  0  0  0  0
 18 13  2  0  0  0  0
 19  1  1  0  0  0  0
 19  2  2  0  0  0  0
 20  4  1  0  0  0  0
 22  9  1  0  0  0  0
 22 20  1  1  0  0  0
 23 15  1  0  0  0  0
 25 26  2  0  0  0  0
 25 18  1  0  0  0  0
 26 19  1  0  0  0  0
 27 24  1  1  0  0  0
 27 12  1  0  0  0  0
 28 30  1  0  0  0  0
 30 29  1  0  0  0  0
M  END
>  <MODEL>
3

>  <REMARK>
 VINA RESULT:      -8.1      2.996      6.802
  Name = 
  2 active torsions:
  status: ('A' for Active; 'I' for Inactive)
    1  A    between atoms: C_11  and  C_28
    2  A    between atoms: C_28  and  C_30
                            x       y       z     vdW  Elec       q    Type
                         _______ _______ _______ _____ _____    ______ ____

>  <TORSDO>
F 2

$$$$
=
 OpenBabel11122410323D

 30 35  0  0  1  0  0  0  0  0999 V2000
  188.0540  177.7690  138.4190 C   0  0  0  0  0  0  0  0  0  0  0  0
  189.6010  177.1810  136.5620 C   0  0  0  0  0  0  0  0  0  0  0  0
  190.9160  176.7780  141.2610 O   0  0  0  0  0  0  0  0  0  0  0  0
  187.8360  177.9360  139.8040 C   0  0  0  0  0  0  0  0  0  0  0  0
  186.9720  178.0460  137.5250 N   0  0  0  0  0  2  0  0  0  0  0  0
  184.3020  178.8170  139.7860 O   0  0  0  0  0  0  0  0  0  0  0  0
  186.3460  177.8880  142.6420 C   0  0  1  0  0  3  0  0  0  0  0  0
  185.4440  178.4740  139.3780 C   0  0  0  0  0  0  0  0  0  0  0  0
  187.6230  177.0510  142.8660 C   0  0  2  0  0  3  0  0  0  0  0  0
  190.2500  176.8970  142.5150 C   0  0  2  0  0  3  0  0  0  0  0  0
  185.5810  177.9860  137.9650 C   0  0  2  0  0  3  0  0  0  0  0  0
  186.5870  178.4870  140.2670 N   0  0  0  0  0  0  0  0  0  0  0  0
  190.8240  176.7370  136.1630 N   0  0  0  0  0  0  0  0  0  0  0  0
  187.7910  177.0220  144.3700 C   0  0  0  0  0  2  0  0  0  0  0  0
  185.9120  178.4080  143.9340 N   0  0  0  0  0  2  0  0  0  0  0  0
  188.6800  177.4800  135.6110 F   0  0  0  0  0  0  0  0  0  0  0  0
  190.0620  177.1040  140.2280 C   0  0  0  0  0  0  0  0  0  0  0  0
  191.8020  176.4160  137.0500 C   0  0  0  0  0  3  0  0  0  0  0  0
  189.3150  177.3250  137.9360 C   0  0  0  0  0  0  0  0  0  0  0  0
  188.8590  177.5570  140.6910 C   0  0  0  0  0  0  0  0  0  0  0  0
  190.0850  175.4970  143.0940 C   0  0  0  0  0  1  0  0  0  0  0  0
  188.8990  177.6120  142.1890 C   0  0  1  0  0  3  0  0  0  0  0  0
  186.4800  177.5130  144.9240 C   0  0  0  0  0  2  0  0  0  0  0  0
  185.5150  179.9930  141.7610 O   0  0  0  0  0  1  0  0  0  0  0  0
  191.5730  176.5330  138.4190 C   0  0  0  0  0  3  0  0  0  0  0  0
  190.3330  176.9890  138.8660 C   0  0  0  0  0  0  0  0  0  0  0  0
  186.5150  179.0230  141.6320 C   0  0  1  0  0  3  0  0  0  0  0  0
  185.0700  176.5560  137.8720 C   0  0  0  0  0  2  0  0  0  0  0  0
  186.3780  174.6210  137.0560 C   0  0  0  0  0  1  0  0  0  0  0  0
  185.6340  175.8720  136.6420 C   0  0  0  0  0  2  0  0  0  0  0  0
  1  4  1  0  0  0  0
  2 19  1  0  0  0  0
  3 10  1  0  0  0  0
  4 12  1  0  0  0  0
  4 20  2  0  0  0  0
  5 11  1  0  0  0  0
  5  1  1  0  0  0  0
  7  9  1  0  0  0  0
  7 15  1  1  0  0  0
  8  6  2  0  0  0  0
  8 12  1  0  0  0  0
  9 14  1  1  0  0  0
 10 21  1  6  0  0  0
 11 28  1  1  0  0  0
 11  8  1  0  0  0  0
 12 27  1  0  0  0  0
 13  2  2  0  0  0  0
 13 18  1  0  0  0  0
 14 23  1  0  0  0  0
 15 23  1  0  0  0  0
 16  2  1  0  0  0  0
 17 20  1  0  0  0  0
 17  3  1  0  0  0  0
 18 25  2  0  0  0  0
 19  1  2  0  0  0  0
 19 26  1  0  0  0  0
 22 20  1  6  0  0  0
 22 10  1  0  0  0  0
 22  9  1  0  0  0  0
 25 26  1  0  0  0  0
 26 17  2  0  0  0  0
 27 24  1  6  0  0  0
 27  7  1  0  0  0  0
 30 29  1  0  0  0  0
 30 28  1  0  0  0  0
M  END
>  <MODEL>
4

>  <REMARK>
 VINA RESULT:      -8.0      1.905      2.508
  Name = 
  2 active torsions:
  status: ('A' for Active; 'I' for Inactive)
    1  A    between atoms: C_11  and  C_28
    2  A    between atoms: C_28  and  C_30
                            x       y       z     vdW  Elec       q    Type
                         _______ _______ _______ _____ _____    ______ ____

>  <TORSDO>
F 2

$$$$
=
 OpenBabel11122410323D

 30 35  0  0  1  0  0  0  0  0999 V2000
  186.6720  177.6390  142.7210 C   0  0  0  0  0  0  0  0  0  0  0  0
  184.3710  178.5370  142.4310 C   0  0  0  0  0  0  0  0  0  0  0  0
  186.4150  178.0090  146.8500 O   0  0  0  0  0  0  0  0  0  0  0  0
  187.7060  177.2160  143.5860 C   0  0  0  0  0  0  0  0  0  0  0  0
  186.8960  177.5600  141.3110 N   0  0  0  0  0  2  0  0  0  0  0  0
  190.2910  176.4280  141.1450 O   0  0  0  0  0  0  0  0  0  0  0  0
  190.6590  176.7530  144.7450 C   0  0  1  0  0  3  0  0  0  0  0  0
  189.1980  176.8190  141.6340 C   0  0  0  0  0  0  0  0  0  0  0  0
  189.9180  177.5050  145.8710 C   0  0  2  0  0  3  0  0  0  0  0  0
  187.7100  177.6670  147.3350 C   0  0  2  0  0  3  0  0  0  0  0  0
  188.2440  177.5640  140.7470 C   0  0  2  0  0  3  0  0  0  0  0  0
  188.8930  176.6130  143.0350 N   0  0  0  0  0  0  0  0  0  0  0  0
  183.2320  179.0230  142.9970 N   0  0  0  0  0  0  0  0  0  0  0  0
  190.7540  177.2440  147.1060 C   0  0  0  0  0  2  0  0  0  0  0  0
  191.7580  176.0060  145.3440 N   0  0  0  0  0  2  0  0  0  0  0  0
  184.4330  178.4440  141.0790 F   0  0  0  0  0  0  0  0  0  0  0  0
  186.3700  177.9050  145.4750 C   0  0  0  0  0  0  0  0  0  0  0  0
  183.0890  179.1490  144.3420 C   0  0  0  0  0  3  0  0  0  0  0  0
  185.4520  178.1400  143.2480 C   0  0  0  0  0  0  0  0  0  0  0  0
  187.5330  177.3970  144.9700 C   0  0  0  0  0  0  0  0  0  0  0  0
  188.3560  178.9350  147.8810 C   0  0  0  0  0  1  0  0  0  0  0  0
  188.4540  177.0560  146.1030 C   0  0  1  0  0  3  0  0  0  0  0  0
  192.0550  176.6830  146.5920 C   0  0  0  0  0  2  0  0  0  0  0  0
  190.5020  174.8730  143.2160 O   0  0  0  0  0  1  0  0  0  0  0  0
  184.1240  178.7780  145.1950 C   0  0  0  0  0  3  0  0  0  0  0  0
  185.3060  178.2720  144.6530 C   0  0  0  0  0  0  0  0  0  0  0  0
  189.7620  175.8280  143.9210 C   0  0  1  0  0  3  0  0  0  0  0  0
  188.7270  178.9970  140.5740 C   0  0  0  0  0  2  0  0  0  0  0  0
  188.5190  178.1470  138.2610 C   0  0  0  0  0  1  0  0  0  0  0  0
  189.0560  179.2720  139.1200 C   0  0  0  0  0  2  0  0  0  0  0  0
  1 19  2  0  0  0  0
  1  4  1  0  0  0  0
  2 13  2  0  0  0  0
  2 19  1  0  0  0  0
  3 10  1  0  0  0  0
  4 20  2  0  0  0  0
  5  1  1  0  0  0  0
  6  8  2  0  0  0  0
  7 15  1  1  0  0  0
  7  9  1  0  0  0  0
  8 12  1  0  0  0  0
  9 22  1  0  0  0  0
  9 14  1  1  0  0  0
 10 21  1  6  0  0  0
 11 28  1  1  0  0  0
 11  5  1  0  0  0  0
 11  8  1  0  0  0  0
 12  4  1  0  0  0  0
 12 27  1  0  0  0  0
 13 18  1  0  0  0  0
 15 23  1  0  0  0  0
 16  2  1  0  0  0  0
 17  3  1  0  0  0  0
 18 25  2  0  0  0  0
 19 26  1  0  0  0  0
 20 17  1  0  0  0  0
 22 20  1  6  0  0  0
 22 10  1  0  0  0  0
 23 14  1  0  0  0  0
 26 25  1  0  0  0  0
 26 17  2  0  0  0  0
 27 24  1  6  0  0  0
 27  7  1  0  0  0  0
 29 30  1  0  0  0  0
 30 28  1  0  0  0  0
M  END
>  <MODEL>
5

>  <REMARK>
 VINA RESULT:      -7.8      2.790      5.796
  Name = 
  2 active torsions:
  status: ('A' for Active; 'I' for Inactive)
    1  A    between atoms: C_11  and  C_28
    2  A    between atoms: C_28  and  C_30
                            x       y       z     vdW  Elec       q    Type
                         _______ _______ _______ _____ _____    ______ ____

>  <TORSDO>
F 2

$$$$
=
 OpenBabel11122410323D

 30 35  0  0  1  0  0  0  0  0999 V2000
  186.1190  177.8280  137.8310 C   0  0  0  0  0  0  0  0  0  0  0  0
  188.4770  177.3480  137.2020 C   0  0  0  0  0  0  0  0  0  0  0  0
  187.2430  178.8460  141.6980 O   0  0  0  0  0  0  0  0  0  0  0  0
  185.1940  178.2950  138.7910 C   0  0  0  0  0  0  0  0  0  0  0  0
  185.6190  177.4100  136.5580 N   0  0  0  0  0  2  0  0  0  0  0  0
  182.0780  177.7500  136.9860 O   0  0  0  0  0  0  0  0  0  0  0  0
  182.4990  178.5200  140.5120 C   0  0  1  0  0  3  0  0  0  0  0  0
  183.3080  177.7540  137.2600 C   0  0  0  0  0  0  0  0  0  0  0  0
  183.6100  178.3230  141.5640 C   0  0  2  0  0  3  0  0  0  0  0  0
  186.0200  179.0660  142.3940 C   0  0  2  0  0  3  0  0  0  0  0  0
  184.2380  176.9660  136.3850 C   0  0  2  0  0  3  0  0  0  0  0  0
  183.8080  178.4500  138.4280 N   0  0  0  0  0  0  0  0  0  0  0  0
  189.7890  177.2970  137.5600 N   0  0  0  0  0  0  0  0  0  0  0  0
  182.9850  178.7970  142.8600 C   0  0  0  0  0  2  0  0  0  0  0  0
  181.3760  179.1910  141.1560 N   0  0  0  0  0  2  0  0  0  0  0  0
  188.1380  176.9930  135.9370 F   0  0  0  0  0  0  0  0  0  0  0  0
  186.9970  178.5150  140.3820 C   0  0  0  0  0  0  0  0  0  0  0  0
  190.2130  177.6360  138.8060 C   0  0  0  0  0  3  0  0  0  0  0  0
  187.5050  177.7670  138.1360 C   0  0  0  0  0  0  0  0  0  0  0  0
  185.6670  178.6000  140.0800 C   0  0  0  0  0  0  0  0  0  0  0  0
  185.8450  177.9380  143.4040 C   0  0  0  0  0  1  0  0  0  0  0  0
  184.9220  179.0980  141.2810 C   0  0  1  0  0  3  0  0  0  0  0  0
  181.5100  178.9020  142.5710 C   0  0  0  0  0  2  0  0  0  0  0  0
  181.8630  179.8100  138.5540 O   0  0  0  0  0  1  0  0  0  0  0  0
  189.2980  178.0510  139.7690 C   0  0  0  0  0  3  0  0  0  0  0  0
  187.9440  178.1190  139.4380 C   0  0  0  0  0  0  0  0  0  0  0  0
  182.9480  179.2920  139.2700 C   0  0  1  0  0  3  0  0  0  0  0  0
  184.1240  175.4880  136.7280 C   0  0  0  0  0  2  0  0  0  0  0  0
  186.0120  173.9750  137.2400 C   0  0  0  0  0  1  0  0  0  0  0  0
  185.2880  174.7170  136.1370 C   0  0  0  0  0  2  0  0  0  0  0  0
  1 19  2  0  0  0  0
  1  4  1  0  0  0  0
  2 13  2  0  0  0  0
  2 19  1  0  0  0  0
  3 10  1  0  0  0  0
  4 20  2  0  0  0  0
  5  1  1  0  0  0  0
  6  8  2  0  0  0  0
  7 15  1  1  0  0  0
  7  9  1  0  0  0  0
  8 12  1  0  0  0  0
  9 14  1  1  0  0  0
 10 21  1  1  0  0  0
 11  5  1  0  0  0  0
 11 28  1  1  0  0  0
 11  8  1  0  0  0  0
 12  4  1  0  0  0  0
 12 27  1  0  0  0  0
 13 18  1  0  0  0  0
 15 23  1  0  0  0  0
 16  2  1  0  0  0  0
 17  3  1  0  0  0  0
 18 25  2  0  0  0  0
 19 26  1  0  0  0  0
 20 17  1  0  0  0  0
 22 20  1  6  0  0  0
 22  9  1  0  0  0  0
 22 10  1  0  0  0  0
 23 14  1  0  0  0  0
 26 25  1  0  0  0  0
 26 17  2  0  0  0  0
 27 24  1  6  0  0  0
 27  7  1  0  0  0  0
 30 28  1  0  0  0  0
 30 29  1  0  0  0  0
M  END
>  <MODEL>
6

>  <REMARK>
 VINA RESULT:      -7.1      2.384      3.677
  Name = 
  2 active torsions:
  status: ('A' for Active; 'I' for Inactive)
    1  A    between atoms: C_11  and  C_28
    2  A    between atoms: C_28  and  C_30
                            x       y       z     vdW  Elec       q    Type
                         _______ _______ _______ _____ _____    ______ ____

>  <TORSDO>
F 2

$$$$
=
 OpenBabel11122410323D

 30 35  0  0  1  0  0  0  0  0999 V2000
  188.7380  177.4640  138.9690 C   0  0  0  0  0  0  0  0  0  0  0  0
  186.3600  178.1910  138.9160 C   0  0  0  0  0  0  0  0  0  0  0  0
  188.3000  175.3990  135.3920 O   0  0  0  0  0  0  0  0  0  0  0  0
  189.8160  176.8050  138.3370 C   0  0  0  0  0  0  0  0  0  0  0  0
  188.9680  178.0630  140.2470 N   0  0  0  0  0  2  0  0  0  0  0  0
  192.3610  177.1320  140.9220 O   0  0  0  0  0  0  0  0  0  0  0  0
  192.4510  175.0160  137.9700 C   0  0  1  0  0  3  0  0  0  0  0  0
  191.2510  177.2080  140.3300 C   0  0  0  0  0  0  0  0  0  0  0  0
  191.4040  174.3510  137.0520 C   0  0  2  0  0  3  0  0  0  0  0  0
  189.5390  174.7230  135.1990 C   0  0  2  0  0  3  0  0  0  0  0  0
  190.0430  177.6080  141.1250 C   0  0  2  0  0  3  0  0  0  0  0  0
  191.1290  176.8580  138.9300 N   0  0  0  0  0  0  0  0  0  0  0  0
  185.1570  178.1880  138.2800 N   0  0  0  0  0  0  0  0  0  0  0  0
  192.2270  173.5100  136.0970 C   0  0  0  0  0  2  0  0  0  0  0  0
  193.7770  174.6760  137.4690 N   0  0  0  0  0  2  0  0  0  0  0  0
  186.4680  178.8590  140.0920 F   0  0  0  0  0  0  0  0  0  0  0  0
  188.3300  176.1420  136.5530 C   0  0  0  0  0  0  0  0  0  0  0  0
  184.9640  177.5440  137.0990 C   0  0  0  0  0  3  0  0  0  0  0  0
  187.4600  177.5120  138.3500 C   0  0  0  0  0  0  0  0  0  0  0  0
  189.5660  176.1190  137.1350 C   0  0  0  0  0  0  0  0  0  0  0  0
  189.2920  173.2300  135.3760 C   0  0  0  0  0  1  0  0  0  0  0  0
  190.5040  175.3370  136.2660 C   0  0  1  0  0  3  0  0  0  0  0  0
  193.6040  173.4550  136.7060 C   0  0  0  0  0  2  0  0  0  0  0  0
  193.4600  177.1430  138.5680 O   0  0  0  0  0  1  0  0  0  0  0  0
  186.0120  176.8530  136.4980 C   0  0  0  0  0  3  0  0  0  0  0  0
  187.2620  176.8360  137.1180 C   0  0  0  0  0  0  0  0  0  0  0  0
  192.2930  176.5320  138.0960 C   0  0  1  0  0  3  0  0  0  0  0  0
  189.5680  176.4230  141.9530 C   0  0  0  0  0  2  0  0  0  0  0  0
  188.2460  176.7550  144.0170 C   0  0  0  0  0  1  0  0  0  0  0  0
  189.6420  176.7480  143.4320 C   0  0  0  0  0  2  0  0  0  0  0  0
  1  5  1  0  0  0  0
  2 16  1  0  0  0  0
  3 17  1  0  0  0  0
  4 12  1  0  0  0  0
  4  1  2  0  0  0  0
  5 11  1  0  0  0  0
  7 15  1  6  0  0  0
  7 27  1  0  0  0  0
  8  6  2  0  0  0  0
  8 11  1  0  0  0  0
  9 14  1  6  0  0  0
  9  7  1  0  0  0  0
 10 21  1  1  0  0  0
 10  3  1  0  0  0  0
 10 22  1  0  0  0  0
 11 28  1  6  0  0  0
 12  8  1  0  0  0  0
 13  2  2  0  0  0  0
 14 23  1  0  0  0  0
 17 26  1  0  0  0  0
 17 20  2  0  0  0  0
 18 13  1  0  0  0  0
 19  2  1  0  0  0  0
 19  1  1  0  0  0  0
 20  4  1  0  0  0  0
 22  9  1  0  0  0  0
 22 20  1  1  0  0  0
 23 15  1  0  0  0  0
 25 18  2  0  0  0  0
 25 26  1  0  0  0  0
 26 19  2  0  0  0  0
 27 24  1  1  0  0  0
 27 12  1  0  0  0  0
 28 30  1  0  0  0  0
 30 29  1  0  0  0  0
M  END
>  <MODEL>
7

>  <REMARK>
 VINA RESULT:      -6.8      3.632      7.578
  Name = 
  2 active torsions:
  status: ('A' for Active; 'I' for Inactive)
    1  A    between atoms: C_11  and  C_28
    2  A    between atoms: C_28  and  C_30
                            x       y       z     vdW  Elec       q    Type
                         _______ _______ _______ _____ _____    ______ ____

>  <TORSDO>
F 2

$$$$
=
 OpenBabel11122410323D

 30 35  0  0  1  0  0  0  0  0999 V2000
  184.5060  178.7200  139.3910 C   0  0  0  0  0  0  0  0  0  0  0  0
  182.0530  179.1300  139.3230 C   0  0  0  0  0  0  0  0  0  0  0  0
  184.3450  176.5190  135.8720 O   0  0  0  0  0  0  0  0  0  0  0  0
  185.6610  178.1900  138.7750 C   0  0  0  0  0  0  0  0  0  0  0  0
  184.6530  179.3790  140.6520 N   0  0  0  0  0  2  0  0  0  0  0  0
  188.1370  178.9150  141.3450 O   0  0  0  0  0  0  0  0  0  0  0  0
  188.5060  176.7480  138.4520 C   0  0  1  0  0  3  0  0  0  0  0  0
  187.0280  178.8300  140.7540 C   0  0  0  0  0  0  0  0  0  0  0  0
  187.5560  175.9280  137.5540 C   0  0  2  0  0  3  0  0  0  0  0  0
  185.6610  176.0050  135.6960 C   0  0  2  0  0  3  0  0  0  0  0  0
  185.7760  179.0910  141.5400 C   0  0  2  0  0  3  0  0  0  0  0  0
  186.9540  178.4290  139.3640 N   0  0  0  0  0  0  0  0  0  0  0  0
  180.8610  178.9540  138.6890 N   0  0  0  0  0  0  0  0  0  0  0  0
  188.4820  175.1750  136.6220 C   0  0  0  0  0  2  0  0  0  0  0  0
  189.8660  176.5700  137.9580 N   0  0  0  0  0  2  0  0  0  0  0  0
  182.0720  179.8390  140.4800 F   0  0  0  0  0  0  0  0  0  0  0  0
  184.2760  177.2910  137.0130 C   0  0  0  0  0  0  0  0  0  0  0  0
  180.7550  178.2580  137.5270 C   0  0  0  0  0  3  0  0  0  0  0  0
  183.2330  178.5850  138.7730 C   0  0  0  0  0  0  0  0  0  0  0  0
  185.5040  177.4440  137.5930 C   0  0  0  0  0  0  0  0  0  0  0  0
  185.6090  174.4970  135.9140 C   0  0  0  0  0  1  0  0  0  0  0  0
  186.5370  176.7670  136.7430 C   0  0  1  0  0  3  0  0  0  0  0  0
  189.8540  175.3160  137.2290 C   0  0  0  0  0  2  0  0  0  0  0  0
  189.2300  179.0030  138.9900 O   0  0  0  0  0  1  0  0  0  0  0  0
  181.8860  177.6940  136.9430 C   0  0  0  0  0  3  0  0  0  0  0  0
  183.1260  177.8560  137.5610 C   0  0  0  0  0  0  0  0  0  0  0  0
  188.1530  178.2340  138.5380 C   0  0  1  0  0  3  0  0  0  0  0  0
  185.4580  177.8780  142.4010 C   0  0  0  0  0  2  0  0  0  0  0  0
  186.7450  177.5040  144.4800 C   0  0  0  0  0  1  0  0  0  0  0  0
  185.5650  178.2300  143.8720 C   0  0  0  0  0  2  0  0  0  0  0  0
  1  5  1  0  0  0  0
  2 16  1  0  0  0  0
  3 17  1  0  0  0  0
  4 12  1  0  0  0  0
  4  1  1  0  0  0  0
  5 11  1  0  0  0  0
  7 15  1  6  0  0  0
  7 27  1  0  0  0  0
  8  6  2  0  0  0  0
  8 11  1  0  0  0  0
  9 14  1  6  0  0  0
  9  7  1  0  0  0  0
 10  3  1  0  0  0  0
 10 21  1  1  0  0  0
 10 22  1  0  0  0  0
 11 28  1  6  0  0  0
 12  8  1  0  0  0  0
 13  2  2  0  0  0  0
 14 23  1  0  0  0  0
 17 26  2  0  0  0  0
 17 20  1  0  0  0  0
 18 13  1  0  0  0  0
 19  2  1  0  0  0  0
 19  1  2  0  0  0  0
 20  4  2  0  0  0  0
 22  9  1  0  0  0  0
 22 20  1  1  0  0  0
 23 15  1  0  0  0  0
 25 18  2  0  0  0  0
 25 26  1  0  0  0  0
 26 19  1  0  0  0  0
 27 24  1  1  0  0  0
 27 12  1  0  0  0  0
 28 30  1  0  0  0  0
 30 29  1  0  0  0  0
M  END
>  <MODEL>
8

>  <REMARK>
 VINA RESULT:      -6.7      2.573      6.395
  Name = 
  2 active torsions:
  status: ('A' for Active; 'I' for Inactive)
    1  A    between atoms: C_11  and  C_28
    2  A    between atoms: C_28  and  C_30
                            x       y       z     vdW  Elec       q    Type
                         _______ _______ _______ _____ _____    ______ ____

>  <TORSDO>
F 2

$$$$
=
 OpenBabel11122410323D

 30 35  0  0  1  0  0  0  0  0999 V2000
  184.5610  177.5580  137.5210 C   0  0  0  0  0  0  0  0  0  0  0  0
  186.4830  177.0650  136.0210 C   0  0  0  0  0  0  0  0  0  0  0  0
  187.1060  178.8750  140.5280 O   0  0  0  0  0  0  0  0  0  0  0  0
  184.0840  178.0820  138.7430 C   0  0  0  0  0  0  0  0  0  0  0  0
  183.6080  177.0390  136.5890 N   0  0  0  0  0  2  0  0  0  0  0  0
  180.5300  177.3610  138.3950 O   0  0  0  0  0  0  0  0  0  0  0  0
  182.3050  178.3970  141.3920 C   0  0  1  0  0  3  0  0  0  0  0  0
  181.7650  177.4030  138.1460 C   0  0  0  0  0  0  0  0  0  0  0  0
  183.7540  178.2950  141.9130 C   0  0  2  0  0  3  0  0  0  0  0  0
  186.2600  179.1300  141.6450 C   0  0  2  0  0  3  0  0  0  0  0  0
  182.2950  176.5650  137.0200 C   0  0  2  0  0  3  0  0  0  0  0  0
  182.6630  178.1900  138.9650 N   0  0  0  0  0  0  0  0  0  0  0  0
  187.8290  177.0590  135.8180 N   0  0  0  0  0  0  0  0  0  0  0  0
  183.6850  178.8540  143.3180 C   0  0  0  0  0  2  0  0  0  0  0  0
  181.5110  179.0990  142.3930 N   0  0  0  0  0  2  0  0  0  0  0  0
  185.6770  176.6120  135.0270 F   0  0  0  0  0  0  0  0  0  0  0  0
  186.3640  178.4440  139.4480 C   0  0  0  0  0  0  0  0  0  0  0  0
  188.7040  177.4950  136.7610 C   0  0  0  0  0  3  0  0  0  0  0  0
  185.9540  177.5380  137.2410 C   0  0  0  0  0  0  0  0  0  0  0  0
  185.0230  178.4890  139.7070 C   0  0  0  0  0  0  0  0  0  0  0  0
  186.5560  178.0780  142.7070 C   0  0  0  0  0  1  0  0  0  0  0  0
  184.8060  179.0640  141.0740 C   0  0  1  0  0  3  0  0  0  0  0  0
  182.2170  178.9170  143.6470 C   0  0  0  0  0  2  0  0  0  0  0  0
  180.8790  179.5290  139.7840 O   0  0  0  0  0  1  0  0  0  0  0  0
  188.2390  177.9680  137.9850 C   0  0  0  0  0  3  0  0  0  0  0  0
  186.8650  177.9930  138.2280 C   0  0  0  0  0  0  0  0  0  0  0  0
  182.1810  179.0800  140.0290 C   0  0  1  0  0  3  0  0  0  0  0  0
  182.3920  175.1150  137.4710 C   0  0  0  0  0  2  0  0  0  0  0  0
  184.2030  173.4350  137.3320 C   0  0  0  0  0  1  0  0  0  0  0  0
  183.2800  174.3260  136.5280 C   0  0  0  0  0  2  0  0  0  0  0  0
  1  4  1  0  0  0  0
  2 19  1  0  0  0  0
  3 10  1  0  0  0  0
  4 12  1  0  0  0  0
  4 20  2  0  0  0  0
  5 11  1  0  0  0  0
  5  1  1  0  0  0  0
  7  9  1  0  0  0  0
  7 15  1  1  0  0  0
  8  6  2  0  0  0  0
  8 12  1  0  0  0  0
  9 14  1  1  0  0  0
 10 21  1  1  0  0  0
 11 28  1  1  0  0  0
 11  8  1  0  0  0  0
 12 27  1  0  0  0  0
 13  2  2  0  0  0  0
 13 18  1  0  0  0  0
 14 23  1  0  0  0  0
 15 23  1  0  0  0  0
 16  2  1  0  0  0  0
 17 20  1  0  0  0  0
 17  3  1  0  0  0  0
 18 25  2  0  0  0  0
 19  1  2  0  0  0  0
 19 26  1  0  0  0  0
 22 20  1  6  0  0  0
 22 10  1  0  0  0  0
 22  9  1  0  0  0  0
 25 26  1  0  0  0  0
 26 17  2  0  0  0  0
 27 24  1  6  0  0  0
 27  7  1  0  0  0  0
 30 29  1  0  0  0  0
 30 28  1  0  0  0  0
M  END
>  <MODEL>
9

>  <REMARK>
 VINA RESULT:      -6.7      2.335      3.394
  Name = 
  2 active torsions:
  status: ('A' for Active; 'I' for Inactive)
    1  A    between atoms: C_11  and  C_28
    2  A    between atoms: C_28  and  C_30
                            x       y       z     vdW  Elec       q    Type
                         _______ _______ _______ _____ _____    ______ ____

>  <TORSDO>
F 2

$$$$
