=
 OpenBabel11122411473D

 37 42  0  0  1  0  0  0  0  0999 V2000
  188.8470  178.9410  137.6660 C   0  0  0  0  0  0  0  0  0  0  0  0
  189.9220  176.6970  140.5710 C   0  0  1  0  0  3  0  0  0  0  0  0
  188.2430  176.1330  143.1940 C   0  0  0  0  0  2  0  0  0  0  0  0
  189.8910  176.7450  138.0040 N   0  0  2  0  0  0  0  0  0  0  0  0
  189.0900  177.6100  141.4780 C   0  0  2  0  0  3  0  0  0  0  0  0
  189.1160  176.6330  139.2570 C   0  0  2  0  0  3  0  0  0  0  0  0
  189.1270  177.2640  142.9160 N   0  0  2  0  0  0  0  0  0  0  0  0
  191.1650  176.0330  138.1200 C   0  0  0  0  0  2  0  0  0  0  0  0
  187.9610  177.6410  139.3630 C   0  0  2  0  0  3  0  0  0  0  0  0
  187.9000  178.4270  136.7900 F   0  0  0  0  0  0  0  0  0  0  0  0
  192.1850  177.1670  141.6240 C   0  0  0  0  0  2  0  0  0  0  0  0
  192.0750  176.5930  139.2260 C   0  0  0  0  0  2  0  0  0  0  0  0
  188.3700  178.9460  138.9900 O   0  0  0  0  0  0  0  0  0  0  0  0
  186.5850  177.9560  143.8700 C   0  0  0  0  0  2  0  0  0  0  0  0
  187.1360  176.5580  144.1600 C   0  0  0  0  0  2  0  0  0  0  0  0
  191.3250  177.2830  140.3680 C   0  0  1  0  0  3  0  0  0  0  0  0
  187.6890  177.6190  140.8600 C   0  0  2  0  0  3  0  0  0  0  0  0
  190.1350  178.1320  137.5980 C   0  0  0  0  0  2  0  0  0  0  0  0
  190.4770  176.9570  143.4290 C   0  0  1  0  0  3  0  0  0  0  0  0
  189.1300  180.2410  137.2920 F   0  0  0  0  0  0  0  0  0  0  0  0
  185.8770  178.0290  142.5250 C   0  0  0  0  0  2  0  0  0  0  0  0
  186.7500  178.6840  141.4550 C   0  0  2  0  0  3  0  0  0  0  0  0
  191.5650  177.8530  142.8310 C   0  0  0  0  0  2  0  0  0  0  0  0
  189.4940  177.9500  145.5990 C   0  0  0  0  0  2  0  0  0  0  0  0
  190.5130  177.0590  144.9290 C   0  0  0  0  0  0  0  0  0  0  0  0
  191.5180  176.4870  145.6220 C   0  0  0  0  0  3  0  0  0  0  0  0
  191.1540  175.3690  147.6810 O   0  0  0  0  0  1  0  0  0  0  0  0
  190.8390  177.7400  147.6920 C   0  0  0  0  0  2  0  0  0  0  0  0
  191.6230  176.5590  147.1240 C   0  0  2  0  0  3  0  0  0  0  0  0
  189.4310  177.7500  147.1110 C   0  0  0  0  0  2  0  0  0  0  0  0
  185.8210  179.3000  140.4060 C   0  0  0  0  0  2  0  0  0  0  0  0
  184.3840  178.7850  140.5110 C   0  0  1  0  0  3  0  0  0  0  0  0
  183.9700  180.3550  139.1050 O   0  0  0  0  0  1  0  0  0  0  0  0
  183.4720  179.7920  140.1860 O   0  0  0  0  0  0  0  0  0  0  0  0
  184.1490  177.5660  139.6260 C   0  0  0  0  0  2  0  0  0  0  0  0
  182.7330  177.0380  139.7830 C   0  0  0  0  0  2  0  0  0  0  0  0
  182.6750  175.7010  139.3920 O   0  0  0  0  0  1  0  0  0  0  0  0
  1 13  1  0  0  0  0
  2  5  1  0  0  0  0
  3 15  1  0  0  0  0
  4  8  1  0  0  0  0
  4  6  1  0  0  0  0
  5  7  1  0  0  0  0
  6  9  1  0  0  0  0
  6  2  1  0  0  0  0
  7  3  1  0  0  0  0
  7 19  1  0  0  0  0
  8 12  1  0  0  0  0
  9 17  1  0  0  0  0
 10  1  1  0  0  0  0
 11 23  1  0  0  0  0
 12 16  1  0  0  0  0
 13  9  1  0  0  0  0
 14 15  1  0  0  0  0
 16  2  1  0  0  0  0
 16 11  1  0  0  0  0
 17 22  1  0  0  0  0
 17  5  1  0  0  0  0
 18  1  1  0  0  0  0
 18  4  1  0  0  0  0
 19 25  1  0  0  0  0
 20  1  1  0  0  0  0
 21 14  1  0  0  0  0
 22 21  1  0  0  0  0
 23 19  1  0  0  0  0
 24 30  1  0  0  0  0
 25 24  1  0  0  0  0
 25 26  2  0  0  0  0
 26 29  1  0  0  0  0
 29 27  1  0  0  0  0
 29 28  1  0  0  0  0
 30 28  1  0  0  0  0
 31 32  1  0  0  0  0
 31 22  1  0  0  0  0
 33 34  1  0  0  0  0
 34 32  1  0  0  0  0
 35 36  1  0  0  0  0
 35 32  1  0  0  0  0
 37 36  1  0  0  0  0
M  END
>  <MODEL>
1

>  <REMARK>
 VINA RESULT:      -7.9      0.000      0.000
  Name = 
  6 active torsions:
  status: ('A' for Active; 'I' for Inactive)
    1  A    between atoms: C_1  and  C_4
    2  A    between atoms: C_1  and  C_27
    3  A    between atoms: C_4  and  C_12
    4  A    between atoms: C_4  and  O_37
    5  A    between atoms: C_8  and  C_12
    6  A    between atoms: C_23  and  C_30
                            x       y       z     vdW  Elec       q    Type
                         _______ _______ _______ _____ _____    ______ ____

>  <TORSDO>
F 6

$$$$
=
 OpenBabel11122411473D

 37 42  0  0  1  0  0  0  0  0999 V2000
  186.6540  176.9480  137.8640 C   0  0  0  0  0  0  0  0  0  0  0  0
  187.1010  178.5710  141.2990 C   0  0  1  0  0  3  0  0  0  0  0  0
  189.8490  178.9500  142.8240 C   0  0  0  0  0  2  0  0  0  0  0  0
  185.8400  178.9130  139.0880 N   0  0  2  0  0  0  0  0  0  0  0  0
  188.3100  177.6490  141.4870 C   0  0  2  0  0  3  0  0  0  0  0  0
  187.1350  178.9360  139.8000 C   0  0  2  0  0  3  0  0  0  0  0  0
  188.9880  177.7680  142.7970 N   0  0  2  0  0  0  0  0  0  0  0  0
  184.7710  179.4280  139.9470 C   0  0  0  0  0  2  0  0  0  0  0  0
  188.2230  178.0830  139.1310 C   0  0  2  0  0  3  0  0  0  0  0  0
  187.0120  177.7060  136.7580 F   0  0  0  0  0  0  0  0  0  0  0  0
  185.6940  177.6580  143.2060 C   0  0  0  0  0  2  0  0  0  0  0  0
  184.5620  178.5940  141.2230 C   0  0  0  0  0  2  0  0  0  0  0  0
  187.7330  176.8070  138.7580 O   0  0  0  0  0  0  0  0  0  0  0  0
  191.6900  177.2780  142.2360 C   0  0  0  0  0  2  0  0  0  0  0  0
  191.3070  178.5340  143.0240 C   0  0  0  0  0  2  0  0  0  0  0  0
  185.8100  177.8440  141.6950 C   0  0  1  0  0  3  0  0  0  0  0  0
  189.2100  177.9150  140.2780 C   0  0  2  0  0  3  0  0  0  0  0  0
  185.4770  177.5830  138.5920 C   0  0  0  0  0  2  0  0  0  0  0  0
  188.0690  177.8160  143.9510 C   0  0  1  0  0  3  0  0  0  0  0  0
  186.2720  175.6930  137.4300 F   0  0  0  0  0  0  0  0  0  0  0  0
  191.6280  177.5010  140.7330 C   0  0  0  0  0  2  0  0  0  0  0  0
  190.3610  176.9060  140.1190 C   0  0  2  0  0  3  0  0  0  0  0  0
  186.8630  176.8850  143.7980 C   0  0  0  0  0  2  0  0  0  0  0  0
  190.1310  176.7890  145.1150 C   0  0  0  0  0  2  0  0  0  0  0  0
  188.7960  177.4860  145.2260 C   0  0  0  0  0  0  0  0  0  0  0  0
  188.1950  177.6780  146.4170 C   0  0  0  0  0  3  0  0  0  0  0  0
  189.3600  178.5330  148.2960 O   0  0  0  0  0  1  0  0  0  0  0  0
  189.9860  176.3420  147.5670 C   0  0  0  0  0  2  0  0  0  0  0  0
  188.8580  177.3600  147.7320 C   0  0  2  0  0  3  0  0  0  0  0  0
  190.9050  176.7720  146.4310 C   0  0  0  0  0  2  0  0  0  0  0  0
  190.6590  176.5800  138.6530 C   0  0  0  0  0  2  0  0  0  0  0  0
  191.9570  175.7890  138.4730 C   0  0  1  0  0  3  0  0  0  0  0  0
  190.3980  174.4990  137.7550 O   0  0  0  0  0  1  0  0  0  0  0  0
  191.6900  174.5010  138.0050 O   0  0  0  0  0  0  0  0  0  0  0  0
  192.9270  176.4940  137.5320 C   0  0  0  0  0  2  0  0  0  0  0  0
  193.6690  175.4940  136.6600 C   0  0  0  0  0  2  0  0  0  0  0  0
  195.0450  175.6640  136.8040 O   0  0  0  0  0  1  0  0  0  0  0  0
  1 18  1  0  0  0  0
  1 13  1  0  0  0  0
  2  5  1  0  0  0  0
  2 16  1  0  0  0  0
  3 15  1  0  0  0  0
  4  6  1  0  0  0  0
  4  8  1  0  0  0  0
  5  7  1  0  0  0  0
  6  2  1  0  0  0  0
  7  3  1  0  0  0  0
  7 19  1  0  0  0  0
  8 12  1  0  0  0  0
  9  6  1  0  0  0  0
  9 17  1  0  0  0  0
 10  1  1  0  0  0  0
 11 23  1  0  0  0  0
 12 16  1  0  0  0  0
 13  9  1  0  0  0  0
 14 15  1  0  0  0  0
 16 11  1  0  0  0  0
 17  5  1  0  0  0  0
 18  4  1  0  0  0  0
 19 25  1  0  0  0  0
 20  1  1  0  0  0  0
 21 14  1  0  0  0  0
 22 17  1  0  0  0  0
 22 21  1  0  0  0  0
 23 19  1  0  0  0  0
 24 25  1  0  0  0  0
 24 30  1  0  0  0  0
 25 26  2  0  0  0  0
 26 29  1  0  0  0  0
 28 29  1  0  0  0  0
 29 27  1  0  0  0  0
 30 28  1  0  0  0  0
 31 22  1  0  0  0  0
 32 31  1  0  0  0  0
 33 34  1  0  0  0  0
 34 32  1  0  0  0  0
 35 32  1  0  0  0  0
 36 37  1  0  0  0  0
 36 35  1  0  0  0  0
M  END
>  <MODEL>
2

>  <REMARK>
 VINA RESULT:      -7.6      2.413      5.607
  Name = 
  6 active torsions:
  status: ('A' for Active; 'I' for Inactive)
    1  A    between atoms: C_1  and  C_4
    2  A    between atoms: C_1  and  C_27
    3  A    between atoms: C_4  and  C_12
    4  A    between atoms: C_4  and  O_37
    5  A    between atoms: C_8  and  C_12
    6  A    between atoms: C_23  and  C_30
                            x       y       z     vdW  Elec       q    Type
                         _______ _______ _______ _____ _____    ______ ____

>  <TORSDO>
F 6

$$$$
=
 OpenBabel11122411473D

 37 42  0  0  1  0  0  0  0  0999 V2000
  190.4800  176.5170  138.0250 C   0  0  0  0  0  0  0  0  0  0  0  0
  187.0130  177.6710  136.8910 C   0  0  1  0  0  3  0  0  0  0  0  0
  184.8530  179.1020  138.7080 C   0  0  0  0  0  2  0  0  0  0  0  0
  189.4600  177.6680  136.1110 N   0  0  2  0  0  0  0  0  0  0  0  0
  186.5490  177.4210  138.3300 C   0  0  2  0  0  3  0  0  0  0  0  0
  188.4510  178.2080  137.0460 C   0  0  2  0  0  3  0  0  0  0  0  0
  185.1110  177.6680  138.5740 N   0  0  2  0  0  0  0  0  0  0  0  0
  188.8820  177.4870  134.7780 C   0  0  0  0  0  2  0  0  0  0  0  0
  188.8460  178.0780  138.5250 C   0  0  2  0  0  3  0  0  0  0  0  0
  191.4510  177.4980  138.1780 F   0  0  0  0  0  0  0  0  0  0  0  0
  185.5270  175.9460  135.7650 C   0  0  0  0  0  2  0  0  0  0  0  0
  187.7120  176.4900  134.7530 C   0  0  0  0  0  2  0  0  0  0  0  0
  189.3510  176.7870  138.8210 O   0  0  0  0  0  0  0  0  0  0  0  0
  184.9980  178.6090  141.2120 C   0  0  0  0  0  2  0  0  0  0  0  0
  184.3070  179.4080  140.1040 C   0  0  0  0  0  2  0  0  0  0  0  0
  186.9600  176.3690  136.0810 C   0  0  1  0  0  3  0  0  0  0  0  0
  187.4950  178.2460  139.2050 C   0  0  2  0  0  3  0  0  0  0  0  0
  190.0540  176.4080  136.5670 C   0  0  0  0  0  2  0  0  0  0  0  0
  184.2180  177.1140  137.5370 C   0  0  1  0  0  3  0  0  0  0  0  0
  191.0160  175.3050  138.4130 F   0  0  0  0  0  0  0  0  0  0  0  0
  186.4670  178.9770  141.3580 C   0  0  0  0  0  2  0  0  0  0  0  0
  187.3830  177.9400  140.7100 C   0  0  2  0  0  3  0  0  0  0  0  0
  184.6790  175.7510  137.0130 C   0  0  0  0  0  2  0  0  0  0  0  0
  182.5630  176.0960  139.2360 C   0  0  0  0  0  2  0  0  0  0  0  0
  182.8100  177.0000  138.0520 C   0  0  0  0  0  0  0  0  0  0  0  0
  181.7940  177.5750  137.3770 C   0  0  0  0  0  3  0  0  0  0  0  0
  180.0070  178.6740  138.4810 O   0  0  0  0  0  1  0  0  0  0  0  0
  180.1220  176.3000  138.7550 C   0  0  0  0  0  2  0  0  0  0  0  0
  180.3580  177.4920  137.8280 C   0  0  2  0  0  3  0  0  0  0  0  0
  181.1790  176.2840  139.8520 C   0  0  0  0  0  2  0  0  0  0  0  0
  188.7370  178.0010  141.4240 C   0  0  0  0  0  2  0  0  0  0  0  0
  188.9980  176.7750  142.3020 C   0  0  1  0  0  3  0  0  0  0  0  0
  190.3870  175.2330  142.8560 O   0  0  0  0  0  1  0  0  0  0  0  0
  190.1780  176.1340  141.9190 O   0  0  0  0  0  0  0  0  0  0  0  0
  189.0610  177.1380  143.7810 C   0  0  0  0  0  2  0  0  0  0  0  0
  187.6770  177.1310  144.4080 C   0  0  0  0  0  2  0  0  0  0  0  0
  187.7320  177.6690  145.6930 O   0  0  0  0  0  1  0  0  0  0  0  0
  1 10  1  0  0  0  0
  1 20  1  0  0  0  0
  1 13  1  0  0  0  0
  2  6  1  0  0  0  0
  2  5  1  0  0  0  0
  3 15  1  0  0  0  0
  4 18  1  0  0  0  0
  4  6  1  0  0  0  0
  5  7  1  0  0  0  0
  5 17  1  0  0  0  0
  6  9  1  0  0  0  0
  7  3  1  0  0  0  0
  8  4  1  0  0  0  0
  9 13  1  0  0  0  0
  9 17  1  0  0  0  0
 11 16  1  0  0  0  0
 11 23  1  0  0  0  0
 12  8  1  0  0  0  0
 12 16  1  0  0  0  0
 14 21  1  0  0  0  0
 15 14  1  0  0  0  0
 16  2  1  0  0  0  0
 17 22  1  0  0  0  0
 18  1  1  0  0  0  0
 19 25  1  0  0  0  0
 19  7  1  0  0  0  0
 22 21  1  0  0  0  0
 22 31  1  0  0  0  0
 23 19  1  0  0  0  0
 24 30  1  0  0  0  0
 25 24  1  0  0  0  0
 26 29  1  0  0  0  0
 26 25  2  0  0  0  0
 28 30  1  0  0  0  0
 29 27  1  0  0  0  0
 29 28  1  0  0  0  0
 31 32  1  0  0  0  0
 32 35  1  0  0  0  0
 34 32  1  0  0  0  0
 34 33  1  0  0  0  0
 35 36  1  0  0  0  0
 36 37  1  0  0  0  0
M  END
>  <MODEL>
3

>  <REMARK>
 VINA RESULT:      -7.4      2.761      7.412
  Name = 
  6 active torsions:
  status: ('A' for Active; 'I' for Inactive)
    1  A    between atoms: C_1  and  C_4
    2  A    between atoms: C_1  and  C_27
    3  A    between atoms: C_4  and  C_12
    4  A    between atoms: C_4  and  O_37
    5  A    between atoms: C_8  and  C_12
    6  A    between atoms: C_23  and  C_30
                            x       y       z     vdW  Elec       q    Type
                         _______ _______ _______ _____ _____    ______ ____

>  <TORSDO>
F 6

$$$$
=
 OpenBabel11122411473D

 37 42  0  0  1  0  0  0  0  0999 V2000
  190.0110  177.1310  140.7030 C   0  0  0  0  0  0  0  0  0  0  0  0
  187.2340  177.9550  138.2040 C   0  0  1  0  0  3  0  0  0  0  0  0
  184.3990  179.1660  138.9210 C   0  0  0  0  0  2  0  0  0  0  0  0
  189.7740  178.1880  138.4990 N   0  0  2  0  0  0  0  0  0  0  0  0
  186.2420  177.6560  139.3330 C   0  0  2  0  0  3  0  0  0  0  0  0
  188.4260  178.6250  138.9170 C   0  0  2  0  0  3  0  0  0  0  0  0
  184.8150  177.7640  138.9550 N   0  0  2  0  0  0  0  0  0  0  0  0
  189.8170  177.9590  137.0540 C   0  0  0  0  0  2  0  0  0  0  0  0
  188.1860  178.5280  140.4320 C   0  0  2  0  0  3  0  0  0  0  0  0
  190.7410  178.1990  141.2070 F   0  0  0  0  0  0  0  0  0  0  0  0
  186.5040  176.1010  136.6290 C   0  0  0  0  0  2  0  0  0  0  0  0
  188.8540  176.8540  136.5850 C   0  0  0  0  0  2  0  0  0  0  0  0
  188.6350  177.2890  140.9540 O   0  0  0  0  0  0  0  0  0  0  0  0
  183.5410  178.6790  141.2780 C   0  0  0  0  0  2  0  0  0  0  0  0
  183.3020  179.4130  139.9560 C   0  0  0  0  0  2  0  0  0  0  0  0
  187.6350  176.6570  137.4900 C   0  0  1  0  0  3  0  0  0  0  0  0
  186.6650  178.5640  140.4900 C   0  0  2  0  0  3  0  0  0  0  0  0
  190.2360  176.9880  139.2040 C   0  0  0  0  0  2  0  0  0  0  0  0
  184.4820  177.1320  137.6630 C   0  0  1  0  0  3  0  0  0  0  0  0
  190.4440  175.9740  141.3200 F   0  0  0  0  0  0  0  0  0  0  0  0
  184.7800  179.1850  142.0020 C   0  0  0  0  0  2  0  0  0  0  0  0
  185.9700  178.2420  141.8250 C   0  0  2  0  0  3  0  0  0  0  0  0
  185.2380  175.8210  137.4230 C   0  0  0  0  0  2  0  0  0  0  0  0
  182.2300  177.6590  136.5180 C   0  0  0  0  0  2  0  0  0  0  0  0
  183.0030  176.8830  137.5580 C   0  0  0  0  0  0  0  0  0  0  0  0
  182.3820  176.1030  138.4650 C   0  0  0  0  0  3  0  0  0  0  0  0
  180.6830  174.5650  137.8560 O   0  0  0  0  0  1  0  0  0  0  0  0
  180.1390  176.8850  137.6430 C   0  0  0  0  0  2  0  0  0  0  0  0
  180.9020  175.8190  138.4280 C   0  0  2  0  0  3  0  0  0  0  0  0
  180.8190  177.1200  136.3000 C   0  0  0  0  0  2  0  0  0  0  0  0
  186.8970  178.4280  143.0300 C   0  0  0  0  0  2  0  0  0  0  0  0
  186.7700  177.2980  144.0540 C   0  0  1  0  0  3  0  0  0  0  0  0
  188.6860  176.7430  144.8510 O   0  0  0  0  0  1  0  0  0  0  0  0
  187.8230  176.3900  143.9220 O   0  0  0  0  0  0  0  0  0  0  0  0
  186.7180  177.8280  145.4830 C   0  0  0  0  0  2  0  0  0  0  0  0
  185.4630  178.6530  145.7170 C   0  0  0  0  0  2  0  0  0  0  0  0
  185.5360  179.2920  146.9540 O   0  0  0  0  0  1  0  0  0  0  0  0
  1 13  1  0  0  0  0
  1 10  1  0  0  0  0
  1 20  1  0  0  0  0
  2  6  1  0  0  0  0
  2  5  1  0  0  0  0
  3  7  1  0  0  0  0
  3 15  1  0  0  0  0
  4  6  1  0  0  0  0
  4 18  1  0  0  0  0
  5 17  1  0  0  0  0
  6  9  1  0  0  0  0
  7  5  1  0  0  0  0
  8  4  1  0  0  0  0
  9 17  1  0  0  0  0
  9 13  1  0  0  0  0
 11 23  1  0  0  0  0
 11 16  1  0  0  0  0
 12  8  1  0  0  0  0
 12 16  1  0  0  0  0
 14 21  1  0  0  0  0
 15 14  1  0  0  0  0
 16  2  1  0  0  0  0
 17 22  1  0  0  0  0
 18  1  1  0  0  0  0
 19  7  1  0  0  0  0
 22 21  1  0  0  0  0
 22 31  1  0  0  0  0
 23 19  1  0  0  0  0
 24 25  1  0  0  0  0
 25 19  1  0  0  0  0
 25 26  2  0  0  0  0
 27 29  1  0  0  0  0
 28 29  1  0  0  0  0
 29 26  1  0  0  0  0
 30 24  1  0  0  0  0
 30 28  1  0  0  0  0
 31 32  1  0  0  0  0
 32 35  1  0  0  0  0
 34 32  1  0  0  0  0
 34 33  1  0  0  0  0
 35 36  1  0  0  0  0
 36 37  1  0  0  0  0
M  END
>  <MODEL>
4

>  <REMARK>
 VINA RESULT:      -7.0      2.993      7.360
  Name = 
  6 active torsions:
  status: ('A' for Active; 'I' for Inactive)
    1  A    between atoms: C_1  and  C_4
    2  A    between atoms: C_1  and  C_27
    3  A    between atoms: C_4  and  C_12
    4  A    between atoms: C_4  and  O_37
    5  A    between atoms: C_8  and  C_12
    6  A    between atoms: C_23  and  C_30
                            x       y       z     vdW  Elec       q    Type
                         _______ _______ _______ _____ _____    ______ ____

>  <TORSDO>
F 6

$$$$
=
 OpenBabel11122411473D

 37 42  0  0  1  0  0  0  0  0999 V2000
  189.7980  176.2070  142.5690 C   0  0  0  0  0  0  0  0  0  0  0  0
  187.0140  178.6510  141.6160 C   0  0  1  0  0  3  0  0  0  0  0  0
  184.8710  179.8790  143.5960 C   0  0  0  0  0  2  0  0  0  0  0  0
  189.5110  178.2220  141.1960 N   0  0  2  0  0  0  0  0  0  0  0  0
  186.1970  178.0390  142.7580 C   0  0  2  0  0  3  0  0  0  0  0  0
  188.4630  178.6510  142.1460 C   0  0  2  0  0  3  0  0  0  0  0  0
  184.8310  178.5870  142.9120 N   0  0  2  0  0  0  0  0  0  0  0  0
  189.2210  178.7190  139.8500 C   0  0  0  0  0  2  0  0  0  0  0  0
  188.4790  177.8790  143.4750 C   0  0  2  0  0  3  0  0  0  0  0  0
  190.9020  176.7350  143.2260 F   0  0  0  0  0  0  0  0  0  0  0  0
  185.4750  177.9720  139.7130 C   0  0  0  0  0  2  0  0  0  0  0  0
  187.8960  178.1870  139.2790 C   0  0  0  0  0  2  0  0  0  0  0  0
  188.6080  176.4830  143.2670 O   0  0  0  0  0  0  0  0  0  0  0  0
  184.3410  178.4850  145.6700 C   0  0  0  0  0  2  0  0  0  0  0  0
  184.1090  179.7980  144.9190 C   0  0  0  0  0  2  0  0  0  0  0  0
  186.8580  177.8130  140.3410 C   0  0  1  0  0  3  0  0  0  0  0  0
  187.0810  178.1720  144.0010 C   0  0  2  0  0  3  0  0  0  0  0  0
  189.6960  176.7690  141.1580 C   0  0  0  0  0  2  0  0  0  0  0  0
  184.0930  178.7370  141.6430 C   0  0  1  0  0  3  0  0  0  0  0  0
  189.9540  174.8370  142.4820 F   0  0  0  0  0  0  0  0  0  0  0  0
  185.7840  178.3290  146.1260 C   0  0  0  0  0  2  0  0  0  0  0  0
  186.5710  177.3830  145.2200 C   0  0  2  0  0  3  0  0  0  0  0  0
  184.3490  177.5900  140.6600 C   0  0  0  0  0  2  0  0  0  0  0  0
  182.0660  178.2440  143.1620 C   0  0  0  0  0  2  0  0  0  0  0  0
  182.6160  178.8580  141.8970 C   0  0  0  0  0  0  0  0  0  0  0  0
  181.8050  179.3660  140.9470 C   0  0  0  0  0  3  0  0  0  0  0  0
  180.0100  180.8250  141.4670 O   0  0  0  0  0  1  0  0  0  0  0  0
  179.7830  178.5590  142.2010 C   0  0  0  0  0  2  0  0  0  0  0  0
  180.3160  179.5070  141.1270 C   0  0  2  0  0  3  0  0  0  0  0  0
  180.6330  178.6780  143.4600 C   0  0  0  0  0  2  0  0  0  0  0  0
  187.7100  176.7810  146.0480 C   0  0  0  0  0  2  0  0  0  0  0  0
  188.2210  177.7320  147.1320 C   0  0  1  0  0  3  0  0  0  0  0  0
  188.1090  178.2500  149.2130 O   0  0  0  0  0  1  0  0  0  0  0  0
  187.9530  177.2230  148.4040 O   0  0  0  0  0  0  0  0  0  0  0  0
  189.7140  178.0090  146.9880 C   0  0  0  0  0  2  0  0  0  0  0  0
  190.5230  176.7270  147.1000 C   0  0  0  0  0  2  0  0  0  0  0  0
  191.7200  176.8550  146.3960 O   0  0  0  0  0  1  0  0  0  0  0  0
  1 10  1  0  0  0  0
  1 13  1  0  0  0  0
  2  6  1  0  0  0  0
  2  5  1  0  0  0  0
  3 15  1  0  0  0  0
  4  6  1  0  0  0  0
  5  7  1  0  0  0  0
  5 17  1  0  0  0  0
  6  9  1  0  0  0  0
  7  3  1  0  0  0  0
  8  4  1  0  0  0  0
  9 17  1  0  0  0  0
 11 16  1  0  0  0  0
 11 23  1  0  0  0  0
 12  8  1  0  0  0  0
 12 16  1  0  0  0  0
 13  9  1  0  0  0  0
 14 21  1  0  0  0  0
 15 14  1  0  0  0  0
 16  2  1  0  0  0  0
 17 22  1  0  0  0  0
 18  4  1  0  0  0  0
 18  1  1  0  0  0  0
 19 25  1  0  0  0  0
 19  7  1  0  0  0  0
 20  1  1  0  0  0  0
 22 31  1  0  0  0  0
 22 21  1  0  0  0  0
 23 19  1  0  0  0  0
 24 30  1  0  0  0  0
 25 24  1  0  0  0  0
 26 29  1  0  0  0  0
 26 25  2  0  0  0  0
 28 30  1  0  0  0  0
 29 27  1  0  0  0  0
 29 28  1  0  0  0  0
 31 32  1  0  0  0  0
 32 34  1  0  0  0  0
 34 33  1  0  0  0  0
 35 36  1  0  0  0  0
 35 32  1  0  0  0  0
 37 36  1  0  0  0  0
M  END
>  <MODEL>
5

>  <REMARK>
 VINA RESULT:      -7.0      3.005      7.517
  Name = 
  6 active torsions:
  status: ('A' for Active; 'I' for Inactive)
    1  A    between atoms: C_1  and  C_4
    2  A    between atoms: C_1  and  C_27
    3  A    between atoms: C_4  and  C_12
    4  A    between atoms: C_4  and  O_37
    5  A    between atoms: C_8  and  C_12
    6  A    between atoms: C_23  and  C_30
                            x       y       z     vdW  Elec       q    Type
                         _______ _______ _______ _____ _____    ______ ____

>  <TORSDO>
F 6

$$$$
=
 OpenBabel11122411473D

 37 42  0  0  1  0  0  0  0  0999 V2000
  184.1420  178.1120  140.8900 C   0  0  0  0  0  0  0  0  0  0  0  0
  186.4500  178.9470  143.8250 C   0  0  1  0  0  3  0  0  0  0  0  0
  189.6130  178.9960  143.7360 C   0  0  0  0  0  2  0  0  0  0  0  0
  184.2850  179.7580  142.7060 N   0  0  2  0  0  0  0  0  0  0  0  0
  187.4760  178.0120  143.1780 C   0  0  2  0  0  3  0  0  0  0  0  0
  185.7550  179.6310  142.6290 C   0  0  2  0  0  3  0  0  0  0  0  0
  188.7350  177.8440  143.9380 N   0  0  2  0  0  0  0  0  0  0  0  0
  183.8650  180.0660  144.0750 C   0  0  0  0  0  2  0  0  0  0  0  0
  186.2510  178.9510  141.3440 C   0  0  2  0  0  3  0  0  0  0  0  0
  183.9680  179.0960  139.9260 F   0  0  0  0  0  0  0  0  0  0  0  0
  186.1180  177.6300  145.9720 C   0  0  0  0  0  2  0  0  0  0  0  0
  184.2440  178.9720  145.0880 C   0  0  0  0  0  2  0  0  0  0  0  0
  185.5020  177.7850  141.0460 O   0  0  0  0  0  0  0  0  0  0  0  0
  190.7030  177.5030  141.9720 C   0  0  0  0  0  2  0  0  0  0  0  0
  190.9140  178.5540  143.0650 C   0  0  0  0  0  2  0  0  0  0  0  0
  185.4680  178.1430  144.6890 C   0  0  1  0  0  3  0  0  0  0  0  0
  187.6590  178.5410  141.7530 C   0  0  2  0  0  3  0  0  0  0  0  0
  183.5770  178.5670  142.2290 C   0  0  0  0  0  2  0  0  0  0  0  0
  188.5430  177.6340  145.3860 C   0  0  1  0  0  3  0  0  0  0  0  0
  183.4570  176.9810  140.4900 F   0  0  0  0  0  0  0  0  0  0  0  0
  189.9090  178.0490  140.7950 C   0  0  0  0  0  2  0  0  0  0  0  0
  188.4500  177.5960  140.8300 C   0  0  2  0  0  3  0  0  0  0  0  0
  187.3320  176.7530  145.7100 C   0  0  0  0  0  2  0  0  0  0  0  0
  190.7120  176.2640  145.1090 C   0  0  0  0  0  2  0  0  0  0  0  0
  189.7760  177.0370  146.0060 C   0  0  0  0  0  0  0  0  0  0  0  0
  189.9460  177.0730  147.3440 C   0  0  0  0  0  3  0  0  0  0  0  0
  192.0560  177.5030  148.3360 O   0  0  0  0  0  1  0  0  0  0  0  0
  191.8340  175.4230  147.1750 C   0  0  0  0  0  2  0  0  0  0  0  0
  191.1500  176.4850  148.0340 C   0  0  2  0  0  3  0  0  0  0  0  0
  192.0550  175.9630  145.7680 C   0  0  0  0  0  2  0  0  0  0  0  0
  187.9220  177.6020  139.3930 C   0  0  0  0  0  2  0  0  0  0  0  0
  189.0360  177.4630  138.3530 C   0  0  1  0  0  3  0  0  0  0  0  0
  190.1780  175.6440  138.3310 O   0  0  0  0  0  1  0  0  0  0  0  0
  189.0740  176.1650  137.8380 O   0  0  0  0  0  0  0  0  0  0  0  0
  188.8830  178.4670  137.2160 C   0  0  0  0  0  2  0  0  0  0  0  0
  187.4250  178.6280  136.8190 C   0  0  0  0  0  2  0  0  0  0  0  0
  187.1880  177.9910  135.6020 O   0  0  0  0  0  1  0  0  0  0  0  0
  1 13  1  0  0  0  0
  1 18  1  0  0  0  0
  2 16  1  0  0  0  0
  3  7  1  0  0  0  0
  4  8  1  0  0  0  0
  5  2  1  0  0  0  0
  5  7  1  0  0  0  0
  6  4  1  0  0  0  0
  6  2  1  0  0  0  0
  7 19  1  0  0  0  0
  8 12  1  0  0  0  0
  9 17  1  0  0  0  0
  9  6  1  0  0  0  0
 10  1  1  0  0  0  0
 13  9  1  0  0  0  0
 14 15  1  0  0  0  0
 15  3  1  0  0  0  0
 16 12  1  0  0  0  0
 16 11  1  0  0  0  0
 17  5  1  0  0  0  0
 18  4  1  0  0  0  0
 19 23  1  0  0  0  0
 19 25  1  0  0  0  0
 20  1  1  0  0  0  0
 21 22  1  0  0  0  0
 21 14  1  0  0  0  0
 22 17  1  0  0  0  0
 23 11  1  0  0  0  0
 24 30  1  0  0  0  0
 24 25  1  0  0  0  0
 25 26  2  0  0  0  0
 26 29  1  0  0  0  0
 28 29  1  0  0  0  0
 29 27  1  0  0  0  0
 30 28  1  0  0  0  0
 31 22  1  0  0  0  0
 32 31  1  0  0  0  0
 34 33  1  0  0  0  0
 34 32  1  0  0  0  0
 35 32  1  0  0  0  0
 36 35  1  0  0  0  0
 37 36  1  0  0  0  0
M  END
>  <MODEL>
6

>  <REMARK>
 VINA RESULT:      -6.9      2.368      5.310
  Name = 
  6 active torsions:
  status: ('A' for Active; 'I' for Inactive)
    1  A    between atoms: C_1  and  C_4
    2  A    between atoms: C_1  and  C_27
    3  A    between atoms: C_4  and  C_12
    4  A    between atoms: C_4  and  O_37
    5  A    between atoms: C_8  and  C_12
    6  A    between atoms: C_23  and  C_30
                            x       y       z     vdW  Elec       q    Type
                         _______ _______ _______ _____ _____    ______ ____

>  <TORSDO>
F 6

$$$$
=
 OpenBabel11122411473D

 37 42  0  0  1  0  0  0  0  0999 V2000
  188.8710  178.1720  139.0400 C   0  0  0  0  0  0  0  0  0  0  0  0
  187.3930  175.8960  136.3430 C   0  0  1  0  0  3  0  0  0  0  0  0
  184.3580  175.8170  135.4480 C   0  0  0  0  0  2  0  0  0  0  0  0
  189.4350  177.3910  136.7820 N   0  0  2  0  0  0  0  0  0  0  0  0
  186.0840  175.9420  137.1370 C   0  0  2  0  0  3  0  0  0  0  0  0
  187.9850  177.3120  136.5090 C   0  0  2  0  0  3  0  0  0  0  0  0
  184.9840  175.1270  136.5760 N   0  0  2  0  0  0  0  0  0  0  0  0
  190.1600  176.3760  136.0150 C   0  0  0  0  0  2  0  0  0  0  0  0
  187.1210  178.0680  137.5290 C   0  0  2  0  0  3  0  0  0  0  0  0
  189.0740  179.5030  138.6990 F   0  0  0  0  0  0  0  0  0  0  0  0
  187.8230  173.4030  136.5660 C   0  0  0  0  0  2  0  0  0  0  0  0
  189.7460  174.9380  136.3670 C   0  0  0  0  0  2  0  0  0  0  0  0
  187.5260  177.7980  138.8600 O   0  0  0  0  0  0  0  0  0  0  0  0
  182.6570  176.5570  137.2050 C   0  0  0  0  0  2  0  0  0  0  0  0
  182.8900  176.1090  135.7600 C   0  0  0  0  0  2  0  0  0  0  0  0
  188.3180  174.8080  136.9030 C   0  0  1  0  0  3  0  0  0  0  0  0
  185.7590  177.4310  137.2900 C   0  0  2  0  0  3  0  0  0  0  0  0
  189.7620  177.2630  138.2040 C   0  0  0  0  0  2  0  0  0  0  0  0
  185.3930  173.7750  136.1450 C   0  0  1  0  0  3  0  0  0  0  0  0
  189.2040  178.0050  140.3700 F   0  0  0  0  0  0  0  0  0  0  0  0
  183.3170  177.8940  137.5070 C   0  0  0  0  0  2  0  0  0  0  0  0
  184.6220  177.7250  138.2850 C   0  0  2  0  0  3  0  0  0  0  0  0
  186.4190  173.1310  137.0830 C   0  0  0  0  0  2  0  0  0  0  0  0
  183.8060  172.0460  137.2190 C   0  0  0  0  0  2  0  0  0  0  0  0
  184.1970  172.8730  136.0170 C   0  0  0  0  0  0  0  0  0  0  0  0
  183.5990  172.7080  134.8200 C   0  0  0  0  0  3  0  0  0  0  0  0
  181.2420  172.5830  134.5940 O   0  0  0  0  0  1  0  0  0  0  0  0
  182.2990  170.7490  135.7090 C   0  0  0  0  0  2  0  0  0  0  0  0
  182.4040  171.8110  134.6160 C   0  0  2  0  0  3  0  0  0  0  0  0
  182.4280  171.4050  137.0780 C   0  0  0  0  0  2  0  0  0  0  0  0
  184.8590  179.0080  139.0860 C   0  0  0  0  0  2  0  0  0  0  0  0
  184.4010  178.8910  140.5410 C   0  0  1  0  0  3  0  0  0  0  0  0
  182.4530  178.0690  140.9240 O   0  0  0  0  0  1  0  0  0  0  0  0
  183.7040  177.6980  140.7460 O   0  0  0  0  0  0  0  0  0  0  0  0
  185.5690  178.9830  141.5160 C   0  0  0  0  0  2  0  0  0  0  0  0
  185.2400  178.3010  142.8340 C   0  0  0  0  0  2  0  0  0  0  0  0
  184.7790  179.2390  143.7550 O   0  0  0  0  0  1  0  0  0  0  0  0
  1 20  1  0  0  0  0
  2  6  1  0  0  0  0
  2 16  1  0  0  0  0
  2  5  1  0  0  0  0
  3 15  1  0  0  0  0
  3  7  1  0  0  0  0
  4 18  1  0  0  0  0
  5 17  1  0  0  0  0
  6  4  1  0  0  0  0
  6  9  1  0  0  0  0
  7  5  1  0  0  0  0
  8 12  1  0  0  0  0
  8  4  1  0  0  0  0
  9 13  1  0  0  0  0
 10  1  1  0  0  0  0
 11 16  1  0  0  0  0
 11 23  1  0  0  0  0
 12 16  1  0  0  0  0
 13  1  1  0  0  0  0
 14 21  1  0  0  0  0
 15 14  1  0  0  0  0
 17  9  1  0  0  0  0
 17 22  1  0  0  0  0
 18  1  1  0  0  0  0
 19  7  1  0  0  0  0
 19 23  1  0  0  0  0
 21 22  1  0  0  0  0
 22 31  1  0  0  0  0
 25 19  1  0  0  0  0
 25 24  1  0  0  0  0
 26 25  2  0  0  0  0
 27 29  1  0  0  0  0
 28 30  1  0  0  0  0
 29 26  1  0  0  0  0
 29 28  1  0  0  0  0
 30 24  1  0  0  0  0
 31 32  1  0  0  0  0
 32 34  1  0  0  0  0
 32 35  1  0  0  0  0
 34 33  1  0  0  0  0
 35 36  1  0  0  0  0
 36 37  1  0  0  0  0
M  END
>  <MODEL>
7

>  <REMARK>
 VINA RESULT:      -6.9      3.892      7.835
  Name = 
  6 active torsions:
  status: ('A' for Active; 'I' for Inactive)
    1  A    between atoms: C_1  and  C_4
    2  A    between atoms: C_1  and  C_27
    3  A    between atoms: C_4  and  C_12
    4  A    between atoms: C_4  and  O_37
    5  A    between atoms: C_8  and  C_12
    6  A    between atoms: C_23  and  C_30
                            x       y       z     vdW  Elec       q    Type
                         _______ _______ _______ _____ _____    ______ ____

>  <TORSDO>
F 6

$$$$
=
 OpenBabel11122411473D

 37 42  0  0  1  0  0  0  0  0999 V2000
  190.4970  175.8410  143.2160 C   0  0  0  0  0  0  0  0  0  0  0  0
  188.3910  178.4240  141.3380 C   0  0  1  0  0  3  0  0  0  0  0  0
  185.8260  179.8960  142.4670 C   0  0  0  0  0  2  0  0  0  0  0  0
  190.8430  177.8010  141.7780 N   0  0  2  0  0  0  0  0  0  0  0  0
  187.1970  177.9270  142.1590 C   0  0  2  0  0  3  0  0  0  0  0  0
  189.5800  178.3480  142.3170 C   0  0  2  0  0  3  0  0  0  0  0  0
  185.9060  178.5770  141.8400 N   0  0  2  0  0  0  0  0  0  0  0  0
  191.0520  178.2500  140.4000 C   0  0  0  0  0  2  0  0  0  0  0  0
  189.0960  177.6440  143.5940 C   0  0  2  0  0  3  0  0  0  0  0  0
  191.3630  176.3220  144.1880 F   0  0  0  0  0  0  0  0  0  0  0  0
  187.5110  177.7610  139.0490 C   0  0  0  0  0  2  0  0  0  0  0  0
  189.9490  177.7840  139.4350 C   0  0  0  0  0  2  0  0  0  0  0  0
  189.1700  176.2340  143.4740 O   0  0  0  0  0  0  0  0  0  0  0  0
  184.5320  178.6460  144.2820 C   0  0  0  0  0  2  0  0  0  0  0  0
  184.6680  179.9340  143.4650 C   0  0  0  0  0  2  0  0  0  0  0  0
  188.5930  177.5370  140.1030 C   0  0  1  0  0  3  0  0  0  0  0  0
  187.6320  178.0600  143.6210 C   0  0  2  0  0  3  0  0  0  0  0  0
  190.9090  176.3380  141.8370 C   0  0  0  0  0  2  0  0  0  0  0  0
  185.6400  178.7150  140.3950 C   0  0  1  0  0  3  0  0  0  0  0  0
  190.5590  174.4610  143.2180 F   0  0  0  0  0  0  0  0  0  0  0  0
  185.7280  178.4130  145.1930 C   0  0  0  0  0  2  0  0  0  0  0  0
  186.6870  177.3700  144.6210 C   0  0  2  0  0  3  0  0  0  0  0  0
  186.1080  177.5060  139.5790 C   0  0  0  0  0  2  0  0  0  0  0  0
  183.1840  178.1890  140.9870 C   0  0  0  0  0  2  0  0  0  0  0  0
  184.1760  178.9520  140.1420 C   0  0  0  0  0  0  0  0  0  0  0  0
  183.7830  179.7070  139.0970 C   0  0  0  0  0  3  0  0  0  0  0  0
  181.9810  181.2390  139.2540 O   0  0  0  0  0  1  0  0  0  0  0  0
  181.4140  178.9190  139.3840 C   0  0  0  0  0  2  0  0  0  0  0  0
  182.3350  179.9770  138.7780 C   0  0  2  0  0  3  0  0  0  0  0  0
  181.7580  178.7180  140.8540 C   0  0  0  0  0  2  0  0  0  0  0  0
  187.4380  176.7310  145.7930 C   0  0  0  0  0  2  0  0  0  0  0  0
  187.8780  177.7540  146.8420 C   0  0  1  0  0  3  0  0  0  0  0  0
  187.9290  178.2840  148.9230 O   0  0  0  0  0  1  0  0  0  0  0  0
  187.3650  177.4260  148.0990 O   0  0  0  0  0  0  0  0  0  0  0  0
  189.3960  177.8750  146.9170 C   0  0  0  0  0  2  0  0  0  0  0  0
  190.0380  176.5360  147.2390 C   0  0  0  0  0  2  0  0  0  0  0  0
  191.4270  176.6490  147.1970 O   0  0  0  0  0  1  0  0  0  0  0  0
  1 20  1  0  0  0  0
  1 13  1  0  0  0  0
  1 10  1  0  0  0  0
  2  5  1  0  0  0  0
  2  6  1  0  0  0  0
  3 15  1  0  0  0  0
  4 18  1  0  0  0  0
  4  6  1  0  0  0  0
  5 17  1  0  0  0  0
  6  9  1  0  0  0  0
  7  5  1  0  0  0  0
  7  3  1  0  0  0  0
  8  4  1  0  0  0  0
  9 17  1  0  0  0  0
 11 23  1  0  0  0  0
 11 16  1  0  0  0  0
 12 16  1  0  0  0  0
 12  8  1  0  0  0  0
 13  9  1  0  0  0  0
 14 21  1  0  0  0  0
 15 14  1  0  0  0  0
 16  2  1  0  0  0  0
 17 22  1  0  0  0  0
 18  1  1  0  0  0  0
 19  7  1  0  0  0  0
 22 21  1  0  0  0  0
 22 31  1  0  0  0  0
 23 19  1  0  0  0  0
 25 19  1  0  0  0  0
 25 24  1  0  0  0  0
 26 25  2  0  0  0  0
 28 30  1  0  0  0  0
 29 26  1  0  0  0  0
 29 27  1  0  0  0  0
 29 28  1  0  0  0  0
 30 24  1  0  0  0  0
 31 32  1  0  0  0  0
 32 35  1  0  0  0  0
 32 34  1  0  0  0  0
 34 33  1  0  0  0  0
 35 36  1  0  0  0  0
 37 36  1  0  0  0  0
M  END
>  <MODEL>
8

>  <REMARK>
 VINA RESULT:      -6.8      2.796      7.317
  Name = 
  6 active torsions:
  status: ('A' for Active; 'I' for Inactive)
    1  A    between atoms: C_1  and  C_4
    2  A    between atoms: C_1  and  C_27
    3  A    between atoms: C_4  and  C_12
    4  A    between atoms: C_4  and  O_37
    5  A    between atoms: C_8  and  C_12
    6  A    between atoms: C_23  and  C_30
                            x       y       z     vdW  Elec       q    Type
                         _______ _______ _______ _____ _____    ______ ____

>  <TORSDO>
F 6

$$$$
=
 OpenBabel11122411473D

 37 42  0  0  1  0  0  0  0  0999 V2000
  188.6260  177.7430  139.0090 C   0  0  0  0  0  0  0  0  0  0  0  0
  185.6720  177.1360  136.6550 C   0  0  1  0  0  3  0  0  0  0  0  0
  182.6520  177.8790  137.2460 C   0  0  0  0  0  2  0  0  0  0  0  0
  188.0960  177.9840  136.6240 N   0  0  2  0  0  0  0  0  0  0  0  0
  184.8050  177.0000  137.9110 C   0  0  2  0  0  3  0  0  0  0  0  0
  186.6940  178.2330  137.0190 C   0  0  2  0  0  3  0  0  0  0  0  0
  183.3830  176.6800  137.6560 N   0  0  2  0  0  0  0  0  0  0  0  0
  188.1540  177.3300  135.3150 C   0  0  0  0  0  2  0  0  0  0  0  0
  186.5210  178.5630  138.5100 C   0  0  2  0  0  3  0  0  0  0  0  0
  189.1020  179.0440  139.1000 F   0  0  0  0  0  0  0  0  0  0  0  0
  185.3520  174.7730  135.7810 C   0  0  0  0  0  2  0  0  0  0  0  0
  187.4620  175.9570  135.2910 C   0  0  0  0  0  2  0  0  0  0  0  0
  187.2580  177.6750  139.3320 O   0  0  0  0  0  0  0  0  0  0  0  0
  181.9910  177.9800  139.7120 C   0  0  0  0  0  2  0  0  0  0  0  0
  181.5540  178.1970  138.2610 C   0  0  0  0  0  2  0  0  0  0  0  0
  186.3450  175.7970  136.3260 C   0  0  1  0  0  3  0  0  0  0  0  0
  185.0350  178.2920  138.7000 C   0  0  2  0  0  3  0  0  0  0  0  0
  188.8400  177.1900  137.6060 C   0  0  0  0  0  2  0  0  0  0  0  0
  183.1730  175.6210  136.6490 C   0  0  1  0  0  3  0  0  0  0  0  0
  189.3310  176.9550  139.8990 F   0  0  0  0  0  0  0  0  0  0  0  0
  183.0960  178.9370  140.1310 C   0  0  0  0  0  2  0  0  0  0  0  0
  184.4670  178.2620  140.1300 C   0  0  2  0  0  3  0  0  0  0  0  0
  184.2050  174.4930  136.7390 C   0  0  0  0  0  2  0  0  0  0  0  0
  180.8450  175.2400  135.6030 C   0  0  0  0  0  2  0  0  0  0  0  0
  181.7900  175.0430  136.7640 C   0  0  0  0  0  0  0  0  0  0  0  0
  181.3770  174.5020  137.9280 C   0  0  0  0  0  3  0  0  0  0  0  0
  180.0700  172.5260  138.0090 O   0  0  0  0  0  1  0  0  0  0  0  0
  179.0040  174.4660  137.1020 C   0  0  0  0  0  2  0  0  0  0  0  0
  180.0020  173.9150  138.1190 C   0  0  2  0  0  3  0  0  0  0  0  0
  179.5930  174.3720  135.7000 C   0  0  0  0  0  2  0  0  0  0  0  0
  185.3560  179.0070  141.1300 C   0  0  0  0  0  2  0  0  0  0  0  0
  185.3400  178.3730  142.5230 C   0  0  1  0  0  3  0  0  0  0  0  0
  186.6040  177.7900  144.1590 O   0  0  0  0  0  1  0  0  0  0  0  0
  186.5950  177.8510  142.8440 O   0  0  0  0  0  0  0  0  0  0  0  0
  184.9000  179.3640  143.5950 C   0  0  0  0  0  2  0  0  0  0  0  0
  183.4920  179.0590  144.0790 C   0  0  0  0  0  2  0  0  0  0  0  0
  183.4680  179.0040  145.4720 O   0  0  0  0  0  1  0  0  0  0  0  0
  1 10  1  0  0  0  0
  1 13  1  0  0  0  0
  1 20  1  0  0  0  0
  2  6  1  0  0  0  0
  2  5  1  0  0  0  0
  3  7  1  0  0  0  0
  3 15  1  0  0  0  0
  4  6  1  0  0  0  0
  4 18  1  0  0  0  0
  5 17  1  0  0  0  0
  6  9  1  0  0  0  0
  7  5  1  0  0  0  0
  8  4  1  0  0  0  0
  9 17  1  0  0  0  0
  9 13  1  0  0  0  0
 11 16  1  0  0  0  0
 11 23  1  0  0  0  0
 12  8  1  0  0  0  0
 12 16  1  0  0  0  0
 14 21  1  0  0  0  0
 15 14  1  0  0  0  0
 16  2  1  0  0  0  0
 17 22  1  0  0  0  0
 18  1  1  0  0  0  0
 19 23  1  0  0  0  0
 19 25  1  0  0  0  0
 19  7  1  0  0  0  0
 22 21  1  0  0  0  0
 22 31  1  0  0  0  0
 24 30  1  0  0  0  0
 24 25  1  0  0  0  0
 25 26  2  0  0  0  0
 26 29  1  0  0  0  0
 27 29  1  0  0  0  0
 28 29  1  0  0  0  0
 30 28  1  0  0  0  0
 31 32  1  0  0  0  0
 32 34  1  0  0  0  0
 32 35  1  0  0  0  0
 34 33  1  0  0  0  0
 35 36  1  0  0  0  0
 36 37  1  0  0  0  0
M  END
>  <MODEL>
9

>  <REMARK>
 VINA RESULT:      -6.8      3.950      8.026
  Name = 
  6 active torsions:
  status: ('A' for Active; 'I' for Inactive)
    1  A    between atoms: C_1  and  C_4
    2  A    between atoms: C_1  and  C_27
    3  A    between atoms: C_4  and  C_12
    4  A    between atoms: C_4  and  O_37
    5  A    between atoms: C_8  and  C_12
    6  A    between atoms: C_23  and  C_30
                            x       y       z     vdW  Elec       q    Type
                         _______ _______ _______ _____ _____    ______ ____

>  <TORSDO>
F 6

$$$$
