=
 OpenBabel11122412283D

 34 40  0  0  1  0  0  0  0  0999 V2000
  189.3450  177.5880  139.7810 C   0  0  1  0  0  3  0  0  0  0  0  0
  191.0130  176.3460  138.6110 C   0  0  0  0  0  2  0  0  0  0  0  0
  182.8940  178.2940  140.5320 C   0  0  1  0  0  3  0  0  0  0  0  0
  187.3120  178.4870  140.9860 C   0  0  0  0  0  0  0  0  0  0  0  0
  185.2390  178.9500  139.8020 C   0  0  0  0  0  0  0  0  0  0  0  0
  183.2670  179.7550  138.5600 N   0  0  0  0  0  1  0  0  0  0  0  0
  182.5000  177.3290  139.6030 O   0  0  0  0  0  1  0  0  0  0  0  0
  184.1700  178.5360  142.7640 C   0  0  0  0  0  2  0  0  0  0  0  0
  189.2440  177.2570  137.4440 C   0  0  2  0  0  3  0  0  0  0  0  0
  187.8850  176.1570  134.6970 C   0  0  0  0  0  2  0  0  0  0  0  0
  185.8120  178.4670  138.6190 C   0  0  0  0  0  3  0  0  0  0  0  0
  185.3480  179.4050  142.2790 C   0  0  0  0  0  2  0  0  0  0  0  0
  187.7200  177.4430  137.3260 C   0  0  1  0  0  3  0  0  0  0  0  0
  191.3560  175.6290  136.9770 S   0  0  0  0  0  0  0  0  0  0  0  0
  185.9860  178.9440  140.9940 C   0  0  0  0  0  0  0  0  0  0  0  0
  183.5630  177.5880  141.7200 C   0  0  0  0  0  2  0  0  0  0  0  0
  188.9560  175.4760  135.5710 C   0  0  1  0  0  3  0  0  0  0  0  0
  187.8950  178.0370  139.7850 C   0  0  0  0  0  0  0  0  0  0  0  0
  183.7870  179.3540  139.8610 C   0  0  1  0  0  3  0  0  0  0  0  0
  187.1460  178.0420  138.5900 C   0  0  0  0  0  0  0  0  0  0  0  0
  189.4230  178.0620  142.2160 C   0  0  0  0  0  2  0  0  0  0  0  0
  187.8890  177.6880  134.7660 C   0  0  0  0  0  2  0  0  0  0  0  0
  188.0420  178.4290  142.1820 O   0  0  0  0  0  0  0  0  0  0  0  0
  187.3130  178.2380  136.0760 C   0  0  0  0  0  2  0  0  0  0  0  0
  189.8910  176.4630  136.3040 C   0  0  1  0  0  3  0  0  0  0  0  0
  189.7180  177.0120  141.1510 C   0  0  0  0  0  2  0  0  0  0  0  0
  189.5840  176.6140  138.7080 N   0  0  2  0  0  0  0  0  0  0  0  0
  188.3120  174.5560  136.4990 N   0  0  0  0  0  2  0  0  0  0  0  0
  187.0320  174.3940  136.0850 O   0  0  0  0  0  0  0  0  0  0  0  0
  183.9600  174.0400  137.5780 O   0  0  0  0  0  0  0  0  0  0  0  0
  185.9590  172.7930  137.4680 C   0  0  0  0  0  2  0  0  0  0  0  0
  186.2980  174.2390  137.2620 C   0  0  2  0  0  3  0  0  0  0  0  0
  184.4570  172.7520  137.3350 C   0  0  0  0  0  2  0  0  0  0  0  0
  184.9530  174.9120  137.1090 C   0  0  0  0  0  2  0  0  0  0  0  0
  1 18  1  0  0  0  0
  1 26  1  1  0  0  0
  2 27  1  0  0  0  0
  3  7  1  6  0  0  0
  3 16  1  0  0  0  0
  4 15  1  0  0  0  0
  4 23  1  0  0  0  0
  5 19  1  0  0  0  0
  5 15  2  0  0  0  0
  6 19  1  0  0  0  0
  9 27  1  0  0  0  0
 10 22  1  0  0  0  0
 10 17  1  0  0  0  0
 11  5  1  0  0  0  0
 12  8  1  0  0  0  0
 13  9  1  0  0  0  0
 13 20  1  0  0  0  0
 14  2  1  0  0  0  0
 15 12  1  0  0  0  0
 16  8  1  0  0  0  0
 17 25  1  0  0  0  0
 17 28  1  0  0  0  0
 18  4  2  0  0  0  0
 19  3  1  0  0  0  0
 20 11  2  0  0  0  0
 20 18  1  0  0  0  0
 22 24  1  0  0  0  0
 23 21  1  0  0  0  0
 24 13  1  0  0  0  0
 25 14  1  0  0  0  0
 25  9  1  0  0  0  0
 26 21  1  0  0  0  0
 27  1  1  0  0  0  0
 29 28  1  0  0  0  0
 29 32  1  0  0  0  0
 32 31  1  0  0  0  0
 33 31  1  0  0  0  0
 33 30  1  0  0  0  0
 34 32  1  0  0  0  0
 34 30  1  0  0  0  0
M  END
>  <MODEL>
1

>  <REMARK>
 VINA RESULT:      -7.5      0.000      0.000
  Name = 
  3 active torsions:
  status: ('A' for Active; 'I' for Inactive)
    1  A    between atoms: C_17  and  N_28
    2  A    between atoms: N_28  and  O_29
    3  A    between atoms: O_29  and  C_32
                            x       y       z     vdW  Elec       q    Type
                         _______ _______ _______ _____ _____    ______ ____

>  <TORSDO>
F 3

$$$$
=
 OpenBabel11122412283D

 34 40  0  0  1  0  0  0  0  0999 V2000
  189.4250  177.7020  140.1370 C   0  0  1  0  0  3  0  0  0  0  0  0
  191.1560  176.5070  139.0110 C   0  0  0  0  0  2  0  0  0  0  0  0
  182.9400  178.2990  140.6480 C   0  0  1  0  0  3  0  0  0  0  0  0
  187.3340  178.5490  141.2780 C   0  0  0  0  0  0  0  0  0  0  0  0
  185.3000  179.0030  140.0220 C   0  0  0  0  0  0  0  0  0  0  0  0
  183.3660  179.8020  138.7190 N   0  0  0  0  0  1  0  0  0  0  0  0
  182.5970  177.3460  139.6870 O   0  0  0  0  0  1  0  0  0  0  0  0
  184.1250  178.5180  142.9320 C   0  0  0  0  0  2  0  0  0  0  0  0
  189.4200  177.4130  137.7920 C   0  0  2  0  0  3  0  0  0  0  0  0
  188.1860  176.3440  134.9760 C   0  0  0  0  0  2  0  0  0  0  0  0
  185.9270  178.5500  138.8540 C   0  0  0  0  0  3  0  0  0  0  0  0
  185.3060  179.4130  142.5090 C   0  0  0  0  0  2  0  0  0  0  0  0
  187.9000  177.5780  137.6190 C   0  0  1  0  0  3  0  0  0  0  0  0
  191.5740  175.8250  137.3800 S   0  0  0  0  0  0  0  0  0  0  0  0
  186.0010  178.9860  141.2420 C   0  0  0  0  0  0  0  0  0  0  0  0
  183.5730  177.5810  141.8490 C   0  0  0  0  0  2  0  0  0  0  0  0
  189.2320  175.6620  135.8780 C   0  0  1  0  0  3  0  0  0  0  0  0
  187.9690  178.1300  140.0920 C   0  0  0  0  0  0  0  0  0  0  0  0
  183.8420  179.3840  140.0320 C   0  0  1  0  0  3  0  0  0  0  0  0
  187.2670  178.1450  138.8700 C   0  0  0  0  0  0  0  0  0  0  0  0
  189.4010  178.1320  142.5820 C   0  0  0  0  0  2  0  0  0  0  0  0
  188.1630  177.8730  135.0710 C   0  0  0  0  0  2  0  0  0  0  0  0
  188.0170  178.4790  142.5000 O   0  0  0  0  0  0  0  0  0  0  0  0
  187.5290  178.3900  136.3680 C   0  0  0  0  0  2  0  0  0  0  0  0
  190.1230  176.6490  136.6650 C   0  0  1  0  0  3  0  0  0  0  0  0
  189.7530  177.1060  141.5100 C   0  0  0  0  0  2  0  0  0  0  0  0
  189.7200  176.7510  139.0580 N   0  0  2  0  0  0  0  0  0  0  0  0
  188.5670  174.7160  136.7630 N   0  0  0  0  0  2  0  0  0  0  0  0
  187.2910  174.5820  136.3280 O   0  0  0  0  0  0  0  0  0  0  0  0
  186.0730  171.4310  135.7160 O   0  0  0  0  0  0  0  0  0  0  0  0
  187.9820  172.3530  136.7500 C   0  0  0  0  0  2  0  0  0  0  0  0
  186.8710  173.3550  136.8410 C   0  0  2  0  0  3  0  0  0  0  0  0
  187.4710  171.3370  135.7580 C   0  0  0  0  0  2  0  0  0  0  0  0
  185.7870  172.7830  135.9550 C   0  0  0  0  0  2  0  0  0  0  0  0
  1 26  1  1  0  0  0
  2 27  1  0  0  0  0
  3  7  1  6  0  0  0
  3 16  1  0  0  0  0
  4 23  1  0  0  0  0
  5 19  1  0  0  0  0
  5 15  2  0  0  0  0
  6 19  1  0  0  0  0
  9 27  1  0  0  0  0
 10 22  1  0  0  0  0
 10 17  1  0  0  0  0
 11 20  2  0  0  0  0
 11  5  1  0  0  0  0
 12  8  1  0  0  0  0
 13  9  1  0  0  0  0
 13 20  1  0  0  0  0
 14  2  1  0  0  0  0
 15  4  1  0  0  0  0
 15 12  1  0  0  0  0
 16  8  1  0  0  0  0
 17 25  1  0  0  0  0
 17 28  1  0  0  0  0
 18  1  1  0  0  0  0
 18  4  2  0  0  0  0
 19  3  1  0  0  0  0
 20 18  1  0  0  0  0
 22 24  1  0  0  0  0
 23 21  1  0  0  0  0
 24 13  1  0  0  0  0
 25 14  1  0  0  0  0
 25  9  1  0  0  0  0
 26 21  1  0  0  0  0
 27  1  1  0  0  0  0
 29 28  1  0  0  0  0
 29 32  1  0  0  0  0
 30 33  1  0  0  0  0
 30 34  1  0  0  0  0
 31 32  1  0  0  0  0
 33 31  1  0  0  0  0
 34 32  1  0  0  0  0
M  END
>  <MODEL>
2

>  <REMARK>
 VINA RESULT:      -6.9      0.925      1.143
  Name = 
  3 active torsions:
  status: ('A' for Active; 'I' for Inactive)
    1  A    between atoms: C_17  and  N_28
    2  A    between atoms: N_28  and  O_29
    3  A    between atoms: O_29  and  C_32
                            x       y       z     vdW  Elec       q    Type
                         _______ _______ _______ _____ _____    ______ ____

>  <TORSDO>
F 3

$$$$
=
 OpenBabel11122412283D

 34 40  0  0  1  0  0  0  0  0999 V2000
  191.2360  176.7630  137.9390 C   0  0  1  0  0  3  0  0  0  0  0  0
  190.9740  175.7930  135.7750 C   0  0  0  0  0  2  0  0  0  0  0  0
  188.7260  176.8890  143.9690 C   0  0  1  0  0  3  0  0  0  0  0  0
  191.3260  177.3620  140.3940 C   0  0  0  0  0  0  0  0  0  0  0  0
  189.3000  177.8000  141.6670 C   0  0  0  0  0  0  0  0  0  0  0  0
  187.2960  178.5910  142.8650 N   0  0  0  0  0  1  0  0  0  0  0  0
  187.6650  176.0100  143.7390 O   0  0  0  0  0  1  0  0  0  0  0  0
  191.3070  176.9680  143.9830 C   0  0  0  0  0  2  0  0  0  0  0  0
  189.1420  176.6960  136.8470 C   0  0  2  0  0  3  0  0  0  0  0  0
  186.0210  175.8200  136.5490 C   0  0  0  0  0  2  0  0  0  0  0  0
  188.5300  177.5000  140.5350 C   0  0  0  0  0  3  0  0  0  0  0  0
  191.5270  177.9730  142.8350 C   0  0  0  0  0  2  0  0  0  0  0  0
  188.2960  176.7790  138.1300 C   0  0  1  0  0  3  0  0  0  0  0  0
  189.6860  175.2970  134.5940 S   0  0  0  0  0  0  0  0  0  0  0  0
  190.7020  177.7130  141.6010 C   0  0  0  0  0  0  0  0  0  0  0  0
  190.0420  176.1030  143.8830 C   0  0  0  0  0  2  0  0  0  0  0  0
  187.2660  175.1260  135.9650 C   0  0  1  0  0  3  0  0  0  0  0  0
  190.5480  177.0980  139.2500 C   0  0  0  0  0  0  0  0  0  0  0  0
  188.6550  178.0830  143.0000 C   0  0  1  0  0  3  0  0  0  0  0  0
  189.1410  177.1830  139.3160 C   0  0  0  0  0  0  0  0  0  0  0  0
  193.4130  176.9580  139.1170 C   0  0  0  0  0  2  0  0  0  0  0  0
  186.1780  177.3290  136.7660 C   0  0  0  0  0  2  0  0  0  0  0  0
  192.7200  177.2210  140.3390 O   0  0  0  0  0  0  0  0  0  0  0  0
  187.0610  177.6790  137.9700 C   0  0  0  0  0  2  0  0  0  0  0  0
  188.4280  176.0900  135.6350 C   0  0  1  0  0  3  0  0  0  0  0  0
  192.5710  176.0630  138.2140 C   0  0  0  0  0  2  0  0  0  0  0  0
  190.3660  175.9390  137.0910 N   0  0  2  0  0  0  0  0  0  0  0  0
  187.6920  174.0590  136.8620 N   0  0  0  0  0  2  0  0  0  0  0  0
  186.7620  173.0770  136.7930 O   0  0  0  0  0  0  0  0  0  0  0  0
  187.3800  170.1500  135.1060 O   0  0  0  0  0  0  0  0  0  0  0  0
  185.7420  171.8470  135.0400 C   0  0  0  0  0  2  0  0  0  0  0  0
  187.0100  172.4420  135.5760 C   0  0  2  0  0  3  0  0  0  0  0  0
  185.9940  170.3590  135.0850 C   0  0  0  0  0  2  0  0  0  0  0  0
  187.9070  171.2470  135.8050 C   0  0  0  0  0  2  0  0  0  0  0  0
  1 26  1  1  0  0  0
  1 18  1  0  0  0  0
  2 27  1  0  0  0  0
  3  7  1  6  0  0  0
  4 15  1  0  0  0  0
  5 19  1  0  0  0  0
  6 19  1  0  0  0  0
  9 27  1  0  0  0  0
  9 13  1  0  0  0  0
 10 22  1  0  0  0  0
 11  5  1  0  0  0  0
 12  8  1  0  0  0  0
 13 20  1  0  0  0  0
 14 25  1  0  0  0  0
 14  2  1  0  0  0  0
 15  5  2  0  0  0  0
 15 12  1  0  0  0  0
 16  3  1  0  0  0  0
 16  8  1  0  0  0  0
 17 10  1  0  0  0  0
 17 28  1  0  0  0  0
 18 20  1  0  0  0  0
 18  4  2  0  0  0  0
 19  3  1  0  0  0  0
 20 11  2  0  0  0  0
 21 23  1  0  0  0  0
 22 24  1  0  0  0  0
 23  4  1  0  0  0  0
 24 13  1  0  0  0  0
 25 17  1  0  0  0  0
 25  9  1  0  0  0  0
 26 21  1  0  0  0  0
 27  1  1  0  0  0  0
 29 28  1  0  0  0  0
 30 34  1  0  0  0  0
 31 33  1  0  0  0  0
 31 32  1  0  0  0  0
 32 34  1  0  0  0  0
 32 29  1  0  0  0  0
 33 30  1  0  0  0  0
M  END
>  <MODEL>
3

>  <REMARK>
 VINA RESULT:      -6.5      2.816      4.233
  Name = 
  3 active torsions:
  status: ('A' for Active; 'I' for Inactive)
    1  A    between atoms: C_17  and  N_28
    2  A    between atoms: N_28  and  O_29
    3  A    between atoms: O_29  and  C_32
                            x       y       z     vdW  Elec       q    Type
                         _______ _______ _______ _____ _____    ______ ____

>  <TORSDO>
F 3

$$$$
=
 OpenBabel11122412283D

 34 40  0  0  1  0  0  0  0  0999 V2000
  183.5050  178.8100  139.5360 C   0  0  1  0  0  3  0  0  0  0  0  0
  181.4010  178.5100  138.4520 C   0  0  0  0  0  2  0  0  0  0  0  0
  186.9330  177.2270  144.8660 C   0  0  1  0  0  3  0  0  0  0  0  0
  185.6530  178.6740  140.8620 C   0  0  0  0  0  0  0  0  0  0  0  0
  185.6480  178.7550  143.2930 C   0  0  0  0  0  0  0  0  0  0  0  0
  185.6850  179.1960  145.7180 N   0  0  0  0  0  1  0  0  0  0  0  0
  185.9450  176.4680  145.4950 O   0  0  0  0  0  1  0  0  0  0  0  0
  188.3960  177.2620  142.7380 C   0  0  0  0  0  2  0  0  0  0  0  0
  181.4590  179.0910  140.6830 C   0  0  2  0  0  3  0  0  0  0  0  0
  179.2740  178.3830  142.9900 C   0  0  0  0  0  2  0  0  0  0  0  0
  184.2480  178.8060  143.2840 C   0  0  0  0  0  3  0  0  0  0  0  0
  187.8550  178.5520  142.0910 C   0  0  0  0  0  2  0  0  0  0  0  0
  182.0290  178.8120  142.0860 C   0  0  1  0  0  3  0  0  0  0  0  0
  179.6250  178.3940  138.8180 S   0  0  0  0  0  0  0  0  0  0  0  0
  186.3530  178.6710  142.0780 C   0  0  0  0  0  0  0  0  0  0  0  0
  187.4010  176.4810  143.6080 C   0  0  0  0  0  2  0  0  0  0  0  0
  179.3300  177.8680  141.5390 C   0  0  1  0  0  3  0  0  0  0  0  0
  184.2470  178.7630  140.8590 C   0  0  0  0  0  0  0  0  0  0  0  0
  186.4200  178.6510  144.5840 C   0  0  1  0  0  3  0  0  0  0  0  0
  183.5400  178.8450  142.0760 C   0  0  0  0  0  0  0  0  0  0  0  0
  185.6960  178.6260  138.3830 C   0  0  0  0  0  2  0  0  0  0  0  0
  179.9080  179.7620  143.2000 C   0  0  0  0  0  2  0  0  0  0  0  0
  186.3480  178.5350  139.6520 O   0  0  0  0  0  0  0  0  0  0  0  0
  181.4400  179.7380  143.1610 C   0  0  0  0  0  2  0  0  0  0  0  0
  179.9500  178.8700  140.5400 C   0  0  1  0  0  3  0  0  0  0  0  0
  184.2910  178.0420  138.4680 C   0  0  0  0  0  2  0  0  0  0  0  0
  182.1450  178.2790  139.6830 N   0  0  2  0  0  0  0  0  0  0  0  0
  180.0140  176.5830  141.5060 N   0  0  0  0  0  2  0  0  0  0  0  0
  179.0810  175.6350  141.2490 O   0  0  0  0  0  0  0  0  0  0  0  0
  179.6800  173.6410  138.5180 O   0  0  0  0  0  0  0  0  0  0  0  0
  180.9390  175.1060  139.8720 C   0  0  0  0  0  2  0  0  0  0  0  0
  179.7990  174.5770  140.6900 C   0  0  2  0  0  3  0  0  0  0  0  0
  180.5830  174.7110  138.4590 C   0  0  0  0  0  2  0  0  0  0  0  0
  178.9310  173.8550  139.6840 C   0  0  0  0  0  2  0  0  0  0  0  0
  1 26  1  6  0  0  0
  1 27  1  0  0  0  0
  1 18  1  0  0  0  0
  2 14  1  0  0  0  0
  2 27  1  0  0  0  0
  3  7  1  6  0  0  0
  4 15  1  0  0  0  0
  5 19  1  0  0  0  0
  8 16  1  0  0  0  0
  9 13  1  0  0  0  0
 10 22  1  0  0  0  0
 11  5  1  0  0  0  0
 12  8  1  0  0  0  0
 13 24  1  0  0  0  0
 14 25  1  0  0  0  0
 15 12  1  0  0  0  0
 15  5  2  0  0  0  0
 16  3  1  0  0  0  0
 17 10  1  0  0  0  0
 18  4  2  0  0  0  0
 18 20  1  0  0  0  0
 19  3  1  0  0  0  0
 19  6  1  0  0  0  0
 20 13  1  0  0  0  0
 20 11  2  0  0  0  0
 21 26  1  0  0  0  0
 21 23  1  0  0  0  0
 23  4  1  0  0  0  0
 24 22  1  0  0  0  0
 25  9  1  0  0  0  0
 25 17  1  0  0  0  0
 27  9  1  0  0  0  0
 28 17  1  0  0  0  0
 29 28  1  0  0  0  0
 30 34  1  0  0  0  0
 31 32  1  0  0  0  0
 32 29  1  0  0  0  0
 33 30  1  0  0  0  0
 33 31  1  0  0  0  0
 34 32  1  0  0  0  0
M  END
>  <MODEL>
4

>  <REMARK>
 VINA RESULT:      -6.5      4.263      7.357
  Name = 
  3 active torsions:
  status: ('A' for Active; 'I' for Inactive)
    1  A    between atoms: C_17  and  N_28
    2  A    between atoms: N_28  and  O_29
    3  A    between atoms: O_29  and  C_32
                            x       y       z     vdW  Elec       q    Type
                         _______ _______ _______ _____ _____    ______ ____

>  <TORSDO>
F 3

$$$$
=
 OpenBabel11122412283D

 34 40  0  0  1  0  0  0  0  0999 V2000
  183.7080  174.7070  137.3160 C   0  0  1  0  0  3  0  0  0  0  0  0
  181.4900  174.3730  138.1310 C   0  0  0  0  0  2  0  0  0  0  0  0
  189.1630  178.1840  138.2250 C   0  0  1  0  0  3  0  0  0  0  0  0
  186.1610  175.1740  136.9220 C   0  0  0  0  0  0  0  0  0  0  0  0
  187.0520  177.4360  137.0230 C   0  0  0  0  0  0  0  0  0  0  0  0
  187.8910  179.7400  136.7680 N   0  0  0  0  0  1  0  0  0  0  0  0
  188.6980  178.9710  139.2810 O   0  0  0  0  0  1  0  0  0  0  0  0
  189.6620  175.7250  137.6150 C   0  0  0  0  0  2  0  0  0  0  0  0
  182.2420  176.5150  137.7210 C   0  0  2  0  0  3  0  0  0  0  0  0
  181.3270  179.2690  139.1960 C   0  0  0  0  0  2  0  0  0  0  0  0
  185.7840  177.9140  137.3780 C   0  0  0  0  0  3  0  0  0  0  0  0
  188.6220  175.5360  136.4930 C   0  0  0  0  0  2  0  0  0  0  0  0
  183.3470  177.5670  137.9250 C   0  0  1  0  0  3  0  0  0  0  0  0
  180.0680  175.2980  138.7810 S   0  0  0  0  0  0  0  0  0  0  0  0
  187.2450  176.0580  136.8120 C   0  0  0  0  0  0  0  0  0  0  0  0
  189.2880  176.7330  138.7110 C   0  0  0  0  0  2  0  0  0  0  0  0
  180.9550  177.8210  139.5660 C   0  0  1  0  0  3  0  0  0  0  0  0
  184.8810  175.6670  137.2430 C   0  0  0  0  0  0  0  0  0  0  0  0
  188.2530  178.3460  136.9940 C   0  0  1  0  0  3  0  0  0  0  0  0
  184.6870  177.0480  137.4570 C   0  0  0  0  0  0  0  0  0  0  0  0
  185.2780  172.8620  136.7760 C   0  0  0  0  0  2  0  0  0  0  0  0
  181.6390  179.4860  137.7110 C   0  0  0  0  0  2  0  0  0  0  0  0
  186.3600  173.7950  136.7660 O   0  0  0  0  0  0  0  0  0  0  0  0
  183.0010  178.9230  137.2900 C   0  0  0  0  0  2  0  0  0  0  0  0
  180.8910  176.8600  138.3580 C   0  0  1  0  0  3  0  0  0  0  0  0
  184.1940  173.3190  137.7460 C   0  0  0  0  0  2  0  0  0  0  0  0
  182.6750  175.2160  138.2270 N   0  0  2  0  0  0  0  0  0  0  0  0
  181.8650  177.3330  140.5930 N   0  0  0  0  0  2  0  0  0  0  0  0
  182.3540  178.4140  141.2470 O   0  0  0  0  0  0  0  0  0  0  0  0
  185.5820  179.4970  141.6960 O   0  0  0  0  0  0  0  0  0  0  0  0
  183.9850  178.3130  142.9660 C   0  0  0  0  0  2  0  0  0  0  0  0
  183.6850  178.0910  141.5140 C   0  0  2  0  0  3  0  0  0  0  0  0
  184.9780  179.4500  142.9600 C   0  0  0  0  0  2  0  0  0  0  0  0
  184.5930  179.0660  140.7990 C   0  0  0  0  0  2  0  0  0  0  0  0
  1 26  1  1  0  0  0
  1 27  1  0  0  0  0
  2 27  1  0  0  0  0
  2 14  1  0  0  0  0
  3 16  1  0  0  0  0
  3  7  1  1  0  0  0
  4 18  1  0  0  0  0
  5 11  2  0  0  0  0
  6 19  1  0  0  0  0
  8 16  1  0  0  0  0
  9 13  1  0  0  0  0
  9 27  1  0  0  0  0
  9 25  1  0  0  0  0
 10 17  1  0  0  0  0
 11 20  1  0  0  0  0
 12 15  1  0  0  0  0
 12  8  1  0  0  0  0
 15  4  2  0  0  0  0
 15  5  1  0  0  0  0
 17 28  1  0  0  0  0
 18  1  1  0  0  0  0
 18 20  2  0  0  0  0
 19  5  1  0  0  0  0
 19  3  1  0  0  0  0
 20 13  1  0  0  0  0
 21 26  1  0  0  0  0
 22 10  1  0  0  0  0
 23 21  1  0  0  0  0
 23  4  1  0  0  0  0
 24 22  1  0  0  0  0
 24 13  1  0  0  0  0
 25 14  1  0  0  0  0
 25 17  1  0  0  0  0
 28 29  1  0  0  0  0
 29 32  1  0  0  0  0
 30 33  1  0  0  0  0
 32 31  1  0  0  0  0
 33 31  1  0  0  0  0
 34 32  1  0  0  0  0
 34 30  1  0  0  0  0
M  END
>  <MODEL>
5

>  <REMARK>
 VINA RESULT:      -6.4      2.938      7.047
  Name = 
  3 active torsions:
  status: ('A' for Active; 'I' for Inactive)
    1  A    between atoms: C_17  and  N_28
    2  A    between atoms: N_28  and  O_29
    3  A    between atoms: O_29  and  C_32
                            x       y       z     vdW  Elec       q    Type
                         _______ _______ _______ _____ _____    ______ ____

>  <TORSDO>
F 3

$$$$
=
 OpenBabel11122412283D

 34 40  0  0  1  0  0  0  0  0999 V2000
  190.6930  177.0200  138.3490 C   0  0  1  0  0  3  0  0  0  0  0  0
  190.9970  175.9110  136.2580 C   0  0  0  0  0  2  0  0  0  0  0  0
  186.4650  177.9030  143.2490 C   0  0  1  0  0  3  0  0  0  0  0  0
  190.0880  177.8020  140.6760 C   0  0  0  0  0  0  0  0  0  0  0  0
  187.8390  178.5570  141.2150 C   0  0  0  0  0  0  0  0  0  0  0  0
  185.6800  179.6540  141.6750 N   0  0  0  0  0  1  0  0  0  0  0  0
  185.4260  177.1280  142.7300 O   0  0  0  0  0  1  0  0  0  0  0  0
  188.9000  177.7040  144.0840 C   0  0  0  0  0  2  0  0  0  0  0  0
  189.0540  177.0900  136.6490 C   0  0  2  0  0  3  0  0  0  0  0  0
  186.0960  176.5330  135.4070 C   0  0  0  0  0  2  0  0  0  0  0  0
  187.4300  178.2510  139.9100 C   0  0  0  0  0  3  0  0  0  0  0  0
  189.5940  178.5840  143.0250 C   0  0  0  0  0  2  0  0  0  0  0  0
  187.8670  177.3670  137.5890 C   0  0  1  0  0  3  0  0  0  0  0  0
  190.0900  175.4630  134.7500 S   0  0  0  0  0  0  0  0  0  0  0  0
  189.1690  178.3140  141.6040 C   0  0  0  0  0  0  0  0  0  0  0  0
  187.6300  176.9760  143.6220 C   0  0  0  0  0  2  0  0  0  0  0  0
  187.3620  175.6640  135.2820 C   0  0  1  0  0  3  0  0  0  0  0  0
  189.6790  177.5320  139.3550 C   0  0  0  0  0  0  0  0  0  0  0  0
  186.8530  179.0150  142.2580 C   0  0  1  0  0  3  0  0  0  0  0  0
  188.3450  177.7720  138.9650 C   0  0  0  0  0  0  0  0  0  0  0  0
  192.4000  177.0730  140.1510 C   0  0  0  0  0  2  0  0  0  0  0  0
  186.3690  178.0300  135.5980 C   0  0  0  0  0  2  0  0  0  0  0  0
  191.4000  177.5080  141.0750 O   0  0  0  0  0  0  0  0  0  0  0  0
  186.8700  178.3790  137.0050 C   0  0  0  0  0  2  0  0  0  0  0  0
  188.6820  176.4680  135.2990 C   0  0  1  0  0  3  0  0  0  0  0  0
  191.7740  176.2040  139.0660 C   0  0  0  0  0  2  0  0  0  0  0  0
  190.0330  176.2280  137.3030 N   0  0  2  0  0  0  0  0  0  0  0  0
  187.3470  174.6340  136.3120 N   0  0  0  0  0  2  0  0  0  0  0  0
  187.4550  173.4370  135.6890 O   0  0  0  0  0  0  0  0  0  0  0  0
  184.7370  172.8100  137.6930 O   0  0  0  0  0  0  0  0  0  0  0  0
  185.6870  171.8560  135.7550 C   0  0  0  0  0  2  0  0  0  0  0  0
  186.7780  172.5450  136.5210 C   0  0  2  0  0  3  0  0  0  0  0  0
  184.4200  172.3560  136.4050 C   0  0  0  0  0  2  0  0  0  0  0  0
  186.0420  173.3150  137.5930 C   0  0  0  0  0  2  0  0  0  0  0  0
  1 26  1  1  0  0  0
  1 18  1  0  0  0  0
  2 27  1  0  0  0  0
  3  7  1  6  0  0  0
  3 16  1  0  0  0  0
  4 23  1  0  0  0  0
  4 15  1  0  0  0  0
  5 15  2  0  0  0  0
  5 19  1  0  0  0  0
  6 19  1  0  0  0  0
  9 27  1  0  0  0  0
  9 13  1  0  0  0  0
 10 22  1  0  0  0  0
 11  5  1  0  0  0  0
 12  8  1  0  0  0  0
 13 20  1  0  0  0  0
 14 25  1  0  0  0  0
 14  2  1  0  0  0  0
 15 12  1  0  0  0  0
 16  8  1  0  0  0  0
 17 25  1  0  0  0  0
 17 10  1  0  0  0  0
 17 28  1  0  0  0  0
 18  4  2  0  0  0  0
 19  3  1  0  0  0  0
 20 18  1  0  0  0  0
 20 11  2  0  0  0  0
 21 23  1  0  0  0  0
 22 24  1  0  0  0  0
 24 13  1  0  0  0  0
 25  9  1  0  0  0  0
 26 21  1  0  0  0  0
 27  1  1  0  0  0  0
 29 28  1  0  0  0  0
 29 32  1  0  0  0  0
 31 33  1  0  0  0  0
 31 32  1  0  0  0  0
 32 34  1  0  0  0  0
 33 30  1  0  0  0  0
 34 30  1  0  0  0  0
M  END
>  <MODEL>
6

>  <REMARK>
 VINA RESULT:      -6.1      2.020      2.755
  Name = 
  3 active torsions:
  status: ('A' for Active; 'I' for Inactive)
    1  A    between atoms: C_17  and  N_28
    2  A    between atoms: N_28  and  O_29
    3  A    between atoms: O_29  and  C_32
                            x       y       z     vdW  Elec       q    Type
                         _______ _______ _______ _____ _____    ______ ____

>  <TORSDO>
F 3

$$$$
=
 OpenBabel11122412283D

 34 40  0  0  1  0  0  0  0  0999 V2000
  187.9130  178.2560  139.7480 C   0  0  1  0  0  3  0  0  0  0  0  0
  190.1360  177.4740  139.3750 C   0  0  0  0  0  2  0  0  0  0  0  0
  181.6360  177.0520  138.3980 C   0  0  1  0  0  3  0  0  0  0  0  0
  185.4350  178.6050  140.1070 C   0  0  0  0  0  0  0  0  0  0  0  0
  183.8380  178.3150  138.2950 C   0  0  0  0  0  0  0  0  0  0  0  0
  182.2670  178.3770  136.3970 N   0  0  0  0  0  1  0  0  0  0  0  0
  181.8390  175.9350  137.5860 O   0  0  0  0  0  1  0  0  0  0  0  0
  181.9750  177.8630  140.8270 C   0  0  0  0  0  2  0  0  0  0  0  0
  188.6960  177.7040  137.5880 C   0  0  2  0  0  3  0  0  0  0  0  0
  188.6750  176.0070  134.8100 C   0  0  0  0  0  2  0  0  0  0  0  0
  184.8810  177.9240  137.4450 C   0  0  0  0  0  3  0  0  0  0  0  0
  182.9840  178.9990  140.5660 C   0  0  0  0  0  2  0  0  0  0  0  0
  187.3080  177.4110  136.9900 C   0  0  1  0  0  3  0  0  0  0  0  0
  191.1830  176.7520  138.0780 S   0  0  0  0  0  0  0  0  0  0  0  0
  184.1140  178.6400  139.6350 C   0  0  0  0  0  0  0  0  0  0  0  0
  182.0200  176.6880  139.8400 C   0  0  0  0  0  2  0  0  0  0  0  0
  189.5230  175.7590  136.0720 C   0  0  1  0  0  3  0  0  0  0  0  0
  186.4830  178.2460  139.2370 C   0  0  0  0  0  0  0  0  0  0  0  0
  182.4010  178.2670  137.8440 C   0  0  1  0  0  3  0  0  0  0  0  0
  186.2080  177.9190  137.8940 C   0  0  0  0  0  0  0  0  0  0  0  0
  187.0390  178.9440  141.9670 C   0  0  0  0  0  2  0  0  0  0  0  0
  188.2640  177.4680  134.5960 C   0  0  0  0  0  2  0  0  0  0  0  0
  185.7070  178.8740  141.4560 O   0  0  0  0  0  0  0  0  0  0  0  0
  187.1590  177.9330  135.5520 C   0  0  0  0  0  2  0  0  0  0  0  0
  189.8710  177.0430  136.8580 C   0  0  1  0  0  3  0  0  0  0  0  0
  187.9350  177.9420  141.2470 C   0  0  0  0  0  2  0  0  0  0  0  0
  188.7410  177.3070  138.9920 N   0  0  2  0  0  0  0  0  0  0  0  0
  188.8610  174.7750  136.9160 N   0  0  0  0  0  2  0  0  0  0  0  0
  188.0680  174.0230  136.1160 O   0  0  0  0  0  0  0  0  0  0  0  0
  184.9000  173.1410  137.1060 O   0  0  0  0  0  0  0  0  0  0  0  0
  186.8340  172.0120  136.3620 C   0  0  0  0  0  2  0  0  0  0  0  0
  187.2610  173.3020  136.9960 C   0  0  2  0  0  3  0  0  0  0  0  0
  185.3410  172.1660  136.2010 C   0  0  0  0  0  2  0  0  0  0  0  0
  185.9640  174.0490  137.2160 C   0  0  0  0  0  2  0  0  0  0  0  0
  1 26  1  1  0  0  0
  3  7  1  6  0  0  0
  3 16  1  0  0  0  0
  4 23  1  0  0  0  0
  5 15  2  0  0  0  0
  6 19  1  0  0  0  0
  9 27  1  0  0  0  0
 10 17  1  0  0  0  0
 11 20  2  0  0  0  0
 11  5  1  0  0  0  0
 12  8  1  0  0  0  0
 13  9  1  0  0  0  0
 13 20  1  0  0  0  0
 14  2  1  0  0  0  0
 15  4  1  0  0  0  0
 15 12  1  0  0  0  0
 16  8  1  0  0  0  0
 17 25  1  0  0  0  0
 17 28  1  0  0  0  0
 18  1  1  0  0  0  0
 18  4  2  0  0  0  0
 19  5  1  0  0  0  0
 19  3  1  0  0  0  0
 20 18  1  0  0  0  0
 22 10  1  0  0  0  0
 22 24  1  0  0  0  0
 23 21  1  0  0  0  0
 24 13  1  0  0  0  0
 25  9  1  0  0  0  0
 25 14  1  0  0  0  0
 26 21  1  0  0  0  0
 27  2  1  0  0  0  0
 27  1  1  0  0  0  0
 29 28  1  0  0  0  0
 29 32  1  0  0  0  0
 30 34  1  0  0  0  0
 31 32  1  0  0  0  0
 32 34  1  0  0  0  0
 33 31  1  0  0  0  0
 33 30  1  0  0  0  0
M  END
>  <MODEL>
7

>  <REMARK>
 VINA RESULT:      -6.1      1.435      1.842
  Name = 
  3 active torsions:
  status: ('A' for Active; 'I' for Inactive)
    1  A    between atoms: C_17  and  N_28
    2  A    between atoms: N_28  and  O_29
    3  A    between atoms: O_29  and  C_32
                            x       y       z     vdW  Elec       q    Type
                         _______ _______ _______ _____ _____    ______ ____

>  <TORSDO>
F 3

$$$$
=
 OpenBabel11122412283D

 34 40  0  0  1  0  0  0  0  0999 V2000
  184.3700  178.5830  138.7230 C   0  0  1  0  0  3  0  0  0  0  0  0
  182.4520  178.1220  137.3790 C   0  0  0  0  0  2  0  0  0  0  0  0
  187.2430  177.1780  144.4180 C   0  0  1  0  0  3  0  0  0  0  0  0
  186.3400  178.6070  140.3070 C   0  0  0  0  0  0  0  0  0  0  0  0
  186.0270  178.6240  142.7190 C   0  0  0  0  0  0  0  0  0  0  0  0
  185.7210  179.0030  145.1350 N   0  0  0  0  0  1  0  0  0  0  0  0
  186.2590  176.3160  144.9070 O   0  0  0  0  0  1  0  0  0  0  0  0
  188.9480  177.4000  142.4920 C   0  0  0  0  0  2  0  0  0  0  0  0
  182.1800  178.6480  139.6080 C   0  0  2  0  0  3  0  0  0  0  0  0
  179.8010  177.6850  141.6110 C   0  0  0  0  0  2  0  0  0  0  0  0
  184.6400  178.5480  142.5340 C   0  0  0  0  0  3  0  0  0  0  0  0
  188.3740  178.6520  141.8010 C   0  0  0  0  0  2  0  0  0  0  0  0
  182.5950  178.3850  141.0670 C   0  0  1  0  0  3  0  0  0  0  0  0
  180.6630  177.8360  137.5180 S   0  0  0  0  0  0  0  0  0  0  0  0
  186.8800  178.6350  141.6010 C   0  0  0  0  0  0  0  0  0  0  0  0
  187.9300  176.5100  143.2180 C   0  0  0  0  0  2  0  0  0  0  0  0
  180.0840  177.2160  140.1720 C   0  0  1  0  0  3  0  0  0  0  0  0
  184.9430  178.5680  140.1280 C   0  0  0  0  0  0  0  0  0  0  0  0
  186.6390  178.5560  144.0950 C   0  0  1  0  0  3  0  0  0  0  0  0
  184.0860  178.5550  141.2480 C   0  0  0  0  0  0  0  0  0  0  0  0
  186.6940  178.6270  137.8520 C   0  0  0  0  0  2  0  0  0  0  0  0
  180.2730  179.1100  141.9190 C   0  0  0  0  0  2  0  0  0  0  0  0
  187.1890  178.5630  139.1910 O   0  0  0  0  0  0  0  0  0  0  0  0
  181.7940  179.2250  142.0730 C   0  0  0  0  0  2  0  0  0  0  0  0
  180.7270  178.2950  139.2730 C   0  0  1  0  0  3  0  0  0  0  0  0
  185.3490  177.9160  137.7510 C   0  0  0  0  0  2  0  0  0  0  0  0
  183.0560  177.9270  138.6910 N   0  0  2  0  0  0  0  0  0  0  0  0
  180.8830  175.9980  140.2060 N   0  0  0  0  0  2  0  0  0  0  0  0
  180.0270  174.9500  140.1600 O   0  0  0  0  0  0  0  0  0  0  0  0
  181.0670  173.2450  137.3670 O   0  0  0  0  0  0  0  0  0  0  0  0
  179.0710  173.4290  138.6110 C   0  0  0  0  0  2  0  0  0  0  0  0
  179.8580  174.6920  138.8000 C   0  0  2  0  0  3  0  0  0  0  0  0
  180.0550  172.4830  137.9680 C   0  0  0  0  0  2  0  0  0  0  0  0
  181.2000  174.3840  138.1750 C   0  0  0  0  0  2  0  0  0  0  0  0
  1 26  1  6  0  0  0
  1 18  1  0  0  0  0
  2 14  1  0  0  0  0
  2 27  1  0  0  0  0
  3  7  1  6  0  0  0
  4 15  1  0  0  0  0
  5 19  1  0  0  0  0
  8 16  1  0  0  0  0
  9 13  1  0  0  0  0
 10 22  1  0  0  0  0
 11  5  1  0  0  0  0
 12  8  1  0  0  0  0
 13 20  1  0  0  0  0
 13 24  1  0  0  0  0
 14 25  1  0  0  0  0
 15 12  1  0  0  0  0
 15  5  2  0  0  0  0
 16  3  1  0  0  0  0
 17 28  1  0  0  0  0
 17 10  1  0  0  0  0
 18  4  2  0  0  0  0
 18 20  1  0  0  0  0
 19  3  1  0  0  0  0
 19  6  1  0  0  0  0
 20 11  2  0  0  0  0
 21 23  1  0  0  0  0
 22 24  1  0  0  0  0
 23  4  1  0  0  0  0
 25  9  1  0  0  0  0
 25 17  1  0  0  0  0
 26 21  1  0  0  0  0
 27  1  1  0  0  0  0
 27  9  1  0  0  0  0
 29 28  1  0  0  0  0
 30 33  1  0  0  0  0
 30 34  1  0  0  0  0
 31 32  1  0  0  0  0
 32 29  1  0  0  0  0
 33 31  1  0  0  0  0
 34 32  1  0  0  0  0
M  END
>  <MODEL>
8

>  <REMARK>
 VINA RESULT:      -6.0      3.666      6.571
  Name = 
  3 active torsions:
  status: ('A' for Active; 'I' for Inactive)
    1  A    between atoms: C_17  and  N_28
    2  A    between atoms: N_28  and  O_29
    3  A    between atoms: O_29  and  C_32
                            x       y       z     vdW  Elec       q    Type
                         _______ _______ _______ _____ _____    ______ ____

>  <TORSDO>
F 3

$$$$
=
 OpenBabel11122412283D

 34 40  0  0  1  0  0  0  0  0999 V2000
  186.9500  178.5760  140.4340 C   0  0  1  0  0  3  0  0  0  0  0  0
  189.2470  177.9390  140.3400 C   0  0  0  0  0  2  0  0  0  0  0  0
  181.0050  177.1150  138.1530 C   0  0  1  0  0  3  0  0  0  0  0  0
  184.4290  178.7690  140.4570 C   0  0  0  0  0  0  0  0  0  0  0  0
  183.1190  178.5000  138.4250 C   0  0  0  0  0  0  0  0  0  0  0  0
  181.8240  178.5860  136.3290 N   0  0  0  0  0  1  0  0  0  0  0  0
  181.3880  176.0600  137.3220 O   0  0  0  0  0  1  0  0  0  0  0  0
  180.9560  177.8010  140.6420 C   0  0  0  0  0  2  0  0  0  0  0  0
  188.0560  178.1940  138.3820 C   0  0  2  0  0  3  0  0  0  0  0  0
  188.5230  176.6630  135.5470 C   0  0  0  0  0  2  0  0  0  0  0  0
  184.2920  178.2150  137.7130 C   0  0  0  0  0  3  0  0  0  0  0  0
  181.9180  179.0030  140.5840 C   0  0  0  0  0  2  0  0  0  0  0  0
  186.7850  177.8620  137.5800 C   0  0  1  0  0  3  0  0  0  0  0  0
  190.5060  177.3510  139.1690 S   0  0  0  0  0  0  0  0  0  0  0  0
  183.1860  178.7600  139.8060 C   0  0  0  0  0  0  0  0  0  0  0  0
  181.2090  176.6890  139.6140 C   0  0  0  0  0  2  0  0  0  0  0  0
  189.2030  176.3890  136.9020 C   0  0  1  0  0  3  0  0  0  0  0  0
  185.6080  178.5190  139.7270 C   0  0  0  0  0  0  0  0  0  0  0  0
  181.7630  178.4000  137.7740 C   0  0  1  0  0  3  0  0  0  0  0  0
  185.5410  178.2560  138.3430 C   0  0  0  0  0  0  0  0  0  0  0  0
  185.7370  179.0860  142.5390 C   0  0  0  0  0  2  0  0  0  0  0  0
  188.0570  178.1100  135.3510 C   0  0  0  0  0  2  0  0  0  0  0  0
  184.4950  178.9740  141.8430 O   0  0  0  0  0  0  0  0  0  0  0  0
  186.8040  178.4580  136.1640 C   0  0  0  0  0  2  0  0  0  0  0  0
  189.3590  177.6410  137.7930 C   0  0  1  0  0  3  0  0  0  0  0  0
  186.7830  178.1770  141.9040 C   0  0  0  0  0  2  0  0  0  0  0  0
  187.9310  177.7190  139.7560 N   0  0  2  0  0  0  0  0  0  0  0  0
  188.4930  175.3220  137.5940 N   0  0  0  0  0  2  0  0  0  0  0  0
  187.9110  174.5440  136.6500 O   0  0  0  0  0  0  0  0  0  0  0  0
  184.6710  173.5080  136.1800 O   0  0  0  0  0  0  0  0  0  0  0  0
  186.6060  172.6460  137.2190 C   0  0  0  0  0  2  0  0  0  0  0  0
  186.7020  174.1430  137.2190 C   0  0  2  0  0  3  0  0  0  0  0  0
  185.4680  172.3580  136.2710 C   0  0  0  0  0  2  0  0  0  0  0  0
  185.5580  174.5840  136.3340 C   0  0  0  0  0  2  0  0  0  0  0  0
  1 26  1  1  0  0  0
  3  7  1  6  0  0  0
  3 16  1  0  0  0  0
  4 23  1  0  0  0  0
  5 15  2  0  0  0  0
  6 19  1  0  0  0  0
  9 27  1  0  0  0  0
 10 17  1  0  0  0  0
 11 20  2  0  0  0  0
 11  5  1  0  0  0  0
 12  8  1  0  0  0  0
 13 20  1  0  0  0  0
 13  9  1  0  0  0  0
 14  2  1  0  0  0  0
 15  4  1  0  0  0  0
 15 12  1  0  0  0  0
 16  8  1  0  0  0  0
 17 28  1  0  0  0  0
 17 25  1  0  0  0  0
 18  1  1  0  0  0  0
 18  4  2  0  0  0  0
 19  3  1  0  0  0  0
 19  5  1  0  0  0  0
 20 18  1  0  0  0  0
 22 10  1  0  0  0  0
 22 24  1  0  0  0  0
 23 21  1  0  0  0  0
 24 13  1  0  0  0  0
 25  9  1  0  0  0  0
 25 14  1  0  0  0  0
 26 21  1  0  0  0  0
 27  2  1  0  0  0  0
 27  1  1  0  0  0  0
 29 32  1  0  0  0  0
 29 28  1  0  0  0  0
 30 33  1  0  0  0  0
 30 34  1  0  0  0  0
 31 32  1  0  0  0  0
 33 31  1  0  0  0  0
 34 32  1  0  0  0  0
M  END
>  <MODEL>
9

>  <REMARK>
 VINA RESULT:      -6.0      1.705      2.448
  Name = 
  3 active torsions:
  status: ('A' for Active; 'I' for Inactive)
    1  A    between atoms: C_17  and  N_28
    2  A    between atoms: N_28  and  O_29
    3  A    between atoms: O_29  and  C_32
                            x       y       z     vdW  Elec       q    Type
                         _______ _______ _______ _____ _____    ______ ____

>  <TORSDO>
F 3

$$$$
