=
 OpenBabel11122410453D

 32 37  0  0  1  0  0  0  0  0999 V2000
  181.2160  178.9710  139.8170 C   0  0  0  0  0  2  0  0  0  0  0  0
  186.0980  178.4780  142.6050 C   0  0  1  0  0  3  0  0  0  0  0  0
  190.1560  177.8590  139.7750 C   0  0  0  0  0  2  0  0  0  0  0  0
  190.8290  177.1990  140.9450 C   0  0  0  0  0  3  0  0  0  0  0  0
  186.4970  178.3040  145.1450 C   0  0  0  0  0  0  0  0  0  0  0  0
  187.3420  177.9230  146.1830 C   0  0  0  0  0  0  0  0  0  0  0  0
  183.7860  178.1920  141.4890 C   0  0  2  0  0  3  0  0  0  0  0  0
  185.8800  178.6290  140.0970 C   0  0  0  0  0  2  0  0  0  0  0  0
  189.1860  177.1650  147.0930 N   0  0  0  0  0  0  0  0  0  0  0  0
  183.6520  179.1560  139.1330 C   0  0  0  0  0  2  0  0  0  0  0  0
  188.6620  177.9230  139.9300 C   0  0  0  0  0  3  0  0  0  0  0  0
  186.5810  177.9080  141.2640 C   0  0  1  0  0  3  0  0  0  0  0  0
  188.0770  177.8780  141.1360 C   0  0  0  0  0  0  0  0  0  0  0  0
  188.2930  177.6180  143.6110 C   0  0  0  0  0  0  0  0  0  0  0  0
  188.3000  177.5390  148.0460 C   0  0  0  0  0  3  0  0  0  0  0  0
  181.6380  178.0290  140.9460 C   0  0  0  0  0  2  0  0  0  0  0  0
  184.4560  179.0960  140.4300 C   0  0  1  0  0  3  0  0  0  0  0  0
  187.1410  178.0180  147.5140 N   0  0  0  0  0  0  0  0  0  0  0  0
  182.5140  178.6720  141.8260 O   0  0  0  0  0  0  0  0  0  0  0  0
  182.3360  179.9020  139.3420 C   0  0  1  0  0  3  0  0  0  0  0  0
  190.2230  177.1110  142.1290 C   0  0  0  0  0  3  0  0  0  0  0  0
  188.8680  177.5640  142.2950 N   0  0  0  0  0  0  0  0  0  0  0  0
  189.0670  177.2760  144.6890 N   0  0  0  0  0  0  0  0  0  0  0  0
  184.6260  178.0650  142.7710 C   0  0  0  0  0  2  0  0  0  0  0  0
  185.1990  178.9690  145.4760 C   0  0  0  0  0  1  0  0  0  0  0  0
  190.5260  176.6430  147.2960 C   0  0  0  0  0  1  0  0  0  0  0  0
  186.9520  178.0890  143.8080 C   0  0  0  0  0  0  0  0  0  0  0  0
  188.5660  177.4120  145.9370 C   0  0  0  0  0  0  0  0  0  0  0  0
  181.9270  180.5460  138.1030 N   0  0  0  0  0  2  0  0  0  0  0  0
  180.9630  181.6010  138.0650 C   0  0  0  0  0  0  0  0  0  0  0  0
  180.4040  182.0000  139.1220 O   0  0  0  0  0  0  0  0  0  0  0  0
  180.6110  182.2260  136.7650 C   0  0  0  0  0  1  0  0  0  0  0  0
  1 16  1  0  0  0  0
  2 24  1  1  0  0  0
  2 27  1  0  0  0  0
  3 11  1  0  0  0  0
  3  4  1  0  0  0  0
  4 21  2  0  0  0  0
  5 25  1  0  0  0  0
  5  6  1  0  0  0  0
  6 18  1  0  0  0  0
  7 19  1  0  0  0  0
  7 24  1  1  0  0  0
  8 17  1  0  0  0  0
  9 26  1  0  0  0  0
  9 15  1  0  0  0  0
 10 20  1  0  0  0  0
 11 13  2  0  0  0  0
 12  8  1  6  0  0  0
 12  2  1  0  0  0  0
 13 12  1  0  0  0  0
 13 22  1  0  0  0  0
 14 27  1  0  0  0  0
 14 23  2  0  0  0  0
 16 19  1  0  0  0  0
 17 10  1  6  0  0  0
 17  7  1  0  0  0  0
 18 15  2  0  0  0  0
 20 29  1  6  0  0  0
 20  1  1  0  0  0  0
 21 22  1  0  0  0  0
 22 14  1  0  0  0  0
 23 28  1  0  0  0  0
 27  5  2  0  0  0  0
 28  6  2  0  0  0  0
 28  9  1  0  0  0  0
 30 29  1  0  0  0  0
 30 31  2  0  0  0  0
 32 30  1  0  0  0  0
M  END
>  <MODEL>
1

>  <REMARK>
 VINA RESULT:     -10.2      0.000      0.000
  Name = 
  1 active torsions:
  status: ('A' for Active; 'I' for Inactive)
    1  A    between atoms: C_20  and  N_29
                            x       y       z     vdW  Elec       q    Type
                         _______ _______ _______ _____ _____    ______ ____

>  <TORSDO>
F 1

$$$$
=
 OpenBabel11122410453D

 32 37  0  0  1  0  0  0  0  0999 V2000
  187.2140  178.5510  147.8150 C   0  0  0  0  0  2  0  0  0  0  0  0
  184.3420  178.3790  142.9590 C   0  0  1  0  0  3  0  0  0  0  0  0
  187.1020  178.0360  138.8220 C   0  0  0  0  0  2  0  0  0  0  0  0
  185.9680  178.6540  138.0550 C   0  0  0  0  0  3  0  0  0  0  0  0
  181.8120  178.6790  142.5680 C   0  0  0  0  0  0  0  0  0  0  0  0
  180.7850  178.9840  141.6810 C   0  0  0  0  0  0  0  0  0  0  0  0
  185.5370  178.9850  145.1680 C   0  0  2  0  0  3  0  0  0  0  0  0
  186.8360  178.0720  143.1700 C   0  0  0  0  0  2  0  0  0  0  0  0
  179.8860  179.4680  139.7410 N   0  0  0  0  0  0  0  0  0  0  0  0
  187.8160  177.8780  145.4440 C   0  0  0  0  0  2  0  0  0  0  0  0
  186.9820  178.2530  140.3050 C   0  0  0  0  0  3  0  0  0  0  0  0
  185.7090  178.7450  142.3650 C   0  0  1  0  0  3  0  0  0  0  0  0
  185.7990  178.4970  140.8870 C   0  0  0  0  0  0  0  0  0  0  0  0
  183.3460  178.9090  140.6580 C   0  0  0  0  0  0  0  0  0  0  0  0
  178.9310  179.3360  140.6920 C   0  0  0  0  0  3  0  0  0  0  0  0
  186.1480  179.4880  147.2440 C   0  0  0  0  0  2  0  0  0  0  0  0
  186.5070  177.8950  144.6590 C   0  0  1  0  0  3  0  0  0  0  0  0
  179.4560  179.0320  141.9120 N   0  0  0  0  0  0  0  0  0  0  0  0
  185.1990  178.7700  146.5090 O   0  0  0  0  0  0  0  0  0  0  0  0
  187.5870  177.3990  146.8760 C   0  0  1  0  0  3  0  0  0  0  0  0
  184.8100  178.9430  138.6500 C   0  0  0  0  0  3  0  0  0  0  0  0
  184.6460  178.7550  140.0660 N   0  0  0  0  0  0  0  0  0  0  0  0
  182.2770  179.1910  139.8490 N   0  0  0  0  0  0  0  0  0  0  0  0
  184.2470  179.0610  144.3350 C   0  0  0  0  0  2  0  0  0  0  0  0
  181.4670  178.2860  143.9680 C   0  0  0  0  0  1  0  0  0  0  0  0
  179.6870  179.7560  138.3320 C   0  0  0  0  0  1  0  0  0  0  0  0
  183.1500  178.7030  142.0650 C   0  0  0  0  0  0  0  0  0  0  0  0
  181.0350  179.2450  140.3810 C   0  0  0  0  0  0  0  0  0  0  0  0
  188.7840  176.7430  147.3790 N   0  0  0  0  0  2  0  0  0  0  0  0
  190.0840  176.9910  146.8370 C   0  0  0  0  0  0  0  0  0  0  0  0
  190.2370  177.7820  145.8680 O   0  0  0  0  0  0  0  0  0  0  0  0
  191.2640  176.3010  147.4170 C   0  0  0  0  0  1  0  0  0  0  0  0
  2 24  1  1  0  0  0
  3 11  1  0  0  0  0
  4 21  2  0  0  0  0
  4  3  1  0  0  0  0
  5 25  1  0  0  0  0
  6 18  1  0  0  0  0
  6  5  2  0  0  0  0
  7 24  1  6  0  0  0
  7 19  1  0  0  0  0
  9 28  1  0  0  0  0
  9 15  1  0  0  0  0
 10 20  1  0  0  0  0
 11 13  2  0  0  0  0
 12  2  1  0  0  0  0
 12  8  1  1  0  0  0
 13 12  1  0  0  0  0
 14 27  2  0  0  0  0
 15 18  2  0  0  0  0
 16  1  1  0  0  0  0
 17  8  1  6  0  0  0
 17  7  1  0  0  0  0
 17 10  1  0  0  0  0
 19 16  1  0  0  0  0
 20 29  1  1  0  0  0
 20  1  1  0  0  0  0
 21 22  1  0  0  0  0
 22 14  1  0  0  0  0
 22 13  1  0  0  0  0
 23 28  2  0  0  0  0
 23 14  1  0  0  0  0
 26  9  1  0  0  0  0
 27  5  1  0  0  0  0
 27  2  1  0  0  0  0
 28  6  1  0  0  0  0
 30 29  1  0  0  0  0
 30 32  1  0  0  0  0
 31 30  2  0  0  0  0
M  END
>  <MODEL>
2

>  <REMARK>
 VINA RESULT:      -9.2      2.728      8.275
  Name = 
  1 active torsions:
  status: ('A' for Active; 'I' for Inactive)
    1  A    between atoms: C_20  and  N_29
                            x       y       z     vdW  Elec       q    Type
                         _______ _______ _______ _____ _____    ______ ____

>  <TORSDO>
F 1

$$$$
=
 OpenBabel11122410453D

 32 37  0  0  1  0  0  0  0  0999 V2000
  192.8950  174.8380  135.6950 C   0  0  0  0  0  2  0  0  0  0  0  0
  189.6710  177.4630  139.5110 C   0  0  1  0  0  3  0  0  0  0  0  0
  191.6620  177.9610  144.0550 C   0  0  0  0  0  2  0  0  0  0  0  0
  190.2720  178.0560  144.6160 C   0  0  0  0  0  3  0  0  0  0  0  0
  187.2240  178.2430  139.2950 C   0  0  0  0  0  0  0  0  0  0  0  0
  186.0430  178.6110  139.9330 C   0  0  0  0  0  0  0  0  0  0  0  0
  190.8160  175.8430  137.8560 C   0  0  2  0  0  3  0  0  0  0  0  0
  192.0620  176.7560  139.8870 C   0  0  0  0  0  2  0  0  0  0  0  0
  184.7440  179.0800  141.6350 N   0  0  0  0  0  0  0  0  0  0  0  0
  193.3620  175.9030  137.9500 C   0  0  0  0  0  2  0  0  0  0  0  0
  191.6860  177.3810  142.6680 C   0  0  0  0  0  3  0  0  0  0  0  0
  190.6500  176.8110  140.4980 C   0  0  1  0  0  3  0  0  0  0  0  0
  190.6130  177.4300  141.8660 C   0  0  0  0  0  0  0  0  0  0  0  0
  188.2110  178.0340  141.5380 C   0  0  0  0  0  0  0  0  0  0  0  0
  184.0890  179.2700  140.4650 C   0  0  0  0  0  3  0  0  0  0  0  0
  191.4610  174.5690  136.1550 C   0  0  0  0  0  2  0  0  0  0  0  0
  192.0660  176.5980  138.3600 C   0  0  1  0  0  3  0  0  0  0  0  0
  184.8700  178.9890  139.3850 N   0  0  0  0  0  0  0  0  0  0  0  0
  190.8050  175.7660  136.4580 O   0  0  0  0  0  0  0  0  0  0  0  0
  193.5740  175.9910  136.4400 C   0  0  1  0  0  3  0  0  0  0  0  0
  189.2050  178.0530  143.8170 C   0  0  0  0  0  3  0  0  0  0  0  0
  189.3500  177.8650  142.3990 N   0  0  0  0  0  0  0  0  0  0  0  0
  187.0150  178.4150  142.0880 N   0  0  0  0  0  0  0  0  0  0  0  0
  189.5050  176.4940  138.3280 C   0  0  0  0  0  2  0  0  0  0  0  0
  187.2910  178.3070  137.8030 C   0  0  0  0  0  1  0  0  0  0  0  0
  184.2330  179.3100  142.9750 C   0  0  0  0  0  1  0  0  0  0  0  0
  188.3340  177.8770  140.1180 C   0  0  0  0  0  0  0  0  0  0  0  0
  185.9620  178.6670  141.2790 C   0  0  0  0  0  0  0  0  0  0  0  0
  194.9970  175.9830  136.1360 N   0  0  0  0  0  2  0  0  0  0  0  0
  195.5920  176.8960  135.2090 C   0  0  0  0  0  0  0  0  0  0  0  0
  194.8860  177.7390  134.5940 O   0  0  0  0  0  0  0  0  0  0  0  0
  197.0560  176.8440  134.9660 C   0  0  0  0  0  1  0  0  0  0  0  0
  1 16  1  0  0  0  0
  1 20  1  0  0  0  0
  2 24  1  6  0  0  0
  2 27  1  0  0  0  0
  2 12  1  0  0  0  0
  3  4  1  0  0  0  0
  5  6  2  0  0  0  0
  5 27  1  0  0  0  0
  6 28  1  0  0  0  0
  7 24  1  6  0  0  0
  7 17  1  0  0  0  0
  9 26  1  0  0  0  0
 11  3  1  0  0  0  0
 12  8  1  6  0  0  0
 12 13  1  0  0  0  0
 13 22  1  0  0  0  0
 13 11  2  0  0  0  0
 14 23  1  0  0  0  0
 14 22  1  0  0  0  0
 15  9  1  0  0  0  0
 16 19  1  0  0  0  0
 17 10  1  1  0  0  0
 17  8  1  0  0  0  0
 18  6  1  0  0  0  0
 18 15  2  0  0  0  0
 19  7  1  0  0  0  0
 20 29  1  1  0  0  0
 20 10  1  0  0  0  0
 21  4  2  0  0  0  0
 22 21  1  0  0  0  0
 25  5  1  0  0  0  0
 27 14  2  0  0  0  0
 28  9  1  0  0  0  0
 28 23  2  0  0  0  0
 30 29  1  0  0  0  0
 31 30  2  0  0  0  0
 32 30  1  0  0  0  0
M  END
>  <MODEL>
3

>  <REMARK>
 VINA RESULT:      -9.0      4.690      8.761
  Name = 
  1 active torsions:
  status: ('A' for Active; 'I' for Inactive)
    1  A    between atoms: C_20  and  N_29
                            x       y       z     vdW  Elec       q    Type
                         _______ _______ _______ _____ _____    ______ ____

>  <TORSDO>
F 1

$$$$
=
 OpenBabel11122410453D

 32 37  0  0  1  0  0  0  0  0999 V2000
  188.5490  178.0580  148.1620 C   0  0  0  0  0  2  0  0  0  0  0  0
  185.6410  178.1140  143.3250 C   0  0  1  0  0  3  0  0  0  0  0  0
  188.3370  177.5460  139.1700 C   0  0  0  0  0  2  0  0  0  0  0  0
  187.2520  178.2530  138.4100 C   0  0  0  0  0  3  0  0  0  0  0  0
  183.1410  178.6150  142.9500 C   0  0  0  0  0  0  0  0  0  0  0  0
  182.1360  179.0010  142.0690 C   0  0  0  0  0  0  0  0  0  0  0  0
  186.8960  178.6240  145.5250 C   0  0  2  0  0  3  0  0  0  0  0  0
  188.1040  177.6080  143.5200 C   0  0  0  0  0  2  0  0  0  0  0  0
  181.2660  179.5540  140.1340 N   0  0  0  0  0  0  0  0  0  0  0  0
  189.0800  177.3370  145.7880 C   0  0  0  0  0  2  0  0  0  0  0  0
  188.2450  177.7730  140.6530 C   0  0  0  0  0  3  0  0  0  0  0  0
  187.0300  178.3680  142.7210 C   0  0  1  0  0  3  0  0  0  0  0  0
  187.0900  178.1120  141.2430 C   0  0  0  0  0  0  0  0  0  0  0  0
  184.6750  178.7190  141.0300 C   0  0  0  0  0  0  0  0  0  0  0  0
  180.3100  179.5000  141.0920 C   0  0  0  0  0  3  0  0  0  0  0  0
  187.5590  179.0770  147.5960 C   0  0  0  0  0  2  0  0  0  0  0  0
  187.7720  177.4590  145.0120 C   0  0  1  0  0  3  0  0  0  0  0  0
  180.8170  179.1560  142.3080 N   0  0  0  0  0  0  0  0  0  0  0  0
  186.5500  178.4380  146.8690 O   0  0  0  0  0  0  0  0  0  0  0  0
  188.8230  176.8800  147.2220 C   0  0  1  0  0  3  0  0  0  0  0  0
  186.1250  178.6340  139.0120 C   0  0  0  0  0  3  0  0  0  0  0  0
  185.9560  178.4610  140.4300 N   0  0  0  0  0  0  0  0  0  0  0  0
  183.6280  179.0860  140.2270 N   0  0  0  0  0  0  0  0  0  0  0  0
  185.6110  178.8020  144.7000 C   0  0  0  0  0  2  0  0  0  0  0  0
  182.7750  178.2530  144.3530 C   0  0  0  0  0  1  0  0  0  0  0  0
  181.0810  179.8560  138.7260 C   0  0  0  0  0  1  0  0  0  0  0  0
  184.4730  178.5310  142.4380 C   0  0  0  0  0  0  0  0  0  0  0  0
  182.3980  179.2400  140.7670 C   0  0  0  0  0  0  0  0  0  0  0  0
  189.9670  176.1300  147.7180 N   0  0  0  0  0  2  0  0  0  0  0  0
  191.3090  176.4210  147.3220 C   0  0  0  0  0  0  0  0  0  0  0  0
  191.5500  177.3390  146.4930 O   0  0  0  0  0  0  0  0  0  0  0  0
  192.4300  175.6280  147.8880 C   0  0  0  0  0  1  0  0  0  0  0  0
  2 24  1  1  0  0  0
  3 11  1  0  0  0  0
  4 21  2  0  0  0  0
  4  3  1  0  0  0  0
  5 25  1  0  0  0  0
  6 18  1  0  0  0  0
  6  5  2  0  0  0  0
  7 24  1  6  0  0  0
  7 19  1  0  0  0  0
  9 28  1  0  0  0  0
  9 15  1  0  0  0  0
 10 20  1  0  0  0  0
 11 13  2  0  0  0  0
 12  2  1  0  0  0  0
 12  8  1  1  0  0  0
 13 12  1  0  0  0  0
 14 27  2  0  0  0  0
 15 18  2  0  0  0  0
 16  1  1  0  0  0  0
 17  8  1  6  0  0  0
 17  7  1  0  0  0  0
 17 10  1  0  0  0  0
 19 16  1  0  0  0  0
 20 29  1  1  0  0  0
 20  1  1  0  0  0  0
 21 22  1  0  0  0  0
 22 14  1  0  0  0  0
 22 13  1  0  0  0  0
 23 28  2  0  0  0  0
 23 14  1  0  0  0  0
 26  9  1  0  0  0  0
 27  5  1  0  0  0  0
 27  2  1  0  0  0  0
 28  6  1  0  0  0  0
 30 29  1  0  0  0  0
 30 32  1  0  0  0  0
 31 30  2  0  0  0  0
M  END
>  <MODEL>
4

>  <REMARK>
 VINA RESULT:      -8.6      2.778      8.269
  Name = 
  1 active torsions:
  status: ('A' for Active; 'I' for Inactive)
    1  A    between atoms: C_20  and  N_29
                            x       y       z     vdW  Elec       q    Type
                         _______ _______ _______ _____ _____    ______ ____

>  <TORSDO>
F 1

$$$$
=
 OpenBabel11122410453D

 32 37  0  0  1  0  0  0  0  0999 V2000
  193.6700  176.6870  138.6180 C   0  0  0  0  0  2  0  0  0  0  0  0
  188.6920  177.2850  141.2090 C   0  0  1  0  0  3  0  0  0  0  0  0
  184.8480  178.4770  138.2660 C   0  0  0  0  0  2  0  0  0  0  0  0
  184.1610  179.0720  139.4620 C   0  0  0  0  0  3  0  0  0  0  0  0
  188.1700  177.2490  143.7320 C   0  0  0  0  0  0  0  0  0  0  0  0
  187.2990  177.5940  144.7610 C   0  0  0  0  0  0  0  0  0  0  0  0
  191.0760  177.4980  140.2360 C   0  0  2  0  0  3  0  0  0  0  0  0
  189.0350  177.3550  138.7110 C   0  0  0  0  0  2  0  0  0  0  0  0
  185.4670  178.4010  145.6530 N   0  0  0  0  0  0  0  0  0  0  0  0
  191.2680  176.7530  137.8060 C   0  0  0  0  0  2  0  0  0  0  0  0
  186.3230  178.2840  138.4840 C   0  0  0  0  0  3  0  0  0  0  0  0
  188.3250  178.0140  139.9080 C   0  0  1  0  0  3  0  0  0  0  0  0
  186.8440  178.1700  139.7140 C   0  0  0  0  0  0  0  0  0  0  0  0
  186.5140  178.2110  142.1900 C   0  0  0  0  0  0  0  0  0  0  0  0
  186.2720  177.8730  146.6060 C   0  0  0  0  0  3  0  0  0  0  0  0
  193.2560  177.5470  139.8130 C   0  0  0  0  0  2  0  0  0  0  0  0
  190.4010  176.7510  139.0630 C   0  0  1  0  0  3  0  0  0  0  0  0
  187.4200  177.3590  146.0840 N   0  0  0  0  0  0  0  0  0  0  0  0
  192.2900  176.8930  140.5840 O   0  0  0  0  0  0  0  0  0  0  0  0
  192.5140  175.8930  138.0020 C   0  0  1  0  0  3  0  0  0  0  0  0
  184.7080  179.0020  140.6760 C   0  0  0  0  0  3  0  0  0  0  0  0
  186.0160  178.4330  140.8600 N   0  0  0  0  0  0  0  0  0  0  0  0
  185.7090  178.5090  143.2590 N   0  0  0  0  0  0  0  0  0  0  0  0
  190.1790  177.5670  141.4830 C   0  0  0  0  0  2  0  0  0  0  0  0
  189.3970  176.4590  144.0560 C   0  0  0  0  0  1  0  0  0  0  0  0
  184.1590  179.0030  145.8440 C   0  0  0  0  0  1  0  0  0  0  0  0
  187.8050  177.6230  142.4020 C   0  0  0  0  0  0  0  0  0  0  0  0
  186.1300  178.2170  144.5100 C   0  0  0  0  0  0  0  0  0  0  0  0
  192.9430  175.3390  136.7260 N   0  0  0  0  0  2  0  0  0  0  0  0
  193.7130  174.1390  136.6270 C   0  0  0  0  0  0  0  0  0  0  0  0
  194.0760  173.5200  137.6630 O   0  0  0  0  0  0  0  0  0  0  0  0
  194.0950  173.6210  135.2890 C   0  0  0  0  0  1  0  0  0  0  0  0
  1 16  1  0  0  0  0
  2 24  1  1  0  0  0
  2 27  1  0  0  0  0
  3 11  1  0  0  0  0
  3  4  1  0  0  0  0
  4 21  2  0  0  0  0
  5 25  1  0  0  0  0
  5  6  1  0  0  0  0
  6 18  1  0  0  0  0
  7 19  1  0  0  0  0
  7 24  1  1  0  0  0
  8 17  1  0  0  0  0
  9 26  1  0  0  0  0
  9 15  1  0  0  0  0
 10 20  1  0  0  0  0
 11 13  2  0  0  0  0
 12  8  1  6  0  0  0
 12  2  1  0  0  0  0
 13 12  1  0  0  0  0
 13 22  1  0  0  0  0
 14 27  1  0  0  0  0
 14 23  2  0  0  0  0
 16 19  1  0  0  0  0
 17 10  1  6  0  0  0
 17  7  1  0  0  0  0
 18 15  2  0  0  0  0
 20 29  1  6  0  0  0
 20  1  1  0  0  0  0
 21 22  1  0  0  0  0
 22 14  1  0  0  0  0
 23 28  1  0  0  0  0
 27  5  2  0  0  0  0
 28  6  2  0  0  0  0
 28  9  1  0  0  0  0
 30 29  1  0  0  0  0
 30 31  2  0  0  0  0
 32 30  1  0  0  0  0
M  END
>  <MODEL>
5

>  <REMARK>
 VINA RESULT:      -8.5      4.010      7.734
  Name = 
  1 active torsions:
  status: ('A' for Active; 'I' for Inactive)
    1  A    between atoms: C_20  and  N_29
                            x       y       z     vdW  Elec       q    Type
                         _______ _______ _______ _____ _____    ______ ____

>  <TORSDO>
F 1

$$$$
=
 OpenBabel11122410453D

 32 37  0  0  1  0  0  0  0  0999 V2000
  192.1080  175.5450  145.1950 C   0  0  0  0  0  2  0  0  0  0  0  0
  187.5810  177.8870  142.7720 C   0  0  1  0  0  3  0  0  0  0  0  0
  183.8150  179.0030  145.8440 C   0  0  0  0  0  2  0  0  0  0  0  0
  182.8790  178.9160  144.6720 C   0  0  0  0  0  3  0  0  0  0  0  0
  187.0990  178.2560  140.2680 C   0  0  0  0  0  0  0  0  0  0  0  0
  186.1560  178.4770  139.2690 C   0  0  0  0  0  0  0  0  0  0  0  0
  189.4610  176.3580  143.6660 C   0  0  2  0  0  3  0  0  0  0  0  0
  187.8950  177.5920  145.2570 C   0  0  0  0  0  2  0  0  0  0  0  0
  184.1620  178.8520  138.4390 N   0  0  0  0  0  0  0  0  0  0  0  0
  190.1060  176.8230  146.0870 C   0  0  0  0  0  2  0  0  0  0  0  0
  185.1370  178.3390  145.5760 C   0  0  0  0  0  3  0  0  0  0  0  0
  186.9050  177.4660  144.0850 C   0  0  1  0  0  3  0  0  0  0  0  0
  185.5970  178.1640  144.3290 C   0  0  0  0  0  0  0  0  0  0  0  0
  185.2310  178.3600  141.8650 C   0  0  0  0  0  0  0  0  0  0  0  0
  185.0970  178.8560  137.4600 C   0  0  0  0  0  3  0  0  0  0  0  0
  191.2490  175.0860  144.0150 C   0  0  0  0  0  2  0  0  0  0  0  0
  189.3550  177.3320  144.8600 C   0  0  1  0  0  3  0  0  0  0  0  0
  186.3500  178.6280  137.9420 N   0  0  0  0  0  0  0  0  0  0  0  0
  190.7950  176.1840  143.2760 O   0  0  0  0  0  0  0  0  0  0  0  0
  191.6140  176.8390  145.8490 C   0  0  1  0  0  3  0  0  0  0  0  0
  183.3360  178.6900  143.4400 C   0  0  0  0  0  3  0  0  0  0  0  0
  184.7320  178.4310  143.2110 N   0  0  0  0  0  0  0  0  0  0  0  0
  184.3690  178.5850  140.8250 N   0  0  0  0  0  0  0  0  0  0  0  0
  188.6450  176.8260  142.4490 C   0  0  0  0  0  2  0  0  0  0  0  0
  188.5480  178.2280  139.9020 C   0  0  0  0  0  1  0  0  0  0  0  0
  182.7370  179.0910  138.2930 C   0  0  0  0  0  1  0  0  0  0  0  0
  186.6240  178.1270  141.6100 C   0  0  0  0  0  0  0  0  0  0  0  0
  184.8450  178.6130  139.5600 C   0  0  0  0  0  0  0  0  0  0  0  0
  192.3150  177.0340  147.1090 N   0  0  0  0  0  2  0  0  0  0  0  0
  192.4300  176.0040  148.0930 C   0  0  0  0  0  0  0  0  0  0  0  0
  191.8970  174.8770  147.9110 O   0  0  0  0  0  0  0  0  0  0  0  0
  193.1810  176.2680  149.3470 C   0  0  0  0  0  1  0  0  0  0  0  0
  1 20  1  0  0  0  0
  2 24  1  6  0  0  0
  2 12  1  0  0  0  0
  4  3  1  0  0  0  0
  5 27  1  0  0  0  0
  6 28  1  0  0  0  0
  6  5  2  0  0  0  0
  7 24  1  6  0  0  0
  7 17  1  0  0  0  0
  9 28  1  0  0  0  0
 11  3  1  0  0  0  0
 12 13  1  0  0  0  0
 12  8  1  1  0  0  0
 13 11  2  0  0  0  0
 14 22  1  0  0  0  0
 15 18  2  0  0  0  0
 15  9  1  0  0  0  0
 16  1  1  0  0  0  0
 17  8  1  1  0  0  0
 17 10  1  0  0  0  0
 18  6  1  0  0  0  0
 19  7  1  0  0  0  0
 19 16  1  0  0  0  0
 20 10  1  0  0  0  0
 20 29  1  1  0  0  0
 21  4  2  0  0  0  0
 22 21  1  0  0  0  0
 22 13  1  0  0  0  0
 23 14  1  0  0  0  0
 25  5  1  0  0  0  0
 26  9  1  0  0  0  0
 27 14  2  0  0  0  0
 27  2  1  0  0  0  0
 28 23  2  0  0  0  0
 29 30  1  0  0  0  0
 30 32  1  0  0  0  0
 31 30  2  0  0  0  0
M  END
>  <MODEL>
6

>  <REMARK>
 VINA RESULT:      -8.4      3.507      9.338
  Name = 
  1 active torsions:
  status: ('A' for Active; 'I' for Inactive)
    1  A    between atoms: C_20  and  N_29
                            x       y       z     vdW  Elec       q    Type
                         _______ _______ _______ _____ _____    ______ ____

>  <TORSDO>
F 1

$$$$
=
 OpenBabel11122410453D

 32 37  0  0  1  0  0  0  0  0999 V2000
  179.4460  178.3560  138.2280 C   0  0  0  0  0  2  0  0  0  0  0  0
  184.3620  178.6090  140.9880 C   0  0  1  0  0  3  0  0  0  0  0  0
  188.4530  178.5050  138.1390 C   0  0  0  0  0  2  0  0  0  0  0  0
  189.2180  177.9710  139.3160 C   0  0  0  0  0  3  0  0  0  0  0  0
  184.7940  178.5460  143.5280 C   0  0  0  0  0  0  0  0  0  0  0  0
  185.6890  178.3080  144.5660 C   0  0  0  0  0  0  0  0  0  0  0  0
  182.1080  177.9800  139.8950 C   0  0  2  0  0  3  0  0  0  0  0  0
  184.1120  178.6760  138.4790 C   0  0  0  0  0  2  0  0  0  0  0  0
  187.6260  177.8350  145.4760 N   0  0  0  0  0  0  0  0  0  0  0  0
  181.8290  178.8670  137.5220 C   0  0  0  0  0  2  0  0  0  0  0  0
  186.9650  178.3630  138.3040 C   0  0  0  0  0  3  0  0  0  0  0  0
  184.9130  178.0850  139.6540 C   0  0  1  0  0  3  0  0  0  0  0  0
  186.3990  178.2620  139.5150 C   0  0  0  0  0  0  0  0  0  0  0  0
  186.6610  178.0860  141.9940 C   0  0  0  0  0  0  0  0  0  0  0  0
  186.7010  178.1000  146.4290 C   0  0  0  0  0  3  0  0  0  0  0  0
  180.0010  177.5060  139.3720 C   0  0  0  0  0  2  0  0  0  0  0  0
  182.6390  178.9460  138.8130 C   0  0  1  0  0  3  0  0  0  0  0  0
  185.4840  178.4010  145.8960 N   0  0  0  0  0  0  0  0  0  0  0  0
  180.7830  178.2830  140.2330 O   0  0  0  0  0  0  0  0  0  0  0  0
  180.4220  179.4250  137.7260 C   0  0  1  0  0  3  0  0  0  0  0  0
  188.6350  177.8230  140.5060 C   0  0  0  0  0  3  0  0  0  0  0  0
  187.2310  178.0850  140.6750 N   0  0  0  0  0  0  0  0  0  0  0  0
  187.4800  177.8780  143.0720 N   0  0  0  0  0  0  0  0  0  0  0  0
  182.9630  177.9980  141.1730 C   0  0  0  0  0  2  0  0  0  0  0  0
  183.4170  179.0280  143.8550 C   0  0  0  0  0  1  0  0  0  0  0  0
  189.0270  177.5090  145.6800 C   0  0  0  0  0  1  0  0  0  0  0  0
  185.2680  178.3690  142.1910 C   0  0  0  0  0  0  0  0  0  0  0  0
  186.9720  177.9690  144.3210 C   0  0  0  0  0  0  0  0  0  0  0  0
  179.9200  179.9790  136.4780 N   0  0  0  0  0  2  0  0  0  0  0  0
  180.3420  181.2490  135.9750 C   0  0  0  0  0  0  0  0  0  0  0  0
  181.1600  181.9580  136.6210 O   0  0  0  0  0  0  0  0  0  0  0  0
  179.8040  181.7410  134.6810 C   0  0  0  0  0  1  0  0  0  0  0  0
  1 16  1  0  0  0  0
  2 24  1  1  0  0  0
  2 27  1  0  0  0  0
  3 11  1  0  0  0  0
  3  4  1  0  0  0  0
  4 21  2  0  0  0  0
  5 25  1  0  0  0  0
  5  6  1  0  0  0  0
  6 18  1  0  0  0  0
  7 19  1  0  0  0  0
  7 24  1  1  0  0  0
  8 17  1  0  0  0  0
  9 26  1  0  0  0  0
  9 15  1  0  0  0  0
 10 20  1  0  0  0  0
 11 13  2  0  0  0  0
 12  8  1  6  0  0  0
 12  2  1  0  0  0  0
 13 12  1  0  0  0  0
 13 22  1  0  0  0  0
 14 27  1  0  0  0  0
 14 23  2  0  0  0  0
 16 19  1  0  0  0  0
 17 10  1  6  0  0  0
 17  7  1  0  0  0  0
 18 15  2  0  0  0  0
 20 29  1  6  0  0  0
 20  1  1  0  0  0  0
 21 22  1  0  0  0  0
 22 14  1  0  0  0  0
 23 28  1  0  0  0  0
 27  5  2  0  0  0  0
 28  6  2  0  0  0  0
 28  9  1  0  0  0  0
 30 29  1  0  0  0  0
 30 31  2  0  0  0  0
 32 30  1  0  0  0  0
M  END
>  <MODEL>
7

>  <REMARK>
 VINA RESULT:      -8.2      1.645      2.387
  Name = 
  1 active torsions:
  status: ('A' for Active; 'I' for Inactive)
    1  A    between atoms: C_20  and  N_29
                            x       y       z     vdW  Elec       q    Type
                         _______ _______ _______ _____ _____    ______ ____

>  <TORSDO>
F 1

$$$$
=
 OpenBabel11122410453D

 32 37  0  0  1  0  0  0  0  0999 V2000
  181.9530  179.5140  139.8970 C   0  0  0  0  0  2  0  0  0  0  0  0
  187.2130  177.7140  140.8680 C   0  0  1  0  0  3  0  0  0  0  0  0
  188.5640  177.4570  145.6610 C   0  0  0  0  0  2  0  0  0  0  0  0
  189.9960  177.5910  145.2290 C   0  0  0  0  0  3  0  0  0  0  0  0
  189.0900  177.2190  139.1730 C   0  0  0  0  0  0  0  0  0  0  0  0
  190.4520  177.0660  138.9330 C   0  0  0  0  0  0  0  0  0  0  0  0
  185.0500  179.0010  140.2860 C   0  0  2  0  0  3  0  0  0  0  0  0
  185.4900  178.1610  142.6540 C   0  0  0  0  0  2  0  0  0  0  0  0
  192.5780  176.9390  139.4490 N   0  0  0  0  0  0  0  0  0  0  0  0
  183.1560  178.6420  141.9530 C   0  0  0  0  0  2  0  0  0  0  0  0
  187.5960  177.8820  144.5910 C   0  0  0  0  0  3  0  0  0  0  0  0
  186.9640  178.3420  142.2470 C   0  0  1  0  0  3  0  0  0  0  0  0
  187.9360  177.8800  143.2940 C   0  0  0  0  0  0  0  0  0  0  0  0
  189.6810  177.5400  141.5380 C   0  0  0  0  0  0  0  0  0  0  0  0
  192.3910  176.7090  138.1280 C   0  0  0  0  0  3  0  0  0  0  0  0
  183.2990  180.0020  139.3560 C   0  0  0  0  0  2  0  0  0  0  0  0
  184.5190  178.1570  141.4650 C   0  0  1  0  0  3  0  0  0  0  0  0
  191.0780  176.7780  137.7730 N   0  0  0  0  0  0  0  0  0  0  0  0
  184.1830  178.9320  139.1880 O   0  0  0  0  0  0  0  0  0  0  0  0
  182.0750  178.3710  140.9090 C   0  0  1  0  0  3  0  0  0  0  0  0
  190.3250  177.6400  143.9380 C   0  0  0  0  0  3  0  0  0  0  0  0
  189.3070  177.6590  142.9210 N   0  0  0  0  0  0  0  0  0  0  0  0
  191.0020  177.3680  141.2200 N   0  0  0  0  0  0  0  0  0  0  0  0
  186.4550  178.5670  139.8370 C   0  0  0  0  0  2  0  0  0  0  0  0
  188.1270  176.9910  138.0520 C   0  0  0  0  0  1  0  0  0  0  0  0
  193.8360  176.9140  140.1750 C   0  0  0  0  0  1  0  0  0  0  0  0
  188.6840  177.5310  140.5070 C   0  0  0  0  0  0  0  0  0  0  0  0
  191.3540  177.1610  139.9320 C   0  0  0  0  0  0  0  0  0  0  0  0
  180.7900  178.1740  141.5630 N   0  0  0  0  0  2  0  0  0  0  0  0
  180.2600  179.1010  142.5140 C   0  0  0  0  0  0  0  0  0  0  0  0
  180.9120  180.1270  142.8440 O   0  0  0  0  0  0  0  0  0  0  0  0
  178.9310  178.8450  143.1240 C   0  0  0  0  0  1  0  0  0  0  0  0
  1 20  1  0  0  0  0
  2 24  1  6  0  0  0
  2 12  1  0  0  0  0
  4  3  1  0  0  0  0
  5 27  1  0  0  0  0
  6  5  2  0  0  0  0
  6 28  1  0  0  0  0
  7 24  1  6  0  0  0
  7 17  1  0  0  0  0
  9 28  1  0  0  0  0
  9 26  1  0  0  0  0
 11  3  1  0  0  0  0
 12  8  1  1  0  0  0
 12 13  1  0  0  0  0
 13 11  2  0  0  0  0
 14 22  1  0  0  0  0
 15  9  1  0  0  0  0
 16  1  1  0  0  0  0
 17 10  1  1  0  0  0
 17  8  1  0  0  0  0
 18 15  2  0  0  0  0
 18  6  1  0  0  0  0
 19 16  1  0  0  0  0
 19  7  1  0  0  0  0
 20 29  1  1  0  0  0
 20 10  1  0  0  0  0
 21  4  2  0  0  0  0
 22 13  1  0  0  0  0
 22 21  1  0  0  0  0
 23 14  1  0  0  0  0
 25  5  1  0  0  0  0
 27  2  1  0  0  0  0
 27 14  2  0  0  0  0
 28 23  2  0  0  0  0
 29 30  1  0  0  0  0
 30 31  2  0  0  0  0
 30 32  1  0  0  0  0
M  END
>  <MODEL>
8

>  <REMARK>
 VINA RESULT:      -8.2      2.180      5.255
  Name = 
  1 active torsions:
  status: ('A' for Active; 'I' for Inactive)
    1  A    between atoms: C_20  and  N_29
                            x       y       z     vdW  Elec       q    Type
                         _______ _______ _______ _____ _____    ______ ____

>  <TORSDO>
F 1

$$$$
=
 OpenBabel11122410453D

 32 37  0  0  1  0  0  0  0  0999 V2000
  183.0420  179.5650  138.3820 C   0  0  0  0  0  2  0  0  0  0  0  0
  186.3970  177.8650  142.5900 C   0  0  1  0  0  3  0  0  0  0  0  0
  184.4870  178.2610  147.1780 C   0  0  0  0  0  2  0  0  0  0  0  0
  185.8870  178.3200  147.7190 C   0  0  0  0  0  3  0  0  0  0  0  0
  188.8630  177.1220  142.4900 C   0  0  0  0  0  0  0  0  0  0  0  0
  190.0630  176.9240  143.1650 C   0  0  0  0  0  0  0  0  0  0  0  0
  185.1810  179.0800  140.6610 C   0  0  2  0  0  3  0  0  0  0  0  0
  183.9920  178.5720  142.8600 C   0  0  0  0  0  2  0  0  0  0  0  0
  191.4000  176.8480  144.9010 N   0  0  0  0  0  0  0  0  0  0  0  0
  182.6400  178.9750  140.8160 C   0  0  0  0  0  2  0  0  0  0  0  0
  184.4260  178.5430  145.7030 C   0  0  0  0  0  3  0  0  0  0  0  0
  185.4140  178.6810  143.4410 C   0  0  1  0  0  3  0  0  0  0  0  0
  185.4880  178.3580  144.9060 C   0  0  0  0  0  0  0  0  0  0  0  0
  187.9020  177.7620  144.6620 C   0  0  0  0  0  0  0  0  0  0  0  0
  192.0440  176.4390  143.7820 C   0  0  0  0  0  3  0  0  0  0  0  0
  184.4740  179.9600  138.7480 C   0  0  0  0  0  2  0  0  0  0  0  0
  183.9610  178.4130  141.3340 C   0  0  1  0  0  3  0  0  0  0  0  0
  191.2390  176.4720  142.6830 N   0  0  0  0  0  0  0  0  0  0  0  0
  185.1700  178.8680  139.2770 O   0  0  0  0  0  0  0  0  0  0  0  0
  182.4090  178.5720  139.3620 C   0  0  1  0  0  3  0  0  0  0  0  0
  186.9420  178.1870  146.9150 C   0  0  0  0  0  3  0  0  0  0  0  0
  186.7710  178.0750  145.4920 N   0  0  0  0  0  0  0  0  0  0  0  0
  189.1170  177.5340  145.2530 N   0  0  0  0  0  0  0  0  0  0  0  0
  186.5170  178.5740  141.2300 C   0  0  0  0  0  2  0  0  0  0  0  0
  188.7760  176.7510  141.0440 C   0  0  0  0  0  1  0  0  0  0  0  0
  191.9370  176.9120  146.2490 C   0  0  0  0  0  1  0  0  0  0  0  0
  187.7540  177.6200  143.2420 C   0  0  0  0  0  0  0  0  0  0  0  0
  190.1650  177.1470  144.4920 C   0  0  0  0  0  0  0  0  0  0  0  0
  180.9820  178.4810  139.0910 N   0  0  0  0  0  2  0  0  0  0  0  0
  180.4050  177.3950  138.3620 C   0  0  0  0  0  0  0  0  0  0  0  0
  181.1290  176.4740  137.8980 O   0  0  0  0  0  0  0  0  0  0  0  0
  178.9360  177.3560  138.1430 C   0  0  0  0  0  1  0  0  0  0  0  0
  1 16  1  0  0  0  0
  1 20  1  0  0  0  0
  2 24  1  6  0  0  0
  2 27  1  0  0  0  0
  2 12  1  0  0  0  0
  3  4  1  0  0  0  0
  5  6  2  0  0  0  0
  5 27  1  0  0  0  0
  6 28  1  0  0  0  0
  7 24  1  1  0  0  0
  7 17  1  0  0  0  0
  9 26  1  0  0  0  0
 11  3  1  0  0  0  0
 12  8  1  6  0  0  0
 12 13  1  0  0  0  0
 13 22  1  0  0  0  0
 13 11  2  0  0  0  0
 14 23  1  0  0  0  0
 14 22  1  0  0  0  0
 15  9  1  0  0  0  0
 16 19  1  0  0  0  0
 17 10  1  6  0  0  0
 17  8  1  0  0  0  0
 18  6  1  0  0  0  0
 18 15  2  0  0  0  0
 19  7  1  0  0  0  0
 20 29  1  6  0  0  0
 20 10  1  0  0  0  0
 21  4  2  0  0  0  0
 22 21  1  0  0  0  0
 25  5  1  0  0  0  0
 27 14  2  0  0  0  0
 28  9  1  0  0  0  0
 28 23  2  0  0  0  0
 30 29  1  0  0  0  0
 31 30  2  0  0  0  0
 32 30  1  0  0  0  0
M  END
>  <MODEL>
9

>  <REMARK>
 VINA RESULT:      -8.1      2.008      4.340
  Name = 
  1 active torsions:
  status: ('A' for Active; 'I' for Inactive)
    1  A    between atoms: C_20  and  N_29
                            x       y       z     vdW  Elec       q    Type
                         _______ _______ _______ _____ _____    ______ ____

>  <TORSDO>
F 1

$$$$
