=
 OpenBabel11122410303D

 30 35  0  0  1  0  0  0  0  0999 V2000
  186.0420  178.3200  141.9740 C   0  0  0  0  0  0  0  0  0  0  0  0
  183.5970  178.7150  141.8460 C   0  0  0  0  0  0  0  0  0  0  0  0
  185.9470  178.2240  146.0860 N   0  0  0  0  0  2  0  0  0  0  0  0
  187.2040  178.0720  142.7500 C   0  0  0  0  0  0  0  0  0  0  0  0
  186.1500  178.3620  140.5800 O   0  0  0  0  0  0  0  0  0  0  0  0
  189.6040  177.6470  140.0470 O   0  0  0  0  0  0  0  0  0  0  0  0
  190.1720  177.9330  143.7640 C   0  0  1  0  0  3  0  0  0  0  0  0
  188.5310  177.9200  140.6520 C   0  0  0  0  0  0  0  0  0  0  0  0
  189.4760  178.0300  145.1140 C   0  0  2  0  0  3  0  0  0  0  0  0
  187.2730  178.0590  146.2790 C   0  0  0  0  0  0  0  0  0  0  0  0
  187.3910  178.5540  139.9030 C   0  0  1  0  0  3  0  0  0  0  0  0
  188.4210  177.7100  142.0690 N   0  0  0  0  0  0  0  0  0  0  0  0
  182.3710  178.8800  142.4960 C   0  0  0  0  0  3  0  0  0  0  0  0
  190.1250  176.9710  145.9810 C   0  0  0  0  0  2  0  0  0  0  0  0
  191.5690  177.4190  144.0700 C   0  0  0  0  0  2  0  0  0  0  0  0
  183.6150  178.7720  140.4910 F   0  0  0  0  0  0  0  0  0  0  0  0
  185.8440  178.2440  144.7460 C   0  0  0  0  0  0  0  0  0  0  0  0
  182.2930  178.8310  143.8880 C   0  0  0  0  0  3  0  0  0  0  0  0
  184.7740  178.4950  142.5950 C   0  0  0  0  0  0  0  0  0  0  0  0
  187.0730  178.0820  144.1550 C   0  0  0  0  0  0  0  0  0  0  0  0
  187.7850  178.0430  147.4300 O   0  0  0  0  0  0  0  0  0  0  0  0
  188.0040  177.9530  145.1360 N   0  0  0  0  0  0  0  0  0  0  0  0
  191.5580  176.8970  145.5000 C   0  0  0  0  0  2  0  0  0  0  0  0
  189.0800  175.6480  143.2610 C   0  0  0  0  0  1  0  0  0  0  0  0
  183.4440  178.6160  144.6450 C   0  0  0  0  0  3  0  0  0  0  0  0
  184.6790  178.4460  144.0100 C   0  0  0  0  0  0  0  0  0  0  0  0
  189.5080  177.0180  142.7440 C   0  0  2  0  0  3  0  0  0  0  0  0
  187.2830  178.0670  138.4590 C   0  0  0  0  0  2  0  0  0  0  0  0
  185.5290  176.8970  137.1580 C   0  0  0  0  0  1  0  0  0  0  0  0
  185.8560  178.1510  137.9420 C   0  0  0  0  0  2  0  0  0  0  0  0
  1 19  2  0  0  0  0
  1  4  1  0  0  0  0
  2 13  2  0  0  0  0
  2 19  1  0  0  0  0
  3 10  1  0  0  0  0
  4 20  2  0  0  0  0
  5  1  1  0  0  0  0
  6  8  2  0  0  0  0
  7 15  1  1  0  0  0
  7  9  1  0  0  0  0
  8 12  1  0  0  0  0
  9 22  1  0  0  0  0
  9 14  1  1  0  0  0
 10 21  2  0  0  0  0
 11 28  1  6  0  0  0
 11  5  1  0  0  0  0
 11  8  1  0  0  0  0
 12 27  1  0  0  0  0
 12  4  1  0  0  0  0
 13 18  1  0  0  0  0
 15 23  1  0  0  0  0
 16  2  1  0  0  0  0
 17  3  1  0  0  0  0
 18 25  2  0  0  0  0
 19 26  1  0  0  0  0
 20 17  1  0  0  0  0
 20 22  1  0  0  0  0
 22 10  1  0  0  0  0
 23 14  1  0  0  0  0
 26 25  1  0  0  0  0
 26 17  2  0  0  0  0
 27 24  1  1  0  0  0
 27  7  1  0  0  0  0
 29 30  1  0  0  0  0
 30 28  1  0  0  0  0
M  END
>  <MODEL>
1

>  <REMARK>
 VINA RESULT:     -10.3      0.000      0.000
  Name = 
  2 active torsions:
  status: ('A' for Active; 'I' for Inactive)
    1  A    between atoms: C_11  and  C_28
    2  A    between atoms: C_28  and  C_30
                            x       y       z     vdW  Elec       q    Type
                         _______ _______ _______ _____ _____    ______ ____

>  <TORSDO>
F 2

$$$$
=
 OpenBabel11122410303D

 30 35  0  0  1  0  0  0  0  0999 V2000
  186.8470  178.3160  141.2360 C   0  0  0  0  0  0  0  0  0  0  0  0
  184.5150  178.7090  140.4880 C   0  0  0  0  0  0  0  0  0  0  0  0
  185.6960  178.1370  145.1820 N   0  0  0  0  0  2  0  0  0  0  0  0
  187.7710  178.0540  142.2800 C   0  0  0  0  0  0  0  0  0  0  0  0
  187.3110  178.3850  139.9170 O   0  0  0  0  0  0  0  0  0  0  0  0
  190.7900  177.6870  140.2800 O   0  0  0  0  0  0  0  0  0  0  0  0
  190.3790  177.9000  144.0230 C   0  0  1  0  0  3  0  0  0  0  0  0
  189.5950  177.9460  140.5930 C   0  0  0  0  0  0  0  0  0  0  0  0
  189.3580  177.9680  145.1490 C   0  0  2  0  0  3  0  0  0  0  0  0
  186.9280  177.9690  145.7070 C   0  0  0  0  0  0  0  0  0  0  0  0
  188.6830  178.5930  139.5870 C   0  0  1  0  0  3  0  0  0  0  0  0
  189.1260  177.7070  141.9290 N   0  0  0  0  0  0  0  0  0  0  0  0
  183.1620  178.8590  140.8040 C   0  0  0  0  0  3  0  0  0  0  0  0
  189.7680  176.8920  146.1340 C   0  0  0  0  0  2  0  0  0  0  0  0
  191.6530  177.3810  144.6690 C   0  0  0  0  0  2  0  0  0  0  0  0
  184.8820  178.7930  139.1850 F   0  0  0  0  0  0  0  0  0  0  0  0
  185.9410  178.1830  143.8610 C   0  0  0  0  0  0  0  0  0  0  0  0
  182.7280  178.7810  142.1280 C   0  0  0  0  0  3  0  0  0  0  0  0
  185.4610  178.4760  141.5120 C   0  0  0  0  0  0  0  0  0  0  0  0
  187.2830  178.0350  143.6040 C   0  0  0  0  0  0  0  0  0  0  0  0
  187.1260  177.9310  146.9500 O   0  0  0  0  0  0  0  0  0  0  0  0
  187.9300  177.8880  144.7890 N   0  0  0  0  0  0  0  0  0  0  0  0
  191.2770  176.8310  146.0370 C   0  0  0  0  0  2  0  0  0  0  0  0
  189.4690  175.6230  143.2120 C   0  0  0  0  0  1  0  0  0  0  0  0
  183.6460  178.5540  143.1520 C   0  0  0  0  0  3  0  0  0  0  0  0
  185.0050  178.3980  142.8540 C   0  0  0  0  0  0  0  0  0  0  0  0
  190.0060  177.0040  142.8490 C   0  0  2  0  0  3  0  0  0  0  0  0
  188.9540  178.1350  138.1550 C   0  0  0  0  0  2  0  0  0  0  0  0
  187.2810  178.5300  136.3720 C   0  0  0  0  0  1  0  0  0  0  0  0
  187.6990  177.5970  137.4890 C   0  0  0  0  0  2  0  0  0  0  0  0
  1 19  2  0  0  0  0
  1  4  1  0  0  0  0
  2 13  2  0  0  0  0
  2 19  1  0  0  0  0
  3 10  1  0  0  0  0
  4 20  2  0  0  0  0
  5  1  1  0  0  0  0
  6  8  2  0  0  0  0
  7 15  1  1  0  0  0
  7  9  1  0  0  0  0
  8 12  1  0  0  0  0
  9 14  1  1  0  0  0
 10 21  2  0  0  0  0
 11 28  1  6  0  0  0
 11  5  1  0  0  0  0
 11  8  1  0  0  0  0
 12  4  1  0  0  0  0
 12 27  1  0  0  0  0
 13 18  1  0  0  0  0
 15 23  1  0  0  0  0
 16  2  1  0  0  0  0
 17  3  1  0  0  0  0
 18 25  2  0  0  0  0
 19 26  1  0  0  0  0
 20 17  1  0  0  0  0
 20 22  1  0  0  0  0
 22  9  1  0  0  0  0
 22 10  1  0  0  0  0
 23 14  1  0  0  0  0
 26 25  1  0  0  0  0
 26 17  2  0  0  0  0
 27 24  1  1  0  0  0
 27  7  1  0  0  0  0
 29 30  1  0  0  0  0
 30 28  1  0  0  0  0
M  END
>  <MODEL>
2

>  <REMARK>
 VINA RESULT:     -10.1      1.061      1.217
  Name = 
  2 active torsions:
  status: ('A' for Active; 'I' for Inactive)
    1  A    between atoms: C_11  and  C_28
    2  A    between atoms: C_28  and  C_30
                            x       y       z     vdW  Elec       q    Type
                         _______ _______ _______ _____ _____    ______ ____

>  <TORSDO>
F 2

$$$$
=
 OpenBabel11122410303D

 30 35  0  0  1  0  0  0  0  0999 V2000
  189.1160  177.4200  143.5940 C   0  0  0  0  0  0  0  0  0  0  0  0
  191.1410  176.9100  144.9320 C   0  0  0  0  0  0  0  0  0  0  0  0
  186.8050  177.7780  146.9790 N   0  0  0  0  0  2  0  0  0  0  0  0
  187.7420  177.7690  143.5360 C   0  0  0  0  0  0  0  0  0  0  0  0
  189.8380  177.2930  142.4020 O   0  0  0  0  0  0  0  0  0  0  0  0
  187.4050  178.1250  139.9290 O   0  0  0  0  0  0  0  0  0  0  0  0
  184.7590  178.1050  142.6160 C   0  0  1  0  0  3  0  0  0  0  0  0
  187.9010  177.8440  141.0550 C   0  0  0  0  0  0  0  0  0  0  0  0
  184.5290  178.0650  144.1200 C   0  0  2  0  0  3  0  0  0  0  0  0
  185.6310  178.0150  146.3540 C   0  0  0  0  0  0  0  0  0  0  0  0
  189.2130  177.1130  141.1320 C   0  0  1  0  0  3  0  0  0  0  0  0
  187.1800  178.1410  142.2620 N   0  0  0  0  0  0  0  0  0  0  0  0
  191.7430  176.7330  146.1810 C   0  0  0  0  0  3  0  0  0  0  0  0
  183.5770  179.2060  144.4150 C   0  0  0  0  0  2  0  0  0  0  0  0
  183.4880  178.7000  142.0330 C   0  0  0  0  0  2  0  0  0  0  0  0
  191.9110  176.7660  143.8250 F   0  0  0  0  0  0  0  0  0  0  0  0
  187.6680  177.6670  145.9540 C   0  0  0  0  0  0  0  0  0  0  0  0
  190.9980  176.8690  147.3530 C   0  0  0  0  0  3  0  0  0  0  0  0
  189.7680  177.2300  144.8440 C   0  0  0  0  0  0  0  0  0  0  0  0
  187.0280  177.8450  144.7510 C   0  0  0  0  0  0  0  0  0  0  0  0
  184.5480  178.1270  146.9880 O   0  0  0  0  0  0  0  0  0  0  0  0
  185.7140  178.0780  144.9980 N   0  0  0  0  0  0  0  0  0  0  0  0
  182.7020  179.3120  143.1840 C   0  0  0  0  0  2  0  0  0  0  0  0
  186.1050  180.3030  142.7870 C   0  0  0  0  0  1  0  0  0  0  0  0
  189.6420  177.1830  147.2870 C   0  0  0  0  0  3  0  0  0  0  0  0
  189.0240  177.3660  146.0450 C   0  0  0  0  0  0  0  0  0  0  0  0
  185.9580  178.9220  142.1540 C   0  0  2  0  0  3  0  0  0  0  0  0
  190.1780  177.5000  140.0120 C   0  0  0  0  0  2  0  0  0  0  0  0
  190.2330  176.9540  137.5970 C   0  0  0  0  0  1  0  0  0  0  0  0
  190.3370  176.3820  138.9950 C   0  0  0  0  0  2  0  0  0  0  0  0
  1 19  1  0  0  0  0
  2 13  1  0  0  0  0
  4  1  2  0  0  0  0
  4 20  1  0  0  0  0
  5  1  1  0  0  0  0
  6  8  2  0  0  0  0
  7 15  1  6  0  0  0
  7  9  1  0  0  0  0
  8 11  1  0  0  0  0
  8 12  1  0  0  0  0
  9 14  1  1  0  0  0
  9 22  1  0  0  0  0
 10  3  1  0  0  0  0
 10 21  2  0  0  0  0
 11 28  1  6  0  0  0
 11  5  1  0  0  0  0
 12  4  1  0  0  0  0
 13 18  2  0  0  0  0
 15 23  1  0  0  0  0
 16  2  1  0  0  0  0
 17 26  1  0  0  0  0
 17  3  1  0  0  0  0
 19  2  2  0  0  0  0
 19 26  1  0  0  0  0
 20 22  1  0  0  0  0
 20 17  2  0  0  0  0
 22 10  1  0  0  0  0
 23 14  1  0  0  0  0
 25 18  1  0  0  0  0
 26 25  2  0  0  0  0
 27 12  1  0  0  0  0
 27  7  1  0  0  0  0
 27 24  1  1  0  0  0
 29 30  1  0  0  0  0
 30 28  1  0  0  0  0
M  END
>  <MODEL>
3

>  <REMARK>
 VINA RESULT:      -9.6      2.387      5.474
  Name = 
  2 active torsions:
  status: ('A' for Active; 'I' for Inactive)
    1  A    between atoms: C_11  and  C_28
    2  A    between atoms: C_28  and  C_30
                            x       y       z     vdW  Elec       q    Type
                         _______ _______ _______ _____ _____    ______ ____

>  <TORSDO>
F 2

$$$$
=
 OpenBabel11122410303D

 30 35  0  0  1  0  0  0  0  0999 V2000
  186.6870  177.8290  144.8910 C   0  0  0  0  0  0  0  0  0  0  0  0
  184.3430  178.4820  145.3750 C   0  0  0  0  0  0  0  0  0  0  0  0
  186.2410  178.6780  140.8900 N   0  0  0  0  0  2  0  0  0  0  0  0
  187.7570  177.6980  143.9680 C   0  0  0  0  0  0  0  0  0  0  0  0
  186.9020  177.5010  146.2350 O   0  0  0  0  0  0  0  0  0  0  0  0
  190.3510  176.5930  146.2700 O   0  0  0  0  0  0  0  0  0  0  0  0
  190.3670  176.7530  142.5020 C   0  0  1  0  0  3  0  0  0  0  0  0
  189.2140  176.9070  145.8220 C   0  0  0  0  0  0  0  0  0  0  0  0
  189.5710  177.1970  141.2830 C   0  0  2  0  0  3  0  0  0  0  0  0
  187.4780  178.3020  140.5020 C   0  0  0  0  0  0  0  0  0  0  0  0
  187.9910  176.6900  146.6710 C   0  0  1  0  0  3  0  0  0  0  0  0
  189.0700  177.3900  144.4770 N   0  0  0  0  0  0  0  0  0  0  0  0
  183.1130  178.9650  144.9210 C   0  0  0  0  0  3  0  0  0  0  0  0
  190.5310  178.0210  140.4490 C   0  0  0  0  0  2  0  0  0  0  0  0
  191.8100  176.6780  142.0310 C   0  0  0  0  0  2  0  0  0  0  0  0
  184.4680  178.1850  146.6920 F   0  0  0  0  0  0  0  0  0  0  0  0
  186.2710  178.4680  142.2180 C   0  0  0  0  0  0  0  0  0  0  0  0
  182.9290  179.2870  143.5760 C   0  0  0  0  0  3  0  0  0  0  0  0
  185.4180  178.3150  144.4720 C   0  0  0  0  0  0  0  0  0  0  0  0
  187.4980  177.9920  142.6120 C   0  0  0  0  0  0  0  0  0  0  0  0
  187.8280  178.3040  139.2920 O   0  0  0  0  0  0  0  0  0  0  0  0
  188.2890  177.8880  141.5130 N   0  0  0  0  0  0  0  0  0  0  0  0
  191.8900  177.3990  140.6930 C   0  0  0  0  0  2  0  0  0  0  0  0
  190.4490  179.1580  143.4390 C   0  0  0  0  0  1  0  0  0  0  0  0
  183.9750  179.1270  142.6690 C   0  0  0  0  0  3  0  0  0  0  0  0
  185.2150  178.6480  143.1070 C   0  0  0  0  0  0  0  0  0  0  0  0
  190.2780  177.6680  143.7160 C   0  0  2  0  0  3  0  0  0  0  0  0
  188.2500  176.9140  148.1590 C   0  0  0  0  0  2  0  0  0  0  0  0
  189.8120  178.6780  148.9250 C   0  0  0  0  0  1  0  0  0  0  0  0
  188.3900  178.3910  148.4900 C   0  0  0  0  0  2  0  0  0  0  0  0
  1  5  1  0  0  0  0
  2 16  1  0  0  0  0
  3 17  1  0  0  0  0
  4 12  1  0  0  0  0
  4  1  2  0  0  0  0
  5 11  1  0  0  0  0
  7 15  1  6  0  0  0
  7 27  1  0  0  0  0
  8  6  2  0  0  0  0
  8 11  1  0  0  0  0
  9 14  1  1  0  0  0
  9 22  1  0  0  0  0
  9  7  1  0  0  0  0
 10  3  1  0  0  0  0
 10 22  1  0  0  0  0
 11 28  1  1  0  0  0
 12  8  1  0  0  0  0
 13  2  1  0  0  0  0
 14 23  1  0  0  0  0
 17 20  2  0  0  0  0
 17 26  1  0  0  0  0
 18 13  2  0  0  0  0
 19  1  1  0  0  0  0
 19  2  2  0  0  0  0
 20  4  1  0  0  0  0
 21 10  2  0  0  0  0
 22 20  1  0  0  0  0
 23 15  1  0  0  0  0
 25 26  2  0  0  0  0
 25 18  1  0  0  0  0
 26 19  1  0  0  0  0
 27 24  1  6  0  0  0
 27 12  1  0  0  0  0
 28 30  1  0  0  0  0
 30 29  1  0  0  0  0
M  END
>  <MODEL>
4

>  <REMARK>
 VINA RESULT:      -9.4      2.019      5.343
  Name = 
  2 active torsions:
  status: ('A' for Active; 'I' for Inactive)
    1  A    between atoms: C_11  and  C_28
    2  A    between atoms: C_28  and  C_30
                            x       y       z     vdW  Elec       q    Type
                         _______ _______ _______ _____ _____    ______ ____

>  <TORSDO>
F 2

$$$$
=
 OpenBabel11122410303D

 30 35  0  0  1  0  0  0  0  0999 V2000
  188.1240  177.9480  141.6310 C   0  0  0  0  0  0  0  0  0  0  0  0
  189.0200  177.5520  143.9100 C   0  0  0  0  0  0  0  0  0  0  0  0
  191.6580  176.7660  139.8890 N   0  0  0  0  0  2  0  0  0  0  0  0
  188.2900  177.8960  140.2230 C   0  0  0  0  0  0  0  0  0  0  0  0
  186.9010  178.3820  142.1570 O   0  0  0  0  0  0  0  0  0  0  0  0
  184.9630  178.9830  139.2230 O   0  0  0  0  0  0  0  0  0  0  0  0
  188.0660  178.4660  137.1430 C   0  0  1  0  0  3  0  0  0  0  0  0
  185.9620  178.7290  139.9520 C   0  0  0  0  0  0  0  0  0  0  0  0
  189.5080  177.9800  137.1790 C   0  0  2  0  0  3  0  0  0  0  0  0
  191.2960  176.9940  138.6080 C   0  0  0  0  0  0  0  0  0  0  0  0
  185.9530  179.1320  141.4000 C   0  0  1  0  0  3  0  0  0  0  0  0
  187.1420  178.1350  139.3850 N   0  0  0  0  0  0  0  0  0  0  0  0
  190.0710  177.1380  144.7320 C   0  0  0  0  0  3  0  0  0  0  0  0
  189.6340  177.0000  136.0310 C   0  0  0  0  0  2  0  0  0  0  0  0
  187.6470  178.3690  135.6860 C   0  0  0  0  0  2  0  0  0  0  0  0
  187.8690  177.9600  144.5000 F   0  0  0  0  0  0  0  0  0  0  0  0
  190.5490  177.0970  140.5720 C   0  0  0  0  0  0  0  0  0  0  0  0
  191.2780  176.7080  144.1780 C   0  0  0  0  0  3  0  0  0  0  0  0
  189.1680  177.5370  142.5050 C   0  0  0  0  0  0  0  0  0  0  0  0
  189.5480  177.4990  139.7220 C   0  0  0  0  0  0  0  0  0  0  0  0
  192.1000  176.8460  137.6500 O   0  0  0  0  0  0  0  0  0  0  0  0
  190.0170  177.4290  138.4490 N   0  0  0  0  0  0  0  0  0  0  0  0
  188.6880  177.5210  134.9690 C   0  0  0  0  0  2  0  0  0  0  0  0
  187.1740  176.1620  137.8980 C   0  0  0  0  0  1  0  0  0  0  0  0
  191.4450  176.6880  142.7950 C   0  0  0  0  0  3  0  0  0  0  0  0
  190.4010  177.0960  141.9570 C   0  0  0  0  0  0  0  0  0  0  0  0
  187.0840  177.6820  138.0040 C   0  0  2  0  0  3  0  0  0  0  0  0
  184.5700  179.0270  142.0400 C   0  0  0  0  0  2  0  0  0  0  0  0
  183.7370  179.1310  144.3700 C   0  0  0  0  0  1  0  0  0  0  0  0
  184.6310  178.3740  143.4100 C   0  0  0  0  0  2  0  0  0  0  0  0
  1  5  1  0  0  0  0
  1 19  1  0  0  0  0
  2 16  1  0  0  0  0
  2 13  1  0  0  0  0
  3 17  1  0  0  0  0
  4  1  2  0  0  0  0
  6  8  2  0  0  0  0
  7 15  1  6  0  0  0
  7  9  1  0  0  0  0
  7 27  1  0  0  0  0
  8 11  1  0  0  0  0
  9 14  1  6  0  0  0
  9 22  1  0  0  0  0
 10  3  1  0  0  0  0
 11 28  1  1  0  0  0
 11  5  1  0  0  0  0
 12  8  1  0  0  0  0
 12  4  1  0  0  0  0
 17 26  1  0  0  0  0
 18 13  2  0  0  0  0
 19  2  2  0  0  0  0
 20  4  1  0  0  0  0
 20 17  2  0  0  0  0
 21 10  2  0  0  0  0
 22 10  1  0  0  0  0
 22 20  1  0  0  0  0
 23 15  1  0  0  0  0
 23 14  1  0  0  0  0
 25 18  1  0  0  0  0
 26 19  1  0  0  0  0
 26 25  2  0  0  0  0
 27 24  1  1  0  0  0
 27 12  1  0  0  0  0
 28 30  1  0  0  0  0
 30 29  1  0  0  0  0
M  END
>  <MODEL>
5

>  <REMARK>
 VINA RESULT:      -9.0      2.685      6.796
  Name = 
  2 active torsions:
  status: ('A' for Active; 'I' for Inactive)
    1  A    between atoms: C_11  and  C_28
    2  A    between atoms: C_28  and  C_30
                            x       y       z     vdW  Elec       q    Type
                         _______ _______ _______ _____ _____    ______ ____

>  <TORSDO>
F 2

$$$$
=
 OpenBabel11122410303D

 30 35  0  0  1  0  0  0  0  0999 V2000
  187.7210  177.6100  142.7260 C   0  0  0  0  0  0  0  0  0  0  0  0
  186.6900  178.1440  144.9180 C   0  0  0  0  0  0  0  0  0  0  0  0
  184.5150  179.1830  140.6830 N   0  0  0  0  0  2  0  0  0  0  0  0
  187.6810  177.6610  141.3090 C   0  0  0  0  0  0  0  0  0  0  0  0
  188.8330  177.0400  143.3560 O   0  0  0  0  0  0  0  0  0  0  0  0
  190.9250  176.1690  140.6020 O   0  0  0  0  0  0  0  0  0  0  0  0
  188.0940  177.0260  138.2620 C   0  0  1  0  0  3  0  0  0  0  0  0
  189.9060  176.5510  141.2410 C   0  0  0  0  0  0  0  0  0  0  0  0
  186.7240  177.6820  138.1720 C   0  0  2  0  0  3  0  0  0  0  0  0
  184.9540  178.8960  139.4390 C   0  0  0  0  0  0  0  0  0  0  0  0
  189.7440  176.1710  142.6860 C   0  0  1  0  0  3  0  0  0  0  0  0
  188.8590  177.2740  140.5730 N   0  0  0  0  0  0  0  0  0  0  0  0
  185.6310  178.6930  145.6460 C   0  0  0  0  0  3  0  0  0  0  0  0
  186.8140  178.6530  137.0130 C   0  0  0  0  0  2  0  0  0  0  0  0
  188.6430  177.0510  136.8450 C   0  0  0  0  0  2  0  0  0  0  0  0
  187.7300  177.6080  145.6060 F   0  0  0  0  0  0  0  0  0  0  0  0
  185.5140  178.7310  141.4600 C   0  0  0  0  0  0  0  0  0  0  0  0
  184.5360  179.2570  144.9900 C   0  0  0  0  0  3  0  0  0  0  0  0
  186.6640  178.1560  143.5060 C   0  0  0  0  0  0  0  0  0  0  0  0
  186.5270  178.2000  140.7000 C   0  0  0  0  0  0  0  0  0  0  0  0
  184.2570  179.1250  138.4150 O   0  0  0  0  0  0  0  0  0  0  0  0
  186.1800  178.3080  139.3920 N   0  0  0  0  0  0  0  0  0  0  0  0
  187.7770  178.0080  136.0390 C   0  0  0  0  0  2  0  0  0  0  0  0
  189.1910  179.2160  139.0810 C   0  0  0  0  0  1  0  0  0  0  0  0
  184.4900  179.2770  143.5970 C   0  0  0  0  0  3  0  0  0  0  0  0
  185.5440  178.7340  142.8520 C   0  0  0  0  0  0  0  0  0  0  0  0
  189.0870  177.6980  139.2000 C   0  0  2  0  0  3  0  0  0  0  0  0
  191.0710  176.1170  143.4410 C   0  0  0  0  0  2  0  0  0  0  0  0
  191.5780  176.6450  145.8080 C   0  0  0  0  0  1  0  0  0  0  0  0
  191.1790  177.2310  144.4690 C   0  0  0  0  0  2  0  0  0  0  0  0
  1  5  1  0  0  0  0
  1 19  1  0  0  0  0
  2 16  1  0  0  0  0
  2 13  1  0  0  0  0
  3 17  1  0  0  0  0
  4  1  2  0  0  0  0
  6  8  2  0  0  0  0
  7 15  1  6  0  0  0
  7 27  1  0  0  0  0
  8 11  1  0  0  0  0
  9 14  1  6  0  0  0
  9  7  1  0  0  0  0
  9 22  1  0  0  0  0
 10  3  1  0  0  0  0
 11  5  1  0  0  0  0
 11 28  1  1  0  0  0
 12  8  1  0  0  0  0
 12  4  1  0  0  0  0
 17 26  1  0  0  0  0
 18 13  2  0  0  0  0
 19  2  2  0  0  0  0
 20  4  1  0  0  0  0
 20 17  2  0  0  0  0
 21 10  2  0  0  0  0
 22 10  1  0  0  0  0
 22 20  1  0  0  0  0
 23 15  1  0  0  0  0
 23 14  1  0  0  0  0
 25 18  1  0  0  0  0
 26 19  1  0  0  0  0
 26 25  2  0  0  0  0
 27 24  1  1  0  0  0
 27 12  1  0  0  0  0
 28 30  1  0  0  0  0
 30 29  1  0  0  0  0
M  END
>  <MODEL>
6

>  <REMARK>
 VINA RESULT:      -8.7      2.407      5.814
  Name = 
  2 active torsions:
  status: ('A' for Active; 'I' for Inactive)
    1  A    between atoms: C_11  and  C_28
    2  A    between atoms: C_28  and  C_30
                            x       y       z     vdW  Elec       q    Type
                         _______ _______ _______ _____ _____    ______ ____

>  <TORSDO>
F 2

$$$$
=
 OpenBabel11122410303D

 30 35  0  0  1  0  0  0  0  0999 V2000
  187.8790  177.6150  145.1030 C   0  0  0  0  0  0  0  0  0  0  0  0
  185.9540  178.1110  146.5860 C   0  0  0  0  0  0  0  0  0  0  0  0
  185.7250  178.6160  141.7440 N   0  0  0  0  0  2  0  0  0  0  0  0
  188.4500  177.5870  143.8040 C   0  0  0  0  0  0  0  0  0  0  0  0
  188.6630  177.2400  146.2000 O   0  0  0  0  0  0  0  0  0  0  0  0
  191.8180  176.5300  144.6940 O   0  0  0  0  0  0  0  0  0  0  0  0
  190.2020  176.8600  141.3020 C   0  0  1  0  0  3  0  0  0  0  0  0
  190.5890  176.7980  144.7990 C   0  0  0  0  0  0  0  0  0  0  0  0
  188.9440  177.3120  140.5740 C   0  0  2  0  0  3  0  0  0  0  0  0
  186.6850  178.3300  140.8390 C   0  0  0  0  0  0  0  0  0  0  0  0
  189.8600  176.4730  146.0730 C   0  0  1  0  0  3  0  0  0  0  0  0
  189.8630  177.3320  143.6800 N   0  0  0  0  0  0  0  0  0  0  0  0
  184.6330  178.5420  146.7360 C   0  0  0  0  0  3  0  0  0  0  0  0
  189.4240  178.2260  139.4650 C   0  0  0  0  0  2  0  0  0  0  0  0
  191.3030  176.8890  140.2550 C   0  0  0  0  0  2  0  0  0  0  0  0
  186.6440  177.7630  147.7000 F   0  0  0  0  0  0  0  0  0  0  0  0
  186.3310  178.3490  142.9130 C   0  0  0  0  0  0  0  0  0  0  0  0
  183.8760  178.9130  145.6230 C   0  0  0  0  0  3  0  0  0  0  0  0
  186.5390  178.0460  145.3010 C   0  0  0  0  0  0  0  0  0  0  0  0
  187.6230  177.9270  142.7120 C   0  0  0  0  0  0  0  0  0  0  0  0
  186.4790  178.4060  139.5990 O   0  0  0  0  0  0  0  0  0  0  0  0
  187.8650  177.9180  141.3760 N   0  0  0  0  0  0  0  0  0  0  0  0
  190.7750  177.6730  139.0620 C   0  0  0  0  0  2  0  0  0  0  0  0
  190.6030  179.2220  142.2690 C   0  0  0  0  0  1  0  0  0  0  0  0
  184.4350  178.8550  144.3480 C   0  0  0  0  0  3  0  0  0  0  0  0
  185.7570  178.4280  144.1790 C   0  0  0  0  0  0  0  0  0  0  0  0
  190.6160  177.7130  142.4940 C   0  0  2  0  0  3  0  0  0  0  0  0
  190.7280  176.6450  147.3180 C   0  0  0  0  0  2  0  0  0  0  0  0
  192.8430  175.8140  148.3040 C   0  0  0  0  0  1  0  0  0  0  0  0
  191.5680  175.4090  147.5930 C   0  0  0  0  0  2  0  0  0  0  0  0
  1 19  1  0  0  0  0
  1  5  1  0  0  0  0
  2 13  1  0  0  0  0
  2 16  1  0  0  0  0
  3 17  1  0  0  0  0
  4  1  2  0  0  0  0
  6  8  2  0  0  0  0
  7 15  1  6  0  0  0
  7 27  1  0  0  0  0
  8 11  1  0  0  0  0
  9 14  1  6  0  0  0
  9  7  1  0  0  0  0
  9 22  1  0  0  0  0
 10 22  1  0  0  0  0
 10  3  1  0  0  0  0
 11  5  1  0  0  0  0
 11 28  1  1  0  0  0
 12  4  1  0  0  0  0
 12  8  1  0  0  0  0
 17 26  1  0  0  0  0
 18 13  2  0  0  0  0
 19  2  2  0  0  0  0
 20 17  2  0  0  0  0
 20  4  1  0  0  0  0
 21 10  2  0  0  0  0
 22 20  1  0  0  0  0
 23 14  1  0  0  0  0
 23 15  1  0  0  0  0
 25 18  1  0  0  0  0
 26 25  2  0  0  0  0
 26 19  1  0  0  0  0
 27 24  1  6  0  0  0
 27 12  1  0  0  0  0
 28 30  1  0  0  0  0
 30 29  1  0  0  0  0
M  END
>  <MODEL>
7

>  <REMARK>
 VINA RESULT:      -8.6      2.441      5.707
  Name = 
  2 active torsions:
  status: ('A' for Active; 'I' for Inactive)
    1  A    between atoms: C_11  and  C_28
    2  A    between atoms: C_28  and  C_30
                            x       y       z     vdW  Elec       q    Type
                         _______ _______ _______ _____ _____    ______ ____

>  <TORSDO>
F 2

$$$$
=
 OpenBabel11122410303D

 30 35  0  0  1  0  0  0  0  0999 V2000
  189.6720  177.5900  142.3320 C   0  0  0  0  0  0  0  0  0  0  0  0
  191.1230  177.2140  140.3550 C   0  0  0  0  0  0  0  0  0  0  0  0
  186.4950  178.6890  139.9600 N   0  0  0  0  0  2  0  0  0  0  0  0
  188.4050  177.9250  142.8760 C   0  0  0  0  0  0  0  0  0  0  0  0
  190.7170  177.2470  143.1980 O   0  0  0  0  0  0  0  0  0  0  0  0
  189.1570  177.4240  146.4020 O   0  0  0  0  0  0  0  0  0  0  0  0
  186.1180  178.9450  144.7680 C   0  0  1  0  0  3  0  0  0  0  0  0
  189.3220  177.5450  145.1560 C   0  0  0  0  0  0  0  0  0  0  0  0
  185.4500  179.2330  143.4310 C   0  0  2  0  0  3  0  0  0  0  0  0
  185.6330  178.9740  140.9600 C   0  0  0  0  0  0  0  0  0  0  0  0
  190.7130  177.5760  144.5860 C   0  0  1  0  0  3  0  0  0  0  0  0
  188.1930  177.7410  144.2890 N   0  0  0  0  0  0  0  0  0  0  0  0
  191.2830  177.2060  138.9670 C   0  0  0  0  0  3  0  0  0  0  0  0
  184.0350  178.7080  143.5630 C   0  0  0  0  0  2  0  0  0  0  0  0
  184.9920  178.9650  145.7900 C   0  0  0  0  0  2  0  0  0  0  0  0
  192.1860  176.8710  141.1240 F   0  0  0  0  0  0  0  0  0  0  0  0
  187.5910  178.2820  140.6230 C   0  0  0  0  0  0  0  0  0  0  0  0
  190.2230  177.5500  138.1280 C   0  0  0  0  0  3  0  0  0  0  0  0
  189.8800  177.5700  140.9250 C   0  0  0  0  0  0  0  0  0  0  0  0
  187.3840  178.3110  141.9810 C   0  0  0  0  0  0  0  0  0  0  0  0
  184.4860  179.4460  140.7390 O   0  0  0  0  0  0  0  0  0  0  0  0
  186.1190  178.7490  142.2100 N   0  0  0  0  0  0  0  0  0  0  0  0
  183.6800  178.9090  145.0220 C   0  0  0  0  0  2  0  0  0  0  0  0
  186.1170  176.4010  144.3250 C   0  0  0  0  0  1  0  0  0  0  0  0
  188.9890  177.9070  138.6700 C   0  0  0  0  0  3  0  0  0  0  0  0
  188.8100  177.9170  140.0580 C   0  0  0  0  0  0  0  0  0  0  0  0
  186.8620  177.6200  144.8620 C   0  0  2  0  0  3  0  0  0  0  0  0
  191.6880  176.6760  145.3420 C   0  0  0  0  0  2  0  0  0  0  0  0
  192.2360  175.7160  147.5590 C   0  0  0  0  0  1  0  0  0  0  0  0
  191.6080  176.8940  146.8440 C   0  0  0  0  0  2  0  0  0  0  0  0
  1  4  1  0  0  0  0
  1  5  1  0  0  0  0
  2 19  1  0  0  0  0
  2 16  1  0  0  0  0
  3 17  1  0  0  0  0
  3 10  1  0  0  0  0
  4 12  1  0  0  0  0
  5 11  1  0  0  0  0
  7 27  1  0  0  0  0
  7 15  1  1  0  0  0
  8  6  2  0  0  0  0
  9 14  1  1  0  0  0
  9  7  1  0  0  0  0
 10 22  1  0  0  0  0
 11  8  1  0  0  0  0
 11 28  1  1  0  0  0
 12 27  1  0  0  0  0
 12  8  1  0  0  0  0
 13  2  2  0  0  0  0
 14 23  1  0  0  0  0
 17 20  1  0  0  0  0
 18 25  2  0  0  0  0
 18 13  1  0  0  0  0
 19  1  2  0  0  0  0
 20 22  1  0  0  0  0
 20  4  2  0  0  0  0
 21 10  2  0  0  0  0
 22  9  1  0  0  0  0
 23 15  1  0  0  0  0
 25 26  1  0  0  0  0
 26 17  2  0  0  0  0
 26 19  1  0  0  0  0
 27 24  1  6  0  0  0
 28 30  1  0  0  0  0
 30 29  1  0  0  0  0
M  END
>  <MODEL>
8

>  <REMARK>
 VINA RESULT:      -8.3      2.374      6.658
  Name = 
  2 active torsions:
  status: ('A' for Active; 'I' for Inactive)
    1  A    between atoms: C_11  and  C_28
    2  A    between atoms: C_28  and  C_30
                            x       y       z     vdW  Elec       q    Type
                         _______ _______ _______ _____ _____    ______ ____

>  <TORSDO>
F 2

$$$$
=
 OpenBabel11122410303D

 30 35  0  0  1  0  0  0  0  0999 V2000
  186.3420  178.3730  142.6330 C   0  0  0  0  0  0  0  0  0  0  0  0
  188.6220  177.8770  143.4770 C   0  0  0  0  0  0  0  0  0  0  0  0
  187.5730  178.0490  138.7210 N   0  0  0  0  0  2  0  0  0  0  0  0
  185.4430  178.5170  141.5450 C   0  0  0  0  0  0  0  0  0  0  0  0
  185.8610  178.5180  143.9390 O   0  0  0  0  0  0  0  0  0  0  0  0
  182.3810  179.1070  143.4220 O   0  0  0  0  0  0  0  0  0  0  0  0
  183.0440  179.3950  139.7210 C   0  0  1  0  0  3  0  0  0  0  0  0
  183.6060  178.9500  143.1650 C   0  0  0  0  0  0  0  0  0  0  0  0
  184.0850  179.1720  138.6330 C   0  0  2  0  0  3  0  0  0  0  0  0
  186.3890  178.3570  138.1480 C   0  0  0  0  0  0  0  0  0  0  0  0
  184.6300  179.1720  144.2440 C   0  0  1  0  0  3  0  0  0  0  0  0
  184.0360  178.6460  141.8280 N   0  0  0  0  0  0  0  0  0  0  0  0
  189.9580  177.5620  143.2140 C   0  0  0  0  0  3  0  0  0  0  0  0
  183.3810  178.3720  137.5560 C   0  0  0  0  0  2  0  0  0  0  0  0
  181.7060  179.3980  138.9990 C   0  0  0  0  0  2  0  0  0  0  0  0
  188.2360  178.0030  144.7710 F   0  0  0  0  0  0  0  0  0  0  0  0
  187.2870  178.0960  140.0330 C   0  0  0  0  0  0  0  0  0  0  0  0
  190.4090  177.4210  141.9010 C   0  0  0  0  0  3  0  0  0  0  0  0
  187.7110  178.0540  142.4110 C   0  0  0  0  0  0  0  0  0  0  0  0
  185.9660  178.4110  140.2380 C   0  0  0  0  0  0  0  0  0  0  0  0
  186.2590  178.4690  136.9000 O   0  0  0  0  0  0  0  0  0  0  0  0
  185.3740  178.5740  139.0270 N   0  0  0  0  0  0  0  0  0  0  0  0
  181.9410  178.8380  137.6040 C   0  0  0  0  0  2  0  0  0  0  0  0
  183.0610  176.8980  140.3790 C   0  0  0  0  0  1  0  0  0  0  0  0
  189.5260  177.5940  140.8360 C   0  0  0  0  0  3  0  0  0  0  0  0
  188.1840  177.9060  141.0810 C   0  0  0  0  0  0  0  0  0  0  0  0
  183.0170  178.3540  140.8320 C   0  0  2  0  0  3  0  0  0  0  0  0
  184.1390  178.7500  145.6280 C   0  0  0  0  0  2  0  0  0  0  0  0
  186.0060  179.2290  147.1840 C   0  0  0  0  0  1  0  0  0  0  0  0
  185.2540  178.1340  146.4570 C   0  0  0  0  0  2  0  0  0  0  0  0
  1  5  1  0  0  0  0
  2 16  1  0  0  0  0
  3 17  1  0  0  0  0
  4 12  1  0  0  0  0
  4  1  2  0  0  0  0
  5 11  1  0  0  0  0
  7 15  1  6  0  0  0
  7 27  1  0  0  0  0
  8  6  2  0  0  0  0
  8 11  1  0  0  0  0
  9 14  1  6  0  0  0
  9 22  1  0  0  0  0
  9  7  1  0  0  0  0
 10  3  1  0  0  0  0
 10 22  1  0  0  0  0
 11 28  1  1  0  0  0
 12  8  1  0  0  0  0
 13  2  1  0  0  0  0
 14 23  1  0  0  0  0
 17 20  2  0  0  0  0
 17 26  1  0  0  0  0
 18 13  2  0  0  0  0
 19  1  1  0  0  0  0
 19  2  2  0  0  0  0
 20  4  1  0  0  0  0
 21 10  2  0  0  0  0
 22 20  1  0  0  0  0
 23 15  1  0  0  0  0
 25 26  2  0  0  0  0
 25 18  1  0  0  0  0
 26 19  1  0  0  0  0
 27 24  1  6  0  0  0
 27 12  1  0  0  0  0
 28 30  1  0  0  0  0
 30 29  1  0  0  0  0
M  END
>  <MODEL>
9

>  <REMARK>
 VINA RESULT:      -8.3      2.658      7.410
  Name = 
  2 active torsions:
  status: ('A' for Active; 'I' for Inactive)
    1  A    between atoms: C_11  and  C_28
    2  A    between atoms: C_28  and  C_30
                            x       y       z     vdW  Elec       q    Type
                         _______ _______ _______ _____ _____    ______ ____

>  <TORSDO>
F 2

$$$$
