=
 OpenBabel11122411413D

 37 44  0  0  1  0  0  0  0  0999 V2000
  187.8710  176.3920  138.7500 C   0  0  0  0  0  2  0  0  0  0  0  0
  190.3790  177.4270  142.9310 C   0  0  0  0  0  0  0  0  0  0  0  0
  186.2810  177.9580  142.2720 C   0  0  0  0  0  0  0  0  0  0  0  0
  188.7090  175.9280  137.5630 C   0  0  2  0  0  3  0  0  0  0  0  0
  185.0860  179.3490  138.7370 C   0  0  0  0  0  2  0  0  0  0  0  0
  188.0880  177.7020  143.8500 C   0  0  0  0  0  0  0  0  0  0  0  0
  186.1470  178.0740  140.7850 C   0  0  1  0  0  3  0  0  0  0  0  0
  186.9440  177.0960  136.1100 C   0  0  2  0  0  3  0  0  0  0  0  0
  187.6020  177.7550  142.5590 C   0  0  0  0  0  0  0  0  0  0  0  0
  185.1460  179.1480  140.2820 C   0  0  2  0  0  3  0  0  0  0  0  0
  187.1770  177.7840  144.9130 C   0  0  0  0  0  3  0  0  0  0  0  0
  188.4150  176.7100  136.2800 C   0  0  0  0  0  2  0  0  0  0  0  0
  188.4500  177.8250  141.4390 N   0  0  0  0  0  0  0  0  0  0  0  0
  190.5450  175.9400  142.6770 C   0  0  0  0  0  1  0  0  0  0  0  0
  183.8700  178.2200  143.0600 C   0  0  0  0  0  2  0  0  0  0  0  0
  185.8020  177.9490  144.6390 C   0  0  0  0  0  3  0  0  0  0  0  0
  189.8700  178.1120  141.6390 C   0  0  0  0  0  2  0  0  0  0  0  0
  186.5340  178.4310  136.7600 C   0  0  1  0  0  3  0  0  0  0  0  0
  185.8830  178.2570  138.0490 C   0  0  1  0  0  3  0  0  0  0  0  0
  185.3370  178.0540  143.3120 C   0  0  0  0  0  0  0  0  0  0  0  0
  187.6190  178.3650  140.3700 C   0  0  1  0  0  3  0  0  0  0  0  0
  189.4740  177.6240  144.0370 O   0  0  0  0  0  0  0  0  0  0  0  0
  183.8190  178.9030  140.8550 N   0  0  0  0  0  0  0  0  0  0  0  0
  191.7300  178.0060  143.2910 C   0  0  0  0  0  1  0  0  0  0  0  0
  187.2640  178.7800  138.0120 N   0  0  1  0  0  0  0  0  0  0  0  0
  186.0710  176.0540  136.3830 F   0  0  0  0  0  0  0  0  0  0  0  0
  187.9990  177.9060  138.9530 C   0  0  2  0  0  3  0  0  0  0  0  0
  183.6060  179.3480  142.1700 N   0  0  0  0  0  2  0  0  0  0  0  0
  183.1360  176.7050  139.9250 C   0  0  0  0  0  3  0  0  0  0  0  0
  182.8370  178.0410  140.2390 C   0  0  0  0  0  0  0  0  0  0  0  0
  181.5450  178.5260  139.9850 C   0  0  0  0  0  3  0  0  0  0  0  0
  179.3370  178.1810  139.1550 F   0  0  0  0  0  0  0  0  0  0  0  0
  180.8910  176.3760  139.0870 C   0  0  0  0  0  3  0  0  0  0  0  0
  180.5780  177.6990  139.4060 C   0  0  0  0  0  0  0  0  0  0  0  0
  182.1690  175.8770  139.3490 C   0  0  0  0  0  3  0  0  0  0  0  0
  189.8230  173.7890  136.9360 C   0  0  0  0  0  1  0  0  0  0  0  0
  188.5100  174.4400  137.3260 C   0  0  0  0  0  2  0  0  0  0  0  0
  1 27  1  0  0  0  0
  2 24  1  0  0  0  0
  2 22  1  0  0  0  0
  3  9  2  0  0  0  0
  3 20  1  0  0  0  0
  4 37  1  6  0  0  0
  4  1  1  0  0  0  0
  6 22  1  0  0  0  0
  6 11  2  0  0  0  0
  7  3  1  1  0  0  0
  8 12  1  0  0  0  0
  8 26  1  1  0  0  0
  8 18  1  0  0  0  0
  9  6  1  0  0  0  0
 10  5  1  6  0  0  0
 10  7  1  0  0  0  0
 10 23  1  0  0  0  0
 12  4  1  0  0  0  0
 13 17  1  0  0  0  0
 13  9  1  0  0  0  0
 14  2  1  0  0  0  0
 15 20  1  0  0  0  0
 16 11  1  0  0  0  0
 17  2  1  0  0  0  0
 18 25  1  0  0  0  0
 18 19  1  0  0  0  0
 19  5  1  0  0  0  0
 20 16  2  0  0  0  0
 21  7  1  0  0  0  0
 21 13  1  0  0  0  0
 23 28  1  0  0  0  0
 25 19  1  0  0  0  0
 25 27  1  0  0  0  0
 27 21  1  0  0  0  0
 28 15  1  0  0  0  0
 29 30  1  0  0  0  0
 30 23  1  0  0  0  0
 31 30  2  0  0  0  0
 32 34  1  0  0  0  0
 33 35  1  0  0  0  0
 33 34  2  0  0  0  0
 34 31  1  0  0  0  0
 35 29  2  0  0  0  0
 36 37  1  0  0  0  0
M  END
>  <MODEL>
1

>  <REMARK>
 VINA RESULT:      -7.4      0.000      0.000
  Name = 
  2 active torsions:
  status: ('A' for Active; 'I' for Inactive)
    1  A    between atoms: C_4  and  C_37
    2  A    between atoms: N_23  and  C_30
                            x       y       z     vdW  Elec       q    Type
                         _______ _______ _______ _____ _____    ______ ____

>  <TORSDO>
F 2

$$$$
=
 OpenBabel11122411413D

 37 44  0  0  1  0  0  0  0  0999 V2000
  189.5160  175.9700  138.2680 C   0  0  0  0  0  2  0  0  0  0  0  0
  190.5260  177.3830  142.9410 C   0  0  0  0  0  0  0  0  0  0  0  0
  186.9350  177.9570  140.8710 C   0  0  0  0  0  0  0  0  0  0  0  0
  190.6750  175.3550  137.4890 C   0  0  2  0  0  3  0  0  0  0  0  0
  187.0970  178.9880  137.0270 C   0  0  0  0  0  2  0  0  0  0  0  0
  188.0820  177.8220  142.9890 C   0  0  0  0  0  0  0  0  0  0  0  0
  187.3190  177.9140  139.4240 C   0  0  1  0  0  3  0  0  0  0  0  0
  189.5840  176.4080  135.4170 C   0  0  2  0  0  3  0  0  0  0  0  0
  188.0650  177.7490  141.6110 C   0  0  0  0  0  0  0  0  0  0  0  0
  186.6190  178.9560  138.5110 C   0  0  2  0  0  3  0  0  0  0  0  0
  186.8730  178.0470  143.6620 C   0  0  0  0  0  3  0  0  0  0  0  0
  190.8830  176.0010  136.1160 C   0  0  0  0  0  2  0  0  0  0  0  0
  189.2440  177.6710  140.8480 N   0  0  0  0  0  0  0  0  0  0  0  0
  190.6710  175.8720  142.8980 C   0  0  0  0  0  1  0  0  0  0  0  0
  184.4210  178.3730  140.7570 C   0  0  0  0  0  2  0  0  0  0  0  0
  185.6840  178.2210  142.9200 C   0  0  0  0  0  3  0  0  0  0  0  0
  190.5290  177.9370  141.4950 C   0  0  0  0  0  2  0  0  0  0  0  0
  189.0660  177.8180  135.7610 C   0  0  1  0  0  3  0  0  0  0  0  0
  188.0070  177.8040  136.7580 C   0  0  1  0  0  3  0  0  0  0  0  0
  185.7030  178.1940  141.5100 C   0  0  0  0  0  0  0  0  0  0  0  0
  188.8600  178.1150  139.5140 C   0  0  1  0  0  3  0  0  0  0  0  0
  189.3160  177.7250  143.6460 O   0  0  0  0  0  0  0  0  0  0  0  0
  185.1630  178.8130  138.6140 N   0  0  0  0  0  0  0  0  0  0  0  0
  191.7100  177.9570  143.6870 C   0  0  0  0  0  1  0  0  0  0  0  0
  189.3510  178.2800  137.1490 N   0  0  1  0  0  0  0  0  0  0  0  0
  188.6040  175.4290  135.4700 F   0  0  0  0  0  0  0  0  0  0  0  0
  189.6660  177.4930  138.3620 C   0  0  2  0  0  3  0  0  0  0  0  0
  184.5470  179.4050  139.7300 N   0  0  0  0  0  2  0  0  0  0  0  0
  184.8390  176.6150  137.5080 C   0  0  0  0  0  3  0  0  0  0  0  0
  184.3940  177.9180  137.7820 C   0  0  0  0  0  0  0  0  0  0  0  0
  183.1560  178.3350  137.2680 C   0  0  0  0  0  3  0  0  0  0  0  0
  181.2030  177.8910  135.9760 F   0  0  0  0  0  0  0  0  0  0  0  0
  182.8500  176.1840  136.2010 C   0  0  0  0  0  3  0  0  0  0  0  0
  182.3910  177.4730  136.4770 C   0  0  0  0  0  0  0  0  0  0  0  0
  184.0740  175.7530  136.7180 C   0  0  0  0  0  3  0  0  0  0  0  0
  191.4350  173.2970  136.3080 C   0  0  0  0  0  1  0  0  0  0  0  0
  190.4710  173.8570  137.3370 C   0  0  0  0  0  2  0  0  0  0  0  0
  1 27  1  0  0  0  0
  2 22  1  0  0  0  0
  2 24  1  0  0  0  0
  3 20  2  0  0  0  0
  3  9  1  0  0  0  0
  4 37  1  6  0  0  0
  4  1  1  0  0  0  0
  6 22  1  0  0  0  0
  6 11  1  0  0  0  0
  7 21  1  0  0  0  0
  7  3  1  1  0  0  0
  8 26  1  1  0  0  0
  8 18  1  0  0  0  0
  8 12  1  0  0  0  0
  9  6  2  0  0  0  0
 10  5  1  6  0  0  0
 10 23  1  0  0  0  0
 10  7  1  0  0  0  0
 12  4  1  0  0  0  0
 13 17  1  0  0  0  0
 13  9  1  0  0  0  0
 14  2  1  0  0  0  0
 15 20  1  0  0  0  0
 16 11  2  0  0  0  0
 17  2  1  0  0  0  0
 18 19  1  0  0  0  0
 18 25  1  0  0  0  0
 19  5  1  0  0  0  0
 19 25  1  0  0  0  0
 20 16  1  0  0  0  0
 21 13  1  0  0  0  0
 23 28  1  0  0  0  0
 25 27  1  0  0  0  0
 27 21  1  0  0  0  0
 28 15  1  0  0  0  0
 29 30  1  0  0  0  0
 30 23  1  0  0  0  0
 31 30  2  0  0  0  0
 32 34  1  0  0  0  0
 33 34  2  0  0  0  0
 33 35  1  0  0  0  0
 34 31  1  0  0  0  0
 35 29  2  0  0  0  0
 36 37  1  0  0  0  0
M  END
>  <MODEL>
2

>  <REMARK>
 VINA RESULT:      -6.7      1.773      2.248
  Name = 
  2 active torsions:
  status: ('A' for Active; 'I' for Inactive)
    1  A    between atoms: C_4  and  C_37
    2  A    between atoms: N_23  and  C_30
                            x       y       z     vdW  Elec       q    Type
                         _______ _______ _______ _____ _____    ______ ____

>  <TORSDO>
F 2

$$$$
=
 OpenBabel11122411413D

 37 44  0  0  1  0  0  0  0  0999 V2000
  188.3490  177.1790  141.2290 C   0  0  0  0  0  2  0  0  0  0  0  0
  184.4260  179.3110  143.4440 C   0  0  0  0  0  0  0  0  0  0  0  0
  184.5360  177.6420  139.6090 C   0  0  0  0  0  0  0  0  0  0  0  0
  189.6650  177.2360  141.9990 C   0  0  2  0  0  3  0  0  0  0  0  0
  187.7630  178.2560  137.3560 C   0  0  0  0  0  2  0  0  0  0  0  0
  183.2160  178.3420  141.5040 C   0  0  0  0  0  0  0  0  0  0  0  0
  185.9800  177.6910  139.2130 C   0  0  1  0  0  3  0  0  0  0  0  0
  190.7850  177.3350  139.6900 C   0  0  2  0  0  3  0  0  0  0  0  0
  184.4290  178.1520  140.8720 C   0  0  0  0  0  0  0  0  0  0  0  0
  186.2600  178.0950  137.7420 C   0  0  2  0  0  3  0  0  0  0  0  0
  182.0490  177.9230  140.8500 C   0  0  0  0  0  3  0  0  0  0  0  0
  190.8290  177.7680  141.1570 C   0  0  0  0  0  2  0  0  0  0  0  0
  185.6330  178.6680  141.3870 N   0  0  0  0  0  0  0  0  0  0  0  0
  184.8300  178.1310  144.3090 C   0  0  0  0  0  1  0  0  0  0  0  0
  183.4420  176.6000  137.5540 C   0  0  0  0  0  2  0  0  0  0  0  0
  182.1390  177.3520  139.5620 C   0  0  0  0  0  3  0  0  0  0  0  0
  185.5810  179.6490  142.4690 C   0  0  0  0  0  2  0  0  0  0  0  0
  189.9730  178.2530  138.7570 C   0  0  1  0  0  3  0  0  0  0  0  0
  188.6370  177.7470  138.4880 C   0  0  1  0  0  3  0  0  0  0  0  0
  183.3850  177.2180  138.9170 C   0  0  0  0  0  0  0  0  0  0  0  0
  186.5410  178.7110  140.2470 C   0  0  1  0  0  3  0  0  0  0  0  0
  183.2060  178.9940  142.7430 O   0  0  0  0  0  0  0  0  0  0  0  0
  185.5560  177.1870  136.8310 N   0  0  0  0  0  0  0  0  0  0  0  0
  184.1810  180.5030  144.3440 C   0  0  0  0  0  1  0  0  0  0  0  0
  188.7930  178.9130  139.3820 N   0  0  1  0  0  0  0  0  0  0  0  0
  190.5030  175.9870  139.5270 F   0  0  0  0  0  0  0  0  0  0  0  0
  188.0290  178.5360  140.5920 C   0  0  2  0  0  3  0  0  0  0  0  0
  184.1900  177.4380  136.6190 N   0  0  0  0  0  2  0  0  0  0  0  0
  186.6060  175.8300  135.0380 C   0  0  0  0  0  3  0  0  0  0  0  0
  186.1230  175.9490  136.3510 C   0  0  0  0  0  0  0  0  0  0  0  0
  186.2380  174.8520  137.2190 C   0  0  0  0  0  3  0  0  0  0  0  0
  186.8980  172.5970  137.6180 F   0  0  0  0  0  0  0  0  0  0  0  0
  187.2680  173.5430  135.4620 C   0  0  0  0  0  3  0  0  0  0  0  0
  186.8030  173.6530  136.7750 C   0  0  0  0  0  0  0  0  0  0  0  0
  187.1720  174.6320  134.5940 C   0  0  0  0  0  3  0  0  0  0  0  0
  191.1220  175.9780  143.5820 C   0  0  0  0  0  1  0  0  0  0  0  0
  190.0090  175.8650  142.5570 C   0  0  0  0  0  2  0  0  0  0  0  0
  1  4  1  0  0  0  0
  2 14  1  0  0  0  0
  2 24  1  0  0  0  0
  3  9  1  0  0  0  0
  4 37  1  6  0  0  0
  5 19  1  0  0  0  0
  6 22  1  0  0  0  0
  7  3  1  6  0  0  0
  7 21  1  0  0  0  0
  8 26  1  1  0  0  0
  8 12  1  0  0  0  0
  9 13  1  0  0  0  0
  9  6  2  0  0  0  0
 10  5  1  6  0  0  0
 10  7  1  0  0  0  0
 11  6  1  0  0  0  0
 12  4  1  0  0  0  0
 13 17  1  0  0  0  0
 15 20  1  0  0  0  0
 16 11  2  0  0  0  0
 17  2  1  0  0  0  0
 18 25  1  0  0  0  0
 18  8  1  0  0  0  0
 19 18  1  0  0  0  0
 19 25  1  0  0  0  0
 20 16  1  0  0  0  0
 20  3  2  0  0  0  0
 21 27  1  0  0  0  0
 21 13  1  0  0  0  0
 22  2  1  0  0  0  0
 23 10  1  0  0  0  0
 25 27  1  0  0  0  0
 27  1  1  0  0  0  0
 28 23  1  0  0  0  0
 28 15  1  0  0  0  0
 29 30  1  0  0  0  0
 30 23  1  0  0  0  0
 30 31  2  0  0  0  0
 33 34  2  0  0  0  0
 34 31  1  0  0  0  0
 34 32  1  0  0  0  0
 35 29  2  0  0  0  0
 35 33  1  0  0  0  0
 37 36  1  0  0  0  0
M  END
>  <MODEL>
3

>  <REMARK>
 VINA RESULT:      -6.3      2.552      5.436
  Name = 
  2 active torsions:
  status: ('A' for Active; 'I' for Inactive)
    1  A    between atoms: C_4  and  C_37
    2  A    between atoms: N_23  and  C_30
                            x       y       z     vdW  Elec       q    Type
                         _______ _______ _______ _____ _____    ______ ____

>  <TORSDO>
F 2

$$$$
=
 OpenBabel11122411413D

 37 44  0  0  1  0  0  0  0  0999 V2000
  184.7870  177.8780  142.0350 C   0  0  0  0  0  2  0  0  0  0  0  0
  179.9460  178.8190  142.7600 C   0  0  0  0  0  0  0  0  0  0  0  0
  181.6310  176.6490  139.6040 C   0  0  0  0  0  0  0  0  0  0  0  0
  185.7520  178.5380  143.0160 C   0  0  2  0  0  3  0  0  0  0  0  0
  185.0190  177.9690  137.9810 C   0  0  0  0  0  2  0  0  0  0  0  0
  179.6840  177.1530  140.9380 C   0  0  0  0  0  0  0  0  0  0  0  0
  183.0420  177.1410  139.5140 C   0  0  1  0  0  3  0  0  0  0  0  0
  187.3930  178.6210  141.0420 C   0  0  2  0  0  3  0  0  0  0  0  0
  181.0230  177.3020  140.6400 C   0  0  0  0  0  0  0  0  0  0  0  0
  183.5910  177.3510  138.0780 C   0  0  2  0  0  3  0  0  0  0  0  0
  178.9310  176.2350  140.1920 C   0  0  0  0  0  3  0  0  0  0  0  0
  186.8880  179.2940  142.3210 C   0  0  0  0  0  2  0  0  0  0  0  0
  181.8190  178.2970  141.2360 N   0  0  0  0  0  0  0  0  0  0  0  0
  180.4270  178.0350  143.9680 C   0  0  0  0  0  1  0  0  0  0  0  0
  181.5280  174.9370  137.7160 C   0  0  0  0  0  2  0  0  0  0  0  0
  179.5480  175.5160  139.1450 C   0  0  0  0  0  3  0  0  0  0  0  0
  181.1710  179.3700  141.9890 C   0  0  0  0  0  2  0  0  0  0  0  0
  186.6390  179.0060  139.7550 C   0  0  1  0  0  3  0  0  0  0  0  0
  185.6500  178.0160  139.3600 C   0  0  1  0  0  3  0  0  0  0  0  0
  180.9060  175.7260  138.8270 C   0  0  0  0  0  0  0  0  0  0  0  0
  182.9540  178.4600  140.3370 C   0  0  1  0  0  3  0  0  0  0  0  0
  179.1280  177.9660  141.9330 O   0  0  0  0  0  0  0  0  0  0  0  0
  183.4800  176.1060  137.3130 N   0  0  0  0  0  0  0  0  0  0  0  0
  179.1100  179.9830  143.2460 C   0  0  0  0  0  1  0  0  0  0  0  0
  185.1890  179.3000  139.9290 N   0  0  1  0  0  0  0  0  0  0  0  0
  187.5870  177.2560  141.1840 F   0  0  0  0  0  0  0  0  0  0  0  0
  184.2650  178.8950  141.0130 C   0  0  2  0  0  3  0  0  0  0  0  0
  182.2190  175.8090  136.7680 N   0  0  0  0  0  2  0  0  0  0  0  0
  184.3140  173.8540  137.9420 C   0  0  0  0  0  3  0  0  0  0  0  0
  184.5060  175.0890  137.3020 C   0  0  0  0  0  0  0  0  0  0  0  0
  185.7020  175.3130  136.6030 C   0  0  0  0  0  3  0  0  0  0  0  0
  187.8520  174.5640  135.8980 F   0  0  0  0  0  0  0  0  0  0  0  0
  186.5000  173.1130  137.2180 C   0  0  0  0  0  3  0  0  0  0  0  0
  186.6960  174.3320  136.5660 C   0  0  0  0  0  0  0  0  0  0  0  0
  185.3070  172.8720  137.9050 C   0  0  0  0  0  3  0  0  0  0  0  0
  186.2000  177.9890  145.4050 C   0  0  0  0  0  1  0  0  0  0  0  0
  186.3200  177.5030  143.9720 C   0  0  0  0  0  2  0  0  0  0  0  0
  1  4  1  0  0  0  0
  2 24  1  0  0  0  0
  2 14  1  0  0  0  0
  3  9  1  0  0  0  0
  4 37  1  1  0  0  0
  5 19  1  0  0  0  0
  6 22  1  0  0  0  0
  7  3  1  6  0  0  0
  7 21  1  0  0  0  0
  8 26  1  1  0  0  0
  8 12  1  0  0  0  0
  9  6  2  0  0  0  0
  9 13  1  0  0  0  0
 10  5  1  1  0  0  0
 10  7  1  0  0  0  0
 11  6  1  0  0  0  0
 12  4  1  0  0  0  0
 13 17  1  0  0  0  0
 15 20  1  0  0  0  0
 16 11  2  0  0  0  0
 17  2  1  0  0  0  0
 18 25  1  0  0  0  0
 18  8  1  0  0  0  0
 19 18  1  0  0  0  0
 19 25  1  0  0  0  0
 20 16  1  0  0  0  0
 20  3  2  0  0  0  0
 21 27  1  0  0  0  0
 21 13  1  0  0  0  0
 22  2  1  0  0  0  0
 23 10  1  0  0  0  0
 25 27  1  0  0  0  0
 27  1  1  0  0  0  0
 28 23  1  0  0  0  0
 28 15  1  0  0  0  0
 30 23  1  0  0  0  0
 30 29  2  0  0  0  0
 31 30  1  0  0  0  0
 32 34  1  0  0  0  0
 33 35  2  0  0  0  0
 34 31  2  0  0  0  0
 34 33  1  0  0  0  0
 35 29  1  0  0  0  0
 37 36  1  0  0  0  0
M  END
>  <MODEL>
4

>  <REMARK>
 VINA RESULT:      -6.2      3.129      6.975
  Name = 
  2 active torsions:
  status: ('A' for Active; 'I' for Inactive)
    1  A    between atoms: C_4  and  C_37
    2  A    between atoms: N_23  and  C_30
                            x       y       z     vdW  Elec       q    Type
                         _______ _______ _______ _____ _____    ______ ____

>  <TORSDO>
F 2

$$$$
=
 OpenBabel11122411413D

 37 44  0  0  1  0  0  0  0  0999 V2000
  186.9950  177.4640  138.3730 C   0  0  0  0  0  2  0  0  0  0  0  0
  182.3880  178.8280  139.6990 C   0  0  0  0  0  0  0  0  0  0  0  0
  183.4550  175.4650  137.4490 C   0  0  0  0  0  0  0  0  0  0  0  0
  188.1140  178.4320  138.7470 C   0  0  2  0  0  3  0  0  0  0  0  0
  186.3240  175.8380  134.7120 C   0  0  0  0  0  2  0  0  0  0  0  0
  181.8240  176.5640  138.8470 C   0  0  0  0  0  0  0  0  0  0  0  0
  184.7820  175.8140  136.8490 C   0  0  1  0  0  3  0  0  0  0  0  0
  189.2730  177.6100  136.6080 C   0  0  2  0  0  3  0  0  0  0  0  0
  183.0550  176.5180  138.2240 C   0  0  0  0  0  0  0  0  0  0  0  0
  184.9890  175.3790  135.3740 C   0  0  2  0  0  3  0  0  0  0  0  0
  180.9770  175.4520  138.7400 C   0  0  0  0  0  3  0  0  0  0  0  0
  189.0250  178.7780  137.5660 C   0  0  0  0  0  2  0  0  0  0  0  0
  183.9060  177.6360  138.1560 N   0  0  0  0  0  0  0  0  0  0  0  0
  183.1650  178.6020  140.9830 C   0  0  0  0  0  1  0  0  0  0  0  0
  183.0340  173.1260  136.5220 C   0  0  0  0  0  2  0  0  0  0  0  0
  181.3880  174.3340  137.9810 C   0  0  0  0  0  3  0  0  0  0  0  0
  183.3800  178.9520  138.5160 C   0  0  0  0  0  2  0  0  0  0  0  0
  188.2340  177.4530  135.4810 C   0  0  1  0  0  3  0  0  0  0  0  0
  187.2390  176.4310  135.7660 C   0  0  1  0  0  3  0  0  0  0  0  0
  182.6290  174.3330  137.3110 C   0  0  0  0  0  0  0  0  0  0  0  0
  184.8040  177.3590  137.0430 C   0  0  1  0  0  3  0  0  0  0  0  0
  181.4570  177.7430  139.5080 O   0  0  0  0  0  0  0  0  0  0  0  0
  184.7810  173.9340  135.2450 N   0  0  0  0  0  0  0  0  0  0  0  0
  181.6150  180.1230  139.8270 C   0  0  0  0  0  1  0  0  0  0  0  0
  186.8430  177.8540  135.8350 N   0  0  1  0  0  0  0  0  0  0  0  0
  189.5700  176.4230  137.2590 F   0  0  0  0  0  0  0  0  0  0  0  0
  186.2050  177.9800  137.1640 C   0  0  2  0  0  3  0  0  0  0  0  0
  183.4500  173.4900  135.1690 N   0  0  0  0  0  2  0  0  0  0  0  0
  185.9450  171.8400  134.5940 C   0  0  0  0  0  3  0  0  0  0  0  0
  185.8350  172.9630  135.4300 C   0  0  0  0  0  0  0  0  0  0  0  0
  186.7950  173.1590  136.4340 C   0  0  0  0  0  3  0  0  0  0  0  0
  188.7470  172.4330  137.5940 F   0  0  0  0  0  0  0  0  0  0  0  0
  187.9240  171.1190  135.7850 C   0  0  0  0  0  3  0  0  0  0  0  0
  187.8320  172.2390  136.6140 C   0  0  0  0  0  0  0  0  0  0  0  0
  186.9820  170.9200  134.7720 C   0  0  0  0  0  3  0  0  0  0  0  0
  188.3080  178.2450  141.2240 C   0  0  0  0  0  1  0  0  0  0  0  0
  188.9350  177.8700  139.8940 C   0  0  0  0  0  2  0  0  0  0  0  0
  1  4  1  0  0  0  0
  2 24  1  0  0  0  0
  2 14  1  0  0  0  0
  3  9  1  0  0  0  0
  4 37  1  1  0  0  0
  5 19  1  0  0  0  0
  6 22  1  0  0  0  0
  7 21  1  0  0  0  0
  7  3  1  6  0  0  0
  8 26  1  1  0  0  0
  8 12  1  0  0  0  0
  9  6  2  0  0  0  0
 10  5  1  1  0  0  0
 10  7  1  0  0  0  0
 11  6  1  0  0  0  0
 12  4  1  0  0  0  0
 13  9  1  0  0  0  0
 13 17  1  0  0  0  0
 15 20  1  0  0  0  0
 16 11  2  0  0  0  0
 17  2  1  0  0  0  0
 18 19  1  0  0  0  0
 18 25  1  0  0  0  0
 18  8  1  0  0  0  0
 19 25  1  0  0  0  0
 20  3  2  0  0  0  0
 20 16  1  0  0  0  0
 21 27  1  0  0  0  0
 21 13  1  0  0  0  0
 22  2  1  0  0  0  0
 23 10  1  0  0  0  0
 23 30  1  0  0  0  0
 25 27  1  0  0  0  0
 27  1  1  0  0  0  0
 28 23  1  0  0  0  0
 28 15  1  0  0  0  0
 29 35  2  0  0  0  0
 29 30  1  0  0  0  0
 30 31  2  0  0  0  0
 31 34  1  0  0  0  0
 33 34  2  0  0  0  0
 34 32  1  0  0  0  0
 35 33  1  0  0  0  0
 37 36  1  0  0  0  0
M  END
>  <MODEL>
5

>  <REMARK>
 VINA RESULT:      -5.9      3.379      6.954
  Name = 
  2 active torsions:
  status: ('A' for Active; 'I' for Inactive)
    1  A    between atoms: C_4  and  C_37
    2  A    between atoms: N_23  and  C_30
                            x       y       z     vdW  Elec       q    Type
                         _______ _______ _______ _____ _____    ______ ____

>  <TORSDO>
F 2

$$$$
=
 OpenBabel11122411413D

 37 44  0  0  1  0  0  0  0  0999 V2000
  182.6270  174.3920  136.5190 C   0  0  0  0  0  2  0  0  0  0  0  0
  187.4940  175.1390  135.7460 C   0  0  0  0  0  0  0  0  0  0  0  0
  184.9200  177.5400  138.0070 C   0  0  0  0  0  0  0  0  0  0  0  0
  182.0020  173.2200  135.7690 C   0  0  2  0  0  3  0  0  0  0  0  0
  181.2420  178.2090  136.6330 C   0  0  0  0  0  2  0  0  0  0  0  0
  187.1800  176.8520  137.5150 C   0  0  0  0  0  0  0  0  0  0  0  0
  183.5550  177.2540  137.4610 C   0  0  1  0  0  3  0  0  0  0  0  0
  179.8660  174.6440  135.7220 C   0  0  2  0  0  3  0  0  0  0  0  0
  185.8150  176.7640  137.3260 C   0  0  0  0  0  0  0  0  0  0  0  0
  182.6220  178.4840  137.3050 C   0  0  2  0  0  3  0  0  0  0  0  0
  187.6640  177.7230  138.5020 C   0  0  0  0  0  3  0  0  0  0  0  0
  180.7330  173.6070  135.0040 C   0  0  0  0  0  2  0  0  0  0  0  0
  185.2500  176.0290  136.2680 N   0  0  0  0  0  0  0  0  0  0  0  0
  187.3620  173.7970  136.4440 C   0  0  0  0  0  1  0  0  0  0  0  0
  184.4330  179.2690  139.8180 C   0  0  0  0  0  2  0  0  0  0  0  0
  186.7540  178.5040  139.2490 C   0  0  0  0  0  3  0  0  0  0  0  0
  186.1140  175.5610  135.1850 C   0  0  0  0  0  2  0  0  0  0  0  0
  180.2270  176.1150  135.4370 C   0  0  1  0  0  3  0  0  0  0  0  0
  181.0360  176.7130  136.4870 C   0  0  1  0  0  3  0  0  0  0  0  0
  185.3680  178.4330  138.9990 C   0  0  0  0  0  0  0  0  0  0  0  0
  183.9080  176.5750  136.1050 C   0  0  1  0  0  3  0  0  0  0  0  0
  188.0180  176.1100  136.6740 O   0  0  0  0  0  0  0  0  0  0  0  0
  182.4780  179.1700  138.5920 N   0  0  0  0  0  0  0  0  0  0  0  0
  188.4630  174.9860  134.5940 C   0  0  0  0  0  1  0  0  0  0  0  0
  181.6730  176.3800  135.1960 N   0  0  1  0  0  0  0  0  0  0  0  0
  179.6860  174.3680  137.0680 F   0  0  0  0  0  0  0  0  0  0  0  0
  182.8580  175.5820  135.5810 C   0  0  2  0  0  3  0  0  0  0  0  0
  183.5200  180.0320  138.9710 N   0  0  0  0  0  2  0  0  0  0  0  0
  181.2900  177.4990  139.9910 C   0  0  0  0  0  3  0  0  0  0  0  0
  181.4670  178.8240  139.5650 C   0  0  0  0  0  0  0  0  0  0  0  0
  180.6710  179.8320  140.1310 C   0  0  0  0  0  3  0  0  0  0  0  0
  178.9310  180.4960  141.6190 F   0  0  0  0  0  0  0  0  0  0  0  0
  179.5260  178.1920  141.4940 C   0  0  0  0  0  3  0  0  0  0  0  0
  179.7010  179.5160  141.0870 C   0  0  0  0  0  0  0  0  0  0  0  0
  180.3210  177.1820  140.9480 C   0  0  0  0  0  3  0  0  0  0  0  0
  182.9090  171.1600  136.8390 C   0  0  0  0  0  1  0  0  0  0  0  0
  181.7060  172.0780  136.7270 C   0  0  0  0  0  2  0  0  0  0  0  0
  2 14  1  0  0  0  0
  2 22  1  0  0  0  0
  3 20  1  0  0  0  0
  4  1  1  0  0  0  0
  4 37  1  1  0  0  0
  6 11  2  0  0  0  0
  7  3  1  6  0  0  0
  8 26  1  1  0  0  0
  9  6  1  0  0  0  0
  9  3  2  0  0  0  0
 10  5  1  1  0  0  0
 10  7  1  0  0  0  0
 10 23  1  0  0  0  0
 11 16  1  0  0  0  0
 12  8  1  0  0  0  0
 12  4  1  0  0  0  0
 13  9  1  0  0  0  0
 17  2  1  0  0  0  0
 17 13  1  0  0  0  0
 18  8  1  0  0  0  0
 18 19  1  0  0  0  0
 19  5  1  0  0  0  0
 20 16  2  0  0  0  0
 20 15  1  0  0  0  0
 21 13  1  0  0  0  0
 21  7  1  0  0  0  0
 22  6  1  0  0  0  0
 23 28  1  0  0  0  0
 23 30  1  0  0  0  0
 24  2  1  0  0  0  0
 25 18  1  0  0  0  0
 25 27  1  0  0  0  0
 25 19  1  0  0  0  0
 27 21  1  0  0  0  0
 27  1  1  0  0  0  0
 28 15  1  0  0  0  0
 29 35  1  0  0  0  0
 30 29  2  0  0  0  0
 30 31  1  0  0  0  0
 31 34  2  0  0  0  0
 34 33  1  0  0  0  0
 34 32  1  0  0  0  0
 35 33  2  0  0  0  0
 37 36  1  0  0  0  0
M  END
>  <MODEL>
6

>  <REMARK>
 VINA RESULT:      -5.6      3.551      5.831
  Name = 
  2 active torsions:
  status: ('A' for Active; 'I' for Inactive)
    1  A    between atoms: C_4  and  C_37
    2  A    between atoms: N_23  and  C_30
                            x       y       z     vdW  Elec       q    Type
                         _______ _______ _______ _____ _____    ______ ____

>  <TORSDO>
F 2

$$$$
=
 OpenBabel11122411413D

 37 44  0  0  1  0  0  0  0  0999 V2000
  184.7490  173.4990  136.2880 C   0  0  0  0  0  2  0  0  0  0  0  0
  189.5900  174.6700  136.0850 C   0  0  0  0  0  0  0  0  0  0  0  0
  186.5430  176.9120  137.8750 C   0  0  0  0  0  0  0  0  0  0  0  0
  184.3320  172.2420  135.5310 C   0  0  2  0  0  3  0  0  0  0  0  0
  183.0280  177.1690  136.0200 C   0  0  0  0  0  2  0  0  0  0  0  0
  188.9000  176.4200  137.7060 C   0  0  0  0  0  0  0  0  0  0  0  0
  185.2900  176.4740  137.1800 C   0  0  1  0  0  3  0  0  0  0  0  0
  182.1020  173.4540  135.1400 C   0  0  2  0  0  3  0  0  0  0  0  0
  187.5840  176.1950  137.3540 C   0  0  0  0  0  0  0  0  0  0  0  0
  184.2800  177.6030  136.8410 C   0  0  2  0  0  3  0  0  0  0  0  0
  189.1730  177.3750  138.6960 C   0  0  0  0  0  3  0  0  0  0  0  0
  183.1420  172.4740  134.5940 C   0  0  0  0  0  2  0  0  0  0  0  0
  187.2260  175.3650  136.2760 N   0  0  0  0  0  0  0  0  0  0  0  0
  189.4880  173.3530  136.8340 C   0  0  0  0  0  1  0  0  0  0  0  0
  185.6760  178.6620  139.5140 C   0  0  0  0  0  2  0  0  0  0  0  0
  188.1090  178.0970  139.2800 C   0  0  0  0  0  3  0  0  0  0  0  0
  188.2610  174.9350  135.3350 C   0  0  0  0  0  2  0  0  0  0  0  0
  182.3650  174.9380  134.8230 C   0  0  1  0  0  3  0  0  0  0  0  0
  182.9750  175.6550  135.9310 C   0  0  1  0  0  3  0  0  0  0  0  0
  186.7780  177.8840  138.8650 C   0  0  0  0  0  0  0  0  0  0  0  0
  185.8740  175.7740  135.9170 C   0  0  1  0  0  3  0  0  0  0  0  0
  189.9010  175.7250  137.0170 O   0  0  0  0  0  0  0  0  0  0  0  0
  183.9110  178.3260  138.0620 N   0  0  0  0  0  0  0  0  0  0  0  0
  190.7090  174.5600  135.0730 C   0  0  0  0  0  1  0  0  0  0  0  0
  183.8010  175.3290  134.7490 N   0  0  1  0  0  0  0  0  0  0  0  0
  181.7750  173.2200  136.4670 F   0  0  0  0  0  0  0  0  0  0  0  0
  184.9930  174.6650  135.3220 C   0  0  2  0  0  3  0  0  0  0  0  0
  184.8160  179.2990  138.5190 N   0  0  0  0  0  2  0  0  0  0  0  0
  182.6880  176.6040  139.3660 C   0  0  0  0  0  3  0  0  0  0  0  0
  182.8180  177.9280  138.9180 C   0  0  0  0  0  0  0  0  0  0  0  0
  181.8880  178.8860  139.3510 C   0  0  0  0  0  3  0  0  0  0  0  0
  179.9360  179.4510  140.5980 F   0  0  0  0  0  0  0  0  0  0  0  0
  180.7090  177.1970  140.6240 C   0  0  0  0  0  3  0  0  0  0  0  0
  180.8350  178.5210  140.1960 C   0  0  0  0  0  0  0  0  0  0  0  0
  181.6370  176.2380  140.2110 C   0  0  0  0  0  3  0  0  0  0  0  0
  183.4560  169.9210  135.7640 C   0  0  0  0  0  1  0  0  0  0  0  0
  184.0170  171.1200  136.5050 C   0  0  0  0  0  2  0  0  0  0  0  0
  2 14  1  0  0  0  0
  2 22  1  0  0  0  0
  3 20  1  0  0  0  0
  4  1  1  0  0  0  0
  4 37  1  1  0  0  0
  6 11  2  0  0  0  0
  7  3  1  6  0  0  0
  8 26  1  1  0  0  0
  9  6  1  0  0  0  0
  9  3  2  0  0  0  0
 10  5  1  1  0  0  0
 10  7  1  0  0  0  0
 10 23  1  0  0  0  0
 11 16  1  0  0  0  0
 12  8  1  0  0  0  0
 12  4  1  0  0  0  0
 13  9  1  0  0  0  0
 17  2  1  0  0  0  0
 17 13  1  0  0  0  0
 18  8  1  0  0  0  0
 18 19  1  0  0  0  0
 19  5  1  0  0  0  0
 20 16  2  0  0  0  0
 20 15  1  0  0  0  0
 21 13  1  0  0  0  0
 21  7  1  0  0  0  0
 22  6  1  0  0  0  0
 23 28  1  0  0  0  0
 23 30  1  0  0  0  0
 24  2  1  0  0  0  0
 25 18  1  0  0  0  0
 25 27  1  0  0  0  0
 25 19  1  0  0  0  0
 27 21  1  0  0  0  0
 27  1  1  0  0  0  0
 28 15  1  0  0  0  0
 29 35  1  0  0  0  0
 30 31  1  0  0  0  0
 30 29  2  0  0  0  0
 31 34  2  0  0  0  0
 34 32  1  0  0  0  0
 34 33  1  0  0  0  0
 35 33  2  0  0  0  0
 36 37  1  0  0  0  0
M  END
>  <MODEL>
7

>  <REMARK>
 VINA RESULT:      -5.5      3.381      5.244
  Name = 
  2 active torsions:
  status: ('A' for Active; 'I' for Inactive)
    1  A    between atoms: C_4  and  C_37
    2  A    between atoms: N_23  and  C_30
                            x       y       z     vdW  Elec       q    Type
                         _______ _______ _______ _____ _____    ______ ____

>  <TORSDO>
F 2

$$$$
=
 OpenBabel11122411413D

 37 44  0  0  1  0  0  0  0  0999 V2000
  185.9370  177.8820  140.2750 C   0  0  0  0  0  2  0  0  0  0  0  0
  181.3390  179.6180  139.4460 C   0  0  0  0  0  0  0  0  0  0  0  0
  183.3730  176.7380  137.1920 C   0  0  0  0  0  0  0  0  0  0  0  0
  186.7100  178.5470  141.4090 C   0  0  2  0  0  3  0  0  0  0  0  0
  187.2560  177.2700  136.4810 C   0  0  0  0  0  2  0  0  0  0  0  0
  181.2690  177.7310  137.8340 C   0  0  0  0  0  0  0  0  0  0  0  0
  184.8230  177.0000  137.4600 C   0  0  1  0  0  3  0  0  0  0  0  0
  188.8040  178.0670  140.0020 C   0  0  2  0  0  3  0  0  0  0  0  0
  182.6430  177.6340  137.9230 C   0  0  0  0  0  0  0  0  0  0  0  0
  185.7640  176.8900  136.2310 C   0  0  2  0  0  3  0  0  0  0  0  0
  180.5860  176.8220  137.0140 C   0  0  0  0  0  3  0  0  0  0  0  0
  188.1110  179.0060  140.9910 C   0  0  0  0  0  2  0  0  0  0  0  0
  183.4210  178.5880  138.6040 N   0  0  0  0  0  0  0  0  0  0  0  0
  181.3270  178.9820  140.8250 C   0  0  0  0  0  1  0  0  0  0  0  0
  183.4630  174.7730  135.5690 C   0  0  0  0  0  2  0  0  0  0  0  0
  181.3160  175.8590  136.2830 C   0  0  0  0  0  3  0  0  0  0  0  0
  182.8050  179.8520  139.0060 C   0  0  0  0  0  2  0  0  0  0  0  0
  188.5060  178.3400  138.5160 C   0  0  1  0  0  3  0  0  0  0  0  0
  187.4930  177.4520  137.9690 C   0  0  1  0  0  3  0  0  0  0  0  0
  182.7240  175.8150  136.3510 C   0  0  0  0  0  0  0  0  0  0  0  0
  184.7650  178.4350  138.0610 C   0  0  1  0  0  3  0  0  0  0  0  0
  180.6290  178.7690  138.5230 O   0  0  0  0  0  0  0  0  0  0  0  0
  185.6320  175.5650  135.6170 N   0  0  0  0  0  0  0  0  0  0  0  0
  180.6340  180.9550  139.5280 C   0  0  0  0  0  1  0  0  0  0  0  0
  187.1420  178.8640  138.2250 N   0  0  1  0  0  0  0  0  0  0  0  0
  188.6980  176.7300  140.3530 F   0  0  0  0  0  0  0  0  0  0  0  0
  185.9050  178.7810  139.0330 C   0  0  2  0  0  3  0  0  0  0  0  0
  184.5310  175.3680  134.7680 N   0  0  0  0  0  2  0  0  0  0  0  0
  186.1500  173.7450  137.2240 C   0  0  0  0  0  3  0  0  0  0  0  0
  186.4180  174.4230  136.0240 C   0  0  0  0  0  0  0  0  0  0  0  0
  187.4410  173.9480  135.1890 C   0  0  0  0  0  3  0  0  0  0  0  0
  189.1910  172.3890  134.7500 F   0  0  0  0  0  0  0  0  0  0  0  0
  187.9310  172.1740  136.7610 C   0  0  0  0  0  3  0  0  0  0  0  0
  188.1980  172.8320  135.5590 C   0  0  0  0  0  0  0  0  0  0  0  0
  186.9050  172.6280  137.5930 C   0  0  0  0  0  3  0  0  0  0  0  0
  185.9020  178.1010  143.7230 C   0  0  0  0  0  1  0  0  0  0  0  0
  186.8020  177.6130  142.6040 C   0  0  0  0  0  2  0  0  0  0  0  0
  1  4  1  0  0  0  0
  2 24  1  0  0  0  0
  2 14  1  0  0  0  0
  3  9  1  0  0  0  0
  4 37  1  1  0  0  0
  5 19  1  0  0  0  0
  6  9  2  0  0  0  0
  6 22  1  0  0  0  0
  7  3  1  6  0  0  0
  7 21  1  0  0  0  0
  8 26  1  1  0  0  0
  8 12  1  0  0  0  0
  9 13  1  0  0  0  0
 10  5  1  1  0  0  0
 10  7  1  0  0  0  0
 11  6  1  0  0  0  0
 12  4  1  0  0  0  0
 13 17  1  0  0  0  0
 15 20  1  0  0  0  0
 16 20  1  0  0  0  0
 16 11  2  0  0  0  0
 17  2  1  0  0  0  0
 18  8  1  0  0  0  0
 19 25  1  0  0  0  0
 19 18  1  0  0  0  0
 20  3  2  0  0  0  0
 21 13  1  0  0  0  0
 21 27  1  0  0  0  0
 22  2  1  0  0  0  0
 23 30  1  0  0  0  0
 23 10  1  0  0  0  0
 25 18  1  0  0  0  0
 25 27  1  0  0  0  0
 27  1  1  0  0  0  0
 28 15  1  0  0  0  0
 28 23  1  0  0  0  0
 29 35  1  0  0  0  0
 30 29  2  0  0  0  0
 31 34  2  0  0  0  0
 31 30  1  0  0  0  0
 32 34  1  0  0  0  0
 33 35  2  0  0  0  0
 34 33  1  0  0  0  0
 37 36  1  0  0  0  0
M  END
>  <MODEL>
8

>  <REMARK>
 VINA RESULT:      -5.5      3.153      7.279
  Name = 
  2 active torsions:
  status: ('A' for Active; 'I' for Inactive)
    1  A    between atoms: C_4  and  C_37
    2  A    between atoms: N_23  and  C_30
                            x       y       z     vdW  Elec       q    Type
                         _______ _______ _______ _____ _____    ______ ____

>  <TORSDO>
F 2

$$$$
=
 OpenBabel11122411413D

 37 44  0  0  1  0  0  0  0  0999 V2000
  186.1190  174.6250  137.2600 C   0  0  0  0  0  2  0  0  0  0  0  0
  190.9030  174.3290  135.8920 C   0  0  0  0  0  0  0  0  0  0  0  0
  189.2860  176.8460  138.8180 C   0  0  0  0  0  0  0  0  0  0  0  0
  185.1390  173.7790  136.4540 C   0  0  2  0  0  3  0  0  0  0  0  0
  185.7740  178.5840  138.1040 C   0  0  0  0  0  2  0  0  0  0  0  0
  191.2290  175.7410  137.9090 C   0  0  0  0  0  0  0  0  0  0  0  0
  187.8420  176.9860  138.4440 C   0  0  1  0  0  3  0  0  0  0  0  0
  183.4440  175.6520  136.9190 C   0  0  2  0  0  3  0  0  0  0  0  0
  189.8750  176.0090  137.9120 C   0  0  0  0  0  0  0  0  0  0  0  0
  187.2430  178.4090  138.5980 C   0  0  2  0  0  3  0  0  0  0  0  0
  192.0220  176.2920  138.9250 C   0  0  0  0  0  3  0  0  0  0  0  0
  183.9360  174.5790  135.9450 C   0  0  0  0  0  2  0  0  0  0  0  0
  189.0300  175.6190  136.8570 N   0  0  0  0  0  0  0  0  0  0  0  0
  190.5090  172.9570  136.4090 C   0  0  0  0  0  1  0  0  0  0  0  0
  189.4540  178.3050  140.9030 C   0  0  0  0  0  2  0  0  0  0  0  0
  191.4280  177.1250  139.8990 C   0  0  0  0  0  3  0  0  0  0  0  0
  189.6240  175.1530  135.6040 C   0  0  0  0  0  2  0  0  0  0  0  0
  184.1360  177.0230  136.7910 C   0  0  1  0  0  3  0  0  0  0  0  0
  185.1790  177.2260  137.7840 C   0  0  1  0  0  3  0  0  0  0  0  0
  190.0510  177.4250  139.8480 C   0  0  0  0  0  0  0  0  0  0  0  0
  187.8630  176.4850  136.9700 C   0  0  1  0  0  3  0  0  0  0  0  0
  191.7540  174.9770  136.8600 O   0  0  0  0  0  0  0  0  0  0  0  0
  187.4180  178.8790  139.9750 N   0  0  0  0  0  0  0  0  0  0  0  0
  191.6710  174.1520  134.6010 C   0  0  0  0  0  1  0  0  0  0  0  0
  185.5670  176.9780  136.3790 N   0  0  1  0  0  0  0  0  0  0  0  0
  183.3460  175.2000  138.2250 F   0  0  0  0  0  0  0  0  0  0  0  0
  186.5440  175.8700  136.4730 C   0  0  2  0  0  3  0  0  0  0  0  0
  188.6810  179.3950  140.3120 N   0  0  0  0  0  2  0  0  0  0  0  0
  185.0980  178.9040  140.8580 C   0  0  0  0  0  3  0  0  0  0  0  0
  186.4630  178.6200  141.0280 C   0  0  0  0  0  0  0  0  0  0  0  0
  186.8910  178.0340  142.2290 C   0  0  0  0  0  3  0  0  0  0  0  0
  186.4030  177.2040  144.4090 F   0  0  0  0  0  0  0  0  0  0  0  0
  184.6230  178.0580  143.0740 C   0  0  0  0  0  3  0  0  0  0  0  0
  185.9760  177.7590  143.2490 C   0  0  0  0  0  0  0  0  0  0  0  0
  184.1830  178.6280  141.8780 C   0  0  0  0  0  3  0  0  0  0  0  0
  183.4390  171.9670  136.6430 C   0  0  0  0  0  1  0  0  0  0  0  0
  184.6670  172.5920  137.2770 C   0  0  0  0  0  2  0  0  0  0  0  0
  2 14  1  0  0  0  0
  2 22  1  0  0  0  0
  3 20  1  0  0  0  0
  4  1  1  0  0  0  0
  4 37  1  1  0  0  0
  6  9  1  0  0  0  0
  6 11  2  0  0  0  0
  7 10  1  0  0  0  0
  7  3  1  6  0  0  0
  8 26  1  1  0  0  0
  9  3  2  0  0  0  0
 10  5  1  1  0  0  0
 10 23  1  0  0  0  0
 11 16  1  0  0  0  0
 12  4  1  0  0  0  0
 12  8  1  0  0  0  0
 13 21  1  0  0  0  0
 13  9  1  0  0  0  0
 17  2  1  0  0  0  0
 17 13  1  0  0  0  0
 18  8  1  0  0  0  0
 18 19  1  0  0  0  0
 19  5  1  0  0  0  0
 20 16  2  0  0  0  0
 20 15  1  0  0  0  0
 21  7  1  0  0  0  0
 22  6  1  0  0  0  0
 23 28  1  0  0  0  0
 23 30  1  0  0  0  0
 24  2  1  0  0  0  0
 25 27  1  0  0  0  0
 25 18  1  0  0  0  0
 25 19  1  0  0  0  0
 27 21  1  0  0  0  0
 27  1  1  0  0  0  0
 28 15  1  0  0  0  0
 29 30  2  0  0  0  0
 29 35  1  0  0  0  0
 30 31  1  0  0  0  0
 31 34  2  0  0  0  0
 33 34  1  0  0  0  0
 34 32  1  0  0  0  0
 35 33  2  0  0  0  0
 36 37  1  0  0  0  0
M  END
>  <MODEL>
9

>  <REMARK>
 VINA RESULT:      -5.4      2.952      5.451
  Name = 
  2 active torsions:
  status: ('A' for Active; 'I' for Inactive)
    1  A    between atoms: C_4  and  C_37
    2  A    between atoms: N_23  and  C_30
                            x       y       z     vdW  Elec       q    Type
                         _______ _______ _______ _____ _____    ______ ____

>  <TORSDO>
F 2

$$$$
