=
 OpenBabel11122411343D

 37 43  0  0  1  0  0  0  0  0999 V2000
  190.6860  176.7420  146.8010 C   0  0  1  0  0  0  0  0  0  0  0  0
  186.7330  177.6890  145.3110 C   0  0  1  0  0  3  0  0  0  0  0  0
  186.5760  178.9170  141.6180 C   0  0  0  0  0  2  0  0  0  0  0  0
  188.4350  177.8200  147.2030 C   0  0  0  0  0  0  0  0  0  0  0  0
  187.2610  178.3640  144.0630 C   0  0  2  0  0  3  0  0  0  0  0  0
  187.9290  177.0370  146.0000 C   0  0  2  0  0  3  0  0  0  0  0  0
  186.2440  178.1310  142.8960 C   0  0  1  0  0  3  0  0  0  0  0  0
  187.5950  178.5430  147.9560 C   0  0  0  0  0  3  0  0  0  0  0  0
  188.9630  176.9130  144.8750 C   0  0  2  0  0  3  0  0  0  0  0  0
  190.3460  175.3120  147.1880 C   0  0  0  0  0  1  0  0  0  0  0  0
  184.9360  179.4160  145.6690 C   0  0  0  0  0  3  0  0  0  0  0  0
  186.1270  178.6150  147.6500 C   0  0  0  0  0  2  0  0  0  0  0  0
  190.4400  176.9680  145.3100 C   0  0  0  0  0  2  0  0  0  0  0  0
  188.7540  178.6800  140.1060 C   0  0  1  0  0  3  0  0  0  0  0  0
  187.6540  178.1070  140.9630 C   0  0  1  0  0  3  0  0  0  0  0  0
  185.9150  178.6350  146.1680 C   0  0  0  0  0  0  0  0  0  0  0  0
  188.6910  177.9690  143.9040 N   0  0  1  0  0  0  0  0  0  0  0  0
  189.8720  177.7340  147.6300 C   0  0  0  0  0  2  0  0  0  0  0  0
  184.7860  178.3550  143.3640 C   0  0  1  0  0  3  0  0  0  0  0  0
  192.0390  176.9590  147.0640 O   0  0  0  0  0  1  0  0  0  0  0  0
  188.8740  178.7010  141.6240 C   0  0  1  0  0  3  0  0  0  0  0  0
  189.1510  177.5580  142.5710 C   0  0  0  0  0  2  0  0  0  0  0  0
  184.6150  179.6230  144.2040 C   0  0  0  0  0  2  0  0  0  0  0  0
  184.1110  177.5740  141.0860 C   0  0  0  0  0  3  0  0  0  0  0  0
  183.7590  178.2190  142.2770 C   0  0  0  0  0  0  0  0  0  0  0  0
  182.4710  178.7610  142.4170 C   0  0  0  0  0  3  0  0  0  0  0  0
  180.2390  179.1930  141.5240 N   0  0  0  0  0  1  0  0  0  0  0  0
  181.8980  177.9950  140.1930 C   0  0  0  0  0  3  0  0  0  0  0  0
  181.5430  178.6440  141.3780 C   0  0  0  0  0  0  0  0  0  0  0  0
  183.1820  177.4590  140.0470 C   0  0  0  0  0  3  0  0  0  0  0  0
  189.6350  177.6140  139.5070 C   0  0  0  0  0  0  0  0  0  0  0  0
  189.1840  176.7830  138.4210 N   0  0  0  0  0  2  0  0  0  0  0  0
  190.7780  177.4000  139.9930 O   0  0  0  0  0  0  0  0  0  0  0  0
  187.5840  175.5410  137.2600 C   0  0  0  0  0  1  0  0  0  0  0  0
  187.9320  176.8570  137.7740 N   0  0  0  0  0  0  0  0  0  0  0  0
  187.3090  178.9500  136.9600 O   0  0  0  0  0  1  0  0  0  0  0  0
  188.0170  177.7870  136.6570 C   0  0  0  0  0  2  0  0  0  0  0  0
  1 20  1  0  0  0  0
  1 10  1  1  0  0  0
  1 18  1  0  0  0  0
  2  6  1  0  0  0  0
  2 16  1  1  0  0  0
  3  7  1  0  0  0  0
  4 18  1  0  0  0  0
  4  8  2  0  0  0  0
  5  2  1  0  0  0  0
  6  4  1  0  0  0  0
  7 19  1  0  0  0  0
  7  5  1  0  0  0  0
  9 13  1  0  0  0  0
  9  6  1  0  0  0  0
 11 16  2  0  0  0  0
 12  8  1  0  0  0  0
 13  1  1  0  0  0  0
 14 15  1  0  0  0  0
 14 21  1  0  0  0  0
 15  3  1  0  0  0  0
 15 21  1  0  0  0  0
 16 12  1  0  0  0  0
 17  5  1  0  0  0  0
 17  9  1  0  0  0  0
 19 23  1  0  0  0  0
 21 22  1  0  0  0  0
 22 17  1  0  0  0  0
 23 11  1  0  0  0  0
 24 25  1  0  0  0  0
 25 26  2  0  0  0  0
 25 19  1  0  0  0  0
 28 29  2  0  0  0  0
 29 27  1  0  0  0  0
 29 26  1  0  0  0  0
 30 28  1  0  0  0  0
 30 24  2  0  0  0  0
 31 33  2  0  0  0  0
 31 14  1  0  0  0  0
 32 31  1  0  0  0  0
 34 35  1  0  0  0  0
 35 32  1  0  0  0  0
 37 36  1  0  0  0  0
 37 35  1  0  0  0  0
M  END
>  <MODEL>
1

>  <REMARK>
 VINA RESULT:     -10.3      0.000      0.000
  Name = 
  4 active torsions:
  status: ('A' for Active; 'I' for Inactive)
    1  A    between atoms: N_4  and  N_12
    2  A    between atoms: N_4  and  C_37
    3  A    between atoms: C_8  and  C_18
    4  A    between atoms: C_23  and  C_30
                            x       y       z     vdW  Elec       q    Type
                         _______ _______ _______ _____ _____    ______ ____

>  <TORSDO>
F 4

$$$$
=
 OpenBabel11122411343D

 37 43  0  0  1  0  0  0  0  0999 V2000
  190.7270  176.4400  143.2530 C   0  0  1  0  0  0  0  0  0  0  0  0
  186.6150  177.5120  144.0800 C   0  0  1  0  0  3  0  0  0  0  0  0
  184.6890  179.1880  141.1380 C   0  0  0  0  0  2  0  0  0  0  0  0
  189.0400  177.4300  144.8550 C   0  0  0  0  0  0  0  0  0  0  0  0
  186.4790  178.3440  142.8220 C   0  0  2  0  0  3  0  0  0  0  0  0
  187.9590  176.7960  143.9920 C   0  0  2  0  0  3  0  0  0  0  0  0
  185.0030  178.2440  142.3090 C   0  0  1  0  0  3  0  0  0  0  0  0
  188.7300  178.0430  146.0060 C   0  0  0  0  0  3  0  0  0  0  0  0
  188.2810  176.8260  142.4930 C   0  0  2  0  0  3  0  0  0  0  0  0
  190.5540  174.9680  143.5930 C   0  0  0  0  0  1  0  0  0  0  0  0
  185.3320  179.1580  145.4890 C   0  0  0  0  0  3  0  0  0  0  0  0
  187.3130  178.1320  146.4920 C   0  0  0  0  0  2  0  0  0  0  0  0
  189.7780  176.8460  142.1260 C   0  0  0  0  0  2  0  0  0  0  0  0
  185.7980  179.1690  138.7180 C   0  0  1  0  0  3  0  0  0  0  0  0
  185.2490  178.4790  139.9410 C   0  0  1  0  0  3  0  0  0  0  0  0
  186.3870  178.3330  145.3340 C   0  0  0  0  0  0  0  0  0  0  0  0
  187.6130  177.9910  141.9200 N   0  0  1  0  0  0  0  0  0  0  0  0
  190.4910  177.3100  144.4860 C   0  0  0  0  0  2  0  0  0  0  0  0
  183.9900  178.3900  143.4710 C   0  0  1  0  0  3  0  0  0  0  0  0
  192.0380  176.6410  142.8210 O   0  0  0  0  0  1  0  0  0  0  0  0
  186.6640  179.0020  139.9590 C   0  0  1  0  0  3  0  0  0  0  0  0
  187.3200  177.7550  140.5000 C   0  0  0  0  0  2  0  0  0  0  0  0
  184.3290  179.5410  144.4210 C   0  0  0  0  0  2  0  0  0  0  0  0
  182.2460  178.2040  141.6880 C   0  0  0  0  0  3  0  0  0  0  0  0
  182.5520  178.3760  143.0430 C   0  0  0  0  0  0  0  0  0  0  0  0
  181.5130  178.5710  143.9680 C   0  0  0  0  0  3  0  0  0  0  0  0
  179.1330  178.7780  144.4770 N   0  0  0  0  0  1  0  0  0  0  0  0
  179.8830  178.4060  142.1840 C   0  0  0  0  0  3  0  0  0  0  0  0
  180.1820  178.5820  143.5370 C   0  0  0  0  0  0  0  0  0  0  0  0
  180.9160  178.2170  141.2590 C   0  0  0  0  0  3  0  0  0  0  0  0
  186.2030  178.1960  137.6400 C   0  0  0  0  0  0  0  0  0  0  0  0
  185.3490  177.1050  137.2460 N   0  0  0  0  0  2  0  0  0  0  0  0
  187.3350  178.3000  137.0960 O   0  0  0  0  0  0  0  0  0  0  0  0
  183.8190  175.3890  137.6430 C   0  0  0  0  0  1  0  0  0  0  0  0
  184.0670  176.8170  137.7620 N   0  0  0  0  0  0  0  0  0  0  0  0
  182.0620  178.0020  137.8430 O   0  0  0  0  0  1  0  0  0  0  0  0
  183.0610  177.5310  136.9900 C   0  0  0  0  0  2  0  0  0  0  0  0
  1 10  1  1  0  0  0
  1 18  1  0  0  0  0
  2 16  1  1  0  0  0
  3  7  1  0  0  0  0
  4  8  2  0  0  0  0
  5  2  1  0  0  0  0
  6  2  1  0  0  0  0
  6  4  1  0  0  0  0
  7  5  1  0  0  0  0
  7 19  1  0  0  0  0
  8 12  1  0  0  0  0
  9  6  1  0  0  0  0
 13  9  1  0  0  0  0
 13  1  1  0  0  0  0
 14 15  1  0  0  0  0
 14 21  1  0  0  0  0
 15 21  1  0  0  0  0
 15  3  1  0  0  0  0
 16 11  2  0  0  0  0
 16 12  1  0  0  0  0
 17  9  1  0  0  0  0
 17  5  1  0  0  0  0
 18  4  1  0  0  0  0
 19 23  1  0  0  0  0
 20  1  1  0  0  0  0
 21 22  1  0  0  0  0
 22 17  1  0  0  0  0
 23 11  1  0  0  0  0
 24 25  1  0  0  0  0
 25 19  1  0  0  0  0
 25 26  2  0  0  0  0
 28 29  2  0  0  0  0
 29 26  1  0  0  0  0
 29 27  1  0  0  0  0
 30 24  2  0  0  0  0
 30 28  1  0  0  0  0
 31 14  1  0  0  0  0
 32 31  1  0  0  0  0
 32 35  1  0  0  0  0
 33 31  2  0  0  0  0
 34 35  1  0  0  0  0
 37 35  1  0  0  0  0
 37 36  1  0  0  0  0
M  END
>  <MODEL>
2

>  <REMARK>
 VINA RESULT:      -8.5      2.073      2.928
  Name = 
  4 active torsions:
  status: ('A' for Active; 'I' for Inactive)
    1  A    between atoms: N_4  and  N_12
    2  A    between atoms: N_4  and  C_37
    3  A    between atoms: C_8  and  C_18
    4  A    between atoms: C_23  and  C_30
                            x       y       z     vdW  Elec       q    Type
                         _______ _______ _______ _____ _____    ______ ____

>  <TORSDO>
F 4

$$$$
=
 OpenBabel11122411343D

 37 43  0  0  1  0  0  0  0  0999 V2000
  190.3270  176.7360  146.9140 C   0  0  1  0  0  0  0  0  0  0  0  0
  186.4780  177.8180  145.2540 C   0  0  1  0  0  3  0  0  0  0  0  0
  186.4700  178.7040  141.4610 C   0  0  0  0  0  2  0  0  0  0  0  0
  188.1540  178.0040  147.1630 C   0  0  0  0  0  0  0  0  0  0  0  0
  187.0740  178.3350  143.9610 C   0  0  2  0  0  3  0  0  0  0  0  0
  187.6120  177.1510  146.0260 C   0  0  2  0  0  3  0  0  0  0  0  0
  186.0610  178.0660  142.7980 C   0  0  1  0  0  3  0  0  0  0  0  0
  187.3570  178.8530  147.8280 C   0  0  0  0  0  3  0  0  0  0  0  0
  188.6520  176.8480  144.9420 C   0  0  2  0  0  3  0  0  0  0  0  0
  189.8770  175.3760  147.4230 C   0  0  0  0  0  1  0  0  0  0  0  0
  184.8060  179.6950  145.4100 C   0  0  0  0  0  3  0  0  0  0  0  0
  185.9040  178.9990  147.4830 C   0  0  0  0  0  2  0  0  0  0  0  0
  190.1220  176.8380  145.4030 C   0  0  0  0  0  2  0  0  0  0  0  0
  188.6490  178.1720  140.0270 C   0  0  1  0  0  3  0  0  0  0  0  0
  187.4970  177.7620  140.9080 C   0  0  1  0  0  3  0  0  0  0  0  0
  185.7170  178.8960  146.0020 C   0  0  0  0  0  0  0  0  0  0  0  0
  188.4730  177.8260  143.8720 N   0  0  1  0  0  0  0  0  0  0  0  0
  189.5740  177.8560  147.6290 C   0  0  0  0  0  2  0  0  0  0  0  0
  184.6160  178.4370  143.2100 C   0  0  1  0  0  3  0  0  0  0  0  0
  191.6870  176.8800  147.1870 O   0  0  0  0  0  1  0  0  0  0  0  0
  188.7450  178.3270  141.5390 C   0  0  1  0  0  3  0  0  0  0  0  0
  188.9230  177.2600  142.5930 C   0  0  0  0  0  2  0  0  0  0  0  0
  184.5240  179.7860  143.9260 C   0  0  0  0  0  2  0  0  0  0  0  0
  182.3420  178.8690  142.2620 C   0  0  0  0  0  3  0  0  0  0  0  0
  183.6000  178.2730  142.1170 C   0  0  0  0  0  0  0  0  0  0  0  0
  183.8740  177.5030  140.9750 C   0  0  0  0  0  3  0  0  0  0  0  0
  183.1830  176.5640  138.8290 N   0  0  0  0  0  1  0  0  0  0  0  0
  181.6470  177.9450  140.1320 C   0  0  0  0  0  3  0  0  0  0  0  0
  182.9000  177.3440  139.9840 C   0  0  0  0  0  0  0  0  0  0  0  0
  181.3690  178.7080  141.2710 C   0  0  0  0  0  3  0  0  0  0  0  0
  189.4590  176.9950  139.5490 C   0  0  0  0  0  0  0  0  0  0  0  0
  190.8570  176.8600  139.8670 N   0  0  0  0  0  2  0  0  0  0  0  0
  188.9240  176.1240  138.8120 O   0  0  0  0  0  0  0  0  0  0  0  0
  192.9500  177.8740  140.0620 C   0  0  0  0  0  1  0  0  0  0  0  0
  191.6270  177.7470  140.6510 N   0  0  0  0  0  0  0  0  0  0  0  0
  192.1270  178.2320  142.8740 O   0  0  0  0  0  1  0  0  0  0  0  0
  191.7650  177.2100  141.9970 C   0  0  0  0  0  2  0  0  0  0  0  0
  1 20  1  0  0  0  0
  1 10  1  1  0  0  0
  1 18  1  0  0  0  0
  2 16  1  1  0  0  0
  2  6  1  0  0  0  0
  3  7  1  0  0  0  0
  4 18  1  0  0  0  0
  4  8  2  0  0  0  0
  5  2  1  0  0  0  0
  6  4  1  0  0  0  0
  7 19  1  0  0  0  0
  7  5  1  0  0  0  0
  9 13  1  0  0  0  0
  9  6  1  0  0  0  0
 11 16  2  0  0  0  0
 12  8  1  0  0  0  0
 13  1  1  0  0  0  0
 14 15  1  0  0  0  0
 14 21  1  0  0  0  0
 15  3  1  0  0  0  0
 15 21  1  0  0  0  0
 16 12  1  0  0  0  0
 17  5  1  0  0  0  0
 17  9  1  0  0  0  0
 19 23  1  0  0  0  0
 21 22  1  0  0  0  0
 22 17  1  0  0  0  0
 23 11  1  0  0  0  0
 25 24  1  0  0  0  0
 25 19  1  0  0  0  0
 26 25  2  0  0  0  0
 27 29  1  0  0  0  0
 28 30  1  0  0  0  0
 29 28  2  0  0  0  0
 29 26  1  0  0  0  0
 30 24  2  0  0  0  0
 31 32  1  0  0  0  0
 31 14  1  0  0  0  0
 32 35  1  0  0  0  0
 33 31  2  0  0  0  0
 34 35  1  0  0  0  0
 35 37  1  0  0  0  0
 37 36  1  0  0  0  0
M  END
>  <MODEL>
3

>  <REMARK>
 VINA RESULT:      -8.4      1.533      2.481
  Name = 
  4 active torsions:
  status: ('A' for Active; 'I' for Inactive)
    1  A    between atoms: N_4  and  N_12
    2  A    between atoms: N_4  and  C_37
    3  A    between atoms: C_8  and  C_18
    4  A    between atoms: C_23  and  C_30
                            x       y       z     vdW  Elec       q    Type
                         _______ _______ _______ _____ _____    ______ ____

>  <TORSDO>
F 4

$$$$
=
 OpenBabel11122411343D

 37 43  0  0  1  0  0  0  0  0999 V2000
  188.7530  177.6210  146.8900 C   0  0  1  0  0  0  0  0  0  0  0  0
  185.3700  177.8480  144.1990 C   0  0  1  0  0  3  0  0  0  0  0  0
  186.2220  178.6960  140.4940 C   0  0  0  0  0  2  0  0  0  0  0  0
  186.3840  178.3950  146.4710 C   0  0  0  0  0  0  0  0  0  0  0  0
  186.1790  178.4740  143.0820 C   0  0  2  0  0  3  0  0  0  0  0  0
  186.3610  177.4410  145.2860 C   0  0  2  0  0  3  0  0  0  0  0  0
  185.6020  177.9900  141.7090 C   0  0  1  0  0  3  0  0  0  0  0  0
  185.2790  179.0570  146.8440 C   0  0  0  0  0  3  0  0  0  0  0  0
  187.6980  177.3640  144.5390 C   0  0  2  0  0  3  0  0  0  0  0  0
  188.4690  176.1980  147.3450 C   0  0  0  0  0  1  0  0  0  0  0  0
  183.3730  179.3240  143.7850 C   0  0  0  0  0  3  0  0  0  0  0  0
  183.9780  178.8870  146.1150 C   0  0  0  0  0  2  0  0  0  0  0  0
  188.9540  177.6710  145.3760 C   0  0  0  0  0  2  0  0  0  0  0  0
  188.7710  178.6360  139.7290 C   0  0  1  0  0  3  0  0  0  0  0  0
  187.5310  177.9920  140.2940 C   0  0  1  0  0  3  0  0  0  0  0  0
  184.2300  178.7400  144.6470 C   0  0  0  0  0  0  0  0  0  0  0  0
  187.6220  178.2760  143.4020 N   0  0  1  0  0  0  0  0  0  0  0  0
  187.6210  178.5570  147.3070 C   0  0  0  0  0  2  0  0  0  0  0  0
  184.0540  178.0450  141.6970 C   0  0  1  0  0  3  0  0  0  0  0  0
  189.9270  178.0540  147.5070 O   0  0  0  0  0  1  0  0  0  0  0  0
  188.4150  178.8140  141.2000 C   0  0  1  0  0  3  0  0  0  0  0  0
  188.5120  177.8150  142.3270 C   0  0  0  0  0  2  0  0  0  0  0  0
  183.4960  179.3460  142.2770 C   0  0  0  0  0  2  0  0  0  0  0  0
  183.2780  178.6400  139.3950 C   0  0  0  0  0  3  0  0  0  0  0  0
  183.4330  177.6630  140.3850 C   0  0  0  0  0  0  0  0  0  0  0  0
  182.9700  176.3580  140.1490 C   0  0  0  0  0  3  0  0  0  0  0  0
  181.9040  174.7130  138.6920 N   0  0  0  0  0  1  0  0  0  0  0  0
  182.2220  177.0140  137.9410 C   0  0  0  0  0  3  0  0  0  0  0  0
  182.3700  176.0360  138.9270 C   0  0  0  0  0  0  0  0  0  0  0  0
  182.6760  178.3170  138.1750 C   0  0  0  0  0  3  0  0  0  0  0  0
  189.9040  177.6570  139.5600 C   0  0  0  0  0  0  0  0  0  0  0  0
  189.9670  176.7610  138.4340 N   0  0  0  0  0  2  0  0  0  0  0  0
  190.7990  177.5760  140.4430 O   0  0  0  0  0  0  0  0  0  0  0  0
  188.5820  175.3180  137.2330 C   0  0  0  0  0  1  0  0  0  0  0  0
  189.0450  176.6900  137.3680 N   0  0  0  0  0  0  0  0  0  0  0  0
  190.2480  175.9600  135.5110 O   0  0  0  0  0  1  0  0  0  0  0  0
  189.7010  177.0840  136.1300 C   0  0  0  0  0  2  0  0  0  0  0  0
  1 18  1  0  0  0  0
  1 10  1  1  0  0  0
  1 20  1  0  0  0  0
  2 16  1  1  0  0  0
  2  6  1  0  0  0  0
  3  7  1  0  0  0  0
  4  8  2  0  0  0  0
  4 18  1  0  0  0  0
  5 17  1  0  0  0  0
  5  2  1  0  0  0  0
  6  4  1  0  0  0  0
  7  5  1  0  0  0  0
  9  6  1  0  0  0  0
  9 13  1  0  0  0  0
 11 16  2  0  0  0  0
 12  8  1  0  0  0  0
 13  1  1  0  0  0  0
 14 15  1  0  0  0  0
 14 21  1  0  0  0  0
 15  3  1  0  0  0  0
 15 21  1  0  0  0  0
 16 12  1  0  0  0  0
 17  9  1  0  0  0  0
 19  7  1  0  0  0  0
 19 23  1  0  0  0  0
 21 22  1  0  0  0  0
 22 17  1  0  0  0  0
 23 11  1  0  0  0  0
 24 25  1  0  0  0  0
 25 19  1  0  0  0  0
 26 25  2  0  0  0  0
 27 29  1  0  0  0  0
 28 30  1  0  0  0  0
 28 29  2  0  0  0  0
 29 26  1  0  0  0  0
 30 24  2  0  0  0  0
 31 14  1  0  0  0  0
 31 33  2  0  0  0  0
 32 31  1  0  0  0  0
 34 35  1  0  0  0  0
 35 32  1  0  0  0  0
 36 37  1  0  0  0  0
 37 35  1  0  0  0  0
M  END
>  <MODEL>
4

>  <REMARK>
 VINA RESULT:      -8.3      1.663      2.206
  Name = 
  4 active torsions:
  status: ('A' for Active; 'I' for Inactive)
    1  A    between atoms: N_4  and  N_12
    2  A    between atoms: N_4  and  C_37
    3  A    between atoms: C_8  and  C_18
    4  A    between atoms: C_23  and  C_30
                            x       y       z     vdW  Elec       q    Type
                         _______ _______ _______ _____ _____    ______ ____

>  <TORSDO>
F 4

$$$$
=
 OpenBabel11122411343D

 37 43  0  0  1  0  0  0  0  0999 V2000
  190.9670  176.6950  143.2130 C   0  0  1  0  0  0  0  0  0  0  0  0
  186.7050  177.3920  142.9190 C   0  0  1  0  0  3  0  0  0  0  0  0
  185.4620  178.7990  139.5060 C   0  0  0  0  0  2  0  0  0  0  0  0
  188.8490  177.5610  144.2860 C   0  0  0  0  0  0  0  0  0  0  0  0
  186.8250  178.1740  141.6280 C   0  0  2  0  0  3  0  0  0  0  0  0
  188.0830  176.8050  143.2090 C   0  0  2  0  0  3  0  0  0  0  0  0
  185.5450  177.9210  140.7640 C   0  0  1  0  0  3  0  0  0  0  0  0
  188.2020  178.1710  145.2890 C   0  0  0  0  0  3  0  0  0  0  0  0
  188.7750  176.8260  141.8410 C   0  0  2  0  0  3  0  0  0  0  0  0
  190.8390  175.2230  143.5710 C   0  0  0  0  0  1  0  0  0  0  0  0
  184.9680  178.9440  143.8750 C   0  0  0  0  0  3  0  0  0  0  0  0
  186.7050  178.1380  145.3960 C   0  0  0  0  0  2  0  0  0  0  0  0
  190.3080  176.9790  141.8650 C   0  0  0  0  0  2  0  0  0  0  0  0
  187.1520  178.8230  137.4490 C   0  0  1  0  0  3  0  0  0  0  0  0
  186.3690  178.1170  138.5260 C   0  0  1  0  0  3  0  0  0  0  0  0
  186.0940  178.2200  144.0320 C   0  0  0  0  0  0  0  0  0  0  0  0
  188.1790  177.9070  141.0610 N   0  0  1  0  0  0  0  0  0  0  0  0
  190.3500  177.5700  144.3020 C   0  0  0  0  0  2  0  0  0  0  0  0
  184.2590  177.9990  141.6240 C   0  0  1  0  0  3  0  0  0  0  0  0
  192.3240  177.0080  143.1180 O   0  0  0  0  0  1  0  0  0  0  0  0
  187.6820  178.7730  138.8770 C   0  0  1  0  0  3  0  0  0  0  0  0
  188.2810  177.6070  139.6260 C   0  0  0  0  0  2  0  0  0  0  0  0
  184.2440  179.2020  142.5700 C   0  0  0  0  0  2  0  0  0  0  0  0
  181.9770  178.7990  140.9840 C   0  0  0  0  0  3  0  0  0  0  0  0
  182.9850  177.8380  140.8470 C   0  0  0  0  0  0  0  0  0  0  0  0
  182.7720  176.7230  140.0190 C   0  0  0  0  0  3  0  0  0  0  0  0
  181.3520  175.4540  138.4890 N   0  0  0  0  0  1  0  0  0  0  0  0
  180.5630  177.5490  139.4650 C   0  0  0  0  0  3  0  0  0  0  0  0
  181.5640  176.5830  139.3270 C   0  0  0  0  0  0  0  0  0  0  0  0
  180.7700  178.6570  140.2930 C   0  0  0  0  0  3  0  0  0  0  0  0
  187.9010  177.8660  136.5590 C   0  0  0  0  0  0  0  0  0  0  0  0
  187.3420  176.5960  136.1750 N   0  0  0  0  0  2  0  0  0  0  0  0
  189.0670  178.1520  136.1730 O   0  0  0  0  0  0  0  0  0  0  0  0
  186.2170  174.7390  137.0300 C   0  0  0  0  0  1  0  0  0  0  0  0
  186.0710  176.0980  136.5330 N   0  0  0  0  0  0  0  0  0  0  0  0
  184.5200  177.2830  135.2610 O   0  0  0  0  0  1  0  0  0  0  0  0
  185.2110  176.0750  135.3590 C   0  0  0  0  0  2  0  0  0  0  0  0
  1 10  1  1  0  0  0
  1 18  1  0  0  0  0
  2  6  1  0  0  0  0
  2 16  1  1  0  0  0
  3  7  1  0  0  0  0
  4 18  1  0  0  0  0
  4  8  2  0  0  0  0
  5  2  1  0  0  0  0
  6  4  1  0  0  0  0
  7 19  1  0  0  0  0
  7  5  1  0  0  0  0
  8 12  1  0  0  0  0
  9 13  1  0  0  0  0
  9  6  1  0  0  0  0
 11 16  2  0  0  0  0
 13  1  1  0  0  0  0
 14 15  1  0  0  0  0
 14 21  1  0  0  0  0
 15 21  1  0  0  0  0
 15  3  1  0  0  0  0
 16 12  1  0  0  0  0
 17  5  1  0  0  0  0
 17  9  1  0  0  0  0
 19 23  1  0  0  0  0
 20  1  1  0  0  0  0
 21 22  1  0  0  0  0
 22 17  1  0  0  0  0
 23 11  1  0  0  0  0
 25 24  1  0  0  0  0
 25 19  1  0  0  0  0
 26 25  2  0  0  0  0
 27 29  1  0  0  0  0
 28 30  1  0  0  0  0
 29 28  2  0  0  0  0
 29 26  1  0  0  0  0
 30 24  2  0  0  0  0
 31 14  1  0  0  0  0
 32 35  1  0  0  0  0
 32 31  1  0  0  0  0
 33 31  2  0  0  0  0
 35 34  1  0  0  0  0
 36 37  1  0  0  0  0
 37 35  1  0  0  0  0
M  END
>  <MODEL>
5

>  <REMARK>
 VINA RESULT:      -8.2      2.036      2.939
  Name = 
  4 active torsions:
  status: ('A' for Active; 'I' for Inactive)
    1  A    between atoms: N_4  and  N_12
    2  A    between atoms: N_4  and  C_37
    3  A    between atoms: C_8  and  C_18
    4  A    between atoms: C_23  and  C_30
                            x       y       z     vdW  Elec       q    Type
                         _______ _______ _______ _____ _____    ______ ____

>  <TORSDO>
F 4

$$$$
=
 OpenBabel11122411343D

 37 43  0  0  1  0  0  0  0  0999 V2000
  190.6970  176.2570  143.3480 C   0  0  1  0  0  0  0  0  0  0  0  0
  186.6480  177.4850  144.2640 C   0  0  1  0  0  3  0  0  0  0  0  0
  184.6980  179.1670  141.3420 C   0  0  0  0  0  2  0  0  0  0  0  0
  189.0900  177.3350  144.9740 C   0  0  0  0  0  0  0  0  0  0  0  0
  186.5050  178.2960  142.9930 C   0  0  2  0  0  3  0  0  0  0  0  0
  187.9650  176.7220  144.1540 C   0  0  2  0  0  3  0  0  0  0  0  0
  185.0130  178.2360  142.5230 C   0  0  1  0  0  3  0  0  0  0  0  0
  188.8330  177.9810  146.1210 C   0  0  0  0  0  3  0  0  0  0  0  0
  188.2460  176.7110  142.6470 C   0  0  2  0  0  3  0  0  0  0  0  0
  190.4850  174.7990  143.7230 C   0  0  0  0  0  1  0  0  0  0  0  0
  185.4610  179.2010  145.6730 C   0  0  0  0  0  3  0  0  0  0  0  0
  187.4330  178.1280  146.6430 C   0  0  0  0  0  2  0  0  0  0  0  0
  189.7310  176.6730  142.2400 C   0  0  0  0  0  2  0  0  0  0  0  0
  185.7380  179.0630  138.8930 C   0  0  1  0  0  3  0  0  0  0  0  0
  185.2010  178.4160  140.1440 C   0  0  1  0  0  3  0  0  0  0  0  0
  186.4830  178.3370  145.5070 C   0  0  0  0  0  0  0  0  0  0  0  0
  187.6010  177.8860  142.0690 N   0  0  1  0  0  0  0  0  0  0  0  0
  190.5250  177.1590  144.5690 C   0  0  0  0  0  2  0  0  0  0  0  0
  184.0380  178.4390  143.7090 C   0  0  1  0  0  3  0  0  0  0  0  0
  192.0020  176.4050  142.8770 O   0  0  0  0  0  1  0  0  0  0  0  0
  186.6330  178.8910  140.1140 C   0  0  1  0  0  3  0  0  0  0  0  0
  187.2610  177.6330  140.6620 C   0  0  0  0  0  2  0  0  0  0  0  0
  184.4420  179.5960  144.6250 C   0  0  0  0  0  2  0  0  0  0  0  0
  181.6160  178.5460  144.3230 C   0  0  0  0  0  3  0  0  0  0  0  0
  182.5890  178.4660  143.3200 C   0  0  0  0  0  0  0  0  0  0  0  0
  182.1920  178.3730  141.9760 C   0  0  0  0  0  3  0  0  0  0  0  0
  180.4360  178.2790  140.2810 N   0  0  0  0  0  1  0  0  0  0  0  0
  179.8670  178.4560  142.6490 C   0  0  0  0  0  3  0  0  0  0  0  0
  180.8340  178.3720  141.6430 C   0  0  0  0  0  0  0  0  0  0  0  0
  180.2590  178.5430  143.9890 C   0  0  0  0  0  3  0  0  0  0  0  0
  186.0800  178.0560  137.8250 C   0  0  0  0  0  0  0  0  0  0  0  0
  187.4350  177.8600  137.3780 N   0  0  0  0  0  2  0  0  0  0  0  0
  185.1620  177.3980  137.2670 O   0  0  0  0  0  0  0  0  0  0  0  0
  188.9200  179.6110  136.9600 C   0  0  0  0  0  1  0  0  0  0  0  0
  188.5820  178.5240  137.8640 N   0  0  0  0  0  0  0  0  0  0  0  0
  190.3830  177.7420  139.1180 O   0  0  0  0  0  1  0  0  0  0  0  0
  189.6990  177.5910  137.9120 C   0  0  0  0  0  2  0  0  0  0  0  0
  1 10  1  1  0  0  0
  1 18  1  0  0  0  0
  2 16  1  1  0  0  0
  3  7  1  0  0  0  0
  4  8  2  0  0  0  0
  5  2  1  0  0  0  0
  6  2  1  0  0  0  0
  6  4  1  0  0  0  0
  7  5  1  0  0  0  0
  7 19  1  0  0  0  0
  8 12  1  0  0  0  0
  9  6  1  0  0  0  0
 13  9  1  0  0  0  0
 13  1  1  0  0  0  0
 14 21  1  0  0  0  0
 14 15  1  0  0  0  0
 15  3  1  0  0  0  0
 16 11  2  0  0  0  0
 16 12  1  0  0  0  0
 17  9  1  0  0  0  0
 17  5  1  0  0  0  0
 18  4  1  0  0  0  0
 19 23  1  0  0  0  0
 20  1  1  0  0  0  0
 21 15  1  0  0  0  0
 21 22  1  0  0  0  0
 22 17  1  0  0  0  0
 23 11  1  0  0  0  0
 25 19  1  0  0  0  0
 25 24  2  0  0  0  0
 26 25  1  0  0  0  0
 27 29  1  0  0  0  0
 28 30  2  0  0  0  0
 29 26  2  0  0  0  0
 29 28  1  0  0  0  0
 30 24  1  0  0  0  0
 31 14  1  0  0  0  0
 32 31  1  0  0  0  0
 32 35  1  0  0  0  0
 33 31  2  0  0  0  0
 34 35  1  0  0  0  0
 35 37  1  0  0  0  0
 37 36  1  0  0  0  0
M  END
>  <MODEL>
6

>  <REMARK>
 VINA RESULT:      -8.0      1.735      2.814
  Name = 
  4 active torsions:
  status: ('A' for Active; 'I' for Inactive)
    1  A    between atoms: N_4  and  N_12
    2  A    between atoms: N_4  and  C_37
    3  A    between atoms: C_8  and  C_18
    4  A    between atoms: C_23  and  C_30
                            x       y       z     vdW  Elec       q    Type
                         _______ _______ _______ _____ _____    ______ ____

>  <TORSDO>
F 4

$$$$
=
 OpenBabel11122411343D

 37 43  0  0  1  0  0  0  0  0999 V2000
  182.1970  176.7960  136.5120 C   0  0  1  0  0  0  0  0  0  0  0  0
  186.4220  176.9880  137.4360 C   0  0  1  0  0  3  0  0  0  0  0  0
  187.3470  178.9200  140.6880 C   0  0  0  0  0  2  0  0  0  0  0  0
  184.5650  177.1340  135.6970 C   0  0  0  0  0  0  0  0  0  0  0  0
  186.2370  178.0360  138.5120 C   0  0  2  0  0  3  0  0  0  0  0  0
  185.0270  176.5340  137.0170 C   0  0  2  0  0  3  0  0  0  0  0  0
  187.3140  177.8110  139.6260 C   0  0  1  0  0  3  0  0  0  0  0  0
  185.4460  177.4280  134.7300 C   0  0  0  0  0  3  0  0  0  0  0  0
  184.1490  176.9350  138.2080 C   0  0  2  0  0  3  0  0  0  0  0  0
  182.1370  175.2770  136.4680 C   0  0  0  0  0  1  0  0  0  0  0  0
  188.5120  178.0640  136.5340 C   0  0  0  0  0  3  0  0  0  0  0  0
  186.9170  177.1820  134.9040 C   0  0  0  0  0  2  0  0  0  0  0  0
  182.6820  177.2750  137.8790 C   0  0  0  0  0  2  0  0  0  0  0  0
  185.3930  179.5990  142.3640 C   0  0  1  0  0  3  0  0  0  0  0  0
  186.2040  178.5840  141.5990 C   0  0  1  0  0  3  0  0  0  0  0  0
  187.3200  177.4730  136.3150 C   0  0  0  0  0  0  0  0  0  0  0  0
  184.7880  178.0720  138.8650 N   0  0  1  0  0  0  0  0  0  0  0  0
  183.1060  177.3320  135.4080 C   0  0  0  0  0  2  0  0  0  0  0  0
  188.7100  177.5390  139.0130 C   0  0  1  0  0  3  0  0  0  0  0  0
  180.9110  177.2930  136.3000 O   0  0  0  0  0  1  0  0  0  0  0  0
  185.0830  179.3130  140.9000 C   0  0  1  0  0  3  0  0  0  0  0  0
  184.4230  178.1010  140.2880 C   0  0  0  0  0  2  0  0  0  0  0  0
  189.0630  178.5000  137.8760 C   0  0  0  0  0  2  0  0  0  0  0  0
  191.1370  177.5630  139.6200 C   0  0  0  0  0  3  0  0  0  0  0  0
  189.8090  177.3850  140.0250 C   0  0  0  0  0  0  0  0  0  0  0  0
  189.5320  177.0290  141.3550 C   0  0  0  0  0  3  0  0  0  0  0  0
  190.2920  176.5050  143.6160 N   0  0  0  0  0  1  0  0  0  0  0  0
  191.9000  177.0480  141.8610 C   0  0  0  0  0  3  0  0  0  0  0  0
  190.5770  176.8650  142.2700 C   0  0  0  0  0  0  0  0  0  0  0  0
  192.1800  177.3970  140.5350 C   0  0  0  0  0  3  0  0  0  0  0  0
  184.3720  178.9580  143.2690 C   0  0  0  0  0  0  0  0  0  0  0  0
  184.7300  178.4380  144.5630 N   0  0  0  0  0  2  0  0  0  0  0  0
  183.1820  178.8250  142.8750 O   0  0  0  0  0  0  0  0  0  0  0  0
  186.6600  177.1860  144.9570 C   0  0  0  0  0  1  0  0  0  0  0  0
  186.0110  178.4720  145.1540 N   0  0  0  0  0  0  0  0  0  0  0  0
  184.5420  178.5920  146.9580 O   0  0  0  0  0  1  0  0  0  0  0  0
  185.8800  178.7150  146.5830 C   0  0  0  0  0  2  0  0  0  0  0  0
  1 10  1  6  0  0  0
  1 13  1  0  0  0  0
  2 16  1  6  0  0  0
  2  5  1  0  0  0  0
  3 15  1  0  0  0  0
  4  6  1  0  0  0  0
  5 17  1  0  0  0  0
  5  7  1  0  0  0  0
  6  2  1  0  0  0  0
  6  9  1  0  0  0  0
  7  3  1  0  0  0  0
  8 12  1  0  0  0  0
  8  4  2  0  0  0  0
  9 17  1  0  0  0  0
 11 23  1  0  0  0  0
 12 16  1  0  0  0  0
 13  9  1  0  0  0  0
 14 31  1  0  0  0  0
 15 14  1  0  0  0  0
 16 11  2  0  0  0  0
 17 22  1  0  0  0  0
 18  4  1  0  0  0  0
 18  1  1  0  0  0  0
 19  7  1  0  0  0  0
 19 25  1  0  0  0  0
 20  1  1  0  0  0  0
 21 15  1  0  0  0  0
 21 14  1  0  0  0  0
 22 21  1  0  0  0  0
 23 19  1  0  0  0  0
 24 25  2  0  0  0  0
 24 30  1  0  0  0  0
 25 26  1  0  0  0  0
 26 29  2  0  0  0  0
 28 29  1  0  0  0  0
 29 27  1  0  0  0  0
 30 28  2  0  0  0  0
 31 32  1  0  0  0  0
 32 35  1  0  0  0  0
 33 31  2  0  0  0  0
 34 35  1  0  0  0  0
 35 37  1  0  0  0  0
 37 36  1  0  0  0  0
M  END
>  <MODEL>
7

>  <REMARK>
 VINA RESULT:      -7.7      3.191      9.162
  Name = 
  4 active torsions:
  status: ('A' for Active; 'I' for Inactive)
    1  A    between atoms: N_4  and  N_12
    2  A    between atoms: N_4  and  C_37
    3  A    between atoms: C_8  and  C_18
    4  A    between atoms: C_23  and  C_30
                            x       y       z     vdW  Elec       q    Type
                         _______ _______ _______ _____ _____    ______ ____

>  <TORSDO>
F 4

$$$$
=
 OpenBabel11122411343D

 37 43  0  0  1  0  0  0  0  0999 V2000
  188.7580  176.1630  135.8100 C   0  0  1  0  0  0  0  0  0  0  0  0
  190.4160  176.4470  139.7990 C   0  0  1  0  0  3  0  0  0  0  0  0
  188.3320  178.5350  142.3420 C   0  0  0  0  0  2  0  0  0  0  0  0
  190.7890  176.4920  137.2790 C   0  0  0  0  0  0  0  0  0  0  0  0
  189.4580  177.5410  140.2220 C   0  0  2  0  0  3  0  0  0  0  0  0
  189.9500  175.9580  138.4310 C   0  0  2  0  0  3  0  0  0  0  0  0
  189.1520  177.3790  141.7490 C   0  0  1  0  0  3  0  0  0  0  0  0
  192.0940  176.7530  137.4420 C   0  0  0  0  0  3  0  0  0  0  0  0
  188.4840  176.4020  138.3740 C   0  0  2  0  0  3  0  0  0  0  0  0
  188.7150  174.6430  135.7890 C   0  0  0  0  0  1  0  0  0  0  0  0
  192.3800  177.5060  140.9640 C   0  0  0  0  0  3  0  0  0  0  0  0
  192.7820  176.5310  138.7570 C   0  0  0  0  0  2  0  0  0  0  0  0
  187.9280  176.7090  136.9700 C   0  0  0  0  0  2  0  0  0  0  0  0
  185.8630  179.2660  141.6660 C   0  0  1  0  0  3  0  0  0  0  0  0
  186.9220  178.2270  141.9340 C   0  0  1  0  0  3  0  0  0  0  0  0
  191.8630  176.8920  139.8820 C   0  0  0  0  0  0  0  0  0  0  0  0
  188.3430  177.5750  139.2320 N   0  0  1  0  0  0  0  0  0  0  0  0
  190.2000  176.6590  135.9080 C   0  0  0  0  0  2  0  0  0  0  0  0
  190.4420  177.0960  142.5570 C   0  0  1  0  0  3  0  0  0  0  0  0
  188.2150  176.6350  134.6150 O   0  0  0  0  0  1  0  0  0  0  0  0
  186.8790  178.9100  140.5880 C   0  0  1  0  0  3  0  0  0  0  0  0
  186.9680  177.6640  139.7410 C   0  0  0  0  0  2  0  0  0  0  0  0
  191.6070  178.0080  142.1650 C   0  0  0  0  0  2  0  0  0  0  0  0
  188.9510  177.2020  144.5620 C   0  0  0  0  0  3  0  0  0  0  0  0
  190.2340  177.0010  144.0400 C   0  0  0  0  0  0  0  0  0  0  0  0
  191.3060  176.7550  144.9140 C   0  0  0  0  0  3  0  0  0  0  0  0
  192.1770  176.4490  147.1750 N   0  0  0  0  0  1  0  0  0  0  0  0
  189.8050  176.8970  146.8090 C   0  0  0  0  0  3  0  0  0  0  0  0
  191.0890  176.6990  146.2940 C   0  0  0  0  0  0  0  0  0  0  0  0
  188.7360  177.1480  145.9430 C   0  0  0  0  0  3  0  0  0  0  0  0
  184.5180  178.6550  141.3660 C   0  0  0  0  0  0  0  0  0  0  0  0
  183.7930  178.9780  140.1640 N   0  0  0  0  0  2  0  0  0  0  0  0
  183.9820  177.8780  142.2010 O   0  0  0  0  0  0  0  0  0  0  0  0
  183.1010  180.6740  138.7190 C   0  0  0  0  0  1  0  0  0  0  0  0
  184.2200  179.8450  139.1350 N   0  0  0  0  0  0  0  0  0  0  0  0
  183.9050  177.8970  137.8960 O   0  0  0  0  0  1  0  0  0  0  0  0
  184.6690  179.0600  137.9950 C   0  0  0  0  0  2  0  0  0  0  0  0
  1 10  1  1  0  0  0
  1 18  1  0  0  0  0
  1 13  1  0  0  0  0
  2 16  1  6  0  0  0
  2  5  1  0  0  0  0
  4  8  2  0  0  0  0
  4  6  1  0  0  0  0
  5  7  1  0  0  0  0
  6  2  1  0  0  0  0
  7  3  1  0  0  0  0
  7 19  1  0  0  0  0
  8 12  1  0  0  0  0
  9  6  1  0  0  0  0
  9 17  1  0  0  0  0
 11 23  1  0  0  0  0
 12 16  1  0  0  0  0
 13  9  1  0  0  0  0
 14 15  1  0  0  0  0
 15  3  1  0  0  0  0
 16 11  2  0  0  0  0
 17 22  1  0  0  0  0
 17  5  1  0  0  0  0
 18  4  1  0  0  0  0
 19 25  1  0  0  0  0
 20  1  1  0  0  0  0
 21 14  1  0  0  0  0
 21 15  1  0  0  0  0
 22 21  1  0  0  0  0
 23 19  1  0  0  0  0
 24 30  1  0  0  0  0
 25 24  2  0  0  0  0
 25 26  1  0  0  0  0
 26 29  2  0  0  0  0
 29 28  1  0  0  0  0
 29 27  1  0  0  0  0
 30 28  2  0  0  0  0
 31 14  1  0  0  0  0
 31 33  2  0  0  0  0
 32 31  1  0  0  0  0
 34 35  1  0  0  0  0
 35 32  1  0  0  0  0
 36 37  1  0  0  0  0
 37 35  1  0  0  0  0
M  END
>  <MODEL>
8

>  <REMARK>
 VINA RESULT:      -7.7      2.827      7.989
  Name = 
  4 active torsions:
  status: ('A' for Active; 'I' for Inactive)
    1  A    between atoms: N_4  and  N_12
    2  A    between atoms: N_4  and  C_37
    3  A    between atoms: C_8  and  C_18
    4  A    between atoms: C_23  and  C_30
                            x       y       z     vdW  Elec       q    Type
                         _______ _______ _______ _____ _____    ______ ____

>  <TORSDO>
F 4

$$$$
=
 OpenBabel11122411343D

 37 43  0  0  1  0  0  0  0  0999 V2000
  181.9780  176.7710  136.6420 C   0  0  1  0  0  0  0  0  0  0  0  0
  186.2340  177.0130  137.3970 C   0  0  1  0  0  3  0  0  0  0  0  0
  187.2630  178.9300  140.6280 C   0  0  0  0  0  2  0  0  0  0  0  0
  184.3070  177.1480  135.7360 C   0  0  0  0  0  0  0  0  0  0  0  0
  186.0780  178.0490  138.4900 C   0  0  2  0  0  3  0  0  0  0  0  0
  184.8290  176.5430  137.0310 C   0  0  2  0  0  3  0  0  0  0  0  0
  187.2020  177.8290  139.5570 C   0  0  1  0  0  3  0  0  0  0  0  0
  185.1450  177.4630  134.7370 C   0  0  0  0  0  3  0  0  0  0  0  0
  183.9940  176.9230  138.2600 C   0  0  2  0  0  3  0  0  0  0  0  0
  181.9360  175.2530  136.5860 C   0  0  0  0  0  1  0  0  0  0  0  0
  188.2720  178.1250  136.4230 C   0  0  0  0  0  3  0  0  0  0  0  0
  186.6240  177.2350  134.8500 C   0  0  0  0  0  2  0  0  0  0  0  0
  182.5120  177.2450  137.9930 C   0  0  0  0  0  2  0  0  0  0  0  0
  185.3680  179.5680  142.3860 C   0  0  1  0  0  3  0  0  0  0  0  0
  186.1620  178.5710  141.5810 C   0  0  1  0  0  3  0  0  0  0  0  0
  187.0800  177.5200  136.2460 C   0  0  0  0  0  0  0  0  0  0  0  0
  184.6440  178.0620  138.9000 N   0  0  1  0  0  0  0  0  0  0  0  0
  182.8350  177.3290  135.5070 C   0  0  0  0  0  2  0  0  0  0  0  0
  188.5760  177.5820  138.8880 C   0  0  1  0  0  3  0  0  0  0  0  0
  180.6780  177.2530  136.4850 O   0  0  0  0  0  1  0  0  0  0  0  0
  185.0040  179.2900  140.9330 C   0  0  1  0  0  3  0  0  0  0  0  0
  184.3360  178.0750  140.3370 C   0  0  0  0  0  2  0  0  0  0  0  0
  188.8700  178.5570  137.7450 C   0  0  0  0  0  2  0  0  0  0  0  0
  189.4390  177.2920  141.2170 C   0  0  0  0  0  3  0  0  0  0  0  0
  189.7160  177.4340  139.8530 C   0  0  0  0  0  0  0  0  0  0  0  0
  191.0510  177.4760  139.4170 C   0  0  0  0  0  3  0  0  0  0  0  0
  193.4440  177.4050  139.8960 N   0  0  0  0  0  1  0  0  0  0  0  0
  191.8120  177.2190  141.7020 C   0  0  0  0  0  3  0  0  0  0  0  0
  192.0940  177.3640  140.3410 C   0  0  0  0  0  0  0  0  0  0  0  0
  190.4840  177.1820  142.1400 C   0  0  0  0  0  3  0  0  0  0  0  0
  184.3930  178.9060  143.3250 C   0  0  0  0  0  0  0  0  0  0  0  0
  184.8100  178.3770  144.5980 N   0  0  0  0  0  2  0  0  0  0  0  0
  183.1900  178.7610  142.9790 O   0  0  0  0  0  0  0  0  0  0  0  0
  186.7660  177.1430  144.9080 C   0  0  0  0  0  1  0  0  0  0  0  0
  186.1130  178.4220  145.1370 N   0  0  0  0  0  0  0  0  0  0  0  0
  184.7030  178.6490  146.9780 O   0  0  0  0  0  1  0  0  0  0  0  0
  186.0380  178.6570  146.5720 C   0  0  0  0  0  2  0  0  0  0  0  0
  1 10  1  6  0  0  0
  1 13  1  0  0  0  0
  2 16  1  6  0  0  0
  2  5  1  0  0  0  0
  3 15  1  0  0  0  0
  4  6  1  0  0  0  0
  5 17  1  0  0  0  0
  5  7  1  0  0  0  0
  6  2  1  0  0  0  0
  6  9  1  0  0  0  0
  7  3  1  0  0  0  0
  8 12  1  0  0  0  0
  8  4  2  0  0  0  0
  9 17  1  0  0  0  0
 11 23  1  0  0  0  0
 12 16  1  0  0  0  0
 13  9  1  0  0  0  0
 14 31  1  0  0  0  0
 15 14  1  0  0  0  0
 16 11  2  0  0  0  0
 17 22  1  0  0  0  0
 18  4  1  0  0  0  0
 18  1  1  0  0  0  0
 19  7  1  0  0  0  0
 19 25  1  0  0  0  0
 20  1  1  0  0  0  0
 21 15  1  0  0  0  0
 21 14  1  0  0  0  0
 22 21  1  0  0  0  0
 23 19  1  0  0  0  0
 24 30  1  0  0  0  0
 25 24  2  0  0  0  0
 26 25  1  0  0  0  0
 26 29  2  0  0  0  0
 27 29  1  0  0  0  0
 28 30  2  0  0  0  0
 29 28  1  0  0  0  0
 31 32  1  0  0  0  0
 32 35  1  0  0  0  0
 33 31  2  0  0  0  0
 34 35  1  0  0  0  0
 35 37  1  0  0  0  0
 37 36  1  0  0  0  0
M  END
>  <MODEL>
9

>  <REMARK>
 VINA RESULT:      -7.6      3.186      9.292
  Name = 
  4 active torsions:
  status: ('A' for Active; 'I' for Inactive)
    1  A    between atoms: N_4  and  N_12
    2  A    between atoms: N_4  and  C_37
    3  A    between atoms: C_8  and  C_18
    4  A    between atoms: C_23  and  C_30
                            x       y       z     vdW  Elec       q    Type
                         _______ _______ _______ _____ _____    ______ ____

>  <TORSDO>
F 4

$$$$
