=
 OpenBabel11122410483D

 32 37  0  0  1  0  0  0  0  0999 V2000
  182.2670  177.0510  139.4740 C   0  0  1  0  0  3  0  0  0  0  0  0
  185.5670  177.0760  136.5380 C   0  0  0  0  0  2  0  0  0  0  0  0
  184.6920  176.3560  135.6180 N   0  0  0  0  0  2  0  0  0  0  0  0
  181.1070  174.9360  138.8760 C   0  0  0  0  0  0  0  0  0  0  0  0
  180.5610  174.0180  137.8740 C   0  0  0  0  0  0  0  0  0  0  0  0
  181.5440  178.6910  141.2270 N   0  0  0  0  0  0  0  0  0  0  0  0
  183.4750  179.1620  139.7820 O   0  0  0  0  0  0  0  0  0  0  0  0
  180.1120  173.2600  135.7130 C   0  0  1  0  0  3  0  0  0  0  0  0
  184.8430  177.3300  137.8560 C   0  0  0  0  0  2  0  0  0  0  0  0
  182.7570  178.3650  138.8600 C   0  0  1  0  0  3  0  0  0  0  0  0
  183.5740  178.1510  137.5920 C   0  0  2  0  0  3  0  0  0  0  0  0
  181.9260  176.3140  136.9790 C   0  0  0  0  0  0  0  0  0  0  0  0
  179.6280  172.2430  136.7600 C   0  0  0  0  0  2  0  0  0  0  0  0
  182.9590  179.1040  141.1100 C   0  0  2  0  0  3  0  0  0  0  0  0
  180.0010  172.8460  138.0870 C   0  0  0  0  0  3  0  0  0  0  0  0
  183.5720  177.2290  135.2650 C   0  0  0  0  0  2  0  0  0  0  0  0
  182.7010  177.5240  136.4970 C   0  0  2  0  0  3  0  0  0  0  0  0
  181.3810  175.4840  136.0700 C   0  0  0  0  0  3  0  0  0  0  0  0
  181.2260  177.4370  140.5260 C   0  0  0  0  0  2  0  0  0  0  0  0
  181.0020  174.6310  140.1950 F   0  0  0  0  0  0  0  0  0  0  0  0
  178.9310  173.7470  134.8950 C   0  0  0  0  0  1  0  0  0  0  0  0
  181.7070  176.0750  138.4560 C   0  0  0  0  0  0  0  0  0  0  0  0
  180.6430  174.3440  136.5120 N   0  0  0  0  0  0  0  0  0  0  0  0
  185.3080  178.5890  141.7410 C   0  0  0  0  0  2  0  0  0  0  0  0
  183.8530  178.2480  141.9960 C   0  0  1  0  0  3  0  0  0  0  0  0
  184.6030  179.1460  142.9600 C   0  0  1  0  0  3  0  0  0  0  0  0
  184.9880  178.3390  144.1840 C   0  0  0  0  0  2  0  0  0  0  0  0
  184.2120  178.8080  145.3650 C   0  0  0  0  0  0  0  0  0  0  0  0
  184.7100  178.6130  146.6460 O   0  0  0  0  0  1  0  0  0  0  0  0
  183.0880  179.3510  145.2040 O   0  0  0  0  0  0  0  0  0  0  0  0
  179.6060  180.3830  141.9990 S   0  0  0  0  0  1  0  0  0  0  0  0
  180.6940  179.7450  140.6910 C   0  0  0  0  0  2  0  0  0  0  0  0
  1 19  1  1  0  0  0
  2  9  1  0  0  0  0
  3  2  1  0  0  0  0
  4 20  1  0  0  0  0
  5 15  2  0  0  0  0
  5  4  1  0  0  0  0
  8 21  1  1  0  0  0
  8 23  1  0  0  0  0
  8 13  1  0  0  0  0
 10  1  1  0  0  0  0
 10  7  1  1  0  0  0
 11  9  1  1  0  0  0
 11 10  1  0  0  0  0
 12 22  1  0  0  0  0
 13 15  1  0  0  0  0
 14  7  1  6  0  0  0
 14  6  1  0  0  0  0
 14 25  1  0  0  0  0
 16  3  1  0  0  0  0
 17 16  1  6  0  0  0
 17 12  1  0  0  0  0
 17 11  1  0  0  0  0
 18 23  1  0  0  0  0
 18 12  2  0  0  0  0
 19  6  1  0  0  0  0
 22  4  2  0  0  0  0
 22  1  1  0  0  0  0
 23  5  1  0  0  0  0
 24 26  1  0  0  0  0
 25 24  1  6  0  0  0
 25 26  1  0  0  0  0
 26 27  1  1  0  0  0
 27 28  1  0  0  0  0
 28 29  1  0  0  0  0
 30 28  2  0  0  0  0
 32  6  1  0  0  0  0
 32 31  1  0  0  0  0
M  END
>  <MODEL>
1

>  <REMARK>
 VINA RESULT:      -6.2      0.000      0.000
  Name = 
  4 active torsions:
  status: ('A' for Active; 'I' for Inactive)
    1  A    between atoms: N_7  and  C_19
    2  A    between atoms: C_10  and  C_17
    3  A    between atoms: C_20  and  C_29
    4  A    between atoms: C_29  and  C_30
                            x       y       z     vdW  Elec       q    Type
                         _______ _______ _______ _____ _____    ______ ____

>  <TORSDO>
F 4

$$$$
=
 OpenBabel11122410483D

 32 37  0  0  1  0  0  0  0  0999 V2000
  183.2990  177.0390  138.7770 C   0  0  1  0  0  3  0  0  0  0  0  0
  186.7300  175.5660  136.4160 C   0  0  0  0  0  2  0  0  0  0  0  0
  185.7790  174.8660  135.5580 N   0  0  0  0  0  2  0  0  0  0  0  0
  181.6830  175.1720  138.4920 C   0  0  0  0  0  0  0  0  0  0  0  0
  181.0040  174.1890  137.6460 C   0  0  0  0  0  0  0  0  0  0  0  0
  182.8830  179.1840  140.0070 N   0  0  0  0  0  0  0  0  0  0  0  0
  184.9860  178.8180  138.7900 O   0  0  0  0  0  0  0  0  0  0  0  0
  180.5590  173.0460  135.6610 C   0  0  1  0  0  3  0  0  0  0  0  0
  185.9870  176.3000  137.5270 C   0  0  0  0  0  2  0  0  0  0  0  0
  184.1660  178.0080  137.9700 C   0  0  1  0  0  3  0  0  0  0  0  0
  185.0050  177.3030  136.9110 C   0  0  2  0  0  3  0  0  0  0  0  0
  182.9930  175.8080  136.4800 C   0  0  0  0  0  0  0  0  0  0  0  0
  179.7390  172.4620  136.8230 C   0  0  0  0  0  2  0  0  0  0  0  0
  184.3620  179.2120  140.0090 C   0  0  2  0  0  3  0  0  0  0  0  0
  180.1410  173.2710  138.0260 C   0  0  0  0  0  3  0  0  0  0  0  0
  184.9610  175.8610  134.8650 C   0  0  0  0  0  2  0  0  0  0  0  0
  184.0950  176.6460  135.8630 C   0  0  2  0  0  3  0  0  0  0  0  0
  182.3290  174.9300  135.7050 C   0  0  0  0  0  3  0  0  0  0  0  0
  182.3090  177.9050  139.5570 C   0  0  0  0  0  2  0  0  0  0  0  0
  181.3900  175.2370  139.8170 F   0  0  0  0  0  0  0  0  0  0  0  0
  179.6210  173.5780  134.5940 C   0  0  0  0  0  1  0  0  0  0  0  0
  182.5930  176.0000  137.9260 C   0  0  0  0  0  0  0  0  0  0  0  0
  181.2840  174.1390  136.2720 N   0  0  0  0  0  0  0  0  0  0  0  0
  186.2880  178.9540  141.5580 C   0  0  0  0  0  2  0  0  0  0  0  0
  184.9220  178.4180  141.1810 C   0  0  1  0  0  3  0  0  0  0  0  0
  185.0730  179.3360  142.3770 C   0  0  1  0  0  3  0  0  0  0  0  0
  185.0280  178.5040  143.6430 C   0  0  0  0  0  2  0  0  0  0  0  0
  183.8640  178.9110  144.4760 C   0  0  0  0  0  0  0  0  0  0  0  0
  183.9960  179.0060  145.8560 O   0  0  0  0  0  1  0  0  0  0  0  0
  182.7510  179.1360  143.9360 O   0  0  0  0  0  0  0  0  0  0  0  0
  180.6910  179.8580  138.6090 S   0  0  0  0  0  1  0  0  0  0  0  0
  182.3860  180.2410  139.1370 C   0  0  0  0  0  2  0  0  0  0  0  0
  1 19  1  6  0  0  0
  2  9  1  0  0  0  0
  3  2  1  0  0  0  0
  4 20  1  0  0  0  0
  5 15  2  0  0  0  0
  5  4  1  0  0  0  0
  6 14  1  0  0  0  0
  8 21  1  6  0  0  0
  8 23  1  0  0  0  0
  8 13  1  0  0  0  0
 10  1  1  0  0  0  0
 10  7  1  1  0  0  0
 11  9  1  1  0  0  0
 11 10  1  0  0  0  0
 12 22  1  0  0  0  0
 13 15  1  0  0  0  0
 14  7  1  6  0  0  0
 14 25  1  0  0  0  0
 16  3  1  0  0  0  0
 17 16  1  6  0  0  0
 17 12  1  0  0  0  0
 17 11  1  0  0  0  0
 18 23  1  0  0  0  0
 18 12  2  0  0  0  0
 19  6  1  0  0  0  0
 22  4  2  0  0  0  0
 22  1  1  0  0  0  0
 23  5  1  0  0  0  0
 24 26  1  0  0  0  0
 25 24  1  6  0  0  0
 25 26  1  0  0  0  0
 26 27  1  1  0  0  0
 27 28  1  0  0  0  0
 28 29  1  0  0  0  0
 30 28  2  0  0  0  0
 31 32  1  0  0  0  0
 32  6  1  0  0  0  0
M  END
>  <MODEL>
2

>  <REMARK>
 VINA RESULT:      -6.0      1.340      1.481
  Name = 
  4 active torsions:
  status: ('A' for Active; 'I' for Inactive)
    1  A    between atoms: N_7  and  C_19
    2  A    between atoms: C_10  and  C_17
    3  A    between atoms: C_20  and  C_29
    4  A    between atoms: C_29  and  C_30
                            x       y       z     vdW  Elec       q    Type
                         _______ _______ _______ _____ _____    ______ ____

>  <TORSDO>
F 4

$$$$
=
 OpenBabel11122410483D

 32 37  0  0  1  0  0  0  0  0999 V2000
  184.4350  177.8910  137.9870 C   0  0  1  0  0  3  0  0  0  0  0  0
  181.8450  175.1500  135.6880 C   0  0  0  0  0  2  0  0  0  0  0  0
  183.0070  174.2850  135.5010 N   0  0  0  0  0  2  0  0  0  0  0  0
  186.6330  177.5080  136.8920 C   0  0  0  0  0  0  0  0  0  0  0  0
  187.6460  176.6040  136.3430 C   0  0  0  0  0  0  0  0  0  0  0  0
  184.0020  179.3820  139.9560 N   0  0  0  0  0  0  0  0  0  0  0  0
  182.2100  177.9900  139.0110 O   0  0  0  0  0  0  0  0  0  0  0  0
  188.5260  174.5380  135.7110 C   0  0  1  0  0  3  0  0  0  0  0  0
  182.2390  176.3850  136.4900 C   0  0  0  0  0  2  0  0  0  0  0  0
  183.2900  177.1420  138.6700 C   0  0  1  0  0  3  0  0  0  0  0  0
  182.7940  175.9550  137.8530 C   0  0  2  0  0  3  0  0  0  0  0  0
  185.2260  175.4960  137.2640 C   0  0  0  0  0  0  0  0  0  0  0  0
  189.4780  175.6790  135.3190 C   0  0  0  0  0  2  0  0  0  0  0  0
  182.6180  179.2870  139.4430 C   0  0  2  0  0  3  0  0  0  0  0  0
  188.7790  176.9360  135.7610 C   0  0  0  0  0  3  0  0  0  0  0  0
  183.4130  173.7660  136.8070 C   0  0  0  0  0  2  0  0  0  0  0  0
  183.9050  174.9050  137.7160 C   0  0  2  0  0  3  0  0  0  0  0  0
  186.1840  174.6740  136.7980 C   0  0  0  0  0  3  0  0  0  0  0  0
  185.0170  178.8310  139.0440 C   0  0  0  0  0  2  0  0  0  0  0  0
  186.8530  178.8490  136.8840 F   0  0  0  0  0  0  0  0  0  0  0  0
  189.2230  173.6040  136.6820 C   0  0  0  0  0  1  0  0  0  0  0  0
  185.4940  176.9780  137.3980 C   0  0  0  0  0  0  0  0  0  0  0  0
  187.4340  175.2180  136.3750 N   0  0  0  0  0  0  0  0  0  0  0  0
  181.0580  180.0150  137.6500 C   0  0  0  0  0  2  0  0  0  0  0  0
  182.3660  180.3190  138.3530 C   0  0  1  0  0  3  0  0  0  0  0  0
  181.1170  181.1090  138.6960 C   0  0  1  0  0  3  0  0  0  0  0  0
  181.1900  182.4610  138.0160 C   0  0  0  0  0  2  0  0  0  0  0  0
  179.8230  183.0330  137.8790 C   0  0  0  0  0  0  0  0  0  0  0  0
  178.9510  183.0170  138.9590 O   0  0  0  0  0  1  0  0  0  0  0  0
  179.4440  183.5010  136.7740 O   0  0  0  0  0  0  0  0  0  0  0  0
  185.7350  178.9250  141.9550 S   0  0  0  0  0  1  0  0  0  0  0  0
  184.0910  178.6740  141.2250 C   0  0  0  0  0  2  0  0  0  0  0  0
  1 10  1  0  0  0  0
  1 19  1  1  0  0  0
  2  9  1  0  0  0  0
  3  2  1  0  0  0  0
  3 16  1  0  0  0  0
  4 22  2  0  0  0  0
  5 23  1  0  0  0  0
  5  4  1  0  0  0  0
  6 32  1  0  0  0  0
  8 23  1  0  0  0  0
  8 21  1  1  0  0  0
 10  7  1  6  0  0  0
 11  9  1  6  0  0  0
 11 10  1  0  0  0  0
 12 22  1  0  0  0  0
 12 17  1  0  0  0  0
 13  8  1  0  0  0  0
 13 15  1  0  0  0  0
 14  7  1  6  0  0  0
 14  6  1  0  0  0  0
 15  5  2  0  0  0  0
 17 16  1  6  0  0  0
 17 11  1  0  0  0  0
 18 12  2  0  0  0  0
 19  6  1  0  0  0  0
 20  4  1  0  0  0  0
 22  1  1  0  0  0  0
 23 18  1  0  0  0  0
 24 26  1  0  0  0  0
 25 24  1  6  0  0  0
 25 26  1  0  0  0  0
 25 14  1  0  0  0  0
 26 27  1  6  0  0  0
 28 27  1  0  0  0  0
 28 29  1  0  0  0  0
 30 28  2  0  0  0  0
 32 31  1  0  0  0  0
M  END
>  <MODEL>
3

>  <REMARK>
 VINA RESULT:      -5.7      3.417      6.326
  Name = 
  4 active torsions:
  status: ('A' for Active; 'I' for Inactive)
    1  A    between atoms: N_7  and  C_19
    2  A    between atoms: C_10  and  C_17
    3  A    between atoms: C_20  and  C_29
    4  A    between atoms: C_29  and  C_30
                            x       y       z     vdW  Elec       q    Type
                         _______ _______ _______ _____ _____    ______ ____

>  <TORSDO>
F 4

$$$$
=
 OpenBabel11122410483D

 32 37  0  0  1  0  0  0  0  0999 V2000
  192.8680  175.5010  136.6100 C   0  0  1  0  0  3  0  0  0  0  0  0
  190.3130  172.1200  135.3640 C   0  0  0  0  0  2  0  0  0  0  0  0
  189.1530  172.9840  135.5650 N   0  0  0  0  0  2  0  0  0  0  0  0
  191.3610  176.6850  138.1930 C   0  0  0  0  0  0  0  0  0  0  0  0
  190.0440  177.2210  138.5440 C   0  0  0  0  0  0  0  0  0  0  0  0
  195.1610  176.2400  135.9160 N   0  0  0  0  0  0  0  0  0  0  0  0
  194.1150  174.2600  134.9030 O   0  0  0  0  0  0  0  0  0  0  0  0
  187.7670  177.6240  138.2330 C   0  0  1  0  0  3  0  0  0  0  0  0
  191.5910  172.8760  135.7090 C   0  0  0  0  0  2  0  0  0  0  0  0
  192.9210  174.9680  135.1770 C   0  0  1  0  0  3  0  0  0  0  0  0
  191.7070  174.1200  134.8200 C   0  0  2  0  0  3  0  0  0  0  0  0
  190.3040  175.7860  136.1330 C   0  0  0  0  0  0  0  0  0  0  0  0
  188.2350  178.1570  139.5970 C   0  0  0  0  0  2  0  0  0  0  0  0
  195.2650  174.8140  135.5380 C   0  0  2  0  0  3  0  0  0  0  0  0
  189.6970  177.8090  139.6690 C   0  0  0  0  0  3  0  0  0  0  0  0
  189.2140  174.0750  134.5940 C   0  0  0  0  0  2  0  0  0  0  0  0
  190.4320  174.9750  134.8600 C   0  0  2  0  0  3  0  0  0  0  0  0
  189.1100  176.3220  136.4480 C   0  0  0  0  0  3  0  0  0  0  0  0
  193.9640  176.5630  136.7090 C   0  0  0  0  0  2  0  0  0  0  0  0
  192.3990  176.8320  139.0570 F   0  0  0  0  0  0  0  0  0  0  0  0
  187.2380  178.7720  137.3940 C   0  0  0  0  0  1  0  0  0  0  0  0
  191.5100  176.0510  137.0050 C   0  0  0  0  0  0  0  0  0  0  0  0
  188.9770  177.0940  137.6420 N   0  0  0  0  0  0  0  0  0  0  0  0
  196.9160  173.1540  136.3730 C   0  0  0  0  0  2  0  0  0  0  0  0
  195.6840  173.9620  136.7280 C   0  0  1  0  0  3  0  0  0  0  0  0
  197.0500  174.4120  137.2050 C   0  0  1  0  0  3  0  0  0  0  0  0
  197.2060  174.0430  138.6660 C   0  0  0  0  0  2  0  0  0  0  0  0
  197.9580  175.1100  139.3820 C   0  0  0  0  0  0  0  0  0  0  0  0
  197.3310  175.8590  140.3690 O   0  0  0  0  0  1  0  0  0  0  0  0
  199.1510  175.3570  139.0690 O   0  0  0  0  0  0  0  0  0  0  0  0
  196.1840  178.5250  134.9450 S   0  0  0  0  0  1  0  0  0  0  0  0
  195.1450  177.0540  134.7090 C   0  0  0  0  0  2  0  0  0  0  0  0
  1 19  1  6  0  0  0
  1 22  1  0  0  0  0
  2  3  1  0  0  0  0
  2  9  1  0  0  0  0
  4  5  1  0  0  0  0
  4 20  1  0  0  0  0
  5 15  2  0  0  0  0
  6 19  1  0  0  0  0
  8 21  1  6  0  0  0
  8 13  1  0  0  0  0
 10  7  1  1  0  0  0
 10  1  1  0  0  0  0
 11 17  1  0  0  0  0
 11 10  1  0  0  0  0
 11  9  1  1  0  0  0
 12 18  2  0  0  0  0
 12 22  1  0  0  0  0
 13 15  1  0  0  0  0
 14  7  1  1  0  0  0
 14  6  1  0  0  0  0
 14 25  1  0  0  0  0
 16  3  1  0  0  0  0
 17 16  1  1  0  0  0
 17 12  1  0  0  0  0
 18 23  1  0  0  0  0
 22  4  2  0  0  0  0
 23  8  1  0  0  0  0
 23  5  1  0  0  0  0
 24 26  1  0  0  0  0
 25 24  1  6  0  0  0
 25 26  1  0  0  0  0
 26 27  1  1  0  0  0
 27 28  1  0  0  0  0
 28 29  1  0  0  0  0
 30 28  2  0  0  0  0
 32 31  1  0  0  0  0
 32  6  1  0  0  0  0
M  END
>  <MODEL>
4

>  <REMARK>
 VINA RESULT:      -5.5      9.256     11.940
  Name = 
  4 active torsions:
  status: ('A' for Active; 'I' for Inactive)
    1  A    between atoms: N_7  and  C_19
    2  A    between atoms: C_10  and  C_17
    3  A    between atoms: C_20  and  C_29
    4  A    between atoms: C_29  and  C_30
                            x       y       z     vdW  Elec       q    Type
                         _______ _______ _______ _____ _____    ______ ____

>  <TORSDO>
F 4

$$$$
=
 OpenBabel11122410483D

 32 37  0  0  1  0  0  0  0  0999 V2000
  183.2510  177.1790  138.3460 C   0  0  1  0  0  3  0  0  0  0  0  0
  186.7120  178.6270  140.6770 C   0  0  0  0  0  2  0  0  0  0  0  0
  187.5750  177.8580  139.7850 N   0  0  0  0  0  2  0  0  0  0  0  0
  184.0730  174.9570  137.5940 C   0  0  0  0  0  0  0  0  0  0  0  0
  185.1270  174.1080  137.0360 C   0  0  0  0  0  0  0  0  0  0  0  0
  181.0560  178.2280  137.7410 N   0  0  0  0  0  0  0  0  0  0  0  0
  182.7160  179.4600  139.0700 O   0  0  0  0  0  0  0  0  0  0  0  0
  187.2660  173.6330  136.2330 C   0  0  1  0  0  3  0  0  0  0  0  0
  185.2520  178.4400  140.2790 C   0  0  0  0  0  2  0  0  0  0  0  0
  183.6300  178.6620  138.3430 C   0  0  1  0  0  3  0  0  0  0  0  0
  185.0520  178.9050  138.8310 C   0  0  2  0  0  3  0  0  0  0  0  0
  185.7250  176.8120  137.5530 C   0  0  0  0  0  0  0  0  0  0  0  0
  186.4070  172.3590  136.2850 C   0  0  0  0  0  2  0  0  0  0  0  0
  181.3610  179.0340  138.9430 C   0  0  2  0  0  3  0  0  0  0  0  0
  185.0810  172.8080  136.8370 C   0  0  0  0  0  3  0  0  0  0  0  0
  187.4800  178.4290  138.4420 C   0  0  0  0  0  2  0  0  0  0  0  0
  186.0610  178.2540  137.8750 C   0  0  2  0  0  3  0  0  0  0  0  0
  186.6700  176.0290  136.9990 C   0  0  0  0  0  3  0  0  0  0  0  0
  181.9480  177.0730  137.5520 C   0  0  0  0  0  2  0  0  0  0  0  0
  182.8670  174.4160  137.9080 F   0  0  0  0  0  0  0  0  0  0  0  0
  187.6890  173.9020  134.8010 C   0  0  0  0  0  1  0  0  0  0  0  0
  184.3310  176.2730  137.7840 C   0  0  0  0  0  0  0  0  0  0  0  0
  186.3640  174.6700  136.6860 N   0  0  0  0  0  0  0  0  0  0  0  0
  181.5410  178.9700  141.4210 C   0  0  0  0  0  2  0  0  0  0  0  0
  180.8990  178.3250  140.2090 C   0  0  1  0  0  3  0  0  0  0  0  0
  180.1070  179.2970  141.0610 C   0  0  1  0  0  3  0  0  0  0  0  0
  179.1660  178.5120  141.9520 C   0  0  0  0  0  2  0  0  0  0  0  0
  179.3450  178.9290  143.3700 C   0  0  0  0  0  0  0  0  0  0  0  0
  179.6800  177.9870  144.3340 O   0  0  0  0  0  1  0  0  0  0  0  0
  179.1590  180.1280  143.7020 O   0  0  0  0  0  0  0  0  0  0  0  0
  180.2120  180.6100  136.8320 S   0  0  0  0  0  1  0  0  0  0  0  0
  181.1460  179.0760  136.5610 C   0  0  0  0  0  2  0  0  0  0  0  0
  1 19  1  6  0  0  0
  3  2  1  0  0  0  0
  4 22  2  0  0  0  0
  4 20  1  0  0  0  0
  5  4  1  0  0  0  0
  6 14  1  0  0  0  0
  8 21  1  6  0  0  0
  8 13  1  0  0  0  0
  8 23  1  0  0  0  0
  9  2  1  0  0  0  0
 10  1  1  0  0  0  0
 10 11  1  0  0  0  0
 10  7  1  1  0  0  0
 11  9  1  1  0  0  0
 12 22  1  0  0  0  0
 12 17  1  0  0  0  0
 13 15  1  0  0  0  0
 14  7  1  1  0  0  0
 14 25  1  0  0  0  0
 15  5  2  0  0  0  0
 16  3  1  0  0  0  0
 17 16  1  1  0  0  0
 17 11  1  0  0  0  0
 18 12  2  0  0  0  0
 19  6  1  0  0  0  0
 22  1  1  0  0  0  0
 23 18  1  0  0  0  0
 23  5  1  0  0  0  0
 25 26  1  0  0  0  0
 25 24  1  1  0  0  0
 26 24  1  0  0  0  0
 26 27  1  1  0  0  0
 27 28  1  0  0  0  0
 28 30  2  0  0  0  0
 28 29  1  0  0  0  0
 32 31  1  0  0  0  0
 32  6  1  0  0  0  0
M  END
>  <MODEL>
5

>  <REMARK>
 VINA RESULT:      -5.2      3.140      4.585
  Name = 
  4 active torsions:
  status: ('A' for Active; 'I' for Inactive)
    1  A    between atoms: N_7  and  C_19
    2  A    between atoms: C_10  and  C_17
    3  A    between atoms: C_20  and  C_29
    4  A    between atoms: C_29  and  C_30
                            x       y       z     vdW  Elec       q    Type
                         _______ _______ _______ _____ _____    ______ ____

>  <TORSDO>
F 4

$$$$
=
 OpenBabel11122410483D

 32 37  0  0  1  0  0  0  0  0999 V2000
  182.4030  178.8410  140.4630 C   0  0  1  0  0  3  0  0  0  0  0  0
  179.2260  177.0560  142.9590 C   0  0  0  0  0  2  0  0  0  0  0  0
  180.0550  177.3320  144.1290 N   0  0  0  0  0  2  0  0  0  0  0  0
  184.4280  178.2930  141.7970 C   0  0  0  0  0  0  0  0  0  0  0  0
  185.1290  178.2150  143.0800 C   0  0  0  0  0  0  0  0  0  0  0  0
  182.3440  180.1770  138.3420 N   0  0  0  0  0  0  0  0  0  0  0  0
  180.2660  179.4010  139.4000 O   0  0  0  0  0  0  0  0  0  0  0  0
  185.3330  178.3810  145.3990 C   0  0  1  0  0  3  0  0  0  0  0  0
  179.9440  177.5110  141.6930 C   0  0  0  0  0  2  0  0  0  0  0  0
  181.0340  179.5130  140.5830 C   0  0  1  0  0  3  0  0  0  0  0  0
  180.2380  179.0130  141.7820 C   0  0  2  0  0  3  0  0  0  0  0  0
  182.4240  179.0030  143.0810 C   0  0  0  0  0  0  0  0  0  0  0  0
  186.6270  177.8340  144.7740 C   0  0  0  0  0  2  0  0  0  0  0  0
  181.0410  179.4900  138.2060 C   0  0  2  0  0  3  0  0  0  0  0  0
  186.3440  177.7600  143.2980 C   0  0  0  0  0  3  0  0  0  0  0  0
  180.1850  178.7810  144.2740 C   0  0  0  0  0  2  0  0  0  0  0  0
  180.9560  179.3810  143.0870 C   0  0  2  0  0  3  0  0  0  0  0  0
  183.0940  178.9690  144.2480 C   0  0  0  0  0  3  0  0  0  0  0  0
  183.1860  179.6540  139.4310 C   0  0  0  0  0  2  0  0  0  0  0  0
  185.0680  177.9260  140.6570 F   0  0  0  0  0  0  0  0  0  0  0  0
  185.6260  179.6880  146.1110 C   0  0  0  0  0  1  0  0  0  0  0  0
  183.1470  178.7350  141.7810 C   0  0  0  0  0  0  0  0  0  0  0  0
  184.4780  178.6200  144.2550 N   0  0  0  0  0  0  0  0  0  0  0  0
  180.4310  178.0550  136.2710 C   0  0  0  0  0  2  0  0  0  0  0  0
  181.2090  178.1180  137.5700 C   0  0  1  0  0  3  0  0  0  0  0  0
  181.9310  178.2690  136.2460 C   0  0  1  0  0  3  0  0  0  0  0  0
  182.6260  176.9640  135.9150 C   0  0  0  0  0  2  0  0  0  0  0  0
  184.1000  177.1280  136.0460 C   0  0  0  0  0  0  0  0  0  0  0  0
  184.6730  177.2770  137.3020 O   0  0  0  0  0  1  0  0  0  0  0  0
  184.8230  177.1660  135.0180 O   0  0  0  0  0  0  0  0  0  0  0  0
  180.8220  182.2050  137.4600 S   0  0  0  0  0  1  0  0  0  0  0  0
  182.1150  181.5950  138.5800 C   0  0  0  0  0  2  0  0  0  0  0  0
  1 19  1  6  0  0  0
  1 10  1  0  0  0  0
  1 22  1  0  0  0  0
  2  3  1  0  0  0  0
  3 16  1  0  0  0  0
  4  5  1  0  0  0  0
  5 15  2  0  0  0  0
  5 23  1  0  0  0  0
  6 32  1  0  0  0  0
  6 19  1  0  0  0  0
  8 21  1  6  0  0  0
  9  2  1  0  0  0  0
 10  7  1  6  0  0  0
 10 11  1  0  0  0  0
 11  9  1  6  0  0  0
 11 17  1  0  0  0  0
 12 17  1  0  0  0  0
 12 18  2  0  0  0  0
 13  8  1  0  0  0  0
 14  6  1  0  0  0  0
 14  7  1  1  0  0  0
 15 13  1  0  0  0  0
 17 16  1  1  0  0  0
 18 23  1  0  0  0  0
 20  4  1  0  0  0  0
 22  4  2  0  0  0  0
 22 12  1  0  0  0  0
 23  8  1  0  0  0  0
 25 24  1  6  0  0  0
 25 14  1  0  0  0  0
 26 27  1  6  0  0  0
 26 24  1  0  0  0  0
 26 25  1  0  0  0  0
 27 28  1  0  0  0  0
 28 29  1  0  0  0  0
 30 28  2  0  0  0  0
 31 32  1  0  0  0  0
M  END
>  <MODEL>
6

>  <REMARK>
 VINA RESULT:      -5.2      3.652      7.772
  Name = 
  4 active torsions:
  status: ('A' for Active; 'I' for Inactive)
    1  A    between atoms: N_7  and  C_19
    2  A    between atoms: C_10  and  C_17
    3  A    between atoms: C_20  and  C_29
    4  A    between atoms: C_29  and  C_30
                            x       y       z     vdW  Elec       q    Type
                         _______ _______ _______ _____ _____    ______ ____

>  <TORSDO>
F 4

$$$$
=
 OpenBabel11122410483D

 32 37  0  0  1  0  0  0  0  0999 V2000
  185.8860  176.0690  137.1410 C   0  0  1  0  0  3  0  0  0  0  0  0
  187.9790  178.6100  140.0860 C   0  0  0  0  0  2  0  0  0  0  0  0
  189.2270  178.3030  139.3940 N   0  0  0  0  0  2  0  0  0  0  0  0
  187.6510  174.4040  136.6020 C   0  0  0  0  0  0  0  0  0  0  0  0
  189.0410  174.0770  136.2760 C   0  0  0  0  0  0  0  0  0  0  0  0
  183.6100  176.2030  136.0990 N   0  0  0  0  0  0  0  0  0  0  0  0
  184.3600  177.9020  137.7090 O   0  0  0  0  0  0  0  0  0  0  0  0
  191.3000  174.5360  135.9180 C   0  0  1  0  0  3  0  0  0  0  0  0
  186.8170  177.8890  139.4110 C   0  0  0  0  0  2  0  0  0  0  0  0
  185.6350  177.5770  137.1890 C   0  0  1  0  0  3  0  0  0  0  0  0
  186.7230  178.3300  137.9450 C   0  0  2  0  0  3  0  0  0  0  0  0
  188.4020  176.7580  136.8580 C   0  0  0  0  0  0  0  0  0  0  0  0
  191.0280  173.0260  135.8200 C   0  0  0  0  0  2  0  0  0  0  0  0
  183.3370  176.9860  137.3240 C   0  0  2  0  0  3  0  0  0  0  0  0
  189.5550  172.8790  136.0930 C   0  0  0  0  0  3  0  0  0  0  0  0
  189.1650  178.8750  138.0490 C   0  0  0  0  0  2  0  0  0  0  0  0
  188.0680  178.1920  137.2160 C   0  0  2  0  0  3  0  0  0  0  0  0
  189.6650  176.4480  136.5140 C   0  0  0  0  0  3  0  0  0  0  0  0
  184.9070  175.5090  136.1080 C   0  0  0  0  0  2  0  0  0  0  0  0
  186.7260  173.4120  136.6800 F   0  0  0  0  0  0  0  0  0  0  0  0
  191.8410  175.0410  134.5940 C   0  0  0  0  0  1  0  0  0  0  0  0
  187.3220  175.7000  136.8180 C   0  0  0  0  0  0  0  0  0  0  0  0
  189.9920  175.1020  136.1670 N   0  0  0  0  0  0  0  0  0  0  0  0
  182.8330  176.8870  139.7560 C   0  0  0  0  0  2  0  0  0  0  0  0
  182.9690  176.0720  138.4850 C   0  0  1  0  0  3  0  0  0  0  0  0
  181.5950  176.4530  139.0000 C   0  0  1  0  0  3  0  0  0  0  0  0
  180.9770  175.2490  139.6820 C   0  0  0  0  0  2  0  0  0  0  0  0
  179.8470  175.6830  140.5500 C   0  0  0  0  0  0  0  0  0  0  0  0
  179.5260  177.0300  140.6500 O   0  0  0  0  0  0  0  0  0  0  0  0
  179.2050  174.8330  141.2190 O   0  0  0  0  0  1  0  0  0  0  0  0
  181.9150  177.8130  134.7770 S   0  0  0  0  0  1  0  0  0  0  0  0
  183.5740  177.0930  134.9460 C   0  0  0  0  0  2  0  0  0  0  0  0
  1 19  1  6  0  0  0
  1 10  1  0  0  0  0
  3  2  1  0  0  0  0
  4 20  1  0  0  0  0
  4 22  2  0  0  0  0
  5  4  1  0  0  0  0
  6 19  1  0  0  0  0
  6 14  1  0  0  0  0
  8 21  1  6  0  0  0
  8 23  1  0  0  0  0
  9  2  1  0  0  0  0
 10  7  1  1  0  0  0
 10 11  1  0  0  0  0
 11  9  1  1  0  0  0
 12 17  1  0  0  0  0
 13  8  1  0  0  0  0
 13 15  1  0  0  0  0
 14  7  1  1  0  0  0
 14 25  1  0  0  0  0
 15  5  2  0  0  0  0
 16  3  1  0  0  0  0
 17 11  1  0  0  0  0
 17 16  1  1  0  0  0
 18 12  2  0  0  0  0
 22 12  1  0  0  0  0
 22  1  1  0  0  0  0
 23  5  1  0  0  0  0
 23 18  1  0  0  0  0
 25 26  1  0  0  0  0
 25 24  1  1  0  0  0
 26 27  1  1  0  0  0
 26 24  1  0  0  0  0
 27 28  1  0  0  0  0
 28 29  2  0  0  0  0
 28 30  1  0  0  0  0
 31 32  1  0  0  0  0
 32  6  1  0  0  0  0
M  END
>  <MODEL>
7

>  <REMARK>
 VINA RESULT:      -4.8      4.109      7.057
  Name = 
  4 active torsions:
  status: ('A' for Active; 'I' for Inactive)
    1  A    between atoms: N_7  and  C_19
    2  A    between atoms: C_10  and  C_17
    3  A    between atoms: C_20  and  C_29
    4  A    between atoms: C_29  and  C_30
                            x       y       z     vdW  Elec       q    Type
                         _______ _______ _______ _____ _____    ______ ____

>  <TORSDO>
F 4

$$$$
=
 OpenBabel11122410483D

 32 37  0  0  1  0  0  0  0  0999 V2000
  181.3450  177.3850  136.8230 C   0  0  1  0  0  3  0  0  0  0  0  0
  185.0740  178.4150  138.9540 C   0  0  0  0  0  2  0  0  0  0  0  0
  184.5640  179.7760  139.0920 N   0  0  0  0  0  2  0  0  0  0  0  0
  180.7910  179.5560  135.7460 C   0  0  0  0  0  0  0  0  0  0  0  0
  180.6540  181.0120  135.8060 C   0  0  0  0  0  0  0  0  0  0  0  0
  179.9690  175.2910  136.7270 N   0  0  0  0  0  0  0  0  0  0  0  0
  182.0030  175.3990  138.1020 O   0  0  0  0  0  0  0  0  0  0  0  0
  180.8020  183.1180  136.8000 C   0  0  1  0  0  3  0  0  0  0  0  0
  184.0700  177.5570  138.1910 C   0  0  0  0  0  2  0  0  0  0  0  0
  181.6600  176.7700  138.1870 C   0  0  1  0  0  3  0  0  0  0  0  0
  182.7350  177.5390  138.9450 C   0  0  2  0  0  3  0  0  0  0  0  0
  181.6580  179.6710  138.0700 C   0  0  0  0  0  0  0  0  0  0  0  0
  180.3470  183.2360  135.3370 C   0  0  0  0  0  2  0  0  0  0  0  0
  181.2630  174.6870  137.1130 C   0  0  2  0  0  3  0  0  0  0  0  0
  180.3200  181.8220  134.8230 C   0  0  0  0  0  3  0  0  0  0  0  0
  183.3780  179.7420  139.9470 C   0  0  0  0  0  2  0  0  0  0  0  0
  182.2420  178.9560  139.2720 C   0  0  2  0  0  3  0  0  0  0  0  0
  181.4850  181.0050  138.1250 C   0  0  0  0  0  3  0  0  0  0  0  0
  180.0620  176.7080  136.3380 C   0  0  0  0  0  2  0  0  0  0  0  0
  180.4980  178.8980  134.5940 F   0  0  0  0  0  0  0  0  0  0  0  0
  179.7280  183.6770  137.7140 C   0  0  0  0  0  1  0  0  0  0  0  0
  181.2100  178.8960  136.8520 C   0  0  0  0  0  0  0  0  0  0  0  0
  180.9300  181.6900  137.0020 N   0  0  0  0  0  0  0  0  0  0  0  0
  183.5760  174.2670  136.3060 C   0  0  0  0  0  2  0  0  0  0  0  0
  182.1260  174.4130  135.8900 C   0  0  1  0  0  3  0  0  0  0  0  0
  182.7440  173.0350  136.0170 C   0  0  1  0  0  3  0  0  0  0  0  0
  183.0700  172.5130  134.6320 C   0  0  0  0  0  2  0  0  0  0  0  0
  183.2150  171.0320  134.6690 C   0  0  0  0  0  0  0  0  0  0  0  0
  182.0900  170.2270  134.7910 O   0  0  0  0  0  1  0  0  0  0  0  0
  184.3580  170.5100  134.6250 O   0  0  0  0  0  0  0  0  0  0  0  0
  179.0820  173.4950  138.5150 S   0  0  0  0  0  1  0  0  0  0  0  0
  179.0390  175.1810  137.8410 C   0  0  0  0  0  2  0  0  0  0  0  0
  1 19  1  1  0  0  0
  1 22  1  0  0  0  0
  1 10  1  0  0  0  0
  2  3  1  0  0  0  0
  3 16  1  0  0  0  0
  4  5  1  0  0  0  0
  4 22  2  0  0  0  0
  5 23  1  0  0  0  0
  6 14  1  0  0  0  0
  6 32  1  0  0  0  0
  8 23  1  0  0  0  0
  8 21  1  1  0  0  0
  9  2  1  0  0  0  0
 10  7  1  6  0  0  0
 10 11  1  0  0  0  0
 11  9  1  6  0  0  0
 11 17  1  0  0  0  0
 12 18  2  0  0  0  0
 12 17  1  0  0  0  0
 13  8  1  0  0  0  0
 14  7  1  1  0  0  0
 15 13  1  0  0  0  0
 15  5  2  0  0  0  0
 17 16  1  6  0  0  0
 19  6  1  0  0  0  0
 20  4  1  0  0  0  0
 22 12  1  0  0  0  0
 23 18  1  0  0  0  0
 25 26  1  0  0  0  0
 25 24  1  1  0  0  0
 25 14  1  0  0  0  0
 26 27  1  6  0  0  0
 26 24  1  0  0  0  0
 27 28  1  0  0  0  0
 28 29  1  0  0  0  0
 30 28  2  0  0  0  0
 32 31  1  0  0  0  0
M  END
>  <MODEL>
8

>  <REMARK>
 VINA RESULT:      -4.8      4.329      7.635
  Name = 
  4 active torsions:
  status: ('A' for Active; 'I' for Inactive)
    1  A    between atoms: N_7  and  C_19
    2  A    between atoms: C_10  and  C_17
    3  A    between atoms: C_20  and  C_29
    4  A    between atoms: C_29  and  C_30
                            x       y       z     vdW  Elec       q    Type
                         _______ _______ _______ _____ _____    ______ ____

>  <TORSDO>
F 4

$$$$
=
 OpenBabel11122410483D

 32 37  0  0  1  0  0  0  0  0999 V2000
  186.2420  176.7490  137.2830 C   0  0  1  0  0  3  0  0  0  0  0  0
  184.6580  172.6270  137.4180 C   0  0  0  0  0  2  0  0  0  0  0  0
  183.3540  173.1670  137.0450 N   0  0  0  0  0  2  0  0  0  0  0  0
  184.2310  178.0580  137.9310 C   0  0  0  0  0  0  0  0  0  0  0  0
  182.7970  178.3350  137.8200 C   0  0  0  0  0  0  0  0  0  0  0  0
  188.4730  177.6880  136.6310 N   0  0  0  0  0  0  0  0  0  0  0  0
  188.0430  175.2710  136.5190 O   0  0  0  0  0  0  0  0  0  0  0  0
  180.6190  177.9720  137.0650 C   0  0  1  0  0  3  0  0  0  0  0  0
  185.6750  173.7580  137.5380 C   0  0  0  0  0  2  0  0  0  0  0  0
  186.7150  175.6970  136.2780 C   0  0  1  0  0  3  0  0  0  0  0  0
  185.7790  174.4970  136.1990 C   0  0  2  0  0  3  0  0  0  0  0  0
  183.8480  176.1400  136.4000 C   0  0  0  0  0  0  0  0  0  0  0  0
  180.6610  179.1290  138.0780 C   0  0  0  0  0  2  0  0  0  0  0  0
  188.9030  176.3140  136.9710 C   0  0  2  0  0  3  0  0  0  0  0  0
  182.1040  179.2310  138.4900 C   0  0  0  0  0  3  0  0  0  0  0  0
  183.4510  173.7250  135.6970 C   0  0  0  0  0  2  0  0  0  0  0  0
  184.4040  174.9320  135.6740 C   0  0  2  0  0  3  0  0  0  0  0  0
  182.5400  176.4330  136.2740 C   0  0  0  0  0  3  0  0  0  0  0  0
  187.0880  177.9960  137.0220 C   0  0  0  0  0  2  0  0  0  0  0  0
  185.0010  178.8150  138.7550 F   0  0  0  0  0  0  0  0  0  0  0  0
  180.1110  178.4830  135.7300 C   0  0  0  0  0  1  0  0  0  0  0  0
  184.7570  177.0460  137.2000 C   0  0  0  0  0  0  0  0  0  0  0  0
  182.0050  177.5730  136.9480 N   0  0  0  0  0  0  0  0  0  0  0  0
  190.5550  175.5930  138.6830 C   0  0  0  0  0  2  0  0  0  0  0  0
  189.1740  176.1790  138.4630 C   0  0  1  0  0  3  0  0  0  0  0  0
  190.3310  177.0830  138.8410 C   0  0  1  0  0  3  0  0  0  0  0  0
  190.2220  177.4290  140.3120 C   0  0  0  0  0  2  0  0  0  0  0  0
  191.5680  177.3730  140.9470 C   0  0  0  0  0  0  0  0  0  0  0  0
  191.6920  177.0090  142.2810 O   0  0  0  0  0  1  0  0  0  0  0  0
  192.5890  177.6890  140.2850 O   0  0  0  0  0  0  0  0  0  0  0  0
  190.1200  177.0950  134.5940 S   0  0  0  0  0  1  0  0  0  0  0  0
  188.5980  177.8860  135.1930 C   0  0  0  0  0  2  0  0  0  0  0  0
  1 19  1  6  0  0  0
  2  9  1  0  0  0  0
  3  2  1  0  0  0  0
  4 20  1  0  0  0  0
  5  4  1  0  0  0  0
  5 15  2  0  0  0  0
  6 14  1  0  0  0  0
  6 19  1  0  0  0  0
  8 21  1  6  0  0  0
  8 13  1  0  0  0  0
 10  7  1  1  0  0  0
 10  1  1  0  0  0  0
 11 10  1  0  0  0  0
 11  9  1  1  0  0  0
 12 22  1  0  0  0  0
 13 15  1  0  0  0  0
 14  7  1  1  0  0  0
 14 25  1  0  0  0  0
 16  3  1  0  0  0  0
 17 16  1  1  0  0  0
 17 11  1  0  0  0  0
 17 12  1  0  0  0  0
 18 12  2  0  0  0  0
 18 23  1  0  0  0  0
 22  1  1  0  0  0  0
 22  4  2  0  0  0  0
 23  8  1  0  0  0  0
 23  5  1  0  0  0  0
 24 26  1  0  0  0  0
 25 24  1  6  0  0  0
 25 26  1  0  0  0  0
 26 27  1  1  0  0  0
 27 28  1  0  0  0  0
 28 29  1  0  0  0  0
 30 28  2  0  0  0  0
 31 32  1  0  0  0  0
 32  6  1  0  0  0  0
M  END
>  <MODEL>
9

>  <REMARK>
 VINA RESULT:      -4.7      4.814      6.482
  Name = 
  4 active torsions:
  status: ('A' for Active; 'I' for Inactive)
    1  A    between atoms: N_7  and  C_19
    2  A    between atoms: C_10  and  C_17
    3  A    between atoms: C_20  and  C_29
    4  A    between atoms: C_29  and  C_30
                            x       y       z     vdW  Elec       q    Type
                         _______ _______ _______ _____ _____    ______ ____

>  <TORSDO>
F 4

$$$$
