=
 OpenBabel11122410573D

 31 35  0  0  1  0  0  0  0  0999 V2000
  191.3810  175.7810  147.0810 C   0  0  0  0  0  0  0  0  0  0  0  0
  188.5320  176.9850  145.4040 C   0  0  2  0  0  3  0  0  0  0  0  0
  187.3210  177.8830  145.5630 C   0  0  0  0  0  0  0  0  0  0  0  0
  185.9630  179.3680  146.9270 C   0  0  0  0  0  0  0  0  0  0  0  0
  189.7800  177.5190  146.1340 C   0  0  1  0  0  3  0  0  0  0  0  0
  192.4090  176.0600  146.0310 C   0  0  0  0  0  2  0  0  0  0  0  0
  187.1210  178.6070  146.7480 C   0  0  0  0  0  3  0  0  0  0  0  0
  189.3360  177.7630  143.2030 C   0  0  2  0  0  3  0  0  0  0  0  0
  191.5970  174.8850  147.9390 O   0  0  0  0  0  0  0  0  0  0  0  0
  186.4810  177.1370  143.2900 C   0  0  0  0  0  2  0  0  0  0  0  0
  185.7840  180.0920  148.0970 O   0  0  0  0  0  1  0  0  0  0  0  0
  190.3840  178.6020  143.9540 C   0  0  0  0  0  2  0  0  0  0  0  0
  188.8140  176.6300  143.9980 N   0  0  2  0  0  0  0  0  0  0  0  0
  190.1970  176.5780  147.1730 N   0  0  0  0  0  2  0  0  0  0  0  0
  184.9850  179.3960  145.9320 C   0  0  0  0  0  3  0  0  0  0  0  0
  190.9340  177.9020  145.1920 C   0  0  2  0  0  3  0  0  0  0  0  0
  191.7690  176.6830  144.7990 C   0  0  0  0  0  2  0  0  0  0  0  0
  187.5950  176.0890  143.3820 C   0  0  0  0  0  2  0  0  0  0  0  0
  186.3120  177.8860  144.5770 C   0  0  0  0  0  0  0  0  0  0  0  0
  185.1610  178.6580  144.7590 C   0  0  0  0  0  3  0  0  0  0  0  0
  189.9280  177.2690  141.9690 N   0  0  0  0  0  2  0  0  0  0  0  0
  188.3870  178.8350  141.1730 O   0  0  0  0  0  1  0  0  0  0  0  0
  189.0350  177.6340  140.8750 C   0  0  1  0  0  3  0  0  0  0  0  0
  188.2530  176.8430  137.2660 C   0  0  0  0  0  0  0  0  0  0  0  0
  189.1240  178.7540  138.5940 C   0  0  0  0  0  2  0  0  0  0  0  0
  190.9590  175.6900  139.3050 O   0  0  0  0  0  0  0  0  0  0  0  0
  187.5930  176.4450  136.2710 O   0  0  0  0  0  0  0  0  0  0  0  0
  187.9000  178.1470  137.9100 C   0  0  0  0  0  2  0  0  0  0  0  0
  190.0480  176.4450  138.8770 C   0  0  0  0  0  0  0  0  0  0  0  0
  189.7970  177.7670  139.5510 C   0  0  2  0  0  3  0  0  0  0  0  0
  189.2700  176.0390  137.7890 O   0  0  0  0  0  0  0  0  0  0  0  0
  1 14  1  0  0  0  0
  1  9  2  0  0  0  0
  2  3  1  6  0  0  0
  2  5  1  0  0  0  0
  3  7  1  0  0  0  0
  4 11  1  0  0  0  0
  5 14  1  1  0  0  0
  6  1  1  0  0  0  0
  7  4  2  0  0  0  0
  8 21  1  6  0  0  0
  8 12  1  0  0  0  0
  8 13  1  0  0  0  0
 10 18  1  0  0  0  0
 10 19  1  0  0  0  0
 13 18  1  6  0  0  0
 13  2  1  0  0  0  0
 15  4  1  0  0  0  0
 16 12  1  6  0  0  0
 16  5  1  0  0  0  0
 17 16  1  0  0  0  0
 17  6  1  0  0  0  0
 19 20  1  0  0  0  0
 19  3  2  0  0  0  0
 20 15  2  0  0  0  0
 23 22  1  1  0  0  0
 23 21  1  0  0  0  0
 24 31  1  0  0  0  0
 24 28  1  0  0  0  0
 25 30  1  0  0  0  0
 27 24  2  0  0  0  0
 28 25  1  0  0  0  0
 29 26  2  0  0  0  0
 29 30  1  0  0  0  0
 30 23  1  1  0  0  0
 31 29  1  0  0  0  0
M  END
>  <MODEL>
1

>  <REMARK>
 VINA RESULT:      -8.9      0.000      0.000
  Name = 
  3 active torsions:
  status: ('A' for Active; 'I' for Inactive)
    1  A    between atoms: C_5  and  N_16
    2  A    between atoms: C_5  and  C_30
    3  A    between atoms: C_10  and  N_16
                            x       y       z     vdW  Elec       q    Type
                         _______ _______ _______ _____ _____    ______ ____

>  <TORSDO>
F 3

$$$$
=
 OpenBabel11122410573D

 31 35  0  0  1  0  0  0  0  0999 V2000
  191.3370  175.6470  147.4390 C   0  0  0  0  0  0  0  0  0  0  0  0
  188.6870  176.8240  145.4470 C   0  0  2  0  0  3  0  0  0  0  0  0
  187.4900  177.7560  145.4490 C   0  0  0  0  0  0  0  0  0  0  0  0
  186.0540  179.3400  146.6060 C   0  0  0  0  0  0  0  0  0  0  0  0
  189.8760  177.3680  146.2620 C   0  0  1  0  0  3  0  0  0  0  0  0
  192.4640  175.8490  146.4760 C   0  0  0  0  0  2  0  0  0  0  0  0
  187.2030  178.5450  146.5720 C   0  0  0  0  0  3  0  0  0  0  0  0
  189.7080  177.4690  143.2940 C   0  0  2  0  0  3  0  0  0  0  0  0
  191.4510  174.7930  148.3560 O   0  0  0  0  0  0  0  0  0  0  0  0
  186.8410  176.9110  143.1480 C   0  0  0  0  0  2  0  0  0  0  0  0
  185.7880  180.1280  147.7160 O   0  0  0  0  0  1  0  0  0  0  0  0
  190.7050  178.3220  144.0960 C   0  0  0  0  0  2  0  0  0  0  0  0
  189.0860  176.3900  144.0930 N   0  0  2  0  0  0  0  0  0  0  0  0
  190.1720  176.4740  147.3810 N   0  0  0  0  0  2  0  0  0  0  0  0
  185.1720  179.3370  145.5240 C   0  0  0  0  0  3  0  0  0  0  0  0
  191.1220  177.6760  145.4120 C   0  0  2  0  0  3  0  0  0  0  0  0
  191.9560  176.4200  145.1600 C   0  0  0  0  0  2  0  0  0  0  0  0
  187.9150  175.8450  143.3950 C   0  0  0  0  0  2  0  0  0  0  0  0
  186.5760  177.7300  144.3750 C   0  0  0  0  0  0  0  0  0  0  0  0
  185.4340  178.5350  144.4110 C   0  0  0  0  0  3  0  0  0  0  0  0
  190.3970  176.8980  142.1460 N   0  0  0  0  0  2  0  0  0  0  0  0
  191.3180  177.9030  140.2490 O   0  0  0  0  0  1  0  0  0  0  0  0
  190.1510  177.7720  141.0050 C   0  0  1  0  0  3  0  0  0  0  0  0
  189.0830  178.3160  137.4240 C   0  0  0  0  0  0  0  0  0  0  0  0
  189.5360  176.4080  138.9500 C   0  0  0  0  0  2  0  0  0  0  0  0
  187.2190  178.7880  140.4430 O   0  0  0  0  0  0  0  0  0  0  0  0
  189.1030  178.7770  136.2530 O   0  0  0  0  0  0  0  0  0  0  0  0
  190.0900  177.2840  137.8270 C   0  0  0  0  0  2  0  0  0  0  0  0
  188.0770  178.3170  139.6510 C   0  0  0  0  0  0  0  0  0  0  0  0
  189.0150  177.2400  140.1250 C   0  0  2  0  0  3  0  0  0  0  0  0
  188.1580  178.8110  138.3470 O   0  0  0  0  0  0  0  0  0  0  0  0
  1  9  2  0  0  0  0
  2  3  1  6  0  0  0
  2  5  1  0  0  0  0
  3  7  1  0  0  0  0
  4 11  1  0  0  0  0
  5 14  1  1  0  0  0
  6  1  1  0  0  0  0
  7  4  2  0  0  0  0
  8 21  1  6  0  0  0
  8 13  1  0  0  0  0
  8 12  1  0  0  0  0
 10 18  1  0  0  0  0
 10 19  1  0  0  0  0
 13 18  1  6  0  0  0
 13  2  1  0  0  0  0
 14  1  1  0  0  0  0
 15  4  1  0  0  0  0
 16 12  1  6  0  0  0
 16  5  1  0  0  0  0
 17 16  1  0  0  0  0
 17  6  1  0  0  0  0
 19 20  1  0  0  0  0
 19  3  2  0  0  0  0
 20 15  2  0  0  0  0
 23 22  1  6  0  0  0
 23 21  1  0  0  0  0
 24 28  1  0  0  0  0
 24 31  1  0  0  0  0
 25 30  1  0  0  0  0
 27 24  2  0  0  0  0
 28 25  1  0  0  0  0
 29 30  1  0  0  0  0
 29 26  2  0  0  0  0
 30 23  1  6  0  0  0
 31 29  1  0  0  0  0
M  END
>  <MODEL>
2

>  <REMARK>
 VINA RESULT:      -8.3      1.084      1.609
  Name = 
  3 active torsions:
  status: ('A' for Active; 'I' for Inactive)
    1  A    between atoms: C_5  and  N_16
    2  A    between atoms: C_5  and  C_30
    3  A    between atoms: C_10  and  N_16
                            x       y       z     vdW  Elec       q    Type
                         _______ _______ _______ _____ _____    ______ ____

>  <TORSDO>
F 3

$$$$
=
 OpenBabel11122410573D

 31 35  0  0  1  0  0  0  0  0999 V2000
  192.9400  176.0040  135.6650 C   0  0  0  0  0  0  0  0  0  0  0  0
  189.6050  176.7950  136.4600 C   0  0  2  0  0  3  0  0  0  0  0  0
  188.1710  176.3420  136.2620 C   0  0  0  0  0  0  0  0  0  0  0  0
  186.5640  174.7980  135.2910 C   0  0  0  0  0  0  0  0  0  0  0  0
  190.5970  175.6220  136.5850 C   0  0  1  0  0  3  0  0  0  0  0  0
  193.5350  176.0860  137.0350 C   0  0  0  0  0  2  0  0  0  0  0  0
  187.8870  175.1710  135.5450 C   0  0  0  0  0  3  0  0  0  0  0  0
  189.5780  177.1920  138.8970 C   0  0  2  0  0  3  0  0  0  0  0  0
  193.6770  176.1640  134.6580 O   0  0  0  0  0  0  0  0  0  0  0  0
  187.3580  178.4290  137.4500 C   0  0  0  0  0  2  0  0  0  0  0  0
  186.2950  173.6290  134.5940 O   0  0  0  0  0  1  0  0  0  0  0  0
  190.2640  175.8260  139.0620 C   0  0  0  0  0  2  0  0  0  0  0  0
  189.7600  177.7790  137.5510 N   0  0  2  0  0  0  0  0  0  0  0  0
  191.5630  175.6600  135.4880 N   0  0  0  0  0  2  0  0  0  0  0  0
  185.5150  175.6050  135.7330 C   0  0  0  0  0  3  0  0  0  0  0  0
  191.2770  175.5280  137.9620 C   0  0  2  0  0  3  0  0  0  0  0  0
  192.4790  176.4660  138.0620 C   0  0  0  0  0  2  0  0  0  0  0  0
  188.8170  178.8850  137.3410 C   0  0  0  0  0  2  0  0  0  0  0  0
  187.1080  177.1720  136.6740 C   0  0  0  0  0  0  0  0  0  0  0  0
  185.7870  176.7880  136.4240 C   0  0  0  0  0  3  0  0  0  0  0  0
  190.0980  178.1030  139.9050 N   0  0  0  0  0  2  0  0  0  0  0  0
  187.9090  177.8010  140.6620 O   0  0  0  0  0  1  0  0  0  0  0  0
  189.2260  178.0140  141.0710 C   0  0  1  0  0  3  0  0  0  0  0  0
  189.3510  177.5910  144.8220 C   0  0  0  0  0  0  0  0  0  0  0  0
  188.5030  176.3440  142.8470 C   0  0  0  0  0  2  0  0  0  0  0  0
  191.9890  177.3090  142.4190 O   0  0  0  0  0  0  0  0  0  0  0  0
  189.2180  177.8840  146.0380 O   0  0  0  0  0  0  0  0  0  0  0  0
  188.1380  177.2710  144.0050 C   0  0  0  0  0  2  0  0  0  0  0  0
  190.8250  177.2780  142.8970 C   0  0  0  0  0  0  0  0  0  0  0  0
  189.6680  176.8910  142.0170 C   0  0  2  0  0  3  0  0  0  0  0  0
  190.6200  177.6190  144.2370 O   0  0  0  0  0  0  0  0  0  0  0  0
  1  6  1  0  0  0  0
  2  3  1  1  0  0  0
  2  5  1  0  0  0  0
  2 13  1  0  0  0  0
  3 19  1  0  0  0  0
  4  7  1  0  0  0  0
  4 15  2  0  0  0  0
  5 14  1  6  0  0  0
  5 16  1  0  0  0  0
  6 17  1  0  0  0  0
  7  3  2  0  0  0  0
  8 12  1  0  0  0  0
  8 21  1  1  0  0  0
  9  1  2  0  0  0  0
 11  4  1  0  0  0  0
 13 18  1  6  0  0  0
 13  8  1  0  0  0  0
 14  1  1  0  0  0  0
 15 20  1  0  0  0  0
 16 17  1  6  0  0  0
 16 12  1  0  0  0  0
 18 10  1  0  0  0  0
 19 10  1  0  0  0  0
 20 19  2  0  0  0  0
 21 23  1  0  0  0  0
 23 22  1  6  0  0  0
 24 27  2  0  0  0  0
 25 28  1  0  0  0  0
 26 29  2  0  0  0  0
 28 24  1  0  0  0  0
 29 31  1  0  0  0  0
 30 23  1  1  0  0  0
 30 25  1  0  0  0  0
 30 29  1  0  0  0  0
 31 24  1  0  0  0  0
M  END
>  <MODEL>
3

>  <REMARK>
 VINA RESULT:      -7.3      2.984      8.366
  Name = 
  3 active torsions:
  status: ('A' for Active; 'I' for Inactive)
    1  A    between atoms: C_5  and  N_16
    2  A    between atoms: C_5  and  C_30
    3  A    between atoms: C_10  and  N_16
                            x       y       z     vdW  Elec       q    Type
                         _______ _______ _______ _____ _____    ______ ____

>  <TORSDO>
F 3

$$$$
=
 OpenBabel11122410573D

 31 35  0  0  1  0  0  0  0  0999 V2000
  186.0070  179.1610  146.9230 C   0  0  0  0  0  0  0  0  0  0  0  0
  189.0840  178.0180  145.6560 C   0  0  2  0  0  3  0  0  0  0  0  0
  190.2250  177.0570  145.9280 C   0  0  0  0  0  0  0  0  0  0  0  0
  191.2780  175.3800  147.3390 C   0  0  0  0  0  0  0  0  0  0  0  0
  187.7120  177.4640  146.0900 C   0  0  1  0  0  3  0  0  0  0  0  0
  185.1800  179.0370  145.6830 C   0  0  0  0  0  2  0  0  0  0  0  0
  190.1890  176.2050  147.0420 C   0  0  0  0  0  3  0  0  0  0  0  0
  188.6750  177.5090  143.2750 C   0  0  2  0  0  3  0  0  0  0  0  0
  185.6600  179.9700  147.8220 O   0  0  0  0  0  0  0  0  0  0  0  0
  191.4810  178.0000  143.9370 C   0  0  0  0  0  2  0  0  0  0  0  0
  191.2250  174.5310  148.4350 O   0  0  0  0  0  1  0  0  0  0  0  0
  187.4890  176.6420  143.7310 C   0  0  0  0  0  2  0  0  0  0  0  0
  189.0700  178.5300  144.2700 N   0  0  2  0  0  0  0  0  0  0  0  0
  187.1360  178.3080  147.1350 N   0  0  0  0  0  2  0  0  0  0  0  0
  192.4190  175.4150  146.5370 C   0  0  0  0  0  3  0  0  0  0  0  0
  186.7390  177.2320  144.9200 C   0  0  2  0  0  3  0  0  0  0  0  0
  186.0180  178.5200  144.5230 C   0  0  0  0  0  2  0  0  0  0  0  0
  190.3930  179.0790  143.9450 C   0  0  0  0  0  2  0  0  0  0  0  0
  191.3950  177.1140  145.1430 C   0  0  0  0  0  0  0  0  0  0  0  0
  192.4760  176.2790  145.4400 C   0  0  0  0  0  3  0  0  0  0  0  0
  188.3280  178.1540  142.0180 N   0  0  0  0  0  2  0  0  0  0  0  0
  189.9300  176.5330  141.5070 O   0  0  0  0  0  1  0  0  0  0  0  0
  189.1880  177.5930  140.9830 C   0  0  1  0  0  3  0  0  0  0  0  0
  189.1370  178.4420  137.3030 C   0  0  0  0  0  0  0  0  0  0  0  0
  189.2460  176.4120  138.7320 C   0  0  0  0  0  2  0  0  0  0  0  0
  186.4810  178.5760  139.6990 O   0  0  0  0  0  0  0  0  0  0  0  0
  189.4590  179.0110  136.2280 O   0  0  0  0  0  0  0  0  0  0  0  0
  190.0440  177.4050  137.8880 C   0  0  0  0  0  2  0  0  0  0  0  0
  187.5490  178.2050  139.1470 C   0  0  0  0  0  0  0  0  0  0  0  0
  188.3730  177.1150  139.7760 C   0  0  2  0  0  3  0  0  0  0  0  0
  187.9650  178.8220  137.9640 O   0  0  0  0  0  0  0  0  0  0  0  0
  1 14  1  0  0  0  0
  1  9  2  0  0  0  0
  2  3  1  6  0  0  0
  2  5  1  0  0  0  0
  3  7  1  0  0  0  0
  4 11  1  0  0  0  0
  5 14  1  1  0  0  0
  6  1  1  0  0  0  0
  7  4  2  0  0  0  0
  8 21  1  6  0  0  0
  8 12  1  0  0  0  0
  8 13  1  0  0  0  0
 10 18  1  0  0  0  0
 10 19  1  0  0  0  0
 13 18  1  6  0  0  0
 13  2  1  0  0  0  0
 15  4  1  0  0  0  0
 16 12  1  6  0  0  0
 16  5  1  0  0  0  0
 17 16  1  0  0  0  0
 17  6  1  0  0  0  0
 19 20  1  0  0  0  0
 19  3  2  0  0  0  0
 20 15  2  0  0  0  0
 23 22  1  1  0  0  0
 23 21  1  0  0  0  0
 24 28  1  0  0  0  0
 24 31  1  0  0  0  0
 25 30  1  0  0  0  0
 27 24  2  0  0  0  0
 28 25  1  0  0  0  0
 29 26  2  0  0  0  0
 29 30  1  0  0  0  0
 30 23  1  1  0  0  0
 31 29  1  0  0  0  0
M  END
>  <MODEL>
4

>  <REMARK>
 VINA RESULT:      -7.0      1.510      4.641
  Name = 
  3 active torsions:
  status: ('A' for Active; 'I' for Inactive)
    1  A    between atoms: C_5  and  N_16
    2  A    between atoms: C_5  and  C_30
    3  A    between atoms: C_10  and  N_16
                            x       y       z     vdW  Elec       q    Type
                         _______ _______ _______ _____ _____    ______ ____

>  <TORSDO>
F 3

$$$$
=
 OpenBabel11122410573D

 31 35  0  0  1  0  0  0  0  0999 V2000
  179.4610  180.4960  140.9550 C   0  0  0  0  0  0  0  0  0  0  0  0
  182.7260  179.2340  141.3050 C   0  0  2  0  0  3  0  0  0  0  0  0
  183.7640  178.8240  142.3320 C   0  0  0  0  0  0  0  0  0  0  0  0
  184.4510  178.5750  144.6510 C   0  0  0  0  0  0  0  0  0  0  0  0
  181.2850  178.9010  141.7370 C   0  0  1  0  0  3  0  0  0  0  0  0
  178.9310  179.5070  139.9650 C   0  0  0  0  0  2  0  0  0  0  0  0
  183.4680  178.8720  143.7020 C   0  0  0  0  0  3  0  0  0  0  0  0
  182.8530  177.2870  139.7920 C   0  0  2  0  0  3  0  0  0  0  0  0
  178.9330  181.6350  141.0380 O   0  0  0  0  0  0  0  0  0  0  0  0
  185.4470  178.4550  140.4720 C   0  0  0  0  0  2  0  0  0  0  0  0
  184.1420  178.6110  146.0030 O   0  0  0  0  0  1  0  0  0  0  0  0
  181.5830  176.7540  140.4760 C   0  0  0  0  0  2  0  0  0  0  0  0
  183.0300  178.7480  139.9430 N   0  0  2  0  0  0  0  0  0  0  0  0
  180.5020  180.1290  141.8660 N   0  0  0  0  0  2  0  0  0  0  0  0
  185.7430  178.2470  144.2380 C   0  0  0  0  0  3  0  0  0  0  0  0
  180.5950  177.8560  140.8440 C   0  0  2  0  0  3  0  0  0  0  0  0
  179.9990  178.4920  139.5890 C   0  0  0  0  0  2  0  0  0  0  0  0
  184.4000  179.1390  139.5850 C   0  0  0  0  0  2  0  0  0  0  0  0
  185.0810  178.5290  141.9230 C   0  0  0  0  0  0  0  0  0  0  0  0
  186.0560  178.2230  142.8770 C   0  0  0  0  0  3  0  0  0  0  0  0
  182.8060  176.9400  138.3800 N   0  0  0  0  0  2  0  0  0  0  0  0
  181.8630  174.8040  138.3130 O   0  0  0  0  0  1  0  0  0  0  0  0
  183.0670  175.5100  138.2680 C   0  0  1  0  0  3  0  0  0  0  0  0
  186.0900  173.4120  137.4180 C   0  0  0  0  0  0  0  0  0  0  0  0
  183.7480  173.6860  136.6330 C   0  0  0  0  0  2  0  0  0  0  0  0
  185.4860  176.8830  136.7830 O   0  0  0  0  0  0  0  0  0  0  0  0
  187.0740  172.6500  137.5990 O   0  0  0  0  0  0  0  0  0  0  0  0
  184.7030  172.8530  137.4870 C   0  0  0  0  0  2  0  0  0  0  0  0
  185.2440  175.6630  136.9770 C   0  0  0  0  0  0  0  0  0  0  0  0
  183.8200  175.1770  136.9760 C   0  0  2  0  0  3  0  0  0  0  0  0
  186.3010  174.7780  137.2070 O   0  0  0  0  0  0  0  0  0  0  0  0
  1  9  2  0  0  0  0
  1 14  1  0  0  0  0
  2  5  1  0  0  0  0
  2  3  1  1  0  0  0
  3  7  1  0  0  0  0
  4 11  1  0  0  0  0
  5 14  1  6  0  0  0
  6  1  1  0  0  0  0
  7  4  2  0  0  0  0
  8 21  1  6  0  0  0
  8 13  1  0  0  0  0
  8 12  1  0  0  0  0
 10 19  1  0  0  0  0
 12 16  1  0  0  0  0
 13 18  1  1  0  0  0
 13  2  1  0  0  0  0
 15  4  1  0  0  0  0
 16 17  1  6  0  0  0
 16  5  1  0  0  0  0
 17  6  1  0  0  0  0
 18 10  1  0  0  0  0
 19  3  2  0  0  0  0
 19 20  1  0  0  0  0
 20 15  2  0  0  0  0
 23 22  1  6  0  0  0
 23 21  1  0  0  0  0
 24 28  1  0  0  0  0
 24 27  2  0  0  0  0
 25 30  1  0  0  0  0
 25 28  1  0  0  0  0
 26 29  2  0  0  0  0
 29 31  1  0  0  0  0
 30 29  1  0  0  0  0
 30 23  1  1  0  0  0
 31 24  1  0  0  0  0
M  END
>  <MODEL>
5

>  <REMARK>
 VINA RESULT:      -7.0      5.281      8.082
  Name = 
  3 active torsions:
  status: ('A' for Active; 'I' for Inactive)
    1  A    between atoms: C_5  and  N_16
    2  A    between atoms: C_5  and  C_30
    3  A    between atoms: C_10  and  N_16
                            x       y       z     vdW  Elec       q    Type
                         _______ _______ _______ _____ _____    ______ ____

>  <TORSDO>
F 3

$$$$
=
 OpenBabel11122410573D

 31 35  0  0  1  0  0  0  0  0999 V2000
  185.5740  178.8580  145.5260 C   0  0  0  0  0  0  0  0  0  0  0  0
  188.9520  177.9880  145.0700 C   0  0  2  0  0  3  0  0  0  0  0  0
  190.0750  177.1450  145.6420 C   0  0  0  0  0  0  0  0  0  0  0  0
  190.9020  175.6020  147.3290 C   0  0  0  0  0  0  0  0  0  0  0  0
  187.5710  177.3150  145.1890 C   0  0  1  0  0  3  0  0  0  0  0  0
  185.0810  178.6330  144.1310 C   0  0  0  0  0  2  0  0  0  0  0  0
  189.8480  176.3140  146.7500 C   0  0  0  0  0  3  0  0  0  0  0  0
  189.1710  177.3980  142.6820 C   0  0  2  0  0  3  0  0  0  0  0  0
  184.9520  179.6470  146.2830 O   0  0  0  0  0  0  0  0  0  0  0  0
  191.6830  178.1650  143.9690 C   0  0  0  0  0  2  0  0  0  0  0  0
  190.6630  174.7720  148.4150 O   0  0  0  0  0  1  0  0  0  0  0  0
  187.9910  176.4320  142.8790 C   0  0  0  0  0  2  0  0  0  0  0  0
  189.2250  178.4700  143.7000 N   0  0  2  0  0  0  0  0  0  0  0  0
  186.6890  178.1200  146.0330 N   0  0  0  0  0  2  0  0  0  0  0  0
  192.1940  175.7290  146.8190 C   0  0  0  0  0  3  0  0  0  0  0  0
  186.9300  176.9700  143.8330 C   0  0  2  0  0  3  0  0  0  0  0  0
  186.2140  178.1760  143.2240 C   0  0  0  0  0  2  0  0  0  0  0  0
  190.5340  179.1360  143.6750 C   0  0  0  0  0  2  0  0  0  0  0  0
  191.3890  177.2980  145.1550 C   0  0  0  0  0  0  0  0  0  0  0  0
  192.4370  176.5740  145.7330 C   0  0  0  0  0  3  0  0  0  0  0  0
  189.0800  177.9850  141.3540 N   0  0  0  0  0  2  0  0  0  0  0  0
  190.3180  176.1210  140.6840 O   0  0  0  0  0  1  0  0  0  0  0  0
  190.2230  177.5100  140.5830 C   0  0  1  0  0  3  0  0  0  0  0  0
  188.3540  176.1810  137.5820 C   0  0  0  0  0  0  0  0  0  0  0  0
  188.6960  178.3560  138.7340 C   0  0  0  0  0  2  0  0  0  0  0  0
  191.8670  176.7170  138.0110 O   0  0  0  0  0  0  0  0  0  0  0  0
  187.5960  175.4340  136.9120 O   0  0  0  0  0  0  0  0  0  0  0  0
  187.7610  177.1630  138.5430 C   0  0  0  0  0  2  0  0  0  0  0  0
  190.6270  176.8690  138.1630 C   0  0  0  0  0  0  0  0  0  0  0  0
  190.1150  177.9200  139.1100 C   0  0  2  0  0  3  0  0  0  0  0  0
  189.7410  176.0480  137.4600 O   0  0  0  0  0  0  0  0  0  0  0  0
  1 14  1  0  0  0  0
  1  9  2  0  0  0  0
  2  5  1  0  0  0  0
  2  3  1  6  0  0  0
  3  7  1  0  0  0  0
  4 11  1  0  0  0  0
  5 14  1  6  0  0  0
  6  1  1  0  0  0  0
  7  4  2  0  0  0  0
  8 21  1  6  0  0  0
  8 12  1  0  0  0  0
  8 13  1  0  0  0  0
 10 19  1  0  0  0  0
 13 18  1  1  0  0  0
 13  2  1  0  0  0  0
 15  4  1  0  0  0  0
 16 12  1  6  0  0  0
 16  5  1  0  0  0  0
 17 16  1  0  0  0  0
 17  6  1  0  0  0  0
 18 10  1  0  0  0  0
 19  3  2  0  0  0  0
 19 20  1  0  0  0  0
 20 15  2  0  0  0  0
 23 22  1  6  0  0  0
 23 21  1  0  0  0  0
 24 28  1  0  0  0  0
 25 30  1  0  0  0  0
 26 29  2  0  0  0  0
 27 24  2  0  0  0  0
 28 25  1  0  0  0  0
 29 30  1  0  0  0  0
 30 23  1  1  0  0  0
 31 24  1  0  0  0  0
 31 29  1  0  0  0  0
M  END
>  <MODEL>
6

>  <REMARK>
 VINA RESULT:      -6.9      1.419      4.417
  Name = 
  3 active torsions:
  status: ('A' for Active; 'I' for Inactive)
    1  A    between atoms: C_5  and  N_16
    2  A    between atoms: C_5  and  C_30
    3  A    between atoms: C_10  and  N_16
                            x       y       z     vdW  Elec       q    Type
                         _______ _______ _______ _____ _____    ______ ____

>  <TORSDO>
F 3

$$$$
=
 OpenBabel11122410573D

 31 35  0  0  1  0  0  0  0  0999 V2000
  187.8020  178.7530  136.9310 C   0  0  0  0  0  0  0  0  0  0  0  0
  189.9510  177.6060  139.4700 C   0  0  2  0  0  3  0  0  0  0  0  0
  189.9800  177.1220  140.9070 C   0  0  0  0  0  0  0  0  0  0  0  0
  188.8240  176.6270  142.9880 C   0  0  0  0  0  0  0  0  0  0  0  0
  188.6880  177.1600  138.7080 C   0  0  1  0  0  3  0  0  0  0  0  0
  188.2610  177.8680  135.8150 C   0  0  0  0  0  2  0  0  0  0  0  0
  188.7910  176.9920  141.6390 C   0  0  0  0  0  3  0  0  0  0  0  0
  191.3490  175.8630  138.4210 C   0  0  2  0  0  3  0  0  0  0  0  0
  187.2450  179.8490  136.6640 O   0  0  0  0  0  0  0  0  0  0  0  0
  192.5130  177.0550  140.8240 C   0  0  0  0  0  2  0  0  0  0  0  0
  187.6400  176.4860  143.6970 O   0  0  0  0  0  1  0  0  0  0  0  0
  190.0480  175.1950  137.9460 C   0  0  0  0  0  2  0  0  0  0  0  0
  191.1910  177.3010  138.7270 N   0  0  2  0  0  0  0  0  0  0  0  0
  187.9110  178.3260  138.2920 N   0  0  0  0  0  2  0  0  0  0  0  0
  190.0480  176.4100  143.6210 C   0  0  0  0  0  3  0  0  0  0  0  0
  188.9740  176.1990  137.5400 C   0  0  2  0  0  3  0  0  0  0  0  0
  189.3870  176.9550  136.2770 C   0  0  0  0  0  2  0  0  0  0  0  0
  192.3450  177.7940  139.4910 C   0  0  0  0  0  2  0  0  0  0  0  0
  191.2150  176.9370  141.5630 C   0  0  0  0  0  0  0  0  0  0  0  0
  191.2400  176.5630  142.9100 C   0  0  0  0  0  3  0  0  0  0  0  0
  192.3680  175.6870  137.3960 N   0  0  0  0  0  2  0  0  0  0  0  0
  192.0510  173.5730  136.4530 O   0  0  0  0  0  1  0  0  0  0  0  0
  192.7720  174.2860  137.4130 C   0  0  1  0  0  3  0  0  0  0  0  0
  195.3120  171.5590  138.0270 C   0  0  0  0  0  0  0  0  0  0  0  0
  194.5810  173.0180  136.1530 C   0  0  0  0  0  2  0  0  0  0  0  0
  195.3210  174.9590  139.1440 O   0  0  0  0  0  0  0  0  0  0  0  0
  195.7700  170.4490  138.4010 O   0  0  0  0  0  0  0  0  0  0  0  0
  194.4770  171.6310  136.7870 C   0  0  0  0  0  2  0  0  0  0  0  0
  195.0780  173.9600  138.4180 C   0  0  0  0  0  0  0  0  0  0  0  0
  194.2760  174.1340  137.1570 C   0  0  2  0  0  3  0  0  0  0  0  0
  195.5430  172.7000  138.8010 O   0  0  0  0  0  0  0  0  0  0  0  0
  1 14  1  0  0  0  0
  2  3  1  1  0  0  0
  3 19  2  0  0  0  0
  3  7  1  0  0  0  0
  4 15  1  0  0  0  0
  4 11  1  0  0  0  0
  5 14  1  6  0  0  0
  5  2  1  0  0  0  0
  6 17  1  0  0  0  0
  6  1  1  0  0  0  0
  7  4  2  0  0  0  0
  8 21  1  6  0  0  0
  8 13  1  0  0  0  0
  9  1  2  0  0  0  0
 10 19  1  0  0  0  0
 12  8  1  0  0  0  0
 13  2  1  0  0  0  0
 13 18  1  1  0  0  0
 16 17  1  6  0  0  0
 16 12  1  0  0  0  0
 16  5  1  0  0  0  0
 18 10  1  0  0  0  0
 19 20  1  0  0  0  0
 20 15  2  0  0  0  0
 21 23  1  0  0  0  0
 23 22  1  6  0  0  0
 24 27  2  0  0  0  0
 24 31  1  0  0  0  0
 25 28  1  0  0  0  0
 25 30  1  0  0  0  0
 28 24  1  0  0  0  0
 29 31  1  0  0  0  0
 29 26  2  0  0  0  0
 30 23  1  1  0  0  0
 30 29  1  0  0  0  0
M  END
>  <MODEL>
7

>  <REMARK>
 VINA RESULT:      -6.8      3.841      7.620
  Name = 
  3 active torsions:
  status: ('A' for Active; 'I' for Inactive)
    1  A    between atoms: C_5  and  N_16
    2  A    between atoms: C_5  and  C_30
    3  A    between atoms: C_10  and  N_16
                            x       y       z     vdW  Elec       q    Type
                         _______ _______ _______ _____ _____    ______ ____

>  <TORSDO>
F 3

$$$$
=
 OpenBabel11122410573D

 31 35  0  0  1  0  0  0  0  0999 V2000
  192.8130  176.7960  138.5480 C   0  0  0  0  0  0  0  0  0  0  0  0
  189.3330  176.9370  138.0480 C   0  0  2  0  0  3  0  0  0  0  0  0
  188.1480  176.1400  137.5370 C   0  0  0  0  0  0  0  0  0  0  0  0
  187.2420  174.1160  136.5400 C   0  0  0  0  0  0  0  0  0  0  0  0
  190.3830  176.0660  138.7640 C   0  0  1  0  0  3  0  0  0  0  0  0
  192.8670  177.2650  139.9680 C   0  0  0  0  0  2  0  0  0  0  0  0
  188.3170  174.8210  137.0880 C   0  0  0  0  0  3  0  0  0  0  0  0
  188.3880  177.7640  140.1730 C   0  0  2  0  0  3  0  0  0  0  0  0
  193.8240  176.9300  137.8120 O   0  0  0  0  0  0  0  0  0  0  0  0
  186.6600  178.1680  137.8490 C   0  0  0  0  0  2  0  0  0  0  0  0
  187.4170  172.8070  136.1140 O   0  0  0  0  0  1  0  0  0  0  0  0
  189.1710  176.6460  140.8820 C   0  0  0  0  0  2  0  0  0  0  0  0
  188.9420  178.1160  138.8470 N   0  0  2  0  0  0  0  0  0  0  0  0
  191.6560  176.1190  138.0470 N   0  0  0  0  0  2  0  0  0  0  0  0
  185.9950  174.7290  136.4180 C   0  0  0  0  0  3  0  0  0  0  0  0
  190.5400  176.3880  140.2610 C   0  0  2  0  0  3  0  0  0  0  0  0
  191.4710  177.5780  140.4870 C   0  0  0  0  0  2  0  0  0  0  0  0
  187.9760  178.9180  138.0840 C   0  0  0  0  0  2  0  0  0  0  0  0
  186.8950  176.7660  137.3770 C   0  0  0  0  0  0  0  0  0  0  0  0
  185.8220  176.0500  136.8370 C   0  0  0  0  0  3  0  0  0  0  0  0
  188.3740  178.9410  141.0280 N   0  0  0  0  0  2  0  0  0  0  0  0
  186.0710  179.0270  140.6420 O   0  0  0  0  0  1  0  0  0  0  0  0
  187.0510  179.0270  141.6370 C   0  0  1  0  0  3  0  0  0  0  0  0
  185.5120  178.7250  145.0720 C   0  0  0  0  0  0  0  0  0  0  0  0
  185.3140  177.6250  142.8530 C   0  0  0  0  0  2  0  0  0  0  0  0
  188.7800  177.7800  143.9610 O   0  0  0  0  0  0  0  0  0  0  0  0
  184.9530  179.0850  146.1400 O   0  0  0  0  0  0  0  0  0  0  0  0
  184.7100  178.6510  143.8100 C   0  0  0  0  0  2  0  0  0  0  0  0
  187.5470  178.0250  143.9130 C   0  0  0  0  0  0  0  0  0  0  0  0
  186.8060  177.8700  142.6120 C   0  0  2  0  0  3  0  0  0  0  0  0
  186.8820  178.4510  145.0660 O   0  0  0  0  0  0  0  0  0  0  0  0
  1  6  1  0  0  0  0
  2  3  1  1  0  0  0
  2  5  1  0  0  0  0
  2 13  1  0  0  0  0
  4  7  1  0  0  0  0
  5 14  1  6  0  0  0
  5 16  1  0  0  0  0
  6 17  1  0  0  0  0
  7  3  2  0  0  0  0
  8 12  1  0  0  0  0
  8 21  1  1  0  0  0
  9  1  2  0  0  0  0
 10 18  1  0  0  0  0
 11  4  1  0  0  0  0
 13 18  1  6  0  0  0
 13  8  1  0  0  0  0
 14  1  1  0  0  0  0
 15  4  2  0  0  0  0
 15 20  1  0  0  0  0
 16 17  1  6  0  0  0
 16 12  1  0  0  0  0
 19  3  1  0  0  0  0
 19 10  1  0  0  0  0
 20 19  2  0  0  0  0
 21 23  1  0  0  0  0
 23 22  1  6  0  0  0
 24 27  2  0  0  0  0
 25 28  1  0  0  0  0
 28 24  1  0  0  0  0
 29 26  2  0  0  0  0
 29 31  1  0  0  0  0
 30 23  1  6  0  0  0
 30 25  1  0  0  0  0
 30 29  1  0  0  0  0
 31 24  1  0  0  0  0
M  END
>  <MODEL>
8

>  <REMARK>
 VINA RESULT:      -6.7      3.113      7.554
  Name = 
  3 active torsions:
  status: ('A' for Active; 'I' for Inactive)
    1  A    between atoms: C_5  and  N_16
    2  A    between atoms: C_5  and  C_30
    3  A    between atoms: C_10  and  N_16
                            x       y       z     vdW  Elec       q    Type
                         _______ _______ _______ _____ _____    ______ ____

>  <TORSDO>
F 3

$$$$
=
 OpenBabel11122410573D

 31 35  0  0  1  0  0  0  0  0999 V2000
  179.6010  179.8940  140.3130 C   0  0  0  0  0  0  0  0  0  0  0  0
  182.9720  179.0240  140.8190 C   0  0  2  0  0  3  0  0  0  0  0  0
  183.9910  178.6920  141.8930 C   0  0  0  0  0  0  0  0  0  0  0  0
  184.5650  178.4110  144.2380 C   0  0  0  0  0  0  0  0  0  0  0  0
  181.5610  178.4970  141.1420 C   0  0  1  0  0  3  0  0  0  0  0  0
  179.2580  178.9000  139.2490 C   0  0  0  0  0  2  0  0  0  0  0  0
  183.6110  178.6340  143.2420 C   0  0  0  0  0  3  0  0  0  0  0  0
  183.4310  177.1880  139.2350 C   0  0  2  0  0  3  0  0  0  0  0  0
  178.9310  180.9540  140.4120 O   0  0  0  0  0  0  0  0  0  0  0  0
  185.8130  178.6280  140.1310 C   0  0  0  0  0  2  0  0  0  0  0  0
  184.1750  178.3390  145.5680 O   0  0  0  0  0  1  0  0  0  0  0  0
  182.1990  176.4690  139.8100 C   0  0  0  0  0  2  0  0  0  0  0  0
  183.4140  178.6500  139.4600 N   0  0  2  0  0  0  0  0  0  0  0  0
  180.6230  179.6110  141.2730 N   0  0  0  0  0  2  0  0  0  0  0  0
  185.9100  178.2650  143.8960 C   0  0  0  0  0  3  0  0  0  0  0  0
  181.0610  177.4220  140.1610 C   0  0  2  0  0  3  0  0  0  0  0  0
  180.4650  178.0440  138.8990 C   0  0  0  0  0  2  0  0  0  0  0  0
  184.7430  179.2230  139.2090 C   0  0  0  0  0  2  0  0  0  0  0  0
  185.3560  178.5820  141.5580 C   0  0  0  0  0  0  0  0  0  0  0  0
  186.3040  178.3490  142.5590 C   0  0  0  0  0  3  0  0  0  0  0  0
  183.5100  176.9110  137.8080 N   0  0  0  0  0  2  0  0  0  0  0  0
  183.2230  174.6240  137.4300 O   0  0  0  0  0  1  0  0  0  0  0  0
  184.1740  175.6220  137.6460 C   0  0  1  0  0  3  0  0  0  0  0  0
  187.0640  177.8540  136.6790 C   0  0  0  0  0  0  0  0  0  0  0  0
  186.6140  175.4260  136.9590 C   0  0  0  0  0  2  0  0  0  0  0  0
  184.1320  177.0030  134.8110 O   0  0  0  0  0  0  0  0  0  0  0  0
  187.8840  178.8040  136.7530 O   0  0  0  0  0  0  0  0  0  0  0  0
  187.2110  176.6800  137.5960 C   0  0  0  0  0  2  0  0  0  0  0  0
  185.0710  176.8910  135.6410 C   0  0  0  0  0  0  0  0  0  0  0  0
  185.1750  175.6500  136.4860 C   0  0  2  0  0  3  0  0  0  0  0  0
  185.9960  177.9290  135.7810 O   0  0  0  0  0  0  0  0  0  0  0  0
  1  9  2  0  0  0  0
  1 14  1  0  0  0  0
  2  5  1  0  0  0  0
  2  3  1  1  0  0  0
  3  7  1  0  0  0  0
  4 11  1  0  0  0  0
  5 14  1  6  0  0  0
  6  1  1  0  0  0  0
  7  4  2  0  0  0  0
  8 21  1  6  0  0  0
  8 13  1  0  0  0  0
  8 12  1  0  0  0  0
 10 19  1  0  0  0  0
 12 16  1  0  0  0  0
 13 18  1  1  0  0  0
 13  2  1  0  0  0  0
 15  4  1  0  0  0  0
 16 17  1  6  0  0  0
 16  5  1  0  0  0  0
 17  6  1  0  0  0  0
 18 10  1  0  0  0  0
 19  3  2  0  0  0  0
 19 20  1  0  0  0  0
 20 15  2  0  0  0  0
 23 22  1  6  0  0  0
 23 21  1  0  0  0  0
 24 27  2  0  0  0  0
 24 28  1  0  0  0  0
 25 28  1  0  0  0  0
 26 29  2  0  0  0  0
 29 31  1  0  0  0  0
 29 30  1  0  0  0  0
 30 25  1  0  0  0  0
 30 23  1  1  0  0  0
 31 24  1  0  0  0  0
M  END
>  <MODEL>
9

>  <REMARK>
 VINA RESULT:      -6.7      4.947      7.902
  Name = 
  3 active torsions:
  status: ('A' for Active; 'I' for Inactive)
    1  A    between atoms: C_5  and  N_16
    2  A    between atoms: C_5  and  C_30
    3  A    between atoms: C_10  and  N_16
                            x       y       z     vdW  Elec       q    Type
                         _______ _______ _______ _____ _____    ______ ____

>  <TORSDO>
F 3

$$$$
