=
 OpenBabel11122411273D

 37 42  0  0  1  0  0  0  0  0999 V2000
  188.2120  177.6260  137.0270 C   0  0  0  0  0  0  0  0  0  0  0  0
  184.9530  177.9780  139.6180 C   0  0  0  0  0  0  0  0  0  0  0  0
  183.0670  180.0970  138.6990 C   0  0  0  0  0  1  0  0  0  0  0  0
  187.3040  178.3030  139.3180 C   0  0  0  0  0  0  0  0  0  0  0  0
  183.7590  177.6460  138.7820 C   0  0  1  0  0  3  0  0  0  0  0  0
  186.0670  177.8960  138.8530 C   0  0  0  0  0  0  0  0  0  0  0  0
  182.6200  178.6590  138.9540 C   0  0  1  0  0  3  0  0  0  0  0  0
  187.3910  178.7850  140.5930 N   0  0  0  0  0  0  0  0  0  0  0  0
  185.7930  177.5850  137.5120 N   0  0  0  0  0  0  0  0  0  0  0  0
  188.4500  176.1410  137.2390 C   0  0  0  0  0  1  0  0  0  0  0  0
  183.7710  178.8480  141.6750 C   0  0  0  0  0  2  0  0  0  0  0  0
  186.2820  178.8910  141.3920 C   0  0  0  0  0  3  0  0  0  0  0  0
  186.7860  177.8480  136.4750 C   0  0  0  0  0  2  0  0  0  0  0  0
  185.0160  178.4940  140.9160 C   0  0  0  0  0  0  0  0  0  0  0  0
  184.3390  177.5740  137.3400 C   0  0  1  0  0  3  0  0  0  0  0  0
  188.4590  178.3860  138.3550 C   0  0  0  0  0  2  0  0  0  0  0  0
  181.9350  178.4690  140.3290 C   0  0  1  0  0  3  0  0  0  0  0  0
  189.2070  178.1220  136.0000 C   0  0  0  0  0  1  0  0  0  0  0  0
  182.7250  177.9510  141.3880 O   0  0  0  0  0  0  0  0  0  0  0  0
  183.9050  175.0500  137.4490 C   0  0  0  0  0  2  0  0  0  0  0  0
  183.1870  173.9830  136.7600 N   0  0  0  0  0  0  0  0  0  0  0  0
  181.0950  175.2320  137.5560 C   0  0  2  0  0  3  0  0  0  0  0  0
  181.7920  173.8960  137.2170 C   0  0  0  0  0  2  0  0  0  0  0  0
  181.3520  176.3920  136.6250 C   0  0  0  0  0  0  0  0  0  0  0  0
  180.5090  177.2710  136.5440 O   0  0  0  0  0  0  0  0  0  0  0  0
  182.5970  176.5160  135.7910 C   0  0  0  0  0  2  0  0  0  0  0  0
  181.3520  175.5970  138.8650 F   0  0  0  0  0  0  0  0  0  0  0  0
  183.8980  176.3160  136.5830 C   0  0  1  0  0  3  0  0  0  0  0  0
  185.2010  173.0040  137.7040 C   0  0  0  0  0  1  0  0  0  0  0  0
  183.8240  172.7310  137.1300 C   0  0  0  0  0  2  0  0  0  0  0  0
  180.3760  180.3940  139.8160 C   0  0  0  0  0  3  0  0  0  0  0  0
  180.9020  179.4780  140.7370 C   0  0  0  0  0  0  0  0  0  0  0  0
  180.4410  179.4850  142.0580 C   0  0  0  0  0  3  0  0  0  0  0  0
  179.0280  180.4090  143.7400 F   0  0  0  0  0  0  0  0  0  0  0  0
  178.9490  181.3200  141.5390 C   0  0  0  0  0  3  0  0  0  0  0  0
  179.4690  180.4060  142.4590 C   0  0  0  0  0  0  0  0  0  0  0  0
  179.4030  181.3140  140.2170 C   0  0  0  0  0  3  0  0  0  0  0  0
  1 10  1  0  0  0  0
  1 16  1  0  0  0  0
  2 14  1  0  0  0  0
  4  8  2  0  0  0  0
  5  7  1  0  0  0  0
  5  2  1  1  0  0  0
  6  4  1  0  0  0  0
  6  2  2  0  0  0  0
  7  3  1  1  0  0  0
  7 17  1  0  0  0  0
  8 12  1  0  0  0  0
  9  6  1  0  0  0  0
 13  1  1  0  0  0  0
 13  9  1  0  0  0  0
 14 12  2  0  0  0  0
 14 11  1  0  0  0  0
 15  9  1  1  0  0  0
 15  5  1  0  0  0  0
 16  4  1  0  0  0  0
 17 32  1  1  0  0  0
 17 19  1  0  0  0  0
 18  1  1  0  0  0  0
 19 11  1  0  0  0  0
 21 30  1  0  0  0  0
 21 23  1  0  0  0  0
 21 20  1  0  0  0  0
 22 27  1  1  0  0  0
 23 22  1  0  0  0  0
 24 22  1  0  0  0  0
 25 24  2  0  0  0  0
 26 24  1  0  0  0  0
 28 26  1  1  0  0  0
 28 15  1  0  0  0  0
 28 20  1  0  0  0  0
 30 29  1  0  0  0  0
 31 37  2  0  0  0  0
 31 32  1  0  0  0  0
 32 33  2  0  0  0  0
 33 36  1  0  0  0  0
 35 36  2  0  0  0  0
 36 34  1  0  0  0  0
 37 35  1  0  0  0  0
M  END
>  <MODEL>
1

>  <REMARK>
 VINA RESULT:      -6.5      0.000      0.000
  Name = 
  3 active torsions:
  status: ('A' for Active; 'I' for Inactive)
    1  A    between atoms: N_4  and  C_37
    2  A    between atoms: C_21  and  C_27
    3  A    between atoms: C_23  and  C_30
                            x       y       z     vdW  Elec       q    Type
                         _______ _______ _______ _____ _____    ______ ____

>  <TORSDO>
F 3

$$$$
=
 OpenBabel11122411273D

 37 42  0  0  1  0  0  0  0  0999 V2000
  184.2410  176.1070  136.2960 C   0  0  0  0  0  0  0  0  0  0  0  0
  188.1730  174.8860  137.0070 C   0  0  0  0  0  0  0  0  0  0  0  0
  190.0470  176.0600  135.0080 C   0  0  0  0  0  1  0  0  0  0  0  0
  185.9810  174.2340  136.3060 C   0  0  0  0  0  0  0  0  0  0  0  0
  188.9230  176.1470  137.2930 C   0  0  1  0  0  3  0  0  0  0  0  0
  186.8770  175.1870  136.7560 C   0  0  0  0  0  0  0  0  0  0  0  0
  190.2400  176.2380  136.5130 C   0  0  1  0  0  3  0  0  0  0  0  0
  186.4260  172.9560  136.1290 N   0  0  0  0  0  0  0  0  0  0  0  0
  186.6180  176.5650  136.7780 N   0  0  0  0  0  0  0  0  0  0  0  0
  183.7800  176.0790  137.7430 C   0  0  0  0  0  1  0  0  0  0  0  0
  190.1270  173.2960  136.8140 C   0  0  0  0  0  2  0  0  0  0  0  0
  187.7350  172.6180  136.3660 C   0  0  0  0  0  3  0  0  0  0  0  0
  185.4140  177.1000  136.1470 C   0  0  0  0  0  2  0  0  0  0  0  0
  188.6560  173.5890  136.8080 C   0  0  0  0  0  0  0  0  0  0  0  0
  187.8950  177.2630  136.9440 C   0  0  1  0  0  3  0  0  0  0  0  0
  184.6160  174.6730  135.8440 C   0  0  0  0  0  2  0  0  0  0  0  0
  191.2870  175.2680  137.1110 C   0  0  1  0  0  3  0  0  0  0  0  0
  183.0890  176.5920  135.4430 C   0  0  0  0  0  1  0  0  0  0  0  0
  190.8040  174.0980  137.7510 O   0  0  0  0  0  0  0  0  0  0  0  0
  186.8840  177.9140  139.2080 C   0  0  0  0  0  2  0  0  0  0  0  0
  187.0800  178.8320  140.3250 N   0  0  0  0  0  0  0  0  0  0  0  0
  189.2250  177.4850  140.7170 C   0  0  2  0  0  3  0  0  0  0  0  0
  188.0440  178.2940  141.2970 C   0  0  0  0  0  2  0  0  0  0  0  0
  189.8710  178.0220  139.4630 C   0  0  0  0  0  0  0  0  0  0  0  0
  191.0380  177.7400  139.2430 O   0  0  0  0  0  0  0  0  0  0  0  0
  189.1450  178.8900  138.4730 C   0  0  0  0  0  2  0  0  0  0  0  0
  188.8710  176.1590  140.5470 F   0  0  0  0  0  0  0  0  0  0  0  0
  187.7830  178.3310  138.0370 C   0  0  1  0  0  3  0  0  0  0  0  0
  184.6770  179.0160  140.0110 C   0  0  0  0  0  1  0  0  0  0  0  0
  185.8090  178.9390  141.0190 C   0  0  0  0  0  2  0  0  0  0  0  0
  192.9450  173.8820  135.7940 C   0  0  0  0  0  3  0  0  0  0  0  0
  192.5860  175.1060  136.3760 C   0  0  0  0  0  0  0  0  0  0  0  0
  193.4390  176.2070  136.2520 C   0  0  0  0  0  3  0  0  0  0  0  0
  195.4720  177.1550  135.4440 F   0  0  0  0  0  0  0  0  0  0  0  0
  195.0050  174.8640  134.9840 C   0  0  0  0  0  3  0  0  0  0  0  0
  194.6480  176.0860  135.5590 C   0  0  0  0  0  0  0  0  0  0  0  0
  194.1520  173.7620  135.1010 C   0  0  0  0  0  3  0  0  0  0  0  0
  1 10  1  0  0  0  0
  4  6  1  0  0  0  0
  5  2  1  6  0  0  0
  6  9  1  0  0  0  0
  6  2  2  0  0  0  0
  7  3  1  6  0  0  0
  7 17  1  0  0  0  0
  7  5  1  0  0  0  0
  8  4  2  0  0  0  0
  8 12  1  0  0  0  0
 11 19  1  0  0  0  0
 12 14  2  0  0  0  0
 13  1  1  0  0  0  0
 13  9  1  0  0  0  0
 14 11  1  0  0  0  0
 14  2  1  0  0  0  0
 15  9  1  1  0  0  0
 15  5  1  0  0  0  0
 15 28  1  0  0  0  0
 16  1  1  0  0  0  0
 16  4  1  0  0  0  0
 17 32  1  6  0  0  0
 17 19  1  0  0  0  0
 18  1  1  0  0  0  0
 20 21  1  0  0  0  0
 21 30  1  0  0  0  0
 21 23  1  0  0  0  0
 22 27  1  6  0  0  0
 22 23  1  0  0  0  0
 24 22  1  0  0  0  0
 25 24  2  0  0  0  0
 26 24  1  0  0  0  0
 28 26  1  1  0  0  0
 28 20  1  0  0  0  0
 29 30  1  0  0  0  0
 31 32  1  0  0  0  0
 33 32  2  0  0  0  0
 34 36  1  0  0  0  0
 35 37  1  0  0  0  0
 35 36  2  0  0  0  0
 36 33  1  0  0  0  0
 37 31  2  0  0  0  0
M  END
>  <MODEL>
2

>  <REMARK>
 VINA RESULT:      -5.9      4.421      9.602
  Name = 
  3 active torsions:
  status: ('A' for Active; 'I' for Inactive)
    1  A    between atoms: N_4  and  C_37
    2  A    between atoms: C_21  and  C_27
    3  A    between atoms: C_23  and  C_30
                            x       y       z     vdW  Elec       q    Type
                         _______ _______ _______ _____ _____    ______ ____

>  <TORSDO>
F 3

$$$$
=
 OpenBabel11122411273D

 37 42  0  0  1  0  0  0  0  0999 V2000
  181.5770  178.1740  136.7610 C   0  0  0  0  0  0  0  0  0  0  0  0
  184.2540  175.0100  137.2930 C   0  0  0  0  0  0  0  0  0  0  0  0
  185.9820  174.6420  134.8920 C   0  0  0  0  0  1  0  0  0  0  0  0
  181.9710  175.6590  136.9960 C   0  0  0  0  0  0  0  0  0  0  0  0
  185.6100  175.6340  137.2090 C   0  0  1  0  0  3  0  0  0  0  0  0
  183.3130  175.9680  137.1240 C   0  0  0  0  0  0  0  0  0  0  0  0
  186.5590  174.8560  136.2900 C   0  0  1  0  0  3  0  0  0  0  0  0
  181.5980  174.3470  137.0590 N   0  0  0  0  0  0  0  0  0  0  0  0
  183.8570  177.2360  136.8680 N   0  0  0  0  0  0  0  0  0  0  0  0
  181.4990  178.5900  138.2190 C   0  0  0  0  0  1  0  0  0  0  0  0
  184.9310  172.5760  137.2450 C   0  0  0  0  0  2  0  0  0  0  0  0
  182.5260  173.3500  137.2210 C   0  0  0  0  0  3  0  0  0  0  0  0
  183.0370  178.2850  136.2680 C   0  0  0  0  0  2  0  0  0  0  0  0
  183.8970  173.6590  137.3340 C   0  0  0  0  0  0  0  0  0  0  0  0
  185.3080  177.0860  136.7360 C   0  0  1  0  0  3  0  0  0  0  0  0
  181.0030  176.7430  136.5990 C   0  0  0  0  0  2  0  0  0  0  0  0
  187.0100  173.5410  136.9710 C   0  0  1  0  0  3  0  0  0  0  0  0
  180.7240  179.1260  135.9510 C   0  0  0  0  0  1  0  0  0  0  0  0
  186.1190  172.9490  137.9030 O   0  0  0  0  0  0  0  0  0  0  0  0
  186.3830  177.6730  138.9880 C   0  0  0  0  0  2  0  0  0  0  0  0
  187.3300  178.6040  139.5940 N   0  0  0  0  0  0  0  0  0  0  0  0
  189.0520  177.3990  138.1270 C   0  0  2  0  0  3  0  0  0  0  0  0
  188.7140  178.1300  139.4460 C   0  0  0  0  0  2  0  0  0  0  0  0
  188.4740  177.9760  136.8580 C   0  0  0  0  0  0  0  0  0  0  0  0
  189.0580  177.7700  135.8070 O   0  0  0  0  0  0  0  0  0  0  0  0
  187.2120  178.7930  136.8280 C   0  0  0  0  0  2  0  0  0  0  0  0
  188.7530  176.0530  138.2270 F   0  0  0  0  0  0  0  0  0  0  0  0
  186.0340  178.1460  137.5720 C   0  0  1  0  0  3  0  0  0  0  0  0
  185.5700  178.8620  141.2510 C   0  0  0  0  0  1  0  0  0  0  0  0
  187.0510  178.6290  141.0200 C   0  0  0  0  0  2  0  0  0  0  0  0
  187.2920  171.3340  135.7670 C   0  0  0  0  0  3  0  0  0  0  0  0
  187.8160  172.5750  136.1530 C   0  0  0  0  0  0  0  0  0  0  0  0
  189.1070  172.9350  135.7520 C   0  0  0  0  0  3  0  0  0  0  0  0
  191.1230  172.4120  134.5940 F   0  0  0  0  0  0  0  0  0  0  0  0
  189.3480  170.8200  134.5970 C   0  0  0  0  0  3  0  0  0  0  0  0
  189.8730  172.0580  134.9770 C   0  0  0  0  0  0  0  0  0  0  0  0
  188.0570  170.4580  134.9920 C   0  0  0  0  0  3  0  0  0  0  0  0
  1 10  1  0  0  0  0
  2 14  1  0  0  0  0
  4  8  2  0  0  0  0
  4  6  1  0  0  0  0
  5  2  1  6  0  0  0
  6  2  2  0  0  0  0
  7  3  1  6  0  0  0
  7 17  1  0  0  0  0
  7  5  1  0  0  0  0
  8 12  1  0  0  0  0
  9  6  1  0  0  0  0
 11 14  1  0  0  0  0
 11 19  1  0  0  0  0
 12 14  2  0  0  0  0
 13  1  1  0  0  0  0
 13  9  1  0  0  0  0
 15  9  1  1  0  0  0
 15  5  1  0  0  0  0
 15 28  1  0  0  0  0
 16  1  1  0  0  0  0
 16  4  1  0  0  0  0
 17 32  1  6  0  0  0
 17 19  1  0  0  0  0
 18  1  1  0  0  0  0
 20 21  1  0  0  0  0
 21 30  1  0  0  0  0
 22 27  1  1  0  0  0
 22 23  1  0  0  0  0
 23 21  1  0  0  0  0
 24 22  1  0  0  0  0
 25 24  2  0  0  0  0
 26 24  1  0  0  0  0
 28 26  1  6  0  0  0
 28 20  1  0  0  0  0
 30 29  1  0  0  0  0
 31 32  1  0  0  0  0
 33 32  2  0  0  0  0
 34 36  1  0  0  0  0
 35 36  2  0  0  0  0
 35 37  1  0  0  0  0
 36 33  1  0  0  0  0
 37 31  2  0  0  0  0
M  END
>  <MODEL>
3

>  <REMARK>
 VINA RESULT:      -5.8      3.570      8.577
  Name = 
  3 active torsions:
  status: ('A' for Active; 'I' for Inactive)
    1  A    between atoms: N_4  and  C_37
    2  A    between atoms: C_21  and  C_27
    3  A    between atoms: C_23  and  C_30
                            x       y       z     vdW  Elec       q    Type
                         _______ _______ _______ _____ _____    ______ ____

>  <TORSDO>
F 3

$$$$
=
 OpenBabel11122411273D

 37 42  0  0  1  0  0  0  0  0999 V2000
  186.6560  177.3220  137.1770 C   0  0  0  0  0  0  0  0  0  0  0  0
  188.6450  178.1910  140.7480 C   0  0  0  0  0  0  0  0  0  0  0  0
  189.2160  175.7090  142.2980 C   0  0  0  0  0  1  0  0  0  0  0  0
  186.6000  178.3500  139.5170 C   0  0  0  0  0  0  0  0  0  0  0  0
  189.9610  177.4920  140.6370 C   0  0  1  0  0  3  0  0  0  0  0  0
  187.9220  177.9590  139.6270 C   0  0  0  0  0  0  0  0  0  0  0  0
  190.3130  176.6950  141.8980 C   0  0  1  0  0  3  0  0  0  0  0  0
  186.0260  179.0030  140.5700 N   0  0  0  0  0  0  0  0  0  0  0  0
  188.5680  177.1040  138.7220 N   0  0  0  0  0  0  0  0  0  0  0  0
  187.2260  178.4760  136.3700 C   0  0  0  0  0  1  0  0  0  0  0  0
  188.7530  178.8580  143.1830 C   0  0  0  0  0  2  0  0  0  0  0  0
  186.7270  179.2470  141.7240 C   0  0  0  0  0  3  0  0  0  0  0  0
  187.8090  176.4230  137.6770 C   0  0  0  0  0  2  0  0  0  0  0  0
  188.0690  178.8340  141.8480 C   0  0  0  0  0  0  0  0  0  0  0  0
  189.7980  176.6220  139.3560 C   0  0  1  0  0  3  0  0  0  0  0  0
  185.7920  177.8780  138.3370 C   0  0  0  0  0  2  0  0  0  0  0  0
  190.7170  177.6540  143.0450 C   0  0  1  0  0  3  0  0  0  0  0  0
  185.7670  176.5020  136.2680 C   0  0  0  0  0  1  0  0  0  0  0  0
  190.1500  178.9540  143.0400 O   0  0  0  0  0  0  0  0  0  0  0  0
  192.1040  175.7420  138.6640 C   0  0  0  0  0  2  0  0  0  0  0  0
  193.0280  175.7220  137.5360 N   0  0  0  0  0  0  0  0  0  0  0  0
  191.2140  174.3060  136.4090 C   0  0  2  0  0  3  0  0  0  0  0  0
  192.7120  174.6300  136.6030 C   0  0  0  0  0  2  0  0  0  0  0  0
  190.2680  175.4780  136.3070 C   0  0  0  0  0  0  0  0  0  0  0  0
  189.2220  175.3300  135.6970 O   0  0  0  0  0  0  0  0  0  0  0  0
  190.5560  176.8210  136.9190 C   0  0  0  0  0  2  0  0  0  0  0  0
  190.7780  173.4180  137.3750 F   0  0  0  0  0  0  0  0  0  0  0  0
  190.9830  176.7530  138.3930 C   0  0  1  0  0  3  0  0  0  0  0  0
  194.6390  173.9550  137.9690 C   0  0  0  0  0  1  0  0  0  0  0  0
  194.3490  175.4410  138.0700 C   0  0  0  0  0  2  0  0  0  0  0  0
  191.8540  176.0150  144.6000 C   0  0  0  0  0  3  0  0  0  0  0  0
  190.9400  177.0580  144.4040 C   0  0  0  0  0  0  0  0  0  0  0  0
  190.2340  177.5740  145.4970 C   0  0  0  0  0  3  0  0  0  0  0  0
  189.7470  177.5480  147.8290 F   0  0  0  0  0  0  0  0  0  0  0  0
  191.3450  176.0030  146.9670 C   0  0  0  0  0  3  0  0  0  0  0  0
  190.4340  177.0460  146.7760 C   0  0  0  0  0  0  0  0  0  0  0  0
  192.0550  175.4880  145.8800 C   0  0  0  0  0  3  0  0  0  0  0  0
  1 13  1  0  0  0  0
  1 16  1  0  0  0  0
  2 14  1  0  0  0  0
  4  6  1  0  0  0  0
  4  8  2  0  0  0  0
  5  2  1  1  0  0  0
  5  7  1  0  0  0  0
  6  2  2  0  0  0  0
  7  3  1  1  0  0  0
  7 17  1  0  0  0  0
  8 12  1  0  0  0  0
  9  6  1  0  0  0  0
 10  1  1  0  0  0  0
 12 14  2  0  0  0  0
 13  9  1  0  0  0  0
 14 11  1  0  0  0  0
 15  9  1  6  0  0  0
 15  5  1  0  0  0  0
 16  4  1  0  0  0  0
 17 32  1  1  0  0  0
 18  1  1  0  0  0  0
 19 17  1  0  0  0  0
 19 11  1  0  0  0  0
 21 30  1  0  0  0  0
 21 20  1  0  0  0  0
 22 23  1  0  0  0  0
 22 27  1  1  0  0  0
 23 21  1  0  0  0  0
 24 22  1  0  0  0  0
 24 26  1  0  0  0  0
 25 24  2  0  0  0  0
 28 26  1  6  0  0  0
 28 20  1  0  0  0  0
 28 15  1  0  0  0  0
 29 30  1  0  0  0  0
 31 37  1  0  0  0  0
 32 31  2  0  0  0  0
 32 33  1  0  0  0  0
 33 36  2  0  0  0  0
 36 35  1  0  0  0  0
 36 34  1  0  0  0  0
 37 35  2  0  0  0  0
M  END
>  <MODEL>
4

>  <REMARK>
 VINA RESULT:      -5.7      5.137      8.349
  Name = 
  3 active torsions:
  status: ('A' for Active; 'I' for Inactive)
    1  A    between atoms: N_4  and  C_37
    2  A    between atoms: C_21  and  C_27
    3  A    between atoms: C_23  and  C_30
                            x       y       z     vdW  Elec       q    Type
                         _______ _______ _______ _____ _____    ______ ____

>  <TORSDO>
F 3

$$$$
=
 OpenBabel11122411273D

 37 42  0  0  1  0  0  0  0  0999 V2000
  182.4920  176.3830  136.0430 C   0  0  0  0  0  0  0  0  0  0  0  0
  186.0490  174.3280  136.8110 C   0  0  0  0  0  0  0  0  0  0  0  0
  188.0120  174.7040  134.5990 C   0  0  0  0  0  1  0  0  0  0  0  0
  183.7210  174.1550  136.2850 C   0  0  0  0  0  0  0  0  0  0  0  0
  187.1000  175.3890  136.8770 C   0  0  1  0  0  3  0  0  0  0  0  0
  184.8510  174.9060  136.5570 C   0  0  0  0  0  0  0  0  0  0  0  0
  188.3430  175.0370  136.0530 C   0  0  1  0  0  3  0  0  0  0  0  0
  183.8300  172.7940  136.2910 N   0  0  0  0  0  0  0  0  0  0  0  0
  184.9360  176.2940  136.3760 N   0  0  0  0  0  0  0  0  0  0  0  0
  182.1370  176.6740  137.4910 C   0  0  0  0  0  1  0  0  0  0  0  0
  187.5400  172.2890  136.8020 C   0  0  0  0  0  2  0  0  0  0  0  0
  185.0300  172.1760  136.5370 C   0  0  0  0  0  3  0  0  0  0  0  0
  183.8590  177.0200  135.7080 C   0  0  0  0  0  2  0  0  0  0  0  0
  186.1870  172.9370  136.7960 C   0  0  0  0  0  0  0  0  0  0  0  0
  186.3520  176.6660  136.3950 C   0  0  1  0  0  3  0  0  0  0  0  0
  182.4760  174.8520  135.8030 C   0  0  0  0  0  2  0  0  0  0  0  0
  189.1620  173.9290  136.7600 C   0  0  1  0  0  3  0  0  0  0  0  0
  181.4380  177.0170  135.1610 C   0  0  0  0  0  1  0  0  0  0  0  0
  188.4530  173.0190  137.5850 O   0  0  0  0  0  0  0  0  0  0  0  0
  186.6880  177.4940  138.7980 C   0  0  0  0  0  2  0  0  0  0  0  0
  187.2070  178.6290  139.5530 N   0  0  0  0  0  0  0  0  0  0  0  0
  189.4680  177.9040  138.5880 C   0  0  2  0  0  3  0  0  0  0  0  0
  188.6600  178.5200  139.7520 C   0  0  0  0  0  2  0  0  0  0  0  0
  189.0820  178.3230  137.1910 C   0  0  0  0  0  0  0  0  0  0  0  0
  189.9290  178.2750  136.3140 O   0  0  0  0  0  0  0  0  0  0  0  0
  187.7020  178.7970  136.8280 C   0  0  0  0  0  2  0  0  0  0  0  0
  189.4940  176.5250  138.6890 F   0  0  0  0  0  0  0  0  0  0  0  0
  186.5780  177.8710  137.3150 C   0  0  1  0  0  3  0  0  0  0  0  0
  185.1480  178.9990  140.7910 C   0  0  0  0  0  1  0  0  0  0  0  0
  186.6030  178.5760  140.8730 C   0  0  0  0  0  2  0  0  0  0  0  0
  190.2070  172.1540  135.2910 C   0  0  0  0  0  3  0  0  0  0  0  0
  190.3290  173.3460  136.0180 C   0  0  0  0  0  0  0  0  0  0  0  0
  191.5540  174.0210  136.0390 C   0  0  0  0  0  3  0  0  0  0  0  0
  193.8370  174.1620  135.3690 F   0  0  0  0  0  0  0  0  0  0  0  0
  192.5280  172.3150  134.6220 C   0  0  0  0  0  3  0  0  0  0  0  0
  192.6530  173.5060  135.3440 C   0  0  0  0  0  0  0  0  0  0  0  0
  191.3050  171.6400  134.5950 C   0  0  0  0  0  3  0  0  0  0  0  0
  1 10  1  0  0  0  0
  4  8  2  0  0  0  0
  4  6  1  0  0  0  0
  5  2  1  6  0  0  0
  6  2  2  0  0  0  0
  7  3  1  6  0  0  0
  7 17  1  0  0  0  0
  7  5  1  0  0  0  0
  8 12  1  0  0  0  0
  9  6  1  0  0  0  0
 11 19  1  0  0  0  0
 12 14  2  0  0  0  0
 13  1  1  0  0  0  0
 13  9  1  0  0  0  0
 14 11  1  0  0  0  0
 14  2  1  0  0  0  0
 15  9  1  1  0  0  0
 15  5  1  0  0  0  0
 15 28  1  0  0  0  0
 16  1  1  0  0  0  0
 16  4  1  0  0  0  0
 17 32  1  6  0  0  0
 17 19  1  0  0  0  0
 18  1  1  0  0  0  0
 20 21  1  0  0  0  0
 21 23  1  0  0  0  0
 21 30  1  0  0  0  0
 22 27  1  6  0  0  0
 22 23  1  0  0  0  0
 24 22  1  0  0  0  0
 25 24  2  0  0  0  0
 26 24  1  0  0  0  0
 28 26  1  6  0  0  0
 28 20  1  0  0  0  0
 29 30  1  0  0  0  0
 31 32  1  0  0  0  0
 32 33  2  0  0  0  0
 35 36  2  0  0  0  0
 36 34  1  0  0  0  0
 36 33  1  0  0  0  0
 37 35  1  0  0  0  0
 37 31  2  0  0  0  0
M  END
>  <MODEL>
5

>  <REMARK>
 VINA RESULT:      -5.5      4.113      9.214
  Name = 
  3 active torsions:
  status: ('A' for Active; 'I' for Inactive)
    1  A    between atoms: N_4  and  C_37
    2  A    between atoms: C_21  and  C_27
    3  A    between atoms: C_23  and  C_30
                            x       y       z     vdW  Elec       q    Type
                         _______ _______ _______ _____ _____    ______ ____

>  <TORSDO>
F 3

$$$$
=
 OpenBabel11122411273D

 37 42  0  0  1  0  0  0  0  0999 V2000
  184.7150  179.0630  144.3560 C   0  0  0  0  0  0  0  0  0  0  0  0
  184.8470  178.4960  140.2180 C   0  0  0  0  0  0  0  0  0  0  0  0
  183.6130  175.8950  139.4450 C   0  0  0  0  0  1  0  0  0  0  0  0
  186.1000  178.6310  142.2510 C   0  0  0  0  0  0  0  0  0  0  0  0
  183.4160  178.4110  139.7950 C   0  0  1  0  0  3  0  0  0  0  0  0
  184.9040  178.6750  141.5590 C   0  0  0  0  0  0  0  0  0  0  0  0
  183.1490  177.2270  138.8580 C   0  0  1  0  0  3  0  0  0  0  0  0
  187.2500  178.4160  141.5470 N   0  0  0  0  0  0  0  0  0  0  0  0
  183.6400  178.6750  142.1690 N   0  0  0  0  0  0  0  0  0  0  0  0
  184.6110  180.5780  144.3250 C   0  0  0  0  0  1  0  0  0  0  0  0
  185.9440  177.7790  138.0580 C   0  0  0  0  0  2  0  0  0  0  0  0
  187.2280  178.2220  140.1890 C   0  0  0  0  0  3  0  0  0  0  0  0
  183.5130  178.4470  143.6060 C   0  0  0  0  0  2  0  0  0  0  0  0
  186.0090  178.2480  139.4820 C   0  0  0  0  0  0  0  0  0  0  0  0
  182.6450  178.3440  141.1460 C   0  0  1  0  0  3  0  0  0  0  0  0
  186.0760  178.6250  143.7570 C   0  0  0  0  0  2  0  0  0  0  0  0
  183.7340  177.5100  137.4530 C   0  0  1  0  0  3  0  0  0  0  0  0
  184.6610  178.6140  145.8000 C   0  0  0  0  0  1  0  0  0  0  0  0
  184.8630  178.3660  137.3750 O   0  0  0  0  0  0  0  0  0  0  0  0
  181.2540  180.1040  139.9050 C   0  0  0  0  0  2  0  0  0  0  0  0
  179.9530  180.7630  139.9390 N   0  0  0  0  0  0  0  0  0  0  0  0
  179.0470  178.4300  139.3850 C   0  0  2  0  0  3  0  0  0  0  0  0
  178.9310  179.9640  139.2460 C   0  0  0  0  0  2  0  0  0  0  0  0
  179.4100  177.8930  140.7480 C   0  0  0  0  0  0  0  0  0  0  0  0
  179.0570  176.7610  141.0400 O   0  0  0  0  0  0  0  0  0  0  0  0
  180.1850  178.6850  141.7630 C   0  0  0  0  0  2  0  0  0  0  0  0
  179.8970  177.9180  138.4220 F   0  0  0  0  0  0  0  0  0  0  0  0
  181.4670  179.3230  141.2080 C   0  0  1  0  0  3  0  0  0  0  0  0
  181.2440  181.9020  138.2230 C   0  0  0  0  0  1  0  0  0  0  0  0
  180.0830  182.0040  139.1950 C   0  0  0  0  0  2  0  0  0  0  0  0
  184.8850  175.9130  135.8640 C   0  0  0  0  0  3  0  0  0  0  0  0
  183.7070  176.3940  136.4500 C   0  0  0  0  0  0  0  0  0  0  0  0
  182.4800  175.8120  136.1140 C   0  0  0  0  0  3  0  0  0  0  0  0
  181.2380  174.2020  134.8700 F   0  0  0  0  0  0  0  0  0  0  0  0
  183.6060  174.2860  134.6080 C   0  0  0  0  0  3  0  0  0  0  0  0
  182.4290  174.7610  135.1930 C   0  0  0  0  0  0  0  0  0  0  0  0
  184.8340  174.8620  134.9440 C   0  0  0  0  0  3  0  0  0  0  0  0
  1 18  1  0  0  0  0
  2  6  1  0  0  0  0
  4 16  1  0  0  0  0
  5  2  1  1  0  0  0
  5 15  1  0  0  0  0
  6  9  1  0  0  0  0
  6  4  2  0  0  0  0
  7  3  1  1  0  0  0
  7  5  1  0  0  0  0
  8  4  1  0  0  0  0
  9 13  1  0  0  0  0
 10  1  1  0  0  0  0
 11 14  1  0  0  0  0
 12  8  2  0  0  0  0
 13  1  1  0  0  0  0
 14 12  1  0  0  0  0
 14  2  2  0  0  0  0
 15 28  1  0  0  0  0
 15  9  1  1  0  0  0
 16  1  1  0  0  0  0
 17 32  1  1  0  0  0
 17  7  1  0  0  0  0
 19 17  1  0  0  0  0
 19 11  1  0  0  0  0
 20 21  1  0  0  0  0
 22 27  1  6  0  0  0
 22 24  1  0  0  0  0
 23 22  1  0  0  0  0
 23 21  1  0  0  0  0
 24 25  2  0  0  0  0
 24 26  1  0  0  0  0
 28 20  1  6  0  0  0
 28 26  1  0  0  0  0
 29 30  1  0  0  0  0
 30 21  1  0  0  0  0
 31 32  1  0  0  0  0
 33 32  2  0  0  0  0
 34 36  1  0  0  0  0
 35 37  1  0  0  0  0
 35 36  2  0  0  0  0
 36 33  1  0  0  0  0
 37 31  2  0  0  0  0
M  END
>  <MODEL>
6

>  <REMARK>
 VINA RESULT:      -5.1      2.609      6.575
  Name = 
  3 active torsions:
  status: ('A' for Active; 'I' for Inactive)
    1  A    between atoms: N_4  and  C_37
    2  A    between atoms: C_21  and  C_27
    3  A    between atoms: C_23  and  C_30
                            x       y       z     vdW  Elec       q    Type
                         _______ _______ _______ _____ _____    ______ ____

>  <TORSDO>
F 3

$$$$
=
 OpenBabel11122411273D

 37 42  0  0  1  0  0  0  0  0999 V2000
  181.4690  178.0080  140.0970 C   0  0  0  0  0  0  0  0  0  0  0  0
  184.2820  178.8850  143.0590 C   0  0  0  0  0  0  0  0  0  0  0  0
  186.0250  176.5340  143.6240 C   0  0  0  0  0  1  0  0  0  0  0  0
  181.9730  178.5260  142.5490 C   0  0  0  0  0  0  0  0  0  0  0  0
  185.6090  178.7240  142.3910 C   0  0  1  0  0  3  0  0  0  0  0  0
  183.3000  178.6120  142.1690 C   0  0  0  0  0  0  0  0  0  0  0  0
  186.5920  177.8960  143.2260 C   0  0  1  0  0  3  0  0  0  0  0  0
  181.6580  178.7410  143.8600 N   0  0  0  0  0  0  0  0  0  0  0  0
  183.7880  178.2110  140.9160 N   0  0  0  0  0  0  0  0  0  0  0  0
  181.3730  179.4100  139.5210 C   0  0  0  0  0  1  0  0  0  0  0  0
  185.0660  179.1120  145.4510 C   0  0  0  0  0  2  0  0  0  0  0  0
  182.6290  179.0120  144.7910 C   0  0  0  0  0  3  0  0  0  0  0  0
  182.9230  177.4990  139.9790 C   0  0  0  0  0  2  0  0  0  0  0  0
  183.9840  179.0820  144.4120 C   0  0  0  0  0  0  0  0  0  0  0  0
  185.2440  178.0900  141.0170 C   0  0  1  0  0  3  0  0  0  0  0  0
  180.9590  178.0130  141.5610 C   0  0  0  0  0  2  0  0  0  0  0  0
  187.1000  178.7200  144.4340 C   0  0  1  0  0  3  0  0  0  0  0  0
  180.5750  177.0990  139.2820 C   0  0  0  0  0  1  0  0  0  0  0  0
  186.2350  179.7180  144.9540 O   0  0  0  0  0  0  0  0  0  0  0  0
  187.3230  178.2520  139.5250 C   0  0  0  0  0  2  0  0  0  0  0  0
  187.7600  178.7450  138.2240 N   0  0  0  0  0  0  0  0  0  0  0  0
  186.2020  176.9300  137.3030 C   0  0  2  0  0  3  0  0  0  0  0  0
  187.4960  177.7620  137.1630 C   0  0  0  0  0  2  0  0  0  0  0  0
  184.9660  177.6620  137.7660 C   0  0  0  0  0  0  0  0  0  0  0  0
  183.8740  177.2210  137.4450 O   0  0  0  0  0  0  0  0  0  0  0  0
  185.0160  178.9100  138.6030 C   0  0  0  0  0  2  0  0  0  0  0  0
  186.4240  175.8130  138.0880 F   0  0  0  0  0  0  0  0  0  0  0  0
  185.9230  178.7950  139.8370 C   0  0  1  0  0  3  0  0  0  0  0  0
  189.7920  177.8760  139.2330 C   0  0  0  0  0  1  0  0  0  0  0  0
  189.2010  178.9070  138.2900 C   0  0  0  0  0  2  0  0  0  0  0  0
  189.2070  177.4970  145.1170 C   0  0  0  0  0  3  0  0  0  0  0  0
  187.9480  178.0140  145.4510 C   0  0  0  0  0  0  0  0  0  0  0  0
  187.4760  177.8930  146.7630 C   0  0  0  0  0  3  0  0  0  0  0  0
  187.7910  177.1350  149.0010 F   0  0  0  0  0  0  0  0  0  0  0  0
  189.5070  176.7340  147.3950 C   0  0  0  0  0  3  0  0  0  0  0  0
  188.2530  177.2520  147.7330 C   0  0  0  0  0  0  0  0  0  0  0  0
  189.9840  176.8580  146.0870 C   0  0  0  0  0  3  0  0  0  0  0  0
  1 16  1  0  0  0  0
  2 14  1  0  0  0  0
  4  8  2  0  0  0  0
  5  2  1  1  0  0  0
  5  7  1  0  0  0  0
  6  4  1  0  0  0  0
  6  2  2  0  0  0  0
  7  3  1  1  0  0  0
  7 17  1  0  0  0  0
  8 12  1  0  0  0  0
  9  6  1  0  0  0  0
 10  1  1  0  0  0  0
 13  1  1  0  0  0  0
 13  9  1  0  0  0  0
 14 12  2  0  0  0  0
 14 11  1  0  0  0  0
 15  9  1  6  0  0  0
 15  5  1  0  0  0  0
 16  4  1  0  0  0  0
 17 19  1  0  0  0  0
 17 32  1  1  0  0  0
 18  1  1  0  0  0  0
 19 11  1  0  0  0  0
 20 28  1  0  0  0  0
 21 30  1  0  0  0  0
 21 20  1  0  0  0  0
 22 24  1  0  0  0  0
 22 27  1  1  0  0  0
 23 22  1  0  0  0  0
 23 21  1  0  0  0  0
 24 26  1  0  0  0  0
 25 24  2  0  0  0  0
 28 26  1  6  0  0  0
 28 15  1  0  0  0  0
 30 29  1  0  0  0  0
 31 32  2  0  0  0  0
 31 37  1  0  0  0  0
 32 33  1  0  0  0  0
 33 36  2  0  0  0  0
 35 36  1  0  0  0  0
 36 34  1  0  0  0  0
 37 35  2  0  0  0  0
M  END
>  <MODEL>
7

>  <REMARK>
 VINA RESULT:      -5.1      3.847      7.082
  Name = 
  3 active torsions:
  status: ('A' for Active; 'I' for Inactive)
    1  A    between atoms: N_4  and  C_37
    2  A    between atoms: C_21  and  C_27
    3  A    between atoms: C_23  and  C_30
                            x       y       z     vdW  Elec       q    Type
                         _______ _______ _______ _____ _____    ______ ____

>  <TORSDO>
F 3

$$$$
=
 OpenBabel11122411273D

 37 42  0  0  1  0  0  0  0  0999 V2000
  182.1470  178.3380  141.6970 C   0  0  0  0  0  0  0  0  0  0  0  0
  185.9280  178.5830  143.4590 C   0  0  0  0  0  0  0  0  0  0  0  0
  187.4020  176.0030  143.2180 C   0  0  0  0  0  1  0  0  0  0  0  0
  183.5630  178.5440  143.8160 C   0  0  0  0  0  0  0  0  0  0  0  0
  186.8910  178.3400  142.3420 C   0  0  1  0  0  3  0  0  0  0  0  0
  184.6640  178.5160  142.9790 C   0  0  0  0  0  0  0  0  0  0  0  0
  187.9780  177.3240  142.7120 C   0  0  1  0  0  3  0  0  0  0  0  0
  183.7720  178.6590  145.1600 N   0  0  0  0  0  0  0  0  0  0  0  0
  184.6090  178.1900  141.6160 N   0  0  0  0  0  0  0  0  0  0  0  0
  182.0540  179.7930  141.2720 C   0  0  0  0  0  1  0  0  0  0  0  0
  187.5380  178.4750  145.4030 C   0  0  0  0  0  2  0  0  0  0  0  0
  185.0390  178.7210  145.6820 C   0  0  0  0  0  3  0  0  0  0  0  0
  183.3740  177.6810  141.0270 C   0  0  0  0  0  2  0  0  0  0  0  0
  186.1650  178.6740  144.8350 C   0  0  0  0  0  0  0  0  0  0  0  0
  185.9720  177.8950  141.1670 C   0  0  1  0  0  3  0  0  0  0  0  0
  182.2000  178.2530  143.2440 C   0  0  0  0  0  2  0  0  0  0  0  0
  188.9960  177.9590  143.6910 C   0  0  1  0  0  3  0  0  0  0  0  0
  180.9000  177.6240  141.2210 C   0  0  0  0  0  1  0  0  0  0  0  0
  188.5270  178.9900  144.5440 O   0  0  0  0  0  0  0  0  0  0  0  0
  187.6060  178.2140  139.2180 C   0  0  0  0  0  2  0  0  0  0  0  0
  187.6680  178.7180  137.8500 N   0  0  0  0  0  0  0  0  0  0  0  0
  186.1120  176.7490  137.3310 C   0  0  2  0  0  3  0  0  0  0  0  0
  187.2510  177.6920  136.8830 C   0  0  0  0  0  2  0  0  0  0  0  0
  184.9610  177.3740  138.0800 C   0  0  0  0  0  0  0  0  0  0  0  0
  183.8700  176.8290  138.0310 O   0  0  0  0  0  0  0  0  0  0  0  0
  185.0930  178.6390  138.8820 C   0  0  0  0  0  2  0  0  0  0  0  0
  186.6200  175.6740  138.0370 F   0  0  0  0  0  0  0  0  0  0  0  0
  186.2780  178.6340  139.8600 C   0  0  1  0  0  3  0  0  0  0  0  0
  189.8050  177.7270  137.2490 C   0  0  0  0  0  1  0  0  0  0  0  0
  189.0620  179.0110  137.5660 C   0  0  0  0  0  2  0  0  0  0  0  0
  190.7150  176.1110  143.5060 C   0  0  0  0  0  3  0  0  0  0  0  0
  190.0410  177.0610  144.2860 C   0  0  0  0  0  0  0  0  0  0  0  0
  190.3600  177.1940  145.6420 C   0  0  0  0  0  3  0  0  0  0  0  0
  191.6430  176.5120  147.5310 F   0  0  0  0  0  0  0  0  0  0  0  0
  192.0070  175.4320  145.4370 C   0  0  0  0  0  3  0  0  0  0  0  0
  191.3400  176.3800  146.2170 C   0  0  0  0  0  0  0  0  0  0  0  0
  191.6950  175.2980  144.0820 C   0  0  0  0  0  3  0  0  0  0  0  0
  1 16  1  0  0  0  0
  2 14  1  0  0  0  0
  4  8  2  0  0  0  0
  5  7  1  0  0  0  0
  5  2  1  1  0  0  0
  6  2  2  0  0  0  0
  6  4  1  0  0  0  0
  7  3  1  1  0  0  0
  7 17  1  0  0  0  0
  8 12  1  0  0  0  0
  9  6  1  0  0  0  0
 10  1  1  0  0  0  0
 13  9  1  0  0  0  0
 13  1  1  0  0  0  0
 14 11  1  0  0  0  0
 14 12  2  0  0  0  0
 15  9  1  1  0  0  0
 15  5  1  0  0  0  0
 16  4  1  0  0  0  0
 17 32  1  1  0  0  0
 17 19  1  0  0  0  0
 18  1  1  0  0  0  0
 19 11  1  0  0  0  0
 20 28  1  0  0  0  0
 21 20  1  0  0  0  0
 22 27  1  1  0  0  0
 22 24  1  0  0  0  0
 23 22  1  0  0  0  0
 23 21  1  0  0  0  0
 24 26  1  0  0  0  0
 25 24  2  0  0  0  0
 28 26  1  6  0  0  0
 28 15  1  0  0  0  0
 29 30  1  0  0  0  0
 30 21  1  0  0  0  0
 31 37  2  0  0  0  0
 31 32  1  0  0  0  0
 32 33  2  0  0  0  0
 33 36  1  0  0  0  0
 35 36  2  0  0  0  0
 36 34  1  0  0  0  0
 37 35  1  0  0  0  0
M  END
>  <MODEL>
8

>  <REMARK>
 VINA RESULT:      -4.6      4.339      7.797
  Name = 
  3 active torsions:
  status: ('A' for Active; 'I' for Inactive)
    1  A    between atoms: N_4  and  C_37
    2  A    between atoms: C_21  and  C_27
    3  A    between atoms: C_23  and  C_30
                            x       y       z     vdW  Elec       q    Type
                         _______ _______ _______ _____ _____    ______ ____

>  <TORSDO>
F 3

$$$$
=
 OpenBabel11122411273D

 37 42  0  0  1  0  0  0  0  0999 V2000
  188.4290  178.0420  147.3060 C   0  0  0  0  0  0  0  0  0  0  0  0
  185.4710  177.8770  144.3590 C   0  0  0  0  0  0  0  0  0  0  0  0
  185.7180  180.1550  142.4520 C   0  0  0  0  0  1  0  0  0  0  0  0
  185.9600  178.2380  146.6730 C   0  0  0  0  0  0  0  0  0  0  0  0
  186.2160  177.7350  143.0720 C   0  0  1  0  0  3  0  0  0  0  0  0
  186.3570  177.9460  145.3810 C   0  0  0  0  0  0  0  0  0  0  0  0
  185.7140  178.6990  141.9910 C   0  0  1  0  0  3  0  0  0  0  0  0
  184.6320  178.4460  146.9130 N   0  0  0  0  0  0  0  0  0  0  0  0
  187.6930  177.9210  144.9540 N   0  0  0  0  0  0  0  0  0  0  0  0
  188.5520  176.5440  147.5190 C   0  0  0  0  0  1  0  0  0  0  0  0
  183.1600  178.3130  143.4350 C   0  0  0  0  0  2  0  0  0  0  0  0
  183.7080  178.3930  145.9000 C   0  0  0  0  0  3  0  0  0  0  0  0
  188.7600  178.3850  145.8370 C   0  0  0  0  0  2  0  0  0  0  0  0
  184.1100  178.1130  144.5790 C   0  0  0  0  0  0  0  0  0  0  0  0
  187.6990  177.9580  143.4900 C   0  0  1  0  0  3  0  0  0  0  0  0
  187.0090  178.5090  147.7190 C   0  0  0  0  0  2  0  0  0  0  0  0
  184.3390  178.2340  141.4530 C   0  0  1  0  0  3  0  0  0  0  0  0
  189.4380  178.7320  148.1990 C   0  0  0  0  0  1  0  0  0  0  0  0
  183.5040  177.5030  142.3370 O   0  0  0  0  0  0  0  0  0  0  0  0
  189.3220  177.2970  141.6190 C   0  0  0  0  0  2  0  0  0  0  0  0
  190.4180  176.3780  141.3280 N   0  0  0  0  0  0  0  0  0  0  0  0
  191.6810  177.7350  143.0980 C   0  0  2  0  0  3  0  0  0  0  0  0
  191.7060  176.9200  141.7860 C   0  0  0  0  0  2  0  0  0  0  0  0
  190.8190  177.2030  144.2170 C   0  0  0  0  0  0  0  0  0  0  0  0
  191.1130  177.4920  145.3660 O   0  0  0  0  0  0  0  0  0  0  0  0
  189.6140  176.3340  143.9840 C   0  0  0  0  0  2  0  0  0  0  0  0
  191.3760  179.0600  142.8420 F   0  0  0  0  0  0  0  0  0  0  0  0
  188.6430  176.8870  142.9310 C   0  0  1  0  0  3  0  0  0  0  0  0
  189.8830  177.4830  139.2300 C   0  0  0  0  0  1  0  0  0  0  0  0
  190.5070  176.2640  139.8830 C   0  0  0  0  0  2  0  0  0  0  0  0
  184.2890  179.7530  139.4300 C   0  0  0  0  0  3  0  0  0  0  0  0
  183.6200  179.1460  140.5010 C   0  0  0  0  0  0  0  0  0  0  0  0
  182.2510  179.3720  140.6800 C   0  0  0  0  0  3  0  0  0  0  0  0
  180.2300  180.4230  139.9770 F   0  0  0  0  0  0  0  0  0  0  0  0
  182.2260  180.8120  138.7330 C   0  0  0  0  0  3  0  0  0  0  0  0
  181.5550  180.2060  139.7990 C   0  0  0  0  0  0  0  0  0  0  0  0
  183.5930  180.5850  138.5480 C   0  0  0  0  0  3  0  0  0  0  0  0
  1 10  1  0  0  0  0
  1 16  1  0  0  0  0
  1 18  1  0  0  0  0
  2 14  2  0  0  0  0
  2  6  1  0  0  0  0
  4  8  1  0  0  0  0
  4 16  1  0  0  0  0
  5 15  1  0  0  0  0
  5  2  1  1  0  0  0
  6  4  2  0  0  0  0
  7  3  1  1  0  0  0
  7  5  1  0  0  0  0
  9  6  1  0  0  0  0
  9 13  1  0  0  0  0
 11 14  1  0  0  0  0
 12  8  2  0  0  0  0
 13  1  1  0  0  0  0
 14 12  1  0  0  0  0
 15  9  1  1  0  0  0
 17 32  1  1  0  0  0
 17  7  1  0  0  0  0
 17 19  1  0  0  0  0
 19 11  1  0  0  0  0
 21 20  1  0  0  0  0
 21 23  1  0  0  0  0
 22 27  1  6  0  0  0
 22 24  1  0  0  0  0
 23 22  1  0  0  0  0
 24 25  2  0  0  0  0
 26 24  1  0  0  0  0
 28 20  1  6  0  0  0
 28 15  1  0  0  0  0
 28 26  1  0  0  0  0
 29 30  1  0  0  0  0
 30 21  1  0  0  0  0
 31 32  1  0  0  0  0
 32 33  2  0  0  0  0
 35 36  2  0  0  0  0
 36 34  1  0  0  0  0
 36 33  1  0  0  0  0
 37 35  1  0  0  0  0
 37 31  2  0  0  0  0
M  END
>  <MODEL>
9

>  <REMARK>
 VINA RESULT:      -4.6      4.614      7.706
  Name = 
  3 active torsions:
  status: ('A' for Active; 'I' for Inactive)
    1  A    between atoms: N_4  and  C_37
    2  A    between atoms: C_21  and  C_27
    3  A    between atoms: C_23  and  C_30
                            x       y       z     vdW  Elec       q    Type
                         _______ _______ _______ _____ _____    ______ ____

>  <TORSDO>
F 3

$$$$
