=
 OpenBabel11122411423D

 37 43  0  0  1  0  0  0  0  0999 V2000
  190.0870  176.4680  137.6780 C   0  0  1  0  0  0  0  0  0  0  0  0
  186.7200  178.2810  137.1750 C   0  0  1  0  0  3  0  0  0  0  0  0
  185.0540  179.5200  139.7730 O   0  0  0  0  0  0  0  0  0  0  0  0
  189.0660  177.8260  136.1300 C   0  0  2  0  0  3  0  0  0  0  0  0
  186.4420  177.9360  138.6370 C   0  0  2  0  0  3  0  0  0  0  0  0
  188.2250  178.5780  137.1780 C   0  0  2  0  0  3  0  0  0  0  0  0
  185.0340  178.2700  139.1360 C   0  0  2  0  0  3  0  0  0  0  0  0
  188.3400  177.8680  134.7950 C   0  0  0  0  0  2  0  0  0  0  0  0
  188.6880  178.3780  138.6210 C   0  0  2  0  0  3  0  0  0  0  0  0
  191.2320  177.2430  137.5580 F   0  0  0  0  0  0  0  0  0  0  0  0
  184.7980  177.0900  136.0210 C   0  0  0  0  0  2  0  0  0  0  0  0
  186.9610  177.1970  134.8520 C   0  0  0  0  0  2  0  0  0  0  0  0
  189.2350  176.9480  138.8450 C   0  0  0  0  0  2  0  0  0  0  0  0
  185.2580  178.0100  141.8260 C   0  0  0  0  0  2  0  0  0  0  0  0
  185.0980  179.3900  141.1910 C   0  0  1  0  0  3  0  0  0  0  0  0
  186.3090  177.1230  136.2440 C   0  0  1  0  0  3  0  0  0  0  0  0
  187.4740  178.6300  139.4150 N   0  0  2  0  0  0  0  0  0  0  0  0
  189.3210  176.4870  136.4950 O   0  0  0  0  0  0  0  0  0  0  0  0
  183.9240  178.1900  138.0830 C   0  0  1  0  0  3  0  0  0  0  0  0
  190.5070  175.0410  137.9580 C   0  0  0  0  0  1  0  0  0  0  0  0
  186.4740  178.9130  141.7100 C   0  0  2  0  0  3  0  0  0  0  0  0
  187.4900  178.1630  140.8180 C   0  0  2  0  0  3  0  0  0  0  0  0
  183.9970  176.8850  137.2980 C   0  0  0  0  0  2  0  0  0  0  0  0
  182.1680  177.4260  139.6880 C   0  0  0  0  0  3  0  0  0  0  0  0
  182.5740  178.3440  138.7140 C   0  0  0  0  0  0  0  0  0  0  0  0
  181.7100  179.3860  138.3380 C   0  0  0  0  0  3  0  0  0  0  0  0
  179.6210  180.5070  138.5700 F   0  0  0  0  0  0  0  0  0  0  0  0
  180.0510  178.5820  139.9080 C   0  0  0  0  0  3  0  0  0  0  0  0
  180.4510  179.5030  138.9350 C   0  0  0  0  0  0  0  0  0  0  0  0
  180.9090  177.5440  140.2840 C   0  0  0  0  0  3  0  0  0  0  0  0
  188.8600  178.3610  141.4710 C   0  0  0  0  0  2  0  0  0  0  0  0
  189.2540  177.1610  142.2020 N   0  0  0  0  0  0  0  0  0  0  0  0
  191.6150  177.4620  141.7670 C   0  0  0  0  0  2  0  0  0  0  0  0
  190.6220  176.7340  142.2650 C   0  0  0  0  0  3  0  0  0  0  0  0
  188.2910  176.4910  142.9710 N   0  0  0  0  0  2  0  0  0  0  0  0
  188.5820  176.7590  144.3710 C   0  0  0  0  0  2  0  0  0  0  0  0
  187.4240  177.5150  144.9900 C   0  0  0  0  0  1  0  0  0  0  0  0
  1 20  1  1  0  0  0
  1 13  1  0  0  0  0
  2  6  1  0  0  0  0
  2  5  1  0  0  0  0
  3 15  1  0  0  0  0
  4 18  1  0  0  0  0
  4  6  1  0  0  0  0
  5  7  1  0  0  0  0
  5 17  1  0  0  0  0
  6  9  1  0  0  0  0
  7  3  1  0  0  0  0
  8 12  1  0  0  0  0
  8  4  1  0  0  0  0
  9 13  1  0  0  0  0
  9 17  1  0  0  0  0
 10  1  1  0  0  0  0
 11 16  1  0  0  0  0
 11 23  1  0  0  0  0
 12 16  1  0  0  0  0
 15 21  1  0  0  0  0
 15 14  1  0  0  0  0
 16  2  1  0  0  0  0
 17 22  1  0  0  0  0
 18  1  1  0  0  0  0
 19 25  1  0  0  0  0
 19  7  1  0  0  0  0
 21 14  1  0  0  0  0
 22 31  1  0  0  0  0
 22 21  1  0  0  0  0
 23 19  1  0  0  0  0
 24 30  1  0  0  0  0
 25 24  2  0  0  0  0
 26 25  1  0  0  0  0
 26 29  2  0  0  0  0
 27 29  1  0  0  0  0
 28 30  2  0  0  0  0
 29 28  1  0  0  0  0
 31 32  1  0  0  0  0
 32 34  1  0  0  0  0
 32 35  1  0  0  0  0
 33 34  2  0  0  0  0
 35 36  1  0  0  0  0
 36 37  1  0  0  0  0
M  END
>  <MODEL>
1

>  <REMARK>
 VINA RESULT:      -7.7      0.000      0.000
  Name = 
  6 active torsions:
  status: ('A' for Active; 'I' for Inactive)
    1  A    between atoms: C_1  and  N_4
    2  A    between atoms: C_1  and  C_27
    3  A    between atoms: N_4  and  N_12
    4  A    between atoms: N_4  and  C_37
    5  A    between atoms: C_8  and  N_12
    6  A    between atoms: C_23  and  C_30
                            x       y       z     vdW  Elec       q    Type
                         _______ _______ _______ _____ _____    ______ ____

>  <TORSDO>
F 6

$$$$
=
 OpenBabel11122411423D

 37 43  0  0  1  0  0  0  0  0999 V2000
  182.3360  177.4760  139.6050 C   0  0  1  0  0  0  0  0  0  0  0  0
  185.2090  178.8820  141.7600 C   0  0  1  0  0  3  0  0  0  0  0  0
  188.3040  179.0630  140.5540 O   0  0  0  0  0  0  0  0  0  0  0  0
  182.6650  179.0780  141.2200 C   0  0  2  0  0  3  0  0  0  0  0  0
  186.1380  178.0870  140.8420 C   0  0  2  0  0  3  0  0  0  0  0  0
  184.1180  179.3660  140.7980 C   0  0  2  0  0  3  0  0  0  0  0  0
  187.6120  178.0650  141.2570 C   0  0  2  0  0  3  0  0  0  0  0  0
  182.5080  179.4120  142.6950 C   0  0  0  0  0  2  0  0  0  0  0  0
  184.4970  178.8150  139.4220 C   0  0  2  0  0  3  0  0  0  0  0  0
  181.5930  178.4000  138.8830 F   0  0  0  0  0  0  0  0  0  0  0  0
  185.7370  177.8340  144.0110 C   0  0  0  0  0  2  0  0  0  0  0  0
  183.4270  178.5730  143.5920 C   0  0  0  0  0  2  0  0  0  0  0  0
  183.7860  177.4700  139.1380 C   0  0  0  0  0  2  0  0  0  0  0  0
  188.8500  177.0580  139.0640 C   0  0  0  0  0  2  0  0  0  0  0  0
  189.0160  178.5280  139.4420 C   0  0  1  0  0  3  0  0  0  0  0  0
  184.6870  178.0050  142.9140 C   0  0  1  0  0  3  0  0  0  0  0  0
  185.9580  178.6550  139.5020 N   0  0  2  0  0  0  0  0  0  0  0  0
  182.2870  177.7390  140.9890 O   0  0  0  0  0  0  0  0  0  0  0  0
  187.8750  178.1490  142.7630 C   0  0  1  0  0  3  0  0  0  0  0  0
  181.7550  176.1010  139.3530 C   0  0  0  0  0  1  0  0  0  0  0  0
  188.0910  178.1120  138.2770 C   0  0  2  0  0  3  0  0  0  0  0  0
  186.5880  177.8020  138.4710 C   0  0  2  0  0  3  0  0  0  0  0  0
  187.0130  177.1550  143.5330 C   0  0  0  0  0  2  0  0  0  0  0  0
  189.8860  176.6670  142.8270 C   0  0  0  0  0  3  0  0  0  0  0  0
  189.3250  177.9260  143.0670 C   0  0  0  0  0  0  0  0  0  0  0  0
  190.1240  178.9520  143.5960 C   0  0  0  0  0  3  0  0  0  0  0  0
  192.2400  179.7080  144.3900 F   0  0  0  0  0  0  0  0  0  0  0  0
  192.0270  177.4560  143.6370 C   0  0  0  0  0  3  0  0  0  0  0  0
  191.4730  178.7160  143.8790 C   0  0  0  0  0  0  0  0  0  0  0  0
  191.2350  176.4320  143.1110 C   0  0  0  0  0  3  0  0  0  0  0  0
  185.9340  177.9830  137.1000 C   0  0  0  0  0  2  0  0  0  0  0  0
  186.0580  176.7620  136.3110 N   0  0  0  0  0  0  0  0  0  0  0  0
  186.8250  174.5090  136.7520 C   0  0  0  0  0  2  0  0  0  0  0  0
  185.9150  175.4640  136.9070 C   0  0  0  0  0  3  0  0  0  0  0  0
  186.1820  176.8660  134.9180 N   0  0  0  0  0  2  0  0  0  0  0  0
  187.2400  177.8250  134.6410 C   0  0  0  0  0  2  0  0  0  0  0  0
  188.5730  177.1070  134.6100 C   0  0  0  0  0  1  0  0  0  0  0  0
  1 20  1  6  0  0  0
  1 18  1  0  0  0  0
  2 16  1  0  0  0  0
  3  7  1  0  0  0  0
  4  8  1  0  0  0  0
  5  7  1  0  0  0  0
  5  2  1  0  0  0  0
  6  4  1  0  0  0  0
  6  2  1  0  0  0  0
  7 19  1  0  0  0  0
  8 12  1  0  0  0  0
  9 17  1  0  0  0  0
  9  6  1  0  0  0  0
 10  1  1  0  0  0  0
 13  9  1  0  0  0  0
 13  1  1  0  0  0  0
 14 15  1  0  0  0  0
 15  3  1  0  0  0  0
 16 12  1  0  0  0  0
 16 11  1  0  0  0  0
 17  5  1  0  0  0  0
 18  4  1  0  0  0  0
 19 25  1  0  0  0  0
 19 23  1  0  0  0  0
 21 22  1  0  0  0  0
 21 14  1  0  0  0  0
 21 15  1  0  0  0  0
 22 17  1  0  0  0  0
 23 11  1  0  0  0  0
 24 25  2  0  0  0  0
 24 30  1  0  0  0  0
 25 26  1  0  0  0  0
 26 29  2  0  0  0  0
 28 29  1  0  0  0  0
 29 27  1  0  0  0  0
 30 28  2  0  0  0  0
 31 22  1  0  0  0  0
 32 34  1  0  0  0  0
 32 31  1  0  0  0  0
 33 34  2  0  0  0  0
 35 32  1  0  0  0  0
 36 35  1  0  0  0  0
 37 36  1  0  0  0  0
M  END
>  <MODEL>
2

>  <REMARK>
 VINA RESULT:      -7.5      2.391      7.832
  Name = 
  6 active torsions:
  status: ('A' for Active; 'I' for Inactive)
    1  A    between atoms: C_1  and  N_4
    2  A    between atoms: C_1  and  C_27
    3  A    between atoms: N_4  and  N_12
    4  A    between atoms: N_4  and  C_37
    5  A    between atoms: C_8  and  N_12
    6  A    between atoms: C_23  and  C_30
                            x       y       z     vdW  Elec       q    Type
                         _______ _______ _______ _____ _____    ______ ____

>  <TORSDO>
F 6

$$$$
=
 OpenBabel11122411423D

 37 43  0  0  1  0  0  0  0  0999 V2000
  183.5320  178.1310  140.6730 C   0  0  1  0  0  0  0  0  0  0  0  0
  186.0750  178.8020  143.4940 C   0  0  1  0  0  3  0  0  0  0  0  0
  189.3440  178.5640  142.9240 O   0  0  0  0  0  0  0  0  0  0  0  0
  183.7560  179.4860  142.5160 C   0  0  2  0  0  3  0  0  0  0  0  0
  187.0440  177.9530  142.6710 C   0  0  2  0  0  3  0  0  0  0  0  0
  185.2910  179.5600  142.4160 C   0  0  2  0  0  3  0  0  0  0  0  0
  188.3800  177.6370  143.3480 C   0  0  2  0  0  3  0  0  0  0  0  0
  183.3490  179.6960  143.9670 C   0  0  0  0  0  2  0  0  0  0  0  0
  185.8590  179.0890  141.0760 C   0  0  2  0  0  3  0  0  0  0  0  0
  183.1000  179.2370  139.9520 F   0  0  0  0  0  0  0  0  0  0  0  0
  185.9650  177.4630  145.6480 C   0  0  0  0  0  2  0  0  0  0  0  0
  183.9280  178.6270  144.9030 C   0  0  0  0  0  2  0  0  0  0  0  0
  185.0290  177.9220  140.4900 C   0  0  0  0  0  2  0  0  0  0  0  0
  189.8800  176.6510  141.3140 C   0  0  0  0  0  2  0  0  0  0  0  0
  190.1820  178.0270  141.9060 C   0  0  1  0  0  3  0  0  0  0  0  0
  185.2010  177.9190  144.4050 C   0  0  1  0  0  3  0  0  0  0  0  0
  187.2310  178.6730  141.4060 N   0  0  2  0  0  0  0  0  0  0  0  0
  183.2370  178.2610  142.0460 O   0  0  0  0  0  0  0  0  0  0  0  0
  188.3360  177.5260  144.8750 C   0  0  1  0  0  3  0  0  0  0  0  0
  182.8160  176.9080  140.1400 C   0  0  0  0  0  1  0  0  0  0  0  0
  189.4650  177.8930  140.5430 C   0  0  2  0  0  3  0  0  0  0  0  0
  187.9260  177.8290  140.4100 C   0  0  2  0  0  3  0  0  0  0  0  0
  187.1950  176.6240  145.3330 C   0  0  0  0  0  2  0  0  0  0  0  0
  190.4610  176.2400  144.5970 C   0  0  0  0  0  3  0  0  0  0  0  0
  189.6420  177.0270  145.4140 C   0  0  0  0  0  0  0  0  0  0  0  0
  190.0510  177.3270  146.7230 C   0  0  0  0  0  3  0  0  0  0  0  0
  191.6610  177.1320  148.4690 F   0  0  0  0  0  0  0  0  0  0  0  0
  192.0850  176.0560  146.3840 C   0  0  0  0  0  3  0  0  0  0  0  0
  191.2710  176.8420  147.2060 C   0  0  0  0  0  0  0  0  0  0  0  0
  191.6800  175.7560  145.0810 C   0  0  0  0  0  3  0  0  0  0  0  0
  187.6030  178.2540  138.9760 C   0  0  0  0  0  2  0  0  0  0  0  0
  187.7350  177.1200  138.0670 N   0  0  0  0  0  0  0  0  0  0  0  0
  189.7840  177.0700  136.7810 C   0  0  0  0  0  2  0  0  0  0  0  0
  189.0170  176.5640  137.7390 C   0  0  0  0  0  3  0  0  0  0  0  0
  186.5730  176.4770  137.6150 N   0  0  0  0  0  2  0  0  0  0  0  0
  185.7790  177.4600  136.8940 C   0  0  0  0  0  2  0  0  0  0  0  0
  184.5020  176.8120  136.4010 C   0  0  0  0  0  1  0  0  0  0  0  0
  1 20  1  6  0  0  0
  1 18  1  0  0  0  0
  2 16  1  0  0  0  0
  3  7  1  0  0  0  0
  4  8  1  0  0  0  0
  5  7  1  0  0  0  0
  5  2  1  0  0  0  0
  6  4  1  0  0  0  0
  6  2  1  0  0  0  0
  7 19  1  0  0  0  0
  8 12  1  0  0  0  0
  9 17  1  0  0  0  0
  9  6  1  0  0  0  0
 10  1  1  0  0  0  0
 13  1  1  0  0  0  0
 13  9  1  0  0  0  0
 14 15  1  0  0  0  0
 15  3  1  0  0  0  0
 16 12  1  0  0  0  0
 16 11  1  0  0  0  0
 17  5  1  0  0  0  0
 18  4  1  0  0  0  0
 19 23  1  0  0  0  0
 19 25  1  0  0  0  0
 21 14  1  0  0  0  0
 21 15  1  0  0  0  0
 22 21  1  0  0  0  0
 22 17  1  0  0  0  0
 23 11  1  0  0  0  0
 24 30  2  0  0  0  0
 24 25  1  0  0  0  0
 25 26  2  0  0  0  0
 26 29  1  0  0  0  0
 28 29  2  0  0  0  0
 29 27  1  0  0  0  0
 30 28  1  0  0  0  0
 31 22  1  0  0  0  0
 32 31  1  0  0  0  0
 33 34  2  0  0  0  0
 34 32  1  0  0  0  0
 35 32  1  0  0  0  0
 36 35  1  0  0  0  0
 37 36  1  0  0  0  0
M  END
>  <MODEL>
3

>  <REMARK>
 VINA RESULT:      -7.2      2.890      8.219
  Name = 
  6 active torsions:
  status: ('A' for Active; 'I' for Inactive)
    1  A    between atoms: C_1  and  N_4
    2  A    between atoms: C_1  and  C_27
    3  A    between atoms: N_4  and  N_12
    4  A    between atoms: N_4  and  C_37
    5  A    between atoms: C_8  and  N_12
    6  A    between atoms: C_23  and  C_30
                            x       y       z     vdW  Elec       q    Type
                         _______ _______ _______ _____ _____    ______ ____

>  <TORSDO>
F 6

$$$$
=
 OpenBabel11122411423D

 37 43  0  0  1  0  0  0  0  0999 V2000
  189.9850  176.9460  141.8330 C   0  0  1  0  0  0  0  0  0  0  0  0
  188.2210  177.5070  138.4500 C   0  0  1  0  0  3  0  0  0  0  0  0
  185.1990  178.8920  138.3200 O   0  0  0  0  0  0  0  0  0  0  0  0
  190.5290  177.4700  139.6620 C   0  0  2  0  0  3  0  0  0  0  0  0
  186.9220  177.5190  139.2550 C   0  0  2  0  0  3  0  0  0  0  0  0
  189.2080  178.2100  139.3900 C   0  0  2  0  0  3  0  0  0  0  0  0
  185.6340  177.5620  138.4270 C   0  0  2  0  0  3  0  0  0  0  0  0
  191.0680  176.9290  138.3470 C   0  0  0  0  0  2  0  0  0  0  0  0
  188.4100  178.5610  140.6470 C   0  0  2  0  0  3  0  0  0  0  0  0
  190.8440  177.9510  142.2580 F   0  0  0  0  0  0  0  0  0  0  0  0
  187.8090  175.5460  136.8920 C   0  0  0  0  0  2  0  0  0  0  0  0
  190.1080  175.9360  137.6790 C   0  0  0  0  0  2  0  0  0  0  0  0
  188.5580  177.4680  141.7320 C   0  0  0  0  0  2  0  0  0  0  0  0
  183.7360  178.1370  140.2760 C   0  0  0  0  0  2  0  0  0  0  0  0
  184.1500  179.1800  139.2390 C   0  0  1  0  0  3  0  0  0  0  0  0
  188.6270  176.0690  138.0720 C   0  0  1  0  0  3  0  0  0  0  0  0
  187.0240  178.6670  140.1620 N   0  0  2  0  0  0  0  0  0  0  0  0
  190.3830  176.4160  140.5890 O   0  0  0  0  0  0  0  0  0  0  0  0
  185.7070  176.8790  137.0580 C   0  0  1  0  0  3  0  0  0  0  0  0
  190.0090  175.8360  142.8610 C   0  0  0  0  0  1  0  0  0  0  0  0
  184.6410  179.2800  140.7020 C   0  0  2  0  0  3  0  0  0  0  0  0
  185.9590  178.6330  141.1880 C   0  0  2  0  0  3  0  0  0  0  0  0
  186.3140  175.4840  137.1650 C   0  0  0  0  0  2  0  0  0  0  0  0
  184.1380  177.4630  135.2020 C   0  0  0  0  0  3  0  0  0  0  0  0
  184.3530  176.8110  136.4210 C   0  0  0  0  0  0  0  0  0  0  0  0
  183.2970  176.1130  137.0300 C   0  0  0  0  0  3  0  0  0  0  0  0
  181.0240  175.3980  137.0100 F   0  0  0  0  0  0  0  0  0  0  0  0
  181.8320  176.7250  135.2020 C   0  0  0  0  0  3  0  0  0  0  0  0
  182.0400  176.0710  136.4200 C   0  0  0  0  0  0  0  0  0  0  0  0
  182.8800  177.4210  134.5940 C   0  0  0  0  0  3  0  0  0  0  0  0
  186.3620  179.3880  142.4570 C   0  0  0  0  0  2  0  0  0  0  0  0
  185.6280  178.8760  143.6090 N   0  0  0  0  0  0  0  0  0  0  0  0
  183.2750  178.7940  144.1660 C   0  0  0  0  0  2  0  0  0  0  0  0
  184.4050  179.4820  144.0510 C   0  0  0  0  0  3  0  0  0  0  0  0
  186.0580  177.6830  144.2090 N   0  0  0  0  0  2  0  0  0  0  0  0
  186.6360  178.0230  145.4990 C   0  0  0  0  0  2  0  0  0  0  0  0
  188.0650  177.5250  145.5580 C   0  0  0  0  0  1  0  0  0  0  0  0
  1 10  1  0  0  0  0
  1 20  1  1  0  0  0
  2  5  1  0  0  0  0
  2  6  1  0  0  0  0
  3  7  1  0  0  0  0
  3 15  1  0  0  0  0
  4 18  1  0  0  0  0
  5 17  1  0  0  0  0
  6  4  1  0  0  0  0
  6  9  1  0  0  0  0
  7  5  1  0  0  0  0
  8  4  1  0  0  0  0
  9 13  1  0  0  0  0
 11 23  1  0  0  0  0
 11 16  1  0  0  0  0
 12 16  1  0  0  0  0
 12  8  1  0  0  0  0
 13  1  1  0  0  0  0
 14 21  1  0  0  0  0
 15 14  1  0  0  0  0
 15 21  1  0  0  0  0
 16  2  1  0  0  0  0
 17  9  1  0  0  0  0
 17 22  1  0  0  0  0
 18  1  1  0  0  0  0
 19 23  1  0  0  0  0
 19  7  1  0  0  0  0
 21 22  1  0  0  0  0
 22 31  1  0  0  0  0
 24 25  1  0  0  0  0
 25 26  2  0  0  0  0
 25 19  1  0  0  0  0
 28 29  2  0  0  0  0
 29 27  1  0  0  0  0
 29 26  1  0  0  0  0
 30 28  1  0  0  0  0
 30 24  2  0  0  0  0
 31 32  1  0  0  0  0
 32 34  1  0  0  0  0
 32 35  1  0  0  0  0
 34 33  2  0  0  0  0
 35 36  1  0  0  0  0
 36 37  1  0  0  0  0
M  END
>  <MODEL>
4

>  <REMARK>
 VINA RESULT:      -7.2      2.287      3.868
  Name = 
  6 active torsions:
  status: ('A' for Active; 'I' for Inactive)
    1  A    between atoms: C_1  and  N_4
    2  A    between atoms: C_1  and  C_27
    3  A    between atoms: N_4  and  N_12
    4  A    between atoms: N_4  and  C_37
    5  A    between atoms: C_8  and  N_12
    6  A    between atoms: C_23  and  C_30
                            x       y       z     vdW  Elec       q    Type
                         _______ _______ _______ _____ _____    ______ ____

>  <TORSDO>
F 6

$$$$
=
 OpenBabel11122411423D

 37 43  0  0  1  0  0  0  0  0999 V2000
  186.3740  177.1520  137.8090 C   0  0  1  0  0  0  0  0  0  0  0  0
  186.9690  178.5880  141.3390 C   0  0  1  0  0  3  0  0  0  0  0  0
  190.0020  178.5320  142.7050 O   0  0  0  0  0  0  0  0  0  0  0  0
  185.5960  178.8590  139.1390 C   0  0  2  0  0  3  0  0  0  0  0  0
  188.2000  177.6820  141.3790 C   0  0  2  0  0  3  0  0  0  0  0  0
  186.9350  179.0460  139.8760 C   0  0  2  0  0  3  0  0  0  0  0  0
  188.9320  177.6250  142.7230 C   0  0  2  0  0  3  0  0  0  0  0  0
  184.4670  179.3130  140.0500 C   0  0  0  0  0  2  0  0  0  0  0  0
  188.1290  178.3720  139.1980 C   0  0  2  0  0  3  0  0  0  0  0  0
  186.4500  178.0510  136.7540 F   0  0  0  0  0  0  0  0  0  0  0  0
  185.6450  177.6960  143.3130 C   0  0  0  0  0  2  0  0  0  0  0  0
  184.3970  178.5060  141.3520 C   0  0  0  0  0  2  0  0  0  0  0  0
  187.7170  177.0440  138.5200 C   0  0  0  0  0  2  0  0  0  0  0  0
  191.2660  176.3940  142.0980 C   0  0  0  0  0  2  0  0  0  0  0  0
  191.2420  177.8810  142.4500 C   0  0  1  0  0  3  0  0  0  0  0  0
  185.7070  177.8280  141.7920 C   0  0  1  0  0  3  0  0  0  0  0  0
  189.0770  178.1520  140.3010 N   0  0  2  0  0  0  0  0  0  0  0  0
  185.3780  177.5240  138.7360 O   0  0  0  0  0  0  0  0  0  0  0  0
  188.0510  177.8140  143.9620 C   0  0  1  0  0  3  0  0  0  0  0  0
  186.0270  175.7900  137.2480 C   0  0  0  0  0  1  0  0  0  0  0  0
  191.3890  177.4180  140.9820 C   0  0  2  0  0  3  0  0  0  0  0  0
  190.1750  177.1940  140.0510 C   0  0  2  0  0  3  0  0  0  0  0  0
  186.8150  176.9240  143.9060 C   0  0  0  0  0  2  0  0  0  0  0  0
  188.2350  177.8180  146.4550 C   0  0  0  0  0  3  0  0  0  0  0  0
  188.8270  177.5480  145.2160 C   0  0  0  0  0  0  0  0  0  0  0  0
  190.1370  177.0450  145.1680 C   0  0  0  0  0  3  0  0  0  0  0  0
  192.1070  176.3290  146.3010 F   0  0  0  0  0  0  0  0  0  0  0  0
  190.2460  177.0840  147.5860 C   0  0  0  0  0  3  0  0  0  0  0  0
  190.8440  176.8130  146.3520 C   0  0  0  0  0  0  0  0  0  0  0  0
  188.9430  177.5860  147.6380 C   0  0  0  0  0  3  0  0  0  0  0  0
  190.7100  177.2970  138.6200 C   0  0  0  0  0  2  0  0  0  0  0  0
  191.4460  176.0890  138.2630 N   0  0  0  0  0  0  0  0  0  0  0  0
  193.4230  176.4190  136.9070 C   0  0  0  0  0  2  0  0  0  0  0  0
  192.8680  176.1050  138.0720 C   0  0  0  0  0  3  0  0  0  0  0  0
  190.7650  174.8630  138.2430 N   0  0  0  0  0  2  0  0  0  0  0  0
  190.1790  174.7080  136.9210 C   0  0  0  0  0  2  0  0  0  0  0  0
  189.2710  173.4960  136.9120 C   0  0  0  0  0  1  0  0  0  0  0  0
  1 20  1  6  0  0  0
  1 13  1  0  0  0  0
  1 18  1  0  0  0  0
  2  5  1  0  0  0  0
  2 16  1  0  0  0  0
  3  7  1  0  0  0  0
  4  6  1  0  0  0  0
  4  8  1  0  0  0  0
  5  7  1  0  0  0  0
  6  2  1  0  0  0  0
  7 19  1  0  0  0  0
  8 12  1  0  0  0  0
  9  6  1  0  0  0  0
  9 17  1  0  0  0  0
 10  1  1  0  0  0  0
 11 23  1  0  0  0  0
 12 16  1  0  0  0  0
 13  9  1  0  0  0  0
 14 15  1  0  0  0  0
 15  3  1  0  0  0  0
 16 11  1  0  0  0  0
 17  5  1  0  0  0  0
 18  4  1  0  0  0  0
 19 25  1  0  0  0  0
 21 14  1  0  0  0  0
 21 15  1  0  0  0  0
 22 17  1  0  0  0  0
 22 21  1  0  0  0  0
 23 19  1  0  0  0  0
 24 30  1  0  0  0  0
 25 24  2  0  0  0  0
 26 25  1  0  0  0  0
 26 29  2  0  0  0  0
 27 29  1  0  0  0  0
 28 30  2  0  0  0  0
 29 28  1  0  0  0  0
 31 22  1  0  0  0  0
 32 31  1  0  0  0  0
 33 34  2  0  0  0  0
 34 32  1  0  0  0  0
 35 32  1  0  0  0  0
 36 35  1  0  0  0  0
 37 36  1  0  0  0  0
M  END
>  <MODEL>
5

>  <REMARK>
 VINA RESULT:      -7.1      2.761      7.069
  Name = 
  6 active torsions:
  status: ('A' for Active; 'I' for Inactive)
    1  A    between atoms: C_1  and  N_4
    2  A    between atoms: C_1  and  C_27
    3  A    between atoms: N_4  and  N_12
    4  A    between atoms: N_4  and  C_37
    5  A    between atoms: C_8  and  N_12
    6  A    between atoms: C_23  and  C_30
                            x       y       z     vdW  Elec       q    Type
                         _______ _______ _______ _____ _____    ______ ____

>  <TORSDO>
F 6

$$$$
=
 OpenBabel11122411423D

 37 43  0  0  1  0  0  0  0  0999 V2000
  185.8300  179.1020  146.3730 C   0  0  1  0  0  0  0  0  0  0  0  0
  186.6520  177.5090  142.9580 C   0  0  1  0  0  3  0  0  0  0  0  0
  189.4820  175.8180  142.5090 O   0  0  0  0  0  0  0  0  0  0  0  0
  184.7310  178.1040  144.6180 C   0  0  2  0  0  3  0  0  0  0  0  0
  188.1110  177.5630  143.4090 C   0  0  2  0  0  3  0  0  0  0  0  0
  185.9080  177.1800  144.2580 C   0  0  2  0  0  3  0  0  0  0  0  0
  189.1430  177.1700  142.3470 C   0  0  2  0  0  3  0  0  0  0  0  0
  183.8980  178.3470  143.3690 C   0  0  0  0  0  2  0  0  0  0  0  0
  186.9840  177.0770  145.3410 C   0  0  2  0  0  3  0  0  0  0  0  0
  185.0670  178.3380  147.2450 F   0  0  0  0  0  0  0  0  0  0  0  0
  186.7340  178.9520  140.8710 C   0  0  0  0  0  2  0  0  0  0  0  0
  184.6970  179.0270  142.2500 C   0  0  0  0  0  2  0  0  0  0  0  0
  187.1620  178.4200  146.0880 C   0  0  0  0  0  2  0  0  0  0  0  0
  191.4240  176.8840  143.7860 C   0  0  0  0  0  2  0  0  0  0  0  0
  190.7160  175.6630  143.2010 C   0  0  1  0  0  3  0  0  0  0  0  0
  186.2230  178.8390  142.3060 C   0  0  1  0  0  3  0  0  0  0  0  0
  188.1950  176.7020  144.5930 N   0  0  2  0  0  0  0  0  0  0  0  0
  185.1520  179.3370  145.1600 O   0  0  0  0  0  0  0  0  0  0  0  0
  188.7520  177.4860  140.8990 C   0  0  1  0  0  3  0  0  0  0  0  0
  186.1150  180.4340  147.0330 C   0  0  0  0  0  1  0  0  0  0  0  0
  190.6100  175.9920  144.7070 C   0  0  2  0  0  3  0  0  0  0  0  0
  189.4870  176.8800  145.2920 C   0  0  2  0  0  3  0  0  0  0  0  0
  188.2520  178.9190  140.7590 C   0  0  0  0  0  2  0  0  0  0  0  0
  189.6490  176.7400  138.6890 C   0  0  0  0  0  3  0  0  0  0  0  0
  189.9020  177.2420  139.9700 C   0  0  0  0  0  0  0  0  0  0  0  0
  191.2250  177.5000  140.3660 C   0  0  0  0  0  3  0  0  0  0  0  0
  193.5550  177.5050  139.8680 F   0  0  0  0  0  0  0  0  0  0  0  0
  192.0220  176.7540  138.2040 C   0  0  0  0  0  3  0  0  0  0  0  0
  192.2810  177.2560  139.4830 C   0  0  0  0  0  0  0  0  0  0  0  0
  190.7060  176.4970  137.8070 C   0  0  0  0  0  3  0  0  0  0  0  0
  189.3890  176.5220  146.7770 C   0  0  0  0  0  2  0  0  0  0  0  0
  190.2980  177.3510  147.5610 N   0  0  0  0  0  0  0  0  0  0  0  0
  188.5500  178.2530  148.9700 C   0  0  0  0  0  2  0  0  0  0  0  0
  189.8160  178.2530  148.5670 C   0  0  0  0  0  3  0  0  0  0  0  0
  191.6800  177.1560  147.4210 N   0  0  0  0  0  2  0  0  0  0  0  0
  191.9610  175.7600  147.7190 C   0  0  0  0  0  2  0  0  0  0  0  0
  193.1710  175.6720  148.6240 C   0  0  0  0  0  1  0  0  0  0  0  0
  1 20  1  1  0  0  0
  1 10  1  0  0  0  0
  2  5  1  0  0  0  0
  2  6  1  0  0  0  0
  3 15  1  0  0  0  0
  4 18  1  0  0  0  0
  5 17  1  0  0  0  0
  6  4  1  0  0  0  0
  6  9  1  0  0  0  0
  7  3  1  0  0  0  0
  7  5  1  0  0  0  0
  8  4  1  0  0  0  0
  9 13  1  0  0  0  0
 11 16  1  0  0  0  0
 12 16  1  0  0  0  0
 12  8  1  0  0  0  0
 13  1  1  0  0  0  0
 14 21  1  0  0  0  0
 15 14  1  0  0  0  0
 15 21  1  0  0  0  0
 16  2  1  0  0  0  0
 17 22  1  0  0  0  0
 17  9  1  0  0  0  0
 18  1  1  0  0  0  0
 19  7  1  0  0  0  0
 21 22  1  0  0  0  0
 22 31  1  0  0  0  0
 23 11  1  0  0  0  0
 23 19  1  0  0  0  0
 24 25  1  0  0  0  0
 25 26  2  0  0  0  0
 25 19  1  0  0  0  0
 28 29  2  0  0  0  0
 29 27  1  0  0  0  0
 29 26  1  0  0  0  0
 30 28  1  0  0  0  0
 30 24  2  0  0  0  0
 31 32  1  0  0  0  0
 32 34  1  0  0  0  0
 34 33  2  0  0  0  0
 35 32  1  0  0  0  0
 35 36  1  0  0  0  0
 36 37  1  0  0  0  0
M  END
>  <MODEL>
6

>  <REMARK>
 VINA RESULT:      -7.1      3.842      8.078
  Name = 
  6 active torsions:
  status: ('A' for Active; 'I' for Inactive)
    1  A    between atoms: C_1  and  N_4
    2  A    between atoms: C_1  and  C_27
    3  A    between atoms: N_4  and  N_12
    4  A    between atoms: N_4  and  C_37
    5  A    between atoms: C_8  and  N_12
    6  A    between atoms: C_23  and  C_30
                            x       y       z     vdW  Elec       q    Type
                         _______ _______ _______ _____ _____    ______ ____

>  <TORSDO>
F 6

$$$$
=
 OpenBabel11122411423D

 37 43  0  0  1  0  0  0  0  0999 V2000
  190.2530  178.4670  143.9140 C   0  0  1  0  0  0  0  0  0  0  0  0
  186.5620  177.4480  144.3700 C   0  0  1  0  0  3  0  0  0  0  0  0
  184.4670  177.4550  141.7850 O   0  0  0  0  0  0  0  0  0  0  0  0
  189.0030  177.0030  145.1700 C   0  0  2  0  0  3  0  0  0  0  0  0
  186.2970  178.2600  143.1010 C   0  0  2  0  0  3  0  0  0  0  0  0
  187.9280  176.8130  144.0850 C   0  0  2  0  0  3  0  0  0  0  0  0
  184.8220  178.4320  142.7270 C   0  0  2  0  0  3  0  0  0  0  0  0
  188.3760  176.7510  146.5320 C   0  0  0  0  0  2  0  0  0  0  0  0
  188.3390  177.3070  142.6970 C   0  0  2  0  0  3  0  0  0  0  0  0
  191.1540  177.4390  143.6700 F   0  0  0  0  0  0  0  0  0  0  0  0
  185.1030  178.6760  146.0460 C   0  0  0  0  0  2  0  0  0  0  0  0
  187.2270  177.7190  146.8420 C   0  0  0  0  0  2  0  0  0  0  0  0
  189.2340  178.5660  142.7880 C   0  0  0  0  0  2  0  0  0  0  0  0
  184.9430  179.4010  140.1960 C   0  0  0  0  0  2  0  0  0  0  0  0
  184.4580  177.9770  140.4600 C   0  0  1  0  0  3  0  0  0  0  0  0
  186.5340  178.3490  145.6200 C   0  0  1  0  0  3  0  0  0  0  0  0
  187.0550  177.5950  142.0360 N   0  0  2  0  0  0  0  0  0  0  0  0
  189.5840  178.2890  145.1430 O   0  0  0  0  0  0  0  0  0  0  0  0
  183.8420  178.4660  143.9040 C   0  0  1  0  0  3  0  0  0  0  0  0
  191.0230  179.7700  143.9680 C   0  0  0  0  0  1  0  0  0  0  0  0
  185.8770  178.2390  139.9050 C   0  0  2  0  0  3  0  0  0  0  0  0
  187.1100  178.4320  140.8180 C   0  0  2  0  0  3  0  0  0  0  0  0
  184.3100  179.4300  144.9880 C   0  0  0  0  0  2  0  0  0  0  0  0
  181.3810  178.6300  144.3040 C   0  0  0  0  0  3  0  0  0  0  0  0
  182.4640  178.8300  143.4420 C   0  0  0  0  0  0  0  0  0  0  0  0
  182.2420  179.3580  142.1600 C   0  0  0  0  0  3  0  0  0  0  0  0
  180.7350  180.1890  140.5120 F   0  0  0  0  0  0  0  0  0  0  0  0
  179.8670  179.4790  142.6160 C   0  0  0  0  0  3  0  0  0  0  0  0
  180.9450  179.6820  141.7490 C   0  0  0  0  0  0  0  0  0  0  0  0
  180.0850  178.9540  143.8920 C   0  0  0  0  0  3  0  0  0  0  0  0
  188.3330  178.1100  139.9570 C   0  0  0  0  0  2  0  0  0  0  0  0
  187.9230  177.7460  138.6050 N   0  0  0  0  0  0  0  0  0  0  0  0
  189.0530  179.3740  137.2170 C   0  0  0  0  0  2  0  0  0  0  0  0
  187.9560  178.6940  137.5280 C   0  0  0  0  0  3  0  0  0  0  0  0
  187.6210  176.4050  138.3270 N   0  0  0  0  0  2  0  0  0  0  0  0
  187.1420  176.3360  136.9560 C   0  0  0  0  0  2  0  0  0  0  0  0
  185.7240  175.8030  136.9450 C   0  0  0  0  0  1  0  0  0  0  0  0
  1 20  1  1  0  0  0
  1 18  1  0  0  0  0
  2 16  1  0  0  0  0
  3  7  1  0  0  0  0
  4  8  1  0  0  0  0
  5  2  1  0  0  0  0
  6  2  1  0  0  0  0
  6  4  1  0  0  0  0
  7  5  1  0  0  0  0
  7 19  1  0  0  0  0
  8 12  1  0  0  0  0
  9 13  1  0  0  0  0
  9  6  1  0  0  0  0
 10  1  1  0  0  0  0
 13  1  1  0  0  0  0
 14 15  1  0  0  0  0
 15  3  1  0  0  0  0
 16 11  1  0  0  0  0
 16 12  1  0  0  0  0
 17  9  1  0  0  0  0
 17  5  1  0  0  0  0
 18  4  1  0  0  0  0
 19 23  1  0  0  0  0
 21 14  1  0  0  0  0
 21 15  1  0  0  0  0
 21 22  1  0  0  0  0
 22 17  1  0  0  0  0
 23 11  1  0  0  0  0
 25 19  1  0  0  0  0
 25 24  2  0  0  0  0
 26 25  1  0  0  0  0
 27 29  1  0  0  0  0
 28 30  2  0  0  0  0
 29 26  2  0  0  0  0
 29 28  1  0  0  0  0
 30 24  1  0  0  0  0
 31 22  1  0  0  0  0
 32 31  1  0  0  0  0
 33 34  2  0  0  0  0
 34 32  1  0  0  0  0
 35 32  1  0  0  0  0
 36 35  1  0  0  0  0
 37 36  1  0  0  0  0
M  END
>  <MODEL>
7

>  <REMARK>
 VINA RESULT:      -7.1      2.630      6.164
  Name = 
  6 active torsions:
  status: ('A' for Active; 'I' for Inactive)
    1  A    between atoms: C_1  and  N_4
    2  A    between atoms: C_1  and  C_27
    3  A    between atoms: N_4  and  N_12
    4  A    between atoms: N_4  and  C_37
    5  A    between atoms: C_8  and  N_12
    6  A    between atoms: C_23  and  C_30
                            x       y       z     vdW  Elec       q    Type
                         _______ _______ _______ _____ _____    ______ ____

>  <TORSDO>
F 6

$$$$
=
 OpenBabel11122411423D

 37 43  0  0  1  0  0  0  0  0999 V2000
  189.0910  178.1440  138.9780 C   0  0  1  0  0  0  0  0  0  0  0  0
  187.8000  175.5370  136.4450 C   0  0  1  0  0  3  0  0  0  0  0  0
  184.5400  175.1840  135.8860 O   0  0  0  0  0  0  0  0  0  0  0  0
  189.7320  177.2060  136.9790 C   0  0  2  0  0  3  0  0  0  0  0  0
  186.4840  175.6010  137.2190 C   0  0  2  0  0  3  0  0  0  0  0  0
  188.2890  176.9910  136.4880 C   0  0  2  0  0  3  0  0  0  0  0  0
  185.4220  174.5820  136.7960 C   0  0  2  0  0  3  0  0  0  0  0  0
  190.6340  176.1760  136.3170 C   0  0  0  0  0  2  0  0  0  0  0  0
  187.2310  177.7640  137.2780 C   0  0  2  0  0  3  0  0  0  0  0  0
  189.4310  179.3890  138.4670 F   0  0  0  0  0  0  0  0  0  0  0  0
  188.4080  173.0880  136.7220 C   0  0  0  0  0  2  0  0  0  0  0  0
  190.2360  174.7350  136.6620 C   0  0  0  0  0  2  0  0  0  0  0  0
  187.6080  177.8660  138.7750 C   0  0  0  0  0  2  0  0  0  0  0  0
  183.1820  175.4830  138.0320 C   0  0  0  0  0  2  0  0  0  0  0  0
  183.3300  175.5940  136.5150 C   0  0  1  0  0  3  0  0  0  0  0  0
  188.7720  174.5270  137.0860 C   0  0  1  0  0  3  0  0  0  0  0  0
  186.0020  176.9800  137.0750 N   0  0  2  0  0  0  0  0  0  0  0  0
  189.8500  177.1150  138.3820 O   0  0  0  0  0  0  0  0  0  0  0  0
  185.9610  173.2500  136.2660 C   0  0  1  0  0  3  0  0  0  0  0  0
  189.3700  178.1490  140.4660 C   0  0  0  0  0  1  0  0  0  0  0  0
  183.5110  176.8340  137.4200 C   0  0  2  0  0  3  0  0  0  0  0  0
  184.8820  177.2520  138.0010 C   0  0  2  0  0  3  0  0  0  0  0  0
  187.0230  172.6710  137.1940 C   0  0  0  0  0  2  0  0  0  0  0  0
  184.8560  171.4500  134.9290 C   0  0  0  0  0  3  0  0  0  0  0  0
  184.8500  172.2640  136.0670 C   0  0  0  0  0  0  0  0  0  0  0  0
  183.8020  172.1520  136.9950 C   0  0  0  0  0  3  0  0  0  0  0  0
  181.7630  171.1260  137.6790 F   0  0  0  0  0  0  0  0  0  0  0  0
  182.7850  170.4190  135.6440 C   0  0  0  0  0  3  0  0  0  0  0  0
  182.7720  171.2300  136.7830 C   0  0  0  0  0  0  0  0  0  0  0  0
  183.8260  170.5290  134.7180 C   0  0  0  0  0  3  0  0  0  0  0  0
  184.7660  178.7410  138.3370 C   0  0  0  0  0  2  0  0  0  0  0  0
  184.4220  178.9200  139.7440 N   0  0  0  0  0  0  0  0  0  0  0  0
  182.0040  178.9910  139.7960 C   0  0  0  0  0  2  0  0  0  0  0  0
  183.1500  178.5100  140.2640 C   0  0  0  0  0  3  0  0  0  0  0  0
  185.4100  179.3780  140.6280 N   0  0  0  0  0  2  0  0  0  0  0  0
  185.0230  178.9690  141.9690 C   0  0  0  0  0  2  0  0  0  0  0  0
  186.1810  178.2490  142.6290 C   0  0  0  0  0  1  0  0  0  0  0  0
  1 20  1  1  0  0  0
  2  6  1  0  0  0  0
  2 16  1  0  0  0  0
  2  5  1  0  0  0  0
  3 15  1  0  0  0  0
  3  7  1  0  0  0  0
  4 18  1  0  0  0  0
  6  4  1  0  0  0  0
  6  9  1  0  0  0  0
  7  5  1  0  0  0  0
  8 12  1  0  0  0  0
  8  4  1  0  0  0  0
  9 13  1  0  0  0  0
 10  1  1  0  0  0  0
 11 16  1  0  0  0  0
 11 23  1  0  0  0  0
 12 16  1  0  0  0  0
 13  1  1  0  0  0  0
 15 21  1  0  0  0  0
 15 14  1  0  0  0  0
 17  5  1  0  0  0  0
 17  9  1  0  0  0  0
 17 22  1  0  0  0  0
 18  1  1  0  0  0  0
 19  7  1  0  0  0  0
 19 23  1  0  0  0  0
 21 22  1  0  0  0  0
 21 14  1  0  0  0  0
 22 31  1  0  0  0  0
 24 25  1  0  0  0  0
 25 19  1  0  0  0  0
 25 26  2  0  0  0  0
 28 29  2  0  0  0  0
 29 26  1  0  0  0  0
 29 27  1  0  0  0  0
 30 24  2  0  0  0  0
 30 28  1  0  0  0  0
 31 32  1  0  0  0  0
 32 34  1  0  0  0  0
 32 35  1  0  0  0  0
 33 34  2  0  0  0  0
 35 36  1  0  0  0  0
 36 37  1  0  0  0  0
M  END
>  <MODEL>
8

>  <REMARK>
 VINA RESULT:      -6.2      3.486      5.629
  Name = 
  6 active torsions:
  status: ('A' for Active; 'I' for Inactive)
    1  A    between atoms: C_1  and  N_4
    2  A    between atoms: C_1  and  C_27
    3  A    between atoms: N_4  and  N_12
    4  A    between atoms: N_4  and  C_37
    5  A    between atoms: C_8  and  N_12
    6  A    between atoms: C_23  and  C_30
                            x       y       z     vdW  Elec       q    Type
                         _______ _______ _______ _____ _____    ______ ____

>  <TORSDO>
F 6

$$$$
=
 OpenBabel11122411423D

 37 43  0  0  1  0  0  0  0  0999 V2000
  188.8950  178.1270  138.4660 C   0  0  1  0  0  0  0  0  0  0  0  0
  186.2510  176.7520  136.0180 C   0  0  1  0  0  3  0  0  0  0  0  0
  183.0250  176.7450  136.8310 O   0  0  0  0  0  0  0  0  0  0  0  0
  188.5220  178.0210  136.2000 C   0  0  2  0  0  3  0  0  0  0  0  0
  185.3730  176.5510  137.2530 C   0  0  2  0  0  3  0  0  0  0  0  0
  186.9890  178.0580  136.3370 C   0  0  2  0  0  3  0  0  0  0  0  0
  184.0550  175.8100  137.0100 C   0  0  2  0  0  3  0  0  0  0  0  0
  188.8820  177.3010  134.9100 C   0  0  0  0  0  2  0  0  0  0  0  0
  186.4880  178.4960  137.7140 C   0  0  2  0  0  3  0  0  0  0  0  0
  189.2450  179.4620  138.3140 F   0  0  0  0  0  0  0  0  0  0  0  0
  186.4330  174.3700  135.1590 C   0  0  0  0  0  2  0  0  0  0  0  0
  188.3780  175.8530  134.8810 C   0  0  0  0  0  2  0  0  0  0  0  0
  187.4240  177.9970  138.8400 C   0  0  0  0  0  2  0  0  0  0  0  0
  182.6830  176.2290  139.3120 C   0  0  0  0  0  2  0  0  0  0  0  0
  182.2550  176.9160  138.0160 C   0  0  1  0  0  3  0  0  0  0  0  0
  187.1790  175.5420  135.7950 C   0  0  1  0  0  3  0  0  0  0  0  0
  185.1490  177.8910  137.8060 N   0  0  2  0  0  0  0  0  0  0  0  0
  189.1510  177.3870  137.2930 O   0  0  0  0  0  0  0  0  0  0  0  0
  184.0800  174.7720  135.8830 C   0  0  1  0  0  3  0  0  0  0  0  0
  189.7200  177.5450  139.5930 C   0  0  0  0  0  1  0  0  0  0  0  0
  183.0060  177.7010  139.1160 C   0  0  2  0  0  3  0  0  0  0  0  0
  184.5470  177.8180  139.1550 C   0  0  2  0  0  3  0  0  0  0  0  0
  185.2840  173.8460  136.0080 C   0  0  0  0  0  2  0  0  0  0  0  0
  181.9730  174.0600  134.7430 C   0  0  0  0  0  3  0  0  0  0  0  0
  182.8100  173.9760  135.8600 C   0  0  0  0  0  0  0  0  0  0  0  0
  182.4450  173.1590  136.9420 C   0  0  0  0  0  3  0  0  0  0  0  0
  180.9010  171.6470  137.9460 F   0  0  0  0  0  0  0  0  0  0  0  0
  180.4180  172.5210  135.7810 C   0  0  0  0  0  3  0  0  0  0  0  0
  181.2510  172.4330  136.9010 C   0  0  0  0  0  0  0  0  0  0  0  0
  180.7790  173.3340  134.7030 C   0  0  0  0  0  3  0  0  0  0  0  0
  184.8600  179.0620  139.9900 C   0  0  0  0  0  2  0  0  0  0  0  0
  185.1830  178.6860  141.3630 N   0  0  0  0  0  0  0  0  0  0  0  0
  183.1040  178.8640  142.5870 C   0  0  0  0  0  2  0  0  0  0  0  0
  184.1860  178.1690  142.2550 C   0  0  0  0  0  3  0  0  0  0  0  0
  186.5250  178.7020  141.7700 N   0  0  0  0  0  2  0  0  0  0  0  0
  186.6340  177.8730  142.9600 C   0  0  0  0  0  2  0  0  0  0  0  0
  187.8790  177.0160  142.8640 C   0  0  0  0  0  1  0  0  0  0  0  0
  1 13  1  0  0  0  0
  1 20  1  1  0  0  0
  2  6  1  0  0  0  0
  2  5  1  0  0  0  0
  3  7  1  0  0  0  0
  3 15  1  0  0  0  0
  4  6  1  0  0  0  0
  4 18  1  0  0  0  0
  5 17  1  0  0  0  0
  6  9  1  0  0  0  0
  7  5  1  0  0  0  0
  8  4  1  0  0  0  0
  9 17  1  0  0  0  0
  9 13  1  0  0  0  0
 10  1  1  0  0  0  0
 11 16  1  0  0  0  0
 11 23  1  0  0  0  0
 12  8  1  0  0  0  0
 12 16  1  0  0  0  0
 15 21  1  0  0  0  0
 15 14  1  0  0  0  0
 16  2  1  0  0  0  0
 17 22  1  0  0  0  0
 18  1  1  0  0  0  0
 19 23  1  0  0  0  0
 19  7  1  0  0  0  0
 21 22  1  0  0  0  0
 21 14  1  0  0  0  0
 22 31  1  0  0  0  0
 24 25  1  0  0  0  0
 25 19  1  0  0  0  0
 25 26  2  0  0  0  0
 28 29  2  0  0  0  0
 29 26  1  0  0  0  0
 29 27  1  0  0  0  0
 30 24  2  0  0  0  0
 30 28  1  0  0  0  0
 31 32  1  0  0  0  0
 32 35  1  0  0  0  0
 32 34  1  0  0  0  0
 34 33  2  0  0  0  0
 35 36  1  0  0  0  0
 37 36  1  0  0  0  0
M  END
>  <MODEL>
9

>  <REMARK>
 VINA RESULT:      -6.1      3.006      4.437
  Name = 
  6 active torsions:
  status: ('A' for Active; 'I' for Inactive)
    1  A    between atoms: C_1  and  N_4
    2  A    between atoms: C_1  and  C_27
    3  A    between atoms: N_4  and  N_12
    4  A    between atoms: N_4  and  C_37
    5  A    between atoms: C_8  and  N_12
    6  A    between atoms: C_23  and  C_30
                            x       y       z     vdW  Elec       q    Type
                         _______ _______ _______ _____ _____    ______ ____

>  <TORSDO>
F 6

$$$$
