=
 OpenBabel11122412023D

 34 41  0  0  1  0  0  0  0  0999 V2000
  187.4520  178.1770  141.5100 C   0  0  0  0  0  0  0  0  0  0  0  0
  185.4870  178.5960  140.0180 C   0  0  0  0  0  3  0  0  0  0  0  0
  190.1000  177.2680  147.4250 C   0  0  0  0  0  0  0  0  0  0  0  0
  189.2270  177.7260  143.1250 C   0  0  0  0  0  0  0  0  0  0  0  0
  188.5390  177.3750  145.4770 C   0  0  0  0  0  0  0  0  0  0  0  0
  188.1720  177.5560  147.9220 C   0  0  0  0  0  2  0  0  0  0  0  0
  189.4080  177.9040  148.5200 O   0  0  0  0  0  0  0  0  0  0  0  0
  191.5690  176.5030  145.7700 C   0  0  0  0  0  2  0  0  0  0  0  0
  185.1090  178.3710  142.1430 C   0  0  0  0  0  0  0  0  0  0  0  0
  182.4990  179.1930  143.5210 C   0  0  0  0  0  3  0  0  0  0  0  0
  187.2460  177.5570  145.1590 C   0  0  0  0  0  3  0  0  0  0  0  0
  191.0940  177.4310  144.6590 C   0  0  0  0  0  2  0  0  0  0  0  0
  185.3810  178.1190  143.5910 C   0  0  1  0  0  3  0  0  0  0  0  0
  184.1140  178.7340  140.2010 C   0  0  0  0  0  3  0  0  0  0  0  0
  189.5990  177.4630  144.3950 C   0  0  0  0  0  0  0  0  0  0  0  0
  191.3250  177.1410  147.0480 N   0  0  0  0  0  0  0  0  0  0  0  0
  182.5890  178.6930  142.2800 C   0  0  0  0  0  0  0  0  0  0  0  0
  187.8080  177.9440  142.7880 C   0  0  0  0  0  0  0  0  0  0  0  0
  188.8040  176.8200  146.8610 C   0  0  2  0  0  3  0  0  0  0  0  0
  186.8210  177.9150  143.8390 N   0  0  0  0  0  0  0  0  0  0  0  0
  189.7680  178.0640  140.7180 C   0  0  0  0  0  3  0  0  0  0  0  0
  183.5920  179.6820  144.3940 C   0  0  0  0  0  3  0  0  0  0  0  0
  190.1910  177.8130  142.0640 N   0  0  0  0  0  2  0  0  0  0  0  0
  184.8580  179.2550  144.4150 C   0  0  0  0  0  3  0  0  0  0  0  0
  183.8860  178.5880  141.5650 C   0  0  0  0  0  0  0  0  0  0  0  0
  188.4730  178.2360  140.4400 C   0  0  0  0  0  3  0  0  0  0  0  0
  186.0680  178.3760  141.2130 N   0  0  0  0  0  0  0  0  0  0  0  0
  181.3840  178.2930  141.6830 O   0  0  0  0  0  0  0  0  0  0  0  0
  180.1640  178.0940  142.3870 C   0  0  0  0  0  2  0  0  0  0  0  0
  179.5910  181.2770  141.9540 O   0  0  0  0  0  0  0  0  0  0  0  0
  179.4810  179.4660  140.4460 C   0  0  0  0  0  2  0  0  0  0  0  0
  179.0690  178.9710  141.8000 C   0  0  2  0  0  3  0  0  0  0  0  0
  179.4740  180.9680  140.5920 C   0  0  0  0  0  2  0  0  0  0  0  0
  178.9380  180.2320  142.6250 C   0  0  0  0  0  2  0  0  0  0  0  0
  1 18  2  0  0  0  0
  2 14  2  0  0  0  0
  2 27  1  0  0  0  0
  3  7  1  0  0  0  0
  4 15  2  0  0  0  0
  5 19  1  0  0  0  0
  6  7  1  0  0  0  0
  8 16  1  0  0  0  0
  9 13  1  0  0  0  0
 10 22  1  0  0  0  0
 11  5  2  0  0  0  0
 12  8  1  0  0  0  0
 13 20  1  0  0  0  0
 13 24  1  1  0  0  0
 14 25  1  0  0  0  0
 15 12  1  0  0  0  0
 15  5  1  0  0  0  0
 16  3  2  0  0  0  0
 17 10  2  0  0  0  0
 18  4  1  0  0  0  0
 18 20  1  0  0  0  0
 19  3  1  0  0  0  0
 19  6  1  1  0  0  0
 20 11  1  0  0  0  0
 21 23  1  0  0  0  0
 22 24  2  0  0  0  0
 23  4  1  0  0  0  0
 25  9  2  0  0  0  0
 25 17  1  0  0  0  0
 26 21  2  0  0  0  0
 26  1  1  0  0  0  0
 27  1  1  0  0  0  0
 27  9  1  0  0  0  0
 28 17  1  0  0  0  0
 28 29  1  0  0  0  0
 30 34  1  0  0  0  0
 31 33  1  0  0  0  0
 31 32  1  0  0  0  0
 32 29  1  1  0  0  0
 32 34  1  0  0  0  0
 33 30  1  0  0  0  0
M  END
>  <MODEL>
1

>  <REMARK>
 VINA RESULT:     -10.7      0.000      0.000
  Name = 
  3 active torsions:
  status: ('A' for Active; 'I' for Inactive)
    1  A    between atoms: C_17  and  O_28
    2  A    between atoms: O_28  and  C_29
    3  A    between atoms: C_29  and  C_32
                            x       y       z     vdW  Elec       q    Type
                         _______ _______ _______ _____ _____    ______ ____

>  <TORSDO>
F 3

$$$$
=
 OpenBabel11122412023D

 34 41  0  0  1  0  0  0  0  0999 V2000
  187.3630  178.1350  141.6620 C   0  0  0  0  0  0  0  0  0  0  0  0
  185.3860  178.5370  140.1820 C   0  0  0  0  0  3  0  0  0  0  0  0
  190.0630  177.3190  147.5670 C   0  0  0  0  0  0  0  0  0  0  0  0
  189.1510  177.7050  143.2680 C   0  0  0  0  0  0  0  0  0  0  0  0
  188.4840  177.3990  145.6320 C   0  0  0  0  0  0  0  0  0  0  0  0
  188.1410  177.6250  148.0770 C   0  0  0  0  0  2  0  0  0  0  0  0
  189.3840  177.9780  148.6560 O   0  0  0  0  0  0  0  0  0  0  0  0
  191.5130  176.5170  145.9110 C   0  0  0  0  0  2  0  0  0  0  0  0
  185.0270  178.3520  142.3140 C   0  0  0  0  0  0  0  0  0  0  0  0
  182.4340  179.2110  143.7020 C   0  0  0  0  0  3  0  0  0  0  0  0
  187.1890  177.5820  145.3240 C   0  0  0  0  0  3  0  0  0  0  0  0
  191.0320  177.4280  144.7890 C   0  0  0  0  0  2  0  0  0  0  0  0
  185.3120  178.1240  143.7630 C   0  0  1  0  0  3  0  0  0  0  0  0
  184.0140  178.6850  140.3750 C   0  0  0  0  0  3  0  0  0  0  0  0
  189.5340  177.4620  144.5380 C   0  0  0  0  0  0  0  0  0  0  0  0
  191.2830  177.1800  147.1800 N   0  0  0  0  0  0  0  0  0  0  0  0
  182.5090  178.6880  142.4690 C   0  0  0  0  0  0  0  0  0  0  0  0
  187.7300  177.9240  142.9400 C   0  0  0  0  0  0  0  0  0  0  0  0
  188.7600  176.8670  147.0230 C   0  0  2  0  0  3  0  0  0  0  0  0
  186.7530  177.9180  144.0010 N   0  0  0  0  0  0  0  0  0  0  0  0
  189.6700  177.9970  140.8500 C   0  0  0  0  0  3  0  0  0  0  0  0
  183.5380  179.7100  144.5560 C   0  0  0  0  0  3  0  0  0  0  0  0
  190.1050  177.7680  142.1960 N   0  0  0  0  0  2  0  0  0  0  0  0
  184.8020  179.2770  144.5710 C   0  0  0  0  0  3  0  0  0  0  0  0
  183.7990  178.5640  141.7430 C   0  0  0  0  0  0  0  0  0  0  0  0
  188.3730  178.1700  140.5810 C   0  0  0  0  0  3  0  0  0  0  0  0
  185.9770  178.3360  141.3750 N   0  0  0  0  0  0  0  0  0  0  0  0
  181.2970  178.2840  141.8910 O   0  0  0  0  0  0  0  0  0  0  0  0
  180.4870  179.1060  141.0590 C   0  0  0  0  0  2  0  0  0  0  0  0
  181.2530  177.2560  138.4820 O   0  0  0  0  0  0  0  0  0  0  0  0
  179.9080  176.8030  140.3670 C   0  0  0  0  0  2  0  0  0  0  0  0
  179.7620  178.2570  140.0270 C   0  0  2  0  0  3  0  0  0  0  0  0
  180.6000  176.2180  139.1600 C   0  0  0  0  0  2  0  0  0  0  0  0
  180.4530  178.3900  138.6890 C   0  0  0  0  0  2  0  0  0  0  0  0
  1 18  2  0  0  0  0
  2 14  2  0  0  0  0
  2 27  1  0  0  0  0
  3  7  1  0  0  0  0
  4 15  2  0  0  0  0
  5 19  1  0  0  0  0
  6  7  1  0  0  0  0
  8 16  1  0  0  0  0
  9 13  1  0  0  0  0
 10 22  1  0  0  0  0
 11  5  2  0  0  0  0
 12  8  1  0  0  0  0
 13 20  1  0  0  0  0
 13 24  1  1  0  0  0
 14 25  1  0  0  0  0
 15 12  1  0  0  0  0
 15  5  1  0  0  0  0
 16  3  2  0  0  0  0
 17 10  2  0  0  0  0
 18  4  1  0  0  0  0
 18 20  1  0  0  0  0
 19  3  1  0  0  0  0
 19  6  1  1  0  0  0
 20 11  1  0  0  0  0
 21 23  1  0  0  0  0
 22 24  2  0  0  0  0
 23  4  1  0  0  0  0
 25  9  2  0  0  0  0
 25 17  1  0  0  0  0
 26 21  2  0  0  0  0
 26  1  1  0  0  0  0
 27  1  1  0  0  0  0
 27  9  1  0  0  0  0
 28 17  1  0  0  0  0
 29 28  1  0  0  0  0
 30 34  1  0  0  0  0
 30 33  1  0  0  0  0
 32 31  1  0  0  0  0
 32 29  1  1  0  0  0
 33 31  1  0  0  0  0
 34 32  1  0  0  0  0
M  END
>  <MODEL>
2

>  <REMARK>
 VINA RESULT:     -10.3      1.084      1.656
  Name = 
  3 active torsions:
  status: ('A' for Active; 'I' for Inactive)
    1  A    between atoms: C_17  and  O_28
    2  A    between atoms: O_28  and  C_29
    3  A    between atoms: C_29  and  C_32
                            x       y       z     vdW  Elec       q    Type
                         _______ _______ _______ _____ _____    ______ ____

>  <TORSDO>
F 3

$$$$
=
 OpenBabel11122412023D

 34 41  0  0  1  0  0  0  0  0999 V2000
  190.7140  177.4500  143.0250 C   0  0  0  0  0  0  0  0  0  0  0  0
  192.4070  177.0320  141.2300 C   0  0  0  0  0  3  0  0  0  0  0  0
  184.6040  178.7230  144.9920 C   0  0  0  0  0  0  0  0  0  0  0  0
  188.9090  177.8310  144.6240 C   0  0  0  0  0  0  0  0  0  0  0  0
  186.6140  177.9770  143.7080 C   0  0  0  0  0  0  0  0  0  0  0  0
  184.3570  178.7170  142.9960 C   0  0  0  0  0  2  0  0  0  0  0  0
  183.7920  179.4640  144.0570 O   0  0  0  0  0  0  0  0  0  0  0  0
  185.8560  177.8780  146.7820 C   0  0  0  0  0  2  0  0  0  0  0  0
  190.3410  177.3030  140.6230 C   0  0  0  0  0  0  0  0  0  0  0  0
  189.4570  177.8870  137.7490 C   0  0  0  0  0  3  0  0  0  0  0  0
  187.0660  177.7890  142.4570 C   0  0  0  0  0  3  0  0  0  0  0  0
  187.2180  178.3560  146.2950 C   0  0  0  0  0  2  0  0  0  0  0  0
  188.8660  177.5060  140.7440 C   0  0  1  0  0  3  0  0  0  0  0  0
  192.3750  176.9190  139.8420 C   0  0  0  0  0  3  0  0  0  0  0  0
  187.5920  177.9980  144.8680 C   0  0  0  0  0  0  0  0  0  0  0  0
  184.8360  178.7650  146.2580 N   0  0  0  0  0  0  0  0  0  0  0  0
  190.4930  177.1060  138.0910 C   0  0  0  0  0  0  0  0  0  0  0  0
  189.4000  177.6450  143.2460 C   0  0  1  0  0  3  0  0  0  0  0  0
  185.1120  177.8780  143.8860 C   0  0  2  0  0  3  0  0  0  0  0  0
  188.4620  177.6860  142.1510 N   0  0  0  0  0  0  0  0  0  0  0  0
  191.2630  177.6260  145.4060 C   0  0  0  0  0  3  0  0  0  0  0  0
  188.6800  178.8090  138.6090 C   0  0  0  0  0  3  0  0  0  0  0  0
  189.8750  177.8360  145.6870 N   0  0  0  0  0  0  0  0  0  0  0  0
  188.4430  178.6820  139.9180 C   0  0  0  0  0  3  0  0  0  0  0  0
  191.0480  177.0930  139.4680 C   0  0  0  0  0  0  0  0  0  0  0  0
  191.6770  177.4390  144.1490 C   0  0  0  0  0  3  0  0  0  0  0  0
  191.1590  177.2650  141.6790 N   0  0  0  0  0  0  0  0  0  0  0  0
  191.0390  176.3160  137.0690 O   0  0  0  0  0  0  0  0  0  0  0  0
  191.2690  174.9160  137.1680 C   0  0  0  0  0  2  0  0  0  0  0  0
  194.3010  176.1200  137.1200 O   0  0  0  0  0  0  0  0  0  0  0  0
  193.5060  173.9500  137.5920 C   0  0  0  0  0  2  0  0  0  0  0  0
  192.6130  174.5590  136.5520 C   0  0  2  0  0  3  0  0  0  0  0  0
  194.6950  174.8770  137.6350 C   0  0  0  0  0  2  0  0  0  0  0  0
  193.3340  175.8250  136.1480 C   0  0  0  0  0  2  0  0  0  0  0  0
  1 26  2  0  0  0  0
  2 27  1  0  0  0  0
  3 16  2  0  0  0  0
  4 15  2  0  0  0  0
  4 23  1  0  0  0  0
  5 19  1  0  0  0  0
  5 15  1  0  0  0  0
  6  7  1  0  0  0  0
  7  3  1  0  0  0  0
  9 13  1  0  0  0  0
  9 27  1  0  0  0  0
 10 17  2  0  0  0  0
 10 22  1  0  0  0  0
 11  5  2  0  0  0  0
 12  8  1  0  0  0  0
 13 24  1  6  0  0  0
 13 20  1  0  0  0  0
 14  2  2  0  0  0  0
 15 12  1  0  0  0  0
 16  8  1  0  0  0  0
 17 25  1  0  0  0  0
 18  1  1  6  0  0  0
 18  4  1  0  0  0  0
 19  6  1  6  0  0  0
 19  3  1  0  0  0  0
 20 11  1  0  0  0  0
 20 18  1  0  0  0  0
 21 23  2  0  0  0  0
 22 24  2  0  0  0  0
 25 14  1  0  0  0  0
 25  9  2  0  0  0  0
 26 21  1  0  0  0  0
 27  1  1  0  0  0  0
 28 29  1  0  0  0  0
 28 17  1  0  0  0  0
 30 33  1  0  0  0  0
 31 33  1  0  0  0  0
 32 29  1  1  0  0  0
 32 31  1  0  0  0  0
 34 32  1  0  0  0  0
 34 30  1  0  0  0  0
M  END
>  <MODEL>
3

>  <REMARK>
 VINA RESULT:      -9.5      4.033      8.468
  Name = 
  3 active torsions:
  status: ('A' for Active; 'I' for Inactive)
    1  A    between atoms: C_17  and  O_28
    2  A    between atoms: O_28  and  C_29
    3  A    between atoms: C_29  and  C_32
                            x       y       z     vdW  Elec       q    Type
                         _______ _______ _______ _____ _____    ______ ____

>  <TORSDO>
F 3

$$$$
=
 OpenBabel11122412023D

 34 41  0  0  1  0  0  0  0  0999 V2000
  190.1910  177.3980  143.6820 C   0  0  0  0  0  0  0  0  0  0  0  0
  192.0560  176.8840  142.0950 C   0  0  0  0  0  3  0  0  0  0  0  0
  183.9600  178.9530  144.9350 C   0  0  0  0  0  0  0  0  0  0  0  0
  188.2360  177.8760  145.0630 C   0  0  0  0  0  0  0  0  0  0  0  0
  186.0670  178.1050  143.8930 C   0  0  0  0  0  0  0  0  0  0  0  0
  183.9380  178.9280  142.9230 C   0  0  0  0  0  2  0  0  0  0  0  0
  183.2910  179.7130  143.9070 O   0  0  0  0  0  0  0  0  0  0  0  0
  184.9650  178.0810  146.8620 C   0  0  0  0  0  2  0  0  0  0  0  0
  190.0850  177.2320  141.2560 C   0  0  0  0  0  0  0  0  0  0  0  0
  189.5560  177.8110  138.2940 C   0  0  0  0  0  3  0  0  0  0  0  0
  186.6490  177.8810  142.7020 C   0  0  0  0  0  3  0  0  0  0  0  0
  186.3920  178.4960  146.5280 C   0  0  0  0  0  2  0  0  0  0  0  0
  188.6160  177.4990  141.2070 C   0  0  1  0  0  3  0  0  0  0  0  0
  192.1760  176.7520  140.7130 C   0  0  0  0  0  3  0  0  0  0  0  0
  186.9090  178.1020  145.1550 C   0  0  0  0  0  0  0  0  0  0  0  0
  184.0490  179.0020  146.2180 N   0  0  0  0  0  0  0  0  0  0  0  0
  190.5120  176.9930  138.7580 C   0  0  0  0  0  0  0  0  0  0  0  0
  188.8710  177.6510  143.7520 C   0  0  1  0  0  3  0  0  0  0  0  0
  184.5520  178.0710  143.9010 C   0  0  2  0  0  3  0  0  0  0  0  0
  188.0650  177.7150  142.5580 N   0  0  0  0  0  0  0  0  0  0  0  0
  190.4770  177.5850  146.1080 C   0  0  0  0  0  3  0  0  0  0  0  0
  188.7270  178.7780  139.0520 C   0  0  0  0  0  3  0  0  0  0  0  0
  189.0760  177.8570  146.2290 N   0  0  0  0  0  0  0  0  0  0  0  0
  188.3390  178.6790  140.3270 C   0  0  0  0  0  3  0  0  0  0  0  0
  190.9080  176.9770  140.1890 C   0  0  0  0  0  0  0  0  0  0  0  0
  191.0200  177.3630  144.9080 C   0  0  0  0  0  3  0  0  0  0  0  0
  190.7760  177.1750  142.3970 N   0  0  0  0  0  0  0  0  0  0  0  0
  191.1350  176.1670  137.8120 O   0  0  0  0  0  0  0  0  0  0  0  0
  190.9690  176.2860  136.4040 C   0  0  0  0  0  2  0  0  0  0  0  0
  189.9180  173.4020  137.5120 O   0  0  0  0  0  0  0  0  0  0  0  0
  188.9380  174.9310  136.0060 C   0  0  0  0  0  2  0  0  0  0  0  0
  190.4260  174.9880  135.8270 C   0  0  2  0  0  3  0  0  0  0  0  0
  188.7220  173.6940  136.8430 C   0  0  0  0  0  2  0  0  0  0  0  0
  190.9370  173.8220  136.6430 C   0  0  0  0  0  2  0  0  0  0  0  0
  1 26  2  0  0  0  0
  2 27  1  0  0  0  0
  3 16  2  0  0  0  0
  4 15  2  0  0  0  0
  4 23  1  0  0  0  0
  5 19  1  0  0  0  0
  5 15  1  0  0  0  0
  6  7  1  0  0  0  0
  7  3  1  0  0  0  0
  9 27  1  0  0  0  0
 10 17  2  0  0  0  0
 10 22  1  0  0  0  0
 11  5  2  0  0  0  0
 12  8  1  0  0  0  0
 13 24  1  6  0  0  0
 13  9  1  0  0  0  0
 13 20  1  0  0  0  0
 14  2  2  0  0  0  0
 15 12  1  0  0  0  0
 16  8  1  0  0  0  0
 17 25  1  0  0  0  0
 18  1  1  6  0  0  0
 18  4  1  0  0  0  0
 19  6  1  6  0  0  0
 19  3  1  0  0  0  0
 20 11  1  0  0  0  0
 20 18  1  0  0  0  0
 21 23  2  0  0  0  0
 22 24  2  0  0  0  0
 25 14  1  0  0  0  0
 25  9  2  0  0  0  0
 26 21  1  0  0  0  0
 27  1  1  0  0  0  0
 28 17  1  0  0  0  0
 29 28  1  0  0  0  0
 31 33  1  0  0  0  0
 32 31  1  0  0  0  0
 32 29  1  1  0  0  0
 32 34  1  0  0  0  0
 33 30  1  0  0  0  0
 34 30  1  0  0  0  0
M  END
>  <MODEL>
4

>  <REMARK>
 VINA RESULT:      -9.5      3.745      7.787
  Name = 
  3 active torsions:
  status: ('A' for Active; 'I' for Inactive)
    1  A    between atoms: C_17  and  O_28
    2  A    between atoms: O_28  and  C_29
    3  A    between atoms: C_29  and  C_32
                            x       y       z     vdW  Elec       q    Type
                         _______ _______ _______ _____ _____    ______ ____

>  <TORSDO>
F 3

$$$$
=
 OpenBabel11122412023D

 34 41  0  0  1  0  0  0  0  0999 V2000
  189.6960  177.6480  141.5910 C   0  0  0  0  0  0  0  0  0  0  0  0
  189.6810  177.5810  139.0890 C   0  0  0  0  0  3  0  0  0  0  0  0
  186.6480  178.2030  147.3540 C   0  0  0  0  0  0  0  0  0  0  0  0
  189.4940  177.6920  144.0230 C   0  0  0  0  0  0  0  0  0  0  0  0
  187.2030  177.7740  144.9560 C   0  0  0  0  0  0  0  0  0  0  0  0
  185.0960  178.4220  146.0910 C   0  0  0  0  0  2  0  0  0  0  0  0
  185.4370  178.9890  147.3430 O   0  0  0  0  0  0  0  0  0  0  0  0
  188.7610  177.2430  147.6620 C   0  0  0  0  0  2  0  0  0  0  0  0
  187.7720  177.7670  140.1040 C   0  0  0  0  0  0  0  0  0  0  0  0
  185.1730  178.6290  138.7310 C   0  0  0  0  0  3  0  0  0  0  0  0
  186.6670  177.7760  143.7240 C   0  0  0  0  0  3  0  0  0  0  0  0
  189.4300  177.8790  146.4500 C   0  0  0  0  0  2  0  0  0  0  0  0
  186.7890  177.8410  141.2270 C   0  0  1  0  0  3  0  0  0  0  0  0
  188.7020  177.6370  138.1010 C   0  0  0  0  0  3  0  0  0  0  0  0
  188.7110  177.7280  145.1210 C   0  0  0  0  0  0  0  0  0  0  0  0
  187.6860  178.1070  148.1090 N   0  0  0  0  0  0  0  0  0  0  0  0
  186.1370  177.8930  138.1580 C   0  0  0  0  0  0  0  0  0  0  0  0
  188.9000  177.7140  142.6740 C   0  0  1  0  0  3  0  0  0  0  0  0
  186.2320  177.5400  146.0950 C   0  0  2  0  0  3  0  0  0  0  0  0
  187.4680  177.8170  142.5370 N   0  0  0  0  0  0  0  0  0  0  0  0
  191.7360  177.5720  142.9460 C   0  0  0  0  0  3  0  0  0  0  0  0
  185.2260  179.3780  140.0080 C   0  0  0  0  0  3  0  0  0  0  0  0
  190.9270  177.6410  144.1260 N   0  0  0  0  0  0  0  0  0  0  0  0
  185.9490  179.0740  141.0900 C   0  0  0  0  0  3  0  0  0  0  0  0
  187.4860  177.7540  138.7630 C   0  0  0  0  0  0  0  0  0  0  0  0
  191.1670  177.5720  141.7370 C   0  0  0  0  0  3  0  0  0  0  0  0
  189.0900  177.6620  140.2970 N   0  0  0  0  0  0  0  0  0  0  0  0
  185.8090  177.2780  136.9420 O   0  0  0  0  0  0  0  0  0  0  0  0
  185.8020  175.8720  136.7260 C   0  0  0  0  0  2  0  0  0  0  0  0
  182.9620  175.8860  138.3340 O   0  0  0  0  0  0  0  0  0  0  0  0
  183.4940  176.5320  136.1280 C   0  0  0  0  0  2  0  0  0  0  0  0
  184.3790  175.3810  136.5040 C   0  0  2  0  0  3  0  0  0  0  0  0
  182.4460  176.5510  137.2140 C   0  0  0  0  0  2  0  0  0  0  0  0
  183.8050  174.8920  137.8150 C   0  0  0  0  0  2  0  0  0  0  0  0
  1 26  2  0  0  0  0
  2 27  1  0  0  0  0
  3 16  2  0  0  0  0
  4 23  1  0  0  0  0
  4 15  2  0  0  0  0
  5 15  1  0  0  0  0
  5 19  1  0  0  0  0
  6  7  1  0  0  0  0
  7  3  1  0  0  0  0
  8 16  1  0  0  0  0
  9 27  1  0  0  0  0
  9 13  1  0  0  0  0
 10 22  1  0  0  0  0
 11  5  2  0  0  0  0
 12  8  1  0  0  0  0
 13 24  1  6  0  0  0
 13 20  1  0  0  0  0
 14 25  1  0  0  0  0
 14  2  2  0  0  0  0
 15 12  1  0  0  0  0
 17 10  2  0  0  0  0
 17 25  1  0  0  0  0
 18  1  1  6  0  0  0
 18  4  1  0  0  0  0
 19  6  1  6  0  0  0
 19  3  1  0  0  0  0
 20 18  1  0  0  0  0
 20 11  1  0  0  0  0
 21 23  2  0  0  0  0
 22 24  2  0  0  0  0
 25  9  2  0  0  0  0
 26 21  1  0  0  0  0
 27  1  1  0  0  0  0
 28 17  1  0  0  0  0
 29 28  1  0  0  0  0
 31 32  1  0  0  0  0
 31 33  1  0  0  0  0
 32 29  1  1  0  0  0
 32 34  1  0  0  0  0
 33 30  1  0  0  0  0
 34 30  1  0  0  0  0
M  END
>  <MODEL>
5

>  <REMARK>
 VINA RESULT:      -9.2      3.247      4.570
  Name = 
  3 active torsions:
  status: ('A' for Active; 'I' for Inactive)
    1  A    between atoms: C_17  and  O_28
    2  A    between atoms: O_28  and  C_29
    3  A    between atoms: C_29  and  C_32
                            x       y       z     vdW  Elec       q    Type
                         _______ _______ _______ _____ _____    ______ ____

>  <TORSDO>
F 3

$$$$
=
 OpenBabel11122412023D

 34 41  0  0  1  0  0  0  0  0999 V2000
  188.4290  177.7250  139.0940 C   0  0  0  0  0  0  0  0  0  0  0  0
  187.1660  178.3320  141.1680 C   0  0  0  0  0  3  0  0  0  0  0  0
  193.7270  175.3680  136.0610 C   0  0  0  0  0  0  0  0  0  0  0  0
  189.8000  177.0250  137.1990 C   0  0  0  0  0  0  0  0  0  0  0  0
  191.9290  175.8750  137.7210 C   0  0  0  0  0  0  0  0  0  0  0  0
  194.3110  175.2380  137.9820 C   0  0  0  0  0  2  0  0  0  0  0  0
  194.9740  175.5380  136.7670 O   0  0  0  0  0  0  0  0  0  0  0  0
  191.8990  175.3500  134.5980 C   0  0  0  0  0  2  0  0  0  0  0  0
  189.1170  177.4110  141.4080 C   0  0  0  0  0  0  0  0  0  0  0  0
  190.7120  177.4230  144.0240 C   0  0  0  0  0  3  0  0  0  0  0  0
  191.6990  175.9800  139.0410 C   0  0  0  0  0  3  0  0  0  0  0  0
  191.1420  176.5090  135.2340 C   0  0  0  0  0  2  0  0  0  0  0  0
  190.4080  176.7580  141.0350 C   0  0  0  0  0  0  0  0  0  0  0  0
  187.3990  178.2300  142.5370 C   0  0  0  0  0  3  0  0  0  0  0  0
  190.9180  176.4300  136.7340 C   0  0  0  0  0  0  0  0  0  0  0  0
  193.3160  175.5220  134.8510 N   0  0  0  0  0  0  0  0  0  0  0  0
  189.3750  177.3490  143.9390 C   0  0  0  0  0  0  0  0  0  0  0  0
  189.5640  177.1540  138.6490 C   0  0  0  0  0  0  0  0  0  0  0  0
  193.0650  174.9560  137.3220 C   0  0  2  0  0  3  0  0  0  0  0  0
  190.5630  176.6730  139.5710 N   0  0  0  0  0  0  0  0  0  0  0  0
  187.6160  178.1610  136.8240 C   0  0  0  0  0  3  0  0  0  0  0  0
  191.6830  177.7510  142.9530 C   0  0  0  0  0  3  0  0  0  0  0  0
  188.8090  177.5600  136.3070 N   0  0  0  0  0  2  0  0  0  0  0  0
  191.5540  177.5050  141.6460 C   0  0  0  0  0  3  0  0  0  0  0  0
  188.6490  177.6390  142.6770 C   0  0  2  0  0  3  0  0  0  0  0  0
  187.4200  178.2440  138.1430 C   0  0  0  0  0  3  0  0  0  0  0  0
  188.2250  177.8280  140.5050 N   0  0  0  0  0  0  0  0  0  0  0  0
  188.6970  177.0040  145.1170 O   0  0  0  0  0  0  0  0  0  0  0  0
  188.4720  177.8910  146.2070 C   0  0  0  0  0  2  0  0  0  0  0  0
  185.7860  179.4620  147.1890 O   0  0  0  0  0  0  0  0  0  0  0  0
  186.0490  177.5100  145.8900 C   0  0  0  0  0  2  0  0  0  0  0  0
  187.1600  177.5540  146.8970 C   0  0  2  0  0  3  0  0  0  0  0  0
  185.0850  178.5670  146.3700 C   0  0  0  0  0  2  0  0  0  0  0  0
  186.7710  178.6870  147.8200 C   0  0  0  0  0  2  0  0  0  0  0  0
  1 27  1  0  0  0  0
  2 14  2  0  0  0  0
  3  7  1  0  0  0  0
  3 19  1  0  0  0  0
  4 18  1  0  0  0  0
  5 11  2  0  0  0  0
  7  6  1  0  0  0  0
  8 16  1  0  0  0  0
  8 12  1  0  0  0  0
  9 25  1  0  0  0  0
 11 20  1  0  0  0  0
 12 15  1  0  0  0  0
 13  9  2  0  0  0  0
 13 24  1  0  0  0  0
 15  4  2  0  0  0  0
 15  5  1  0  0  0  0
 16  3  2  0  0  0  0
 17 10  2  0  0  0  0
 17 28  1  0  0  0  0
 18  1  2  0  0  0  0
 18 20  1  0  0  0  0
 19  5  1  0  0  0  0
 19  6  1  1  0  0  0
 20 13  1  0  0  0  0
 21 26  2  0  0  0  0
 22 10  1  0  0  0  0
 23 21  1  0  0  0  0
 23  4  1  0  0  0  0
 24 22  2  0  0  0  0
 25 14  1  6  0  0  0
 25 17  1  0  0  0  0
 26  1  1  0  0  0  0
 27  2  1  0  0  0  0
 27  9  1  0  0  0  0
 28 29  1  0  0  0  0
 30 34  1  0  0  0  0
 31 33  1  0  0  0  0
 31 32  1  0  0  0  0
 32 29  1  6  0  0  0
 32 34  1  0  0  0  0
 33 30  1  0  0  0  0
M  END
>  <MODEL>
6

>  <REMARK>
 VINA RESULT:      -9.2      4.303      8.047
  Name = 
  3 active torsions:
  status: ('A' for Active; 'I' for Inactive)
    1  A    between atoms: C_17  and  O_28
    2  A    between atoms: O_28  and  C_29
    3  A    between atoms: C_29  and  C_32
                            x       y       z     vdW  Elec       q    Type
                         _______ _______ _______ _____ _____    ______ ____

>  <TORSDO>
F 3

$$$$
=
 OpenBabel11122412023D

 34 41  0  0  1  0  0  0  0  0999 V2000
  189.7340  177.6310  141.6250 C   0  0  0  0  0  0  0  0  0  0  0  0
  189.7390  177.5590  139.1230 C   0  0  0  0  0  3  0  0  0  0  0  0
  186.6410  178.2130  147.3620 C   0  0  0  0  0  0  0  0  0  0  0  0
  189.5120  177.6820  144.0550 C   0  0  0  0  0  0  0  0  0  0  0  0
  187.2140  177.7760  144.9690 C   0  0  0  0  0  0  0  0  0  0  0  0
  185.1010  178.4350  146.0860 C   0  0  0  0  0  2  0  0  0  0  0  0
  185.4340  179.0040  147.3390 O   0  0  0  0  0  0  0  0  0  0  0  0
  188.7480  177.2450  147.6890 C   0  0  0  0  0  2  0  0  0  0  0  0
  187.8220  177.7540  140.1220 C   0  0  0  0  0  0  0  0  0  0  0  0
  185.2370  178.6230  138.7260 C   0  0  0  0  0  3  0  0  0  0  0  0
  186.6880  177.7770  143.7330 C   0  0  0  0  0  3  0  0  0  0  0  0
  189.4290  177.8760  146.4810 C   0  0  0  0  0  2  0  0  0  0  0  0
  186.8310  177.8360  141.2370 C   0  0  1  0  0  3  0  0  0  0  0  0
  188.7680  177.6150  138.1270 C   0  0  0  0  0  3  0  0  0  0  0  0
  188.7200  177.7240  145.1470 C   0  0  0  0  0  0  0  0  0  0  0  0
  187.6730  178.1150  148.1250 N   0  0  0  0  0  0  0  0  0  0  0  0
  186.2030  177.8820  138.1630 C   0  0  0  0  0  0  0  0  0  0  0  0
  188.9290  177.7030  142.7020 C   0  0  1  0  0  3  0  0  0  0  0  0
  186.2330  177.5490  146.1010 C   0  0  2  0  0  3  0  0  0  0  0  0
  187.4990  177.8120  142.5520 N   0  0  0  0  0  0  0  0  0  0  0  0
  191.7620  177.5510  142.9970 C   0  0  0  0  0  3  0  0  0  0  0  0
  185.2830  179.3750  140.0020 C   0  0  0  0  0  3  0  0  0  0  0  0
  190.9440  177.6250  144.1700 N   0  0  0  0  0  0  0  0  0  0  0  0
  185.9970  179.0710  141.0900 C   0  0  0  0  0  3  0  0  0  0  0  0
  187.5460  177.7400  138.7790 C   0  0  0  0  0  0  0  0  0  0  0  0
  191.2030  177.5500  141.7830 C   0  0  0  0  0  3  0  0  0  0  0  0
  189.1380  177.6450  140.3260 N   0  0  0  0  0  0  0  0  0  0  0  0
  185.8820  177.2660  136.9450 O   0  0  0  0  0  0  0  0  0  0  0  0
  184.9010  176.2470  136.7920 C   0  0  0  0  0  2  0  0  0  0  0  0
  187.8790  175.1680  136.0080 O   0  0  0  0  0  0  0  0  0  0  0  0
  186.1310  174.1440  137.2180 C   0  0  0  0  0  2  0  0  0  0  0  0
  185.5200  175.0110  136.1580 C   0  0  2  0  0  3  0  0  0  0  0  0
  187.5870  174.0700  136.8290 C   0  0  0  0  0  2  0  0  0  0  0  0
  186.6950  175.4210  135.2990 C   0  0  0  0  0  2  0  0  0  0  0  0
  1 26  2  0  0  0  0
  2 27  1  0  0  0  0
  3 16  2  0  0  0  0
  4 23  1  0  0  0  0
  4 15  2  0  0  0  0
  5 15  1  0  0  0  0
  5 19  1  0  0  0  0
  6  7  1  0  0  0  0
  7  3  1  0  0  0  0
  8 16  1  0  0  0  0
  9 27  1  0  0  0  0
  9 13  1  0  0  0  0
 10 22  1  0  0  0  0
 11  5  2  0  0  0  0
 12  8  1  0  0  0  0
 13 24  1  6  0  0  0
 13 20  1  0  0  0  0
 14 25  1  0  0  0  0
 14  2  2  0  0  0  0
 15 12  1  0  0  0  0
 17 10  2  0  0  0  0
 17 25  1  0  0  0  0
 18  1  1  6  0  0  0
 18  4  1  0  0  0  0
 19  6  1  6  0  0  0
 19  3  1  0  0  0  0
 20 18  1  0  0  0  0
 20 11  1  0  0  0  0
 21 23  2  0  0  0  0
 22 24  2  0  0  0  0
 25  9  2  0  0  0  0
 26 21  1  0  0  0  0
 27  1  1  0  0  0  0
 28 17  1  0  0  0  0
 29 28  1  0  0  0  0
 30 33  1  0  0  0  0
 32 29  1  1  0  0  0
 32 31  1  0  0  0  0
 33 31  1  0  0  0  0
 34 30  1  0  0  0  0
 34 32  1  0  0  0  0
M  END
>  <MODEL>
7

>  <REMARK>
 VINA RESULT:      -9.2      3.471      5.426
  Name = 
  3 active torsions:
  status: ('A' for Active; 'I' for Inactive)
    1  A    between atoms: C_17  and  O_28
    2  A    between atoms: O_28  and  C_29
    3  A    between atoms: C_29  and  C_32
                            x       y       z     vdW  Elec       q    Type
                         _______ _______ _______ _____ _____    ______ ____

>  <TORSDO>
F 3

$$$$
=
 OpenBabel11122412023D

 34 41  0  0  1  0  0  0  0  0999 V2000
  184.1530  178.6010  144.4580 C   0  0  0  0  0  0  0  0  0  0  0  0
  181.6920  179.0050  144.2520 C   0  0  0  0  0  3  0  0  0  0  0  0
  190.0380  177.4550  141.8360 C   0  0  0  0  0  0  0  0  0  0  0  0
  186.5680  178.2420  144.4430 C   0  0  0  0  0  0  0  0  0  0  0  0
  187.6770  178.1700  142.2320 C   0  0  0  0  0  0  0  0  0  0  0  0
  188.8970  177.4990  140.1800 C   0  0  0  0  0  2  0  0  0  0  0  0
  190.0310  176.7500  140.5770 O   0  0  0  0  0  0  0  0  0  0  0  0
  190.2840  178.2400  144.0280 C   0  0  0  0  0  2  0  0  0  0  0  0
  182.8360  178.7960  142.4200 C   0  0  0  0  0  0  0  0  0  0  0  0
  181.5920  178.2810  139.6680 C   0  0  0  0  0  3  0  0  0  0  0  0
  186.5060  178.3650  141.6020 C   0  0  0  0  0  3  0  0  0  0  0  0
  188.9470  177.7340  144.5550 C   0  0  0  0  0  2  0  0  0  0  0  0
  184.0200  178.6290  141.5250 C   0  0  0  0  0  0  0  0  0  0  0  0
  180.7930  179.1400  143.1970 C   0  0  0  0  0  3  0  0  0  0  0  0
  187.7160  178.1050  143.7470 C   0  0  0  0  0  0  0  0  0  0  0  0
  190.7060  177.3880  142.9350 N   0  0  0  0  0  0  0  0  0  0  0  0
  181.0380  179.0290  140.6330 C   0  0  0  0  0  0  0  0  0  0  0  0
  185.2840  178.4370  143.7450 C   0  0  1  0  0  3  0  0  0  0  0  0
  188.9160  178.3040  141.3710 C   0  0  2  0  0  3  0  0  0  0  0  0
  185.2580  178.4370  142.3030 N   0  0  0  0  0  0  0  0  0  0  0  0
  185.3260  178.3740  146.5970 C   0  0  0  0  0  3  0  0  0  0  0  0
  182.7530  177.3650  139.7680 C   0  0  0  0  0  3  0  0  0  0  0  0
  186.5520  178.1950  145.8790 N   0  0  0  0  0  0  0  0  0  0  0  0
  183.7980  177.4770  140.5930 C   0  0  0  0  0  3  0  0  0  0  0  0
  181.5380  179.0060  142.0310 C   0  0  2  0  0  3  0  0  0  0  0  0
  184.1800  178.5710  145.9370 C   0  0  0  0  0  3  0  0  0  0  0  0
  182.9260  178.7970  143.7530 N   0  0  0  0  0  0  0  0  0  0  0  0
  179.9440  179.8200  140.2550 O   0  0  0  0  0  0  0  0  0  0  0  0
  180.0110  181.2190  140.0020 C   0  0  0  0  0  2  0  0  0  0  0  0
  179.9110  183.7710  137.9710 O   0  0  0  0  0  0  0  0  0  0  0  0
  181.5100  182.0540  138.2210 C   0  0  0  0  0  2  0  0  0  0  0  0
  180.1560  181.4770  138.5100 C   0  0  2  0  0  3  0  0  0  0  0  0
  181.2060  183.3920  137.5910 C   0  0  0  0  0  2  0  0  0  0  0  0
  179.1970  182.5690  138.0930 C   0  0  0  0  0  2  0  0  0  0  0  0
  1 26  2  0  0  0  0
  3 16  2  0  0  0  0
  4 23  1  0  0  0  0
  5 15  1  0  0  0  0
  6  7  1  0  0  0  0
  7  3  1  0  0  0  0
  8 12  1  0  0  0  0
  9 27  1  0  0  0  0
 10 22  1  0  0  0  0
 10 17  2  0  0  0  0
 11  5  2  0  0  0  0
 11 20  1  0  0  0  0
 13 20  1  0  0  0  0
 13  9  2  0  0  0  0
 14  2  2  0  0  0  0
 15  4  2  0  0  0  0
 15 12  1  0  0  0  0
 16  8  1  0  0  0  0
 17 25  1  0  0  0  0
 18  4  1  1  0  0  0
 18  1  1  0  0  0  0
 19  6  1  6  0  0  0
 19  3  1  0  0  0  0
 19  5  1  0  0  0  0
 20 18  1  0  0  0  0
 22 24  2  0  0  0  0
 23 21  2  0  0  0  0
 24 13  1  0  0  0  0
 25  9  1  0  0  0  0
 25 14  1  1  0  0  0
 26 21  1  0  0  0  0
 27  2  1  0  0  0  0
 27  1  1  0  0  0  0
 28 17  1  0  0  0  0
 29 28  1  0  0  0  0
 30 34  1  0  0  0  0
 31 32  1  0  0  0  0
 32 29  1  1  0  0  0
 33 30  1  0  0  0  0
 33 31  1  0  0  0  0
 34 32  1  0  0  0  0
M  END
>  <MODEL>
8

>  <REMARK>
 VINA RESULT:      -9.0      2.411      4.532
  Name = 
  3 active torsions:
  status: ('A' for Active; 'I' for Inactive)
    1  A    between atoms: C_17  and  O_28
    2  A    between atoms: O_28  and  C_29
    3  A    between atoms: C_29  and  C_32
                            x       y       z     vdW  Elec       q    Type
                         _______ _______ _______ _____ _____    ______ ____

>  <TORSDO>
F 3

$$$$
=
 OpenBabel11122412023D

 34 41  0  0  1  0  0  0  0  0999 V2000
  185.6540  178.4380  142.3940 C   0  0  0  0  0  0  0  0  0  0  0  0
  185.1970  178.6650  139.9440 C   0  0  0  0  0  3  0  0  0  0  0  0
  189.6800  177.2610  147.4170 C   0  0  0  0  0  0  0  0  0  0  0  0
  186.3110  178.2210  144.7350 C   0  0  0  0  0  0  0  0  0  0  0  0
  188.7200  177.8890  145.1970 C   0  0  0  0  0  0  0  0  0  0  0  0
  190.9340  176.9970  145.8660 C   0  0  0  0  0  2  0  0  0  0  0  0
  190.7870  176.3800  147.1320 O   0  0  0  0  0  0  0  0  0  0  0  0
  187.7640  178.3710  148.1770 C   0  0  0  0  0  2  0  0  0  0  0  0
  187.2390  178.2570  140.5560 C   0  0  0  0  0  0  0  0  0  0  0  0
  189.4370  177.2730  138.6610 C   0  0  0  0  0  3  0  0  0  0  0  0
  189.0080  177.9220  143.8840 C   0  0  0  0  0  3  0  0  0  0  0  0
  186.8190  177.8720  147.0910 C   0  0  0  0  0  2  0  0  0  0  0  0
  188.4060  178.0280  141.4600 C   0  0  1  0  0  3  0  0  0  0  0  0
  185.9610  178.5930  138.7810 C   0  0  0  0  0  3  0  0  0  0  0  0
  187.2820  178.0490  145.6560 C   0  0  0  0  0  0  0  0  0  0  0  0
  188.8180  177.3940  148.3630 N   0  0  0  0  0  0  0  0  0  0  0  0
  188.4540  178.1220  138.3230 C   0  0  0  0  0  0  0  0  0  0  0  0
  186.6320  178.2370  143.2960 C   0  0  1  0  0  3  0  0  0  0  0  0
  189.9080  177.9670  146.1330 C   0  0  2  0  0  3  0  0  0  0  0  0
  187.9950  178.0240  142.8770 N   0  0  0  0  0  0  0  0  0  0  0  0
  183.9260  178.5950  144.1240 C   0  0  0  0  0  3  0  0  0  0  0  0
  189.5580  176.4500  139.8870 C   0  0  0  0  0  3  0  0  0  0  0  0
  184.9350  178.3840  145.1190 N   0  0  0  0  0  0  0  0  0  0  0  0
  189.0860  176.7420  141.1030 C   0  0  0  0  0  3  0  0  0  0  0  0
  187.2650  178.3320  139.1870 C   0  0  0  0  0  0  0  0  0  0  0  0
  184.2510  178.6260  142.8290 C   0  0  0  0  0  3  0  0  0  0  0  0
  185.9980  178.4570  141.0070 N   0  0  0  0  0  0  0  0  0  0  0  0
  188.6000  178.7850  137.0970 O   0  0  0  0  0  0  0  0  0  0  0  0
  189.3140  178.2660  135.9810 C   0  0  0  0  0  2  0  0  0  0  0  0
  187.0760  175.8900  135.9770 O   0  0  0  0  0  0  0  0  0  0  0  0
  186.9590  178.1280  135.2380 C   0  0  0  0  0  2  0  0  0  0  0  0
  188.3510  177.6270  134.9920 C   0  0  2  0  0  3  0  0  0  0  0  0
  186.1760  176.8770  135.5530 C   0  0  0  0  0  2  0  0  0  0  0  0
  188.2590  176.1430  135.2660 C   0  0  0  0  0  2  0  0  0  0  0  0
  1 26  2  0  0  0  0
  2 27  1  0  0  0  0
  3 16  2  0  0  0  0
  4 23  1  0  0  0  0
  4 15  2  0  0  0  0
  5 15  1  0  0  0  0
  5 19  1  0  0  0  0
  6  7  1  0  0  0  0
  7  3  1  0  0  0  0
  8 16  1  0  0  0  0
  9 27  1  0  0  0  0
  9 13  1  0  0  0  0
 10 22  1  0  0  0  0
 11  5  2  0  0  0  0
 12  8  1  0  0  0  0
 13 24  1  6  0  0  0
 13 20  1  0  0  0  0
 14 25  1  0  0  0  0
 14  2  2  0  0  0  0
 15 12  1  0  0  0  0
 17 10  2  0  0  0  0
 17 25  1  0  0  0  0
 18  1  1  6  0  0  0
 18  4  1  0  0  0  0
 19  6  1  6  0  0  0
 19  3  1  0  0  0  0
 20 18  1  0  0  0  0
 20 11  1  0  0  0  0
 21 23  2  0  0  0  0
 22 24  2  0  0  0  0
 25  9  2  0  0  0  0
 26 21  1  0  0  0  0
 27  1  1  0  0  0  0
 28 17  1  0  0  0  0
 29 28  1  0  0  0  0
 31 33  1  0  0  0  0
 32 31  1  0  0  0  0
 32 34  1  0  0  0  0
 32 29  1  1  0  0  0
 33 30  1  0  0  0  0
 34 30  1  0  0  0  0
M  END
>  <MODEL>
9

>  <REMARK>
 VINA RESULT:      -9.0      3.290      6.113
  Name = 
  3 active torsions:
  status: ('A' for Active; 'I' for Inactive)
    1  A    between atoms: C_17  and  O_28
    2  A    between atoms: O_28  and  C_29
    3  A    between atoms: C_29  and  C_32
                            x       y       z     vdW  Elec       q    Type
                         _______ _______ _______ _____ _____    ______ ____

>  <TORSDO>
F 3

$$$$
