=
 OpenBabel11122411083D

 31 35  0  0  1  0  0  0  0  0999 V2000
  189.1570  177.9760  141.5180 C   0  0  0  0  0  0  0  0  0  0  0  0
  186.0420  178.2500  143.4840 C   0  0  0  0  0  0  0  0  0  0  0  0
  186.4660  178.1850  144.9070 C   0  0  0  0  0  0  0  0  0  0  0  0
  187.9290  177.4340  146.6940 C   0  0  0  0  0  0  0  0  0  0  0  0
  186.8890  178.2530  142.4300 C   0  0  0  0  0  0  0  0  0  0  0  0
  188.6720  178.3010  140.1300 C   0  0  0  0  0  2  0  0  0  0  0  0
  187.5910  177.4690  145.3390 C   0  0  0  0  0  3  0  0  0  0  0  0
  184.1100  178.5130  141.8600 C   0  0  0  0  0  0  0  0  0  0  0  0
  190.6060  177.7270  141.7350 C   0  0  0  0  0  1  0  0  0  0  0  0
  184.5170  179.5580  145.4560 O   0  0  0  0  0  0  0  0  0  0  0  0
  189.1280  176.6770  147.1400 C   0  0  0  0  0  1  0  0  0  0  0  0
  184.9660  178.5370  140.8830 N   0  0  0  0  0  0  0  0  0  0  0  0
  184.5680  178.4980  143.2890 C   0  0  2  0  0  3  0  0  0  0  0  0
  182.7120  178.3820  141.5880 N   0  0  0  0  0  2  0  0  0  0  0  0
  188.3360  177.9910  142.5740 C   0  0  0  0  0  3  0  0  0  0  0  0
  187.1400  178.1070  147.6290 C   0  0  0  0  0  3  0  0  0  0  0  0
  186.4020  178.7130  141.0740 C   0  0  2  0  0  3  0  0  0  0  0  0
  187.1780  178.0180  139.9630 C   0  0  0  0  0  2  0  0  0  0  0  0
  184.1670  179.7370  144.0780 C   0  0  0  0  0  2  0  0  0  0  0  0
  185.6680  178.8600  145.8580 C   0  0  0  0  0  0  0  0  0  0  0  0
  186.0110  178.8170  147.2130 C   0  0  0  0  0  3  0  0  0  0  0  0
  181.3660  179.6430  139.9830 C   0  0  0  0  0  1  0  0  0  0  0  0
  182.1610  178.3720  140.2380 C   0  0  2  0  0  3  0  0  0  0  0  0
  179.7030  174.8930  139.6440 C   0  0  0  0  0  0  0  0  0  0  0  0
  179.9720  177.1460  140.4840 C   0  0  0  0  0  3  0  0  0  0  0  0
  183.1070  176.0240  138.9410 F   0  0  0  0  0  0  0  0  0  0  0  0
  178.9310  173.7960  139.4550 F   0  0  0  0  0  0  0  0  0  0  0  0
  179.1760  176.0140  140.2890 C   0  0  0  0  0  3  0  0  0  0  0  0
  181.8250  176.0330  139.3860 C   0  0  0  0  0  0  0  0  0  0  0  0
  181.3020  177.1620  140.0350 C   0  0  0  0  0  0  0  0  0  0  0  0
  181.0260  174.9020  139.1930 C   0  0  0  0  0  3  0  0  0  0  0  0
  1  9  1  0  0  0  0
  1 15  2  0  0  0  0
  2  3  1  0  0  0  0
  3  7  2  0  0  0  0
  3 20  1  0  0  0  0
  4 11  1  0  0  0  0
  4 16  2  0  0  0  0
  5 15  1  0  0  0  0
  5  2  2  0  0  0  0
  6  1  1  0  0  0  0
  7  4  1  0  0  0  0
  8 13  1  0  0  0  0
 10 20  1  0  0  0  0
 12 17  1  0  0  0  0
 12  8  2  0  0  0  0
 13  2  1  0  0  0  0
 13 19  1  6  0  0  0
 14  8  1  0  0  0  0
 17 18  1  6  0  0  0
 17  5  1  0  0  0  0
 18  6  1  0  0  0  0
 19 10  1  0  0  0  0
 20 21  2  0  0  0  0
 21 16  1  0  0  0  0
 23 22  1  1  0  0  0
 23 14  1  0  0  0  0
 24 28  1  0  0  0  0
 26 29  1  0  0  0  0
 27 24  1  0  0  0  0
 28 25  2  0  0  0  0
 29 30  2  0  0  0  0
 30 23  1  0  0  0  0
 30 25  1  0  0  0  0
 31 29  1  0  0  0  0
 31 24  2  0  0  0  0
M  END
>  <MODEL>
1

>  <REMARK>
 VINA RESULT:     -10.1      0.000      0.000
  Name = 
  2 active torsions:
  status: ('A' for Active; 'I' for Inactive)
    1  A    between atoms: C_5  and  N_16
    2  A    between atoms: C_5  and  C_30
                            x       y       z     vdW  Elec       q    Type
                         _______ _______ _______ _____ _____    ______ ____

>  <TORSDO>
F 2

$$$$
=
 OpenBabel11122411083D

 31 35  0  0  1  0  0  0  0  0999 V2000
  180.2310  178.8450  141.8560 C   0  0  0  0  0  0  0  0  0  0  0  0
  183.7910  178.1430  141.1700 C   0  0  0  0  0  0  0  0  0  0  0  0
  183.8790  177.9460  139.7000 C   0  0  0  0  0  0  0  0  0  0  0  0
  182.9770  177.2460  137.5570 C   0  0  0  0  0  0  0  0  0  0  0  0
  182.6650  178.4910  141.8330 C   0  0  0  0  0  0  0  0  0  0  0  0
  180.2760  179.2770  143.2990 C   0  0  0  0  0  2  0  0  0  0  0  0
  182.8270  177.4230  138.9340 C   0  0  0  0  0  3  0  0  0  0  0  0
  185.0500  178.2480  143.3710 C   0  0  0  0  0  0  0  0  0  0  0  0
  178.9310  178.8760  141.1360 C   0  0  0  0  0  1  0  0  0  0  0  0
  186.1790  178.7730  139.8160 O   0  0  0  0  0  0  0  0  0  0  0  0
  181.8530  176.6980  136.7530 C   0  0  0  0  0  1  0  0  0  0  0  0
  183.9470  178.6060  143.9570 N   0  0  0  0  0  0  0  0  0  0  0  0
  185.1210  178.1030  141.8800 C   0  0  2  0  0  3  0  0  0  0  0  0
  186.1880  177.8690  144.1510 N   0  0  0  0  0  2  0  0  0  0  0  0
  181.3390  178.5200  141.1810 C   0  0  0  0  0  3  0  0  0  0  0  0
  184.1820  177.5820  136.9350 C   0  0  0  0  0  3  0  0  0  0  0  0
  182.7570  179.0470  143.2360 C   0  0  2  0  0  3  0  0  0  0  0  0
  181.4990  178.7160  144.0270 C   0  0  0  0  0  2  0  0  0  0  0  0
  186.0680  179.0900  141.2090 C   0  0  0  0  0  2  0  0  0  0  0  0
  185.0980  178.2780  139.0670 C   0  0  0  0  0  0  0  0  0  0  0  0
  185.2400  178.0950  137.6880 C   0  0  0  0  0  3  0  0  0  0  0  0
  185.7550  179.3310  146.0630 C   0  0  0  0  0  1  0  0  0  0  0  0
  186.2220  177.9580  145.6060 C   0  0  2  0  0  3  0  0  0  0  0  0
  190.1840  177.1490  147.0720 C   0  0  0  0  0  0  0  0  0  0  0  0
  188.6450  177.3810  145.2190 C   0  0  0  0  0  3  0  0  0  0  0  0
  186.8730  177.9860  148.3740 F   0  0  0  0  0  0  0  0  0  0  0  0
  191.4310  176.8950  147.5370 F   0  0  0  0  0  0  0  0  0  0  0  0
  189.9310  177.1190  145.6990 C   0  0  0  0  0  3  0  0  0  0  0  0
  187.8630  177.7040  147.4910 C   0  0  0  0  0  0  0  0  0  0  0  0
  187.6030  177.6740  146.1120 C   0  0  0  0  0  0  0  0  0  0  0  0
  189.1510  177.4410  147.9670 C   0  0  0  0  0  3  0  0  0  0  0  0
  1  6  1  0  0  0  0
  2  5  2  0  0  0  0
  2 13  1  0  0  0  0
  3  2  1  0  0  0  0
  4  7  1  0  0  0  0
  5 17  1  0  0  0  0
  6 18  1  0  0  0  0
  7  3  2  0  0  0  0
  8 12  2  0  0  0  0
  8 14  1  0  0  0  0
  9  1  1  0  0  0  0
 10 19  1  0  0  0  0
 11  4  1  0  0  0  0
 13 19  1  6  0  0  0
 13  8  1  0  0  0  0
 14 23  1  0  0  0  0
 15  5  1  0  0  0  0
 15  1  2  0  0  0  0
 16  4  2  0  0  0  0
 16 21  1  0  0  0  0
 17 12  1  0  0  0  0
 17 18  1  1  0  0  0
 20  3  1  0  0  0  0
 20 10  1  0  0  0  0
 21 20  2  0  0  0  0
 23 22  1  6  0  0  0
 23 30  1  0  0  0  0
 24 27  1  0  0  0  0
 24 31  1  0  0  0  0
 25 28  1  0  0  0  0
 25 30  2  0  0  0  0
 28 24  2  0  0  0  0
 29 31  2  0  0  0  0
 29 26  1  0  0  0  0
 30 29  1  0  0  0  0
M  END
>  <MODEL>
2

>  <REMARK>
 VINA RESULT:      -9.7      3.727      8.695
  Name = 
  2 active torsions:
  status: ('A' for Active; 'I' for Inactive)
    1  A    between atoms: C_5  and  N_16
    2  A    between atoms: C_5  and  C_30
                            x       y       z     vdW  Elec       q    Type
                         _______ _______ _______ _____ _____    ______ ____

>  <TORSDO>
F 2

$$$$
=
 OpenBabel11122411083D

 31 35  0  0  1  0  0  0  0  0999 V2000
  185.7430  178.2200  144.4750 C   0  0  0  0  0  0  0  0  0  0  0  0
  189.2930  177.4290  143.8290 C   0  0  0  0  0  0  0  0  0  0  0  0
  189.9000  177.2140  145.1680 C   0  0  0  0  0  0  0  0  0  0  0  0
  190.0750  177.6350  147.5530 C   0  0  0  0  0  0  0  0  0  0  0  0
  187.9820  177.6760  143.6100 C   0  0  0  0  0  0  0  0  0  0  0  0
  185.1610  178.1700  143.0860 C   0  0  0  0  0  2  0  0  0  0  0  0
  189.4520  177.8680  146.3250 C   0  0  0  0  0  3  0  0  0  0  0  0
  189.6540  177.4340  141.3170 C   0  0  0  0  0  0  0  0  0  0  0  0
  184.8380  178.4730  145.6260 C   0  0  0  0  0  1  0  0  0  0  0  0
  191.4860  175.6850  144.1040 O   0  0  0  0  0  0  0  0  0  0  0  0
  189.5880  178.3280  148.7750 C   0  0  0  0  0  1  0  0  0  0  0  0
  188.3820  177.6440  141.1590 N   0  0  0  0  0  0  0  0  0  0  0  0
  190.2310  177.1710  142.6770 C   0  0  2  0  0  3  0  0  0  0  0  0
  190.5470  177.5660  140.2080 N   0  0  0  0  0  2  0  0  0  0  0  0
  187.0330  177.9560  144.7090 C   0  0  0  0  0  3  0  0  0  0  0  0
  191.1560  176.7540  147.6340 C   0  0  0  0  0  3  0  0  0  0  0  0
  187.3990  177.4870  142.2270 C   0  0  2  0  0  3  0  0  0  0  0  0
  186.2190  178.4250  142.0110 C   0  0  0  0  0  2  0  0  0  0  0  0
  190.8340  175.7820  142.8330 C   0  0  0  0  0  2  0  0  0  0  0  0
  190.9970  176.3280  145.2540 C   0  0  0  0  0  0  0  0  0  0  0  0
  191.6170  176.1040  146.4870 C   0  0  0  0  0  3  0  0  0  0  0  0
  188.9100  178.7870  138.8620 C   0  0  0  0  0  1  0  0  0  0  0  0
  190.0950  177.8330  138.8480 C   0  0  2  0  0  3  0  0  0  0  0  0
  189.0740  174.1550  136.8650 C   0  0  0  0  0  0  0  0  0  0  0  0
  188.4140  176.3080  137.7510 C   0  0  0  0  0  3  0  0  0  0  0  0
  192.0070  175.8020  138.2950 F   0  0  0  0  0  0  0  0  0  0  0  0
  188.7550  172.9960  136.2410 F   0  0  0  0  0  0  0  0  0  0  0  0
  188.0860  175.1120  137.1060 C   0  0  0  0  0  3  0  0  0  0  0  0
  190.7230  175.5880  137.9120 C   0  0  0  0  0  0  0  0  0  0  0  0
  189.7340  176.5530  138.1590 C   0  0  0  0  0  0  0  0  0  0  0  0
  190.3910  174.3930  137.2670 C   0  0  0  0  0  3  0  0  0  0  0  0
  1 15  2  0  0  0  0
  1  9  1  0  0  0  0
  2  3  1  0  0  0  0
  3 20  2  0  0  0  0
  3  7  1  0  0  0  0
  4 16  1  0  0  0  0
  4 11  1  0  0  0  0
  5  2  2  0  0  0  0
  5 15  1  0  0  0  0
  6  1  1  0  0  0  0
  7  4  2  0  0  0  0
  8 13  1  0  0  0  0
 10 20  1  0  0  0  0
 12  8  2  0  0  0  0
 12 17  1  0  0  0  0
 13 19  1  6  0  0  0
 13  2  1  0  0  0  0
 14  8  1  0  0  0  0
 17 18  1  6  0  0  0
 17  5  1  0  0  0  0
 18  6  1  0  0  0  0
 19 10  1  0  0  0  0
 20 21  1  0  0  0  0
 21 16  2  0  0  0  0
 23 22  1  1  0  0  0
 23 14  1  0  0  0  0
 24 28  2  0  0  0  0
 24 31  1  0  0  0  0
 25 30  2  0  0  0  0
 27 24  1  0  0  0  0
 28 25  1  0  0  0  0
 29 30  1  0  0  0  0
 29 26  1  0  0  0  0
 30 23  1  0  0  0  0
 31 29  2  0  0  0  0
M  END
>  <MODEL>
3

>  <REMARK>
 VINA RESULT:      -9.7      4.329      6.565
  Name = 
  2 active torsions:
  status: ('A' for Active; 'I' for Inactive)
    1  A    between atoms: C_5  and  N_16
    2  A    between atoms: C_5  and  C_30
                            x       y       z     vdW  Elec       q    Type
                         _______ _______ _______ _____ _____    ______ ____

>  <TORSDO>
F 2

$$$$
=
 OpenBabel11122411083D

 31 35  0  0  1  0  0  0  0  0999 V2000
  190.3310  177.1090  145.9170 C   0  0  0  0  0  0  0  0  0  0  0  0
  188.1760  177.5970  142.9580 C   0  0  0  0  0  0  0  0  0  0  0  0
  186.8820  178.0990  143.4890 C   0  0  0  0  0  0  0  0  0  0  0  0
  185.1570  178.2460  145.1930 C   0  0  0  0  0  0  0  0  0  0  0  0
  189.2720  177.3530  143.7100 C   0  0  0  0  0  0  0  0  0  0  0  0
  191.6710  176.8510  145.2800 C   0  0  0  0  0  2  0  0  0  0  0  0
  186.3890  177.7530  144.7560 C   0  0  0  0  0  3  0  0  0  0  0  0
  189.5240  176.9880  140.8960 C   0  0  0  0  0  0  0  0  0  0  0  0
  190.2380  177.1670  147.3990 C   0  0  0  0  0  1  0  0  0  0  0  0
  186.5700  179.2770  141.3680 O   0  0  0  0  0  0  0  0  0  0  0  0
  184.6470  177.8780  146.5400 C   0  0  0  0  0  1  0  0  0  0  0  0
  190.5570  176.7920  141.6590 N   0  0  0  0  0  0  0  0  0  0  0  0
  188.2450  177.5420  141.4530 C   0  0  2  0  0  3  0  0  0  0  0  0
  189.5490  176.5660  139.5300 N   0  0  0  0  0  2  0  0  0  0  0  0
  189.2420  177.3740  145.1870 C   0  0  0  0  0  3  0  0  0  0  0  0
  184.4040  179.0810  144.3650 C   0  0  0  0  0  3  0  0  0  0  0  0
  190.6270  177.2320  143.0490 C   0  0  2  0  0  3  0  0  0  0  0  0
  191.5350  176.3130  143.8550 C   0  0  0  0  0  2  0  0  0  0  0  0
  187.8690  178.9070  140.8910 C   0  0  0  0  0  2  0  0  0  0  0  0
  186.1140  178.9400  142.6540 C   0  0  0  0  0  0  0  0  0  0  0  0
  184.8800  179.4260  143.0980 C   0  0  0  0  0  3  0  0  0  0  0  0
  191.6510  177.1140  138.4060 C   0  0  0  0  0  1  0  0  0  0  0  0
  190.7330  176.0030  138.8920 C   0  0  2  0  0  3  0  0  0  0  0  0
  189.6100  173.4380  135.6260 C   0  0  0  0  0  0  0  0  0  0  0  0
  189.0430  175.1710  137.2170 C   0  0  0  0  0  3  0  0  0  0  0  0
  192.5240  174.1280  137.7220 F   0  0  0  0  0  0  0  0  0  0  0  0
  189.2590  172.6280  134.5990 F   0  0  0  0  0  0  0  0  0  0  0  0
  188.6810  174.3370  136.1560 C   0  0  0  0  0  3  0  0  0  0  0  0
  191.2670  174.2050  137.2200 C   0  0  0  0  0  0  0  0  0  0  0  0
  190.3370  175.1100  137.7560 C   0  0  0  0  0  0  0  0  0  0  0  0
  190.9010  173.3720  136.1580 C   0  0  0  0  0  3  0  0  0  0  0  0
  1  9  1  0  0  0  0
  2  3  1  0  0  0  0
  2  5  2  0  0  0  0
  3  7  1  0  0  0  0
  4 11  1  0  0  0  0
  5 15  1  0  0  0  0
  6  1  1  0  0  0  0
  7  4  2  0  0  0  0
  8 13  1  0  0  0  0
  8 12  2  0  0  0  0
 10 20  1  0  0  0  0
 12 17  1  0  0  0  0
 13 19  1  6  0  0  0
 13  2  1  0  0  0  0
 14  8  1  0  0  0  0
 15  1  2  0  0  0  0
 16  4  1  0  0  0  0
 17  5  1  0  0  0  0
 17 18  1  1  0  0  0
 18  6  1  0  0  0  0
 19 10  1  0  0  0  0
 20 21  1  0  0  0  0
 20  3  2  0  0  0  0
 21 16  2  0  0  0  0
 23 22  1  6  0  0  0
 23 14  1  0  0  0  0
 24 28  2  0  0  0  0
 24 31  1  0  0  0  0
 25 30  2  0  0  0  0
 27 24  1  0  0  0  0
 28 25  1  0  0  0  0
 29 26  1  0  0  0  0
 29 30  1  0  0  0  0
 30 23  1  0  0  0  0
 31 29  2  0  0  0  0
M  END
>  <MODEL>
4

>  <REMARK>
 VINA RESULT:      -9.4      4.528      6.923
  Name = 
  2 active torsions:
  status: ('A' for Active; 'I' for Inactive)
    1  A    between atoms: C_5  and  N_16
    2  A    between atoms: C_5  and  C_30
                            x       y       z     vdW  Elec       q    Type
                         _______ _______ _______ _____ _____    ______ ____

>  <TORSDO>
F 2

$$$$
=
 OpenBabel11122411083D

 31 35  0  0  1  0  0  0  0  0999 V2000
  189.2780  177.9080  141.5320 C   0  0  0  0  0  0  0  0  0  0  0  0
  186.0930  178.3010  143.3600 C   0  0  0  0  0  0  0  0  0  0  0  0
  186.4470  178.1950  144.7990 C   0  0  0  0  0  0  0  0  0  0  0  0
  187.7910  177.3450  146.6360 C   0  0  0  0  0  0  0  0  0  0  0  0
  186.9860  178.2800  142.3450 C   0  0  0  0  0  0  0  0  0  0  0  0
  188.8730  178.2780  140.1290 C   0  0  0  0  0  2  0  0  0  0  0  0
  187.5170  177.4170  145.2680 C   0  0  0  0  0  3  0  0  0  0  0  0
  184.2510  178.6840  141.6560 C   0  0  0  0  0  0  0  0  0  0  0  0
  190.7020  177.5860  141.8080 C   0  0  0  0  0  1  0  0  0  0  0  0
  184.5430  179.6520  145.2840 O   0  0  0  0  0  0  0  0  0  0  0  0
  188.9300  176.5240  147.1220 C   0  0  0  0  0  1  0  0  0  0  0  0
  185.1520  178.6820  140.7190 N   0  0  0  0  0  0  0  0  0  0  0  0
  184.6430  178.6240  143.1030 C   0  0  2  0  0  3  0  0  0  0  0  0
  182.8630  178.6240  141.3190 N   0  0  0  0  0  2  0  0  0  0  0  0
  188.4110  177.9460  142.5490 C   0  0  0  0  0  3  0  0  0  0  0  0
  186.9920  178.0410  147.5470 C   0  0  0  0  0  3  0  0  0  0  0  0
  186.5850  178.7850  140.9770 C   0  0  2  0  0  3  0  0  0  0  0  0
  187.3760  178.0710  139.8900 C   0  0  0  0  0  2  0  0  0  0  0  0
  184.2660  179.8680  143.8960 C   0  0  0  0  0  2  0  0  0  0  0  0
  185.6400  178.8920  145.7250 C   0  0  0  0  0  0  0  0  0  0  0  0
  185.9190  178.8110  147.0930 C   0  0  0  0  0  3  0  0  0  0  0  0
  180.8980  179.0260  139.9200 C   0  0  0  0  0  1  0  0  0  0  0  0
  182.3750  178.6630  139.9460 C   0  0  2  0  0  3  0  0  0  0  0  0
  183.0440  174.8830  138.0040 C   0  0  0  0  0  0  0  0  0  0  0  0
  181.9010  176.2010  139.6810 C   0  0  0  0  0  3  0  0  0  0  0  0
  184.2260  178.3370  137.8110 F   0  0  0  0  0  0  0  0  0  0  0  0
  183.2580  173.6940  137.3910 F   0  0  0  0  0  0  0  0  0  0  0  0
  182.1200  174.9750  139.0470 C   0  0  0  0  0  3  0  0  0  0  0  0
  183.5330  177.2460  138.2240 C   0  0  0  0  0  0  0  0  0  0  0  0
  182.6060  177.3440  139.2740 C   0  0  0  0  0  0  0  0  0  0  0  0
  183.7500  176.0180  137.5930 C   0  0  0  0  0  3  0  0  0  0  0  0
  1  9  1  0  0  0  0
  1 15  2  0  0  0  0
  2  3  1  0  0  0  0
  3  7  2  0  0  0  0
  3 20  1  0  0  0  0
  4 11  1  0  0  0  0
  4 16  2  0  0  0  0
  5 15  1  0  0  0  0
  5  2  2  0  0  0  0
  6  1  1  0  0  0  0
  7  4  1  0  0  0  0
  8 13  1  0  0  0  0
 10 20  1  0  0  0  0
 12 17  1  0  0  0  0
 12  8  2  0  0  0  0
 13  2  1  0  0  0  0
 13 19  1  6  0  0  0
 14  8  1  0  0  0  0
 17 18  1  6  0  0  0
 17  5  1  0  0  0  0
 18  6  1  0  0  0  0
 19 10  1  0  0  0  0
 20 21  2  0  0  0  0
 21 16  1  0  0  0  0
 23 22  1  1  0  0  0
 23 14  1  0  0  0  0
 24 28  1  0  0  0  0
 26 29  1  0  0  0  0
 27 24  1  0  0  0  0
 28 25  2  0  0  0  0
 29 30  2  0  0  0  0
 30 25  1  0  0  0  0
 30 23  1  0  0  0  0
 31 24  2  0  0  0  0
 31 29  1  0  0  0  0
M  END
>  <MODEL>
5

>  <REMARK>
 VINA RESULT:      -9.4      1.321      1.629
  Name = 
  2 active torsions:
  status: ('A' for Active; 'I' for Inactive)
    1  A    between atoms: C_5  and  N_16
    2  A    between atoms: C_5  and  C_30
                            x       y       z     vdW  Elec       q    Type
                         _______ _______ _______ _____ _____    ______ ____

>  <TORSDO>
F 2

$$$$
=
 OpenBabel11122411083D

 31 35  0  0  1  0  0  0  0  0999 V2000
  189.4340  177.9300  141.7020 C   0  0  0  0  0  0  0  0  0  0  0  0
  186.2040  178.2120  143.4710 C   0  0  0  0  0  0  0  0  0  0  0  0
  186.5420  178.1890  144.9170 C   0  0  0  0  0  0  0  0  0  0  0  0
  187.9050  177.5030  146.8070 C   0  0  0  0  0  0  0  0  0  0  0  0
  187.1120  178.2000  142.4690 C   0  0  0  0  0  0  0  0  0  0  0  0
  189.0290  178.2140  140.2790 C   0  0  0  0  0  2  0  0  0  0  0  0
  187.6480  177.4990  145.4340 C   0  0  0  0  0  3  0  0  0  0  0  0
  184.3690  178.4090  141.7280 C   0  0  0  0  0  0  0  0  0  0  0  0
  190.8700  177.7060  142.0110 C   0  0  0  0  0  1  0  0  0  0  0  0
  184.5470  179.5500  145.3140 O   0  0  0  0  0  0  0  0  0  0  0  0
  189.0830  176.7730  147.3430 C   0  0  0  0  0  1  0  0  0  0  0  0
  185.2820  178.4200  140.8040 N   0  0  0  0  0  0  0  0  0  0  0  0
  184.7410  178.4360  143.1820 C   0  0  2  0  0  3  0  0  0  0  0  0
  182.9920  178.2520  141.3770 N   0  0  0  0  0  2  0  0  0  0  0  0
  188.5510  177.9610  142.7060 C   0  0  0  0  0  3  0  0  0  0  0  0
  187.0530  178.1880  147.6760 C   0  0  0  0  0  3  0  0  0  0  0  0
  186.7020  178.6190  141.0750 C   0  0  2  0  0  3  0  0  0  0  0  0
  187.5510  177.9070  140.0310 C   0  0  0  0  0  2  0  0  0  0  0  0
  184.2790  179.6890  143.9130 C   0  0  0  0  0  2  0  0  0  0  0  0
  185.6800  178.8770  145.8010 C   0  0  0  0  0  0  0  0  0  0  0  0
  185.9430  178.8720  147.1750 C   0  0  0  0  0  3  0  0  0  0  0  0
  183.6930  178.0000  139.0480 C   0  0  0  0  0  1  0  0  0  0  0  0
  182.5230  178.2010  139.9970 C   0  0  2  0  0  3  0  0  0  0  0  0
  180.3630  181.7910  139.0210 C   0  0  0  0  0  0  0  0  0  0  0  0
  182.2910  180.3620  138.7190 C   0  0  0  0  0  3  0  0  0  0  0  0
  180.0220  178.8620  141.1810 F   0  0  0  0  0  0  0  0  0  0  0  0
  179.6800  182.9210  138.7160 F   0  0  0  0  0  0  0  0  0  0  0  0
  181.5870  181.5270  138.4030 C   0  0  0  0  0  3  0  0  0  0  0  0
  180.5430  179.7240  140.2730 C   0  0  0  0  0  0  0  0  0  0  0  0
  181.7750  179.4540  139.6560 C   0  0  0  0  0  0  0  0  0  0  0  0
  179.8410  180.8910  139.9550 C   0  0  0  0  0  3  0  0  0  0  0  0
  1  9  1  0  0  0  0
  1 15  2  0  0  0  0
  2  3  1  0  0  0  0
  3  7  2  0  0  0  0
  3 20  1  0  0  0  0
  4 11  1  0  0  0  0
  4 16  2  0  0  0  0
  5 15  1  0  0  0  0
  5  2  2  0  0  0  0
  6  1  1  0  0  0  0
  7  4  1  0  0  0  0
  8 13  1  0  0  0  0
 10 20  1  0  0  0  0
 12 17  1  0  0  0  0
 12  8  2  0  0  0  0
 13  2  1  0  0  0  0
 13 19  1  6  0  0  0
 14  8  1  0  0  0  0
 17 18  1  6  0  0  0
 17  5  1  0  0  0  0
 18  6  1  0  0  0  0
 19 10  1  0  0  0  0
 20 21  2  0  0  0  0
 21 16  1  0  0  0  0
 23 22  1  6  0  0  0
 23 14  1  0  0  0  0
 24 31  1  0  0  0  0
 25 30  2  0  0  0  0
 27 24  1  0  0  0  0
 28 25  1  0  0  0  0
 28 24  2  0  0  0  0
 29 26  1  0  0  0  0
 30 23  1  0  0  0  0
 30 29  1  0  0  0  0
 31 29  2  0  0  0  0
M  END
>  <MODEL>
6

>  <REMARK>
 VINA RESULT:      -9.1      1.950      3.027
  Name = 
  2 active torsions:
  status: ('A' for Active; 'I' for Inactive)
    1  A    between atoms: C_5  and  N_16
    2  A    between atoms: C_5  and  C_30
                            x       y       z     vdW  Elec       q    Type
                         _______ _______ _______ _____ _____    ______ ____

>  <TORSDO>
F 2

$$$$
=
 OpenBabel11122411083D

 31 35  0  0  1  0  0  0  0  0999 V2000
  190.4160  177.1180  145.6670 C   0  0  0  0  0  0  0  0  0  0  0  0
  187.9310  177.6940  142.9950 C   0  0  0  0  0  0  0  0  0  0  0  0
  186.7110  178.1820  143.6880 C   0  0  0  0  0  0  0  0  0  0  0  0
  185.1980  178.2810  145.5860 C   0  0  0  0  0  0  0  0  0  0  0  0
  189.1070  177.4280  143.6060 C   0  0  0  0  0  0  0  0  0  0  0  0
  191.6710  176.8780  144.8700 C   0  0  0  0  0  2  0  0  0  0  0  0
  186.3680  177.7990  144.9940 C   0  0  0  0  0  3  0  0  0  0  0  0
  189.0260  177.1440  140.7720 C   0  0  0  0  0  0  0  0  0  0  0  0
  190.4970  177.1330  147.1510 C   0  0  0  0  0  1  0  0  0  0  0  0
  186.1580  179.4210  141.6530 O   0  0  0  0  0  0  0  0  0  0  0  0
  184.8470  177.8740  146.9720 C   0  0  0  0  0  1  0  0  0  0  0  0
  190.1410  176.9260  141.4040 N   0  0  0  0  0  0  0  0  0  0  0  0
  187.8250  177.6840  141.4910 C   0  0  2  0  0  3  0  0  0  0  0  0
  188.8900  176.7620  139.4010 N   0  0  0  0  0  2  0  0  0  0  0  0
  189.2500  177.4050  145.0770 C   0  0  0  0  0  3  0  0  0  0  0  0
  184.3570  179.1410  144.8760 C   0  0  0  0  0  3  0  0  0  0  0  0
  190.3750  177.3240  142.7880 C   0  0  2  0  0  3  0  0  0  0  0  0
  191.3670  176.3810  143.4560 C   0  0  0  0  0  2  0  0  0  0  0  0
  187.3910  179.0640  141.0170 C   0  0  0  0  0  2  0  0  0  0  0  0
  185.8540  179.0480  142.9730 C   0  0  0  0  0  0  0  0  0  0  0  0
  184.6830  179.5220  143.5720 C   0  0  0  0  0  3  0  0  0  0  0  0
  190.8070  177.3410  137.9980 C   0  0  0  0  0  1  0  0  0  0  0  0
  189.9890  176.2170  138.6140 C   0  0  2  0  0  3  0  0  0  0  0  0
  188.4640  173.5960  135.5620 C   0  0  0  0  0  0  0  0  0  0  0  0
  190.1630  174.1390  137.1970 C   0  0  0  0  0  3  0  0  0  0  0  0
  187.5590  176.7230  137.2250 F   0  0  0  0  0  0  0  0  0  0  0  0
  187.9820  172.7730  134.6010 F   0  0  0  0  0  0  0  0  0  0  0  0
  189.6650  173.2890  136.2060 C   0  0  0  0  0  3  0  0  0  0  0  0
  188.2560  175.6050  136.9000 C   0  0  0  0  0  0  0  0  0  0  0  0
  189.4630  175.3020  137.5500 C   0  0  0  0  0  0  0  0  0  0  0  0
  187.7600  174.7520  135.9090 C   0  0  0  0  0  3  0  0  0  0  0  0
  1  9  1  0  0  0  0
  2  5  2  0  0  0  0
  2  3  1  0  0  0  0
  3  7  1  0  0  0  0
  4 11  1  0  0  0  0
  5 15  1  0  0  0  0
  6  1  1  0  0  0  0
  7  4  2  0  0  0  0
  8 12  2  0  0  0  0
  8 13  1  0  0  0  0
 10 20  1  0  0  0  0
 12 17  1  0  0  0  0
 13 19  1  6  0  0  0
 13  2  1  0  0  0  0
 14  8  1  0  0  0  0
 15  1  2  0  0  0  0
 16  4  1  0  0  0  0
 17 18  1  1  0  0  0
 17  5  1  0  0  0  0
 18  6  1  0  0  0  0
 19 10  1  0  0  0  0
 20 21  1  0  0  0  0
 20  3  2  0  0  0  0
 21 16  2  0  0  0  0
 23 22  1  6  0  0  0
 23 14  1  0  0  0  0
 24 31  2  0  0  0  0
 24 28  1  0  0  0  0
 25 30  1  0  0  0  0
 27 24  1  0  0  0  0
 28 25  2  0  0  0  0
 29 26  1  0  0  0  0
 29 30  2  0  0  0  0
 30 23  1  0  0  0  0
 31 29  1  0  0  0  0
M  END
>  <MODEL>
7

>  <REMARK>
 VINA RESULT:      -8.7      4.191      6.251
  Name = 
  2 active torsions:
  status: ('A' for Active; 'I' for Inactive)
    1  A    between atoms: C_5  and  N_16
    2  A    between atoms: C_5  and  C_30
                            x       y       z     vdW  Elec       q    Type
                         _______ _______ _______ _____ _____    ______ ____

>  <TORSDO>
F 2

$$$$
=
 OpenBabel11122411083D

 31 35  0  0  1  0  0  0  0  0999 V2000
  190.9360  177.7070  142.7080 C   0  0  0  0  0  0  0  0  0  0  0  0
  187.4850  177.9200  141.4090 C   0  0  0  0  0  0  0  0  0  0  0  0
  186.6400  178.2500  142.5850 C   0  0  0  0  0  0  0  0  0  0  0  0
  186.1060  178.1680  144.9540 C   0  0  0  0  0  0  0  0  0  0  0  0
  188.8330  177.8180  141.4360 C   0  0  0  0  0  0  0  0  0  0  0  0
  191.7370  177.6260  141.4350 C   0  0  0  0  0  2  0  0  0  0  0  0
  186.9500  177.8390  143.8900 C   0  0  0  0  0  3  0  0  0  0  0  0
  187.5590  177.4950  138.9080 C   0  0  0  0  0  0  0  0  0  0  0  0
  191.6540  177.7490  144.0080 C   0  0  0  0  0  1  0  0  0  0  0  0
  185.1050  179.3820  141.0530 O   0  0  0  0  0  0  0  0  0  0  0  0
  186.4490  177.7340  146.3340 C   0  0  0  0  0  1  0  0  0  0  0  0
  188.8550  177.4330  138.9820 N   0  0  0  0  0  0  0  0  0  0  0  0
  186.7350  177.8790  140.1020 C   0  0  2  0  0  3  0  0  0  0  0  0
  186.8870  177.0830  137.7150 N   0  0  0  0  0  2  0  0  0  0  0  0
  189.6040  177.8310  142.6960 C   0  0  0  0  0  3  0  0  0  0  0  0
  184.9400  178.9010  144.7210 C   0  0  0  0  0  3  0  0  0  0  0  0
  189.6190  177.8740  140.1450 C   0  0  2  0  0  3  0  0  0  0  0  0
  190.9110  177.0780  140.2700 C   0  0  0  0  0  2  0  0  0  0  0  0
  185.9710  179.1840  139.9290 C   0  0  0  0  0  2  0  0  0  0  0  0
  185.4560  178.9860  142.3550 C   0  0  0  0  0  0  0  0  0  0  0  0
  184.6150  179.3080  143.4250 C   0  0  0  0  0  3  0  0  0  0  0  0
  186.9570  177.3300  135.2830 C   0  0  0  0  0  1  0  0  0  0  0  0
  187.5900  176.6790  136.5030 C   0  0  2  0  0  3  0  0  0  0  0  0
  187.5840  172.3950  136.1220 C   0  0  0  0  0  0  0  0  0  0  0  0
  186.4830  174.5260  135.8030 C   0  0  0  0  0  3  0  0  0  0  0  0
  189.7620  175.0550  137.3620 F   0  0  0  0  0  0  0  0  0  0  0  0
  187.5850  171.0450  136.0040 F   0  0  0  0  0  0  0  0  0  0  0  0
  186.4840  173.1340  135.6800 C   0  0  0  0  0  3  0  0  0  0  0  0
  188.6860  174.4390  136.8120 C   0  0  0  0  0  0  0  0  0  0  0  0
  187.5830  175.1870  136.3710 C   0  0  0  0  0  0  0  0  0  0  0  0
  188.6830  173.0470  136.6870 C   0  0  0  0  0  3  0  0  0  0  0  0
  1  9  1  0  0  0  0
  2  5  2  0  0  0  0
  2  3  1  0  0  0  0
  3  7  1  0  0  0  0
  4 11  1  0  0  0  0
  5 15  1  0  0  0  0
  6  1  1  0  0  0  0
  7  4  2  0  0  0  0
  8 12  2  0  0  0  0
  8 13  1  0  0  0  0
 10 20  1  0  0  0  0
 12 17  1  0  0  0  0
 13 19  1  6  0  0  0
 13  2  1  0  0  0  0
 14  8  1  0  0  0  0
 15  1  2  0  0  0  0
 16  4  1  0  0  0  0
 17 18  1  1  0  0  0
 17  5  1  0  0  0  0
 18  6  1  0  0  0  0
 19 10  1  0  0  0  0
 20  3  2  0  0  0  0
 20 21  1  0  0  0  0
 21 16  2  0  0  0  0
 23 22  1  6  0  0  0
 23 14  1  0  0  0  0
 24 31  1  0  0  0  0
 25 30  2  0  0  0  0
 27 24  1  0  0  0  0
 28 25  1  0  0  0  0
 28 24  2  0  0  0  0
 29 26  1  0  0  0  0
 30 23  1  0  0  0  0
 30 29  1  0  0  0  0
 31 29  2  0  0  0  0
M  END
>  <MODEL>
8

>  <REMARK>
 VINA RESULT:      -7.9      4.080      5.459
  Name = 
  2 active torsions:
  status: ('A' for Active; 'I' for Inactive)
    1  A    between atoms: C_5  and  N_16
    2  A    between atoms: C_5  and  C_30
                            x       y       z     vdW  Elec       q    Type
                         _______ _______ _______ _____ _____    ______ ____

>  <TORSDO>
F 2

$$$$
=
 OpenBabel11122411083D

 31 35  0  0  1  0  0  0  0  0999 V2000
  184.3480  178.5060  144.3120 C   0  0  0  0  0  0  0  0  0  0  0  0
  185.2170  178.8100  140.7350 C   0  0  0  0  0  0  0  0  0  0  0  0
  186.6570  178.4580  140.6470 C   0  0  0  0  0  0  0  0  0  0  0  0
  188.9150  178.3560  141.5370 C   0  0  0  0  0  0  0  0  0  0  0  0
  184.4810  178.7590  141.8680 C   0  0  0  0  0  0  0  0  0  0  0  0
  182.8470  178.6270  144.2740 C   0  0  0  0  0  2  0  0  0  0  0  0
  187.5690  178.6960  141.6870 C   0  0  0  0  0  3  0  0  0  0  0  0
  183.1190  179.4770  139.4710 C   0  0  0  0  0  0  0  0  0  0  0  0
  185.0160  178.2530  145.6150 C   0  0  0  0  0  1  0  0  0  0  0  0
  186.2330  177.6640  138.3720 O   0  0  0  0  0  0  0  0  0  0  0  0
  189.8710  178.6060  142.6480 C   0  0  0  0  0  1  0  0  0  0  0  0
  182.4510  179.3880  140.5820 N   0  0  0  0  0  0  0  0  0  0  0  0
  184.5610  179.0670  139.4020 C   0  0  2  0  0  3  0  0  0  0  0  0
  182.5230  180.0800  138.3200 N   0  0  0  0  0  2  0  0  0  0  0  0
  185.0860  178.5320  143.1980 C   0  0  0  0  0  3  0  0  0  0  0  0
  189.3640  177.7840  140.3450 C   0  0  0  0  0  3  0  0  0  0  0  0
  182.9710  178.7480  141.7870 C   0  0  2  0  0  3  0  0  0  0  0  0
  182.3630  179.3800  143.0320 C   0  0  0  0  0  2  0  0  0  0  0  0
  184.8210  177.8790  138.4860 C   0  0  0  0  0  2  0  0  0  0  0  0
  187.1180  177.8840  139.4410 C   0  0  0  0  0  0  0  0  0  0  0  0
  188.4680  177.5500  139.2990 C   0  0  0  0  0  3  0  0  0  0  0  0
  180.2260  179.3880  137.8440 C   0  0  0  0  0  1  0  0  0  0  0  0
  181.1350  180.5260  138.2840 C   0  0  2  0  0  3  0  0  0  0  0  0
  180.7230  183.9130  135.6640 C   0  0  0  0  0  0  0  0  0  0  0  0
  180.1550  181.6330  136.2420 C   0  0  0  0  0  3  0  0  0  0  0  0
  182.5020  182.9820  138.7190 F   0  0  0  0  0  0  0  0  0  0  0  0
  180.5960  184.9810  134.8410 F   0  0  0  0  0  0  0  0  0  0  0  0
  180.0230  182.7350  135.3930 C   0  0  0  0  0  3  0  0  0  0  0  0
  181.6900  182.8890  137.6360 C   0  0  0  0  0  0  0  0  0  0  0  0
  180.9900  181.7020  137.3670 C   0  0  0  0  0  0  0  0  0  0  0  0
  181.5550  183.9900  136.7850 C   0  0  0  0  0  3  0  0  0  0  0  0
  1  9  1  0  0  0  0
  2  5  2  0  0  0  0
  3  2  1  0  0  0  0
  3  7  1  0  0  0  0
  4  7  2  0  0  0  0
  4 11  1  0  0  0  0
  5 15  1  0  0  0  0
  6  1  1  0  0  0  0
  8 12  2  0  0  0  0
 10 19  1  0  0  0  0
 10 20  1  0  0  0  0
 12 17  1  0  0  0  0
 13 19  1  6  0  0  0
 13  8  1  0  0  0  0
 13  2  1  0  0  0  0
 14  8  1  0  0  0  0
 15  1  2  0  0  0  0
 16  4  1  0  0  0  0
 17  5  1  0  0  0  0
 17 18  1  1  0  0  0
 18  6  1  0  0  0  0
 20  3  2  0  0  0  0
 21 20  1  0  0  0  0
 21 16  2  0  0  0  0
 23 22  1  6  0  0  0
 23 14  1  0  0  0  0
 24 31  1  0  0  0  0
 25 30  2  0  0  0  0
 27 24  1  0  0  0  0
 28 24  2  0  0  0  0
 28 25  1  0  0  0  0
 29 26  1  0  0  0  0
 30 29  1  0  0  0  0
 30 23  1  0  0  0  0
 31 29  2  0  0  0  0
M  END
>  <MODEL>
9

>  <REMARK>
 VINA RESULT:      -7.9      3.662      6.176
  Name = 
  2 active torsions:
  status: ('A' for Active; 'I' for Inactive)
    1  A    between atoms: C_5  and  N_16
    2  A    between atoms: C_5  and  C_30
                            x       y       z     vdW  Elec       q    Type
                         _______ _______ _______ _____ _____    ______ ____

>  <TORSDO>
F 2

$$$$
