=
 OpenBabel11122410573D

 31 35  0  0  1  0  0  0  0  0999 V2000
  189.9280  175.8760  142.7460 C   0  0  0  0  0  0  0  0  0  0  0  0
  186.5200  177.1760  143.8230 C   0  0  2  0  0  3  0  0  0  0  0  0
  186.7300  177.8650  145.1670 C   0  0  0  0  0  0  0  0  0  0  0  0
  188.0410  178.1340  147.2020 C   0  0  0  0  0  0  0  0  0  0  0  0
  187.7970  177.0070  143.0330 C   0  0  0  0  0  0  0  0  0  0  0  0
  190.2320  176.7120  141.6700 C   0  0  0  0  0  3  0  0  0  0  0  0
  187.8690  177.5750  145.9350 C   0  0  0  0  0  3  0  0  0  0  0  0
  185.9350  179.1190  142.3070 C   0  0  2  0  0  3  0  0  0  0  0  0
  190.8330  174.9030  143.1450 O   0  0  0  0  0  1  0  0  0  0  0  0
  184.4880  179.0610  144.9680 C   0  0  0  0  0  2  0  0  0  0  0  0
  189.4790  177.7700  148.1300 Cl  0  0  0  0  0  0  0  0  0  0  0  0
  187.0990  178.8030  141.3680 C   0  0  0  0  0  2  0  0  0  0  0  0
  185.4150  177.8330  142.9730 C   0  0  2  0  0  3  0  0  0  0  0  0
  188.7150  176.0220  143.4220 C   0  0  0  0  0  3  0  0  0  0  0  0
  187.0630  178.9760  147.7300 C   0  0  0  0  0  3  0  0  0  0  0  0
  188.1030  177.8450  141.9390 C   0  0  0  0  0  0  0  0  0  0  0  0
  189.3170  177.6850  141.2620 C   0  0  0  0  0  3  0  0  0  0  0  0
  184.1830  178.0780  143.8420 C   0  0  0  0  0  2  0  0  0  0  0  0
  185.7260  178.6900  145.7270 C   0  0  0  0  0  0  0  0  0  0  0  0
  185.9100  179.2540  146.9940 C   0  0  0  0  0  3  0  0  0  0  0  0
  184.9280  179.7490  141.5580 O   0  0  0  0  0  0  0  0  0  0  0  0
  183.1050  178.3100  140.9590 C   0  0  0  0  0  1  0  0  0  0  0  0
  184.4990  178.8210  140.5950 C   0  0  1  0  0  3  0  0  0  0  0  0
  183.0620  177.4420  137.3060 C   0  0  1  0  0  3  0  0  0  0  0  0
  182.9940  179.5510  138.6950 C   0  0  0  0  0  2  0  0  0  0  0  0
  186.7250  178.1880  138.5750 O   0  0  0  0  0  0  0  0  0  0  0  0
  182.3120  176.1610  137.0100 C   0  0  0  0  0  1  0  0  0  0  0  0
  182.3820  178.1660  138.4660 C   0  0  0  0  0  2  0  0  0  0  0  0
  185.4270  178.6310  137.9160 S   0  0  2  0  0  0  0  0  0  0  0  0
  184.4390  179.4650  139.1970 C   0  0  2  0  0  3  0  0  0  0  0  0
  184.5090  177.1070  137.6400 C   0  0  0  0  0  2  0  0  0  0  0  0
  1  9  1  0  0  0  0
  1 14  1  0  0  0  0
  2  5  1  6  0  0  0
  2  3  1  0  0  0  0
  3 19  2  0  0  0  0
  3  7  1  0  0  0  0
  4 15  1  0  0  0  0
  4 11  1  0  0  0  0
  5 14  2  0  0  0  0
  6  1  2  0  0  0  0
  7  4  2  0  0  0  0
  8 21  1  6  0  0  0
  8 13  1  0  0  0  0
 10 19  1  0  0  0  0
 12 16  1  0  0  0  0
 12  8  1  0  0  0  0
 13  2  1  0  0  0  0
 13 18  1  1  0  0  0
 16  5  1  0  0  0  0
 17  6  1  0  0  0  0
 17 16  2  0  0  0  0
 18 10  1  0  0  0  0
 19 20  1  0  0  0  0
 20 15  2  0  0  0  0
 23 22  1  1  0  0  0
 23 21  1  0  0  0  0
 24 27  1  1  0  0  0
 24 31  1  0  0  0  0
 24 28  1  0  0  0  0
 25 30  1  0  0  0  0
 28 25  1  0  0  0  0
 29 26  2  1  0  0  0
 29 30  1  0  0  0  0
 30 23  1  1  0  0  0
 31 29  1  0  0  0  0
M  END
>  <MODEL>
1

>  <REMARK>
 VINA RESULT:     -10.0      0.000      0.000
  Name = 
  3 active torsions:
  status: ('A' for Active; 'I' for Inactive)
    1  A    between atoms: C_5  and  O_16
    2  A    between atoms: C_5  and  C_30
    3  A    between atoms: C_10  and  O_16
                            x       y       z     vdW  Elec       q    Type
                         _______ _______ _______ _____ _____    ______ ____

>  <TORSDO>
F 3

$$$$
=
 OpenBabel11122410573D

 31 35  0  0  1  0  0  0  0  0999 V2000
  191.3910  176.5060  145.0760 C   0  0  0  0  0  0  0  0  0  0  0  0
  187.8460  177.0640  143.8180 C   0  0  2  0  0  3  0  0  0  0  0  0
  187.1070  177.7990  144.9310 C   0  0  0  0  0  0  0  0  0  0  0  0
  186.9010  178.3640  147.2910 C   0  0  0  0  0  0  0  0  0  0  0  0
  189.3490  177.1610  143.9340 C   0  0  0  0  0  0  0  0  0  0  0  0
  192.1270  177.3740  144.2680 C   0  0  0  0  0  3  0  0  0  0  0  0
  187.6040  177.7670  146.2440 C   0  0  0  0  0  3  0  0  0  0  0  0
  187.9550  178.8200  141.9950 C   0  0  2  0  0  3  0  0  0  0  0  0
  192.0320  175.7520  146.0490 O   0  0  0  0  0  1  0  0  0  0  0  0
  185.2520  178.4870  143.3240 C   0  0  0  0  0  2  0  0  0  0  0  0
  187.5530  178.3260  148.9150 Cl  0  0  0  0  0  0  0  0  0  0  0  0
  189.4810  178.7480  141.9460 C   0  0  0  0  0  2  0  0  0  0  0  0
  187.3630  177.4610  142.4090 C   0  0  2  0  0  3  0  0  0  0  0  0
  190.0090  176.3980  144.9070 C   0  0  0  0  0  3  0  0  0  0  0  0
  185.6770  178.9850  147.0440 C   0  0  0  0  0  3  0  0  0  0  0  0
  190.0970  178.0310  143.1120 C   0  0  0  0  0  0  0  0  0  0  0  0
  191.4820  178.1260  143.2830 C   0  0  0  0  0  3  0  0  0  0  0  0
  185.8360  177.4480  142.3710 C   0  0  0  0  0  2  0  0  0  0  0  0
  185.8460  178.3970  144.6970 C   0  0  0  0  0  0  0  0  0  0  0  0
  185.1530  179.0030  145.7510 C   0  0  0  0  0  3  0  0  0  0  0  0
  187.4950  179.2120  140.7280 O   0  0  0  0  0  0  0  0  0  0  0  0
  186.7220  178.0060  138.8040 C   0  0  0  0  0  1  0  0  0  0  0  0
  187.8350  178.1820  139.8370 C   0  0  1  0  0  3  0  0  0  0  0  0
  189.0750  177.0090  136.3910 C   0  0  1  0  0  3  0  0  0  0  0  0
  188.8650  179.1400  137.7320 C   0  0  0  0  0  2  0  0  0  0  0  0
  190.2000  176.2370  140.0950 O   0  0  0  0  0  0  0  0  0  0  0  0
  188.3980  176.1780  135.3220 C   0  0  0  0  0  1  0  0  0  0  0  0
  188.1610  178.1680  136.7810 C   0  0  0  0  0  2  0  0  0  0  0  0
  190.2590  177.0870  138.8350 S   0  0  2  0  0  0  0  0  0  0  0  0
  189.1480  178.5040  139.0970 C   0  0  2  0  0  3  0  0  0  0  0  0
  189.3830  176.1240  137.5910 C   0  0  0  0  0  2  0  0  0  0  0  0
  1  9  1  0  0  0  0
  2  5  1  6  0  0  0
  2  3  1  0  0  0  0
  3  7  1  0  0  0  0
  4 11  1  0  0  0  0
  5 14  2  0  0  0  0
  6  1  2  0  0  0  0
  7  4  2  0  0  0  0
  8 21  1  6  0  0  0
  8 13  1  0  0  0  0
 10 19  1  0  0  0  0
 12  8  1  0  0  0  0
 12 16  1  0  0  0  0
 13 18  1  1  0  0  0
 13  2  1  0  0  0  0
 14  1  1  0  0  0  0
 15  4  1  0  0  0  0
 16 17  2  0  0  0  0
 16  5  1  0  0  0  0
 17  6  1  0  0  0  0
 18 10  1  0  0  0  0
 19  3  2  0  0  0  0
 19 20  1  0  0  0  0
 20 15  2  0  0  0  0
 23 22  1  6  0  0  0
 23 21  1  0  0  0  0
 24 27  1  6  0  0  0
 24 28  1  0  0  0  0
 24 31  1  0  0  0  0
 25 30  1  0  0  0  0
 28 25  1  0  0  0  0
 29 30  1  0  0  0  0
 29 26  2  1  0  0  0
 30 23  1  6  0  0  0
 31 29  1  0  0  0  0
M  END
>  <MODEL>
2

>  <REMARK>
 VINA RESULT:      -8.8      2.580      3.442
  Name = 
  3 active torsions:
  status: ('A' for Active; 'I' for Inactive)
    1  A    between atoms: C_5  and  O_16
    2  A    between atoms: C_5  and  C_30
    3  A    between atoms: C_10  and  O_16
                            x       y       z     vdW  Elec       q    Type
                         _______ _______ _______ _____ _____    ______ ____

>  <TORSDO>
F 3

$$$$
=
 OpenBabel11122410573D

 31 35  0  0  1  0  0  0  0  0999 V2000
  189.1890  176.7010  141.8780 C   0  0  0  0  0  0  0  0  0  0  0  0
  186.5180  177.2080  144.5370 C   0  0  2  0  0  3  0  0  0  0  0  0
  187.2480  177.6620  145.7960 C   0  0  0  0  0  0  0  0  0  0  0  0
  189.2960  177.7600  147.1110 C   0  0  0  0  0  0  0  0  0  0  0  0
  187.3280  177.3970  143.2760 C   0  0  0  0  0  0  0  0  0  0  0  0
  188.9340  177.7590  141.0040 C   0  0  0  0  0  3  0  0  0  0  0  0
  188.6250  177.4240  145.9340 C   0  0  0  0  0  3  0  0  0  0  0  0
  185.1990  179.2760  143.9040 C   0  0  2  0  0  3  0  0  0  0  0  0
  190.2400  175.8300  141.6260 O   0  0  0  0  0  1  0  0  0  0  0  0
  185.0710  178.4930  146.8280 C   0  0  0  0  0  2  0  0  0  0  0  0
  191.0160  177.4700  147.2490 Cl  0  0  0  0  0  0  0  0  0  0  0  0
  185.8530  179.3320  142.5230 C   0  0  0  0  0  2  0  0  0  0  0  0
  185.1110  177.8220  144.4000 C   0  0  2  0  0  3  0  0  0  0  0  0
  188.3870  176.5200  143.0070 C   0  0  0  0  0  3  0  0  0  0  0  0
  188.5940  178.3200  148.1780 C   0  0  0  0  0  3  0  0  0  0  0  0
  187.0670  178.4610  142.3860 C   0  0  0  0  0  0  0  0  0  0  0  0
  187.8700  178.6290  141.2520 C   0  0  0  0  0  3  0  0  0  0  0  0
  184.3700  177.6980  145.7300 C   0  0  0  0  0  2  0  0  0  0  0  0
  186.5380  178.1950  146.8980 C   0  0  0  0  0  0  0  0  0  0  0  0
  187.2200  178.5380  148.0700 C   0  0  0  0  0  3  0  0  0  0  0  0
  183.9260  179.8610  143.8090 O   0  0  0  0  0  0  0  0  0  0  0  0
  181.9850  178.4800  144.0880 C   0  0  0  0  0  1  0  0  0  0  0  0
  183.1030  178.9340  143.1500 C   0  0  1  0  0  3  0  0  0  0  0  0
  180.3770  177.5470  140.8180 C   0  0  1  0  0  3  0  0  0  0  0  0
  180.9490  179.6790  142.0480 C   0  0  0  0  0  2  0  0  0  0  0  0
  184.2470  178.2030  140.3930 O   0  0  0  0  0  0  0  0  0  0  0  0
  179.5470  176.2850  140.9030 C   0  0  0  0  0  1  0  0  0  0  0  0
  180.2690  178.3100  142.1370 C   0  0  0  0  0  2  0  0  0  0  0  0
  182.8010  178.6750  140.3360 S   0  0  2  0  0  0  0  0  0  0  0  0
  182.4680  179.5580  141.8920 C   0  0  2  0  0  3  0  0  0  0  0  0
  181.8220  177.1750  140.5160 C   0  0  0  0  0  2  0  0  0  0  0  0
  1 14  1  0  0  0  0
  2  5  1  6  0  0  0
  2  3  1  0  0  0  0
  3  7  2  0  0  0  0
  3 19  1  0  0  0  0
  4 11  1  0  0  0  0
  4 15  2  0  0  0  0
  6 17  1  0  0  0  0
  6  1  2  0  0  0  0
  7  4  1  0  0  0  0
  8 21  1  6  0  0  0
  8 13  1  0  0  0  0
  9  1  1  0  0  0  0
 10 19  1  0  0  0  0
 12  8  1  0  0  0  0
 13  2  1  0  0  0  0
 13 18  1  1  0  0  0
 14  5  2  0  0  0  0
 16 12  1  0  0  0  0
 16  5  1  0  0  0  0
 17 16  2  0  0  0  0
 18 10  1  0  0  0  0
 19 20  2  0  0  0  0
 20 15  1  0  0  0  0
 23 21  1  0  0  0  0
 23 22  1  1  0  0  0
 24 27  1  1  0  0  0
 24 28  1  0  0  0  0
 25 28  1  0  0  0  0
 29 26  2  1  0  0  0
 29 31  1  0  0  0  0
 29 30  1  0  0  0  0
 30 25  1  0  0  0  0
 30 23  1  1  0  0  0
 31 24  1  0  0  0  0
M  END
>  <MODEL>
3

>  <REMARK>
 VINA RESULT:      -8.3      2.026      2.516
  Name = 
  3 active torsions:
  status: ('A' for Active; 'I' for Inactive)
    1  A    between atoms: C_5  and  O_16
    2  A    between atoms: C_5  and  C_30
    3  A    between atoms: C_10  and  O_16
                            x       y       z     vdW  Elec       q    Type
                         _______ _______ _______ _____ _____    ______ ____

>  <TORSDO>
F 3

$$$$
=
 OpenBabel11122410573D

 31 35  0  0  1  0  0  0  0  0999 V2000
  183.8450  178.7350  142.6700 C   0  0  0  0  0  0  0  0  0  0  0  0
  182.8690  177.6940  139.1450 C   0  0  2  0  0  3  0  0  0  0  0  0
  181.9010  178.7560  138.6370 C   0  0  0  0  0  0  0  0  0  0  0  0
  180.2860  180.5170  139.1100 C   0  0  0  0  0  0  0  0  0  0  0  0
  183.7060  178.1580  140.3140 C   0  0  0  0  0  0  0  0  0  0  0  0
  185.1780  179.1120  142.5040 C   0  0  0  0  0  3  0  0  0  0  0  0
  181.2350  179.5930  139.5480 C   0  0  0  0  0  3  0  0  0  0  0  0
  184.8900  178.0540  137.6600 C   0  0  2  0  0  3  0  0  0  0  0  0
  183.2450  178.8360  143.9180 O   0  0  0  0  0  1  0  0  0  0  0  0
  182.2190  177.9790  136.2310 C   0  0  0  0  0  2  0  0  0  0  0  0
  179.4850  181.5610  140.2650 Cl  0  0  0  0  0  0  0  0  0  0  0  0
  185.7970  178.2950  138.8670 C   0  0  0  0  0  2  0  0  0  0  0  0
  183.7460  177.0930  138.0290 C   0  0  2  0  0  3  0  0  0  0  0  0
  183.1130  178.2570  141.5810 C   0  0  0  0  0  3  0  0  0  0  0  0
  179.9710  180.6040  137.7550 C   0  0  0  0  0  3  0  0  0  0  0  0
  185.0570  178.5320  140.1510 C   0  0  0  0  0  0  0  0  0  0  0  0
  185.7840  179.0010  141.2500 C   0  0  0  0  0  3  0  0  0  0  0  0
  182.8690  176.7350  136.8300 C   0  0  0  0  0  2  0  0  0  0  0  0
  181.5460  178.8250  137.2690 C   0  0  0  0  0  0  0  0  0  0  0  0
  180.6010  179.7620  136.8380 C   0  0  0  0  0  3  0  0  0  0  0  0
  185.6760  177.5360  136.6190 O   0  0  0  0  0  0  0  0  0  0  0  0
  186.4180  175.3240  137.1750 C   0  0  0  0  0  1  0  0  0  0  0  0
  186.7240  176.8200  137.2190 C   0  0  1  0  0  3  0  0  0  0  0  0
  190.2680  177.2870  138.6370 C   0  0  1  0  0  3  0  0  0  0  0  0
  189.0820  175.9870  136.8240 C   0  0  0  0  0  2  0  0  0  0  0  0
  187.7000  179.7140  136.8750 O   0  0  0  0  0  0  0  0  0  0  0  0
  190.7910  177.1890  140.0540 C   0  0  0  0  0  1  0  0  0  0  0  0
  189.4870  176.0190  138.3010 C   0  0  0  0  0  2  0  0  0  0  0  0
  188.8250  178.6900  136.8130 S   0  0  2  0  0  0  0  0  0  0  0  0
  188.0560  177.0740  136.4870 C   0  0  2  0  0  3  0  0  0  0  0  0
  189.3880  178.5230  138.5150 C   0  0  0  0  0  2  0  0  0  0  0  0
  1  9  1  0  0  0  0
  2  3  1  6  0  0  0
  2  5  1  0  0  0  0
  3  7  1  0  0  0  0
  4  7  2  0  0  0  0
  4 11  1  0  0  0  0
  5 14  1  0  0  0  0
  6  1  1  0  0  0  0
  8 21  1  6  0  0  0
  8 13  1  0  0  0  0
  8 12  1  0  0  0  0
 10 18  1  0  0  0  0
 10 19  1  0  0  0  0
 12 16  1  0  0  0  0
 13 18  1  6  0  0  0
 13  2  1  0  0  0  0
 14  1  2  0  0  0  0
 15  4  1  0  0  0  0
 16  5  2  0  0  0  0
 16 17  1  0  0  0  0
 17  6  2  0  0  0  0
 19  3  2  0  0  0  0
 20 19  1  0  0  0  0
 20 15  2  0  0  0  0
 21 23  1  0  0  0  0
 23 22  1  6  0  0  0
 24 27  1  1  0  0  0
 25 28  1  0  0  0  0
 28 24  1  0  0  0  0
 29 26  2  1  0  0  0
 29 31  1  0  0  0  0
 30 29  1  0  0  0  0
 30 25  1  0  0  0  0
 30 23  1  1  0  0  0
 31 24  1  0  0  0  0
M  END
>  <MODEL>
4

>  <REMARK>
 VINA RESULT:      -8.3      3.939      7.428
  Name = 
  3 active torsions:
  status: ('A' for Active; 'I' for Inactive)
    1  A    between atoms: C_5  and  O_16
    2  A    between atoms: C_5  and  C_30
    3  A    between atoms: C_10  and  O_16
                            x       y       z     vdW  Elec       q    Type
                         _______ _______ _______ _____ _____    ______ ____

>  <TORSDO>
F 3

$$$$
=
 OpenBabel11122410573D

 31 35  0  0  1  0  0  0  0  0999 V2000
  179.7560  178.0840  141.8740 C   0  0  0  0  0  0  0  0  0  0  0  0
  183.1160  178.8520  140.2680 C   0  0  2  0  0  3  0  0  0  0  0  0
  184.1690  178.6200  141.3460 C   0  0  0  0  0  0  0  0  0  0  0  0
  184.7560  178.4790  143.7050 C   0  0  0  0  0  0  0  0  0  0  0  0
  181.7990  178.1730  140.5630 C   0  0  0  0  0  0  0  0  0  0  0  0
  179.3890  176.9010  141.2300 C   0  0  0  0  0  3  0  0  0  0  0  0
  183.7970  178.6100  142.7000 C   0  0  0  0  0  3  0  0  0  0  0  0
  183.6130  176.9930  138.6210 C   0  0  2  0  0  3  0  0  0  0  0  0
  178.9310  178.6280  142.8480 O   0  0  0  0  0  1  0  0  0  0  0  0
  186.0230  178.5470  139.5990 C   0  0  0  0  0  2  0  0  0  0  0  0
  184.2640  178.4490  145.3840 Cl  0  0  0  0  0  0  0  0  0  0  0  0
  182.1940  176.4380  138.7410 C   0  0  0  0  0  2  0  0  0  0  0  0
  183.6180  178.5150  138.8510 C   0  0  2  0  0  3  0  0  0  0  0  0
  180.9540  178.7180  141.5400 C   0  0  0  0  0  3  0  0  0  0  0  0
  186.1060  178.3780  143.3720 C   0  0  0  0  0  3  0  0  0  0  0  0
  181.4220  176.9820  139.9070 C   0  0  0  0  0  0  0  0  0  0  0  0
  180.2150  176.3580  140.2430 C   0  0  0  0  0  3  0  0  0  0  0  0
  184.9970  179.1370  138.6370 C   0  0  0  0  0  2  0  0  0  0  0  0
  185.5450  178.5570  141.0190 C   0  0  0  0  0  0  0  0  0  0  0  0
  186.4980  178.4160  142.0330 C   0  0  0  0  0  3  0  0  0  0  0  0
  184.1030  176.6680  137.3450 O   0  0  0  0  0  0  0  0  0  0  0  0
  184.1360  174.2980  137.7120 C   0  0  0  0  0  1  0  0  0  0  0  0
  184.9610  175.5680  137.5090 C   0  0  1  0  0  3  0  0  0  0  0  0
  188.1040  177.5030  136.4300 C   0  0  1  0  0  3  0  0  0  0  0  0
  187.3110  175.1170  136.6850 C   0  0  0  0  0  2  0  0  0  0  0  0
  184.4250  177.2810  135.0150 O   0  0  0  0  0  0  0  0  0  0  0  0
  188.8790  178.6030  137.1240 C   0  0  0  0  0  1  0  0  0  0  0  0
  187.9370  176.3260  137.3880 C   0  0  0  0  0  2  0  0  0  0  0  0
  185.8560  176.7680  135.0940 S   0  0  2  0  0  0  0  0  0  0  0  0
  185.8600  175.3810  136.2720 C   0  0  2  0  0  3  0  0  0  0  0  0
  186.7530  178.0480  135.9880 C   0  0  0  0  0  2  0  0  0  0  0  0
  1  9  1  0  0  0  0
  2  5  1  1  0  0  0
  2  3  1  0  0  0  0
  3  7  1  0  0  0  0
  4 11  1  0  0  0  0
  5 14  2  0  0  0  0
  6  1  2  0  0  0  0
  7  4  2  0  0  0  0
  8 21  1  6  0  0  0
  8 12  1  0  0  0  0
  8 13  1  0  0  0  0
 10 19  1  0  0  0  0
 12 16  1  0  0  0  0
 13 18  1  1  0  0  0
 13  2  1  0  0  0  0
 14  1  1  0  0  0  0
 15  4  1  0  0  0  0
 16 17  2  0  0  0  0
 16  5  1  0  0  0  0
 17  6  1  0  0  0  0
 18 10  1  0  0  0  0
 19  3  2  0  0  0  0
 19 20  1  0  0  0  0
 20 15  2  0  0  0  0
 21 23  1  0  0  0  0
 23 22  1  6  0  0  0
 24 27  1  1  0  0  0
 24 28  1  0  0  0  0
 25 28  1  0  0  0  0
 29 26  2  1  0  0  0
 29 31  1  0  0  0  0
 29 30  1  0  0  0  0
 30 25  1  0  0  0  0
 30 23  1  1  0  0  0
 31 24  1  0  0  0  0
M  END
>  <MODEL>
5

>  <REMARK>
 VINA RESULT:      -8.1      3.226      6.405
  Name = 
  3 active torsions:
  status: ('A' for Active; 'I' for Inactive)
    1  A    between atoms: C_5  and  O_16
    2  A    between atoms: C_5  and  C_30
    3  A    between atoms: C_10  and  O_16
                            x       y       z     vdW  Elec       q    Type
                         _______ _______ _______ _____ _____    ______ ____

>  <TORSDO>
F 3

$$$$
=
 OpenBabel11122410573D

 31 35  0  0  1  0  0  0  0  0999 V2000
  191.0500  177.1030  141.9730 C   0  0  0  0  0  0  0  0  0  0  0  0
  189.9650  178.1070  138.4700 C   0  0  2  0  0  3  0  0  0  0  0  0
  190.3050  176.9300  137.5620 C   0  0  0  0  0  0  0  0  0  0  0  0
  191.6280  174.9310  137.1290 C   0  0  0  0  0  0  0  0  0  0  0  0
  189.8940  177.7330  139.9310 C   0  0  0  0  0  0  0  0  0  0  0  0
  189.8250  176.9350  142.6210 C   0  0  0  0  0  3  0  0  0  0  0  0
  191.2440  175.9720  137.9760 C   0  0  0  0  0  3  0  0  0  0  0  0
  187.4320  178.1040  138.4290 C   0  0  2  0  0  3  0  0  0  0  0  0
  192.2340  176.8700  142.6580 O   0  0  0  0  0  1  0  0  0  0  0  0
  188.7790  177.8290  135.7290 C   0  0  0  0  0  2  0  0  0  0  0  0
  192.7880  173.7410  137.6770 Cl  0  0  0  0  0  0  0  0  0  0  0  0
  187.3570  177.9610  139.9490 C   0  0  0  0  0  2  0  0  0  0  0  0
  188.7030  178.8700  138.0220 C   0  0  2  0  0  3  0  0  0  0  0  0
  191.0840  177.5030  140.6360 C   0  0  0  0  0  3  0  0  0  0  0  0
  191.0930  174.8450  135.8440 C   0  0  0  0  0  3  0  0  0  0  0  0
  188.6570  177.5720  140.5910 C   0  0  0  0  0  0  0  0  0  0  0  0
  188.6330  177.1790  141.9340 C   0  0  0  0  0  3  0  0  0  0  0  0
  188.7750  179.1340  136.5190 C   0  0  0  0  0  2  0  0  0  0  0  0
  189.7960  176.8560  136.2430 C   0  0  0  0  0  0  0  0  0  0  0  0
  190.1790  175.8040  135.4040 C   0  0  0  0  0  3  0  0  0  0  0  0
  186.2740  178.7700  137.9950 O   0  0  0  0  0  0  0  0  0  0  0  0
  186.1300  176.4960  137.2480 C   0  0  0  0  0  1  0  0  0  0  0  0
  185.3700  177.7800  137.5780 C   0  0  1  0  0  3  0  0  0  0  0  0
  181.5360  178.0680  137.5200 C   0  0  1  0  0  3  0  0  0  0  0  0
  183.3280  176.4250  138.2110 C   0  0  0  0  0  2  0  0  0  0  0  0
  184.3880  180.0770  139.3680 O   0  0  0  0  0  0  0  0  0  0  0  0
  180.5840  178.4210  136.3980 C   0  0  0  0  0  1  0  0  0  0  0  0
  182.4590  176.9420  137.0600 C   0  0  0  0  0  2  0  0  0  0  0  0
  183.4100  178.9130  139.2960 S   0  0  2  0  0  0  0  0  0  0  0  0
  184.3400  177.4750  138.6830 C   0  0  2  0  0  3  0  0  0  0  0  0
  182.3310  179.3060  137.9090 C   0  0  0  0  0  2  0  0  0  0  0  0
  1  6  1  0  0  0  0
  1  9  1  0  0  0  0
  2  3  1  6  0  0  0
  2  5  1  0  0  0  0
  3  7  1  0  0  0  0
  4 11  1  0  0  0  0
  4  7  2  0  0  0  0
  5 16  2  0  0  0  0
  5 14  1  0  0  0  0
  8 21  1  1  0  0  0
  8 12  1  0  0  0  0
 10 19  1  0  0  0  0
 10 18  1  0  0  0  0
 12 16  1  0  0  0  0
 13 18  1  6  0  0  0
 13  8  1  0  0  0  0
 13  2  1  0  0  0  0
 14  1  2  0  0  0  0
 15  4  1  0  0  0  0
 16 17  1  0  0  0  0
 17  6  2  0  0  0  0
 19  3  2  0  0  0  0
 20 15  2  0  0  0  0
 20 19  1  0  0  0  0
 23 22  1  1  0  0  0
 23 21  1  0  0  0  0
 24 27  1  6  0  0  0
 24 31  1  0  0  0  0
 25 30  1  0  0  0  0
 28 24  1  0  0  0  0
 28 25  1  0  0  0  0
 29 26  2  6  0  0  0
 30 23  1  6  0  0  0
 30 29  1  0  0  0  0
 31 29  1  0  0  0  0
M  END
>  <MODEL>
6

>  <REMARK>
 VINA RESULT:      -8.0      3.711      6.450
  Name = 
  3 active torsions:
  status: ('A' for Active; 'I' for Inactive)
    1  A    between atoms: C_5  and  O_16
    2  A    between atoms: C_5  and  C_30
    3  A    between atoms: C_10  and  O_16
                            x       y       z     vdW  Elec       q    Type
                         _______ _______ _______ _____ _____    ______ ____

>  <TORSDO>
F 3

$$$$
=
 OpenBabel11122410573D

 31 35  0  0  1  0  0  0  0  0999 V2000
  179.7130  178.5440  142.1740 C   0  0  0  0  0  0  0  0  0  0  0  0
  183.1180  179.0170  140.5470 C   0  0  2  0  0  3  0  0  0  0  0  0
  184.1530  178.7400  141.6320 C   0  0  0  0  0  0  0  0  0  0  0  0
  184.7330  178.6250  143.9950 C   0  0  0  0  0  0  0  0  0  0  0  0
  181.7550  178.4450  140.8620 C   0  0  0  0  0  0  0  0  0  0  0  0
  179.2590  177.3730  141.5650 C   0  0  0  0  0  3  0  0  0  0  0  0
  183.7840  178.7960  142.9860 C   0  0  0  0  0  3  0  0  0  0  0  0
  183.4740  177.0780  138.9560 C   0  0  2  0  0  3  0  0  0  0  0  0
  178.9320  179.1760  143.1320 O   0  0  0  0  0  1  0  0  0  0  0  0
  185.9940  178.4790  139.8890 C   0  0  0  0  0  2  0  0  0  0  0  0
  184.2420  178.6810  145.6740 Cl  0  0  0  0  0  0  0  0  0  0  0  0
  182.0180  176.6320  139.0920 C   0  0  0  0  0  2  0  0  0  0  0  0
  183.5910  178.6020  139.1410 C   0  0  2  0  0  3  0  0  0  0  0  0
  180.9540  179.0780  141.8220 C   0  0  0  0  0  3  0  0  0  0  0  0
  186.0710  178.4160  143.6650 C   0  0  0  0  0  3  0  0  0  0  0  0
  181.2900  177.2660  140.2410 C   0  0  0  0  0  0  0  0  0  0  0  0
  180.0410  176.7430  140.5950 C   0  0  0  0  0  3  0  0  0  0  0  0
  185.0110  179.1150  138.9100 C   0  0  0  0  0  2  0  0  0  0  0  0
  185.5200  178.5660  141.3080 C   0  0  0  0  0  0  0  0  0  0  0  0
  186.4620  178.3850  142.3250 C   0  0  0  0  0  3  0  0  0  0  0  0
  183.9370  176.6810  137.6910 O   0  0  0  0  0  0  0  0  0  0  0  0
  182.4850  177.7370  136.1000 C   0  0  0  0  0  1  0  0  0  0  0  0
  182.8010  176.4690  136.8930 C   0  0  1  0  0  3  0  0  0  0  0  0
  180.6290  173.3810  136.1580 C   0  0  1  0  0  3  0  0  0  0  0  0
  181.8680  175.1980  134.9120 C   0  0  0  0  0  2  0  0  0  0  0  0
  184.1320  173.8910  137.9070 O   0  0  0  0  0  0  0  0  0  0  0  0
  179.2650  172.9820  136.6760 C   0  0  0  0  0  1  0  0  0  0  0  0
  180.5610  174.8040  135.6060 C   0  0  0  0  0  2  0  0  0  0  0  0
  183.2820  173.6770  136.6620 S   0  0  2  0  0  0  0  0  0  0  0  0
  183.0320  175.3110  135.9020 C   0  0  2  0  0  3  0  0  0  0  0  0
  181.6420  173.2790  137.2900 C   0  0  0  0  0  2  0  0  0  0  0  0
  1  9  1  0  0  0  0
  2  5  1  1  0  0  0
  2  3  1  0  0  0  0
  3  7  1  0  0  0  0
  4 11  1  0  0  0  0
  5 14  2  0  0  0  0
  6  1  2  0  0  0  0
  7  4  2  0  0  0  0
  8 21  1  6  0  0  0
  8 12  1  0  0  0  0
  8 13  1  0  0  0  0
 10 19  1  0  0  0  0
 12 16  1  0  0  0  0
 13 18  1  1  0  0  0
 13  2  1  0  0  0  0
 14  1  1  0  0  0  0
 15  4  1  0  0  0  0
 16 17  2  0  0  0  0
 16  5  1  0  0  0  0
 17  6  1  0  0  0  0
 18 10  1  0  0  0  0
 19  3  2  0  0  0  0
 19 20  1  0  0  0  0
 20 15  2  0  0  0  0
 23 22  1  6  0  0  0
 23 21  1  0  0  0  0
 24 27  1  1  0  0  0
 24 31  1  0  0  0  0
 25 28  1  0  0  0  0
 25 30  1  0  0  0  0
 28 24  1  0  0  0  0
 29 31  1  0  0  0  0
 29 26  2  1  0  0  0
 30 29  1  0  0  0  0
 30 23  1  1  0  0  0
M  END
>  <MODEL>
7

>  <REMARK>
 VINA RESULT:      -7.8      3.203      6.339
  Name = 
  3 active torsions:
  status: ('A' for Active; 'I' for Inactive)
    1  A    between atoms: C_5  and  O_16
    2  A    between atoms: C_5  and  C_30
    3  A    between atoms: C_10  and  O_16
                            x       y       z     vdW  Elec       q    Type
                         _______ _______ _______ _____ _____    ______ ____

>  <TORSDO>
F 3

$$$$
=
 OpenBabel11122410573D

 31 35  0  0  1  0  0  0  0  0999 V2000
  179.7280  178.9110  143.0380 C   0  0  0  0  0  0  0  0  0  0  0  0
  182.9120  179.2990  140.9960 C   0  0  2  0  0  3  0  0  0  0  0  0
  184.0540  178.8280  141.8900 C   0  0  0  0  0  0  0  0  0  0  0  0
  184.9330  178.4120  144.1230 C   0  0  0  0  0  0  0  0  0  0  0  0
  181.5590  178.8010  141.4440 C   0  0  0  0  0  0  0  0  0  0  0  0
  179.0930  177.8500  142.3880 C   0  0  0  0  0  3  0  0  0  0  0  0
  183.8770  178.7640  143.2810 C   0  0  0  0  0  3  0  0  0  0  0  0
  182.8770  177.5250  139.1880 C   0  0  2  0  0  3  0  0  0  0  0  0
  179.1420  179.4910  144.1540 O   0  0  0  0  0  1  0  0  0  0  0  0
  185.6140  178.6210  139.8850 C   0  0  0  0  0  2  0  0  0  0  0  0
  184.6790  178.3220  145.8520 Cl  0  0  0  0  0  0  0  0  0  0  0  0
  181.4180  177.1780  139.4870 C   0  0  0  0  0  2  0  0  0  0  0  0
  183.1540  179.0060  139.5030 C   0  0  2  0  0  3  0  0  0  0  0  0
  180.9540  179.3850  142.5660 C   0  0  0  0  0  3  0  0  0  0  0  0
  186.1910  178.1400  143.5870 C   0  0  0  0  0  3  0  0  0  0  0  0
  180.9100  177.7350  140.7840 C   0  0  0  0  0  0  0  0  0  0  0  0
  179.6780  177.2730  141.2590 C   0  0  0  0  0  3  0  0  0  0  0  0
  184.5710  179.4320  139.1220 C   0  0  0  0  0  2  0  0  0  0  0  0
  185.3440  178.5880  141.3590 C   0  0  0  0  0  0  0  0  0  0  0  0
  186.3940  178.2260  142.2090 C   0  0  0  0  0  3  0  0  0  0  0  0
  183.1280  177.2340  137.8380 O   0  0  0  0  0  0  0  0  0  0  0  0
  182.9100  174.8910  138.3050 C   0  0  0  0  0  1  0  0  0  0  0  0
  183.8210  176.0130  137.8080 C   0  0  1  0  0  3  0  0  0  0  0  0
  186.5480  173.5820  136.6070 C   0  0  1  0  0  3  0  0  0  0  0  0
  184.1460  174.1770  136.0970 C   0  0  0  0  0  2  0  0  0  0  0  0
  186.2310  177.5170  136.6360 O   0  0  0  0  0  0  0  0  0  0  0  0
  187.4190  172.6100  137.3740 C   0  0  0  0  0  1  0  0  0  0  0  0
  185.0850  173.3400  136.9710 C   0  0  0  0  0  2  0  0  0  0  0  0
  185.9910  176.1650  135.9790 S   0  0  2  0  0  0  0  0  0  0  0  0
  184.2840  175.6760  136.3780 C   0  0  2  0  0  3  0  0  0  0  0  0
  186.9700  175.0050  136.9460 C   0  0  0  0  0  2  0  0  0  0  0  0
  1  9  1  0  0  0  0
  2  5  1  1  0  0  0
  2  3  1  0  0  0  0
  3  7  1  0  0  0  0
  4 11  1  0  0  0  0
  5 14  2  0  0  0  0
  6  1  2  0  0  0  0
  7  4  2  0  0  0  0
  8 21  1  6  0  0  0
  8 12  1  0  0  0  0
  8 13  1  0  0  0  0
 10 19  1  0  0  0  0
 12 16  1  0  0  0  0
 13 18  1  1  0  0  0
 13  2  1  0  0  0  0
 14  1  1  0  0  0  0
 15  4  1  0  0  0  0
 16 17  2  0  0  0  0
 16  5  1  0  0  0  0
 17  6  1  0  0  0  0
 18 10  1  0  0  0  0
 19  3  2  0  0  0  0
 19 20  1  0  0  0  0
 20 15  2  0  0  0  0
 23 21  1  0  0  0  0
 23 22  1  6  0  0  0
 24 31  1  0  0  0  0
 24 28  1  0  0  0  0
 24 27  1  1  0  0  0
 25 30  1  0  0  0  0
 25 28  1  0  0  0  0
 29 30  1  0  0  0  0
 29 26  2  1  0  0  0
 29 31  1  0  0  0  0
 30 23  1  1  0  0  0
M  END
>  <MODEL>
8

>  <REMARK>
 VINA RESULT:      -7.6      2.996      6.253
  Name = 
  3 active torsions:
  status: ('A' for Active; 'I' for Inactive)
    1  A    between atoms: C_5  and  O_16
    2  A    between atoms: C_5  and  C_30
    3  A    between atoms: C_10  and  O_16
                            x       y       z     vdW  Elec       q    Type
                         _______ _______ _______ _____ _____    ______ ____

>  <TORSDO>
F 3

$$$$
=
 OpenBabel11122410573D

 31 35  0  0  1  0  0  0  0  0999 V2000
  191.1120  177.1150  141.8940 C   0  0  0  0  0  0  0  0  0  0  0  0
  189.9330  178.0590  138.4040 C   0  0  2  0  0  3  0  0  0  0  0  0
  190.2830  176.8810  137.5010 C   0  0  0  0  0  0  0  0  0  0  0  0
  191.6450  174.9120  137.0590 C   0  0  0  0  0  0  0  0  0  0  0  0
  189.9000  177.6980  139.8710 C   0  0  0  0  0  0  0  0  0  0  0  0
  189.9040  176.9240  142.5680 C   0  0  0  0  0  3  0  0  0  0  0  0
  191.2530  175.9510  137.9040 C   0  0  0  0  0  3  0  0  0  0  0  0
  187.4000  177.9950  138.4150 C   0  0  2  0  0  3  0  0  0  0  0  0
  192.3150  176.9170  142.5570 O   0  0  0  0  0  1  0  0  0  0  0  0
  188.6990  177.7260  135.6910 C   0  0  0  0  0  2  0  0  0  0  0  0
  192.8440  173.7550  137.5950 Cl  0  0  0  0  0  0  0  0  0  0  0  0
  187.3590  177.8640  139.9380 C   0  0  0  0  0  2  0  0  0  0  0  0
  188.6440  178.7870  137.9750 C   0  0  2  0  0  3  0  0  0  0  0  0
  191.1090  177.5020  140.5530 C   0  0  0  0  0  3  0  0  0  0  0  0
  191.0870  174.8000  135.7860 C   0  0  0  0  0  3  0  0  0  0  0  0
  188.6800  177.5130  140.5570 C   0  0  0  0  0  0  0  0  0  0  0  0
  188.6930  177.1330  141.9030 C   0  0  0  0  0  3  0  0  0  0  0  0
  188.6790  179.0380  136.4680 C   0  0  0  0  0  2  0  0  0  0  0  0
  189.7500  176.7830  136.1930 C   0  0  0  0  0  0  0  0  0  0  0  0
  190.1410  175.7320  135.3570 C   0  0  0  0  0  3  0  0  0  0  0  0
  186.2180  178.6290  137.9980 O   0  0  0  0  0  0  0  0  0  0  0  0
  183.8780  178.2360  138.3460 C   0  0  0  0  0  1  0  0  0  0  0  0
  185.2250  177.6370  137.9430 C   0  0  1  0  0  3  0  0  0  0  0  0
  182.9550  174.8350  136.6090 C   0  0  1  0  0  3  0  0  0  0  0  0
  183.6670  177.1820  136.0010 C   0  0  0  0  0  2  0  0  0  0  0  0
  186.8440  175.1280  137.2190 O   0  0  0  0  0  0  0  0  0  0  0  0
  181.8600  174.0390  137.2850 C   0  0  0  0  0  1  0  0  0  0  0  0
  182.6880  176.3260  136.8090 C   0  0  0  0  0  2  0  0  0  0  0  0
  185.6140  175.3210  136.3440 S   0  0  2  0  0  0  0  0  0  0  0  0
  185.1030  177.0580  136.5200 C   0  0  2  0  0  3  0  0  0  0  0  0
  184.3000  174.4340  137.1970 C   0  0  0  0  0  2  0  0  0  0  0  0
  1  9  1  0  0  0  0
  1  6  1  0  0  0  0
  2  3  1  6  0  0  0
  2  5  1  0  0  0  0
  3  7  1  0  0  0  0
  4 11  1  0  0  0  0
  4  7  2  0  0  0  0
  5 14  1  0  0  0  0
  5 16  2  0  0  0  0
  8 21  1  1  0  0  0
  8 12  1  0  0  0  0
 10 19  1  0  0  0  0
 10 18  1  0  0  0  0
 12 16  1  0  0  0  0
 13 18  1  6  0  0  0
 13  2  1  0  0  0  0
 13  8  1  0  0  0  0
 14  1  2  0  0  0  0
 15  4  1  0  0  0  0
 16 17  1  0  0  0  0
 17  6  2  0  0  0  0
 19  3  2  0  0  0  0
 20 15  2  0  0  0  0
 20 19  1  0  0  0  0
 23 21  1  0  0  0  0
 23 22  1  6  0  0  0
 24 28  1  0  0  0  0
 24 31  1  0  0  0  0
 24 27  1  1  0  0  0
 25 30  1  0  0  0  0
 25 28  1  0  0  0  0
 29 30  1  0  0  0  0
 29 31  1  0  0  0  0
 29 26  2  1  0  0  0
 30 23  1  1  0  0  0
M  END
>  <MODEL>
9

>  <REMARK>
 VINA RESULT:      -7.6      3.837      6.486
  Name = 
  3 active torsions:
  status: ('A' for Active; 'I' for Inactive)
    1  A    between atoms: C_5  and  O_16
    2  A    between atoms: C_5  and  C_30
    3  A    between atoms: C_10  and  O_16
                            x       y       z     vdW  Elec       q    Type
                         _______ _______ _______ _____ _____    ______ ____

>  <TORSDO>
F 3

$$$$
