=
 OpenBabel11122411003D

 31 36  0  0  1  0  0  0  0  0999 V2000
  193.1860  174.5780  135.7300 C   0  0  0  0  0  0  0  0  0  0  0  0
  190.2610  176.7650  136.7760 C   0  0  2  0  0  3  0  0  0  0  0  0
  189.0080  175.8700  136.6030 C   0  0  1  0  0  3  0  0  0  0  0  0
  187.8630  173.6620  136.6950 C   0  0  1  0  0  3  0  0  0  0  0  0
  191.5640  176.0090  136.8300 C   0  0  0  0  0  0  0  0  0  0  0  0
  193.9180  174.4910  136.9160 C   0  0  0  0  0  3  0  0  0  0  0  0
  189.1220  174.4300  137.1040 C   0  0  0  0  0  2  0  0  0  0  0  0
  190.4610  177.1610  139.2520 C   0  0  2  0  0  3  0  0  0  0  0  0
  193.6230  173.9120  134.5940 O   0  0  0  0  0  1  0  0  0  0  0  0
  187.7930  177.8810  137.0010 O   0  0  0  0  0  0  0  0  0  0  0  0
  187.9360  172.2470  137.2280 C   0  0  0  0  0  1  0  0  0  0  0  0
  191.9240  176.7070  139.2480 C   0  0  0  0  0  2  0  0  0  0  0  0
  190.1200  177.8140  137.9030 C   0  0  2  0  0  3  0  0  0  0  0  0
  192.0120  175.3350  135.6870 C   0  0  0  0  0  3  0  0  0  0  0  0
  186.5930  174.3450  137.2250 C   0  0  0  0  0  2  0  0  0  0  0  0
  192.3000  175.9140  138.0290 C   0  0  0  0  0  0  0  0  0  0  0  0
  193.4800  175.1630  138.0590 C   0  0  0  0  0  3  0  0  0  0  0  0
  188.7060  178.4590  137.9110 C   0  0  0  0  0  2  0  0  0  0  0  0
  187.7980  176.5090  137.2730 C   0  0  1  0  0  3  0  0  0  0  0  0
  186.5310  175.8150  136.7980 C   0  0  0  0  0  2  0  0  0  0  0  0
  191.3340  177.8990  141.2180 O   0  0  0  0  0  0  0  0  0  0  0  0
  190.1720  177.2990  141.5770 C   0  0  2  0  0  3  0  0  0  0  0  0
  190.2570  178.0810  140.3660 N   0  0  2  0  0  0  0  0  0  0  0  0
  190.7770  177.2630  145.1410 C   0  0  1  0  0  3  0  0  0  0  0  0
  190.6540  178.8210  143.4970 C   0  0  0  0  0  2  0  0  0  0  0  0
  187.7830  176.4720  143.0760 O   0  0  0  0  0  1  0  0  0  0  0  0
  191.7100  176.4200  145.9850 C   0  0  0  0  0  1  0  0  0  0  0  0
  191.5100  177.8830  144.1110 O   0  0  0  0  0  0  0  0  0  0  0  0
  188.7550  177.2440  143.7120 C   0  0  2  0  0  3  0  0  0  0  0  0
  189.5450  178.1050  142.7160 C   0  0  2  0  0  3  0  0  0  0  0  0
  189.6840  176.3720  144.5510 C   0  0  0  0  0  2  0  0  0  0  0  0
  1  6  1  0  0  0  0
  2  5  1  1  0  0  0
  2 13  1  0  0  0  0
  3  2  1  0  0  0  0
  3  7  1  1  0  0  0
  3 19  1  0  0  0  0
  4  7  1  0  0  0  0
  4 15  1  0  0  0  0
  4 11  1  1  0  0  0
  5 16  2  0  0  0  0
  6 17  2  0  0  0  0
  8 12  1  6  0  0  0
  8 23  1  0  0  0  0
  9  1  1  0  0  0  0
 10 19  1  0  0  0  0
 10 18  1  0  0  0  0
 13 18  1  1  0  0  0
 13  8  1  0  0  0  0
 14  1  2  0  0  0  0
 14  5  1  0  0  0  0
 16 17  1  0  0  0  0
 16 12  1  0  0  0  0
 19 20  1  6  0  0  0
 20 15  1  0  0  0  0
 22 21  1  1  0  0  0
 22 30  1  0  0  0  0
 23 21  1  1  0  0  0
 23 22  1  0  0  0  0
 24 27  1  6  0  0  0
 25 28  1  0  0  0  0
 28 24  1  0  0  0  0
 29 26  1  6  0  0  0
 29 31  1  0  0  0  0
 30 25  1  1  0  0  0
 30 29  1  0  0  0  0
 31 24  1  0  0  0  0
M  END
>  <MODEL>
1

>  <REMARK>
 VINA RESULT:      -7.3      0.000      0.000
  Name = 
  2 active torsions:
  status: ('A' for Active; 'I' for Inactive)
    1  A    between atoms: C_5  and  C_30
    2  A    between atoms: C_10  and  N_16
                            x       y       z     vdW  Elec       q    Type
                         _______ _______ _______ _____ _____    ______ ____

>  <TORSDO>
F 2

$$$$
=
 OpenBabel11122411003D

 31 36  0  0  1  0  0  0  0  0999 V2000
  191.8110  176.5030  138.5500 C   0  0  0  0  0  0  0  0  0  0  0  0
  188.6870  177.2210  136.5120 C   0  0  2  0  0  3  0  0  0  0  0  0
  188.2230  175.8390  135.9860 C   0  0  1  0  0  3  0  0  0  0  0  0
  187.9290  173.3810  136.2490 C   0  0  1  0  0  3  0  0  0  0  0  0
  189.6450  177.1560  137.6730 C   0  0  0  0  0  0  0  0  0  0  0  0
  191.4190  176.9050  139.8280 C   0  0  0  0  0  3  0  0  0  0  0  0
  188.2510  174.6830  136.9870 C   0  0  0  0  0  2  0  0  0  0  0  0
  186.8940  177.9620  138.1130 C   0  0  2  0  0  3  0  0  0  0  0  0
  193.0790  175.9780  138.3460 O   0  0  0  0  0  1  0  0  0  0  0  0
  186.7020  177.1050  134.6590 O   0  0  0  0  0  0  0  0  0  0  0  0
  187.9030  172.2320  137.2340 C   0  0  0  0  0  1  0  0  0  0  0  0
  187.9270  178.2300  139.2110 C   0  0  0  0  0  2  0  0  0  0  0  0
  187.5270  178.2180  136.7350 C   0  0  2  0  0  3  0  0  0  0  0  0
  190.9270  176.6290  137.4750 C   0  0  0  0  0  3  0  0  0  0  0  0
  186.5770  173.4680  135.5250 C   0  0  0  0  0  2  0  0  0  0  0  0
  189.2470  177.5550  138.9670 C   0  0  0  0  0  0  0  0  0  0  0  0
  190.1430  177.4360  140.0340 C   0  0  0  0  0  3  0  0  0  0  0  0
  186.4770  178.1420  135.5920 C   0  0  0  0  0  2  0  0  0  0  0  0
  186.8150  175.9310  135.4100 C   0  0  1  0  0  3  0  0  0  0  0  0
  186.5210  174.6840  134.5940 C   0  0  0  0  0  2  0  0  0  0  0  0
  185.3420  178.5900  139.6530 O   0  0  0  0  0  0  0  0  0  0  0  0
  184.6190  177.9640  138.6910 C   0  0  2  0  0  3  0  0  0  0  0  0
  185.7320  178.8150  138.3420 N   0  0  2  0  0  0  0  0  0  0  0  0
  181.2290  176.9370  139.4120 C   0  0  1  0  0  3  0  0  0  0  0  0
  182.5580  178.7140  139.8830 C   0  0  0  0  0  2  0  0  0  0  0  0
  182.9640  177.9000  136.2630 O   0  0  0  0  0  1  0  0  0  0  0  0
  180.6720  175.6300  139.9350 C   0  0  0  0  0  1  0  0  0  0  0  0
  182.2320  177.4010  140.2840 O   0  0  0  0  0  0  0  0  0  0  0  0
  182.3490  178.0520  137.5060 C   0  0  2  0  0  3  0  0  0  0  0  0
  183.2870  178.6980  138.5350 C   0  0  2  0  0  3  0  0  0  0  0  0
  181.8020  176.7200  138.0120 C   0  0  0  0  0  2  0  0  0  0  0  0
  1  6  1  0  0  0  0
  2 13  1  0  0  0  0
  2  5  1  1  0  0  0
  3  2  1  0  0  0  0
  3  7  1  1  0  0  0
  4  7  1  0  0  0  0
  4 11  1  1  0  0  0
  5 16  2  0  0  0  0
  6 17  2  0  0  0  0
  8 23  1  0  0  0  0
  8 12  1  1  0  0  0
  9  1  1  0  0  0  0
 10 19  1  0  0  0  0
 10 18  1  0  0  0  0
 13 18  1  6  0  0  0
 13  8  1  0  0  0  0
 14  5  1  0  0  0  0
 14  1  2  0  0  0  0
 15  4  1  0  0  0  0
 16 12  1  0  0  0  0
 16 17  1  0  0  0  0
 19 20  1  6  0  0  0
 19  3  1  0  0  0  0
 20 15  1  0  0  0  0
 22 21  1  1  0  0  0
 23 22  1  0  0  0  0
 23 21  1  1  0  0  0
 24 27  1  1  0  0  0
 24 28  1  0  0  0  0
 25 28  1  0  0  0  0
 29 26  1  6  0  0  0
 29 31  1  0  0  0  0
 29 30  1  0  0  0  0
 30 22  1  0  0  0  0
 30 25  1  1  0  0  0
 31 24  1  0  0  0  0
M  END
>  <MODEL>
2

>  <REMARK>
 VINA RESULT:      -7.1      3.388      5.837
  Name = 
  2 active torsions:
  status: ('A' for Active; 'I' for Inactive)
    1  A    between atoms: C_5  and  C_30
    2  A    between atoms: C_10  and  N_16
                            x       y       z     vdW  Elec       q    Type
                         _______ _______ _______ _____ _____    ______ ____

>  <TORSDO>
F 2

$$$$
=
 OpenBabel11122411003D

 31 36  0  0  1  0  0  0  0  0999 V2000
  182.2840  171.3650  135.8770 C   0  0  0  0  0  0  0  0  0  0  0  0
  183.5440  174.8990  135.2830 C   0  0  2  0  0  3  0  0  0  0  0  0
  182.7210  175.7870  136.2500 C   0  0  1  0  0  3  0  0  0  0  0  0
  181.5590  176.1740  138.4180 C   0  0  1  0  0  3  0  0  0  0  0  0
  183.5310  173.4310  135.6230 C   0  0  0  0  0  0  0  0  0  0  0  0
  183.4300  170.7280  136.3570 C   0  0  0  0  0  3  0  0  0  0  0  0
  182.5310  175.2560  137.6720 C   0  0  0  0  0  2  0  0  0  0  0  0
  185.9100  175.0100  136.1290 C   0  0  2  0  0  3  0  0  0  0  0  0
  181.0940  170.6600  135.7640 O   0  0  0  0  0  1  0  0  0  0  0  0
  183.7090  177.6040  135.0660 O   0  0  0  0  0  0  0  0  0  0  0  0
  181.3980  175.6920  139.8430 C   0  0  0  0  0  1  0  0  0  0  0  0
  186.0180  173.4820  136.1480 C   0  0  0  0  0  2  0  0  0  0  0  0
  184.9620  175.4450  134.9990 C   0  0  2  0  0  3  0  0  0  0  0  0
  182.3340  172.7120  135.5110 C   0  0  0  0  0  3  0  0  0  0  0  0
  182.0520  177.6290  138.4190 C   0  0  0  0  0  2  0  0  0  0  0  0
  184.6860  172.7890  136.1150 C   0  0  0  0  0  0  0  0  0  0  0  0
  184.6290  171.4360  136.4690 C   0  0  0  0  0  3  0  0  0  0  0  0
  184.9550  176.9880  134.8110 C   0  0  0  0  0  2  0  0  0  0  0  0
  183.3270  177.1820  136.3440 C   0  0  1  0  0  3  0  0  0  0  0  0
  182.3300  178.1250  136.9970 C   0  0  0  0  0  2  0  0  0  0  0  0
  188.0750  174.8550  136.8080 O   0  0  0  0  0  0  0  0  0  0  0  0
  187.6790  176.0760  137.2440 C   0  0  2  0  0  3  0  0  0  0  0  0
  187.2460  175.5740  135.9620 N   0  0  2  0  0  0  0  0  0  0  0  0
  189.9270  177.4990  139.6920 C   0  0  1  0  0  3  0  0  0  0  0  0
  190.1080  176.4170  137.7060 C   0  0  0  0  0  2  0  0  0  0  0  0
  187.4370  179.0030  137.3690 O   0  0  0  0  0  1  0  0  0  0  0  0
  189.9860  177.3490  141.1970 C   0  0  0  0  0  1  0  0  0  0  0  0
  189.9390  176.2250  139.0930 O   0  0  0  0  0  0  0  0  0  0  0  0
  188.6210  178.3970  137.7890 C   0  0  2  0  0  3  0  0  0  0  0  0
  188.8510  177.0470  137.0950 C   0  0  2  0  0  3  0  0  0  0  0  0
  188.6530  178.2530  139.3080 C   0  0  0  0  0  2  0  0  0  0  0  0
  1  6  1  0  0  0  0
  2  5  1  1  0  0  0
  2  3  1  0  0  0  0
  3 19  1  0  0  0  0
  3  7  1  1  0  0  0
  4 15  1  0  0  0  0
  4 11  1  1  0  0  0
  5 16  2  0  0  0  0
  6 17  2  0  0  0  0
  7  4  1  0  0  0  0
  8 12  1  6  0  0  0
  9  1  1  0  0  0  0
 10 19  1  0  0  0  0
 13 18  1  1  0  0  0
 13  2  1  0  0  0  0
 13  8  1  0  0  0  0
 14  5  1  0  0  0  0
 14  1  2  0  0  0  0
 16 12  1  0  0  0  0
 16 17  1  0  0  0  0
 18 10  1  0  0  0  0
 19 20  1  6  0  0  0
 20 15  1  0  0  0  0
 22 21  1  1  0  0  0
 23  8  1  0  0  0  0
 23 21  1  1  0  0  0
 23 22  1  0  0  0  0
 24 27  1  1  0  0  0
 25 28  1  0  0  0  0
 28 24  1  0  0  0  0
 29 26  1  1  0  0  0
 29 31  1  0  0  0  0
 30 22  1  0  0  0  0
 30 25  1  1  0  0  0
 30 29  1  0  0  0  0
 31 24  1  0  0  0  0
M  END
>  <MODEL>
3

>  <REMARK>
 VINA RESULT:      -6.2      3.909      7.252
  Name = 
  2 active torsions:
  status: ('A' for Active; 'I' for Inactive)
    1  A    between atoms: C_5  and  C_30
    2  A    between atoms: C_10  and  N_16
                            x       y       z     vdW  Elec       q    Type
                         _______ _______ _______ _____ _____    ______ ____

>  <TORSDO>
F 2

$$$$
=
 OpenBabel11122411003D

 31 36  0  0  1  0  0  0  0  0999 V2000
  180.9000  178.6510  141.7810 C   0  0  0  0  0  0  0  0  0  0  0  0
  181.3860  177.9200  138.0860 C   0  0  2  0  0  3  0  0  0  0  0  0
  180.7900  179.1470  137.3510 C   0  0  1  0  0  3  0  0  0  0  0  0
  180.3240  181.5860  137.1820 C   0  0  1  0  0  3  0  0  0  0  0  0
  181.6930  178.1550  139.5420 C   0  0  0  0  0  0  0  0  0  0  0  0
  182.2180  178.7140  142.2380 C   0  0  0  0  0  3  0  0  0  0  0  0
  181.1350  180.5220  137.9250 C   0  0  0  0  0  2  0  0  0  0  0  0
  183.8570  178.0000  137.6180 C   0  0  2  0  0  3  0  0  0  0  0  0
  179.8500  178.8660  142.6620 O   0  0  0  0  0  1  0  0  0  0  0  0
  181.0830  177.8320  135.3860 O   0  0  0  0  0  0  0  0  0  0  0  0
  180.6910  182.9590  137.7030 C   0  0  0  0  0  1  0  0  0  0  0  0
  184.1840  177.8900  139.1100 C   0  0  0  0  0  2  0  0  0  0  0  0
  182.5500  177.2480  137.3200 C   0  0  2  0  0  3  0  0  0  0  0  0
  180.6380  178.3720  140.4380 C   0  0  0  0  0  3  0  0  0  0  0  0
  180.5770  181.5270  135.6680 C   0  0  0  0  0  2  0  0  0  0  0  0
  183.0240  178.2260  140.0030 C   0  0  0  0  0  0  0  0  0  0  0  0
  183.2760  178.4940  141.3520 C   0  0  0  0  0  3  0  0  0  0  0  0
  182.2610  177.1670  135.7950 C   0  0  0  0  0  2  0  0  0  0  0  0
  181.1870  179.1360  135.8800 C   0  0  1  0  0  3  0  0  0  0  0  0
  180.3210  180.1220  135.1140 C   0  0  0  0  0  2  0  0  0  0  0  0
  185.4860  176.4140  137.5940 O   0  0  0  0  0  0  0  0  0  0  0  0
  186.1670  177.5850  137.6580 C   0  0  2  0  0  3  0  0  0  0  0  0
  184.9760  177.4650  136.8500 N   0  0  2  0  0  0  0  0  0  0  0  0
  189.6510  177.3340  138.5870 C   0  0  1  0  0  3  0  0  0  0  0  0
  188.2080  176.2080  137.2470 C   0  0  0  0  0  2  0  0  0  0  0  0
  187.7270  179.8610  136.6470 O   0  0  0  0  0  1  0  0  0  0  0  0
  190.3260  177.3560  139.9430 C   0  0  0  0  0  1  0  0  0  0  0  0
  188.6490  176.3450  138.5800 O   0  0  0  0  0  0  0  0  0  0  0  0
  188.3760  178.6590  136.9300 C   0  0  2  0  0  3  0  0  0  0  0  0
  187.4320  177.4550  136.8090 C   0  0  2  0  0  3  0  0  0  0  0  0
  189.0430  178.7060  138.3010 C   0  0  0  0  0  2  0  0  0  0  0  0
  1  6  1  0  0  0  0
  1  9  1  0  0  0  0
  2  5  1  1  0  0  0
  3  7  1  1  0  0  0
  3  2  1  0  0  0  0
  4 11  1  1  0  0  0
  4  7  1  0  0  0  0
  5 16  2  0  0  0  0
  5 14  1  0  0  0  0
  8 12  1  1  0  0  0
 10 18  1  0  0  0  0
 10 19  1  0  0  0  0
 12 16  1  0  0  0  0
 13 18  1  6  0  0  0
 13  8  1  0  0  0  0
 13  2  1  0  0  0  0
 14  1  2  0  0  0  0
 15  4  1  0  0  0  0
 16 17  1  0  0  0  0
 17  6  2  0  0  0  0
 19 20  1  6  0  0  0
 19  3  1  0  0  0  0
 20 15  1  0  0  0  0
 22 21  1  1  0  0  0
 23 21  1  1  0  0  0
 23  8  1  0  0  0  0
 23 22  1  0  0  0  0
 24 27  1  1  0  0  0
 25 28  1  0  0  0  0
 28 24  1  0  0  0  0
 29 26  1  1  0  0  0
 29 31  1  0  0  0  0
 30 29  1  0  0  0  0
 30 25  1  1  0  0  0
 30 22  1  0  0  0  0
 31 24  1  0  0  0  0
M  END
>  <MODEL>
4

>  <REMARK>
 VINA RESULT:      -5.9      5.605      9.256
  Name = 
  2 active torsions:
  status: ('A' for Active; 'I' for Inactive)
    1  A    between atoms: C_5  and  C_30
    2  A    between atoms: C_10  and  N_16
                            x       y       z     vdW  Elec       q    Type
                         _______ _______ _______ _____ _____    ______ ____

>  <TORSDO>
F 2

$$$$
=
 OpenBabel11122411003D

 31 36  0  0  1  0  0  0  0  0999 V2000
  183.6450  178.8320  143.2940 C   0  0  0  0  0  0  0  0  0  0  0  0
  182.8440  177.3900  139.8730 C   0  0  2  0  0  3  0  0  0  0  0  0
  181.5500  178.1150  139.4240 C   0  0  1  0  0  3  0  0  0  0  0  0
  180.0890  180.1280  139.3220 C   0  0  1  0  0  3  0  0  0  0  0  0
  183.5870  178.0770  140.9890 C   0  0  0  0  0  0  0  0  0  0  0  0
  184.8770  179.4470  143.0660 C   0  0  0  0  0  3  0  0  0  0  0  0
  181.4930  179.6240  139.6660 C   0  0  0  0  0  2  0  0  0  0  0  0
  184.6320  178.1720  138.2850 C   0  0  2  0  0  3  0  0  0  0  0  0
  183.0580  178.8990  144.5500 O   0  0  0  0  0  1  0  0  0  0  0  0
  181.5370  176.5200  137.6530 O   0  0  0  0  0  0  0  0  0  0  0  0
  180.0290  181.6290  139.5070 C   0  0  0  0  0  1  0  0  0  0  0  0
  185.5500  178.5630  139.4470 C   0  0  0  0  0  2  0  0  0  0  0  0
  183.7590  176.9750  138.6970 C   0  0  2  0  0  3  0  0  0  0  0  0
  183.0020  178.1480  142.2600 C   0  0  0  0  0  3  0  0  0  0  0  0
  179.7050  179.7730  137.8770 C   0  0  0  0  0  2  0  0  0  0  0  0
  184.8280  178.7050  140.7570 C   0  0  0  0  0  0  0  0  0  0  0  0
  185.4700  179.3780  141.8030 C   0  0  0  0  0  3  0  0  0  0  0  0
  182.9380  176.4160  137.5020 C   0  0  0  0  0  2  0  0  0  0  0  0
  181.2810  177.8630  137.9450 C   0  0  1  0  0  3  0  0  0  0  0  0
  179.8550  178.2710  137.6130 C   0  0  0  0  0  2  0  0  0  0  0  0
  185.8930  176.5640  137.2880 O   0  0  0  0  0  0  0  0  0  0  0  0
  186.7820  177.5450  137.5830 C   0  0  2  0  0  3  0  0  0  0  0  0
  185.4530  177.8670  137.1180 N   0  0  2  0  0  0  0  0  0  0  0  0
  190.1830  176.3450  137.3400 C   0  0  1  0  0  3  0  0  0  0  0  0
  188.2870  176.2160  136.1010 C   0  0  0  0  0  2  0  0  0  0  0  0
  188.6890  179.7520  137.2250 O   0  0  0  0  0  1  0  0  0  0  0  0
  191.0610  175.6280  138.3430 C   0  0  0  0  0  1  0  0  0  0  0  0
  188.9700  175.6450  137.1950 O   0  0  0  0  0  0  0  0  0  0  0  0
  189.0380  178.4720  136.7960 C   0  0  2  0  0  3  0  0  0  0  0  0
  187.8030  177.6280  136.4480 C   0  0  2  0  0  3  0  0  0  0  0  0
  189.9180  177.7700  137.8260 C   0  0  0  0  0  2  0  0  0  0  0  0
  1  9  1  0  0  0  0
  2  5  1  1  0  0  0
  3  7  1  6  0  0  0
  3  2  1  0  0  0  0
  4 11  1  6  0  0  0
  4  7  1  0  0  0  0
  5 14  1  0  0  0  0
  6  1  1  0  0  0  0
  8 13  1  0  0  0  0
  8 12  1  1  0  0  0
 10 19  1  0  0  0  0
 12 16  1  0  0  0  0
 13 18  1  6  0  0  0
 13  2  1  0  0  0  0
 14  1  2  0  0  0  0
 15  4  1  0  0  0  0
 16  5  2  0  0  0  0
 16 17  1  0  0  0  0
 17  6  2  0  0  0  0
 18 10  1  0  0  0  0
 19 20  1  1  0  0  0
 19  3  1  0  0  0  0
 20 15  1  0  0  0  0
 22 21  1  6  0  0  0
 23 21  1  1  0  0  0
 23 22  1  0  0  0  0
 23  8  1  0  0  0  0
 24 31  1  0  0  0  0
 24 27  1  1  0  0  0
 25 28  1  0  0  0  0
 28 24  1  0  0  0  0
 29 26  1  1  0  0  0
 29 31  1  0  0  0  0
 30 25  1  1  0  0  0
 30 29  1  0  0  0  0
 30 22  1  0  0  0  0
M  END
>  <MODEL>
5

>  <REMARK>
 VINA RESULT:      -5.9      4.910      8.681
  Name = 
  2 active torsions:
  status: ('A' for Active; 'I' for Inactive)
    1  A    between atoms: C_5  and  C_30
    2  A    between atoms: C_10  and  N_16
                            x       y       z     vdW  Elec       q    Type
                         _______ _______ _______ _____ _____    ______ ____

>  <TORSDO>
F 2

$$$$
=
 OpenBabel11122411003D

 31 36  0  0  1  0  0  0  0  0999 V2000
  180.1150  179.2130  142.5940 C   0  0  0  0  0  0  0  0  0  0  0  0
  182.8640  179.0240  139.9800 C   0  0  2  0  0  3  0  0  0  0  0  0
  184.1870  179.0300  140.7870 C   0  0  1  0  0  3  0  0  0  0  0  0
  185.5390  178.4100  142.7830 C   0  0  1  0  0  3  0  0  0  0  0  0
  181.6430  178.6700  140.7900 C   0  0  0  0  0  0  0  0  0  0  0  0
  179.4490  178.0010  142.4000 C   0  0  0  0  0  3  0  0  0  0  0  0
  184.2330  178.1420  142.0310 C   0  0  0  0  0  2  0  0  0  0  0  0
  182.7410  176.7470  138.9180 C   0  0  2  0  0  3  0  0  0  0  0  0
  179.6910  180.0870  143.5860 O   0  0  0  0  0  1  0  0  0  0  0  0
  185.2230  179.2910  138.6570 O   0  0  0  0  0  0  0  0  0  0  0  0
  185.6250  177.5030  143.9910 C   0  0  0  0  0  1  0  0  0  0  0  0
  181.3290  176.5210  139.4670 C   0  0  0  0  0  2  0  0  0  0  0  0
  182.9570  178.2450  138.6480 C   0  0  2  0  0  3  0  0  0  0  0  0
  181.2080  179.5470  141.7910 C   0  0  0  0  0  3  0  0  0  0  0  0
  186.7610  178.1820  141.8810 C   0  0  0  0  0  2  0  0  0  0  0  0
  180.9740  177.4430  140.5990 C   0  0  0  0  0  0  0  0  0  0  0  0
  179.8730  177.1230  141.4000 C   0  0  0  0  0  3  0  0  0  0  0  0
  184.3020  178.5150  137.9180 C   0  0  0  0  0  2  0  0  0  0  0  0
  185.3610  178.6510  139.8920 C   0  0  1  0  0  3  0  0  0  0  0  0
  186.6640  179.0030  140.5910 C   0  0  0  0  0  2  0  0  0  0  0  0
  183.0980  174.6430  138.1310 O   0  0  0  0  0  0  0  0  0  0  0  0
  184.2100  175.3260  137.7640 C   0  0  2  0  0  3  0  0  0  0  0  0
  182.9090  175.9490  137.7080 N   0  0  2  0  0  0  0  0  0  0  0  0
  186.8070  173.0130  136.7750 C   0  0  1  0  0  3  0  0  0  0  0  0
  184.5940  173.2970  136.3620 C   0  0  0  0  0  2  0  0  0  0  0  0
  186.2510  176.6310  136.1000 O   0  0  0  0  0  1  0  0  0  0  0  0
  187.8290  172.2530  137.5930 C   0  0  0  0  0  1  0  0  0  0  0  0
  185.5180  172.7560  137.2800 O   0  0  0  0  0  0  0  0  0  0  0  0
  186.0750  175.2510  136.0070 C   0  0  2  0  0  3  0  0  0  0  0  0
  184.6480  174.8280  136.3860 C   0  0  2  0  0  3  0  0  0  0  0  0
  187.1140  174.5090  136.8440 C   0  0  0  0  0  2  0  0  0  0  0  0
  1  9  1  0  0  0  0
  2  3  1  0  0  0  0
  2  5  1  1  0  0  0
  3  7  1  1  0  0  0
  4 11  1  1  0  0  0
  5 14  1  0  0  0  0
  6  1  1  0  0  0  0
  7  4  1  0  0  0  0
  8 12  1  6  0  0  0
 10 19  1  0  0  0  0
 12 16  1  0  0  0  0
 13 18  1  1  0  0  0
 13  8  1  0  0  0  0
 13  2  1  0  0  0  0
 14  1  2  0  0  0  0
 15  4  1  0  0  0  0
 16  5  2  0  0  0  0
 16 17  1  0  0  0  0
 17  6  2  0  0  0  0
 18 10  1  0  0  0  0
 19 20  1  1  0  0  0
 19  3  1  0  0  0  0
 20 15  1  0  0  0  0
 22 21  1  1  0  0  0
 23 22  1  0  0  0  0
 23 21  1  1  0  0  0
 23  8  1  0  0  0  0
 24 31  1  0  0  0  0
 24 28  1  0  0  0  0
 24 27  1  1  0  0  0
 25 28  1  0  0  0  0
 29 26  1  1  0  0  0
 29 30  1  0  0  0  0
 29 31  1  0  0  0  0
 30 25  1  1  0  0  0
 30 22  1  0  0  0  0
M  END
>  <MODEL>
6

>  <REMARK>
 VINA RESULT:      -5.6      5.316      9.840
  Name = 
  2 active torsions:
  status: ('A' for Active; 'I' for Inactive)
    1  A    between atoms: C_5  and  C_30
    2  A    between atoms: C_10  and  N_16
                            x       y       z     vdW  Elec       q    Type
                         _______ _______ _______ _____ _____    ______ ____

>  <TORSDO>
F 2

$$$$
=
 OpenBabel11122411003D

 31 36  0  0  1  0  0  0  0  0999 V2000
  181.1320  180.3930  138.7940 C   0  0  0  0  0  0  0  0  0  0  0  0
  184.7180  179.1640  138.5610 C   0  0  2  0  0  3  0  0  0  0  0  0
  185.2300  179.1360  140.0240 C   0  0  1  0  0  3  0  0  0  0  0  0
  184.8780  178.7750  142.4610 C   0  0  1  0  0  3  0  0  0  0  0  0
  183.2180  179.2100  138.4270 C   0  0  0  0  0  0  0  0  0  0  0  0
  180.4190  179.2950  138.3070 C   0  0  0  0  0  3  0  0  0  0  0  0
  184.2750  178.5600  141.0710 C   0  0  0  0  0  2  0  0  0  0  0  0
  184.6460  176.7560  137.8350 C   0  0  2  0  0  3  0  0  0  0  0  0
  180.4540  181.5270  139.2190 O   0  0  0  0  0  1  0  0  0  0  0  0
  187.3600  178.7310  139.0350 O   0  0  0  0  0  0  0  0  0  0  0  0
  183.9700  178.1650  143.5080 C   0  0  0  0  0  1  0  0  0  0  0  0
  183.1940  176.8970  137.3700 C   0  0  0  0  0  2  0  0  0  0  0  0
  185.3770  178.0970  137.6560 C   0  0  2  0  0  3  0  0  0  0  0  0
  182.5270  180.3510  138.8530 C   0  0  0  0  0  3  0  0  0  0  0  0
  186.2770  178.1490  142.5680 C   0  0  0  0  0  2  0  0  0  0  0  0
  182.4970  178.0980  137.9430 C   0  0  0  0  0  0  0  0  0  0  0  0
  181.1010  178.1540  137.8770 C   0  0  0  0  0  3  0  0  0  0  0  0
  186.9000  177.9700  137.9370 C   0  0  0  0  0  2  0  0  0  0  0  0
  186.5470  178.3760  140.1160 C   0  0  1  0  0  3  0  0  0  0  0  0
  187.2020  178.6590  141.4580 C   0  0  0  0  0  2  0  0  0  0  0  0
  184.8660  175.8490  135.7610 O   0  0  0  0  0  0  0  0  0  0  0  0
  184.2400  174.8840  136.4790 C   0  0  2  0  0  3  0  0  0  0  0  0
  185.2830  175.6870  137.0720 N   0  0  2  0  0  0  0  0  0  0  0  0
  182.5620  171.7370  135.8860 C   0  0  1  0  0  3  0  0  0  0  0  0
  184.0170  173.0750  134.7730 C   0  0  0  0  0  2  0  0  0  0  0  0
  185.1900  172.7850  138.3050 O   0  0  0  0  0  1  0  0  0  0  0  0
  181.1090  171.3380  136.0370 C   0  0  0  0  0  1  0  0  0  0  0  0
  182.6510  172.8770  135.0650 O   0  0  0  0  0  0  0  0  0  0  0  0
  184.6160  172.4220  137.0860 C   0  0  2  0  0  3  0  0  0  0  0  0
  184.7740  173.5240  136.0280 C   0  0  2  0  0  3  0  0  0  0  0  0
  183.1530  172.0300  137.2650 C   0  0  0  0  0  2  0  0  0  0  0  0
  1 14  1  0  0  0  0
  1  9  1  0  0  0  0
  2  5  1  1  0  0  0
  2  3  1  0  0  0  0
  3 19  1  0  0  0  0
  3  7  1  1  0  0  0
  4 15  1  0  0  0  0
  4 11  1  1  0  0  0
  5 14  2  0  0  0  0
  6  1  2  0  0  0  0
  7  4  1  0  0  0  0
  8 12  1  6  0  0  0
 10 19  1  0  0  0  0
 12 16  1  0  0  0  0
 13  8  1  0  0  0  0
 13 18  1  1  0  0  0
 13  2  1  0  0  0  0
 16  5  1  0  0  0  0
 17 16  2  0  0  0  0
 17  6  1  0  0  0  0
 18 10  1  0  0  0  0
 19 20  1  1  0  0  0
 20 15  1  0  0  0  0
 22 21  1  6  0  0  0
 22 23  1  0  0  0  0
 23 21  1  6  0  0  0
 23  8  1  0  0  0  0
 24 27  1  1  0  0  0
 24 31  1  0  0  0  0
 25 28  1  0  0  0  0
 28 24  1  0  0  0  0
 29 31  1  0  0  0  0
 29 26  1  1  0  0  0
 30 25  1  6  0  0  0
 30 22  1  0  0  0  0
 30 29  1  0  0  0  0
M  END
>  <MODEL>
7

>  <REMARK>
 VINA RESULT:      -5.6      4.923      9.702
  Name = 
  2 active torsions:
  status: ('A' for Active; 'I' for Inactive)
    1  A    between atoms: C_5  and  C_30
    2  A    between atoms: C_10  and  N_16
                            x       y       z     vdW  Elec       q    Type
                         _______ _______ _______ _____ _____    ______ ____

>  <TORSDO>
F 2

$$$$
=
 OpenBabel11122411003D

 31 36  0  0  1  0  0  0  0  0999 V2000
  181.6640  178.7790  140.6680 C   0  0  0  0  0  0  0  0  0  0  0  0
  184.9230  178.5120  138.7360 C   0  0  2  0  0  3  0  0  0  0  0  0
  186.0370  178.6450  139.8060 C   0  0  1  0  0  3  0  0  0  0  0  0
  186.9360  178.2500  142.0930 C   0  0  1  0  0  3  0  0  0  0  0  0
  183.5660  178.1670  139.2910 C   0  0  0  0  0  0  0  0  0  0  0  0
  181.0920  177.5250  140.4420 C   0  0  0  0  0  3  0  0  0  0  0  0
  185.8350  177.8620  141.1040 C   0  0  0  0  0  2  0  0  0  0  0  0
  185.1020  176.1550  137.8770 C   0  0  2  0  0  3  0  0  0  0  0  0
  181.0080  179.7070  141.4640 O   0  0  0  0  0  1  0  0  0  0  0  0
  187.5070  178.7850  137.9350 O   0  0  0  0  0  0  0  0  0  0  0  0
  186.7810  177.4470  143.3670 C   0  0  0  0  0  1  0  0  0  0  0  0
  183.6120  175.9070  138.1260 C   0  0  0  0  0  2  0  0  0  0  0  0
  185.3290  177.6350  137.5290 C   0  0  2  0  0  3  0  0  0  0  0  0
  182.8970  179.0990  140.0940 C   0  0  0  0  0  3  0  0  0  0  0  0
  188.3330  178.0090  141.5000 C   0  0  0  0  0  2  0  0  0  0  0  0
  182.9910  176.8980  139.0690 C   0  0  0  0  0  0  0  0  0  0  0  0
  181.7510  176.5910  139.6390 C   0  0  0  0  0  3  0  0  0  0  0  0
  186.7920  177.9100  137.0860 C   0  0  0  0  0  2  0  0  0  0  0  0
  187.3890  178.2510  139.2230 C   0  0  1  0  0  3  0  0  0  0  0  0
  188.4960  178.7190  140.1520 C   0  0  0  0  0  2  0  0  0  0  0  0
  185.6590  174.0090  137.3680 O   0  0  0  0  0  0  0  0  0  0  0  0
  186.8160  174.6970  137.2080 C   0  0  2  0  0  3  0  0  0  0  0  0
  185.5540  175.2720  136.8060 N   0  0  2  0  0  0  0  0  0  0  0  0
  190.3440  174.1600  136.6300 C   0  0  1  0  0  3  0  0  0  0  0  0
  188.4360  172.9400  136.4860 C   0  0  0  0  0  2  0  0  0  0  0  0
  187.7950  176.2710  134.9280 O   0  0  0  0  0  1  0  0  0  0  0  0
  191.5540  174.4750  137.4850 C   0  0  0  0  0  1  0  0  0  0  0  0
  189.4290  173.3950  137.3790 O   0  0  0  0  0  0  0  0  0  0  0  0
  188.4830  175.1190  135.3080 C   0  0  2  0  0  3  0  0  0  0  0  0
  187.5660  174.1090  136.0110 C   0  0  2  0  0  3  0  0  0  0  0  0
  189.6940  175.4640  136.1710 C   0  0  0  0  0  2  0  0  0  0  0  0
  1  9  1  0  0  0  0
  2  5  1  1  0  0  0
  2  3  1  0  0  0  0
  3  7  1  1  0  0  0
  4 11  1  1  0  0  0
  5 14  1  0  0  0  0
  6  1  1  0  0  0  0
  7  4  1  0  0  0  0
  8 12  1  6  0  0  0
 10 19  1  0  0  0  0
 12 16  1  0  0  0  0
 13 18  1  1  0  0  0
 13  8  1  0  0  0  0
 13  2  1  0  0  0  0
 14  1  2  0  0  0  0
 15  4  1  0  0  0  0
 16  5  2  0  0  0  0
 16 17  1  0  0  0  0
 17  6  2  0  0  0  0
 18 10  1  0  0  0  0
 19  3  1  0  0  0  0
 19 20  1  1  0  0  0
 20 15  1  0  0  0  0
 22 21  1  1  0  0  0
 23 22  1  0  0  0  0
 23 21  1  1  0  0  0
 23  8  1  0  0  0  0
 24 28  1  0  0  0  0
 24 27  1  1  0  0  0
 25 28  1  0  0  0  0
 29 26  1  1  0  0  0
 29 30  1  0  0  0  0
 29 31  1  0  0  0  0
 30 25  1  1  0  0  0
 30 22  1  0  0  0  0
 31 24  1  0  0  0  0
M  END
>  <MODEL>
8

>  <REMARK>
 VINA RESULT:      -5.5      3.794      8.376
  Name = 
  2 active torsions:
  status: ('A' for Active; 'I' for Inactive)
    1  A    between atoms: C_5  and  C_30
    2  A    between atoms: C_10  and  N_16
                            x       y       z     vdW  Elec       q    Type
                         _______ _______ _______ _____ _____    ______ ____

>  <TORSDO>
F 2

$$$$
=
 OpenBabel11122411003D

 31 36  0  0  1  0  0  0  0  0999 V2000
  184.7830  179.7070  144.9600 C   0  0  0  0  0  0  0  0  0  0  0  0
  185.5780  179.3600  141.2620 C   0  0  2  0  0  3  0  0  0  0  0  0
  186.9750  178.6900  141.2120 C   0  0  1  0  0  3  0  0  0  0  0  0
  188.6800  177.1100  142.1010 C   0  0  1  0  0  3  0  0  0  0  0  0
  184.8690  179.2220  142.5840 C   0  0  0  0  0  0  0  0  0  0  0  0
  183.6520  178.8990  145.0880 C   0  0  0  0  0  3  0  0  0  0  0  0
  187.2080  177.5230  142.1720 C   0  0  0  0  0  2  0  0  0  0  0  0
  183.9900  177.6600  140.3040 C   0  0  2  0  0  3  0  0  0  0  0  0
  185.3060  180.3510  146.0730 O   0  0  0  0  0  1  0  0  0  0  0  0
  186.8810  179.1850  138.8830 O   0  0  0  0  0  0  0  0  0  0  0  0
  188.9190  175.9220  143.0080 C   0  0  0  0  0  1  0  0  0  0  0  0
  183.0680  177.7750  141.5210 C   0  0  0  0  0  2  0  0  0  0  0  0
  184.6820  179.0100  140.0510 C   0  0  2  0  0  3  0  0  0  0  0  0
  185.3890  179.8690  143.7120 C   0  0  0  0  0  3  0  0  0  0  0  0
  189.0930  176.7520  140.6660 C   0  0  0  0  0  2  0  0  0  0  0  0
  183.7300  178.3990  142.7160 C   0  0  0  0  0  0  0  0  0  0  0  0
  183.1230  178.2530  143.9680 C   0  0  0  0  0  3  0  0  0  0  0  0
  185.4890  179.0080  138.7230 C   0  0  0  0  0  2  0  0  0  0  0  0
  187.2890  178.2110  139.8000 C   0  0  1  0  0  3  0  0  0  0  0  0
  188.7700  177.8900  139.6920 C   0  0  0  0  0  2  0  0  0  0  0  0
  182.6770  175.9930  139.4850 O   0  0  0  0  0  0  0  0  0  0  0  0
  183.7590  175.9930  138.6670 C   0  0  2  0  0  3  0  0  0  0  0  0
  183.2000  177.2330  139.1530 N   0  0  2  0  0  0  0  0  0  0  0  0
  184.6890  173.3790  136.3500 C   0  0  1  0  0  3  0  0  0  0  0  0
  182.7670  174.2510  137.1810 C   0  0  0  0  0  2  0  0  0  0  0  0
  185.0060  177.0860  136.2410 O   0  0  0  0  0  1  0  0  0  0  0  0
  185.6940  172.2520  136.4690 C   0  0  0  0  0  1  0  0  0  0  0  0
  183.8070  173.3360  137.4470 O   0  0  0  0  0  0  0  0  0  0  0  0
  184.3960  175.8320  136.1900 C   0  0  2  0  0  3  0  0  0  0  0  0
  183.2890  175.6910  137.2440 C   0  0  2  0  0  3  0  0  0  0  0  0
  185.4290  174.7160  136.3170 C   0  0  0  0  0  2  0  0  0  0  0  0
  1  6  1  0  0  0  0
  1  9  1  0  0  0  0
  2  5  1  1  0  0  0
  3  2  1  0  0  0  0
  3  7  1  1  0  0  0
  4  7  1  0  0  0  0
  4 11  1  1  0  0  0
  5 16  2  0  0  0  0
  5 14  1  0  0  0  0
  8 12  1  1  0  0  0
 10 19  1  0  0  0  0
 12 16  1  0  0  0  0
 13 18  1  6  0  0  0
 13  8  1  0  0  0  0
 13  2  1  0  0  0  0
 14  1  2  0  0  0  0
 15  4  1  0  0  0  0
 16 17  1  0  0  0  0
 17  6  2  0  0  0  0
 18 10  1  0  0  0  0
 19 20  1  1  0  0  0
 19  3  1  0  0  0  0
 20 15  1  0  0  0  0
 22 23  1  0  0  0  0
 22 21  1  1  0  0  0
 23 21  1  1  0  0  0
 23  8  1  0  0  0  0
 24 27  1  1  0  0  0
 24 28  1  0  0  0  0
 25 28  1  0  0  0  0
 29 26  1  1  0  0  0
 29 31  1  0  0  0  0
 29 30  1  0  0  0  0
 30 25  1  1  0  0  0
 30 22  1  0  0  0  0
 31 24  1  0  0  0  0
M  END
>  <MODEL>
9

>  <REMARK>
 VINA RESULT:      -5.2      4.277      9.036
  Name = 
  2 active torsions:
  status: ('A' for Active; 'I' for Inactive)
    1  A    between atoms: C_5  and  C_30
    2  A    between atoms: C_10  and  N_16
                            x       y       z     vdW  Elec       q    Type
                         _______ _______ _______ _____ _____    ______ ____

>  <TORSDO>
F 2

$$$$
