=
 OpenBabel11122410513D

 32 36  0  0  1  0  0  0  0  0999 V2000
  190.6340  176.6980  138.7900 C   0  0  1  0  0  3  0  0  0  0  0  0
  186.5680  177.9950  136.3380 C   0  0  0  0  0  3  0  0  0  0  0  0
  185.8690  178.0360  137.5450 C   0  0  0  0  0  3  0  0  0  0  0  0
  190.7480  176.9180  141.3170 C   0  0  2  0  0  3  0  0  0  0  0  0
  189.8260  177.0850  142.5360 C   0  0  2  0  0  3  0  0  0  0  0  0
  192.4910  175.7630  137.4200 C   0  0  2  0  0  3  0  0  0  0  0  0
  190.6330  176.9420  136.2840 O   0  0  0  0  0  0  0  0  0  0  0  0
  187.9430  177.8700  143.5380 C   0  0  2  0  0  3  0  0  0  0  0  0
  187.9480  177.7810  136.3370 C   0  0  0  0  0  3  0  0  0  0  0  0
  190.1340  177.4230  137.5330 C   0  0  1  0  0  3  0  0  0  0  0  0
  188.6390  177.5950  137.5420 C   0  0  0  0  0  0  0  0  0  0  0  0
  188.6380  177.4230  140.0910 C   0  0  2  0  0  3  0  0  0  0  0  0
  187.7520  176.3650  143.5020 C   0  0  0  0  0  2  0  0  0  0  0  0
  191.3410  175.7140  136.3890 C   0  0  2  0  0  3  0  0  0  0  0  0
  189.0140  175.8400  142.8490 C   0  0  0  0  0  2  0  0  0  0  0  0
  186.5510  177.8730  138.7530 C   0  0  0  0  0  3  0  0  0  0  0  0
  187.9400  177.6830  138.7700 C   0  0  0  0  0  0  0  0  0  0  0  0
  188.1910  178.3920  141.1860 C   0  0  0  0  0  2  0  0  0  0  0  0
  192.1410  176.5790  138.6680 C   0  0  0  0  0  2  0  0  0  0  0  0
  191.9700  177.5400  141.5790 O   0  0  0  0  0  1  0  0  0  0  0  0
  186.6230  178.6360  143.5050 C   0  0  0  0  0  1  0  0  0  0  0  0
  190.1620  177.4730  140.0170 C   0  0  2  0  0  3  0  0  0  0  0  0
  188.9000  178.2310  142.4840 N   0  0  2  0  0  0  0  0  0  0  0  0
  189.5070  174.3440  135.3850 C   0  0  0  0  0  1  0  0  0  0  0  0
  190.3890  174.5290  136.6060 C   0  0  1  0  0  3  0  0  0  0  0  0
  191.1130  173.3560  136.8360 O   0  0  0  0  0  0  0  0  0  0  0  0
  191.3710  172.8380  135.5640 C   0  0  0  0  0  2  0  0  0  0  0  0
  192.7850  172.3830  135.4780 C   0  0  0  0  0  0  0  0  0  0  0  0
  193.6750  173.1650  135.0530 O   0  0  0  0  0  0  0  0  0  0  0  0
  193.1290  171.1040  135.8930 O   0  0  0  0  0  1  0  0  0  0  0  0
  194.8520  175.5560  137.1390 O   0  0  0  0  0  1  0  0  0  0  0  0
  193.7440  176.3180  136.7690 C   0  0  0  0  0  2  0  0  0  0  0  0
  1 19  1  6  0  0  0
  1 22  1  0  0  0  0
  2  3  1  0  0  0  0
  3 16  2  0  0  0  0
  4 20  1  1  0  0  0
  4  5  1  0  0  0  0
  5 15  1  6  0  0  0
  6 32  1  6  0  0  0
  6 19  1  0  0  0  0
  7 14  1  0  0  0  0
  8 21  1  6  0  0  0
  9  2  2  0  0  0  0
  9 11  1  0  0  0  0
 10  7  1  6  0  0  0
 10 11  1  0  0  0  0
 10  1  1  0  0  0  0
 11 17  2  0  0  0  0
 12 18  1  1  0  0  0
 13  8  1  0  0  0  0
 14 25  1  1  0  0  0
 14  6  1  0  0  0  0
 15 13  1  0  0  0  0
 16 17  1  0  0  0  0
 17 12  1  0  0  0  0
 18 23  1  0  0  0  0
 22 12  1  0  0  0  0
 22  4  1  0  0  0  0
 23  5  1  0  0  0  0
 23  8  1  0  0  0  0
 24 25  1  0  0  0  0
 25 26  1  0  0  0  0
 27 26  1  0  0  0  0
 28 27  1  0  0  0  0
 28 30  1  0  0  0  0
 29 28  2  0  0  0  0
 32 31  1  0  0  0  0
M  END
>  <MODEL>
1

>  <REMARK>
 VINA RESULT:      -6.5      0.000      0.000
  Name = 
  5 active torsions:
  status: ('A' for Active; 'I' for Inactive)
    1  A    between atoms: C_7  and  C_19
    2  A    between atoms: C_10  and  C_17
    3  A    between atoms: C_10  and  O_20
    4  A    between atoms: O_20  and  C_29
    5  A    between atoms: C_29  and  C_30
                            x       y       z     vdW  Elec       q    Type
                         _______ _______ _______ _____ _____    ______ ____

>  <TORSDO>
F 5

$$$$
=
 OpenBabel11122410513D

 32 36  0  0  1  0  0  0  0  0999 V2000
  188.7890  177.2780  138.9120 C   0  0  1  0  0  3  0  0  0  0  0  0
  184.4110  179.0250  140.3310 C   0  0  0  0  0  3  0  0  0  0  0  0
  184.7860  178.8440  141.6630 C   0  0  0  0  0  3  0  0  0  0  0  0
  190.6860  177.0260  140.5810 C   0  0  2  0  0  3  0  0  0  0  0  0
  190.9310  176.9690  142.0980 C   0  0  2  0  0  3  0  0  0  0  0  0
  188.9800  176.6040  136.5230 C   0  0  2  0  0  3  0  0  0  0  0  0
  187.0480  177.9810  137.2340 O   0  0  0  0  0  0  0  0  0  0  0  0
  190.4410  177.5630  144.2360 C   0  0  2  0  0  3  0  0  0  0  0  0
  185.3380  178.8070  139.3100 C   0  0  0  0  0  3  0  0  0  0  0  0
  187.6520  178.2250  138.5050 C   0  0  1  0  0  3  0  0  0  0  0  0
  186.6440  178.3990  139.6100 C   0  0  0  0  0  0  0  0  0  0  0  0
  188.4240  177.7580  141.3290 C   0  0  2  0  0  3  0  0  0  0  0  0
  190.0790  176.0920  144.1610 C   0  0  0  0  0  2  0  0  0  0  0  0
  187.4460  176.7510  136.6420 C   0  0  2  0  0  3  0  0  0  0  0  0
  190.4190  175.6900  142.7400 C   0  0  0  0  0  2  0  0  0  0  0  0
  186.0910  178.4570  141.9760 C   0  0  0  0  0  3  0  0  0  0  0  0
  187.0400  178.2610  140.9630 C   0  0  0  0  0  0  0  0  0  0  0  0
  189.0210  178.5100  142.5180 C   0  0  0  0  0  2  0  0  0  0  0  0
  189.7310  177.1770  137.7290 C   0  0  0  0  0  2  0  0  0  0  0  0
  191.8030  177.5830  139.9570 O   0  0  0  0  0  1  0  0  0  0  0  0
  189.6070  178.3280  145.2610 C   0  0  0  0  0  1  0  0  0  0  0  0
  189.4350  177.8150  140.1860 C   0  0  2  0  0  3  0  0  0  0  0  0
  190.4080  178.1080  142.8730 N   0  0  2  0  0  0  0  0  0  0  0  0
  185.2950  175.5320  137.0060 C   0  0  0  0  0  1  0  0  0  0  0  0
  186.7780  175.5510  137.3280 C   0  0  1  0  0  3  0  0  0  0  0  0
  187.3600  174.3560  136.8970 O   0  0  0  0  0  0  0  0  0  0  0  0
  186.3960  173.3760  137.1490 C   0  0  0  0  0  2  0  0  0  0  0  0
  186.6860  172.1590  136.3430 C   0  0  0  0  0  0  0  0  0  0  0  0
  187.8460  171.6710  136.3320 O   0  0  0  0  0  1  0  0  0  0  0  0
  185.6700  171.5440  135.6250 O   0  0  0  0  0  0  0  0  0  0  0  0
  190.3940  176.4440  134.6060 O   0  0  0  0  0  1  0  0  0  0  0  0
  189.4630  177.2640  135.2450 C   0  0  0  0  0  2  0  0  0  0  0  0
  1 19  1  6  0  0  0
  1 22  1  0  0  0  0
  2  3  1  0  0  0  0
  3 16  2  0  0  0  0
  4 20  1  6  0  0  0
  4  5  1  0  0  0  0
  5 15  1  1  0  0  0
  5 23  1  0  0  0  0
  6 32  1  6  0  0  0
  6 14  1  0  0  0  0
  6 19  1  0  0  0  0
  8 21  1  1  0  0  0
  9 11  1  0  0  0  0
  9  2  2  0  0  0  0
 10  7  1  6  0  0  0
 10  1  1  0  0  0  0
 10 11  1  0  0  0  0
 11 17  2  0  0  0  0
 12 18  1  1  0  0  0
 13  8  1  0  0  0  0
 14  7  1  0  0  0  0
 14 25  1  1  0  0  0
 15 13  1  0  0  0  0
 17 12  1  0  0  0  0
 17 16  1  0  0  0  0
 18 23  1  0  0  0  0
 22  4  1  0  0  0  0
 22 12  1  0  0  0  0
 23  8  1  0  0  0  0
 24 25  1  0  0  0  0
 26 27  1  0  0  0  0
 26 25  1  0  0  0  0
 28 27  1  0  0  0  0
 29 28  1  0  0  0  0
 30 28  2  0  0  0  0
 31 32  1  0  0  0  0
M  END
>  <MODEL>
2

>  <REMARK>
 VINA RESULT:      -6.5      2.685      3.728
  Name = 
  5 active torsions:
  status: ('A' for Active; 'I' for Inactive)
    1  A    between atoms: C_7  and  C_19
    2  A    between atoms: C_10  and  C_17
    3  A    between atoms: C_10  and  O_20
    4  A    between atoms: O_20  and  C_29
    5  A    between atoms: C_29  and  C_30
                            x       y       z     vdW  Elec       q    Type
                         _______ _______ _______ _____ _____    ______ ____

>  <TORSDO>
F 5

$$$$
=
 OpenBabel11122410513D

 32 36  0  0  1  0  0  0  0  0999 V2000
  185.8280  178.1250  139.9110 C   0  0  1  0  0  3  0  0  0  0  0  0
  181.0800  179.0520  140.8210 C   0  0  0  0  0  3  0  0  0  0  0  0
  181.3110  178.8300  142.1790 C   0  0  0  0  0  3  0  0  0  0  0  0
  187.5180  178.0440  141.8040 C   0  0  2  0  0  3  0  0  0  0  0  0
  187.5790  177.9080  143.3340 C   0  0  2  0  0  3  0  0  0  0  0  0
  186.4230  177.6750  137.5350 C   0  0  2  0  0  3  0  0  0  0  0  0
  184.2170  178.6750  138.0550 O   0  0  0  0  0  0  0  0  0  0  0  0
  186.7370  178.2520  145.4160 C   0  0  2  0  0  3  0  0  0  0  0  0
  182.1500  179.0620  139.9240 C   0  0  0  0  0  3  0  0  0  0  0  0
  184.6100  178.9110  139.4080 C   0  0  1  0  0  3  0  0  0  0  0  0
  183.4580  178.8400  140.3750 C   0  0  0  0  0  0  0  0  0  0  0  0
  185.0910  178.3540  142.2790 C   0  0  2  0  0  3  0  0  0  0  0  0
  186.6330  176.7520  145.2110 C   0  0  0  0  0  2  0  0  0  0  0  0
  184.8820  177.5720  137.4540 C   0  0  2  0  0  3  0  0  0  0  0  0
  187.2100  176.5200  143.8280 C   0  0  0  0  0  2  0  0  0  0  0  0
  182.6130  178.6290  142.6430 C   0  0  0  0  0  3  0  0  0  0  0  0
  183.7000  178.6620  141.7590 C   0  0  0  0  0  0  0  0  0  0  0  0
  185.4040  179.0960  143.5780 C   0  0  0  0  0  2  0  0  0  0  0  0
  186.9140  178.2640  138.8610 C   0  0  0  0  0  2  0  0  0  0  0  0
  188.5980  178.8150  141.3690 O   0  0  0  0  0  1  0  0  0  0  0  0
  185.6670  178.7960  146.3600 C   0  0  0  0  0  1  0  0  0  0  0  0
  186.2140  178.6560  141.2880 C   0  0  2  0  0  3  0  0  0  0  0  0
  186.7840  178.8890  144.0940 N   0  0  2  0  0  0  0  0  0  0  0  0
  182.8410  176.1640  137.7600 C   0  0  0  0  0  1  0  0  0  0  0  0
  184.3420  176.2330  137.9750 C   0  0  1  0  0  3  0  0  0  0  0  0
  184.9540  175.1670  137.3100 O   0  0  0  0  0  0  0  0  0  0  0  0
  184.1510  174.0590  137.5940 C   0  0  0  0  0  2  0  0  0  0  0  0
  184.9470  172.8080  137.4630 C   0  0  0  0  0  0  0  0  0  0  0  0
  186.1000  172.7390  137.9620 O   0  0  0  0  0  1  0  0  0  0  0  0
  184.4060  171.7060  136.8140 O   0  0  0  0  0  0  0  0  0  0  0  0
  187.5550  179.6610  136.8490 O   0  0  0  0  0  1  0  0  0  0  0  0
  186.9460  178.5000  136.3740 C   0  0  0  0  0  2  0  0  0  0  0  0
  1 19  1  6  0  0  0
  1 22  1  0  0  0  0
  2  3  1  0  0  0  0
  3 16  2  0  0  0  0
  4 20  1  1  0  0  0
  4  5  1  0  0  0  0
  5 15  1  6  0  0  0
  5 23  1  0  0  0  0
  6 32  1  6  0  0  0
  6 19  1  0  0  0  0
  8 21  1  6  0  0  0
  9 11  1  0  0  0  0
  9  2  2  0  0  0  0
 10  7  1  6  0  0  0
 10  1  1  0  0  0  0
 10 11  1  0  0  0  0
 11 17  2  0  0  0  0
 12 18  1  1  0  0  0
 13  8  1  0  0  0  0
 14  6  1  0  0  0  0
 14 25  1  1  0  0  0
 14  7  1  0  0  0  0
 15 13  1  0  0  0  0
 17 12  1  0  0  0  0
 17 16  1  0  0  0  0
 18 23  1  0  0  0  0
 22  4  1  0  0  0  0
 22 12  1  0  0  0  0
 23  8  1  0  0  0  0
 24 25  1  0  0  0  0
 26 27  1  0  0  0  0
 26 25  1  0  0  0  0
 28 27  1  0  0  0  0
 28 29  1  0  0  0  0
 30 28  2  0  0  0  0
 32 31  1  0  0  0  0
M  END
>  <MODEL>
3

>  <REMARK>
 VINA RESULT:      -6.1      4.483      5.868
  Name = 
  5 active torsions:
  status: ('A' for Active; 'I' for Inactive)
    1  A    between atoms: C_7  and  C_19
    2  A    between atoms: C_10  and  C_17
    3  A    between atoms: C_10  and  O_20
    4  A    between atoms: O_20  and  C_29
    5  A    between atoms: C_29  and  C_30
                            x       y       z     vdW  Elec       q    Type
                         _______ _______ _______ _____ _____    ______ ____

>  <TORSDO>
F 5

$$$$
=
 OpenBabel11122410513D

 32 36  0  0  1  0  0  0  0  0999 V2000
  184.1290  177.3190  137.9070 C   0  0  1  0  0  3  0  0  0  0  0  0
  189.0290  177.6850  138.1900 C   0  0  0  0  0  3  0  0  0  0  0  0
  189.1410  176.3730  137.7300 C   0  0  0  0  0  3  0  0  0  0  0  0
  183.0440  175.3980  136.6490 C   0  0  2  0  0  3  0  0  0  0  0  0
  183.3800  174.0040  136.0940 C   0  0  2  0  0  3  0  0  0  0  0  0
  182.8260  179.0600  139.1190 C   0  0  2  0  0  3  0  0  0  0  0  0
  185.2440  179.4230  138.7250 O   0  0  0  0  0  0  0  0  0  0  0  0
  184.8140  172.5010  135.1730 C   0  0  2  0  0  3  0  0  0  0  0  0
  187.7790  178.3050  138.2360 C   0  0  0  0  0  3  0  0  0  0  0  0
  185.2950  178.3130  137.8270 C   0  0  1  0  0  3  0  0  0  0  0  0
  186.6280  177.6160  137.8300 C   0  0  0  0  0  0  0  0  0  0  0  0
  185.5190  175.4970  136.9290 C   0  0  2  0  0  3  0  0  0  0  0  0
  184.5510  171.9660  136.5680 C   0  0  0  0  0  2  0  0  0  0  0  0
  184.2300  179.3070  139.7150 C   0  0  2  0  0  3  0  0  0  0  0  0
  183.5830  172.9590  137.1780 C   0  0  0  0  0  2  0  0  0  0  0  0
  188.0040  175.6830  137.3030 C   0  0  0  0  0  3  0  0  0  0  0  0
  186.7450  176.3010  137.3170 C   0  0  0  0  0  0  0  0  0  0  0  0
  185.7320  174.6910  135.6480 C   0  0  0  0  0  2  0  0  0  0  0  0
  182.8480  178.1300  137.9020 C   0  0  0  0  0  2  0  0  0  0  0  0
  182.0660  175.9880  135.8470 O   0  0  0  0  0  1  0  0  0  0  0  0
  186.1890  172.1090  134.6370 C   0  0  0  0  0  1  0  0  0  0  0  0
  184.2520  176.3320  136.7500 C   0  0  2  0  0  3  0  0  0  0  0  0
  184.5350  173.9430  135.1800 N   0  0  2  0  0  0  0  0  0  0  0  0
  185.9160  178.6990  141.4570 C   0  0  0  0  0  1  0  0  0  0  0  0
  184.6110  178.2890  140.7980 C   0  0  1  0  0  3  0  0  0  0  0  0
  183.6080  178.2090  141.7690 O   0  0  0  0  0  0  0  0  0  0  0  0
  184.1910  178.7250  142.9300 C   0  0  0  0  0  2  0  0  0  0  0  0
  183.1420  178.9790  143.9550 C   0  0  0  0  0  0  0  0  0  0  0  0
  181.9300  179.0290  143.6180 O   0  0  0  0  0  0  0  0  0  0  0  0
  183.4970  179.1340  145.2880 O   0  0  0  0  0  1  0  0  0  0  0  0
  181.4860  180.2590  137.5490 O   0  0  0  0  0  1  0  0  0  0  0  0
  182.1820  180.3840  138.7520 C   0  0  0  0  0  2  0  0  0  0  0  0
  1 19  1  6  0  0  0
  2  9  1  0  0  0  0
  3  2  2  0  0  0  0
  4 20  1  6  0  0  0
  4 22  1  0  0  0  0
  5  4  1  0  0  0  0
  5 15  1  1  0  0  0
  6 32  1  6  0  0  0
  6 14  1  0  0  0  0
  7 14  1  0  0  0  0
  8 21  1  1  0  0  0
  8 23  1  0  0  0  0
  8 13  1  0  0  0  0
 10 11  1  1  0  0  0
 10  1  1  0  0  0  0
 10  7  1  0  0  0  0
 11  9  2  0  0  0  0
 12 18  1  6  0  0  0
 12 17  1  0  0  0  0
 13 15  1  0  0  0  0
 14 25  1  1  0  0  0
 16 17  2  0  0  0  0
 16  3  1  0  0  0  0
 17 11  1  0  0  0  0
 19  6  1  0  0  0  0
 22 12  1  0  0  0  0
 22  1  1  0  0  0  0
 23 18  1  0  0  0  0
 23  5  1  0  0  0  0
 25 24  1  0  0  0  0
 25 26  1  0  0  0  0
 26 27  1  0  0  0  0
 27 28  1  0  0  0  0
 28 30  1  0  0  0  0
 29 28  2  0  0  0  0
 31 32  1  0  0  0  0
M  END
>  <MODEL>
4

>  <REMARK>
 VINA RESULT:      -6.1      5.198      9.283
  Name = 
  5 active torsions:
  status: ('A' for Active; 'I' for Inactive)
    1  A    between atoms: C_7  and  C_19
    2  A    between atoms: C_10  and  C_17
    3  A    between atoms: C_10  and  O_20
    4  A    between atoms: O_20  and  C_29
    5  A    between atoms: C_29  and  C_30
                            x       y       z     vdW  Elec       q    Type
                         _______ _______ _______ _____ _____    ______ ____

>  <TORSDO>
F 5

$$$$
=
 OpenBabel11122410513D

 32 36  0  0  1  0  0  0  0  0999 V2000
  183.9500  178.0920  140.7750 C   0  0  1  0  0  3  0  0  0  0  0  0
  179.5950  178.8150  142.9520 C   0  0  0  0  0  3  0  0  0  0  0  0
  180.2160  178.7130  144.1970 C   0  0  0  0  0  3  0  0  0  0  0  0
  186.1070  178.2540  142.1060 C   0  0  2  0  0  3  0  0  0  0  0  0
  186.6060  178.2420  143.5600 C   0  0  2  0  0  3  0  0  0  0  0  0
  183.8840  177.4930  138.3590 C   0  0  2  0  0  3  0  0  0  0  0  0
  181.8450  178.4040  139.4290 O   0  0  0  0  0  0  0  0  0  0  0  0
  186.3610  178.6970  145.7730 C   0  0  2  0  0  3  0  0  0  0  0  0
  180.3640  178.8160  141.7870 C   0  0  0  0  0  3  0  0  0  0  0  0
  182.5830  178.7660  140.5970 C   0  0  1  0  0  3  0  0  0  0  0  0
  181.7600  178.7050  141.8560 C   0  0  0  0  0  0  0  0  0  0  0  0
  183.8960  178.4620  143.2380 C   0  0  2  0  0  3  0  0  0  0  0  0
  186.3190  177.1830  145.6930 C   0  0  0  0  0  2  0  0  0  0  0  0
  182.3960  177.2970  138.7290 C   0  0  2  0  0  3  0  0  0  0  0  0
  186.4990  176.8770  144.2190 C   0  0  0  0  0  2  0  0  0  0  0  0
  181.6070  178.6220  144.2800 C   0  0  0  0  0  3  0  0  0  0  0  0
  182.3950  178.6480  143.1200 C   0  0  0  0  0  0  0  0  0  0  0  0
  184.5040  179.3190  144.3480 C   0  0  0  0  0  2  0  0  0  0  0  0
  184.6830  178.2100  139.4530 C   0  0  0  0  0  2  0  0  0  0  0  0
  186.9570  179.0500  141.3360 O   0  0  0  0  0  1  0  0  0  0  0  0
  185.5620  179.2510  146.9500 C   0  0  0  0  0  1  0  0  0  0  0  0
  184.6670  178.7490  141.9510 C   0  0  2  0  0  3  0  0  0  0  0  0
  185.9840  179.2320  144.4580 N   0  0  2  0  0  0  0  0  0  0  0  0
  180.6340  175.7750  139.6360 C   0  0  0  0  0  1  0  0  0  0  0  0
  182.1290  175.9740  139.4590 C   0  0  1  0  0  3  0  0  0  0  0  0
  182.6560  174.9000  138.7360 O   0  0  0  0  0  0  0  0  0  0  0  0
  181.6750  174.5890  137.7900 C   0  0  0  0  0  2  0  0  0  0  0  0
  182.3110  174.3010  136.4760 C   0  0  0  0  0  0  0  0  0  0  0  0
  183.5420  174.0440  136.4130 O   0  0  0  0  0  1  0  0  0  0  0  0
  181.5420  174.2870  135.3210 O   0  0  0  0  0  0  0  0  0  0  0  0
  184.0240  177.3600  135.9800 O   0  0  0  0  0  1  0  0  0  0  0  0
  183.9940  178.2540  137.0510 C   0  0  0  0  0  2  0  0  0  0  0  0
  1 19  1  6  0  0  0
  1 22  1  0  0  0  0
  2  3  1  0  0  0  0
  3 16  2  0  0  0  0
  4 20  1  6  0  0  0
  4  5  1  0  0  0  0
  5 15  1  1  0  0  0
  5 23  1  0  0  0  0
  6 32  1  6  0  0  0
  6 14  1  0  0  0  0
  6 19  1  0  0  0  0
  8 21  1  1  0  0  0
  9 11  1  0  0  0  0
  9  2  2  0  0  0  0
 10  7  1  6  0  0  0
 10  1  1  0  0  0  0
 10 11  1  0  0  0  0
 11 17  2  0  0  0  0
 12 18  1  1  0  0  0
 13  8  1  0  0  0  0
 14  7  1  0  0  0  0
 14 25  1  1  0  0  0
 15 13  1  0  0  0  0
 17 12  1  0  0  0  0
 17 16  1  0  0  0  0
 18 23  1  0  0  0  0
 22  4  1  0  0  0  0
 22 12  1  0  0  0  0
 23  8  1  0  0  0  0
 25 24  1  0  0  0  0
 26 25  1  0  0  0  0
 27 26  1  0  0  0  0
 28 27  1  0  0  0  0
 29 28  1  0  0  0  0
 30 28  2  0  0  0  0
 31 32  1  0  0  0  0
M  END
>  <MODEL>
5

>  <REMARK>
 VINA RESULT:      -5.8      6.203      7.937
  Name = 
  5 active torsions:
  status: ('A' for Active; 'I' for Inactive)
    1  A    between atoms: C_7  and  C_19
    2  A    between atoms: C_10  and  C_17
    3  A    between atoms: C_10  and  O_20
    4  A    between atoms: O_20  and  C_29
    5  A    between atoms: C_29  and  C_30
                            x       y       z     vdW  Elec       q    Type
                         _______ _______ _______ _____ _____    ______ ____

>  <TORSDO>
F 5

$$$$
=
 OpenBabel11122410513D

 32 36  0  0  1  0  0  0  0  0999 V2000
  187.2430  177.7720  139.1400 C   0  0  1  0  0  3  0  0  0  0  0  0
  183.3880  178.9510  141.9640 C   0  0  0  0  0  3  0  0  0  0  0  0
  184.1440  178.6510  143.0980 C   0  0  0  0  0  3  0  0  0  0  0  0
  189.5550  177.4960  140.1530 C   0  0  2  0  0  3  0  0  0  0  0  0
  190.2350  177.2840  141.5160 C   0  0  2  0  0  3  0  0  0  0  0  0
  186.7620  177.3990  136.7260 C   0  0  2  0  0  3  0  0  0  0  0  0
  185.0550  178.5090  138.1350 O   0  0  0  0  0  0  0  0  0  0  0  0
  190.3620  177.5810  143.7650 C   0  0  2  0  0  3  0  0  0  0  0  0
  183.9860  178.9360  140.7030 C   0  0  0  0  0  3  0  0  0  0  0  0
  185.9910  178.6560  139.2050 C   0  0  1  0  0  3  0  0  0  0  0  0
  185.3430  178.6120  140.5620 C   0  0  0  0  0  0  0  0  0  0  0  0
  187.5760  177.9350  141.6030 C   0  0  2  0  0  3  0  0  0  0  0  0
  190.0680  176.1020  143.5960 C   0  0  0  0  0  2  0  0  0  0  0  0
  185.3240  177.3960  137.2930 C   0  0  2  0  0  3  0  0  0  0  0  0
  189.9990  175.9000  142.0960 C   0  0  0  0  0  2  0  0  0  0  0  0
  185.5020  178.3460  142.9730 C   0  0  0  0  0  3  0  0  0  0  0  0
  186.1230  178.3530  141.7160 C   0  0  0  0  0  0  0  0  0  0  0  0
  188.4560  178.5930  142.6650 C   0  0  0  0  0  2  0  0  0  0  0  0
  187.8030  177.8920  137.7350 C   0  0  0  0  0  2  0  0  0  0  0  0
  190.4120  178.2170  139.3200 O   0  0  0  0  0  1  0  0  0  0  0  0
  189.8260  178.1460  145.0780 C   0  0  0  0  0  1  0  0  0  0  0  0
  188.2050  178.2120  140.2390 C   0  0  2  0  0  3  0  0  0  0  0  0
  189.9040  178.2760  142.5550 N   0  0  2  0  0  0  0  0  0  0  0  0
  183.4500  176.0230  138.2150 C   0  0  0  0  0  1  0  0  0  0  0  0
  184.9480  176.0710  137.9690 C   0  0  1  0  0  3  0  0  0  0  0  0
  185.3190  174.9890  137.1660 O   0  0  0  0  0  0  0  0  0  0  0  0
  184.3100  174.0400  137.3530 C   0  0  0  0  0  2  0  0  0  0  0  0
  184.8500  172.6730  137.1210 C   0  0  0  0  0  0  0  0  0  0  0  0
  184.0660  171.6940  137.0200 O   0  0  0  0  0  1  0  0  0  0  0  0
  186.2180  172.4810  136.9870 O   0  0  0  0  0  0  0  0  0  0  0  0
  185.7880  177.8750  134.5990 O   0  0  0  0  0  1  0  0  0  0  0  0
  186.8170  178.2430  135.4660 C   0  0  0  0  0  2  0  0  0  0  0  0
  1 19  1  6  0  0  0
  1 10  1  0  0  0  0
  1 22  1  0  0  0  0
  2  3  1  0  0  0  0
  4 20  1  6  0  0  0
  4 22  1  0  0  0  0
  4  5  1  0  0  0  0
  5 15  1  1  0  0  0
  5 23  1  0  0  0  0
  6 32  1  6  0  0  0
  6 14  1  0  0  0  0
  6 19  1  0  0  0  0
  8 21  1  1  0  0  0
  9  2  2  0  0  0  0
 10  7  1  6  0  0  0
 10 11  1  0  0  0  0
 11  9  1  0  0  0  0
 11 17  2  0  0  0  0
 12 17  1  0  0  0  0
 12 18  1  1  0  0  0
 13  8  1  0  0  0  0
 14 25  1  1  0  0  0
 14  7  1  0  0  0  0
 15 13  1  0  0  0  0
 16  3  2  0  0  0  0
 17 16  1  0  0  0  0
 22 12  1  0  0  0  0
 23 18  1  0  0  0  0
 23  8  1  0  0  0  0
 25 24  1  0  0  0  0
 26 27  1  0  0  0  0
 26 25  1  0  0  0  0
 28 27  1  0  0  0  0
 29 28  1  0  0  0  0
 30 28  2  0  0  0  0
 31 32  1  0  0  0  0
M  END
>  <MODEL>
6

>  <REMARK>
 VINA RESULT:      -5.8      3.654      5.357
  Name = 
  5 active torsions:
  status: ('A' for Active; 'I' for Inactive)
    1  A    between atoms: C_7  and  C_19
    2  A    between atoms: C_10  and  C_17
    3  A    between atoms: C_10  and  O_20
    4  A    between atoms: O_20  and  C_29
    5  A    between atoms: C_29  and  C_30
                            x       y       z     vdW  Elec       q    Type
                         _______ _______ _______ _____ _____    ______ ____

>  <TORSDO>
F 5

$$$$
=
 OpenBabel11122410513D

 32 36  0  0  1  0  0  0  0  0999 V2000
  185.6210  178.5380  141.1250 C   0  0  1  0  0  3  0  0  0  0  0  0
  183.7000  178.7290  145.6530 C   0  0  0  0  0  3  0  0  0  0  0  0
  184.8660  178.1520  146.1570 C   0  0  0  0  0  3  0  0  0  0  0  0
  188.0950  178.0760  140.7850 C   0  0  2  0  0  3  0  0  0  0  0  0
  189.3110  177.5170  141.5420 C   0  0  2  0  0  3  0  0  0  0  0  0
  184.0220  178.8390  139.2400 C   0  0  2  0  0  3  0  0  0  0  0  0
  183.3070  179.4430  141.5330 O   0  0  0  0  0  0  0  0  0  0  0  0
  190.5140  177.1760  143.4390 C   0  0  2  0  0  3  0  0  0  0  0  0
  183.6260  179.0920  144.3060 C   0  0  0  0  0  3  0  0  0  0  0  0
  184.6460  179.3200  142.0150 C   0  0  1  0  0  3  0  0  0  0  0  0
  184.7140  178.8720  143.4500 C   0  0  0  0  0  0  0  0  0  0  0  0
  187.0910  178.0150  143.0660 C   0  0  2  0  0  3  0  0  0  0  0  0
  190.0240  175.7940  143.0490 C   0  0  0  0  0  2  0  0  0  0  0  0
  183.0300  178.6220  140.4060 C   0  0  2  0  0  3  0  0  0  0  0  0
  189.2350  176.0180  141.7750 C   0  0  0  0  0  2  0  0  0  0  0  0
  185.9640  177.9470  145.3190 C   0  0  0  0  0  3  0  0  0  0  0  0
  185.9150  178.3300  143.9710 C   0  0  0  0  0  0  0  0  0  0  0  0
  188.4310  178.3820  143.7040 C   0  0  0  0  0  2  0  0  0  0  0  0
  185.4610  179.0680  139.7130 C   0  0  0  0  0  2  0  0  0  0  0  0
  188.5270  179.0350  139.8670 O   0  0  0  0  0  1  0  0  0  0  0  0
  190.7220  177.3290  144.9440 C   0  0  0  0  0  1  0  0  0  0  0  0
  187.0280  178.6880  141.6970 C   0  0  2  0  0  3  0  0  0  0  0  0
  189.6140  178.1640  142.8310 N   0  0  2  0  0  0  0  0  0  0  0  0
  181.4520  176.8670  141.2260 C   0  0  0  0  0  1  0  0  0  0  0  0
  182.8830  177.1470  140.8030 C   0  0  1  0  0  3  0  0  0  0  0  0
  183.2200  176.3160  139.7310 O   0  0  0  0  0  0  0  0  0  0  0  0
  182.0040  175.7800  139.2970 C   0  0  0  0  0  2  0  0  0  0  0  0
  181.9730  175.7310  137.8100 C   0  0  0  0  0  0  0  0  0  0  0  0
  181.9370  176.7990  137.1440 O   0  0  0  0  0  0  0  0  0  0  0  0
  182.0130  174.5080  137.1550 O   0  0  0  0  0  1  0  0  0  0  0  0
  182.1710  180.0950  138.4060 O   0  0  0  0  0  1  0  0  0  0  0  0
  183.5630  180.0040  138.3830 C   0  0  0  0  0  2  0  0  0  0  0  0
  1 19  1  6  0  0  0
  1 22  1  0  0  0  0
  1 10  1  0  0  0  0
  2  3  1  0  0  0  0
  4 20  1  6  0  0  0
  4  5  1  0  0  0  0
  4 22  1  0  0  0  0
  5 15  1  1  0  0  0
  5 23  1  0  0  0  0
  6 32  1  1  0  0  0
  6 19  1  0  0  0  0
  6 14  1  0  0  0  0
  8 21  1  1  0  0  0
  9  2  2  0  0  0  0
 10  7  1  6  0  0  0
 10 11  1  0  0  0  0
 11 17  2  0  0  0  0
 11  9  1  0  0  0  0
 12 18  1  1  0  0  0
 12 17  1  0  0  0  0
 13  8  1  0  0  0  0
 14 25  1  1  0  0  0
 14  7  1  0  0  0  0
 15 13  1  0  0  0  0
 16  3  2  0  0  0  0
 17 16  1  0  0  0  0
 22 12  1  0  0  0  0
 23  8  1  0  0  0  0
 23 18  1  0  0  0  0
 25 24  1  0  0  0  0
 26 25  1  0  0  0  0
 27 26  1  0  0  0  0
 28 27  1  0  0  0  0
 29 28  2  0  0  0  0
 30 28  1  0  0  0  0
 32 31  1  0  0  0  0
M  END
>  <MODEL>
7

>  <REMARK>
 VINA RESULT:      -5.5      4.825      7.878
  Name = 
  5 active torsions:
  status: ('A' for Active; 'I' for Inactive)
    1  A    between atoms: C_7  and  C_19
    2  A    between atoms: C_10  and  C_17
    3  A    between atoms: C_10  and  O_20
    4  A    between atoms: O_20  and  C_29
    5  A    between atoms: C_29  and  C_30
                            x       y       z     vdW  Elec       q    Type
                         _______ _______ _______ _____ _____    ______ ____

>  <TORSDO>
F 5

$$$$
=
 OpenBabel11122410513D

 32 36  0  0  1  0  0  0  0  0999 V2000
  186.1600  177.1050  136.9770 C   0  0  1  0  0  3  0  0  0  0  0  0
  186.0520  179.0040  141.5160 C   0  0  0  0  0  3  0  0  0  0  0  0
  187.3610  178.5660  141.7170 C   0  0  0  0  0  3  0  0  0  0  0  0
  188.3580  176.3910  135.9230 C   0  0  2  0  0  3  0  0  0  0  0  0
  189.8060  176.0540  136.3150 C   0  0  2  0  0  3  0  0  0  0  0  0
  183.9580  176.8280  135.8490 C   0  0  2  0  0  3  0  0  0  0  0  0
  184.1030  178.2470  137.8740 O   0  0  0  0  0  0  0  0  0  0  0  0
  191.6500  176.3240  137.6150 C   0  0  2  0  0  3  0  0  0  0  0  0
  185.4560  178.8740  140.2610 C   0  0  0  0  0  3  0  0  0  0  0  0
  185.5310  178.2130  137.8320 C   0  0  1  0  0  3  0  0  0  0  0  0
  186.1610  178.2950  139.1960 C   0  0  0  0  0  0  0  0  0  0  0  0
  188.2820  177.2030  138.2790 C   0  0  2  0  0  3  0  0  0  0  0  0
  191.1550  174.9290  137.9470 C   0  0  0  0  0  2  0  0  0  0  0  0
  183.4900  177.1020  137.2970 C   0  0  2  0  0  3  0  0  0  0  0  0
  189.9340  174.7420  137.0690 C   0  0  0  0  0  2  0  0  0  0  0  0
  188.0810  178.0060  140.6580 C   0  0  0  0  0  3  0  0  0  0  0  0
  187.5060  177.8930  139.3850 C   0  0  0  0  0  0  0  0  0  0  0  0
  189.7310  177.6810  138.1980 C   0  0  0  0  0  2  0  0  0  0  0  0
  185.4480  177.1140  135.6380 C   0  0  0  0  0  2  0  0  0  0  0  0
  188.3450  176.9340  134.6380 O   0  0  0  0  0  1  0  0  0  0  0  0
  192.3910  176.9820  138.7760 C   0  0  0  0  0  1  0  0  0  0  0  0
  187.6640  177.3530  136.8900 C   0  0  2  0  0  3  0  0  0  0  0  0
  190.5180  177.0920  137.0820 N   0  0  2  0  0  0  0  0  0  0  0  0
  182.6610  176.0100  139.3860 C   0  0  0  0  0  1  0  0  0  0  0  0
  183.6110  175.8750  138.2090 C   0  0  1  0  0  3  0  0  0  0  0  0
  183.3070  174.7080  137.5030 O   0  0  0  0  0  0  0  0  0  0  0  0
  184.2230  173.7590  137.9650 C   0  0  0  0  0  2  0  0  0  0  0  0
  185.2570  173.5040  136.9260 C   0  0  0  0  0  0  0  0  0  0  0  0
  186.4780  173.6210  137.2080 O   0  0  0  0  0  1  0  0  0  0  0  0
  184.8770  173.1090  135.6510 O   0  0  0  0  0  0  0  0  0  0  0  0
  181.8540  177.8640  135.4020 O   0  0  0  0  0  1  0  0  0  0  0  0
  183.1280  177.6450  134.8760 C   0  0  0  0  0  2  0  0  0  0  0  0
  1 19  1  6  0  0  0
  1 10  1  0  0  0  0
  2  3  1  0  0  0  0
  4 20  1  6  0  0  0
  4  5  1  0  0  0  0
  4 22  1  0  0  0  0
  5 15  1  1  0  0  0
  5 23  1  0  0  0  0
  6 32  1  6  0  0  0
  6 14  1  0  0  0  0
  8 13  1  0  0  0  0
  8 21  1  1  0  0  0
  9  2  2  0  0  0  0
 10  7  1  1  0  0  0
 10 11  1  0  0  0  0
 11 17  2  0  0  0  0
 11  9  1  0  0  0  0
 12 18  1  6  0  0  0
 12 17  1  0  0  0  0
 14  7  1  0  0  0  0
 14 25  1  1  0  0  0
 15 13  1  0  0  0  0
 16  3  2  0  0  0  0
 17 16  1  0  0  0  0
 19  6  1  0  0  0  0
 22  1  1  0  0  0  0
 22 12  1  0  0  0  0
 23  8  1  0  0  0  0
 23 18  1  0  0  0  0
 25 24  1  0  0  0  0
 26 27  1  0  0  0  0
 26 25  1  0  0  0  0
 28 29  1  0  0  0  0
 28 27  1  0  0  0  0
 30 28  2  0  0  0  0
 32 31  1  0  0  0  0
M  END
>  <MODEL>
8

>  <REMARK>
 VINA RESULT:      -5.5      3.598      6.814
  Name = 
  5 active torsions:
  status: ('A' for Active; 'I' for Inactive)
    1  A    between atoms: C_7  and  C_19
    2  A    between atoms: C_10  and  C_17
    3  A    between atoms: C_10  and  O_20
    4  A    between atoms: O_20  and  C_29
    5  A    between atoms: C_29  and  C_30
                            x       y       z     vdW  Elec       q    Type
                         _______ _______ _______ _____ _____    ______ ____

>  <TORSDO>
F 5

$$$$
=
 OpenBabel11122410513D

 32 36  0  0  1  0  0  0  0  0999 V2000
  185.0990  178.4000  139.3830 C   0  0  1  0  0  3  0  0  0  0  0  0
  185.4180  178.0560  144.2830 C   0  0  0  0  0  3  0  0  0  0  0  0
  186.7220  177.5790  144.1510 C   0  0  0  0  0  3  0  0  0  0  0  0
  187.1790  178.2440  137.9350 C   0  0  2  0  0  3  0  0  0  0  0  0
  188.6410  177.7720  138.0070 C   0  0  2  0  0  3  0  0  0  0  0  0
  182.8060  178.6520  138.4470 C   0  0  2  0  0  3  0  0  0  0  0  0
  183.1620  179.0100  140.8720 O   0  0  0  0  0  0  0  0  0  0  0  0
  190.5910  177.4350  139.1250 C   0  0  2  0  0  3  0  0  0  0  0  0
  184.7200  178.5010  143.1590 C   0  0  0  0  0  3  0  0  0  0  0  0
  184.5790  179.0030  140.6950 C   0  0  1  0  0  3  0  0  0  0  0  0
  185.3180  178.4660  141.8910 C   0  0  0  0  0  0  0  0  0  0  0  0
  187.3190  177.9100  140.4010 C   0  0  2  0  0  3  0  0  0  0  0  0
  190.0740  176.0380  138.8380 C   0  0  0  0  0  2  0  0  0  0  0  0
  182.4640  178.2440  139.8990 C   0  0  2  0  0  3  0  0  0  0  0  0
  188.7810  176.2610  138.0790 C   0  0  0  0  0  2  0  0  0  0  0  0
  187.3350  177.5570  142.8960 C   0  0  0  0  0  3  0  0  0  0  0  0
  186.6580  178.0260  141.7620 C   0  0  0  0  0  0  0  0  0  0  0  0
  188.7740  178.3780  140.4190 C   0  0  0  0  0  2  0  0  0  0  0  0
  184.2840  179.0070  138.2580 C   0  0  0  0  0  2  0  0  0  0  0  0
  187.0840  179.3070  137.0360 O   0  0  0  0  0  1  0  0  0  0  0  0
  191.4440  177.5030  140.3890 C   0  0  0  0  0  1  0  0  0  0  0  0
  186.5990  178.6660  139.2870 C   0  0  2  0  0  3  0  0  0  0  0  0
  189.4480  178.3570  139.0940 N   0  0  2  0  0  0  0  0  0  0  0  0
  181.2780  176.1510  140.5740 C   0  0  0  0  0  1  0  0  0  0  0  0
  182.6120  176.7380  140.1500 C   0  0  1  0  0  3  0  0  0  0  0  0
  183.0560  176.0900  138.9930 O   0  0  0  0  0  0  0  0  0  0  0  0
  182.0000  175.2530  138.6230 C   0  0  0  0  0  2  0  0  0  0  0  0
  182.3080  174.5900  137.3270 C   0  0  0  0  0  0  0  0  0  0  0  0
  183.0140  175.1800  136.4690 O   0  0  0  0  0  0  0  0  0  0  0  0
  181.8390  173.3080  137.0740 O   0  0  0  0  0  1  0  0  0  0  0  0
  182.3880  180.9970  138.6060 O   0  0  0  0  0  1  0  0  0  0  0  0
  181.9310  179.8160  138.0190 C   0  0  0  0  0  2  0  0  0  0  0  0
  1 19  1  6  0  0  0
  1 10  1  0  0  0  0
  3  2  1  0  0  0  0
  4 20  1  6  0  0  0
  4  5  1  0  0  0  0
  4 22  1  0  0  0  0
  5 15  1  1  0  0  0
  5 23  1  0  0  0  0
  6 32  1  1  0  0  0
  6 14  1  0  0  0  0
  8 21  1  1  0  0  0
  9  2  2  0  0  0  0
 10  7  1  1  0  0  0
 10 11  1  0  0  0  0
 11  9  1  0  0  0  0
 12 18  1  1  0  0  0
 12 17  1  0  0  0  0
 13  8  1  0  0  0  0
 14 25  1  6  0  0  0
 14  7  1  0  0  0  0
 15 13  1  0  0  0  0
 16  3  2  0  0  0  0
 17 11  2  0  0  0  0
 17 16  1  0  0  0  0
 19  6  1  0  0  0  0
 22  1  1  0  0  0  0
 22 12  1  0  0  0  0
 23  8  1  0  0  0  0
 23 18  1  0  0  0  0
 25 24  1  0  0  0  0
 26 25  1  0  0  0  0
 27 26  1  0  0  0  0
 28 27  1  0  0  0  0
 29 28  2  0  0  0  0
 30 28  1  0  0  0  0
 32 31  1  0  0  0  0
M  END
>  <MODEL>
9

>  <REMARK>
 VINA RESULT:      -5.3      4.339      7.820
  Name = 
  5 active torsions:
  status: ('A' for Active; 'I' for Inactive)
    1  A    between atoms: C_7  and  C_19
    2  A    between atoms: C_10  and  C_17
    3  A    between atoms: C_10  and  O_20
    4  A    between atoms: O_20  and  C_29
    5  A    between atoms: C_29  and  C_30
                            x       y       z     vdW  Elec       q    Type
                         _______ _______ _______ _____ _____    ______ ____

>  <TORSDO>
F 5

$$$$
