=
 OpenBabel11122410313D

 30 35  0  0  1  0  0  0  0  0999 V2000
  185.2970  178.2970  142.0300 C   0  0  0  0  0  0  0  0  0  0  0  0
  185.9640  178.3740  144.4440 C   0  0  0  0  0  0  0  0  0  0  0  0
  180.8890  178.9330  143.1200 S   0  0  0  0  0  0  0  0  0  0  0  0
  184.2720  178.4230  141.0680 C   0  0  0  0  0  0  0  0  0  0  0  0
  186.6640  177.8590  141.5710 C   0  0  0  0  0  2  0  0  0  0  0  0
  186.3240  178.6470  138.0220 O   0  0  0  0  0  0  0  0  0  0  0  0
  182.7250  176.4720  139.5780 C   0  0  1  0  0  3  0  0  0  0  0  0
  185.9940  178.4530  139.2230 C   0  0  0  0  0  0  0  0  0  0  0  0
  181.5550  177.2090  140.0980 N   0  0  2  0  0  0  0  0  0  0  0  0
  180.5990  179.1240  141.3200 C   0  0  1  0  0  3  0  0  0  0  0  0
  186.9950  178.3720  140.2460 N   0  0  0  0  0  0  0  0  0  0  0  0
  184.5420  178.3770  139.5840 C   0  0  1  0  0  3  0  0  0  0  0  0
  185.5900  178.5170  145.7830 C   0  0  0  0  0  3  0  0  0  0  0  0
  180.5810  177.1820  139.0160 C   0  0  0  0  0  2  0  0  0  0  0  0
  182.1670  175.3880  138.6780 C   0  0  0  0  0  2  0  0  0  0  0  0
  187.3110  178.1760  144.1690 O   0  0  0  0  0  1  0  0  0  0  0  0
  182.6350  178.7420  142.8090 C   0  0  0  0  0  0  0  0  0  0  0  0
  184.2600  178.7330  146.1330 C   0  0  0  0  0  3  0  0  0  0  0  0
  184.9850  178.4460  143.4160 C   0  0  0  0  0  0  0  0  0  0  0  0
  182.9570  178.6280  141.4810 C   0  0  0  0  0  0  0  0  0  0  0  0
  180.3870  180.5900  140.9970 C   0  0  0  0  0  1  0  0  0  0  0  0
  181.8060  178.5930  140.5340 C   0  0  1  0  0  3  0  0  0  0  0  0
  180.7890  175.8750  138.2750 C   0  0  0  0  0  2  0  0  0  0  0  0
  183.2040  177.8940  137.6530 O   0  0  0  0  0  1  0  0  0  0  0  0
  183.2850  178.8140  145.1440 C   0  0  0  0  0  3  0  0  0  0  0  0
  183.6280  178.6780  143.7940 C   0  0  0  0  0  0  0  0  0  0  0  0
  183.7710  177.3100  138.7890 C   0  0  2  0  0  3  0  0  0  0  0  0
  188.3960  178.6140  139.9240 C   0  0  0  0  0  2  0  0  0  0  0  0
  190.3680  177.0940  140.0660 C   0  0  0  0  0  1  0  0  0  0  0  0
  189.3040  177.8300  140.8580 C   0  0  0  0  0  2  0  0  0  0  0  0
  1 19  1  0  0  0  0
  2 13  1  0  0  0  0
  4 20  1  0  0  0  0
  4  1  2  0  0  0  0
  5  1  1  0  0  0  0
  6  8  2  0  0  0  0
  7 15  1  6  0  0  0
  7  9  1  0  0  0  0
  8 11  1  0  0  0  0
  9 14  1  6  0  0  0
  9 22  1  0  0  0  0
 10 21  1  1  0  0  0
 10  3  1  0  0  0  0
 11  5  1  0  0  0  0
 12  8  1  1  0  0  0
 12  4  1  0  0  0  0
 13 18  2  0  0  0  0
 16  2  1  0  0  0  0
 17  3  1  0  0  0  0
 17 26  1  0  0  0  0
 19 26  1  0  0  0  0
 19  2  2  0  0  0  0
 20 17  2  0  0  0  0
 22 10  1  0  0  0  0
 22 20  1  1  0  0  0
 23 15  1  0  0  0  0
 23 14  1  0  0  0  0
 25 18  1  0  0  0  0
 26 25  2  0  0  0  0
 27 24  1  6  0  0  0
 27  7  1  0  0  0  0
 27 12  1  0  0  0  0
 28 11  1  0  0  0  0
 28 30  1  0  0  0  0
 29 30  1  0  0  0  0
M  END
>  <MODEL>
1

>  <REMARK>
 VINA RESULT:      -7.8      0.000      0.000
  Name = 
  2 active torsions:
  status: ('A' for Active; 'I' for Inactive)
    1  A    between atoms: N_11  and  C_28
    2  A    between atoms: C_28  and  C_30
                            x       y       z     vdW  Elec       q    Type
                         _______ _______ _______ _____ _____    ______ ____

>  <TORSDO>
F 2

$$$$
=
 OpenBabel11122410313D

 30 35  0  0  1  0  0  0  0  0999 V2000
  188.5730  177.6470  141.4050 C   0  0  0  0  0  0  0  0  0  0  0  0
  186.7630  178.0160  143.0960 C   0  0  0  0  0  0  0  0  0  0  0  0
  185.6500  178.4160  137.9570 S   0  0  0  0  0  0  0  0  0  0  0  0
  188.9620  177.6560  140.0470 C   0  0  0  0  0  0  0  0  0  0  0  0
  189.5610  177.1550  142.4320 C   0  0  0  0  0  2  0  0  0  0  0  0
  192.6150  177.5050  140.4620 O   0  0  0  0  0  0  0  0  0  0  0  0
  189.3490  175.5400  138.1000 C   0  0  1  0  0  3  0  0  0  0  0  0
  191.3840  177.4580  140.7290 C   0  0  0  0  0  0  0  0  0  0  0  0
  188.4310  176.3360  137.2590 N   0  0  2  0  0  0  0  0  0  0  0  0
  187.1230  178.3860  136.8650 C   0  0  1  0  0  3  0  0  0  0  0  0
  190.9360  177.5010  142.0900 N   0  0  0  0  0  0  0  0  0  0  0  0
  190.3880  177.4290  139.6100 C   0  0  1  0  0  3  0  0  0  0  0  0
  185.4270  178.3210  143.3700 C   0  0  0  0  0  3  0  0  0  0  0  0
  188.9330  176.1780  135.9010 C   0  0  0  0  0  2  0  0  0  0  0  0
  189.7660  174.3540  137.2520 C   0  0  0  0  0  2  0  0  0  0  0  0
  187.6050  177.7840  144.1770 O   0  0  0  0  0  1  0  0  0  0  0  0
  186.7080  178.1860  139.3740 C   0  0  0  0  0  0  0  0  0  0  0  0
  184.5290  178.5810  142.3380 C   0  0  0  0  0  3  0  0  0  0  0  0
  187.2250  177.9640  141.7540 C   0  0  0  0  0  0  0  0  0  0  0  0
  188.0140  177.9110  139.0580 C   0  0  0  0  0  0  0  0  0  0  0  0
  187.4690  179.8020  136.4470 C   0  0  0  0  0  1  0  0  0  0  0  0
  188.3140  177.7620  137.6050 C   0  0  1  0  0  3  0  0  0  0  0  0
  189.5390  174.7900  135.8180 C   0  0  0  0  0  2  0  0  0  0  0  0
  191.4190  176.7160  137.5660 O   0  0  0  0  0  1  0  0  0  0  0  0
  184.9590  178.5410  141.0150 C   0  0  0  0  0  3  0  0  0  0  0  0
  186.2920  178.2420  140.7100 C   0  0  0  0  0  0  0  0  0  0  0  0
  190.6170  176.2740  138.6210 C   0  0  2  0  0  3  0  0  0  0  0  0
  191.8920  177.7010  143.1730 C   0  0  0  0  0  2  0  0  0  0  0  0
  191.5320  176.8510  145.4900 C   0  0  0  0  0  1  0  0  0  0  0  0
  191.1690  177.9320  144.4900 C   0  0  0  0  0  2  0  0  0  0  0  0
  1 19  1  0  0  0  0
  1  5  1  0  0  0  0
  2 13  1  0  0  0  0
  2 16  1  0  0  0  0
  3 17  1  0  0  0  0
  4  1  2  0  0  0  0
  6  8  2  0  0  0  0
  7 15  1  6  0  0  0
  7 27  1  0  0  0  0
  8 11  1  0  0  0  0
  9 14  1  6  0  0  0
  9 22  1  0  0  0  0
  9  7  1  0  0  0  0
 10 21  1  1  0  0  0
 10 22  1  0  0  0  0
 10  3  1  0  0  0  0
 11  5  1  0  0  0  0
 11 28  1  0  0  0  0
 12  4  1  1  0  0  0
 12  8  1  0  0  0  0
 17 26  1  0  0  0  0
 18 13  2  0  0  0  0
 19  2  2  0  0  0  0
 20 17  2  0  0  0  0
 20  4  1  0  0  0  0
 22 20  1  1  0  0  0
 23 14  1  0  0  0  0
 23 15  1  0  0  0  0
 25 18  1  0  0  0  0
 26 25  2  0  0  0  0
 26 19  1  0  0  0  0
 27 24  1  6  0  0  0
 27 12  1  0  0  0  0
 28 30  1  0  0  0  0
 30 29  1  0  0  0  0
M  END
>  <MODEL>
2

>  <REMARK>
 VINA RESULT:      -7.3      3.669      5.942
  Name = 
  2 active torsions:
  status: ('A' for Active; 'I' for Inactive)
    1  A    between atoms: N_11  and  C_28
    2  A    between atoms: C_28  and  C_30
                            x       y       z     vdW  Elec       q    Type
                         _______ _______ _______ _____ _____    ______ ____

>  <TORSDO>
F 2

$$$$
=
 OpenBabel11122410313D

 30 35  0  0  1  0  0  0  0  0999 V2000
  185.6030  178.5740  140.3750 C   0  0  0  0  0  0  0  0  0  0  0  0
  188.0850  178.4490  140.0620 C   0  0  0  0  0  0  0  0  0  0  0  0
  184.8850  177.1770  136.0680 S   0  0  0  0  0  0  0  0  0  0  0  0
  184.3170  178.3480  139.8390 C   0  0  0  0  0  0  0  0  0  0  0  0
  185.7140  179.2520  141.7170 C   0  0  0  0  0  2  0  0  0  0  0  0
  182.3170  178.6490  142.9120 O   0  0  0  0  0  0  0  0  0  0  0  0
  182.3350  180.1200  138.6770 C   0  0  1  0  0  3  0  0  0  0  0  0
  183.2920  178.7110  142.1160 C   0  0  0  0  0  0  0  0  0  0  0  0
  182.3580  179.1750  137.5410 N   0  0  2  0  0  0  0  0  0  0  0  0
  183.1150  177.0580  136.5320 C   0  0  1  0  0  3  0  0  0  0  0  0
  184.6250  178.8850  142.6160 N   0  0  0  0  0  0  0  0  0  0  0  0
  183.0570  178.5320  140.6480 C   0  0  1  0  0  3  0  0  0  0  0  0
  189.1730  178.1630  139.2300 C   0  0  0  0  0  3  0  0  0  0  0  0
  180.9810  179.1160  137.0710 C   0  0  0  0  0  2  0  0  0  0  0  0
  181.2850  181.1570  138.3320 C   0  0  0  0  0  2  0  0  0  0  0  0
  188.3580  178.8760  141.3550 O   0  0  0  0  0  1  0  0  0  0  0  0
  185.2810  177.6620  137.7380 C   0  0  0  0  0  0  0  0  0  0  0  0
  188.9750  177.7160  137.9270 C   0  0  0  0  0  3  0  0  0  0  0  0
  186.7570  178.2890  139.5830 C   0  0  0  0  0  0  0  0  0  0  0  0
  184.1830  177.9110  138.5230 C   0  0  0  0  0  0  0  0  0  0  0  0
  182.7390  175.6000  136.7160 C   0  0  0  0  0  1  0  0  0  0  0  0
  182.8620  177.8230  137.8380 C   0  0  1  0  0  3  0  0  0  0  0  0
  180.3760  180.4840  137.3220 C   0  0  0  0  0  2  0  0  0  0  0  0
  180.7550  178.9190  140.0970 O   0  0  0  0  0  1  0  0  0  0  0  0
  187.6830  177.5450  137.4380 C   0  0  0  0  0  3  0  0  0  0  0  0
  186.5750  177.8200  138.2470 C   0  0  0  0  0  0  0  0  0  0  0  0
  182.0200  179.5120  140.0720 C   0  0  2  0  0  3  0  0  0  0  0  0
  184.8770  178.8890  144.0520 C   0  0  0  0  0  2  0  0  0  0  0  0
  186.2390  177.9120  145.8990 C   0  0  0  0  0  1  0  0  0  0  0  0
  186.0050  177.9310  144.4000 C   0  0  0  0  0  2  0  0  0  0  0  0
  1  5  1  0  0  0  0
  2 16  1  0  0  0  0
  3 10  1  0  0  0  0
  3 17  1  0  0  0  0
  4  1  1  0  0  0  0
  5 11  1  0  0  0  0
  7 15  1  6  0  0  0
  7 27  1  0  0  0  0
  8 11  1  0  0  0  0
  8  6  2  0  0  0  0
  9 14  1  1  0  0  0
  9 22  1  0  0  0  0
  9  7  1  0  0  0  0
 10 21  1  1  0  0  0
 10 22  1  0  0  0  0
 11 28  1  0  0  0  0
 12  4  1  6  0  0  0
 12  8  1  0  0  0  0
 13  2  2  0  0  0  0
 14 23  1  0  0  0  0
 17 26  2  0  0  0  0
 17 20  1  0  0  0  0
 18 13  1  0  0  0  0
 19  2  1  0  0  0  0
 19  1  2  0  0  0  0
 20  4  2  0  0  0  0
 22 20  1  6  0  0  0
 23 15  1  0  0  0  0
 25 18  2  0  0  0  0
 25 26  1  0  0  0  0
 26 19  1  0  0  0  0
 27 24  1  6  0  0  0
 27 12  1  0  0  0  0
 28 30  1  0  0  0  0
 30 29  1  0  0  0  0
M  END
>  <MODEL>
3

>  <REMARK>
 VINA RESULT:      -7.1      2.673      5.220
  Name = 
  2 active torsions:
  status: ('A' for Active; 'I' for Inactive)
    1  A    between atoms: N_11  and  C_28
    2  A    between atoms: C_28  and  C_30
                            x       y       z     vdW  Elec       q    Type
                         _______ _______ _______ _____ _____    ______ ____

>  <TORSDO>
F 2

$$$$
=
 OpenBabel11122410313D

 30 35  0  0  1  0  0  0  0  0999 V2000
  185.4650  178.3940  141.7010 C   0  0  0  0  0  0  0  0  0  0  0  0
  184.8130  178.4520  144.1190 C   0  0  0  0  0  0  0  0  0  0  0  0
  181.1590  179.2980  140.4120 S   0  0  0  0  0  0  0  0  0  0  0  0
  185.0810  178.5720  140.3540 C   0  0  0  0  0  0  0  0  0  0  0  0
  186.8490  177.8730  141.9910 C   0  0  0  0  0  2  0  0  0  0  0  0
  188.4070  178.6490  138.7810 O   0  0  0  0  0  0  0  0  0  0  0  0
  184.4030  176.7030  138.2410 C   0  0  1  0  0  3  0  0  0  0  0  0
  187.5010  178.4850  139.6420 C   0  0  0  0  0  0  0  0  0  0  0  0
  183.1740  177.5120  138.1100 N   0  0  2  0  0  0  0  0  0  0  0  0
  181.8370  179.4910  138.7190 C   0  0  1  0  0  3  0  0  0  0  0  0
  187.8360  178.3530  141.0300 N   0  0  0  0  0  0  0  0  0  0  0  0
  186.0660  178.4970  139.2140 C   0  0  1  0  0  3  0  0  0  0  0  0
  183.8180  178.6280  145.0850 C   0  0  0  0  0  3  0  0  0  0  0  0
  182.8870  177.5330  136.6830 C   0  0  0  0  0  2  0  0  0  0  0  0
  184.3220  175.6460  137.1580 C   0  0  0  0  0  2  0  0  0  0  0  0
  186.1000  178.1720  144.5630 O   0  0  0  0  0  1  0  0  0  0  0  0
  182.8060  179.0020  141.0280 C   0  0  0  0  0  0  0  0  0  0  0  0
  182.5100  178.9260  144.7150 C   0  0  0  0  0  3  0  0  0  0  0  0
  184.5000  178.5730  142.7390 C   0  0  0  0  0  0  0  0  0  0  0  0
  183.7530  178.8570  140.0450 C   0  0  0  0  0  0  0  0  0  0  0  0
  181.9000  180.9640  138.3660 C   0  0  0  0  0  1  0  0  0  0  0  0
  183.2440  178.8830  138.6440 C   0  0  1  0  0  3  0  0  0  0  0  0
  183.3710  176.2100  136.1200 C   0  0  0  0  0  2  0  0  0  0  0  0
  185.8730  178.0780  136.8600 O   0  0  0  0  0  1  0  0  0  0  0  0
  182.1800  179.0550  143.3690 C   0  0  0  0  0  3  0  0  0  0  0  0
  183.1550  178.8880  142.3790 C   0  0  0  0  0  0  0  0  0  0  0  0
  185.7490  177.4710  138.1130 C   0  0  2  0  0  3  0  0  0  0  0  0
  189.2170  178.5100  141.4710 C   0  0  0  0  0  2  0  0  0  0  0  0
  190.5230  178.6280  143.5920 C   0  0  0  0  0  1  0  0  0  0  0  0
  189.4080  177.9100  142.8550 C   0  0  0  0  0  2  0  0  0  0  0  0
  1  5  1  0  0  0  0
  1 19  1  0  0  0  0
  2 16  1  0  0  0  0
  2 13  1  0  0  0  0
  3 17  1  0  0  0  0
  4  1  2  0  0  0  0
  6  8  2  0  0  0  0
  7 15  1  6  0  0  0
  8 11  1  0  0  0  0
  9 14  1  6  0  0  0
  9  7  1  0  0  0  0
  9 22  1  0  0  0  0
 10 21  1  1  0  0  0
 10  3  1  0  0  0  0
 11 28  1  0  0  0  0
 11  5  1  0  0  0  0
 12  8  1  1  0  0  0
 12  4  1  0  0  0  0
 17 26  1  0  0  0  0
 18 13  2  0  0  0  0
 19  2  2  0  0  0  0
 20  4  1  0  0  0  0
 20 17  2  0  0  0  0
 22 10  1  0  0  0  0
 22 20  1  1  0  0  0
 23 14  1  0  0  0  0
 23 15  1  0  0  0  0
 25 18  1  0  0  0  0
 26 19  1  0  0  0  0
 26 25  2  0  0  0  0
 27 24  1  6  0  0  0
 27  7  1  0  0  0  0
 27 12  1  0  0  0  0
 28 30  1  0  0  0  0
 30 29  1  0  0  0  0
M  END
>  <MODEL>
4

>  <REMARK>
 VINA RESULT:      -7.1      1.730      2.189
  Name = 
  2 active torsions:
  status: ('A' for Active; 'I' for Inactive)
    1  A    between atoms: N_11  and  C_28
    2  A    between atoms: C_28  and  C_30
                            x       y       z     vdW  Elec       q    Type
                         _______ _______ _______ _____ _____    ______ ____

>  <TORSDO>
F 2

$$$$
=
 OpenBabel11122410313D

 30 35  0  0  1  0  0  0  0  0999 V2000
  185.6470  178.2570  141.0500 C   0  0  0  0  0  0  0  0  0  0  0  0
  186.0900  178.4040  143.5110 C   0  0  0  0  0  0  0  0  0  0  0  0
  181.1410  178.7660  141.7260 S   0  0  0  0  0  0  0  0  0  0  0  0
  184.7090  178.3290  139.9970 C   0  0  0  0  0  0  0  0  0  0  0  0
  187.0630  177.8560  140.7250 C   0  0  0  0  0  2  0  0  0  0  0  0
  187.0190  178.5610  137.1430 O   0  0  0  0  0  0  0  0  0  0  0  0
  183.3650  176.2980  138.4200 C   0  0  1  0  0  3  0  0  0  0  0  0
  186.5880  178.3790  138.3130 C   0  0  0  0  0  0  0  0  0  0  0  0
  182.1300  177.0050  138.8160 N   0  0  2  0  0  0  0  0  0  0  0  0
  181.0080  178.9110  139.9030 C   0  0  1  0  0  3  0  0  0  0  0  0
  187.4950  178.3520  139.4230 N   0  0  0  0  0  0  0  0  0  0  0  0
  185.1130  178.2620  138.5450 C   0  0  1  0  0  3  0  0  0  0  0  0
  185.5920  178.5610  144.8080 C   0  0  0  0  0  3  0  0  0  0  0  0
  181.2590  176.9230  137.6520 C   0  0  0  0  0  2  0  0  0  0  0  0
  182.9250  175.1770  137.4990 C   0  0  0  0  0  2  0  0  0  0  0  0
  187.4620  178.2460  143.3620 O   0  0  0  0  0  1  0  0  0  0  0  0
  182.9120  178.6270  141.5770 C   0  0  0  0  0  0  0  0  0  0  0  0
  184.2300  178.7400  145.0320 C   0  0  0  0  0  3  0  0  0  0  0  0
  185.2060  178.4230  142.3990 C   0  0  0  0  0  0  0  0  0  0  0  0
  183.3560  178.4970  140.2860 C   0  0  0  0  0  0  0  0  0  0  0  0
  180.7790  180.3620  139.5280 C   0  0  0  0  0  1  0  0  0  0  0  0
  182.2970  178.4050  139.2410 C   0  0  1  0  0  3  0  0  0  0  0  0
  181.5740  175.6100  136.9620 C   0  0  0  0  0  2  0  0  0  0  0  0
  183.9700  177.6960  136.5140 O   0  0  0  0  0  1  0  0  0  0  0  0
  183.3460  178.7680  143.9580 C   0  0  0  0  0  3  0  0  0  0  0  0
  183.8140  178.6170  142.6480 C   0  0  0  0  0  0  0  0  0  0  0  0
  184.4510  177.1540  137.7090 C   0  0  2  0  0  3  0  0  0  0  0  0
  188.9110  178.6350  139.2220 C   0  0  0  0  0  2  0  0  0  0  0  0
  190.7230  177.3160  140.3160 C   0  0  0  0  0  1  0  0  0  0  0  0
  189.7150  177.3450  139.1830 C   0  0  0  0  0  2  0  0  0  0  0  0
  1 19  1  0  0  0  0
  2 13  1  0  0  0  0
  4 20  1  0  0  0  0
  4  1  2  0  0  0  0
  5  1  1  0  0  0  0
  6  8  2  0  0  0  0
  7 15  1  6  0  0  0
  7  9  1  0  0  0  0
  8 11  1  0  0  0  0
  9 14  1  6  0  0  0
  9 22  1  0  0  0  0
 10 21  1  1  0  0  0
 10  3  1  0  0  0  0
 11  5  1  0  0  0  0
 12  8  1  1  0  0  0
 12  4  1  0  0  0  0
 13 18  2  0  0  0  0
 16  2  1  0  0  0  0
 17  3  1  0  0  0  0
 17 26  1  0  0  0  0
 19 26  1  0  0  0  0
 19  2  2  0  0  0  0
 20 17  2  0  0  0  0
 22 10  1  0  0  0  0
 22 20  1  1  0  0  0
 23 15  1  0  0  0  0
 23 14  1  0  0  0  0
 25 18  1  0  0  0  0
 26 25  2  0  0  0  0
 27 24  1  6  0  0  0
 27  7  1  0  0  0  0
 27 12  1  0  0  0  0
 28 11  1  0  0  0  0
 30 28  1  0  0  0  0
 30 29  1  0  0  0  0
M  END
>  <MODEL>
5

>  <REMARK>
 VINA RESULT:      -6.8      1.113      1.236
  Name = 
  2 active torsions:
  status: ('A' for Active; 'I' for Inactive)
    1  A    between atoms: N_11  and  C_28
    2  A    between atoms: C_28  and  C_30
                            x       y       z     vdW  Elec       q    Type
                         _______ _______ _______ _____ _____    ______ ____

>  <TORSDO>
F 2

$$$$
=
 OpenBabel11122410313D

 30 35  0  0  1  0  0  0  0  0999 V2000
  182.7610  178.6880  141.4420 C   0  0  0  0  0  0  0  0  0  0  0  0
  181.2690  178.9090  143.4420 C   0  0  0  0  0  0  0  0  0  0  0  0
  179.2850  179.6560  138.6140 S   0  0  0  0  0  0  0  0  0  0  0  0
  182.9090  178.7990  140.0420 C   0  0  0  0  0  0  0  0  0  0  0  0
  183.9120  178.1390  142.2460 C   0  0  0  0  0  2  0  0  0  0  0  0
  186.5790  178.6750  139.8110 O   0  0  0  0  0  0  0  0  0  0  0  0
  182.9600  176.8330  137.9090 C   0  0  1  0  0  3  0  0  0  0  0  0
  185.4130  178.5910  140.2810 C   0  0  0  0  0  0  0  0  0  0  0  0
  181.9090  177.6740  137.2990 N   0  0  2  0  0  0  0  0  0  0  0  0
  180.5470  179.7270  137.2850 C   0  0  1  0  0  3  0  0  0  0  0  0
  185.2070  178.5300  141.6990 N   0  0  0  0  0  0  0  0  0  0  0  0
  184.2390  178.6260  139.3520 C   0  0  1  0  0  3  0  0  0  0  0  0
  179.9990  179.1730  143.9630 C   0  0  0  0  0  3  0  0  0  0  0  0
  182.1690  177.6200  135.8670 C   0  0  0  0  0  2  0  0  0  0  0  0
  183.2280  175.7180  136.9180 C   0  0  0  0  0  2  0  0  0  0  0  0
  182.2860  178.6130  144.3420 O   0  0  0  0  0  1  0  0  0  0  0  0
  180.5720  179.3420  139.8070 C   0  0  0  0  0  0  0  0  0  0  0  0
  178.9360  179.4920  143.1230 C   0  0  0  0  0  3  0  0  0  0  0  0
  181.4920  178.9590  142.0400 C   0  0  0  0  0  0  0  0  0  0  0  0
  181.8050  179.1100  139.2520 C   0  0  0  0  0  0  0  0  0  0  0  0
  180.8120  181.1740  136.9190 C   0  0  0  0  0  1  0  0  0  0  0  0
  181.8490  179.0700  137.7630 C   0  0  1  0  0  3  0  0  0  0  0  0
  182.7560  176.2510  135.5800 C   0  0  0  0  0  2  0  0  0  0  0  0
  184.9040  178.0760  137.1140 O   0  0  0  0  0  1  0  0  0  0  0  0
  179.1320  179.5530  141.7460 C   0  0  0  0  0  3  0  0  0  0  0  0
  180.3920  179.2960  141.1950 C   0  0  0  0  0  0  0  0  0  0  0  0
  184.2970  177.5480  138.2560 C   0  0  2  0  0  3  0  0  0  0  0  0
  186.3350  178.6670  142.6130 C   0  0  0  0  0  2  0  0  0  0  0  0
  187.4030  177.5610  144.5760 C   0  0  0  0  0  1  0  0  0  0  0  0
  186.0890  177.8780  143.8890 C   0  0  0  0  0  2  0  0  0  0  0  0
  1 19  1  0  0  0  0
  1  5  1  0  0  0  0
  2 13  1  0  0  0  0
  2 16  1  0  0  0  0
  3 17  1  0  0  0  0
  4  1  2  0  0  0  0
  6  8  2  0  0  0  0
  7 15  1  6  0  0  0
  7 27  1  0  0  0  0
  8 11  1  0  0  0  0
  9 14  1  6  0  0  0
  9 22  1  0  0  0  0
  9  7  1  0  0  0  0
 10 21  1  1  0  0  0
 10 22  1  0  0  0  0
 10  3  1  0  0  0  0
 11  5  1  0  0  0  0
 11 28  1  0  0  0  0
 12  4  1  1  0  0  0
 12  8  1  0  0  0  0
 17 26  1  0  0  0  0
 18 13  2  0  0  0  0
 19  2  2  0  0  0  0
 20 17  2  0  0  0  0
 20  4  1  0  0  0  0
 22 20  1  1  0  0  0
 23 14  1  0  0  0  0
 23 15  1  0  0  0  0
 25 18  1  0  0  0  0
 26 25  2  0  0  0  0
 26 19  1  0  0  0  0
 27 24  1  6  0  0  0
 27 12  1  0  0  0  0
 28 30  1  0  0  0  0
 30 29  1  0  0  0  0
M  END
>  <MODEL>
6

>  <REMARK>
 VINA RESULT:      -6.6      2.347      3.653
  Name = 
  2 active torsions:
  status: ('A' for Active; 'I' for Inactive)
    1  A    between atoms: N_11  and  C_28
    2  A    between atoms: C_28  and  C_30
                            x       y       z     vdW  Elec       q    Type
                         _______ _______ _______ _____ _____    ______ ____

>  <TORSDO>
F 2

$$$$
=
 OpenBabel11122410313D

 30 35  0  0  1  0  0  0  0  0999 V2000
  184.3090  178.3320  141.3330 C   0  0  0  0  0  0  0  0  0  0  0  0
  185.6610  178.5330  143.4330 C   0  0  0  0  0  0  0  0  0  0  0  0
  180.4130  179.0090  143.6540 S   0  0  0  0  0  0  0  0  0  0  0  0
  183.0420  178.4070  140.7150 C   0  0  0  0  0  0  0  0  0  0  0  0
  185.4850  177.8760  140.5090 C   0  0  0  0  0  2  0  0  0  0  0  0
  184.0920  178.4840  137.1890 O   0  0  0  0  0  0  0  0  0  0  0  0
  181.1570  176.3790  139.8460 C   0  0  1  0  0  3  0  0  0  0  0  0
  184.1370  178.3490  138.4410 C   0  0  0  0  0  0  0  0  0  0  0  0
  180.1810  177.1380  140.6560 N   0  0  2  0  0  0  0  0  0  0  0  0
  179.5980  179.1090  142.0150 C   0  0  1  0  0  3  0  0  0  0  0  0
  185.3980  178.3220  139.1230 N   0  0  0  0  0  0  0  0  0  0  0  0
  182.8600  178.2870  139.2220 C   0  0  1  0  0  3  0  0  0  0  0  0
  185.6990  178.7410  144.8140 C   0  0  0  0  0  3  0  0  0  0  0  0
  178.9310  177.0540  139.9150 C   0  0  0  0  0  2  0  0  0  0  0  0
  180.3760  175.2500  139.2050 C   0  0  0  0  0  2  0  0  0  0  0  0
  186.8690  178.3240  142.7790 O   0  0  0  0  0  1  0  0  0  0  0  0
  181.9910  178.8080  142.8470 C   0  0  0  0  0  0  0  0  0  0  0  0
  184.5300  178.9710  145.5340 C   0  0  0  0  0  3  0  0  0  0  0  0
  184.4200  178.5500  142.7410 C   0  0  0  0  0  0  0  0  0  0  0  0
  181.9060  178.6280  141.4900 C   0  0  0  0  0  0  0  0  0  0  0  0
  179.2730  180.5560  141.7010 C   0  0  0  0  0  1  0  0  0  0  0  0
  180.5260  178.5430  140.9320 C   0  0  1  0  0  3  0  0  0  0  0  0
  178.9310  175.7120  139.2080 C   0  0  0  0  0  2  0  0  0  0  0  0
  181.0170  177.7040  137.8020 O   0  0  0  0  0  1  0  0  0  0  0  0
  183.3030  178.9990  144.8770 C   0  0  0  0  0  3  0  0  0  0  0  0
  183.2330  178.7970  143.4940 C   0  0  0  0  0  0  0  0  0  0  0  0
  181.9060  177.1790  138.7430 C   0  0  2  0  0  3  0  0  0  0  0  0
  186.6360  178.5530  138.3870 C   0  0  0  0  0  2  0  0  0  0  0  0
  189.1000  178.6210  138.7620 C   0  0  0  0  0  1  0  0  0  0  0  0
  187.8100  177.8970  139.0970 C   0  0  0  0  0  2  0  0  0  0  0  0
  1 19  1  0  0  0  0
  2 13  1  0  0  0  0
  4  1  2  0  0  0  0
  4 20  1  0  0  0  0
  5  1  1  0  0  0  0
  6  8  2  0  0  0  0
  7 15  1  6  0  0  0
  7  9  1  0  0  0  0
  8 11  1  0  0  0  0
  9 14  1  6  0  0  0
  9 22  1  0  0  0  0
 10 21  1  6  0  0  0
 10  3  1  0  0  0  0
 11  5  1  0  0  0  0
 12  8  1  6  0  0  0
 12  4  1  0  0  0  0
 13 18  2  0  0  0  0
 15 23  1  0  0  0  0
 16  2  1  0  0  0  0
 17 26  1  0  0  0  0
 17  3  1  0  0  0  0
 19  2  2  0  0  0  0
 19 26  1  0  0  0  0
 20 17  2  0  0  0  0
 22 20  1  1  0  0  0
 22 10  1  0  0  0  0
 23 14  1  0  0  0  0
 25 18  1  0  0  0  0
 26 25  2  0  0  0  0
 27 24  1  6  0  0  0
 27 12  1  0  0  0  0
 27  7  1  0  0  0  0
 28 30  1  0  0  0  0
 28 11  1  0  0  0  0
 29 30  1  0  0  0  0
M  END
>  <MODEL>
7

>  <REMARK>
 VINA RESULT:      -6.5      1.303      1.593
  Name = 
  2 active torsions:
  status: ('A' for Active; 'I' for Inactive)
    1  A    between atoms: N_11  and  C_28
    2  A    between atoms: C_28  and  C_30
                            x       y       z     vdW  Elec       q    Type
                         _______ _______ _______ _____ _____    ______ ____

>  <TORSDO>
F 2

$$$$
=
 OpenBabel11122410313D

 30 35  0  0  1  0  0  0  0  0999 V2000
  184.7770  178.5070  140.1180 C   0  0  0  0  0  0  0  0  0  0  0  0
  187.0250  178.2640  139.0390 C   0  0  0  0  0  0  0  0  0  0  0  0
  182.6760  177.1000  136.2930 S   0  0  0  0  0  0  0  0  0  0  0  0
  183.3790  178.3360  140.0200 C   0  0  0  0  0  0  0  0  0  0  0  0
  185.3340  179.1930  141.3390 C   0  0  0  0  0  2  0  0  0  0  0  0
  182.4690  178.7610  143.5600 O   0  0  0  0  0  0  0  0  0  0  0  0
  181.2050  180.1850  139.5010 C   0  0  1  0  0  3  0  0  0  0  0  0
  183.1430  178.7690  142.4960 C   0  0  0  0  0  0  0  0  0  0  0  0
  180.8290  179.2280  138.4400 N   0  0  2  0  0  0  0  0  0  0  0  0
  181.1410  177.0680  137.2950 C   0  0  1  0  0  3  0  0  0  0  0  0
  184.5720  178.8860  142.5440 N   0  0  0  0  0  0  0  0  0  0  0  0
  182.4490  178.5860  141.1810 C   0  0  1  0  0  3  0  0  0  0  0  0
  187.7810  177.9200  137.9150 C   0  0  0  0  0  3  0  0  0  0  0  0
  179.3730  179.2290  138.4300 C   0  0  0  0  0  2  0  0  0  0  0  0
  180.1430  181.2660  139.4800 C   0  0  0  0  0  2  0  0  0  0  0  0
  187.7110  178.6920  140.1700 O   0  0  0  0  0  1  0  0  0  0  0  0
  183.5990  177.5840  137.7400 C   0  0  0  0  0  0  0  0  0  0  0  0
  187.1630  177.4680  136.7520 C   0  0  0  0  0  3  0  0  0  0  0  0
  185.6090  178.1600  139.0090 C   0  0  0  0  0  0  0  0  0  0  0  0
  182.8180  177.8920  138.8250 C   0  0  0  0  0  0  0  0  0  0  0  0
  180.7830  175.6320  137.6240 C   0  0  0  0  0  1  0  0  0  0  0  0
  181.3450  177.8580  138.5950 C   0  0  1  0  0  3  0  0  0  0  0  0
  178.9340  180.6260  138.8250 C   0  0  0  0  0  2  0  0  0  0  0  0
  180.1080  179.0730  141.3760 O   0  0  0  0  0  1  0  0  0  0  0  0
  185.7770  177.3530  136.7000 C   0  0  0  0  0  3  0  0  0  0  0  0
  184.9940  177.6870  137.8100 C   0  0  0  0  0  0  0  0  0  0  0  0
  181.3240  179.6070  140.9390 C   0  0  2  0  0  3  0  0  0  0  0  0
  185.2660  178.8940  143.8260 C   0  0  0  0  0  2  0  0  0  0  0  0
  186.8590  177.6700  145.3040 C   0  0  0  0  0  1  0  0  0  0  0  0
  186.1750  177.6810  143.9500 C   0  0  0  0  0  2  0  0  0  0  0  0
  1  5  1  0  0  0  0
  2 16  1  0  0  0  0
  3 10  1  0  0  0  0
  3 17  1  0  0  0  0
  4  1  1  0  0  0  0
  5 11  1  0  0  0  0
  7 15  1  1  0  0  0
  7 27  1  0  0  0  0
  8 11  1  0  0  0  0
  8  6  2  0  0  0  0
  9 14  1  1  0  0  0
  9 22  1  0  0  0  0
  9  7  1  0  0  0  0
 10 21  1  1  0  0  0
 10 22  1  0  0  0  0
 11 28  1  0  0  0  0
 12  4  1  6  0  0  0
 12  8  1  0  0  0  0
 13  2  2  0  0  0  0
 14 23  1  0  0  0  0
 17 26  2  0  0  0  0
 17 20  1  0  0  0  0
 18 13  1  0  0  0  0
 19  2  1  0  0  0  0
 19  1  2  0  0  0  0
 20  4  2  0  0  0  0
 22 20  1  6  0  0  0
 23 15  1  0  0  0  0
 25 18  2  0  0  0  0
 25 26  1  0  0  0  0
 26 19  1  0  0  0  0
 27 12  1  0  0  0  0
 27 24  1  6  0  0  0
 28 30  1  0  0  0  0
 30 29  1  0  0  0  0
M  END
>  <MODEL>
8

>  <REMARK>
 VINA RESULT:      -6.5      2.489      5.205
  Name = 
  2 active torsions:
  status: ('A' for Active; 'I' for Inactive)
    1  A    between atoms: N_11  and  C_28
    2  A    between atoms: C_28  and  C_30
                            x       y       z     vdW  Elec       q    Type
                         _______ _______ _______ _____ _____    ______ ____

>  <TORSDO>
F 2

$$$$
=
 OpenBabel11122410313D

 30 35  0  0  1  0  0  0  0  0999 V2000
  185.1210  178.0010  139.2130 C   0  0  0  0  0  0  0  0  0  0  0  0
  185.6750  178.9740  141.4540 C   0  0  0  0  0  0  0  0  0  0  0  0
  180.7600  177.3390  140.4640 S   0  0  0  0  0  0  0  0  0  0  0  0
  184.1350  177.4890  138.3420 C   0  0  0  0  0  0  0  0  0  0  0  0
  186.5620  177.9570  138.7730 C   0  0  0  0  0  2  0  0  0  0  0  0
  186.0220  177.5550  135.1850 O   0  0  0  0  0  0  0  0  0  0  0  0
  183.4140  174.7890  137.5620 C   0  0  1  0  0  3  0  0  0  0  0  0
  185.7630  177.6000  136.4170 C   0  0  0  0  0  0  0  0  0  0  0  0
  182.0480  175.1860  137.9640 N   0  0  2  0  0  0  0  0  0  0  0  0
  180.4510  176.9080  138.7090 C   0  0  1  0  0  3  0  0  0  0  0  0
  186.7090  178.1610  137.3360 N   0  0  0  0  0  0  0  0  0  0  0  0
  184.4290  177.1280  136.9070 C   0  0  1  0  0  3  0  0  0  0  0  0
  185.2520  179.3450  142.7340 C   0  0  0  0  0  3  0  0  0  0  0  0
  181.1670  174.5210  137.0150 C   0  0  0  0  0  2  0  0  0  0  0  0
  183.2950  173.3730  137.0330 C   0  0  0  0  0  2  0  0  0  0  0  0
  187.0080  179.1890  141.1290 O   0  0  0  0  0  1  0  0  0  0  0  0
  182.4630  177.6900  140.0680 C   0  0  0  0  0  0  0  0  0  0  0  0
  183.9270  179.1730  143.1250 C   0  0  0  0  0  3  0  0  0  0  0  0
  184.7530  178.4110  140.5310 C   0  0  0  0  0  0  0  0  0  0  0  0
  182.8270  177.3290  138.7960 C   0  0  0  0  0  0  0  0  0  0  0  0
  179.7330  178.0560  138.0260 C   0  0  0  0  0  1  0  0  0  0  0  0
  181.7800  176.6340  137.9930 C   0  0  1  0  0  3  0  0  0  0  0  0
  181.8410  173.2170  136.6320 C   0  0  0  0  0  2  0  0  0  0  0  0
  183.3840  175.6920  135.2950 O   0  0  0  0  0  1  0  0  0  0  0  0
  183.0040  178.6300  142.2360 C   0  0  0  0  0  3  0  0  0  0  0  0
  183.3970  178.2530  140.9470 C   0  0  0  0  0  0  0  0  0  0  0  0
  184.1030  175.6830  136.4930 C   0  0  2  0  0  3  0  0  0  0  0  0
  187.9360  178.7760  136.8440 C   0  0  0  0  0  2  0  0  0  0  0  0
  189.9290  177.4380  137.5180 C   0  0  0  0  0  1  0  0  0  0  0  0
  189.0560  178.6280  137.8620 C   0  0  0  0  0  2  0  0  0  0  0  0
  1 19  1  0  0  0  0
  2 13  1  0  0  0  0
  4 20  1  0  0  0  0
  4  1  2  0  0  0  0
  5  1  1  0  0  0  0
  6  8  2  0  0  0  0
  7 15  1  6  0  0  0
  7  9  1  0  0  0  0
  8 11  1  0  0  0  0
  9 14  1  6  0  0  0
  9 22  1  0  0  0  0
 10 21  1  6  0  0  0
 10  3  1  0  0  0  0
 11  5  1  0  0  0  0
 12  8  1  1  0  0  0
 12  4  1  0  0  0  0
 13 18  2  0  0  0  0
 16  2  1  0  0  0  0
 17  3  1  0  0  0  0
 17 26  1  0  0  0  0
 19 26  1  0  0  0  0
 19  2  2  0  0  0  0
 20 17  2  0  0  0  0
 22 10  1  0  0  0  0
 22 20  1  1  0  0  0
 23 14  1  0  0  0  0
 23 15  1  0  0  0  0
 25 18  1  0  0  0  0
 26 25  2  0  0  0  0
 27 24  1  6  0  0  0
 27 12  1  0  0  0  0
 27  7  1  0  0  0  0
 28 11  1  0  0  0  0
 28 30  1  0  0  0  0
 29 30  1  0  0  0  0
M  END
>  <MODEL>
9

>  <REMARK>
 VINA RESULT:      -6.0      2.169      3.056
  Name = 
  2 active torsions:
  status: ('A' for Active; 'I' for Inactive)
    1  A    between atoms: N_11  and  C_28
    2  A    between atoms: C_28  and  C_30
                            x       y       z     vdW  Elec       q    Type
                         _______ _______ _______ _____ _____    ______ ____

>  <TORSDO>
F 2

$$$$
