=
 OpenBabel11122412083D

 34 40  0  0  1  0  0  0  0  0999 V2000
  187.5700  178.0960  139.0180 C   0  0  0  0  0  0  0  0  0  0  0  0
  186.3930  178.2660  141.2010 C   0  0  0  0  0  2  0  0  0  0  0  0
  191.6900  173.9440  136.1640 C   0  0  1  0  0  3  0  0  0  0  0  0
  188.6770  176.9290  137.2020 C   0  0  0  0  0  0  0  0  0  0  0  0
  191.0860  176.1240  137.5380 C   0  0  2  0  0  3  0  0  0  0  0  0
  193.2880  175.0490  137.6430 C   0  0  0  0  0  2  0  0  0  0  0  0
  190.6090  173.2050  136.6080 F   0  0  0  0  0  0  0  0  0  0  0  0
  191.4210  175.9830  134.5940 C   0  0  0  0  0  2  0  0  0  0  0  0
  188.7650  178.3580  141.2680 C   0  0  2  0  0  3  0  0  0  0  0  0
  189.7790  176.7470  143.8510 C   0  0  0  0  0  2  0  0  0  0  0  0
  190.6780  175.9990  138.9980 C   0  0  0  0  0  2  0  0  0  0  0  0
  190.1800  176.6360  135.2070 C   0  0  0  0  0  2  0  0  0  0  0  0
  189.5210  177.1610  140.8390 N   0  0  1  0  0  0  0  0  0  0  0  0
  186.7200  178.4430  142.5510 O   0  0  0  0  0  0  0  0  0  0  0  0
  189.8410  176.1490  136.6260 C   0  0  2  0  0  3  0  0  0  0  0  0
  191.4240  174.4590  134.7380 C   0  0  0  0  0  2  0  0  0  0  0  0
  188.3420  176.8400  143.3590 C   0  0  2  0  0  3  0  0  0  0  0  0
  188.6840  177.4020  138.5360 C   0  0  0  0  0  0  0  0  0  0  0  0
  192.0430  175.0100  137.1750 C   0  0  0  0  0  0  0  0  0  0  0  0
  189.8980  177.2500  139.4180 C   0  0  2  0  0  3  0  0  0  0  0  0
  186.4310  177.7850  136.9530 C   0  0  0  0  0  3  0  0  0  0  0  0
  190.6950  176.2150  142.7620 C   0  0  0  0  0  2  0  0  0  0  0  0
  187.5230  177.1000  136.4280 C   0  0  0  0  0  3  0  0  0  0  0  0
  190.7700  177.1890  141.6000 C   0  0  0  0  0  2  0  0  0  0  0  0
  188.1040  178.1890  142.6560 C   0  0  1  0  0  3  0  0  0  0  0  0
  186.4810  178.2750  138.2190 N   0  0  0  0  0  0  0  0  0  0  0  0
  187.5790  178.7040  140.3860 C   0  0  1  0  0  3  0  0  0  0  0  0
  187.4850  176.7140  144.4560 O   0  0  0  0  0  0  0  0  0  0  0  0
  187.9440  177.6570  145.3770 C   0  0  0  0  0  2  0  0  0  0  0  0
  189.5810  177.7810  148.1850 O   0  0  0  0  0  0  0  0  0  0  0  0
  187.3130  178.2220  147.6990 C   0  0  0  0  0  2  0  0  0  0  0  0
  187.7820  177.1240  146.7890 C   0  0  2  0  0  3  0  0  0  0  0  0
  188.4140  178.3380  148.7250 C   0  0  0  0  0  2  0  0  0  0  0  0
  189.1370  176.7490  147.3440 C   0  0  0  0  0  2  0  0  0  0  0  0
  1 27  1  0  0  0  0
  2 14  1  0  0  0  0
  3  7  1  1  0  0  0
  3 19  1  0  0  0  0
  4 18  2  0  0  0  0
  5 11  1  1  0  0  0
  8 16  1  0  0  0  0
  8 12  1  0  0  0  0
  9 25  1  0  0  0  0
 11 20  1  0  0  0  0
 12 15  1  0  0  0  0
 13  9  1  0  0  0  0
 13 24  1  0  0  0  0
 14 25  1  0  0  0  0
 15  4  1  0  0  0  0
 15  5  1  0  0  0  0
 16  3  1  0  0  0  0
 17 10  1  0  0  0  0
 17 28  1  0  0  0  0
 18  1  1  0  0  0  0
 18 20  1  0  0  0  0
 19  5  1  0  0  0  0
 19  6  2  0  0  0  0
 20 13  1  0  0  0  0
 21 26  1  0  0  0  0
 22 10  1  0  0  0  0
 23 21  2  0  0  0  0
 23  4  1  0  0  0  0
 24 22  1  0  0  0  0
 25 17  1  0  0  0  0
 26  1  2  0  0  0  0
 27  2  1  0  0  0  0
 27  9  1  0  0  0  0
 28 29  1  0  0  0  0
 29 32  1  0  0  0  0
 30 33  1  0  0  0  0
 31 33  1  0  0  0  0
 32 34  1  0  0  0  0
 32 31  1  0  0  0  0
 34 30  1  0  0  0  0
M  END
>  <MODEL>
1

>  <REMARK>
 VINA RESULT:      -8.9      0.000      0.000
  Name = 
  3 active torsions:
  status: ('A' for Active; 'I' for Inactive)
    1  A    between atoms: C_17  and  O_28
    2  A    between atoms: O_28  and  C_29
    3  A    between atoms: C_29  and  C_32
                            x       y       z     vdW  Elec       q    Type
                         _______ _______ _______ _____ _____    ______ ____

>  <TORSDO>
F 3

$$$$
=
 OpenBabel11122412083D

 34 40  0  0  1  0  0  0  0  0999 V2000
  182.2430  178.9850  143.5440 C   0  0  0  0  0  0  0  0  0  0  0  0
  183.7960  178.7230  145.4670 C   0  0  0  0  0  2  0  0  0  0  0  0
  181.4380  176.2490  137.6940 C   0  0  1  0  0  3  0  0  0  0  0  0
  181.0630  178.2510  141.5560 C   0  0  0  0  0  0  0  0  0  0  0  0
  182.3410  178.1140  139.3400 C   0  0  2  0  0  3  0  0  0  0  0  0
  183.3450  177.6730  137.1450 C   0  0  0  0  0  2  0  0  0  0  0  0
  181.4800  175.2240  138.6210 F   0  0  0  0  0  0  0  0  0  0  0  0
  179.7630  178.2120  137.8760 C   0  0  0  0  0  2  0  0  0  0  0  0
  184.7590  179.4520  143.4220 C   0  0  2  0  0  3  0  0  0  0  0  0
  187.6260  178.0520  143.0840 C   0  0  0  0  0  2  0  0  0  0  0  0
  183.5390  177.8130  140.2270 C   0  0  0  0  0  2  0  0  0  0  0  0
  179.8150  178.4740  139.3830 C   0  0  0  0  0  2  0  0  0  0  0  0
  184.7250  178.5260  142.2680 N   0  0  1  0  0  0  0  0  0  0  0  0
  185.1560  178.9170  145.7430 O   0  0  0  0  0  0  0  0  0  0  0  0
  181.0230  177.8460  140.0970 C   0  0  2  0  0  3  0  0  0  0  0  0
  179.9900  176.7410  137.5200 C   0  0  0  0  0  2  0  0  0  0  0  0
  186.6180  177.7760  144.1910 C   0  0  2  0  0  3  0  0  0  0  0  0
  182.2660  178.6430  142.1880 C   0  0  0  0  0  0  0  0  0  0  0  0
  182.4400  177.3200  138.0560 C   0  0  0  0  0  0  0  0  0  0  0  0
  183.5530  178.7830  141.4140 C   0  0  2  0  0  3  0  0  0  0  0  0
  179.9230  178.4780  143.6740 C   0  0  0  0  0  3  0  0  0  0  0  0
  187.0040  177.8420  141.7140 C   0  0  0  0  0  2  0  0  0  0  0  0
  179.8970  178.1410  142.3240 C   0  0  0  0  0  3  0  0  0  0  0  0
  185.9020  178.8550  141.4640 C   0  0  0  0  0  2  0  0  0  0  0  0
  185.7970  179.0420  144.4930 C   0  0  1  0  0  3  0  0  0  0  0  0
  181.0790  178.9010  144.2470 N   0  0  0  0  0  0  0  0  0  0  0  0
  183.4710  179.5050  144.2240 C   0  0  1  0  0  3  0  0  0  0  0  0
  187.3090  177.3690  145.3350 O   0  0  0  0  0  0  0  0  0  0  0  0
  188.6000  177.0790  144.8870 C   0  0  0  0  0  2  0  0  0  0  0  0
  190.4740  176.2300  147.4050 O   0  0  0  0  0  0  0  0  0  0  0  0
  191.0080  177.3280  145.3840 C   0  0  0  0  0  2  0  0  0  0  0  0
  189.6230  177.7420  145.7910 C   0  0  2  0  0  3  0  0  0  0  0  0
  191.5550  176.6350  146.6090 C   0  0  0  0  0  2  0  0  0  0  0  0
  189.4810  177.1980  147.1950 C   0  0  0  0  0  2  0  0  0  0  0  0
  1 27  1  0  0  0  0
  1 26  1  0  0  0  0
  2 14  1  0  0  0  0
  3 19  1  0  0  0  0
  3  7  1  1  0  0  0
  4 18  1  0  0  0  0
  4 23  2  0  0  0  0
  5 15  1  0  0  0  0
  5 11  1  1  0  0  0
  6 19  2  0  0  0  0
  8 12  1  0  0  0  0
  9 27  1  0  0  0  0
  9 25  1  0  0  0  0
 10 17  1  0  0  0  0
 11 20  1  0  0  0  0
 12 15  1  0  0  0  0
 13  9  1  0  0  0  0
 15  4  1  0  0  0  0
 16  3  1  0  0  0  0
 16  8  1  0  0  0  0
 17 25  1  0  0  0  0
 17 28  1  0  0  0  0
 18  1  2  0  0  0  0
 19  5  1  0  0  0  0
 20 18  1  0  0  0  0
 20 13  1  0  0  0  0
 21 26  2  0  0  0  0
 22 10  1  0  0  0  0
 23 21  1  0  0  0  0
 24 22  1  0  0  0  0
 24 13  1  0  0  0  0
 25 14  1  0  0  0  0
 27  2  1  0  0  0  0
 29 28  1  0  0  0  0
 29 32  1  0  0  0  0
 31 32  1  0  0  0  0
 31 33  1  0  0  0  0
 32 34  1  0  0  0  0
 33 30  1  0  0  0  0
 34 30  1  0  0  0  0
M  END
>  <MODEL>
2

>  <REMARK>
 VINA RESULT:      -8.9      4.778      7.226
  Name = 
  3 active torsions:
  status: ('A' for Active; 'I' for Inactive)
    1  A    between atoms: C_17  and  O_28
    2  A    between atoms: O_28  and  C_29
    3  A    between atoms: C_29  and  C_32
                            x       y       z     vdW  Elec       q    Type
                         _______ _______ _______ _____ _____    ______ ____

>  <TORSDO>
F 3

$$$$
=
 OpenBabel11122412083D

 34 40  0  0  1  0  0  0  0  0999 V2000
  182.1300  179.0220  142.8840 C   0  0  0  0  0  0  0  0  0  0  0  0
  183.0710  178.7740  145.1710 C   0  0  0  0  0  2  0  0  0  0  0  0
  182.8610  176.0960  137.1170 C   0  0  1  0  0  3  0  0  0  0  0  0
  181.5190  178.2580  140.6640 C   0  0  0  0  0  0  0  0  0  0  0  0
  183.3560  177.9860  138.9000 C   0  0  2  0  0  3  0  0  0  0  0  0
  184.9100  177.4230  137.0880 C   0  0  0  0  0  2  0  0  0  0  0  0
  182.5930  175.1060  138.0440 F   0  0  0  0  0  0  0  0  0  0  0  0
  181.2970  178.1270  136.7700 C   0  0  0  0  0  2  0  0  0  0  0  0
  184.6000  179.3860  143.4590 C   0  0  2  0  0  3  0  0  0  0  0  0
  187.3770  177.8660  143.9770 C   0  0  0  0  0  2  0  0  0  0  0  0
  184.2430  177.6740  140.0960 C   0  0  0  0  0  2  0  0  0  0  0  0
  180.9380  178.4440  138.2240 C   0  0  0  0  0  2  0  0  0  0  0  0
  184.8450  178.4190  142.3680 N   0  0  1  0  0  0  0  0  0  0  0  0
  184.3070  178.9260  145.8130 O   0  0  0  0  0  0  0  0  0  0  0  0
  181.8680  177.7980  139.2640 C   0  0  2  0  0  3  0  0  0  0  0  0
  181.5440  176.6360  136.5310 C   0  0  0  0  0  2  0  0  0  0  0  0
  186.0880  177.6710  144.7630 C   0  0  2  0  0  3  0  0  0  0  0  0
  182.5150  178.6270  141.5980 C   0  0  0  0  0  0  0  0  0  0  0  0
  183.7710  177.1400  137.7170 C   0  0  0  0  0  0  0  0  0  0  0  0
  183.9710  178.6870  141.2120 C   0  0  2  0  0  3  0  0  0  0  0  0
  179.8450  178.6090  142.3710 C   0  0  0  0  0  3  0  0  0  0  0  0
  187.1530  177.6270  142.4930 C   0  0  0  0  0  2  0  0  0  0  0  0
  180.1810  178.2220  141.0780 C   0  0  0  0  0  3  0  0  0  0  0  0
  186.2140  178.6720  141.9170 C   0  0  0  0  0  2  0  0  0  0  0  0
  185.2770  178.9790  144.7890 C   0  0  1  0  0  3  0  0  0  0  0  0
  180.8140  179.0090  143.2340 N   0  0  0  0  0  0  0  0  0  0  0  0
  183.1440  179.5200  143.8670 C   0  0  1  0  0  3  0  0  0  0  0  0
  186.4130  177.2820  146.0650 O   0  0  0  0  0  0  0  0  0  0  0  0
  187.7490  177.6550  146.2260 C   0  0  0  0  0  2  0  0  0  0  0  0
  190.6010  177.5380  147.7850 O   0  0  0  0  0  0  0  0  0  0  0  0
  188.4750  178.2670  148.5070 C   0  0  0  0  0  2  0  0  0  0  0  0
  188.2790  177.1290  147.5480 C   0  0  2  0  0  3  0  0  0  0  0  0
  189.9520  178.2320  148.8160 C   0  0  0  0  0  2  0  0  0  0  0  0
  189.6740  176.5800  147.3480 C   0  0  0  0  0  2  0  0  0  0  0  0
  1 26  1  0  0  0  0
  1 27  1  0  0  0  0
  2 14  1  0  0  0  0
  3 19  1  0  0  0  0
  3  7  1  1  0  0  0
  4 23  2  0  0  0  0
  4 18  1  0  0  0  0
  5 15  1  0  0  0  0
  5 11  1  1  0  0  0
  6 19  2  0  0  0  0
  8 12  1  0  0  0  0
  9 27  1  0  0  0  0
  9 25  1  0  0  0  0
 10 17  1  0  0  0  0
 11 20  1  0  0  0  0
 12 15  1  0  0  0  0
 13  9  1  0  0  0  0
 15  4  1  0  0  0  0
 16  8  1  0  0  0  0
 16  3  1  0  0  0  0
 17 25  1  0  0  0  0
 17 28  1  0  0  0  0
 18  1  2  0  0  0  0
 19  5  1  0  0  0  0
 20 18  1  0  0  0  0
 20 13  1  0  0  0  0
 21 26  2  0  0  0  0
 22 10  1  0  0  0  0
 23 21  1  0  0  0  0
 24 13  1  0  0  0  0
 24 22  1  0  0  0  0
 25 14  1  0  0  0  0
 27  2  1  0  0  0  0
 28 29  1  0  0  0  0
 29 32  1  0  0  0  0
 30 33  1  0  0  0  0
 31 33  1  0  0  0  0
 32 31  1  0  0  0  0
 34 32  1  0  0  0  0
 34 30  1  0  0  0  0
M  END
>  <MODEL>
3

>  <REMARK>
 VINA RESULT:      -8.8      4.445      6.444
  Name = 
  3 active torsions:
  status: ('A' for Active; 'I' for Inactive)
    1  A    between atoms: C_17  and  O_28
    2  A    between atoms: O_28  and  C_29
    3  A    between atoms: C_29  and  C_32
                            x       y       z     vdW  Elec       q    Type
                         _______ _______ _______ _____ _____    ______ ____

>  <TORSDO>
F 3

$$$$
=
 OpenBabel11122412083D

 34 40  0  0  1  0  0  0  0  0999 V2000
  186.5550  178.1900  138.7930 C   0  0  0  0  0  0  0  0  0  0  0  0
  184.1280  178.0820  138.2630 C   0  0  0  0  0  2  0  0  0  0  0  0
  190.4440  176.2080  143.6200 C   0  0  1  0  0  3  0  0  0  0  0  0
  188.6060  177.4590  139.8630 C   0  0  0  0  0  0  0  0  0  0  0  0
  188.9630  177.9900  142.3440 C   0  0  2  0  0  3  0  0  0  0  0  0
  189.4820  178.1550  144.7360 C   0  0  0  0  0  2  0  0  0  0  0  0
  189.7110  175.1090  143.2120 F   0  0  0  0  0  0  0  0  0  0  0  0
  191.8810  177.6010  141.9800 C   0  0  0  0  0  2  0  0  0  0  0  0
  184.7350  179.3280  140.1920 C   0  0  2  0  0  3  0  0  0  0  0  0
  182.5400  178.8150  142.4750 C   0  0  0  0  0  2  0  0  0  0  0  0
  187.4470  177.8980  142.4230 C   0  0  0  0  0  2  0  0  0  0  0  0
  190.9440  177.6470  140.7710 C   0  0  0  0  0  2  0  0  0  0  0  0
  185.3560  178.6030  141.3220 N   0  0  1  0  0  0  0  0  0  0  0  0
  182.9260  178.5920  138.7700 O   0  0  0  0  0  0  0  0  0  0  0  0
  189.4860  177.2710  141.0820 C   0  0  2  0  0  3  0  0  0  0  0  0
  191.7380  176.3120  142.7930 C   0  0  0  0  0  2  0  0  0  0  0  0
  182.6050  178.1220  141.1210 C   0  0  2  0  0  3  0  0  0  0  0  0
  187.3300  178.0650  139.9510 C   0  0  0  0  0  0  0  0  0  0  0  0
  189.5780  177.4450  143.6140 C   0  0  0  0  0  0  0  0  0  0  0  0
  186.8270  178.6550  141.2440 C   0  0  2  0  0  3  0  0  0  0  0  0
  188.2120  177.0640  137.5120 C   0  0  0  0  0  3  0  0  0  0  0  0
  183.8420  178.6440  143.2380 C   0  0  0  0  0  2  0  0  0  0  0  0
  189.0230  176.9300  138.6350 C   0  0  0  0  0  3  0  0  0  0  0  0
  184.9800  179.3490  142.5230 C   0  0  0  0  0  2  0  0  0  0  0  0
  183.2160  179.0640  140.0680 C   0  0  1  0  0  3  0  0  0  0  0  0
  187.0140  177.6950  137.6100 N   0  0  0  0  0  0  0  0  0  0  0  0
  185.2470  178.9180  138.8230 C   0  0  1  0  0  3  0  0  0  0  0  0
  181.3110  177.7560  140.7430 O   0  0  0  0  0  0  0  0  0  0  0  0
  180.4760  178.4130  141.6490 C   0  0  0  0  0  2  0  0  0  0  0  0
  180.2810  181.0730  139.7890 O   0  0  0  0  0  0  0  0  0  0  0  0
  179.4870  178.8780  139.4320 C   0  0  0  0  0  2  0  0  0  0  0  0
  179.3980  179.1760  140.9010 C   0  0  2  0  0  3  0  0  0  0  0  0
  179.7560  180.2250  138.8040 C   0  0  0  0  0  2  0  0  0  0  0  0
  179.6800  180.6590  140.9870 C   0  0  0  0  0  2  0  0  0  0  0  0
  1 27  1  0  0  0  0
  1 18  1  0  0  0  0
  2 14  1  0  0  0  0
  2 27  1  0  0  0  0
  3  7  1  6  0  0  0
  4 18  2  0  0  0  0
  4 15  1  0  0  0  0
  5 11  1  1  0  0  0
  5 19  1  0  0  0  0
  8 16  1  0  0  0  0
  9 13  1  0  0  0  0
 10 22  1  0  0  0  0
 12 15  1  0  0  0  0
 12  8  1  0  0  0  0
 13 24  1  0  0  0  0
 14 25  1  0  0  0  0
 15  5  1  0  0  0  0
 16  3  1  0  0  0  0
 17 10  1  0  0  0  0
 18 20  1  0  0  0  0
 19  3  1  0  0  0  0
 19  6  2  0  0  0  0
 20 13  1  0  0  0  0
 20 11  1  0  0  0  0
 21 26  1  0  0  0  0
 21 23  2  0  0  0  0
 23  4  1  0  0  0  0
 24 22  1  0  0  0  0
 25  9  1  0  0  0  0
 25 17  1  0  0  0  0
 26  1  2  0  0  0  0
 27  9  1  0  0  0  0
 28 17  1  0  0  0  0
 28 29  1  0  0  0  0
 30 34  1  0  0  0  0
 31 32  1  0  0  0  0
 32 34  1  0  0  0  0
 32 29  1  0  0  0  0
 33 31  1  0  0  0  0
 33 30  1  0  0  0  0
M  END
>  <MODEL>
4

>  <REMARK>
 VINA RESULT:      -8.7      3.877      7.022
  Name = 
  3 active torsions:
  status: ('A' for Active; 'I' for Inactive)
    1  A    between atoms: C_17  and  O_28
    2  A    between atoms: O_28  and  C_29
    3  A    between atoms: C_29  and  C_32
                            x       y       z     vdW  Elec       q    Type
                         _______ _______ _______ _____ _____    ______ ____

>  <TORSDO>
F 3

$$$$
=
 OpenBabel11122412083D

 34 40  0  0  1  0  0  0  0  0999 V2000
  189.1740  177.5830  137.2730 C   0  0  0  0  0  0  0  0  0  0  0  0
  187.3870  178.0800  138.9280 C   0  0  0  0  0  2  0  0  0  0  0  0
  193.9300  173.1910  136.6090 C   0  0  1  0  0  3  0  0  0  0  0  0
  190.7730  176.1670  136.1230 C   0  0  0  0  0  0  0  0  0  0  0  0
  192.9560  175.5470  137.3130 C   0  0  2  0  0  3  0  0  0  0  0  0
  195.0100  174.6120  138.2750 C   0  0  0  0  0  2  0  0  0  0  0  0
  192.7580  172.4910  136.8310 F   0  0  0  0  0  0  0  0  0  0  0  0
  194.1760  174.9050  134.6870 C   0  0  0  0  0  2  0  0  0  0  0  0
  189.6250  178.2930  139.6930 C   0  0  2  0  0  3  0  0  0  0  0  0
  189.7830  177.2120  142.7100 C   0  0  0  0  0  2  0  0  0  0  0  0
  192.1190  175.6630  138.5780 C   0  0  0  0  0  2  0  0  0  0  0  0
  192.8130  175.5980  134.7660 C   0  0  0  0  0  2  0  0  0  0  0  0
  190.4640  177.0760  139.7390 N   0  0  1  0  0  0  0  0  0  0  0  0
  187.2870  178.5070  140.2580 O   0  0  0  0  0  0  0  0  0  0  0  0
  192.0500  175.3530  136.0790 C   0  0  2  0  0  3  0  0  0  0  0  0
  194.1190  173.4330  135.1000 C   0  0  0  0  0  2  0  0  0  0  0  0
  188.5670  177.1500  141.7970 C   0  0  2  0  0  3  0  0  0  0  0  0
  190.3760  176.8670  137.2860 C   0  0  0  0  0  0  0  0  0  0  0  0
  193.9670  174.4330  137.4670 C   0  0  0  0  0  0  0  0  0  0  0  0
  191.2590  176.9300  138.5070 C   0  0  2  0  0  3  0  0  0  0  0  0
  188.7200  176.8600  135.0540 C   0  0  0  0  0  3  0  0  0  0  0  0
  190.9840  176.5400  142.0650 C   0  0  0  0  0  2  0  0  0  0  0  0
  189.9140  176.1450  135.0180 C   0  0  0  0  0  3  0  0  0  0  0  0
  191.4200  177.2960  140.8240 C   0  0  0  0  0  2  0  0  0  0  0  0
  188.5690  178.3410  140.8220 C   0  0  1  0  0  3  0  0  0  0  0  0
  188.3850  177.5670  136.1640 N   0  0  0  0  0  0  0  0  0  0  0  0
  188.7700  178.4220  138.4460 C   0  0  1  0  0  3  0  0  0  0  0  0
  187.4140  177.1780  142.5860 O   0  0  0  0  0  0  0  0  0  0  0  0
  187.8630  177.5300  143.8610 C   0  0  0  0  0  2  0  0  0  0  0  0
  186.8410  178.7530  146.6960 O   0  0  0  0  0  0  0  0  0  0  0  0
  185.6460  178.1730  144.7440 C   0  0  0  0  0  2  0  0  0  0  0  0
  186.7940  177.2170  144.8920 C   0  0  2  0  0  3  0  0  0  0  0  0
  185.5910  178.8830  146.0750 C   0  0  0  0  0  2  0  0  0  0  0  0
  187.3300  177.5070  146.2760 C   0  0  0  0  0  2  0  0  0  0  0  0
  1 18  1  0  0  0  0
  1 27  1  0  0  0  0
  2 14  1  0  0  0  0
  3  7  1  6  0  0  0
  3 19  1  0  0  0  0
  4 18  2  0  0  0  0
  5 19  1  0  0  0  0
  5 11  1  1  0  0  0
  8 12  1  0  0  0  0
  8 16  1  0  0  0  0
  9 13  1  0  0  0  0
  9 25  1  0  0  0  0
 12 15  1  0  0  0  0
 13 24  1  0  0  0  0
 14 25  1  0  0  0  0
 15  4  1  0  0  0  0
 15  5  1  0  0  0  0
 16  3  1  0  0  0  0
 17 28  1  0  0  0  0
 17 10  1  0  0  0  0
 18 20  1  0  0  0  0
 19  6  2  0  0  0  0
 20 11  1  0  0  0  0
 20 13  1  0  0  0  0
 21 26  1  0  0  0  0
 22 10  1  0  0  0  0
 23 21  2  0  0  0  0
 23  4  1  0  0  0  0
 24 22  1  0  0  0  0
 25 17  1  0  0  0  0
 26  1  2  0  0  0  0
 27  2  1  0  0  0  0
 27  9  1  0  0  0  0
 28 29  1  0  0  0  0
 29 32  1  0  0  0  0
 31 32  1  0  0  0  0
 31 33  1  0  0  0  0
 32 34  1  0  0  0  0
 33 30  1  0  0  0  0
 34 30  1  0  0  0  0
M  END
>  <MODEL>
5

>  <REMARK>
 VINA RESULT:      -8.4      1.657      2.346
  Name = 
  3 active torsions:
  status: ('A' for Active; 'I' for Inactive)
    1  A    between atoms: C_17  and  O_28
    2  A    between atoms: O_28  and  C_29
    3  A    between atoms: C_29  and  C_32
                            x       y       z     vdW  Elec       q    Type
                         _______ _______ _______ _____ _____    ______ ____

>  <TORSDO>
F 3

$$$$
=
 OpenBabel11122412083D

 34 40  0  0  1  0  0  0  0  0999 V2000
  188.6080  177.7050  143.0060 C   0  0  0  0  0  0  0  0  0  0  0  0
  190.6930  176.5830  142.2470 C   0  0  0  0  0  2  0  0  0  0  0  0
  182.4510  178.1590  140.9440 C   0  0  1  0  0  3  0  0  0  0  0  0
  186.2060  178.0020  143.1670 C   0  0  0  0  0  0  0  0  0  0  0  0
  184.9470  179.0060  141.1750 C   0  0  2  0  0  3  0  0  0  0  0  0
  183.4560  179.7260  139.3650 C   0  0  0  0  0  2  0  0  0  0  0  0
  182.7630  176.8130  141.0030 F   0  0  0  0  0  0  0  0  0  0  0  0
  182.7100  179.7290  142.9840 C   0  0  0  0  0  2  0  0  0  0  0  0
  189.8040  178.2490  140.8060 C   0  0  2  0  0  3  0  0  0  0  0  0
  190.1810  177.2830  137.7700 C   0  0  0  0  0  2  0  0  0  0  0  0
  186.0410  178.3460  140.3490 C   0  0  0  0  0  2  0  0  0  0  0  0
  184.0390  179.2210  143.5500 C   0  0  0  0  0  2  0  0  0  0  0  0
  188.4780  178.0060  140.1960 N   0  0  1  0  0  0  0  0  0  0  0  0
  191.5850  176.6590  141.1700 O   0  0  0  0  0  0  0  0  0  0  0  0
  184.8590  178.3610  142.5740 C   0  0  2  0  0  3  0  0  0  0  0  0
  181.8960  178.6280  142.3010 C   0  0  0  0  0  2  0  0  0  0  0  0
  190.5010  176.4700  139.0170 C   0  0  2  0  0  3  0  0  0  0  0  0
  187.3970  178.0710  142.4080 C   0  0  0  0  0  0  0  0  0  0  0  0
  183.6330  178.9450  140.4290 C   0  0  0  0  0  0  0  0  0  0  0  0
  187.4030  178.6120  141.0000 C   0  0  2  0  0  3  0  0  0  0  0  0
  187.4860  177.1270  145.0210 C   0  0  0  0  0  3  0  0  0  0  0  0
  188.7360  177.7510  137.7800 C   0  0  0  0  0  2  0  0  0  0  0  0
  186.2610  177.4940  144.4710 C   0  0  0  0  0  3  0  0  0  0  0  0
  188.4940  178.7230  138.9210 C   0  0  0  0  0  2  0  0  0  0  0  0
  190.9270  177.4000  140.1660 C   0  0  1  0  0  3  0  0  0  0  0  0
  188.6230  177.2510  144.2890 N   0  0  0  0  0  0  0  0  0  0  0  0
  189.9030  177.8630  142.2710 C   0  0  1  0  0  3  0  0  0  0  0  0
  191.5320  175.5760  138.7150 O   0  0  0  0  0  0  0  0  0  0  0  0
  192.3600  176.2720  137.8320 C   0  0  0  0  0  2  0  0  0  0  0  0
  195.3490  175.6280  136.7250 O   0  0  0  0  0  0  0  0  0  0  0  0
  193.6880  174.2010  137.6070 C   0  0  0  0  0  2  0  0  0  0  0  0
  193.0050  175.3060  136.8550 C   0  0  2  0  0  3  0  0  0  0  0  0
  195.1370  174.3270  137.2020 C   0  0  0  0  0  2  0  0  0  0  0  0
  194.1350  176.0020  136.1310 C   0  0  0  0  0  2  0  0  0  0  0  0
  1 26  1  0  0  0  0
  2 27  1  0  0  0  0
  3  7  1  1  0  0  0
  3 16  1  0  0  0  0
  4 23  2  0  0  0  0
  5 11  1  6  0  0  0
  5 15  1  0  0  0  0
  6 19  2  0  0  0  0
  8 12  1  0  0  0  0
  9 27  1  0  0  0  0
 10 22  1  0  0  0  0
 10 17  1  0  0  0  0
 11 20  1  0  0  0  0
 13  9  1  0  0  0  0
 13 20  1  0  0  0  0
 14  2  1  0  0  0  0
 15  4  1  0  0  0  0
 15 12  1  0  0  0  0
 16  8  1  0  0  0  0
 17 25  1  0  0  0  0
 18  1  2  0  0  0  0
 18  4  1  0  0  0  0
 19  3  1  0  0  0  0
 19  5  1  0  0  0  0
 20 18  1  0  0  0  0
 22 24  1  0  0  0  0
 23 21  1  0  0  0  0
 24 13  1  0  0  0  0
 25  9  1  0  0  0  0
 25 14  1  0  0  0  0
 26 21  2  0  0  0  0
 27  1  1  0  0  0  0
 28 17  1  0  0  0  0
 29 28  1  0  0  0  0
 30 33  1  0  0  0  0
 32 31  1  0  0  0  0
 32 29  1  0  0  0  0
 33 31  1  0  0  0  0
 34 30  1  0  0  0  0
 34 32  1  0  0  0  0
M  END
>  <MODEL>
6

>  <REMARK>
 VINA RESULT:      -8.3      3.548      8.422
  Name = 
  3 active torsions:
  status: ('A' for Active; 'I' for Inactive)
    1  A    between atoms: C_17  and  O_28
    2  A    between atoms: O_28  and  C_29
    3  A    between atoms: C_29  and  C_32
                            x       y       z     vdW  Elec       q    Type
                         _______ _______ _______ _____ _____    ______ ____

>  <TORSDO>
F 3

$$$$
=
 OpenBabel11122412083D

 34 40  0  0  1  0  0  0  0  0999 V2000
  188.7260  177.5430  140.2790 C   0  0  0  0  0  0  0  0  0  0  0  0
  187.8340  177.0010  138.0240 C   0  0  0  0  0  2  0  0  0  0  0  0
  186.5850  177.2530  146.4190 C   0  0  1  0  0  3  0  0  0  0  0  0
  188.8610  177.3530  142.6940 C   0  0  0  0  0  0  0  0  0  0  0  0
  187.0630  178.4840  144.1260 C   0  0  2  0  0  3  0  0  0  0  0  0
  185.3800  179.2620  145.7320 C   0  0  0  0  0  2  0  0  0  0  0  0
  186.3890  176.0030  145.8590 F   0  0  0  0  0  0  0  0  0  0  0  0
  188.9020  178.4050  146.4520 C   0  0  0  0  0  2  0  0  0  0  0  0
  186.7190  178.7260  139.2150 C   0  0  2  0  0  3  0  0  0  0  0  0
  183.5670  178.4710  138.6730 C   0  0  0  0  0  2  0  0  0  0  0  0
  186.1610  178.2160  142.9300 C   0  0  0  0  0  2  0  0  0  0  0  0
  189.4020  178.0490  145.0500 C   0  0  0  0  0  2  0  0  0  0  0  0
  186.0280  178.3690  140.4730 N   0  0  1  0  0  0  0  0  0  0  0  0
  186.8240  177.4530  137.1650 O   0  0  0  0  0  0  0  0  0  0  0  0
  188.3040  177.5680  144.0860 C   0  0  2  0  0  3  0  0  0  0  0  0
  187.9880  177.3310  147.0470 C   0  0  0  0  0  2  0  0  0  0  0  0
  184.6400  177.5000  138.2020 C   0  0  2  0  0  3  0  0  0  0  0  0
  188.1710  177.7910  141.5400 C   0  0  0  0  0  0  0  0  0  0  0  0
  186.2750  178.3310  145.4080 C   0  0  0  0  0  0  0  0  0  0  0  0
  186.8980  178.5930  141.6410 C   0  0  2  0  0  3  0  0  0  0  0  0
  190.5500  176.3780  141.2660 C   0  0  0  0  0  3  0  0  0  0  0  0
  183.6190  178.6530  140.1800 C   0  0  0  0  0  2  0  0  0  0  0  0
  190.0410  176.6140  142.5400 C   0  0  0  0  0  3  0  0  0  0  0  0
  184.9200  179.3160  140.5970 C   0  0  0  0  0  2  0  0  0  0  0  0
  185.9640  178.2450  137.9540 C   0  0  1  0  0  3  0  0  0  0  0  0
  189.8960  176.8540  140.1750 N   0  0  0  0  0  0  0  0  0  0  0  0
  188.0820  178.0820  139.0400 C   0  0  1  0  0  3  0  0  0  0  0  0
  184.2040  176.8910  137.0220 O   0  0  0  0  0  0  0  0  0  0  0  0
  183.6870  175.6590  137.4270 C   0  0  0  0  0  2  0  0  0  0  0  0
  185.2870  172.8720  137.9260 O   0  0  0  0  0  0  0  0  0  0  0  0
  183.3800  173.3440  136.6170 C   0  0  0  0  0  2  0  0  0  0  0  0
  184.2800  174.5450  136.5830 C   0  0  2  0  0  3  0  0  0  0  0  0
  184.2410  172.2610  137.2200 C   0  0  0  0  0  2  0  0  0  0  0  0
  185.5590  174.0560  137.2240 C   0  0  0  0  0  2  0  0  0  0  0  0
  1 18  1  0  0  0  0
  2 27  1  0  0  0  0
  3  7  1  6  0  0  0
  3 16  1  0  0  0  0
  4 15  1  0  0  0  0
  5 11  1  6  0  0  0
  5 19  1  0  0  0  0
  8 16  1  0  0  0  0
  9 13  1  0  0  0  0
 10 22  1  0  0  0  0
 12  8  1  0  0  0  0
 13 24  1  0  0  0  0
 13 20  1  0  0  0  0
 14 25  1  0  0  0  0
 14  2  1  0  0  0  0
 15  5  1  0  0  0  0
 15 12  1  0  0  0  0
 17 10  1  0  0  0  0
 18 20  1  0  0  0  0
 18  4  2  0  0  0  0
 19  6  2  0  0  0  0
 19  3  1  0  0  0  0
 20 11  1  0  0  0  0
 21 23  2  0  0  0  0
 22 24  1  0  0  0  0
 23  4  1  0  0  0  0
 25 17  1  0  0  0  0
 25  9  1  0  0  0  0
 26  1  2  0  0  0  0
 26 21  1  0  0  0  0
 27  9  1  0  0  0  0
 27  1  1  0  0  0  0
 28 29  1  0  0  0  0
 28 17  1  0  0  0  0
 31 33  1  0  0  0  0
 32 31  1  0  0  0  0
 32 34  1  0  0  0  0
 32 29  1  0  0  0  0
 33 30  1  0  0  0  0
 34 30  1  0  0  0  0
M  END
>  <MODEL>
7

>  <REMARK>
 VINA RESULT:      -8.2      3.917      8.505
  Name = 
  3 active torsions:
  status: ('A' for Active; 'I' for Inactive)
    1  A    between atoms: C_17  and  O_28
    2  A    between atoms: O_28  and  C_29
    3  A    between atoms: C_29  and  C_32
                            x       y       z     vdW  Elec       q    Type
                         _______ _______ _______ _____ _____    ______ ____

>  <TORSDO>
F 3

$$$$
=
 OpenBabel11122412083D

 34 40  0  0  1  0  0  0  0  0999 V2000
  183.3030  178.6150  143.7230 C   0  0  0  0  0  0  0  0  0  0  0  0
  181.3200  179.7570  142.7510 C   0  0  0  0  0  2  0  0  0  0  0  0
  189.7240  178.5430  142.6630 C   0  0  1  0  0  3  0  0  0  0  0  0
  185.6590  178.3640  144.2450 C   0  0  0  0  0  0  0  0  0  0  0  0
  187.2620  177.6110  142.3940 C   0  0  2  0  0  3  0  0  0  0  0  0
  189.0530  177.1270  140.7890 C   0  0  0  0  0  2  0  0  0  0  0  0
  189.3500  179.8660  142.8050 F   0  0  0  0  0  0  0  0  0  0  0  0
  189.2090  176.7570  144.4630 C   0  0  0  0  0  2  0  0  0  0  0  0
  182.4990  178.2780  141.3140 C   0  0  2  0  0  3  0  0  0  0  0  0
  182.5720  179.5530  138.3710 C   0  0  0  0  0  2  0  0  0  0  0  0
  186.2870  178.3270  141.4710 C   0  0  0  0  0  2  0  0  0  0  0  0
  187.7860  177.1680  144.8520 C   0  0  0  0  0  2  0  0  0  0  0  0
  183.8930  178.6190  140.9570 N   0  0  1  0  0  0  0  0  0  0  0  0
  180.6160  179.7740  141.5410 O   0  0  0  0  0  0  0  0  0  0  0  0
  187.0970  178.1050  143.8470 C   0  0  2  0  0  3  0  0  0  0  0  0
  190.0740  177.9460  144.0370 C   0  0  0  0  0  2  0  0  0  0  0  0
  182.0220  180.2200  139.6240 C   0  0  2  0  0  3  0  0  0  0  0  0
  184.6080  178.3460  143.2980 C   0  0  0  0  0  0  0  0  0  0  0  0
  188.6750  177.7850  141.8830 C   0  0  0  0  0  0  0  0  0  0  0  0
  184.8510  177.9590  141.8610 C   0  0  2  0  0  3  0  0  0  0  0  0
  184.0620  179.0020  145.9430 C   0  0  0  0  0  3  0  0  0  0  0  0
  184.0160  179.1240  138.5700 C   0  0  0  0  0  2  0  0  0  0  0  0
  185.3740  178.7280  145.5670 C   0  0  0  0  0  3  0  0  0  0  0  0
  184.1130  178.0430  139.6310 C   0  0  0  0  0  2  0  0  0  0  0  0
  181.4570  179.1610  140.5880 C   0  0  1  0  0  3  0  0  0  0  0  0
  183.0630  178.9280  145.0260 N   0  0  0  0  0  0  0  0  0  0  0  0
  182.1500  178.5020  142.7740 C   0  0  1  0  0  3  0  0  0  0  0  0
  181.0150  181.1140  139.2500 O   0  0  0  0  0  0  0  0  0  0  0  0
  181.6270  181.9820  138.3430 C   0  0  0  0  0  2  0  0  0  0  0  0
  181.5550  184.4020  136.1720 O   0  0  0  0  0  0  0  0  0  0  0  0
  180.4420  182.3200  136.2010 C   0  0  0  0  0  2  0  0  0  0  0  0
  180.5750  182.8000  137.6170 C   0  0  2  0  0  3  0  0  0  0  0  0
  180.8050  183.5280  135.3720 C   0  0  0  0  0  2  0  0  0  0  0  0
  181.0580  184.2250  137.4720 C   0  0  0  0  0  2  0  0  0  0  0  0
  1 26  1  0  0  0  0
  2 27  1  0  0  0  0
  3  7  1  1  0  0  0
  3 16  1  0  0  0  0
  4 23  2  0  0  0  0
  5 11  1  6  0  0  0
  5 15  1  0  0  0  0
  6 19  2  0  0  0  0
  8 12  1  0  0  0  0
  9 27  1  0  0  0  0
 10 22  1  0  0  0  0
 10 17  1  0  0  0  0
 11 20  1  0  0  0  0
 13  9  1  0  0  0  0
 13 20  1  0  0  0  0
 14  2  1  0  0  0  0
 15  4  1  0  0  0  0
 15 12  1  0  0  0  0
 16  8  1  0  0  0  0
 17 25  1  0  0  0  0
 18  1  2  0  0  0  0
 18  4  1  0  0  0  0
 19  5  1  0  0  0  0
 19  3  1  0  0  0  0
 20 18  1  0  0  0  0
 22 24  1  0  0  0  0
 23 21  1  0  0  0  0
 24 13  1  0  0  0  0
 25  9  1  0  0  0  0
 25 14  1  0  0  0  0
 26 21  2  0  0  0  0
 27  1  1  0  0  0  0
 28 17  1  0  0  0  0
 29 28  1  0  0  0  0
 30 34  1  0  0  0  0
 31 32  1  0  0  0  0
 32 29  1  0  0  0  0
 33 30  1  0  0  0  0
 33 31  1  0  0  0  0
 34 32  1  0  0  0  0
M  END
>  <MODEL>
8

>  <REMARK>
 VINA RESULT:      -8.2      5.059      9.189
  Name = 
  3 active torsions:
  status: ('A' for Active; 'I' for Inactive)
    1  A    between atoms: C_17  and  O_28
    2  A    between atoms: O_28  and  C_29
    3  A    between atoms: C_29  and  C_32
                            x       y       z     vdW  Elec       q    Type
                         _______ _______ _______ _____ _____    ______ ____

>  <TORSDO>
F 3

$$$$
=
 OpenBabel11122412083D

 34 40  0  0  1  0  0  0  0  0999 V2000
  186.6890  178.1410  138.6190 C   0  0  0  0  0  0  0  0  0  0  0  0
  184.2980  178.0020  137.9530 C   0  0  0  0  0  2  0  0  0  0  0  0
  190.3250  176.2050  143.6580 C   0  0  1  0  0  3  0  0  0  0  0  0
  188.6850  177.4360  139.8040 C   0  0  0  0  0  0  0  0  0  0  0  0
  188.8950  177.9690  142.3000 C   0  0  2  0  0  3  0  0  0  0  0  0
  189.2760  178.1390  144.7180 C   0  0  0  0  0  2  0  0  0  0  0  0
  189.6300  175.0970  143.2090 F   0  0  0  0  0  0  0  0  0  0  0  0
  191.8340  177.6180  142.1020 C   0  0  0  0  0  2  0  0  0  0  0  0
  184.7790  179.2550  139.9130 C   0  0  2  0  0  3  0  0  0  0  0  0
  182.4650  178.7110  142.0680 C   0  0  0  0  0  2  0  0  0  0  0  0
  187.3780  177.8580  142.2940 C   0  0  0  0  0  2  0  0  0  0  0  0
  190.9660  177.6530  140.8420 C   0  0  0  0  0  2  0  0  0  0  0  0
  185.3450  178.5370  141.0760 N   0  0  1  0  0  0  0  0  0  0  0  0
  183.0630  178.4960  138.3920 O   0  0  0  0  0  0  0  0  0  0  0  0
  189.4980  177.2580  141.0700 C   0  0  2  0  0  3  0  0  0  0  0  0
  191.6620  176.3260  142.9060 C   0  0  0  0  0  2  0  0  0  0  0  0
  182.6160  178.0200  140.7200 C   0  0  2  0  0  3  0  0  0  0  0  0
  187.4000  178.0250  139.8190 C   0  0  0  0  0  0  0  0  0  0  0  0
  189.4450  177.4310  143.6030 C   0  0  0  0  0  0  0  0  0  0  0  0
  186.8160  178.6080  141.0820 C   0  0  2  0  0  3  0  0  0  0  0  0
  188.4310  177.0370  137.4340 C   0  0  0  0  0  3  0  0  0  0  0  0
  183.7240  178.5570  142.9040 C   0  0  0  0  0  2  0  0  0  0  0  0
  189.1780  176.9130  138.6010 C   0  0  0  0  0  3  0  0  0  0  0  0
  184.8920  179.2760  142.2540 C   0  0  0  0  0  2  0  0  0  0  0  0
  183.2730  178.9710  139.7030 C   0  0  1  0  0  3  0  0  0  0  0  0
  187.2200  177.6530  137.4640 N   0  0  0  0  0  0  0  0  0  0  0  0
  185.3720  178.8520  138.5750 C   0  0  1  0  0  3  0  0  0  0  0  0
  181.3490  177.6380  140.2700 O   0  0  0  0  0  0  0  0  0  0  0  0
  181.4550  176.2660  140.0320 C   0  0  0  0  0  2  0  0  0  0  0  0
  181.2530  174.1620  137.5600 O   0  0  0  0  0  0  0  0  0  0  0  0
  179.8300  174.5100  139.4120 C   0  0  0  0  0  2  0  0  0  0  0  0
  180.4140  175.8350  139.0150 C   0  0  2  0  0  3  0  0  0  0  0  0
  180.1750  173.6000  138.2580 C   0  0  0  0  0  2  0  0  0  0  0  0
  181.0910  175.5500  137.6930 C   0  0  0  0  0  2  0  0  0  0  0  0
  1 18  1  0  0  0  0
  2 14  1  0  0  0  0
  2 27  1  0  0  0  0
  3  7  1  6  0  0  0
  4 18  2  0  0  0  0
  4 15  1  0  0  0  0
  5 11  1  1  0  0  0
  5 19  1  0  0  0  0
  8 16  1  0  0  0  0
  9 13  1  0  0  0  0
 10 22  1  0  0  0  0
 12 15  1  0  0  0  0
 12  8  1  0  0  0  0
 13 20  1  0  0  0  0
 13 24  1  0  0  0  0
 14 25  1  0  0  0  0
 15  5  1  0  0  0  0
 16  3  1  0  0  0  0
 17 10  1  0  0  0  0
 18 20  1  0  0  0  0
 19  3  1  0  0  0  0
 19  6  2  0  0  0  0
 20 11  1  0  0  0  0
 21 26  1  0  0  0  0
 21 23  2  0  0  0  0
 23  4  1  0  0  0  0
 24 22  1  0  0  0  0
 25  9  1  0  0  0  0
 25 17  1  0  0  0  0
 26  1  2  0  0  0  0
 27  1  1  0  0  0  0
 27  9  1  0  0  0  0
 28 17  1  0  0  0  0
 29 28  1  0  0  0  0
 30 34  1  0  0  0  0
 30 33  1  0  0  0  0
 32 31  1  0  0  0  0
 32 29  1  0  0  0  0
 33 31  1  0  0  0  0
 34 32  1  0  0  0  0
M  END
>  <MODEL>
9

>  <REMARK>
 VINA RESULT:      -8.1      3.883      7.232
  Name = 
  3 active torsions:
  status: ('A' for Active; 'I' for Inactive)
    1  A    between atoms: C_17  and  O_28
    2  A    between atoms: O_28  and  C_29
    3  A    between atoms: C_29  and  C_32
                            x       y       z     vdW  Elec       q    Type
                         _______ _______ _______ _____ _____    ______ ____

>  <TORSDO>
F 3

$$$$
