=
 OpenBabel11122410363D

 32 37  0  0  1  0  0  0  0  0999 V2000
  187.7930  176.7730  145.1950 C   0  0  0  0  0  2  0  0  0  0  0  0
  183.8610  178.9970  141.9170 C   0  0  1  0  0  3  0  0  0  0  0  0
  179.6110  178.5340  144.2630 C   0  0  0  0  0  3  0  0  0  0  0  0
  178.9310  179.4270  143.2620 C   0  0  0  0  0  2  0  0  0  0  0  0
  183.8160  179.2050  139.3500 C   0  0  0  0  0  0  0  0  0  0  0  0
  183.1180  179.0890  138.0230 C   0  0  1  0  0  3  0  0  0  0  0  0
  186.0130  178.4570  143.1140 C   0  0  1  0  0  3  0  0  0  0  0  0
  183.8350  178.8250  144.2880 C   0  0  0  0  0  2  0  0  0  0  0  0
  181.0170  178.5390  136.9940 N   0  0  0  0  0  0  0  0  0  0  0  0
  185.8330  178.3660  145.6930 C   0  0  0  0  0  2  0  0  0  0  0  0
  180.9440  178.4010  144.2400 C   0  0  0  0  0  3  0  0  0  0  0  0
  183.0910  178.4830  143.0690 N   0  0  1  0  0  0  0  0  0  0  0  0
  181.7780  179.1360  143.2070 C   0  0  1  0  0  3  0  0  0  0  0  0
  181.7340  179.4300  140.5990 C   0  0  2  0  0  3  0  0  0  0  0  0
  182.0540  177.6310  136.5000 C   0  0  0  0  0  2  0  0  0  0  0  0
  187.2880  176.4620  143.8510 N   0  0  0  0  0  2  0  0  0  0  0  0
  185.1620  178.0810  144.3440 C   0  0  2  0  0  3  0  0  0  0  0  0
  183.2580  177.7260  137.4150 C   0  0  0  0  0  2  0  0  0  0  0  0
  187.3160  177.6500  142.9990 C   0  0  0  0  0  2  0  0  0  0  0  0
  187.3470  178.1470  145.7290 C   0  0  1  0  0  3  0  0  0  0  0  0
  179.6660  179.4110  141.9470 C   0  0  0  0  0  3  0  0  0  0  0  0
  181.0030  179.2350  141.8990 C   0  0  0  0  0  0  0  0  0  0  0  0
  180.9540  178.8950  139.3970 C   0  0  0  0  0  2  0  0  0  0  0  0
  185.1990  178.2450  141.8460 C   0  0  0  0  0  2  0  0  0  0  0  0
  184.9440  179.6710  139.3910 O   0  0  0  0  0  0  0  0  0  0  0  0
  180.7060  179.4580  135.9120 C   0  0  0  0  0  1  0  0  0  0  0  0
  183.0970  178.7540  140.6030 C   0  0  2  0  0  3  0  0  0  0  0  0
  181.6060  179.3250  138.0740 C   0  0  1  0  0  3  0  0  0  0  0  0
  187.8330  178.3380  147.0860 N   0  0  0  0  0  2  0  0  0  0  0  0
  189.1710  178.0170  147.4700 C   0  0  0  0  0  0  0  0  0  0  0  0
  190.0760  177.5290  146.5350 O   0  0  0  0  0  0  0  0  0  0  0  0
  189.5330  178.1820  148.6630 O   0  0  0  0  0  1  0  0  0  0  0  0
  1 20  1  0  0  0  0
  2 24  1  6  0  0  0
  2 12  1  0  0  0  0
  4  3  1  0  0  0  0
  5 25  2  0  0  0  0
  6 18  1  1  0  0  0
  6 28  1  0  0  0  0
  6  5  1  0  0  0  0
  7 24  1  6  0  0  0
  7 17  1  0  0  0  0
  9 28  1  0  0  0  0
 10 20  1  0  0  0  0
 11  3  2  0  0  0  0
 12 13  1  0  0  0  0
 12  8  1  1  0  0  0
 13 11  1  1  0  0  0
 14 23  1  6  0  0  0
 14 27  1  0  0  0  0
 14 22  1  0  0  0  0
 15  9  1  0  0  0  0
 15 18  1  0  0  0  0
 16  1  1  0  0  0  0
 17  8  1  1  0  0  0
 17 10  1  0  0  0  0
 19  7  1  0  0  0  0
 19 16  1  0  0  0  0
 20 29  1  1  0  0  0
 21  4  1  0  0  0  0
 22 21  2  0  0  0  0
 22 13  1  0  0  0  0
 26  9  1  0  0  0  0
 27  5  1  6  0  0  0
 27  2  1  0  0  0  0
 28 23  1  1  0  0  0
 29 30  1  0  0  0  0
 30 32  1  0  0  0  0
 31 30  2  0  0  0  0
M  END
>  <MODEL>
1

>  <REMARK>
 VINA RESULT:      -9.0      0.000      0.000
  Name = 
  1 active torsions:
  status: ('A' for Active; 'I' for Inactive)
    1  A    between atoms: C_20  and  N_29
                            x       y       z     vdW  Elec       q    Type
                         _______ _______ _______ _____ _____    ______ ____

>  <TORSDO>
F 1

$$$$
=
 OpenBabel11122410363D

 32 37  0  0  1  0  0  0  0  0999 V2000
  190.7310  176.2640  139.4680 C   0  0  0  0  0  2  0  0  0  0  0  0
  186.0790  178.6590  141.4140 C   0  0  1  0  0  3  0  0  0  0  0  0
  185.7480  177.5100  146.1410 C   0  0  0  0  0  3  0  0  0  0  0  0
  184.6240  178.4910  146.3290 C   0  0  0  0  0  2  0  0  0  0  0  0
  183.9150  179.2590  140.1540 C   0  0  0  0  0  0  0  0  0  0  0  0
  182.4160  179.2970  140.0380 C   0  0  1  0  0  3  0  0  0  0  0  0
  188.1850  178.1080  140.1400 C   0  0  1  0  0  3  0  0  0  0  0  0
  188.0460  178.1190  142.6380 C   0  0  0  0  0  2  0  0  0  0  0  0
  180.3810  178.7520  141.1950 N   0  0  0  0  0  0  0  0  0  0  0  0
  190.2500  177.6040  141.6140 C   0  0  0  0  0  2  0  0  0  0  0  0
  186.4260  177.4850  144.9860 C   0  0  0  0  0  3  0  0  0  0  0  0
  186.5930  177.9140  142.5830 N   0  0  1  0  0  0  0  0  0  0  0  0
  186.0680  178.4340  143.8570 C   0  0  1  0  0  3  0  0  0  0  0  0
  183.8770  179.1260  142.5880 C   0  0  2  0  0  3  0  0  0  0  0  0
  180.4360  178.0150  139.9310 C   0  0  0  0  0  2  0  0  0  0  0  0
  189.3030  176.1270  139.1520 N   0  0  0  0  0  2  0  0  0  0  0  0
  188.7320  177.4810  141.4380 C   0  0  2  0  0  3  0  0  0  0  0  0
  181.8550  178.0600  139.4040 C   0  0  0  0  0  2  0  0  0  0  0  0
  188.7080  177.4320  138.8630 C   0  0  0  0  0  2  0  0  0  0  0  0
  191.0670  177.5000  140.3230 C   0  0  1  0  0  3  0  0  0  0  0  0
  183.9080  178.7370  145.0260 C   0  0  0  0  0  3  0  0  0  0  0  0
  184.5640  178.6750  143.8480 C   0  0  0  0  0  0  0  0  0  0  0  0
  182.4020  178.7250  142.5440 C   0  0  0  0  0  2  0  0  0  0  0  0
  186.6650  178.0330  140.1390 C   0  0  0  0  0  2  0  0  0  0  0  0
  184.5930  179.7990  139.2940 O   0  0  0  0  0  0  0  0  0  0  0  0
  179.3880  179.8010  141.0330 C   0  0  0  0  0  1  0  0  0  0  0  0
  184.5450  178.5650  141.3420 C   0  0  2  0  0  3  0  0  0  0  0  0
  181.6750  179.4050  141.3740 C   0  0  1  0  0  3  0  0  0  0  0  0
  192.4860  177.5150  140.6450 N   0  0  0  0  0  2  0  0  0  0  0  0
  193.4850  177.1100  139.7080 C   0  0  0  0  0  0  0  0  0  0  0  0
  193.1290  176.7090  138.4260 O   0  0  0  0  0  0  0  0  0  0  0  0
  194.6960  177.1230  140.0450 O   0  0  0  0  0  1  0  0  0  0  0  0
  1 20  1  0  0  0  0
  2 24  1  6  0  0  0
  2 12  1  0  0  0  0
  3  4  1  0  0  0  0
  6 18  1  1  0  0  0
  6  5  1  0  0  0  0
  6 28  1  0  0  0  0
  7 19  1  6  0  0  0
  7 17  1  0  0  0  0
  9 28  1  0  0  0  0
 11  3  2  0  0  0  0
 12  8  1  1  0  0  0
 12 13  1  0  0  0  0
 13 11  1  1  0  0  0
 14 23  1  1  0  0  0
 14 22  1  0  0  0  0
 15  9  1  0  0  0  0
 16  1  1  0  0  0  0
 17 10  1  1  0  0  0
 17  8  1  0  0  0  0
 18 15  1  0  0  0  0
 19 16  1  0  0  0  0
 20 29  1  1  0  0  0
 20 10  1  0  0  0  0
 21  4  1  0  0  0  0
 22 13  1  0  0  0  0
 22 21  2  0  0  0  0
 24  7  1  0  0  0  0
 25  5  2  0  0  0  0
 26  9  1  0  0  0  0
 27  5  1  6  0  0  0
 27  2  1  0  0  0  0
 27 14  1  0  0  0  0
 28 23  1  1  0  0  0
 30 32  1  0  0  0  0
 30 29  1  0  0  0  0
 31 30  2  0  0  0  0
M  END
>  <MODEL>
2

>  <REMARK>
 VINA RESULT:      -9.0      3.449      5.168
  Name = 
  1 active torsions:
  status: ('A' for Active; 'I' for Inactive)
    1  A    between atoms: C_20  and  N_29
                            x       y       z     vdW  Elec       q    Type
                         _______ _______ _______ _____ _____    ______ ____

>  <TORSDO>
F 1

$$$$
=
 OpenBabel11122410363D

 32 37  0  0  1  0  0  0  0  0999 V2000
  188.0590  179.0130  136.7580 C   0  0  0  0  0  2  0  0  0  0  0  0
  187.9130  177.2930  142.0660 C   0  0  1  0  0  3  0  0  0  0  0  0
  184.2390  179.6530  144.2350 C   0  0  0  0  0  3  0  0  0  0  0  0
  184.3550  178.7740  145.4490 C   0  0  0  0  0  2  0  0  0  0  0  0
  189.8340  176.4170  143.5400 C   0  0  0  0  0  0  0  0  0  0  0  0
  190.5970  176.3740  144.8360 C   0  0  1  0  0  3  0  0  0  0  0  0
  188.1970  177.4530  139.5650 C   0  0  1  0  0  3  0  0  0  0  0  0
  186.0980  178.1040  140.7610 C   0  0  0  0  0  2  0  0  0  0  0  0
  190.6340  177.2380  147.0780 N   0  0  0  0  0  0  0  0  0  0  0  0
  186.1140  178.2950  138.2830 C   0  0  0  0  0  2  0  0  0  0  0  0
  184.9390  179.3610  143.1300 C   0  0  0  0  0  3  0  0  0  0  0  0
  186.8430  178.3110  142.0090 N   0  0  1  0  0  0  0  0  0  0  0  0
  185.8580  178.1540  143.0930 C   0  0  1  0  0  3  0  0  0  0  0  0
  187.7780  177.1880  144.5990 C   0  0  2  0  0  3  0  0  0  0  0  0
  191.8700  177.6150  146.3910 C   0  0  0  0  0  2  0  0  0  0  0  0
  189.0030  179.0850  137.8810 N   0  0  0  0  0  2  0  0  0  0  0  0
  186.9740  178.3920  139.5490 C   0  0  2  0  0  3  0  0  0  0  0  0
  191.6790  177.4090  144.9020 C   0  0  0  0  0  2  0  0  0  0  0  0
  189.2210  177.7600  138.4610 C   0  0  0  0  0  2  0  0  0  0  0  0
  186.8870  178.0410  136.9860 C   0  0  1  0  0  3  0  0  0  0  0  0
  185.7460  178.2060  145.5640 C   0  0  0  0  0  3  0  0  0  0  0  0
  186.4850  177.9440  144.4650 C   0  0  0  0  0  0  0  0  0  0  0  0
  188.5680  177.5870  145.8460 C   0  0  0  0  0  2  0  0  0  0  0  0
  188.8960  177.5510  140.9140 C   0  0  0  0  0  2  0  0  0  0  0  0
  190.1510  175.6580  142.6370 O   0  0  0  0  0  0  0  0  0  0  0  0
  190.9790  176.2000  148.0350 C   0  0  0  0  0  1  0  0  0  0  0  0
  188.6840  177.3900  143.3940 C   0  0  2  0  0  3  0  0  0  0  0  0
  189.7500  176.6350  146.0840 C   0  0  1  0  0  3  0  0  0  0  0  0
  185.9700  178.0880  135.8580 N   0  0  0  0  0  2  0  0  0  0  0  0
  185.0290  177.0460  135.5950 C   0  0  0  0  0  0  0  0  0  0  0  0
  184.9390  175.9460  136.4400 O   0  0  0  0  0  1  0  0  0  0  0  0
  184.2730  177.1280  134.5940 O   0  0  0  0  0  0  0  0  0  0  0  0
  1 20  1  0  0  0  0
  1 16  1  0  0  0  0
  2 24  1  6  0  0  0
  2 27  1  0  0  0  0
  3  4  1  0  0  0  0
  4 21  1  0  0  0  0
  5  6  1  0  0  0  0
  6 18  1  6  0  0  0
  6 28  1  0  0  0  0
  7 19  1  6  0  0  0
  7 24  1  0  0  0  0
  9 26  1  0  0  0  0
 11  3  2  0  0  0  0
 12  8  1  6  0  0  0
 12  2  1  0  0  0  0
 12 13  1  0  0  0  0
 13 11  1  1  0  0  0
 13 22  1  0  0  0  0
 14 23  1  1  0  0  0
 15  9  1  0  0  0  0
 16 19  1  0  0  0  0
 17 10  1  6  0  0  0
 17  7  1  0  0  0  0
 17  8  1  0  0  0  0
 18 15  1  0  0  0  0
 20 29  1  6  0  0  0
 20 10  1  0  0  0  0
 22 14  1  0  0  0  0
 22 21  2  0  0  0  0
 25  5  2  0  0  0  0
 27  5  1  6  0  0  0
 27 14  1  0  0  0  0
 28 23  1  6  0  0  0
 28  9  1  0  0  0  0
 30 29  1  0  0  0  0
 30 31  1  0  0  0  0
 32 30  2  0  0  0  0
M  END
>  <MODEL>
3

>  <REMARK>
 VINA RESULT:      -8.7      3.554      8.947
  Name = 
  1 active torsions:
  status: ('A' for Active; 'I' for Inactive)
    1  A    between atoms: C_20  and  N_29
                            x       y       z     vdW  Elec       q    Type
                         _______ _______ _______ _____ _____    ______ ____

>  <TORSDO>
F 1

$$$$
=
 OpenBabel11122410363D

 32 37  0  0  1  0  0  0  0  0999 V2000
  191.2620  175.5440  144.0990 C   0  0  0  0  0  2  0  0  0  0  0  0
  186.8840  178.2750  141.9690 C   0  0  1  0  0  3  0  0  0  0  0  0
  183.4650  178.4290  145.4420 C   0  0  0  0  0  3  0  0  0  0  0  0
  182.6510  179.4010  144.6350 C   0  0  0  0  0  2  0  0  0  0  0  0
  186.1330  178.4700  139.5140 C   0  0  0  0  0  0  0  0  0  0  0  0
  185.0740  178.4440  138.4460 C   0  0  1  0  0  3  0  0  0  0  0  0
  189.1990  177.4470  142.5310 C   0  0  1  0  0  3  0  0  0  0  0  0
  187.5180  178.1240  144.2560 C   0  0  0  0  0  2  0  0  0  0  0  0
  182.7120  178.1870  138.0810 N   0  0  0  0  0  0  0  0  0  0  0  0
  189.7560  177.3990  145.0570 C   0  0  0  0  0  2  0  0  0  0  0  0
  184.7060  178.1090  145.0490 C   0  0  0  0  0  3  0  0  0  0  0  0
  186.4170  177.8810  143.3150 N   0  0  1  0  0  0  0  0  0  0  0  0
  185.2970  178.7140  143.7880 C   0  0  1  0  0  3  0  0  0  0  0  0
  184.5460  178.9930  141.2890 C   0  0  2  0  0  3  0  0  0  0  0  0
  183.4340  177.1390  137.3570 C   0  0  0  0  0  2  0  0  0  0  0  0
  190.3560  175.2970  142.9690 N   0  0  0  0  0  2  0  0  0  0  0  0
  188.6940  177.2020  143.9680 C   0  0  2  0  0  3  0  0  0  0  0  0
  184.8520  177.0710  137.8870 C   0  0  0  0  0  2  0  0  0  0  0  0
  190.2950  176.4640  142.0890 C   0  0  0  0  0  2  0  0  0  0  0  0
  191.1740  176.9700  144.6720 C   0  0  1  0  0  3  0  0  0  0  0  0
  182.9680  179.2730  143.1670 C   0  0  0  0  0  3  0  0  0  0  0  0
  184.2000  178.9110  142.7510 C   0  0  0  0  0  0  0  0  0  0  0  0
  183.3900  178.5650  140.3840 C   0  0  0  0  0  2  0  0  0  0  0  0
  188.0340  177.3420  141.5580 C   0  0  0  0  0  2  0  0  0  0  0  0
  187.2760  178.7730  139.2110 O   0  0  0  0  0  0  0  0  0  0  0  0
  182.2280  179.1330  137.0890 C   0  0  0  0  0  1  0  0  0  0  0  0
  185.7500  178.1330  140.9390 C   0  0  2  0  0  3  0  0  0  0  0  0
  183.6860  178.8900  138.9120 C   0  0  1  0  0  3  0  0  0  0  0  0
  192.0500  177.1000  145.8260 N   0  0  0  0  0  2  0  0  0  0  0  0
  191.6680  176.6530  147.1280 C   0  0  0  0  0  0  0  0  0  0  0  0
  190.4360  176.0440  147.3320 O   0  0  0  0  0  0  0  0  0  0  0  0
  192.4560  176.8090  148.0960 O   0  0  0  0  0  1  0  0  0  0  0  0
  1 20  1  0  0  0  0
  2 24  1  6  0  0  0
  2 12  1  0  0  0  0
  4  3  1  0  0  0  0
  6 18  1  1  0  0  0
  6 28  1  0  0  0  0
  6  5  1  0  0  0  0
  7 24  1  6  0  0  0
  7 17  1  0  0  0  0
  9 28  1  0  0  0  0
 11  3  2  0  0  0  0
 12 13  1  0  0  0  0
 12  8  1  1  0  0  0
 13 11  1  1  0  0  0
 14 23  1  6  0  0  0
 14 22  1  0  0  0  0
 15 18  1  0  0  0  0
 15  9  1  0  0  0  0
 16  1  1  0  0  0  0
 17  8  1  1  0  0  0
 17 10  1  0  0  0  0
 19  7  1  0  0  0  0
 19 16  1  0  0  0  0
 20 10  1  0  0  0  0
 20 29  1  1  0  0  0
 21  4  1  0  0  0  0
 22 21  2  0  0  0  0
 22 13  1  0  0  0  0
 25  5  2  0  0  0  0
 26  9  1  0  0  0  0
 27  5  1  6  0  0  0
 27 14  1  0  0  0  0
 27  2  1  0  0  0  0
 28 23  1  1  0  0  0
 29 30  1  0  0  0  0
 30 31  2  0  0  0  0
 30 32  1  0  0  0  0
M  END
>  <MODEL>
4

>  <REMARK>
 VINA RESULT:      -8.7      2.119      3.189
  Name = 
  1 active torsions:
  status: ('A' for Active; 'I' for Inactive)
    1  A    between atoms: C_20  and  N_29
                            x       y       z     vdW  Elec       q    Type
                         _______ _______ _______ _____ _____    ______ ____

>  <TORSDO>
F 1

$$$$
=
 OpenBabel11122410363D

 32 37  0  0  1  0  0  0  0  0999 V2000
  191.8480  175.1530  136.6170 C   0  0  0  0  0  2  0  0  0  0  0  0
  188.0700  177.8740  139.6950 C   0  0  1  0  0  3  0  0  0  0  0  0
  189.0020  176.8230  144.3640 C   0  0  0  0  0  3  0  0  0  0  0  0
  188.0340  177.8780  144.8230 C   0  0  0  0  0  2  0  0  0  0  0  0
  185.6790  178.5930  139.0650 C   0  0  0  0  0  0  0  0  0  0  0  0
  184.2110  178.7260  139.3680 C   0  0  1  0  0  3  0  0  0  0  0  0
  189.7010  177.1680  137.9070 C   0  0  1  0  0  3  0  0  0  0  0  0
  190.2640  177.2270  140.3430 C   0  0  0  0  0  2  0  0  0  0  0  0
  182.5510  178.3320  141.0600 N   0  0  0  0  0  0  0  0  0  0  0  0
  192.0630  176.5540  138.7660 C   0  0  0  0  0  2  0  0  0  0  0  0
  189.3300  176.7360  143.0680 C   0  0  0  0  0  3  0  0  0  0  0  0
  188.8440  177.1150  140.7000 N   0  0  1  0  0  0  0  0  0  0  0  0
  188.7260  177.6890  142.0520 C   0  0  1  0  0  3  0  0  0  0  0  0
  186.3130  178.5000  141.4170 C   0  0  2  0  0  3  0  0  0  0  0  0
  182.2090  177.5730  139.8560 C   0  0  0  0  0  2  0  0  0  0  0  0
  190.3840  175.1040  136.7130 N   0  0  0  0  0  2  0  0  0  0  0  0
  190.5510  176.5270  139.0220 C   0  0  2  0  0  3  0  0  0  0  0  0
  183.4260  177.5180  138.9550 C   0  0  0  0  0  2  0  0  0  0  0  0
  189.8090  176.4400  136.5580 C   0  0  0  0  0  2  0  0  0  0  0  0
  192.4810  176.3780  137.3040 C   0  0  1  0  0  3  0  0  0  0  0  0
  186.9980  178.1490  143.7630 C   0  0  0  0  0  3  0  0  0  0  0  0
  187.2960  178.0260  142.4520 C   0  0  0  0  0  0  0  0  0  0  0  0
  184.8630  178.1950  141.7970 C   0  0  0  0  0  2  0  0  0  0  0  0
  188.2400  177.1910  138.3290 C   0  0  0  0  0  2  0  0  0  0  0  0
  186.1190  179.0740  138.0330 O   0  0  0  0  0  0  0  0  0  0  0  0
  181.6140  179.4400  141.1450 C   0  0  0  0  0  1  0  0  0  0  0  0
  186.5730  177.8780  140.0540 C   0  0  2  0  0  3  0  0  0  0  0  0
  183.8790  178.9020  140.8520 C   0  0  1  0  0  3  0  0  0  0  0  0
  193.9310  176.3060  137.2190 N   0  0  0  0  0  2  0  0  0  0  0  0
  194.6290  176.4110  135.9780 C   0  0  0  0  0  0  0  0  0  0  0  0
  193.9340  176.6170  134.7920 O   0  0  0  0  0  0  0  0  0  0  0  0
  195.8830  176.3210  135.9590 O   0  0  0  0  0  1  0  0  0  0  0  0
  1 16  1  0  0  0  0
  1 20  1  0  0  0  0
  2 24  1  6  0  0  0
  2 27  1  0  0  0  0
  2 12  1  0  0  0  0
  3  4  1  0  0  0  0
  5  6  1  0  0  0  0
  6 18  1  1  0  0  0
  6 28  1  0  0  0  0
  7 19  1  6  0  0  0
  7 24  1  0  0  0  0
  7 17  1  0  0  0  0
  9 26  1  0  0  0  0
 11  3  2  0  0  0  0
 12  8  1  6  0  0  0
 12 13  1  0  0  0  0
 13 22  1  0  0  0  0
 13 11  1  1  0  0  0
 14 23  1  1  0  0  0
 14 22  1  0  0  0  0
 15  9  1  0  0  0  0
 17 10  1  6  0  0  0
 17  8  1  0  0  0  0
 18 15  1  0  0  0  0
 19 16  1  0  0  0  0
 20 29  1  1  0  0  0
 20 10  1  0  0  0  0
 21  4  1  0  0  0  0
 22 21  2  0  0  0  0
 25  5  2  0  0  0  0
 27  5  1  6  0  0  0
 27 14  1  0  0  0  0
 28  9  1  0  0  0  0
 28 23  1  1  0  0  0
 30 29  1  0  0  0  0
 31 30  2  0  0  0  0
 32 30  1  0  0  0  0
M  END
>  <MODEL>
5

>  <REMARK>
 VINA RESULT:      -8.7      5.257      7.608
  Name = 
  1 active torsions:
  status: ('A' for Active; 'I' for Inactive)
    1  A    between atoms: C_20  and  N_29
                            x       y       z     vdW  Elec       q    Type
                         _______ _______ _______ _____ _____    ______ ____

>  <TORSDO>
F 1

$$$$
=
 OpenBabel11122410363D

 32 37  0  0  1  0  0  0  0  0999 V2000
  191.3930  175.3220  136.6780 C   0  0  0  0  0  2  0  0  0  0  0  0
  188.7850  177.9060  140.8820 C   0  0  1  0  0  3  0  0  0  0  0  0
  190.8570  176.3620  145.0170 C   0  0  0  0  0  3  0  0  0  0  0  0
  190.1270  177.4120  145.8070 C   0  0  0  0  0  2  0  0  0  0  0  0
  186.3710  178.7960  140.9910 C   0  0  0  0  0  0  0  0  0  0  0  0
  185.0520  178.9680  141.6940 C   0  0  1  0  0  3  0  0  0  0  0  0
  189.8220  177.3010  138.6650 C   0  0  1  0  0  3  0  0  0  0  0  0
  191.0210  177.0960  140.8510 C   0  0  0  0  0  2  0  0  0  0  0  0
  183.8820  178.4900  143.7380 N   0  0  0  0  0  0  0  0  0  0  0  0
  192.2770  176.4950  138.7930 C   0  0  0  0  0  2  0  0  0  0  0  0
  190.8180  176.3870  143.6780 C   0  0  0  0  0  3  0  0  0  0  0  0
  189.7440  177.0170  141.5720 N   0  0  1  0  0  0  0  0  0  0  0  0
  190.0350  177.4610  142.9470 C   0  0  1  0  0  3  0  0  0  0  0  0
  187.6040  178.4440  143.0640 C   0  0  2  0  0  3  0  0  0  0  0  0
  183.1760  177.8690  142.6160 C   0  0  0  0  0  2  0  0  0  0  0  0
  190.0080  175.3330  137.1680 N   0  0  0  0  0  2  0  0  0  0  0  0
  190.8910  176.5150  139.4500 C   0  0  2  0  0  3  0  0  0  0  0  0
  184.0990  177.8440  141.4150 C   0  0  0  0  0  2  0  0  0  0  0  0
  189.5110  176.7040  137.2840 C   0  0  0  0  0  2  0  0  0  0  0  0
  192.2730  176.4430  137.2630 C   0  0  1  0  0  3  0  0  0  0  0  0
  188.8670  177.8340  145.0960 C   0  0  0  0  0  3  0  0  0  0  0  0
  188.7920  177.8250  143.7490 C   0  0  0  0  0  0  0  0  0  0  0  0
  186.2910  178.1730  143.8010 C   0  0  0  0  0  2  0  0  0  0  0  0
  188.5330  177.3520  139.4720 C   0  0  0  0  0  2  0  0  0  0  0  0
  186.5520  179.3540  139.9200 O   0  0  0  0  0  0  0  0  0  0  0  0
  183.0850  179.6280  144.1650 C   0  0  0  0  0  1  0  0  0  0  0  0
  187.4440  177.9460  141.6360 C   0  0  2  0  0  3  0  0  0  0  0  0
  185.1440  179.0140  143.2210 C   0  0  1  0  0  3  0  0  0  0  0  0
  193.6390  176.3100  136.7790 N   0  0  0  0  0  2  0  0  0  0  0  0
  194.4830  175.2240  137.1640 C   0  0  0  0  0  0  0  0  0  0  0  0
  194.0090  174.2260  138.0070 O   0  0  0  0  0  1  0  0  0  0  0  0
  195.6630  175.1700  136.7330 O   0  0  0  0  0  0  0  0  0  0  0  0
  1 16  1  0  0  0  0
  1 20  1  0  0  0  0
  2 24  1  6  0  0  0
  2 12  1  0  0  0  0
  2 27  1  0  0  0  0
  3  4  1  0  0  0  0
  5  6  1  0  0  0  0
  6 18  1  1  0  0  0
  6 28  1  0  0  0  0
  7 19  1  6  0  0  0
  7 17  1  0  0  0  0
  7 24  1  0  0  0  0
  9 26  1  0  0  0  0
 11  3  2  0  0  0  0
 12  8  1  6  0  0  0
 12 13  1  0  0  0  0
 13 11  1  1  0  0  0
 13 22  1  0  0  0  0
 14 22  1  0  0  0  0
 14 23  1  1  0  0  0
 15  9  1  0  0  0  0
 16 19  1  0  0  0  0
 17 10  1  6  0  0  0
 17  8  1  0  0  0  0
 18 15  1  0  0  0  0
 20 29  1  1  0  0  0
 20 10  1  0  0  0  0
 21  4  1  0  0  0  0
 22 21  2  0  0  0  0
 25  5  2  0  0  0  0
 27  5  1  6  0  0  0
 27 14  1  0  0  0  0
 28  9  1  0  0  0  0
 28 23  1  1  0  0  0
 29 30  1  0  0  0  0
 30 31  1  0  0  0  0
 32 30  2  0  0  0  0
M  END
>  <MODEL>
6

>  <REMARK>
 VINA RESULT:      -8.5      5.083      8.225
  Name = 
  1 active torsions:
  status: ('A' for Active; 'I' for Inactive)
    1  A    between atoms: C_20  and  N_29
                            x       y       z     vdW  Elec       q    Type
                         _______ _______ _______ _____ _____    ______ ____

>  <TORSDO>
F 1

$$$$
=
 OpenBabel11122410363D

 32 37  0  0  1  0  0  0  0  0999 V2000
  186.2740  179.1150  146.7970 C   0  0  0  0  0  2  0  0  0  0  0  0
  184.2900  178.2510  141.6520 C   0  0  1  0  0  3  0  0  0  0  0  0
  188.0780  178.5150  138.5930 C   0  0  0  0  0  3  0  0  0  0  0  0
  187.2360  177.9920  137.4630 C   0  0  0  0  0  2  0  0  0  0  0  0
  181.9380  178.7320  140.7190 C   0  0  0  0  0  0  0  0  0  0  0  0
  181.0170  179.2650  139.6550 C   0  0  1  0  0  3  0  0  0  0  0  0
  184.6930  178.2310  144.1400 C   0  0  1  0  0  3  0  0  0  0  0  0
  186.4830  177.7940  142.4480 C   0  0  0  0  0  2  0  0  0  0  0  0
  180.9750  180.2810  137.4770 N   0  0  0  0  0  0  0  0  0  0  0  0
  187.1150  177.6580  144.8480 C   0  0  0  0  0  2  0  0  0  0  0  0
  187.5940  178.5120  139.8430 C   0  0  0  0  0  3  0  0  0  0  0  0
  185.7250  178.5200  141.4220 N   0  0  1  0  0  0  0  0  0  0  0  0
  186.1960  177.9930  140.1300 C   0  0  1  0  0  3  0  0  0  0  0  0
  183.7900  178.4020  139.1670 C   0  0  2  0  0  3  0  0  0  0  0  0
  180.3360  181.1750  138.4440 C   0  0  0  0  0  2  0  0  0  0  0  0
  185.3080  179.8200  145.9430 N   0  0  0  0  0  2  0  0  0  0  0  0
  186.1990  178.3560  143.8340 C   0  0  2  0  0  3  0  0  0  0  0  0
  180.7000  180.7180  139.8420 C   0  0  0  0  0  2  0  0  0  0  0  0
  184.2770  178.9010  145.4600 C   0  0  0  0  0  2  0  0  0  0  0  0
  186.6340  177.7020  146.3010 C   0  0  1  0  0  3  0  0  0  0  0  0
  185.7770  178.2790  137.7080 C   0  0  0  0  0  3  0  0  0  0  0  0
  185.2770  178.3220  138.9610 C   0  0  0  0  0  0  0  0  0  0  0  0
  183.1000  179.3120  138.1490 C   0  0  0  0  0  2  0  0  0  0  0  0
  183.8900  178.8530  143.0080 C   0  0  0  0  0  2  0  0  0  0  0  0
  181.4620  178.1580  141.6850 O   0  0  0  0  0  0  0  0  0  0  0  0
  179.9170  179.7170  136.6550 C   0  0  0  0  0  1  0  0  0  0  0  0
  183.4320  178.9090  140.5560 C   0  0  2  0  0  3  0  0  0  0  0  0
  181.5720  179.1810  138.2300 C   0  0  1  0  0  3  0  0  0  0  0  0
  187.6450  177.1120  147.1640 N   0  0  0  0  0  2  0  0  0  0  0  0
  189.0420  177.3380  146.9690 C   0  0  0  0  0  0  0  0  0  0  0  0
  189.4870  178.1670  145.9460 O   0  0  0  0  0  0  0  0  0  0  0  0
  189.8750  176.7860  147.7320 O   0  0  0  0  0  1  0  0  0  0  0  0
  2 24  1  1  0  0  0
  3 11  2  0  0  0  0
  4 21  1  0  0  0  0
  4  3  1  0  0  0  0
  5 25  2  0  0  0  0
  6 18  1  1  0  0  0
  6  5  1  0  0  0  0
  7 24  1  6  0  0  0
  7 19  1  0  0  0  0
  9 28  1  0  0  0  0
  9 15  1  0  0  0  0
 10 20  1  0  0  0  0
 12  2  1  0  0  0  0
 12  8  1  1  0  0  0
 13 11  1  6  0  0  0
 13 12  1  0  0  0  0
 14 23  1  6  0  0  0
 14 27  1  0  0  0  0
 15 18  1  0  0  0  0
 16  1  1  0  0  0  0
 17  8  1  6  0  0  0
 17  7  1  0  0  0  0
 17 10  1  0  0  0  0
 19 16  1  0  0  0  0
 20  1  1  0  0  0  0
 20 29  1  1  0  0  0
 21 22  2  0  0  0  0
 22 14  1  0  0  0  0
 22 13  1  0  0  0  0
 26  9  1  0  0  0  0
 27  5  1  1  0  0  0
 27  2  1  0  0  0  0
 28 23  1  1  0  0  0
 28  6  1  0  0  0  0
 30 29  1  0  0  0  0
 30 32  1  0  0  0  0
 31 30  2  0  0  0  0
M  END
>  <MODEL>
7

>  <REMARK>
 VINA RESULT:      -7.8      2.009      4.201
  Name = 
  1 active torsions:
  status: ('A' for Active; 'I' for Inactive)
    1  A    between atoms: C_20  and  N_29
                            x       y       z     vdW  Elec       q    Type
                         _______ _______ _______ _____ _____    ______ ____

>  <TORSDO>
F 1

$$$$
=
 OpenBabel11122410363D

 32 37  0  0  1  0  0  0  0  0999 V2000
  191.6790  175.6820  145.1070 C   0  0  0  0  0  2  0  0  0  0  0  0
  188.6410  178.0300  141.0570 C   0  0  1  0  0  3  0  0  0  0  0  0
  184.0640  178.3550  142.7060 C   0  0  0  0  0  3  0  0  0  0  0  0
  183.6750  179.2170  141.5370 C   0  0  0  0  0  2  0  0  0  0  0  0
  189.0140  177.9730  138.5090 C   0  0  0  0  0  0  0  0  0  0  0  0
  188.5150  177.8080  137.1000 C   0  0  1  0  0  3  0  0  0  0  0  0
  190.4900  177.3510  142.6310 C   0  0  1  0  0  3  0  0  0  0  0  0
  188.2330  178.1110  143.3980 C   0  0  0  0  0  2  0  0  0  0  0  0
  186.5360  177.4230  135.7900 N   0  0  0  0  0  0  0  0  0  0  0  0
  189.9110  177.5530  145.1440 C   0  0  0  0  0  2  0  0  0  0  0  0
  185.3530  178.0530  142.9130 C   0  0  0  0  0  3  0  0  0  0  0  0
  187.6410  177.7400  142.1060 N   0  0  1  0  0  0  0  0  0  0  0  0
  186.4280  178.5650  141.9720 C   0  0  1  0  0  3  0  0  0  0  0  0
  186.8200  178.5880  139.3770 C   0  0  2  0  0  3  0  0  0  0  0  0
  187.4970  176.3450  135.5500 C   0  0  0  0  0  2  0  0  0  0  0  0
  191.3440  175.2990  143.7300 N   0  0  0  0  0  2  0  0  0  0  0  0
  189.4180  177.2160  143.7310 C   0  0  2  0  0  3  0  0  0  0  0  0
  188.5510  176.3820  136.6380 C   0  0  0  0  0  2  0  0  0  0  0  0
  191.6680  176.3780  142.7980 C   0  0  0  0  0  2  0  0  0  0  0  0
  191.3570  177.1500  145.4450 C   0  0  1  0  0  3  0  0  0  0  0  0
  184.5900  178.9710  140.3650 C   0  0  0  0  0  3  0  0  0  0  0  0
  185.8810  178.6240  140.5520 C   0  0  0  0  0  0  0  0  0  0  0  0
  186.1630  178.0340  138.1130 C   0  0  0  0  0  2  0  0  0  0  0  0
  189.8540  177.1120  141.2690 C   0  0  0  0  0  2  0  0  0  0  0  0
  190.1770  178.2940  138.6950 O   0  0  0  0  0  0  0  0  0  0  0  0
  186.5250  178.2560  134.5990 C   0  0  0  0  0  1  0  0  0  0  0  0
  188.0570  177.7500  139.6610 C   0  0  2  0  0  3  0  0  0  0  0  0
  187.0610  178.2370  136.8830 C   0  0  1  0  0  3  0  0  0  0  0  0
  191.6540  177.4190  146.8430 N   0  0  0  0  0  2  0  0  0  0  0  0
  192.3300  176.4740  147.6750 C   0  0  0  0  0  0  0  0  0  0  0  0
  192.7580  175.2570  147.1580 O   0  0  0  0  0  0  0  0  0  0  0  0
  192.5440  176.7490  148.8830 O   0  0  0  0  0  1  0  0  0  0  0  0
  1 20  1  0  0  0  0
  2 24  1  1  0  0  0
  2 12  1  0  0  0  0
  3 11  2  0  0  0  0
  4  3  1  0  0  0  0
  5 25  2  0  0  0  0
  6 18  1  1  0  0  0
  6  5  1  0  0  0  0
  7 24  1  6  0  0  0
  7 19  1  0  0  0  0
  7 17  1  0  0  0  0
  9 28  1  0  0  0  0
 10 20  1  0  0  0  0
 12  8  1  1  0  0  0
 13 12  1  0  0  0  0
 13 11  1  1  0  0  0
 14 23  1  6  0  0  0
 14 27  1  0  0  0  0
 14 22  1  0  0  0  0
 15  9  1  0  0  0  0
 15 18  1  0  0  0  0
 16  1  1  0  0  0  0
 17  8  1  6  0  0  0
 17 10  1  0  0  0  0
 19 16  1  0  0  0  0
 20 29  1  1  0  0  0
 21 22  2  0  0  0  0
 21  4  1  0  0  0  0
 22 13  1  0  0  0  0
 26  9  1  0  0  0  0
 27  5  1  6  0  0  0
 27  2  1  0  0  0  0
 28  6  1  0  0  0  0
 28 23  1  1  0  0  0
 29 30  1  0  0  0  0
 30 32  1  0  0  0  0
 31 30  2  0  0  0  0
M  END
>  <MODEL>
8

>  <REMARK>
 VINA RESULT:      -7.8      3.517      4.867
  Name = 
  1 active torsions:
  status: ('A' for Active; 'I' for Inactive)
    1  A    between atoms: C_20  and  N_29
                            x       y       z     vdW  Elec       q    Type
                         _______ _______ _______ _____ _____    ______ ____

>  <TORSDO>
F 1

$$$$
=
 OpenBabel11122410363D

 32 37  0  0  1  0  0  0  0  0999 V2000
  187.5010  176.7450  144.3480 C   0  0  0  0  0  2  0  0  0  0  0  0
  190.0430  177.3750  139.4190 C   0  0  1  0  0  3  0  0  0  0  0  0
  186.5590  177.4260  136.0080 C   0  0  0  0  0  3  0  0  0  0  0  0
  187.5500  177.8590  134.9640 C   0  0  0  0  0  2  0  0  0  0  0  0
  192.4200  176.6740  138.7190 C   0  0  0  0  0  0  0  0  0  0  0  0
  193.3860  176.0490  137.7500 C   0  0  1  0  0  3  0  0  0  0  0  0
  189.4050  177.4560  141.8570 C   0  0  1  0  0  3  0  0  0  0  0  0
  187.8340  178.0370  139.9990 C   0  0  0  0  0  2  0  0  0  0  0  0
  193.5460  175.0120  135.5870 N   0  0  0  0  0  0  0  0  0  0  0  0
  186.9880  178.2530  142.3260 C   0  0  0  0  0  2  0  0  0  0  0  0
  186.9190  177.3970  137.2990 C   0  0  0  0  0  3  0  0  0  0  0  0
  188.6180  177.2350  139.0510 N   0  0  1  0  0  0  0  0  0  0  0  0
  188.3230  177.7900  137.7190 C   0  0  1  0  0  3  0  0  0  0  0  0
  190.7640  177.1550  136.9950 C   0  0  2  0  0  3  0  0  0  0  0  0
  194.0040  174.0740  136.6130 C   0  0  0  0  0  2  0  0  0  0  0  0
  188.4770  175.9470  143.5940 N   0  0  0  0  0  2  0  0  0  0  0  0
  187.9300  177.4650  141.4070 C   0  0  2  0  0  3  0  0  0  0  0  0
  193.5500  174.5750  137.9680 C   0  0  0  0  0  2  0  0  0  0  0  0
  189.6290  176.7640  143.2110 C   0  0  0  0  0  2  0  0  0  0  0  0
  187.3210  178.1800  143.8180 C   0  0  1  0  0  3  0  0  0  0  0  0
  188.9460  177.4440  135.3500 C   0  0  0  0  0  3  0  0  0  0  0  0
  189.3170  177.3670  136.6450 C   0  0  0  0  0  0  0  0  0  0  0  0
  191.4630  176.1760  136.0500 C   0  0  0  0  0  2  0  0  0  0  0  0
  190.2530  176.7530  140.8080 C   0  0  0  0  0  2  0  0  0  0  0  0
  192.8510  177.2110  139.7270 O   0  0  0  0  0  0  0  0  0  0  0  0
  194.7250  175.4700  134.8710 C   0  0  0  0  0  1  0  0  0  0  0  0
  190.9380  176.6320  138.4120 C   0  0  2  0  0  3  0  0  0  0  0  0
  192.9810  176.1690  136.2780 C   0  0  1  0  0  3  0  0  0  0  0  0
  186.2900  178.8680  144.5790 N   0  0  0  0  0  2  0  0  0  0  0  0
  186.2040  178.7790  146.0020 C   0  0  0  0  0  0  0  0  0  0  0  0
  187.1360  178.0400  146.7210 O   0  0  0  0  0  1  0  0  0  0  0  0
  185.2790  179.3780  146.6090 O   0  0  0  0  0  0  0  0  0  0  0  0
  2 24  1  1  0  0  0
  3 11  2  0  0  0  0
  4 21  1  0  0  0  0
  4  3  1  0  0  0  0
  5 25  2  0  0  0  0
  6 18  1  1  0  0  0
  6  5  1  0  0  0  0
  7 24  1  6  0  0  0
  7 19  1  0  0  0  0
  9 28  1  0  0  0  0
  9 15  1  0  0  0  0
 10 20  1  0  0  0  0
 12  2  1  0  0  0  0
 12  8  1  1  0  0  0
 13 11  1  6  0  0  0
 13 12  1  0  0  0  0
 14 23  1  6  0  0  0
 14 27  1  0  0  0  0
 15 18  1  0  0  0  0
 16  1  1  0  0  0  0
 17  8  1  6  0  0  0
 17  7  1  0  0  0  0
 17 10  1  0  0  0  0
 19 16  1  0  0  0  0
 20  1  1  0  0  0  0
 20 29  1  1  0  0  0
 21 22  2  0  0  0  0
 22 14  1  0  0  0  0
 22 13  1  0  0  0  0
 26  9  1  0  0  0  0
 27  5  1  1  0  0  0
 27  2  1  0  0  0  0
 28 23  1  1  0  0  0
 28  6  1  0  0  0  0
 29 30  1  0  0  0  0
 30 32  2  0  0  0  0
 30 31  1  0  0  0  0
M  END
>  <MODEL>
9

>  <REMARK>
 VINA RESULT:      -7.8      5.818      8.455
  Name = 
  1 active torsions:
  status: ('A' for Active; 'I' for Inactive)
    1  A    between atoms: C_20  and  N_29
                            x       y       z     vdW  Elec       q    Type
                         _______ _______ _______ _____ _____    ______ ____

>  <TORSDO>
F 1

$$$$
