=
 OpenBabel11122411503D

 28 32  0  0  1  0  0  0  0  0999 V2000
  185.3890  178.8440  144.2410 C   0  0  0  0  0  0  0  0  0  0  0  0
  188.9650  179.4980  141.8270 O   0  0  0  0  0  0  0  0  0  0  0  0
  182.5170  176.1260  140.0830 O   0  0  0  0  0  1  0  0  0  0  0  0
  187.1060  176.7290  144.9070 C   0  0  0  0  0  3  0  0  0  0  0  0
  183.6490  177.9730  139.0920 C   0  0  0  0  0  0  0  0  0  0  0  0
  184.4620  179.9790  143.9490 C   0  0  0  0  0  2  0  0  0  0  0  0
  188.9040  177.0430  141.5420 O   0  0  0  0  0  0  0  0  0  0  0  0
  188.4740  178.3640  140.9720 S   0  0  0  0  0  0  0  0  0  0  0  0
  188.2440  178.4570  138.2320 C   0  0  0  0  0  0  0  0  0  0  0  0
  186.7560  178.4370  140.8230 N   0  0  0  0  0  0  0  0  0  0  0  0
  181.0970  178.5560  143.9130 O   0  0  0  0  0  0  0  0  0  0  0  0
  184.5550  178.4460  141.1460 C   0  0  0  0  0  0  0  0  0  0  0  0
  186.8150  178.4090  138.3690 N   0  0  0  0  0  2  0  0  0  0  0  0
  189.1070  178.5180  139.3730 N   0  0  0  0  0  2  0  0  0  0  0  0
  182.1490  179.0730  143.4540 C   0  0  0  0  0  0  0  0  0  0  0  0
  186.0150  178.0990  143.2150 C   0  0  0  0  0  0  0  0  0  0  0  0
  182.6280  177.5180  140.1070 C   0  0  2  0  0  3  0  0  0  0  0  0
  188.8990  178.4730  136.7390 S   0  0  0  0  0  0  0  0  0  0  0  0
  182.3510  179.1280  141.9770 C   0  0  0  0  0  2  0  0  0  0  0  0
  186.8620  177.0410  143.5670 C   0  0  0  0  0  3  0  0  0  0  0  0
  185.6440  178.5290  145.5820 C   0  0  0  0  0  3  0  0  0  0  0  0
  186.4980  177.4770  145.9150 C   0  0  0  0  0  3  0  0  0  0  0  0
  183.1110  179.6190  144.3560 N   0  0  0  0  0  2  0  0  0  0  0  0
  184.7800  178.4870  139.8200 C   0  0  0  0  0  0  0  0  0  0  0  0
  183.1870  177.9570  141.4880 C   0  0  2  0  0  3  0  0  0  0  0  0
  186.1390  178.4800  139.6270 C   0  0  0  0  0  0  0  0  0  0  0  0
  183.6870  177.5680  137.8280 C   0  0  0  0  0  2  0  0  0  0  0  0
  185.7900  178.3890  141.7820 C   0  0  0  0  0  0  0  0  0  0  0  0
  1 21  1  0  0  0  0
  4 22  1  0  0  0  0
  5 24  1  0  0  0  0
  5 17  1  0  0  0  0
  6  1  1  0  0  0  0
  6 23  1  0  0  0  0
  8  7  2  0  0  0  0
  8  2  2  0  0  0  0
  9 13  1  0  0  0  0
  9 14  1  0  0  0  0
 10  8  1  0  0  0  0
 10 28  1  0  0  0  0
 12 25  1  0  0  0  0
 12 28  2  0  0  0  0
 13 26  1  0  0  0  0
 14  8  1  0  0  0  0
 15 11  2  0  0  0  0
 15 23  1  0  0  0  0
 16 20  1  0  0  0  0
 16  1  2  0  0  0  0
 17  3  1  1  0  0  0
 17 25  1  0  0  0  0
 18  9  2  0  0  0  0
 19 15  1  0  0  0  0
 20  4  2  0  0  0  0
 21 22  2  0  0  0  0
 24 12  1  0  0  0  0
 25 19  1  6  0  0  0
 26 24  2  0  0  0  0
 26 10  1  0  0  0  0
 27  5  2  0  0  0  0
 28 16  1  0  0  0  0
M  END
>  <MODEL>
1

>  <REMARK>
 VINA RESULT:      -8.5      0.000      0.000
  Name = 
  0 active torsions:
  status: ('A' for Active; 'I' for Inactive)
                            x       y       z     vdW  Elec       q    Type
                         _______ _______ _______ _____ _____    ______ ____

>  <TORSDO>
F 0

$$$$
=
 OpenBabel11122411503D

 28 32  0  0  1  0  0  0  0  0999 V2000
  184.2910  177.7190  138.6730 C   0  0  0  0  0  0  0  0  0  0  0  0
  180.2060  178.8280  139.7340 O   0  0  0  0  0  0  0  0  0  0  0  0
  185.9670  176.8920  144.0990 O   0  0  0  0  0  1  0  0  0  0  0  0
  182.8090  175.3520  138.4120 C   0  0  0  0  0  3  0  0  0  0  0  0
  184.6140  178.8530  144.0510 C   0  0  0  0  0  0  0  0  0  0  0  0
  185.1090  178.9670  138.7570 C   0  0  0  0  0  2  0  0  0  0  0  0
  180.1890  176.6410  140.8860 O   0  0  0  0  0  0  0  0  0  0  0  0
  180.4540  178.1120  141.0320 S   0  0  0  0  0  0  0  0  0  0  0  0
  179.9560  179.1690  143.5220 C   0  0  0  0  0  0  0  0  0  0  0  0
  182.0720  178.3940  141.5620 N   0  0  0  0  0  0  0  0  0  0  0  0
  188.3450  177.9680  140.1270 O   0  0  0  0  0  0  0  0  0  0  0  0
  184.2810  178.4970  141.8080 C   0  0  0  0  0  0  0  0  0  0  0  0
  181.3700  179.2120  143.7670 N   0  0  0  0  0  2  0  0  0  0  0  0
  179.4230  178.7500  142.2610 N   0  0  0  0  0  2  0  0  0  0  0  0
  187.2090  178.5100  140.0960 C   0  0  0  0  0  0  0  0  0  0  0  0
  183.4170  177.3190  139.7110 C   0  0  0  0  0  0  0  0  0  0  0  0
  185.8660  178.1730  143.5500 C   0  0  2  0  0  3  0  0  0  0  0  0
  178.9310  179.6400  144.7000 S   0  0  0  0  0  0  0  0  0  0  0  0
  186.6260  179.0530  141.3570 C   0  0  0  0  0  2  0  0  0  0  0  0
  182.6910  176.1300  139.5650 C   0  0  0  0  0  3  0  0  0  0  0  0
  184.3970  176.9360  137.5160 C   0  0  0  0  0  3  0  0  0  0  0  0
  183.6610  175.7580  137.3840 C   0  0  0  0  0  3  0  0  0  0  0  0
  186.5190  178.6170  138.8510 N   0  0  0  0  0  2  0  0  0  0  0  0
  183.7150  178.9740  142.9320 C   0  0  0  0  0  0  0  0  0  0  0  0
  185.6910  178.0520  142.0120 C   0  0  2  0  0  3  0  0  0  0  0  0
  182.3530  178.9050  142.7750 C   0  0  0  0  0  0  0  0  0  0  0  0
  184.2450  178.9090  145.3240 C   0  0  0  0  0  2  0  0  0  0  0  0
  183.2570  178.1070  140.9530 C   0  0  0  0  0  0  0  0  0  0  0  0
  1  6  1  0  0  0  0
  1 16  1  0  0  0  0
  2  8  2  0  0  0  0
  4 20  1  0  0  0  0
  5 27  2  0  0  0  0
  6 23  1  0  0  0  0
  7  8  2  0  0  0  0
  8 10  1  0  0  0  0
  8 14  1  0  0  0  0
  9 13  1  0  0  0  0
  9 18  2  0  0  0  0
 10 26  1  0  0  0  0
 12 25  1  0  0  0  0
 12 24  1  0  0  0  0
 14  9  1  0  0  0  0
 15 11  2  0  0  0  0
 15 19  1  0  0  0  0
 16 28  1  0  0  0  0
 17  5  1  0  0  0  0
 17  3  1  1  0  0  0
 20 16  2  0  0  0  0
 21  1  2  0  0  0  0
 22 21  1  0  0  0  0
 22  4  2  0  0  0  0
 23 15  1  0  0  0  0
 24  5  1  0  0  0  0
 25 19  1  6  0  0  0
 25 17  1  0  0  0  0
 26 24  2  0  0  0  0
 26 13  1  0  0  0  0
 28 10  1  0  0  0  0
 28 12  2  0  0  0  0
M  END
>  <MODEL>
2

>  <REMARK>
 VINA RESULT:      -7.5      3.115      6.946
  Name = 
  0 active torsions:
  status: ('A' for Active; 'I' for Inactive)
                            x       y       z     vdW  Elec       q    Type
                         _______ _______ _______ _____ _____    ______ ____

>  <TORSDO>
F 0

$$$$
=
 OpenBabel11122411503D

 28 32  0  0  1  0  0  0  0  0999 V2000
  190.7890  177.0480  139.3030 C   0  0  0  0  0  0  0  0  0  0  0  0
  187.6770  179.0020  136.9490 O   0  0  0  0  0  0  0  0  0  0  0  0
  187.3480  175.8960  143.7490 O   0  0  0  0  0  1  0  0  0  0  0  0
  189.8150  175.0500  137.5930 C   0  0  0  0  0  3  0  0  0  0  0  0
  186.8430  178.0980  142.9950 C   0  0  0  0  0  0  0  0  0  0  0  0
  191.3670  178.0940  140.2010 C   0  0  0  0  0  2  0  0  0  0  0  0
  186.4640  176.8720  137.2650 O   0  0  0  0  0  0  0  0  0  0  0  0
  186.6970  178.2530  137.8070 S   0  0  0  0  0  0  0  0  0  0  0  0
  184.5560  179.3970  139.1010 C   0  0  0  0  0  0  0  0  0  0  0  0
  187.2660  178.1850  139.4350 N   0  0  0  0  0  0  0  0  0  0  0  0
  192.0550  176.4330  143.3820 O   0  0  0  0  0  0  0  0  0  0  0  0
  188.3870  177.8170  141.3210 C   0  0  0  0  0  0  0  0  0  0  0  0
  185.2000  179.1380  140.3570 N   0  0  0  0  0  2  0  0  0  0  0  0
  185.1920  179.0980  137.8530 N   0  0  0  0  0  2  0  0  0  0  0  0
  191.4810  177.2040  142.5690 C   0  0  0  0  0  0  0  0  0  0  0  0
  189.3940  176.8460  139.1820 C   0  0  0  0  0  0  0  0  0  0  0  0
  187.8920  177.1670  143.5530 C   0  0  2  0  0  3  0  0  0  0  0  0
  183.0730  180.0760  139.0930 S   0  0  0  0  0  0  0  0  0  0  0  0
  190.2020  177.8620  142.9680 C   0  0  0  0  0  2  0  0  0  0  0  0
  188.9280  175.8380  138.3300 C   0  0  0  0  0  3  0  0  0  0  0  0
  191.6720  176.2590  138.5560 C   0  0  0  0  0  3  0  0  0  0  0  0
  191.1900  175.2640  137.7040 C   0  0  0  0  0  3  0  0  0  0  0  0
  192.0780  177.4530  141.2970 N   0  0  0  0  0  2  0  0  0  0  0  0
  187.2190  178.4050  141.6400 C   0  0  0  0  0  0  0  0  0  0  0  0
  188.9980  177.0830  142.4670 C   0  0  2  0  0  3  0  0  0  0  0  0
  186.5320  178.6280  140.4720 C   0  0  0  0  0  0  0  0  0  0  0  0
  185.6170  178.2350  143.4870 C   0  0  0  0  0  2  0  0  0  0  0  0
  188.4130  177.6520  139.9410 C   0  0  0  0  0  0  0  0  0  0  0  0
  1  6  1  0  0  0  0
  2  8  2  0  0  0  0
  4 22  2  0  0  0  0
  4 20  1  0  0  0  0
  5 27  2  0  0  0  0
  5 17  1  0  0  0  0
  6 23  1  0  0  0  0
  7  8  2  0  0  0  0
  8 14  1  0  0  0  0
  8 10  1  0  0  0  0
  9 13  1  0  0  0  0
 10 28  1  0  0  0  0
 10 26  1  0  0  0  0
 12 24  1  0  0  0  0
 12 25  1  0  0  0  0
 13 26  1  0  0  0  0
 14  9  1  0  0  0  0
 15 19  1  0  0  0  0
 15 11  2  0  0  0  0
 16  1  1  0  0  0  0
 16 28  1  0  0  0  0
 17  3  1  6  0  0  0
 18  9  2  0  0  0  0
 20 16  2  0  0  0  0
 21  1  2  0  0  0  0
 22 21  1  0  0  0  0
 23 15  1  0  0  0  0
 24  5  1  0  0  0  0
 25 19  1  1  0  0  0
 25 17  1  0  0  0  0
 26 24  2  0  0  0  0
 28 12  2  0  0  0  0
M  END
>  <MODEL>
3

>  <REMARK>
 VINA RESULT:      -7.3      3.155      6.452
  Name = 
  0 active torsions:
  status: ('A' for Active; 'I' for Inactive)
                            x       y       z     vdW  Elec       q    Type
                         _______ _______ _______ _____ _____    ______ ____

>  <TORSDO>
F 0

$$$$
=
 OpenBabel11122411503D

 28 32  0  0  1  0  0  0  0  0999 V2000
  190.2360  174.9770  135.9010 C   0  0  0  0  0  0  0  0  0  0  0  0
  186.2620  176.6690  135.2740 O   0  0  0  0  0  0  0  0  0  0  0  0
  190.2940  176.0200  141.5440 O   0  0  0  0  0  1  0  0  0  0  0  0
  188.4940  172.7800  135.9800 C   0  0  0  0  0  3  0  0  0  0  0  0
  189.3500  177.9230  140.4660 C   0  0  0  0  0  0  0  0  0  0  0  0
  191.2030  176.1130  135.8210 C   0  0  0  0  0  2  0  0  0  0  0  0
  185.5810  175.0420  137.0050 O   0  0  0  0  0  0  0  0  0  0  0  0
  186.0440  176.4460  136.7440 S   0  0  0  0  0  0  0  0  0  0  0  0
  185.1070  178.3510  138.4930 C   0  0  0  0  0  0  0  0  0  0  0  0
  187.4950  176.7860  137.6150 N   0  0  0  0  0  0  0  0  0  0  0  0
  193.7610  175.4470  138.3440 O   0  0  0  0  0  0  0  0  0  0  0  0
  189.5500  176.8170  138.4650 C   0  0  0  0  0  0  0  0  0  0  0  0
  186.3960  178.3800  139.1240 N   0  0  0  0  0  2  0  0  0  0  0  0
  184.8540  177.5490  137.3340 N   0  0  0  0  0  2  0  0  0  0  0  0
  192.7800  176.0190  137.8010 C   0  0  0  0  0  0  0  0  0  0  0  0
  189.0690  175.0340  136.6990 C   0  0  0  0  0  0  0  0  0  0  0  0
  190.5560  177.0250  140.6100 C   0  0  2  0  0  3  0  0  0  0  0  0
  183.9070  179.2790  139.0930 S   0  0  0  0  0  0  0  0  0  0  0  0
  191.9910  177.0140  138.5850 C   0  0  0  0  0  2  0  0  0  0  0  0
  188.2160  173.9230  136.7320 C   0  0  0  0  0  3  0  0  0  0  0  0
  190.5030  173.8290  135.1440 C   0  0  0  0  0  3  0  0  0  0  0  0
  189.6380  172.7350  135.1820 C   0  0  0  0  0  3  0  0  0  0  0  0
  192.4610  175.7240  136.4410 N   0  0  0  0  0  2  0  0  0  0  0  0
  188.8030  177.7000  139.1530 C   0  0  0  0  0  0  0  0  0  0  0  0
  190.7640  176.3780  139.2140 C   0  0  2  0  0  3  0  0  0  0  0  0
  187.5360  177.6740  138.6250 C   0  0  0  0  0  0  0  0  0  0  0  0
  188.6810  178.4540  141.4820 C   0  0  0  0  0  2  0  0  0  0  0  0
  188.7300  176.2210  137.5150 C   0  0  0  0  0  0  0  0  0  0  0  0
  1 16  1  0  0  0  0
  2  8  2  0  0  0  0
  4 20  1  0  0  0  0
  5 17  1  0  0  0  0
  5 27  2  0  0  0  0
  6  1  1  0  0  0  0
  6 23  1  0  0  0  0
  8  7  2  0  0  0  0
  8 14  1  0  0  0  0
  8 10  1  0  0  0  0
  9 18  2  0  0  0  0
  9 13  1  0  0  0  0
 10 26  1  0  0  0  0
 12 24  1  0  0  0  0
 12 25  1  0  0  0  0
 14  9  1  0  0  0  0
 15 11  2  0  0  0  0
 15 19  1  0  0  0  0
 16 20  2  0  0  0  0
 16 28  1  0  0  0  0
 17  3  1  1  0  0  0
 21 22  1  0  0  0  0
 21  1  2  0  0  0  0
 22  4  2  0  0  0  0
 23 15  1  0  0  0  0
 24  5  1  0  0  0  0
 25 19  1  6  0  0  0
 25 17  1  0  0  0  0
 26 13  1  0  0  0  0
 26 24  2  0  0  0  0
 28 10  1  0  0  0  0
 28 12  2  0  0  0  0
M  END
>  <MODEL>
4

>  <REMARK>
 VINA RESULT:      -7.0      4.081      8.312
  Name = 
  0 active torsions:
  status: ('A' for Active; 'I' for Inactive)
                            x       y       z     vdW  Elec       q    Type
                         _______ _______ _______ _____ _____    ______ ____

>  <TORSDO>
F 0

$$$$
=
 OpenBabel11122411503D

 28 32  0  0  1  0  0  0  0  0999 V2000
  188.7600  174.2510  135.3560 C   0  0  0  0  0  0  0  0  0  0  0  0
  184.8600  176.2090  135.3910 O   0  0  0  0  0  0  0  0  0  0  0  0
  190.2640  176.1300  140.5660 O   0  0  0  0  0  1  0  0  0  0  0  0
  186.9670  172.2730  136.2130 C   0  0  0  0  0  3  0  0  0  0  0  0
  189.1960  177.9300  139.4280 C   0  0  0  0  0  0  0  0  0  0  0  0
  189.7420  175.2620  134.8600 C   0  0  0  0  0  2  0  0  0  0  0  0
  184.5310  174.9380  137.4850 O   0  0  0  0  0  0  0  0  0  0  0  0
  184.9970  176.2350  136.8870 S   0  0  0  0  0  0  0  0  0  0  0  0
  184.6300  178.4660  138.4530 C   0  0  0  0  0  0  0  0  0  0  0  0
  186.6340  176.5590  137.3250 N   0  0  0  0  0  0  0  0  0  0  0  0
  192.7980  174.7400  136.7930 O   0  0  0  0  0  0  0  0  0  0  0  0
  188.8340  176.5190  137.6550 C   0  0  0  0  0  0  0  0  0  0  0  0
  186.0340  178.4650  138.7520 N   0  0  0  0  0  2  0  0  0  0  0  0
  184.0540  177.5250  137.5400 N   0  0  0  0  0  2  0  0  0  0  0  0
  191.7490  175.3170  136.4040 C   0  0  0  0  0  0  0  0  0  0  0  0
  187.8310  174.5420  136.3820 C   0  0  0  0  0  0  0  0  0  0  0  0
  190.3450  176.9510  139.4380 C   0  0  2  0  0  3  0  0  0  0  0  0
  183.6710  179.5870  139.1490 S   0  0  0  0  0  0  0  0  0  0  0  0
  191.2360  176.4910  137.1670 C   0  0  0  0  0  2  0  0  0  0  0  0
  186.9490  173.5390  136.8020 C   0  0  0  0  0  3  0  0  0  0  0  0
  188.7660  172.9810  134.7660 C   0  0  0  0  0  3  0  0  0  0  0  0
  187.8740  171.9950  135.1910 C   0  0  0  0  0  3  0  0  0  0  0  0
  191.0890  174.8510  135.2270 N   0  0  0  0  0  2  0  0  0  0  0  0
  188.3310  177.5640  138.3360 C   0  0  0  0  0  0  0  0  0  0  0  0
  190.1660  176.0820  138.1650 C   0  0  2  0  0  3  0  0  0  0  0  0
  186.9740  177.5830  138.1300 C   0  0  0  0  0  0  0  0  0  0  0  0
  188.8290  178.6720  140.4660 C   0  0  0  0  0  2  0  0  0  0  0  0
  187.7720  175.8670  137.0380 C   0  0  0  0  0  0  0  0  0  0  0  0
  1 16  1  0  0  0  0
  2  8  2  0  0  0  0
  4 20  1  0  0  0  0
  5 17  1  0  0  0  0
  5 27  2  0  0  0  0
  6 23  1  0  0  0  0
  6  1  1  0  0  0  0
  8 10  1  0  0  0  0
  8  7  2  0  0  0  0
  8 14  1  0  0  0  0
  9 13  1  0  0  0  0
  9 18  2  0  0  0  0
 10 26  1  0  0  0  0
 12 25  1  0  0  0  0
 12 24  1  0  0  0  0
 14  9  1  0  0  0  0
 15 11  2  0  0  0  0
 15 19  1  0  0  0  0
 16 20  2  0  0  0  0
 16 28  1  0  0  0  0
 17  3  1  1  0  0  0
 21 22  1  0  0  0  0
 21  1  2  0  0  0  0
 22  4  2  0  0  0  0
 23 15  1  0  0  0  0
 24  5  1  0  0  0  0
 25 19  1  6  0  0  0
 25 17  1  0  0  0  0
 26 24  2  0  0  0  0
 26 13  1  0  0  0  0
 28 10  1  0  0  0  0
 28 12  2  0  0  0  0
M  END
>  <MODEL>
5

>  <REMARK>
 VINA RESULT:      -6.4      4.216      8.396
  Name = 
  0 active torsions:
  status: ('A' for Active; 'I' for Inactive)
                            x       y       z     vdW  Elec       q    Type
                         _______ _______ _______ _____ _____    ______ ____

>  <TORSDO>
F 0

$$$$
=
 OpenBabel11122411503D

 28 32  0  0  1  0  0  0  0  0999 V2000
  192.2820  175.2840  136.6100 C   0  0  0  0  0  0  0  0  0  0  0  0
  188.4660  175.9420  134.5980 O   0  0  0  0  0  0  0  0  0  0  0  0
  190.1460  175.9930  141.8890 O   0  0  0  0  0  1  0  0  0  0  0  0
  191.2480  172.7160  136.1680 C   0  0  0  0  0  3  0  0  0  0  0  0
  189.1680  177.6500  140.4850 C   0  0  0  0  0  0  0  0  0  0  0  0
  192.8910  176.6320  136.8260 C   0  0  0  0  0  2  0  0  0  0  0  0
  187.6810  174.1010  136.0480 O   0  0  0  0  0  0  0  0  0  0  0  0
  187.8260  175.5890  135.9110 S   0  0  0  0  0  0  0  0  0  0  0  0
  185.8920  177.0930  137.1620 C   0  0  0  0  0  0  0  0  0  0  0  0
  188.7540  176.2380  137.2140 N   0  0  0  0  0  0  0  0  0  0  0  0
  194.5180  176.5000  140.0940 O   0  0  0  0  0  0  0  0  0  0  0  0
  190.3150  176.7440  138.7150 C   0  0  0  0  0  0  0  0  0  0  0  0
  186.8360  177.4140  138.1950 N   0  0  0  0  0  2  0  0  0  0  0  0
  186.2650  176.3180  136.0170 N   0  0  0  0  0  2  0  0  0  0  0  0
  193.6680  176.8330  139.2280 C   0  0  0  0  0  0  0  0  0  0  0  0
  190.9420  174.9980  136.9580 C   0  0  0  0  0  0  0  0  0  0  0  0
  190.4410  177.0820  141.0650 C   0  0  2  0  0  3  0  0  0  0  0  0
  184.3640  177.6500  137.2810 S   0  0  0  0  0  0  0  0  0  0  0  0
  192.4310  177.5490  139.6570 C   0  0  0  0  0  2  0  0  0  0  0  0
  190.4450  173.7070  136.7370 C   0  0  0  0  0  3  0  0  0  0  0  0
  193.0780  174.2860  136.0330 C   0  0  0  0  0  3  0  0  0  0  0  0
  192.5650  173.0070  135.8120 C   0  0  0  0  0  3  0  0  0  0  0  0
  193.9180  176.5420  137.8530 N   0  0  0  0  0  2  0  0  0  0  0  0
  189.1780  177.3680  139.0730 C   0  0  0  0  0  0  0  0  0  0  0  0
  191.2710  176.5870  139.8510 C   0  0  2  0  0  3  0  0  0  0  0  0
  188.2190  177.0500  138.1430 C   0  0  0  0  0  0  0  0  0  0  0  0
  188.0800  177.9360  141.1900 C   0  0  0  0  0  2  0  0  0  0  0  0
  190.0510  176.0120  137.5640 C   0  0  0  0  0  0  0  0  0  0  0  0
  1  6  1  0  0  0  0
  1 16  1  0  0  0  0
  2  8  2  0  0  0  0
  4 20  1  0  0  0  0
  5 17  1  0  0  0  0
  5 27  2  0  0  0  0
  6 23  1  0  0  0  0
  8 14  1  0  0  0  0
  8  7  2  0  0  0  0
  8 10  1  0  0  0  0
  9 18  2  0  0  0  0
  9 13  1  0  0  0  0
 10 28  1  0  0  0  0
 10 26  1  0  0  0  0
 12 24  1  0  0  0  0
 12 25  1  0  0  0  0
 14  9  1  0  0  0  0
 15 19  1  0  0  0  0
 15 11  2  0  0  0  0
 16 28  1  0  0  0  0
 17  3  1  1  0  0  0
 20 16  2  0  0  0  0
 21  1  2  0  0  0  0
 22 21  1  0  0  0  0
 22  4  2  0  0  0  0
 23 15  1  0  0  0  0
 24  5  1  0  0  0  0
 25 19  1  6  0  0  0
 25 17  1  0  0  0  0
 26 13  1  0  0  0  0
 26 24  2  0  0  0  0
 28 12  2  0  0  0  0
M  END
>  <MODEL>
6

>  <REMARK>
 VINA RESULT:      -6.0      4.569      8.550
  Name = 
  0 active torsions:
  status: ('A' for Active; 'I' for Inactive)
                            x       y       z     vdW  Elec       q    Type
                         _______ _______ _______ _____ _____    ______ ____

>  <TORSDO>
F 0

$$$$
=
 OpenBabel11122411503D

 28 32  0  0  1  0  0  0  0  0999 V2000
  185.7540  177.8780  145.0160 C   0  0  0  0  0  0  0  0  0  0  0  0
  184.7270  177.3710  140.8050 O   0  0  0  0  0  0  0  0  0  0  0  0
  191.0760  179.7530  143.9690 O   0  0  0  0  0  1  0  0  0  0  0  0
  184.4170  180.2390  144.3100 C   0  0  0  0  0  3  0  0  0  0  0  0
  190.6380  177.9480  142.4760 C   0  0  0  0  0  0  0  0  0  0  0  0
  186.4320  176.6170  145.4460 C   0  0  0  0  0  2  0  0  0  0  0  0
  185.3620  179.7530  140.6320 O   0  0  0  0  0  0  0  0  0  0  0  0
  185.8430  178.3350  140.5190 S   0  0  0  0  0  0  0  0  0  0  0  0
  187.8530  177.9040  138.6910 C   0  0  0  0  0  0  0  0  0  0  0  0
  187.1630  178.0470  141.5940 N   0  0  0  0  0  0  0  0  0  0  0  0
  189.0970  177.6280  147.7320 O   0  0  0  0  0  0  0  0  0  0  0  0
  188.5170  177.8210  143.3440 C   0  0  0  0  0  0  0  0  0  0  0  0
  188.7910  177.8020  139.7730 N   0  0  0  0  0  2  0  0  0  0  0  0
  186.4510  178.0730  138.9240 N   0  0  0  0  0  2  0  0  0  0  0  0
  188.5710  177.1870  146.6760 C   0  0  0  0  0  0  0  0  0  0  0  0
  186.1240  178.5680  143.8380 C   0  0  0  0  0  0  0  0  0  0  0  0
  190.7530  178.3950  143.9140 C   0  0  2  0  0  3  0  0  0  0  0  0
  188.3950  177.7930  137.1570 S   0  0  0  0  0  0  0  0  0  0  0  0
  189.4200  176.9880  145.4660 C   0  0  0  0  0  2  0  0  0  0  0  0
  185.4500  179.7500  143.5070 C   0  0  0  0  0  3  0  0  0  0  0  0
  184.7120  178.3710  145.8120 C   0  0  0  0  0  3  0  0  0  0  0  0
  184.0460  179.5460  145.4620 C   0  0  0  0  0  3  0  0  0  0  0  0
  187.1810  176.8630  146.6700 N   0  0  0  0  0  2  0  0  0  0  0  0
  189.2500  177.6550  142.2280 C   0  0  0  0  0  0  0  0  0  0  0  0
  189.3450  178.1840  144.5320 C   0  0  2  0  0  3  0  0  0  0  0  0
  188.4090  177.7970  141.1520 C   0  0  0  0  0  0  0  0  0  0  0  0
  191.5350  178.2070  141.5320 C   0  0  0  0  0  2  0  0  0  0  0  0
  187.2110  178.0930  142.9540 C   0  0  0  0  0  0  0  0  0  0  0  0
  1  6  1  0  0  0  0
  1 21  1  0  0  0  0
  4 22  1  0  0  0  0
  5 17  1  0  0  0  0
  6 23  1  0  0  0  0
  8  7  2  0  0  0  0
  8  2  2  0  0  0  0
  8 10  1  0  0  0  0
  9 14  1  0  0  0  0
  9 13  1  0  0  0  0
 10 28  1  0  0  0  0
 12 25  1  0  0  0  0
 13 26  1  0  0  0  0
 14  8  1  0  0  0  0
 15 11  2  0  0  0  0
 16  1  2  0  0  0  0
 17  3  1  6  0  0  0
 17 25  1  0  0  0  0
 18  9  2  0  0  0  0
 19 15  1  0  0  0  0
 20 16  1  0  0  0  0
 20  4  2  0  0  0  0
 22 21  2  0  0  0  0
 23 15  1  0  0  0  0
 24  5  1  0  0  0  0
 24 12  1  0  0  0  0
 25 19  1  1  0  0  0
 26 10  1  0  0  0  0
 26 24  2  0  0  0  0
 27  5  2  0  0  0  0
 28 12  2  0  0  0  0
 28 16  1  0  0  0  0
M  END
>  <MODEL>
7

>  <REMARK>
 VINA RESULT:      -6.0      2.798      5.290
  Name = 
  0 active torsions:
  status: ('A' for Active; 'I' for Inactive)
                            x       y       z     vdW  Elec       q    Type
                         _______ _______ _______ _____ _____    ______ ____

>  <TORSDO>
F 0

$$$$
=
 OpenBabel11122411503D

 28 32  0  0  1  0  0  0  0  0999 V2000
  183.5100  178.0070  137.2950 C   0  0  0  0  0  0  0  0  0  0  0  0
  187.5580  179.5730  136.8440 O   0  0  0  0  0  0  0  0  0  0  0  0
  185.2130  172.6280  138.3440 O   0  0  0  0  0  1  0  0  0  0  0  0
  184.1590  179.0640  139.8100 C   0  0  0  0  0  3  0  0  0  0  0  0
  186.5730  173.4880  136.5880 C   0  0  0  0  0  0  0  0  0  0  0  0
  183.1060  177.4710  135.9590 C   0  0  0  0  0  2  0  0  0  0  0  0
  187.8960  178.6280  139.1020 O   0  0  0  0  0  0  0  0  0  0  0  0
  188.0040  178.3710  137.6260 S   0  0  0  0  0  0  0  0  0  0  0  0
  190.0230  176.6670  136.8610 C   0  0  0  0  0  0  0  0  0  0  0  0
  187.0700  176.9920  137.1740 N   0  0  0  0  0  0  0  0  0  0  0  0
  181.1720  174.4430  136.6230 O   0  0  0  0  0  0  0  0  0  0  0  0
  185.4720  175.4910  136.7940 C   0  0  0  0  0  0  0  0  0  0  0  0
  189.0480  175.6350  136.6490 N   0  0  0  0  0  2  0  0  0  0  0  0
  189.6440  177.9950  137.2400 N   0  0  0  0  0  2  0  0  0  0  0  0
  182.1440  175.1450  136.2390 C   0  0  0  0  0  0  0  0  0  0  0  0
  184.7480  177.6800  137.8960 C   0  0  0  0  0  0  0  0  0  0  0  0
  185.1760  173.1460  137.0470 C   0  0  2  0  0  3  0  0  0  0  0  0
  191.6020  176.3260  136.6360 S   0  0  0  0  0  0  0  0  0  0  0  0
  183.4310  174.4780  135.8890 C   0  0  0  0  0  2  0  0  0  0  0  0
  185.0500  178.2120  139.1560 C   0  0  0  0  0  3  0  0  0  0  0  0
  182.6240  178.8690  137.9550 C   0  0  0  0  0  3  0  0  0  0  0  0
  182.9460  179.3960  139.2060 C   0  0  0  0  0  3  0  0  0  0  0  0
  181.9840  176.5590  136.1220 N   0  0  0  0  0  2  0  0  0  0  0  0
  186.6550  174.9230  136.4950 C   0  0  0  0  0  0  0  0  0  0  0  0
  184.3990  174.4890  137.0600 C   0  0  2  0  0  3  0  0  0  0  0  0
  187.6360  175.8530  136.7340 C   0  0  0  0  0  0  0  0  0  0  0  0
  187.6200  172.6780  136.6900 C   0  0  0  0  0  2  0  0  0  0  0  0
  185.7260  176.7810  137.2450 C   0  0  0  0  0  0  0  0  0  0  0  0
  1 16  2  0  0  0  0
  1 21  1  0  0  0  0
  2  8  2  0  0  0  0
  5 27  2  0  0  0  0
  5 17  1  0  0  0  0
  6 23  1  0  0  0  0
  6  1  1  0  0  0  0
  8  7  2  0  0  0  0
  9 14  1  0  0  0  0
 10 28  1  0  0  0  0
 10  8  1  0  0  0  0
 12 25  1  0  0  0  0
 12 28  2  0  0  0  0
 13 26  1  0  0  0  0
 13  9  1  0  0  0  0
 14  8  1  0  0  0  0
 15 11  2  0  0  0  0
 16 20  1  0  0  0  0
 17 25  1  0  0  0  0
 17  3  1  1  0  0  0
 18  9  2  0  0  0  0
 19 15  1  0  0  0  0
 20  4  2  0  0  0  0
 21 22  2  0  0  0  0
 22  4  1  0  0  0  0
 23 15  1  0  0  0  0
 24  5  1  0  0  0  0
 24 26  2  0  0  0  0
 24 12  1  0  0  0  0
 25 19  1  6  0  0  0
 26 10  1  0  0  0  0
 28 16  1  0  0  0  0
M  END
>  <MODEL>
8

>  <REMARK>
 VINA RESULT:      -5.9      4.110      5.947
  Name = 
  0 active torsions:
  status: ('A' for Active; 'I' for Inactive)
                            x       y       z     vdW  Elec       q    Type
                         _______ _______ _______ _____ _____    ______ ____

>  <TORSDO>
F 0

$$$$
=
 OpenBabel11122411503D

 28 32  0  0  1  0  0  0  0  0999 V2000
  185.8850  177.4760  135.9970 C   0  0  0  0  0  0  0  0  0  0  0  0
  183.0900  179.1030  138.9270 O   0  0  0  0  0  0  0  0  0  0  0  0
  189.8310  176.0030  139.8950 O   0  0  0  0  0  1  0  0  0  0  0  0
  184.0920  175.3850  136.5230 C   0  0  0  0  0  3  0  0  0  0  0  0
  188.9770  178.1420  140.5030 C   0  0  0  0  0  0  0  0  0  0  0  0
  186.8360  178.5770  135.6550 C   0  0  0  0  0  2  0  0  0  0  0  0
  183.2710  176.8640  139.9570 O   0  0  0  0  0  0  0  0  0  0  0  0
  183.8160  178.2630  139.9390 S   0  0  0  0  0  0  0  0  0  0  0  0
  184.7820  179.1930  142.3410 C   0  0  0  0  0  0  0  0  0  0  0  0
  185.5080  178.2580  139.5980 N   0  0  0  0  0  0  0  0  0  0  0  0
  190.1100  177.0040  135.2580 O   0  0  0  0  0  0  0  0  0  0  0  0
  187.5370  178.0100  138.7210 C   0  0  0  0  0  0  0  0  0  0  0  0
  186.1200  179.0040  141.8560 N   0  0  0  0  0  2  0  0  0  0  0  0
  183.6400  178.9550  141.5110 N   0  0  0  0  0  2  0  0  0  0  0  0
  189.2120  177.7110  135.7860 C   0  0  0  0  0  0  0  0  0  0  0  0
  185.5760  177.1350  137.3350 C   0  0  0  0  0  0  0  0  0  0  0  0
  189.6910  177.3210  139.4560 C   0  0  2  0  0  3  0  0  0  0  0  0
  184.5570  179.7220  143.8670 S   0  0  0  0  0  0  0  0  0  0  0  0
  189.4190  178.2400  137.1660 C   0  0  0  0  0  2  0  0  0  0  0  0
  184.6840  176.0830  137.5770 C   0  0  0  0  0  3  0  0  0  0  0  0
  185.2810  176.7750  134.9460 C   0  0  0  0  0  3  0  0  0  0  0  0
  184.3880  175.7340  135.2050 C   0  0  0  0  0  3  0  0  0  0  0  0
  188.0310  178.0130  135.0440 N   0  0  0  0  0  2  0  0  0  0  0  0
  187.6810  178.4800  139.9730 C   0  0  0  0  0  0  0  0  0  0  0  0
  188.7700  177.3440  138.2070 C   0  0  2  0  0  3  0  0  0  0  0  0
  186.4260  178.6290  140.5090 C   0  0  0  0  0  0  0  0  0  0  0  0
  189.2920  178.1570  141.7930 C   0  0  0  0  0  2  0  0  0  0  0  0
  186.1770  177.8430  138.4870 C   0  0  0  0  0  0  0  0  0  0  0  0
  1 16  1  0  0  0  0
  2  8  2  0  0  0  0
  4 20  1  0  0  0  0
  5 27  2  0  0  0  0
  6  1  1  0  0  0  0
  8  7  2  0  0  0  0
  8 14  1  0  0  0  0
  9 18  2  0  0  0  0
 10  8  1  0  0  0  0
 10 26  1  0  0  0  0
 11 15  2  0  0  0  0
 12 24  1  0  0  0  0
 13  9  1  0  0  0  0
 14  9  1  0  0  0  0
 15 19  1  0  0  0  0
 16 20  2  0  0  0  0
 16 28  1  0  0  0  0
 17  3  1  1  0  0  0
 17  5  1  0  0  0  0
 21 22  1  0  0  0  0
 21  1  2  0  0  0  0
 22  4  2  0  0  0  0
 23  6  1  0  0  0  0
 23 15  1  0  0  0  0
 24  5  1  0  0  0  0
 24 26  2  0  0  0  0
 25 19  1  6  0  0  0
 25 12  1  0  0  0  0
 25 17  1  0  0  0  0
 26 13  1  0  0  0  0
 28 12  2  0  0  0  0
 28 10  1  0  0  0  0
M  END
>  <MODEL>
9

>  <REMARK>
 VINA RESULT:      -5.8      2.989      7.346
  Name = 
  0 active torsions:
  status: ('A' for Active; 'I' for Inactive)
                            x       y       z     vdW  Elec       q    Type
                         _______ _______ _______ _____ _____    ______ ____

>  <TORSDO>
F 0

$$$$
