=
 OpenBabel11122410463D

 32 37  0  0  1  0  0  0  0  0999 V2000
  184.2100  174.6550  136.4360 C   0  0  0  0  0  2  0  0  0  0  0  0
  188.8270  177.5320  136.9690 C   0  0  1  0  0  3  0  0  0  0  0  0
  193.1320  175.7430  135.6210 C   0  0  0  0  0  3  0  0  0  0  0  0
  193.5840  175.7290  136.9450 C   0  0  0  0  0  3  0  0  0  0  0  0
  188.4660  178.0860  139.5170 C   0  0  0  0  0  0  0  0  0  0  0  0
  188.7480  177.6440  140.8840 C   0  0  0  0  0  0  0  0  0  0  0  0
  186.7250  176.2520  137.2400 N   0  0  2  0  0  0  0  0  0  0  0  0
  188.6990  175.0790  136.3460 C   0  0  0  0  0  2  0  0  0  0  0  0
  189.8830  176.6990  142.5270 N   0  0  0  0  0  0  0  0  0  0  0  0
  186.6250  173.8460  136.6700 C   0  0  0  0  0  2  0  0  0  0  0  0
  191.7830  175.9770  135.3430 C   0  0  0  0  0  3  0  0  0  0  0  0
  189.4230  176.4020  136.0990 C   0  0  2  0  0  3  0  0  0  0  0  0
  190.8830  176.2080  136.3890 C   0  0  0  0  0  0  0  0  0  0  0  0
  190.3130  176.4390  138.8100 C   0  0  1  0  0  3  0  0  0  0  0  0
  188.7810  177.2710  143.0550 C   0  0  0  0  0  3  0  0  0  0  0  0
  184.5740  175.3600  137.5870 O   0  0  0  0  0  0  0  0  0  0  0  0
  187.1790  175.2190  136.2860 C   0  0  1  0  0  3  0  0  0  0  0  0
  188.0360  177.8820  142.0470 C   0  0  0  0  0  3  0  0  0  0  0  0
  185.2850  176.4610  137.0990 C   0  0  0  0  0  2  0  0  0  0  0  0
  185.2340  173.5710  136.0920 C   0  0  1  0  0  3  0  0  0  0  0  0
  192.6860  175.9520  137.9930 C   0  0  0  0  0  3  0  0  0  0  0  0
  191.3310  176.1970  137.7220 C   0  0  0  0  0  0  0  0  0  0  0  0
  190.9290  176.5740  140.2170 C   0  0  0  0  0  2  0  0  0  0  0  0
  187.3030  177.5360  136.8480 C   0  0  0  0  0  2  0  0  0  0  0  0
  187.5410  178.9110  139.2970 O   0  0  0  0  0  0  0  0  0  0  0  0
  190.9140  176.0000  143.2740 C   0  0  0  0  0  1  0  0  0  0  0  0
  189.4130  177.6440  138.4130 C   0  0  1  0  0  3  0  0  0  0  0  0
  189.8570  176.9160  141.2050 C   0  0  0  0  0  0  0  0  0  0  0  0
  184.7500  172.2840  136.5720 N   0  0  0  0  0  2  0  0  0  0  0  0
  183.9620  171.4070  135.7650 C   0  0  0  0  0  0  0  0  0  0  0  0
  183.6310  171.7330  134.5940 O   0  0  0  0  0  0  0  0  0  0  0  0
  183.5250  170.0980  136.3160 C   0  0  0  0  0  1  0  0  0  0  0  0
  1 16  1  0  0  0  0
  2 24  1  1  0  0  0
  2 27  1  0  0  0  0
  3  4  1  0  0  0  0
  4 21  2  0  0  0  0
  5  6  1  0  0  0  0
  6 28  2  0  0  0  0
  6 18  1  0  0  0  0
  7 24  1  6  0  0  0
  9 15  1  0  0  0  0
  9 26  1  0  0  0  0
 11  3  2  0  0  0  0
 11 13  1  0  0  0  0
 12  8  1  1  0  0  0
 12 13  1  0  0  0  0
 12  2  1  0  0  0  0
 13 22  2  0  0  0  0
 14 23  1  1  0  0  0
 17  8  1  1  0  0  0
 17 10  1  0  0  0  0
 17  7  1  0  0  0  0
 18 15  2  0  0  0  0
 19  7  1  0  0  0  0
 19 16  1  0  0  0  0
 20  1  1  0  0  0  0
 20 29  1  1  0  0  0
 20 10  1  0  0  0  0
 22 21  1  0  0  0  0
 22 14  1  0  0  0  0
 23 28  1  0  0  0  0
 25  5  2  0  0  0  0
 27 14  1  0  0  0  0
 27  5  1  1  0  0  0
 28  9  1  0  0  0  0
 30 32  1  0  0  0  0
 30 29  1  0  0  0  0
 31 30  2  0  0  0  0
M  END
>  <MODEL>
1

>  <REMARK>
 VINA RESULT:      -7.6      0.000      0.000
  Name = 
  1 active torsions:
  status: ('A' for Active; 'I' for Inactive)
    1  A    between atoms: C_20  and  N_29
                            x       y       z     vdW  Elec       q    Type
                         _______ _______ _______ _____ _____    ______ ____

>  <TORSDO>
F 1

$$$$
=
 OpenBabel11122410463D

 32 37  0  0  1  0  0  0  0  0999 V2000
  179.4870  180.9630  136.0340 C   0  0  0  0  0  2  0  0  0  0  0  0
  182.4950  177.5420  139.0560 C   0  0  1  0  0  3  0  0  0  0  0  0
  184.0070  178.7130  143.5160 C   0  0  0  0  0  3  0  0  0  0  0  0
  185.3430  178.7180  143.1030 C   0  0  0  0  0  3  0  0  0  0  0  0
  184.3200  177.1350  137.2040 C   0  0  0  0  0  0  0  0  0  0  0  0
  185.6110  177.5890  136.6830 C   0  0  0  0  0  0  0  0  0  0  0  0
  181.5400  179.0890  137.3760 N   0  0  2  0  0  0  0  0  0  0  0  0
  182.0250  179.9650  139.6270 C   0  0  0  0  0  2  0  0  0  0  0  0
  187.6480  178.4420  136.7470 N   0  0  0  0  0  0  0  0  0  0  0  0
  181.1280  181.4650  137.9320 C   0  0  0  0  0  2  0  0  0  0  0  0
  182.9810  178.6430  142.5700 C   0  0  0  0  0  3  0  0  0  0  0  0
  182.1900  178.5520  140.1840 C   0  0  2  0  0  3  0  0  0  0  0  0
  183.2890  178.5680  141.2080 C   0  0  0  0  0  0  0  0  0  0  0  0
  184.9040  178.5040  139.3030 C   0  0  1  0  0  3  0  0  0  0  0  0
  187.4040  178.0360  135.4830 C   0  0  0  0  0  3  0  0  0  0  0  0
  180.6010  180.2610  135.5630 O   0  0  0  0  0  0  0  0  0  0  0  0
  181.0800  180.0180  138.4280 C   0  0  1  0  0  3  0  0  0  0  0  0
  186.1240  177.4880  135.4010 C   0  0  0  0  0  3  0  0  0  0  0  0
  180.5730  179.0610  136.2800 C   0  0  0  0  0  2  0  0  0  0  0  0
  179.8580  181.8940  137.1920 C   0  0  1  0  0  3  0  0  0  0  0  0
  185.6550  178.6530  141.7420 C   0  0  0  0  0  3  0  0  0  0  0  0
  184.6310  178.5730  140.7860 C   0  0  0  0  0  0  0  0  0  0  0  0
  186.3970  178.3450  138.9540 C   0  0  0  0  0  2  0  0  0  0  0  0
  181.5030  177.7280  137.9060 C   0  0  0  0  0  2  0  0  0  0  0  0
  183.5640  176.4270  136.4880 O   0  0  0  0  0  0  0  0  0  0  0  0
  188.8880  179.0310  137.2210 C   0  0  0  0  0  1  0  0  0  0  0  0
  184.0020  177.4100  138.6640 C   0  0  1  0  0  3  0  0  0  0  0  0
  186.5540  178.1800  137.4740 C   0  0  0  0  0  0  0  0  0  0  0  0
  180.0200  183.2490  136.6850 N   0  0  0  0  0  2  0  0  0  0  0  0
  179.5550  184.3990  137.3950 C   0  0  0  0  0  0  0  0  0  0  0  0
  178.9530  184.2760  138.4950 O   0  0  0  0  0  0  0  0  0  0  0  0
  179.7780  185.7520  136.8250 C   0  0  0  0  0  1  0  0  0  0  0  0
  1 20  1  0  0  0  0
  2 24  1  6  0  0  0
  2 12  1  0  0  0  0
  4  3  1  0  0  0  0
  6  5  1  0  0  0  0
  6 28  2  0  0  0  0
  7 19  1  6  0  0  0
  7 24  1  0  0  0  0
  7 17  1  0  0  0  0
  9 26  1  0  0  0  0
  9 28  1  0  0  0  0
 11  3  2  0  0  0  0
 12  8  1  6  0  0  0
 12 13  1  0  0  0  0
 13 11  1  0  0  0  0
 14 23  1  1  0  0  0
 14 22  1  0  0  0  0
 15  9  1  0  0  0  0
 16  1  1  0  0  0  0
 16 19  1  0  0  0  0
 17 10  1  6  0  0  0
 17  8  1  0  0  0  0
 18 15  2  0  0  0  0
 18  6  1  0  0  0  0
 20 29  1  6  0  0  0
 20 10  1  0  0  0  0
 21  4  2  0  0  0  0
 22 13  2  0  0  0  0
 22 21  1  0  0  0  0
 25  5  2  0  0  0  0
 27  5  1  6  0  0  0
 27  2  1  0  0  0  0
 27 14  1  0  0  0  0
 28 23  1  0  0  0  0
 29 30  1  0  0  0  0
 30 31  2  0  0  0  0
 32 30  1  0  0  0  0
M  END
>  <MODEL>
2

>  <REMARK>
 VINA RESULT:      -7.5      5.386      8.772
  Name = 
  1 active torsions:
  status: ('A' for Active; 'I' for Inactive)
    1  A    between atoms: C_20  and  N_29
                            x       y       z     vdW  Elec       q    Type
                         _______ _______ _______ _____ _____    ______ ____

>  <TORSDO>
F 1

$$$$
=
 OpenBabel11122410463D

 32 37  0  0  1  0  0  0  0  0999 V2000
  183.3790  174.7730  136.5180 C   0  0  0  0  0  2  0  0  0  0  0  0
  187.5230  178.0720  137.8700 C   0  0  1  0  0  3  0  0  0  0  0  0
  192.1520  176.6740  137.4590 C   0  0  0  0  0  3  0  0  0  0  0  0
  192.3280  176.7180  138.8460 C   0  0  0  0  0  3  0  0  0  0  0  0
  186.6110  178.6210  140.2780 C   0  0  0  0  0  0  0  0  0  0  0  0
  186.6510  178.2220  141.6860 C   0  0  0  0  0  0  0  0  0  0  0  0
  185.5310  176.6060  137.7570 N   0  0  2  0  0  0  0  0  0  0  0  0
  187.7400  175.6100  137.3090 C   0  0  0  0  0  2  0  0  0  0  0  0
  187.5120  177.4070  143.5500 N   0  0  0  0  0  0  0  0  0  0  0  0
  185.7610  174.1940  137.2510 C   0  0  0  0  0  2  0  0  0  0  0  0
  190.8710  176.7780  136.9120 C   0  0  0  0  0  3  0  0  0  0  0  0
  188.3780  176.9920  137.1700 C   0  0  2  0  0  3  0  0  0  0  0  0
  189.7620  176.9380  137.7500 C   0  0  0  0  0  0  0  0  0  0  0  0
  188.7000  177.1430  140.0020 C   0  0  1  0  0  3  0  0  0  0  0  0
  186.2810  177.8810  143.8310 C   0  0  0  0  0  3  0  0  0  0  0  0
  183.4420  175.5220  137.6970 O   0  0  0  0  0  0  0  0  0  0  0  0
  186.2570  175.6080  136.9440 C   0  0  1  0  0  3  0  0  0  0  0  0
  185.7020  178.4080  142.6770 C   0  0  0  0  0  3  0  0  0  0  0  0
  184.1360  176.6790  137.3270 C   0  0  0  0  0  2  0  0  0  0  0  0
  184.5430  173.7840  136.4180 C   0  0  1  0  0  3  0  0  0  0  0  0
  191.2230  176.8680  139.6870 C   0  0  0  0  0  3  0  0  0  0  0  0
  189.9330  176.9840  139.1460 C   0  0  0  0  0  0  0  0  0  0  0  0
  189.0080  177.3520  141.4980 C   0  0  0  0  0  2  0  0  0  0  0  0
  186.0590  177.9330  137.4490 C   0  0  0  0  0  2  0  0  0  0  0  0
  185.6790  179.3530  139.8540 O   0  0  0  0  0  0  0  0  0  0  0  0
  188.4300  176.8150  144.5080 C   0  0  0  0  0  1  0  0  0  0  0  0
  187.7950  178.2550  139.3980 C   0  0  1  0  0  3  0  0  0  0  0  0
  187.7340  177.6050  142.2430 C   0  0  0  0  0  0  0  0  0  0  0  0
  184.0890  172.4640  136.8310 N   0  0  0  0  0  2  0  0  0  0  0  0
  183.7480  171.4380  135.8960 C   0  0  0  0  0  0  0  0  0  0  0  0
  183.8070  171.6520  134.6560 O   0  0  0  0  0  0  0  0  0  0  0  0
  183.3150  170.1070  136.3930 C   0  0  0  0  0  1  0  0  0  0  0  0
  1 16  1  0  0  0  0
  2 24  1  1  0  0  0
  2 27  1  0  0  0  0
  3  4  1  0  0  0  0
  4 21  2  0  0  0  0
  5  6  1  0  0  0  0
  6 28  2  0  0  0  0
  6 18  1  0  0  0  0
  7 19  1  6  0  0  0
  9 15  1  0  0  0  0
  9 26  1  0  0  0  0
 11  3  2  0  0  0  0
 11 13  1  0  0  0  0
 12  8  1  1  0  0  0
 12 13  1  0  0  0  0
 12  2  1  0  0  0  0
 13 22  2  0  0  0  0
 14 23  1  1  0  0  0
 17 10  1  1  0  0  0
 17  8  1  0  0  0  0
 17  7  1  0  0  0  0
 18 15  2  0  0  0  0
 19 16  1  0  0  0  0
 20  1  1  0  0  0  0
 20 29  1  1  0  0  0
 20 10  1  0  0  0  0
 22 21  1  0  0  0  0
 22 14  1  0  0  0  0
 23 28  1  0  0  0  0
 24  7  1  0  0  0  0
 25  5  2  0  0  0  0
 27 14  1  0  0  0  0
 27  5  1  1  0  0  0
 28  9  1  0  0  0  0
 30 32  1  0  0  0  0
 30 29  1  0  0  0  0
 31 30  2  0  0  0  0
M  END
>  <MODEL>
3

>  <REMARK>
 VINA RESULT:      -7.5      1.329      1.864
  Name = 
  1 active torsions:
  status: ('A' for Active; 'I' for Inactive)
    1  A    between atoms: C_20  and  N_29
                            x       y       z     vdW  Elec       q    Type
                         _______ _______ _______ _____ _____    ______ ____

>  <TORSDO>
F 1

$$$$
=
 OpenBabel11122410463D

 32 37  0  0  1  0  0  0  0  0999 V2000
  191.3180  177.1280  140.0340 C   0  0  0  0  0  2  0  0  0  0  0  0
  186.8540  177.9410  136.9850 C   0  0  1  0  0  3  0  0  0  0  0  0
  182.7050  179.5750  138.8980 C   0  0  0  0  0  3  0  0  0  0  0  0
  182.0570  178.3670  138.6210 C   0  0  0  0  0  3  0  0  0  0  0  0
  186.8560  175.5350  135.9180 C   0  0  0  0  0  0  0  0  0  0  0  0
  186.3440  174.1710  136.0560 C   0  0  0  0  0  0  0  0  0  0  0  0
  188.8100  177.0810  138.2360 N   0  0  2  0  0  0  0  0  0  0  0  0
  186.9280  178.0250  139.5160 C   0  0  0  0  0  2  0  0  0  0  0  0
  184.9180  172.5750  136.6030 N   0  0  0  0  0  0  0  0  0  0  0  0
  188.8500  177.1280  140.7100 C   0  0  0  0  0  2  0  0  0  0  0  0
  184.0920  179.6730  138.7650 C   0  0  0  0  0  3  0  0  0  0  0  0
  186.3320  178.6490  138.2550 C   0  0  2  0  0  3  0  0  0  0  0  0
  184.8350  178.5650  138.3430 C   0  0  0  0  0  0  0  0  0  0  0  0
  185.0430  176.1820  137.6260 C   0  0  1  0  0  3  0  0  0  0  0  0
  185.9590  172.0030  135.9640 C   0  0  0  0  0  3  0  0  0  0  0  0
  190.8250  176.2180  139.0930 O   0  0  0  0  0  0  0  0  0  0  0  0
  188.4450  177.8660  139.4330 C   0  0  1  0  0  3  0  0  0  0  0  0
  186.8840  172.9810  135.5990 C   0  0  0  0  0  3  0  0  0  0  0  0
  190.2650  177.0270  138.1010 C   0  0  0  0  0  2  0  0  0  0  0  0
  190.2950  177.4050  141.1380 C   0  0  1  0  0  3  0  0  0  0  0  0
  182.7970  177.2550  138.2090 C   0  0  0  0  0  3  0  0  0  0  0  0
  184.1890  177.3470  138.0630 C   0  0  0  0  0  0  0  0  0  0  0  0
  184.2290  174.9500  137.1820 C   0  0  0  0  0  2  0  0  0  0  0  0
  188.3770  177.8140  137.0480 C   0  0  0  0  0  2  0  0  0  0  0  0
  187.8520  175.7650  135.1830 O   0  0  0  0  0  0  0  0  0  0  0  0
  183.7450  171.8780  137.1020 C   0  0  0  0  0  1  0  0  0  0  0  0
  186.0640  176.6640  136.5560 C   0  0  1  0  0  3  0  0  0  0  0  0
  185.1570  173.8920  136.6700 C   0  0  0  0  0  0  0  0  0  0  0  0
  190.6210  176.6030  142.3080 N   0  0  0  0  0  2  0  0  0  0  0  0
  191.3060  177.1370  143.4430 C   0  0  0  0  0  0  0  0  0  0  0  0
  191.6810  178.3400  143.4610 O   0  0  0  0  0  0  0  0  0  0  0  0
  191.5840  176.2620  144.6110 C   0  0  0  0  0  1  0  0  0  0  0  0
  1 20  1  0  0  0  0
  2 24  1  1  0  0  0
  2 12  1  0  0  0  0
  4  3  2  0  0  0  0
  5  6  1  0  0  0  0
  6 28  2  0  0  0  0
  7 24  1  6  0  0  0
  7 17  1  0  0  0  0
  9 28  1  0  0  0  0
  9 26  1  0  0  0  0
 10 20  1  0  0  0  0
 11  3  1  0  0  0  0
 12 13  1  0  0  0  0
 12  8  1  1  0  0  0
 13 11  2  0  0  0  0
 14 23  1  6  0  0  0
 14 22  1  0  0  0  0
 15  9  1  0  0  0  0
 16  1  1  0  0  0  0
 17  8  1  1  0  0  0
 17 10  1  0  0  0  0
 18 15  2  0  0  0  0
 18  6  1  0  0  0  0
 19  7  1  0  0  0  0
 19 16  1  0  0  0  0
 20 29  1  1  0  0  0
 21  4  1  0  0  0  0
 22 21  2  0  0  0  0
 22 13  1  0  0  0  0
 25  5  2  0  0  0  0
 27  5  1  1  0  0  0
 27  2  1  0  0  0  0
 27 14  1  0  0  0  0
 28 23  1  0  0  0  0
 29 30  1  0  0  0  0
 30 31  2  0  0  0  0
 30 32  1  0  0  0  0
M  END
>  <MODEL>
4

>  <REMARK>
 VINA RESULT:      -7.0      2.287      7.977
  Name = 
  1 active torsions:
  status: ('A' for Active; 'I' for Inactive)
    1  A    between atoms: C_20  and  N_29
                            x       y       z     vdW  Elec       q    Type
                         _______ _______ _______ _____ _____    ______ ____

>  <TORSDO>
F 1

$$$$
=
 OpenBabel11122410463D

 32 37  0  0  1  0  0  0  0  0999 V2000
  190.4640  177.6680  141.3910 C   0  0  0  0  0  2  0  0  0  0  0  0
  186.5560  178.2550  137.6140 C   0  0  1  0  0  3  0  0  0  0  0  0
  182.0560  179.6510  138.7760 C   0  0  0  0  0  3  0  0  0  0  0  0
  181.5320  178.4110  138.3970 C   0  0  0  0  0  3  0  0  0  0  0  0
  186.8720  175.8580  136.5740 C   0  0  0  0  0  0  0  0  0  0  0  0
  186.4180  174.4660  136.6270 C   0  0  0  0  0  0  0  0  0  0  0  0
  188.3100  177.4950  139.1870 N   0  0  2  0  0  0  0  0  0  0  0  0
  186.1870  178.3290  140.1200 C   0  0  0  0  0  2  0  0  0  0  0  0
  185.0070  172.7930  136.9270 N   0  0  0  0  0  0  0  0  0  0  0  0
  187.9200  177.5310  141.6310 C   0  0  0  0  0  2  0  0  0  0  0  0
  183.4380  179.8250  138.8840 C   0  0  0  0  0  3  0  0  0  0  0  0
  185.7840  178.9260  138.7720 C   0  0  2  0  0  3  0  0  0  0  0  0
  184.3010  178.7610  138.6020 C   0  0  0  0  0  0  0  0  0  0  0  0
  184.7590  176.3960  137.9400 C   0  0  1  0  0  3  0  0  0  0  0  0
  186.1730  172.2820  136.4790 C   0  0  0  0  0  3  0  0  0  0  0  0
  190.1910  176.7370  140.3830 O   0  0  0  0  0  0  0  0  0  0  0  0
  187.7020  178.2530  140.3000 C   0  0  1  0  0  3  0  0  0  0  0  0
  187.0930  173.3100  136.2750 C   0  0  0  0  0  3  0  0  0  0  0  0
  189.7670  177.5210  139.3050 C   0  0  0  0  0  2  0  0  0  0  0  0
  189.2520  177.8840  142.3010 C   0  0  1  0  0  3  0  0  0  0  0  0
  182.3910  177.3430  138.1230 C   0  0  0  0  0  3  0  0  0  0  0  0
  183.7810  177.5110  138.2190 C   0  0  0  0  0  0  0  0  0  0  0  0
  184.1020  175.1240  137.3680 C   0  0  0  0  0  2  0  0  0  0  0  0
  188.0500  178.2090  137.9390 C   0  0  0  0  0  2  0  0  0  0  0  0
  187.9660  176.1450  136.0210 O   0  0  0  0  0  0  0  0  0  0  0  0
  183.8060  172.0310  137.2180 C   0  0  0  0  0  1  0  0  0  0  0  0
  185.9210  176.9380  137.0610 C   0  0  1  0  0  3  0  0  0  0  0  0
  185.1600  174.1210  137.0280 C   0  0  0  0  0  0  0  0  0  0  0  0
  189.4150  177.0940  143.5130 N   0  0  0  0  0  2  0  0  0  0  0  0
  190.0330  177.6120  144.6930 C   0  0  0  0  0  0  0  0  0  0  0  0
  190.4890  178.7850  144.7190 O   0  0  0  0  0  0  0  0  0  0  0  0
  190.1420  176.7530  145.9000 C   0  0  0  0  0  1  0  0  0  0  0  0
  1 20  1  0  0  0  0
  2 24  1  1  0  0  0
  2 12  1  0  0  0  0
  3 11  1  0  0  0  0
  4  3  2  0  0  0  0
  5  6  1  0  0  0  0
  6 28  2  0  0  0  0
  7 24  1  6  0  0  0
  7 19  1  0  0  0  0
  7 17  1  0  0  0  0
  9 28  1  0  0  0  0
  9 26  1  0  0  0  0
 10 20  1  0  0  0  0
 12  8  1  1  0  0  0
 13 12  1  0  0  0  0
 13 11  2  0  0  0  0
 14 23  1  6  0  0  0
 14 22  1  0  0  0  0
 15  9  1  0  0  0  0
 16  1  1  0  0  0  0
 17  8  1  6  0  0  0
 17 10  1  0  0  0  0
 18 15  2  0  0  0  0
 18  6  1  0  0  0  0
 19 16  1  0  0  0  0
 20 29  1  1  0  0  0
 21 22  2  0  0  0  0
 21  4  1  0  0  0  0
 22 13  1  0  0  0  0
 25  5  2  0  0  0  0
 27  5  1  1  0  0  0
 27  2  1  0  0  0  0
 27 14  1  0  0  0  0
 28 23  1  0  0  0  0
 29 30  1  0  0  0  0
 30 31  2  0  0  0  0
 30 32  1  0  0  0  0
M  END
>  <MODEL>
5

>  <REMARK>
 VINA RESULT:      -6.9      2.642      8.146
  Name = 
  1 active torsions:
  status: ('A' for Active; 'I' for Inactive)
    1  A    between atoms: C_20  and  N_29
                            x       y       z     vdW  Elec       q    Type
                         _______ _______ _______ _____ _____    ______ ____

>  <TORSDO>
F 1

$$$$
=
 OpenBabel11122410463D

 32 37  0  0  1  0  0  0  0  0999 V2000
  180.6950  176.3010  139.1310 C   0  0  0  0  0  2  0  0  0  0  0  0
  185.3120  179.2290  139.1330 C   0  0  1  0  0  3  0  0  0  0  0  0
  188.9690  178.2500  136.0960 C   0  0  0  0  0  3  0  0  0  0  0  0
  189.8010  177.8780  137.1570 C   0  0  0  0  0  3  0  0  0  0  0  0
  185.7520  178.9720  141.7150 C   0  0  0  0  0  0  0  0  0  0  0  0
  186.4270  178.1660  142.7340 C   0  0  0  0  0  0  0  0  0  0  0  0
  183.3670  177.7720  139.6060 N   0  0  2  0  0  0  0  0  0  0  0  0
  184.9530  177.0690  137.8560 C   0  0  0  0  0  2  0  0  0  0  0  0
  187.9880  176.8640  143.5980 N   0  0  0  0  0  0  0  0  0  0  0  0
  183.0520  175.6430  138.3830 C   0  0  0  0  0  2  0  0  0  0  0  0
  187.6040  178.4540  136.3140 C   0  0  0  0  0  3  0  0  0  0  0  0
  185.5930  178.4570  137.8240 C   0  0  2  0  0  3  0  0  0  0  0  0
  187.0680  178.2960  137.5960 C   0  0  0  0  0  0  0  0  0  0  0  0
  187.2650  177.7530  140.0270 C   0  0  1  0  0  3  0  0  0  0  0  0
  187.1100  177.1690  144.5760 C   0  0  0  0  0  3  0  0  0  0  0  0
  181.4060  176.6580  140.2820 O   0  0  0  0  0  0  0  0  0  0  0  0
  183.4900  177.1060  138.2930 C   0  0  1  0  0  3  0  0  0  0  0  0
  186.1060  177.9940  144.0700 C   0  0  0  0  0  3  0  0  0  0  0  0
  181.9560  177.9040  139.9670 C   0  0  0  0  0  2  0  0  0  0  0  0
  181.5450  175.4490  138.1860 C   0  0  1  0  0  3  0  0  0  0  0  0
  189.2680  177.7110  138.4390 C   0  0  0  0  0  3  0  0  0  0  0  0
  187.9000  177.9230  138.6680 C   0  0  0  0  0  0  0  0  0  0  0  0
  188.2820  177.5100  141.1600 C   0  0  0  0  0  2  0  0  0  0  0  0
  183.8230  179.1540  139.4730 C   0  0  0  0  0  2  0  0  0  0  0  0
  184.8200  179.7530  142.0410 O   0  0  0  0  0  0  0  0  0  0  0  0
  189.1840  176.0540  143.7570 C   0  0  0  0  0  1  0  0  0  0  0  0
  186.3110  178.9500  140.3020 C   0  0  1  0  0  3  0  0  0  0  0  0
  187.5670  177.4610  142.4750 C   0  0  0  0  0  0  0  0  0  0  0  0
  181.2050  174.0450  138.3700 N   0  0  0  0  0  2  0  0  0  0  0  0
  180.6980  173.2300  137.3110 C   0  0  0  0  0  0  0  0  0  0  0  0
  180.5000  173.7130  136.1650 O   0  0  0  0  0  0  0  0  0  0  0  0
  180.3960  171.7980  137.5680 C   0  0  0  0  0  1  0  0  0  0  0  0
  1 16  1  0  0  0  0
  2 24  1  1  0  0  0
  2 27  1  0  0  0  0
  3 11  2  0  0  0  0
  3  4  1  0  0  0  0
  4 21  2  0  0  0  0
  5 25  2  0  0  0  0
  5  6  1  0  0  0  0
  6 18  1  0  0  0  0
  7 24  1  6  0  0  0
  7 19  1  0  0  0  0
  9 26  1  0  0  0  0
  9 15  1  0  0  0  0
 11 13  1  0  0  0  0
 12  8  1  1  0  0  0
 12  2  1  0  0  0  0
 13 12  1  0  0  0  0
 13 22  2  0  0  0  0
 14 27  1  0  0  0  0
 14 23  1  1  0  0  0
 17  8  1  1  0  0  0
 17 10  1  0  0  0  0
 17  7  1  0  0  0  0
 18 15  2  0  0  0  0
 19 16  1  0  0  0  0
 20 29  1  1  0  0  0
 20 10  1  0  0  0  0
 20  1  1  0  0  0  0
 21 22  1  0  0  0  0
 22 14  1  0  0  0  0
 23 28  1  0  0  0  0
 27  5  1  1  0  0  0
 28  6  2  0  0  0  0
 28  9  1  0  0  0  0
 30 32  1  0  0  0  0
 30 29  1  0  0  0  0
 31 30  2  0  0  0  0
M  END
>  <MODEL>
6

>  <REMARK>
 VINA RESULT:      -6.4      2.941      4.005
  Name = 
  1 active torsions:
  status: ('A' for Active; 'I' for Inactive)
    1  A    between atoms: C_20  and  N_29
                            x       y       z     vdW  Elec       q    Type
                         _______ _______ _______ _____ _____    ______ ____

>  <TORSDO>
F 1

$$$$
=
 OpenBabel11122410463D

 32 37  0  0  1  0  0  0  0  0999 V2000
  188.8740  178.4490  142.1420 C   0  0  0  0  0  2  0  0  0  0  0  0
  184.2400  178.7840  139.2610 C   0  0  1  0  0  3  0  0  0  0  0  0
  179.8820  178.4630  141.3700 C   0  0  0  0  0  3  0  0  0  0  0  0
  179.6100  177.2590  140.7120 C   0  0  0  0  0  3  0  0  0  0  0  0
  184.9080  176.9240  137.5230 C   0  0  0  0  0  0  0  0  0  0  0  0
  184.8310  175.4930  137.2200 C   0  0  0  0  0  0  0  0  0  0  0  0
  186.4160  178.2060  140.2910 N   0  0  2  0  0  0  0  0  0  0  0  0
  184.3980  178.1210  141.7020 C   0  0  0  0  0  2  0  0  0  0  0  0
  183.9670  173.4600  137.1930 N   0  0  0  0  0  0  0  0  0  0  0  0
  186.5500  177.5160  142.6640 C   0  0  0  0  0  2  0  0  0  0  0  0
  181.1700  179.0020  141.3400 C   0  0  0  0  0  3  0  0  0  0  0  0
  183.5880  178.8890  140.6570 C   0  0  2  0  0  3  0  0  0  0  0  0
  182.1890  178.3440  140.6430 C   0  0  0  0  0  0  0  0  0  0  0  0
  183.0620  176.4600  139.2550 C   0  0  1  0  0  3  0  0  0  0  0  0
  185.1010  173.4420  136.4630 C   0  0  0  0  0  3  0  0  0  0  0  0
  188.6330  177.7610  140.9480 O   0  0  0  0  0  0  0  0  0  0  0  0
  185.8880  178.4500  141.6490 C   0  0  1  0  0  3  0  0  0  0  0  0
  185.6780  174.7120  136.4540 C   0  0  0  0  0  3  0  0  0  0  0  0
  187.8140  178.6280  140.2180 C   0  0  0  0  0  2  0  0  0  0  0  0
  187.8650  178.0660  143.2260 C   0  0  1  0  0  3  0  0  0  0  0  0
  180.6270  176.5940  140.0220 C   0  0  0  0  0  3  0  0  0  0  0  0
  181.9220  177.1330  139.9790 C   0  0  0  0  0  0  0  0  0  0  0  0
  182.6310  175.2360  138.4230 C   0  0  0  0  0  2  0  0  0  0  0  0
  185.7340  179.1000  139.3580 C   0  0  0  0  0  2  0  0  0  0  0  0
  185.7580  177.6480  136.9410 O   0  0  0  0  0  0  0  0  0  0  0  0
  183.0770  172.3310  137.4010 C   0  0  0  0  0  1  0  0  0  0  0  0
  183.8460  177.5210  138.4300 C   0  0  1  0  0  3  0  0  0  0  0  0
  183.8070  174.7050  137.6630 C   0  0  0  0  0  0  0  0  0  0  0  0
  188.4660  177.0840  144.1160 N   0  0  0  0  0  2  0  0  0  0  0  0
  189.4330  177.4320  145.1090 C   0  0  0  0  0  0  0  0  0  0  0  0
  189.8260  178.6220  145.2350 O   0  0  0  0  0  0  0  0  0  0  0  0
  189.9850  176.3770  145.9970 C   0  0  0  0  0  1  0  0  0  0  0  0
  1 20  1  0  0  0  0
  2 24  1  1  0  0  0
  2 12  1  0  0  0  0
  4  3  2  0  0  0  0
  6  5  1  0  0  0  0
  6 28  2  0  0  0  0
  7 24  1  6  0  0  0
  7 17  1  0  0  0  0
  9 26  1  0  0  0  0
  9 28  1  0  0  0  0
 10 20  1  0  0  0  0
 11  3  1  0  0  0  0
 12  8  1  1  0  0  0
 13 12  1  0  0  0  0
 13 11  2  0  0  0  0
 14 23  1  6  0  0  0
 14 22  1  0  0  0  0
 15  9  1  0  0  0  0
 16  1  1  0  0  0  0
 17  8  1  6  0  0  0
 17 10  1  0  0  0  0
 18 15  2  0  0  0  0
 18  6  1  0  0  0  0
 19  7  1  0  0  0  0
 19 16  1  0  0  0  0
 20 29  1  1  0  0  0
 21  4  1  0  0  0  0
 22 21  2  0  0  0  0
 22 13  1  0  0  0  0
 25  5  2  0  0  0  0
 27  5  1  1  0  0  0
 27 14  1  0  0  0  0
 27  2  1  0  0  0  0
 28 23  1  0  0  0  0
 29 30  1  0  0  0  0
 30 31  2  0  0  0  0
 30 32  1  0  0  0  0
M  END
>  <MODEL>
7

>  <REMARK>
 VINA RESULT:      -6.2      3.662      8.989
  Name = 
  1 active torsions:
  status: ('A' for Active; 'I' for Inactive)
    1  A    between atoms: C_20  and  N_29
                            x       y       z     vdW  Elec       q    Type
                         _______ _______ _______ _____ _____    ______ ____

>  <TORSDO>
F 1

$$$$
=
 OpenBabel11122410463D

 32 37  0  0  1  0  0  0  0  0999 V2000
  179.6800  181.6540  139.6050 C   0  0  0  0  0  2  0  0  0  0  0  0
  183.2180  177.4970  139.9100 C   0  0  1  0  0  3  0  0  0  0  0  0
  187.5390  177.6410  137.7070 C   0  0  0  0  0  3  0  0  0  0  0  0
  187.1750  176.6050  136.8400 C   0  0  0  0  0  3  0  0  0  0  0  0
  181.4970  175.6650  139.1280 C   0  0  0  0  0  0  0  0  0  0  0  0
  180.9660  174.9470  137.9680 C   0  0  0  0  0  0  0  0  0  0  0  0
  181.3210  179.0400  139.5240 N   0  0  2  0  0  0  0  0  0  0  0  0
  183.4560  179.5080  138.3860 C   0  0  0  0  0  2  0  0  0  0  0  0
  180.9890  174.0020  135.9710 N   0  0  0  0  0  0  0  0  0  0  0  0
  181.5530  180.9760  137.9990 C   0  0  0  0  0  2  0  0  0  0  0  0
  186.5760  178.2530  138.5130 C   0  0  0  0  0  3  0  0  0  0  0  0
  184.1960  178.5150  139.2830 C   0  0  2  0  0  3  0  0  0  0  0  0
  185.2450  177.8230  138.4620 C   0  0  0  0  0  0  0  0  0  0  0  0
  183.4210  176.3680  137.5700 C   0  0  1  0  0  3  0  0  0  0  0  0
  179.7810  173.7750  136.5270 C   0  0  0  0  0  3  0  0  0  0  0  0
  179.3410  180.3100  139.4160 O   0  0  0  0  0  0  0  0  0  0  0  0
  182.2290  180.1120  139.0660 C   0  0  1  0  0  3  0  0  0  0  0  0
  179.7260  174.3560  137.7930 C   0  0  0  0  0  3  0  0  0  0  0  0
  180.2050  179.6190  140.2710 C   0  0  0  0  0  2  0  0  0  0  0  0
  180.7200  182.1200  138.5840 C   0  0  1  0  0  3  0  0  0  0  0  0
  185.8450  176.1790  136.7800 C   0  0  0  0  0  3  0  0  0  0  0  0
  184.8730  176.7810  137.5930 C   0  0  0  0  0  0  0  0  0  0  0  0
  183.1470  175.1140  136.7170 C   0  0  0  0  0  2  0  0  0  0  0  0
  182.0210  178.2290  140.5180 C   0  0  0  0  0  2  0  0  0  0  0  0
  180.8530  175.6820  140.2100 O   0  0  0  0  0  0  0  0  0  0  0  0
  181.4260  173.5220  134.6710 C   0  0  0  0  0  1  0  0  0  0  0  0
  182.8970  176.2460  139.0300 C   0  0  1  0  0  3  0  0  0  0  0  0
  181.7070  174.7250  136.8420 C   0  0  0  0  0  0  0  0  0  0  0  0
  180.0490  182.8370  137.5090 N   0  0  0  0  0  2  0  0  0  0  0  0
  180.6340  183.9610  136.8490 C   0  0  0  0  0  0  0  0  0  0  0  0
  181.7640  184.3960  137.1980 O   0  0  0  0  0  0  0  0  0  0  0  0
  179.8990  184.6270  135.7430 C   0  0  0  0  0  1  0  0  0  0  0  0
  2 24  1  6  0  0  0
  3 11  1  0  0  0  0
  4  3  2  0  0  0  0
  5 25  2  0  0  0  0
  6  5  1  0  0  0  0
  7 19  1  1  0  0  0
  7 24  1  0  0  0  0
  8 17  1  0  0  0  0
  9 15  1  0  0  0  0
  9 28  1  0  0  0  0
 10 20  1  0  0  0  0
 12  8  1  6  0  0  0
 12  2  1  0  0  0  0
 13 11  2  0  0  0  0
 13 12  1  0  0  0  0
 14 23  1  1  0  0  0
 14 22  1  0  0  0  0
 14 27  1  0  0  0  0
 15 18  2  0  0  0  0
 16  1  1  0  0  0  0
 16 19  1  0  0  0  0
 17 10  1  6  0  0  0
 17  7  1  0  0  0  0
 18  6  1  0  0  0  0
 20 29  1  6  0  0  0
 20  1  1  0  0  0  0
 21  4  1  0  0  0  0
 21 22  2  0  0  0  0
 22 13  1  0  0  0  0
 23 28  1  0  0  0  0
 26  9  1  0  0  0  0
 27  5  1  6  0  0  0
 27  2  1  0  0  0  0
 28  6  2  0  0  0  0
 30 31  2  0  0  0  0
 30 29  1  0  0  0  0
 32 30  1  0  0  0  0
M  END
>  <MODEL>
8

>  <REMARK>
 VINA RESULT:      -6.1      5.220      8.953
  Name = 
  1 active torsions:
  status: ('A' for Active; 'I' for Inactive)
    1  A    between atoms: C_20  and  N_29
                            x       y       z     vdW  Elec       q    Type
                         _______ _______ _______ _____ _____    ______ ____

>  <TORSDO>
F 1

$$$$
=
 OpenBabel11122410463D

 32 37  0  0  1  0  0  0  0  0999 V2000
  191.9270  177.5320  141.4950 C   0  0  0  0  0  2  0  0  0  0  0  0
  188.3780  177.9240  137.3560 C   0  0  1  0  0  3  0  0  0  0  0  0
  183.5940  178.2520  138.1030 C   0  0  0  0  0  3  0  0  0  0  0  0
  183.3770  177.0060  137.5060 C   0  0  0  0  0  3  0  0  0  0  0  0
  189.2820  175.8140  136.0690 C   0  0  0  0  0  0  0  0  0  0  0  0
  189.1210  174.3700  135.8880 C   0  0  0  0  0  0  0  0  0  0  0  0
  190.0850  177.2850  139.0310 N   0  0  2  0  0  0  0  0  0  0  0  0
  187.7540  177.5520  139.7840 C   0  0  0  0  0  2  0  0  0  0  0  0
  188.0620  172.4340  135.7920 N   0  0  0  0  0  0  0  0  0  0  0  0
  189.4550  176.8810  141.3900 C   0  0  0  0  0  2  0  0  0  0  0  0
  184.8930  178.6670  138.4070 C   0  0  0  0  0  3  0  0  0  0  0  0
  187.3730  178.2570  138.4810 C   0  0  2  0  0  3  0  0  0  0  0  0
  185.9810  177.8410  138.1040 C   0  0  0  0  0  0  0  0  0  0  0  0
  186.9780  175.7310  137.2130 C   0  0  1  0  0  3  0  0  0  0  0  0
  189.3460  172.2250  135.4350 C   0  0  0  0  0  3  0  0  0  0  0  0
  191.9530  176.7280  140.3510 O   0  0  0  0  0  0  0  0  0  0  0  0
  189.2270  177.7390  140.1440 C   0  0  1  0  0  3  0  0  0  0  0  0
  190.0510  173.4280  135.4810 C   0  0  0  0  0  3  0  0  0  0  0  0
  191.4860  177.5690  139.3360 C   0  0  0  0  0  2  0  0  0  0  0  0
  190.6120  177.3760  142.2630 C   0  0  1  0  0  3  0  0  0  0  0  0
  184.4600  176.1740  137.2110 C   0  0  0  0  0  3  0  0  0  0  0  0
  185.7690  176.5870  137.5030 C   0  0  0  0  0  0  0  0  0  0  0  0
  186.6570  174.4580  136.4050 C   0  0  0  0  0  2  0  0  0  0  0  0
  189.8090  178.1150  137.8600 C   0  0  0  0  0  2  0  0  0  0  0  0
  190.3430  176.3830  135.7010 O   0  0  0  0  0  0  0  0  0  0  0  0
  187.0200  171.4220  135.8290 C   0  0  0  0  0  1  0  0  0  0  0  0
  188.0860  176.6090  136.5640 C   0  0  1  0  0  3  0  0  0  0  0  0
  187.9270  173.7360  136.0780 C   0  0  0  0  0  0  0  0  0  0  0  0
  190.8130  176.4590  143.3760 N   0  0  0  0  0  2  0  0  0  0  0  0
  191.3700  176.8740  144.6250 C   0  0  0  0  0  0  0  0  0  0  0  0
  191.7370  178.0650  144.8020 O   0  0  0  0  0  0  0  0  0  0  0  0
  191.5220  175.8860  145.7240 C   0  0  0  0  0  1  0  0  0  0  0  0
  1 20  1  0  0  0  0
  2 24  1  1  0  0  0
  2 12  1  0  0  0  0
  3 11  1  0  0  0  0
  4  3  2  0  0  0  0
  6  5  1  0  0  0  0
  6 28  2  0  0  0  0
  7 24  1  6  0  0  0
  7 19  1  0  0  0  0
  7 17  1  0  0  0  0
  9 26  1  0  0  0  0
  9 28  1  0  0  0  0
 10 20  1  0  0  0  0
 12  8  1  1  0  0  0
 13 11  2  0  0  0  0
 13 12  1  0  0  0  0
 14 23  1  6  0  0  0
 14 22  1  0  0  0  0
 15 18  2  0  0  0  0
 15  9  1  0  0  0  0
 16  1  1  0  0  0  0
 17  8  1  6  0  0  0
 17 10  1  0  0  0  0
 18  6  1  0  0  0  0
 19 16  1  0  0  0  0
 20 29  1  1  0  0  0
 21 22  2  0  0  0  0
 21  4  1  0  0  0  0
 22 13  1  0  0  0  0
 25  5  2  0  0  0  0
 27  5  1  1  0  0  0
 27 14  1  0  0  0  0
 27  2  1  0  0  0  0
 28 23  1  0  0  0  0
 29 30  1  0  0  0  0
 30 31  2  0  0  0  0
 30 32  1  0  0  0  0
M  END
>  <MODEL>
9

>  <REMARK>
 VINA RESULT:      -6.0      2.850      7.815
  Name = 
  1 active torsions:
  status: ('A' for Active; 'I' for Inactive)
    1  A    between atoms: C_20  and  N_29
                            x       y       z     vdW  Elec       q    Type
                         _______ _______ _______ _____ _____    ______ ____

>  <TORSDO>
F 1

$$$$
