=
 OpenBabel11122411383D

 37 42  0  0  1  0  0  0  0  0999 V2000
  187.4570  178.0800  142.8930 C   0  0  0  0  0  0  0  0  0  0  0  0
  183.3750  178.7900  142.6580 C   0  0  0  0  0  0  0  0  0  0  0  0
  181.5260  177.0860  140.3790 C   0  0  0  0  0  2  0  0  0  0  0  0
  185.3080  178.6960  144.0930 C   0  0  0  0  0  0  0  0  0  0  0  0
  183.1620  178.7860  141.2890 C   0  0  0  0  0  0  0  0  0  0  0  0
  184.7210  178.7700  142.8440 C   0  0  0  0  0  0  0  0  0  0  0  0
  181.8460  178.5660  140.5860 C   0  0  2  0  0  3  0  0  0  0  0  0
  184.4600  178.6830  145.2150 C   0  0  0  0  0  3  0  0  0  0  0  0
  185.3820  178.7110  141.6880 N   0  0  0  0  0  0  0  0  0  0  0  0
  187.3040  176.5680  142.8930 C   0  0  0  0  0  1  0  0  0  0  0  0
  181.0150  178.7780  143.5390 C   0  0  0  0  0  2  0  0  0  0  0  0
  183.0530  178.7140  145.0360 C   0  0  0  0  0  3  0  0  0  0  0  0
  186.8400  178.6540  141.5930 C   0  0  0  0  0  2  0  0  0  0  0  0
  183.1170  176.7820  138.3940 C   0  0  1  0  0  3  0  0  0  0  0  0
  182.7050  176.3060  139.7920 C   0  0  0  0  0  2  0  0  0  0  0  0
  182.4940  178.7630  143.7400 C   0  0  0  0  0  0  0  0  0  0  0  0
  184.4450  178.7060  140.7090 C   0  0  0  0  0  0  0  0  0  0  0  0
  186.8100  178.6650  144.1750 C   0  0  0  0  0  2  0  0  0  0  0  0
  180.6210  179.3520  141.0910 C   0  0  1  0  0  3  0  0  0  0  0  0
  188.9350  178.4060  142.9080 C   0  0  0  0  0  1  0  0  0  0  0  0
  183.6120  178.2370  138.3300 C   0  0  0  0  0  2  0  0  0  0  0  0
  184.7960  178.5500  139.2500 C   0  0  0  0  0  2  0  0  0  0  0  0
  180.6410  179.8630  142.5390 C   0  0  0  0  0  2  0  0  0  0  0  0
  179.3120  181.3140  140.4460 C   0  0  0  0  0  3  0  0  0  0  0  0
  180.3050  180.4680  140.1510 C   0  0  0  0  0  0  0  0  0  0  0  0
  181.0440  180.6130  138.8770 C   0  0  0  0  0  3  0  0  0  0  0  0
  181.2830  181.5600  136.7640 F   0  0  0  0  0  0  0  0  0  0  0  0
  179.2630  182.1190  138.0790 C   0  0  0  0  0  2  0  0  0  0  0  0
  180.5900  181.4280  137.9200 C   0  0  0  0  0  0  0  0  0  0  0  0
  179.0110  182.4820  139.5470 C   0  0  0  0  0  2  0  0  0  0  0  0
  184.1060  175.8460  137.7790 C   0  0  0  0  0  0  0  0  0  0  0  0
  185.1470  176.3750  136.9560 N   0  0  0  0  0  2  0  0  0  0  0  0
  184.0310  174.6060  137.9960 O   0  0  0  0  0  0  0  0  0  0  0  0
  187.4580  175.5960  137.1700 C   0  0  0  0  0  1  0  0  0  0  0  0
  186.1770  175.5390  136.3530 C   0  0  2  0  0  3  0  0  0  0  0  0
  186.7910  177.7400  134.7570 S   0  0  0  0  0  1  0  0  0  0  0  0
  186.4310  175.9590  134.9090 C   0  0  0  0  0  2  0  0  0  0  0  0
  1 10  1  0  0  0  0
  1 20  1  0  0  0  0
  1 18  1  0  0  0  0
  2  6  2  0  0  0  0
  2 16  1  0  0  0  0
  4 18  1  0  0  0  0
  4  8  2  0  0  0  0
  5  2  1  0  0  0  0
  6  4  1  0  0  0  0
  7  3  1  1  0  0  0
  7 19  1  0  0  0  0
  7  5  1  0  0  0  0
  9  6  1  0  0  0  0
 11 16  1  0  0  0  0
 12  8  1  0  0  0  0
 13  9  1  0  0  0  0
 13  1  1  0  0  0  0
 14 31  1  1  0  0  0
 14 15  1  0  0  0  0
 15  3  1  0  0  0  0
 16 12  2  0  0  0  0
 17  5  2  0  0  0  0
 17  9  1  0  0  0  0
 19 25  1  6  0  0  0
 19 23  1  0  0  0  0
 21 14  1  0  0  0  0
 21 22  1  0  0  0  0
 22 17  1  0  0  0  0
 23 11  1  0  0  0  0
 25 24  2  0  0  0  0
 26 25  1  0  0  0  0
 27 29  1  0  0  0  0
 28 30  1  0  0  0  0
 29 28  1  0  0  0  0
 29 26  2  0  0  0  0
 30 24  1  0  0  0  0
 31 33  2  0  0  0  0
 32 31  1  0  0  0  0
 35 32  1  0  0  0  0
 35 34  1  1  0  0  0
 36 37  1  0  0  0  0
 37 35  1  0  0  0  0
M  END
>  <MODEL>
1

>  <REMARK>
 VINA RESULT:      -7.9      0.000      0.000
  Name = 
  4 active torsions:
  status: ('A' for Active; 'I' for Inactive)
    1  A    between atoms: C_4  and  N_12
    2  A    between atoms: C_4  and  C_37
    3  A    between atoms: C_8  and  C_18
    4  A    between atoms: C_23  and  C_30
                            x       y       z     vdW  Elec       q    Type
                         _______ _______ _______ _____ _____    ______ ____

>  <TORSDO>
F 4

$$$$
=
 OpenBabel11122411383D

 37 42  0  0  1  0  0  0  0  0999 V2000
  187.5640  178.0870  142.7240 C   0  0  0  0  0  0  0  0  0  0  0  0
  183.4730  178.7890  142.6710 C   0  0  0  0  0  0  0  0  0  0  0  0
  181.5370  177.1330  140.4310 C   0  0  0  0  0  2  0  0  0  0  0  0
  185.4640  178.6680  144.0240 C   0  0  0  0  0  0  0  0  0  0  0  0
  183.2040  178.8160  141.3130 C   0  0  0  0  0  0  0  0  0  0  0  0
  184.8260  178.7690  142.8020 C   0  0  0  0  0  0  0  0  0  0  0  0
  181.8620  178.6080  140.6590 C   0  0  2  0  0  3  0  0  0  0  0  0
  184.6630  178.6270  145.1790 C   0  0  0  0  0  3  0  0  0  0  0  0
  185.4390  178.7390  141.6190 N   0  0  0  0  0  0  0  0  0  0  0  0
  187.4140  176.5750  142.6940 C   0  0  0  0  0  1  0  0  0  0  0  0
  181.1510  178.7490  143.6480 C   0  0  0  0  0  2  0  0  0  0  0  0
  183.2490  178.6570  145.0590 C   0  0  0  0  0  3  0  0  0  0  0  0
  186.8930  178.6890  141.4640 C   0  0  0  0  0  2  0  0  0  0  0  0
  183.0460  176.8790  138.3760 C   0  0  1  0  0  3  0  0  0  0  0  0
  182.6930  176.3700  139.7790 C   0  0  0  0  0  2  0  0  0  0  0  0
  182.6380  178.7340  143.7880 C   0  0  0  0  0  0  0  0  0  0  0  0
  184.4630  178.7540  140.6800 C   0  0  0  0  0  0  0  0  0  0  0  0
  186.9680  178.6400  144.0440 C   0  0  0  0  0  2  0  0  0  0  0  0
  180.6570  179.3780  141.2320 C   0  0  1  0  0  3  0  0  0  0  0  0
  189.0400  178.4180  142.6860 C   0  0  0  0  0  1  0  0  0  0  0  0
  183.5340  178.3370  138.3260 C   0  0  0  0  0  2  0  0  0  0  0  0
  184.7550  178.6330  139.2040 C   0  0  0  0  0  2  0  0  0  0  0  0
  180.7340  179.8550  142.6890 C   0  0  0  0  0  2  0  0  0  0  0  0
  179.2740  181.3110  140.6540 C   0  0  0  0  0  3  0  0  0  0  0  0
  180.3000  180.5150  140.3320 C   0  0  0  0  0  0  0  0  0  0  0  0
  181.0350  180.7340  139.0660 C   0  0  0  0  0  3  0  0  0  0  0  0
  181.2410  181.7640  136.9890 F   0  0  0  0  0  0  0  0  0  0  0  0
  179.1990  182.1980  138.3170 C   0  0  0  0  0  2  0  0  0  0  0  0
  180.5520  181.5650  138.1380 C   0  0  0  0  0  0  0  0  0  0  0  0
  178.9310  182.4980  139.7960 C   0  0  0  0  0  2  0  0  0  0  0  0
  184.0110  175.9610  137.7000 C   0  0  0  0  0  0  0  0  0  0  0  0
  183.6490  174.5930  137.5020 N   0  0  0  0  0  2  0  0  0  0  0  0
  185.1250  176.3920  137.2950 O   0  0  0  0  0  0  0  0  0  0  0  0
  183.6820  172.6310  136.0370 C   0  0  0  0  0  1  0  0  0  0  0  0
  184.5110  173.6410  136.8140 C   0  0  2  0  0  3  0  0  0  0  0  0
  187.1250  172.7310  137.1510 S   0  0  0  0  0  1  0  0  0  0  0  0
  185.4350  172.9410  137.8050 C   0  0  0  0  0  2  0  0  0  0  0  0
  1 18  1  0  0  0  0
  2  6  2  0  0  0  0
  2 16  1  0  0  0  0
  4 18  1  0  0  0  0
  4  8  2  0  0  0  0
  5  2  1  0  0  0  0
  6  4  1  0  0  0  0
  7  3  1  1  0  0  0
  7 19  1  0  0  0  0
  7  5  1  0  0  0  0
  9  6  1  0  0  0  0
 10  1  1  0  0  0  0
 11 16  1  0  0  0  0
 12  8  1  0  0  0  0
 13  9  1  0  0  0  0
 13  1  1  0  0  0  0
 14 31  1  1  0  0  0
 14 15  1  0  0  0  0
 15  3  1  0  0  0  0
 16 12  2  0  0  0  0
 17  5  2  0  0  0  0
 17  9  1  0  0  0  0
 19 25  1  6  0  0  0
 19 23  1  0  0  0  0
 20  1  1  0  0  0  0
 21 14  1  0  0  0  0
 21 22  1  0  0  0  0
 22 17  1  0  0  0  0
 23 11  1  0  0  0  0
 25 24  2  0  0  0  0
 26 25  1  0  0  0  0
 27 29  1  0  0  0  0
 28 30  1  0  0  0  0
 29 28  1  0  0  0  0
 29 26  2  0  0  0  0
 30 24  1  0  0  0  0
 32 31  1  0  0  0  0
 33 31  2  0  0  0  0
 35 34  1  1  0  0  0
 35 32  1  0  0  0  0
 35 37  1  0  0  0  0
 36 37  1  0  0  0  0
M  END
>  <MODEL>
2

>  <REMARK>
 VINA RESULT:      -7.7      1.408      1.576
  Name = 
  4 active torsions:
  status: ('A' for Active; 'I' for Inactive)
    1  A    between atoms: C_4  and  N_12
    2  A    between atoms: C_4  and  C_37
    3  A    between atoms: C_8  and  C_18
    4  A    between atoms: C_23  and  C_30
                            x       y       z     vdW  Elec       q    Type
                         _______ _______ _______ _____ _____    ______ ____

>  <TORSDO>
F 4

$$$$
=
 OpenBabel11122411383D

 37 42  0  0  1  0  0  0  0  0999 V2000
  188.3140  177.7960  137.8820 C   0  0  0  0  0  0  0  0  0  0  0  0
  185.1360  178.3230  140.5000 C   0  0  0  0  0  0  0  0  0  0  0  0
  182.3600  176.4060  140.1410 C   0  0  0  0  0  2  0  0  0  0  0  0
  187.5280  178.3980  140.2180 C   0  0  0  0  0  0  0  0  0  0  0  0
  184.0460  178.2250  139.6510 C   0  0  0  0  0  0  0  0  0  0  0  0
  186.2430  178.3700  139.7120 C   0  0  0  0  0  0  0  0  0  0  0  0
  182.6260  177.9080  140.0460 C   0  0  2  0  0  3  0  0  0  0  0  0
  187.6800  178.4210  141.6160 C   0  0  0  0  0  3  0  0  0  0  0  0
  185.9370  178.2660  138.4190 N   0  0  0  0  0  0  0  0  0  0  0  0
  188.3120  176.2830  138.0130 C   0  0  0  0  0  1  0  0  0  0  0  0
  184.0260  178.2700  142.7610 C   0  0  0  0  0  2  0  0  0  0  0  0
  186.5340  178.3840  142.4520 C   0  0  0  0  0  3  0  0  0  0  0  0
  186.9350  178.2630  137.3500 C   0  0  0  0  0  2  0  0  0  0  0  0
  182.1800  176.0430  137.6110 C   0  0  1  0  0  3  0  0  0  0  0  0
  182.8720  175.6390  138.9190 C   0  0  0  0  0  2  0  0  0  0  0  0
  185.2390  178.3280  141.8910 C   0  0  0  0  0  0  0  0  0  0  0  0
  184.5870  178.1610  138.3500 C   0  0  0  0  0  0  0  0  0  0  0  0
  188.6770  178.4340  139.2480 C   0  0  0  0  0  2  0  0  0  0  0  0
  182.0250  178.6730  141.2410 C   0  0  1  0  0  3  0  0  0  0  0  0
  189.3730  178.1830  136.8730 C   0  0  0  0  0  1  0  0  0  0  0  0
  182.3900  177.5100  137.2000 C   0  0  0  0  0  2  0  0  0  0  0  0
  183.8560  177.9290  137.0510 C   0  0  0  0  0  2  0  0  0  0  0  0
  182.9920  179.2740  142.2700 C   0  0  0  0  0  2  0  0  0  0  0  0
  180.0070  180.0300  141.5010 C   0  0  0  0  0  3  0  0  0  0  0  0
  181.0710  179.7140  140.7540 C   0  0  0  0  0  0  0  0  0  0  0  0
  181.2660  180.3580  139.4360 C   0  0  0  0  0  3  0  0  0  0  0  0
  180.4810  181.6690  137.6800 F   0  0  0  0  0  0  0  0  0  0  0  0
  178.9310  181.1420  139.5360 C   0  0  0  0  0  2  0  0  0  0  0  0
  180.2840  181.0760  138.8820 C   0  0  0  0  0  0  0  0  0  0  0  0
  179.0630  181.1170  141.0630 C   0  0  0  0  0  2  0  0  0  0  0  0
  182.5460  175.1120  136.5020 C   0  0  0  0  0  0  0  0  0  0  0  0
  183.2720  173.9190  136.8060 N   0  0  0  0  0  2  0  0  0  0  0  0
  182.2050  175.3680  135.3150 O   0  0  0  0  0  0  0  0  0  0  0  0
  183.0600  171.5710  136.1430 C   0  0  0  0  0  1  0  0  0  0  0  0
  183.6310  172.9360  135.7910 C   0  0  2  0  0  3  0  0  0  0  0  0
  186.0320  173.2060  137.1820 S   0  0  0  0  0  1  0  0  0  0  0  0
  185.1450  172.8670  135.6240 C   0  0  0  0  0  2  0  0  0  0  0  0
  1 10  1  0  0  0  0
  1 18  1  0  0  0  0
  2 16  1  0  0  0  0
  4  8  2  0  0  0  0
  5  7  1  0  0  0  0
  5  2  1  0  0  0  0
  6  4  1  0  0  0  0
  6  2  2  0  0  0  0
  7  3  1  1  0  0  0
  7 19  1  0  0  0  0
  8 12  1  0  0  0  0
  9  6  1  0  0  0  0
 13  1  1  0  0  0  0
 13  9  1  0  0  0  0
 14 31  1  6  0  0  0
 14 15  1  0  0  0  0
 15  3  1  0  0  0  0
 16 12  2  0  0  0  0
 16 11  1  0  0  0  0
 17  9  1  0  0  0  0
 17  5  2  0  0  0  0
 18  4  1  0  0  0  0
 19 25  1  6  0  0  0
 19 23  1  0  0  0  0
 20  1  1  0  0  0  0
 21 14  1  0  0  0  0
 22 21  1  0  0  0  0
 22 17  1  0  0  0  0
 23 11  1  0  0  0  0
 25 24  2  0  0  0  0
 26 25  1  0  0  0  0
 27 29  1  0  0  0  0
 28 30  1  0  0  0  0
 29 26  2  0  0  0  0
 29 28  1  0  0  0  0
 30 24  1  0  0  0  0
 31 32  1  0  0  0  0
 33 31  2  0  0  0  0
 35 34  1  1  0  0  0
 35 32  1  0  0  0  0
 37 35  1  0  0  0  0
 37 36  1  0  0  0  0
M  END
>  <MODEL>
3

>  <REMARK>
 VINA RESULT:      -6.7      2.103      3.333
  Name = 
  4 active torsions:
  status: ('A' for Active; 'I' for Inactive)
    1  A    between atoms: C_4  and  N_12
    2  A    between atoms: C_4  and  C_37
    3  A    between atoms: C_8  and  C_18
    4  A    between atoms: C_23  and  C_30
                            x       y       z     vdW  Elec       q    Type
                         _______ _______ _______ _____ _____    ______ ____

>  <TORSDO>
F 4

$$$$
