=
 OpenBabel11122412023D

 34 42  0  0  1  0  0  0  0  0999 V2000
  185.5470  178.4300  142.3360 C   0  0  1  0  0  3  0  0  0  0  0  0
  184.7180  179.0440  140.2020 C   0  0  0  0  0  2  0  0  0  0  0  0
  190.5400  177.0790  146.7360 C   0  0  2  0  0  0  0  0  0  0  0  0
  186.7010  178.0670  144.6420 C   0  0  0  0  0  0  0  0  0  0  0  0
  189.0490  177.4750  144.6740 C   0  0  0  0  0  0  0  0  0  0  0  0
  191.5340  176.9000  145.0610 C   0  0  2  0  0  3  0  0  0  0  0  0
  191.8990  176.7930  146.3980 O   0  0  0  0  0  0  0  0  0  0  0  0
  188.4720  177.4810  147.9010 C   0  0  0  0  0  3  0  0  0  0  0  0
  187.0390  178.6790  140.3400 C   0  0  1  0  0  3  0  0  0  0  0  0
  188.8410  178.1140  138.0300 C   0  0  0  0  0  3  0  0  0  0  0  0
  189.0620  177.4820  143.2770 O   0  0  0  0  0  0  0  0  0  0  0  0
  187.6210  177.7150  146.8850 C   0  0  0  0  0  3  0  0  0  0  0  0
  187.9280  177.6550  141.0400 C   0  0  2  0  0  3  0  0  0  0  0  0
  185.2270  178.7220  138.8170 C   0  0  0  0  0  2  0  0  0  0  0  0
  187.7800  177.7580  145.3970 C   0  0  0  0  0  0  0  0  0  0  0  0
  189.8750  177.1870  147.8340 N   0  0  0  0  0  2  0  0  0  0  0  0
  187.5040  178.2260  137.9090 C   0  0  0  0  0  0  0  0  0  0  0  0
  186.7870  178.1410  143.1550 C   0  0  0  0  0  0  0  0  0  0  0  0
  190.1650  177.2050  145.3190 C   0  0  0  0  0  0  0  0  0  0  0  0
  187.9190  177.7960  142.5320 C   0  0  0  0  0  0  0  0  0  0  0  0
  184.3540  178.7630  144.5540 C   0  0  0  0  0  3  0  0  0  0  0  0
  189.6860  177.8790  139.2250 C   0  0  0  0  0  3  0  0  0  0  0  0
  185.3690  178.2590  145.2530 C   0  0  0  0  0  3  0  0  0  0  0  0
  189.3240  177.7050  140.5010 C   0  0  0  0  0  3  0  0  0  0  0  0
  186.5500  178.0500  139.0620 C   0  0  1  0  0  3  0  0  0  0  0  0
  184.5500  179.2700  143.1560 C   0  0  0  0  0  2  0  0  0  0  0  0
  185.8670  179.1680  141.1000 N   0  0  2  0  0  0  0  0  0  0  0  0
  186.9460  178.4460  136.6390 O   0  0  0  0  0  0  0  0  0  0  0  0
  187.4000  177.8080  135.4470 C   0  0  0  0  0  2  0  0  0  0  0  0
  185.8940  175.2480  136.8030 O   0  0  0  0  0  0  0  0  0  0  0  0
  185.0500  177.0400  135.5200 C   0  0  0  0  0  2  0  0  0  0  0  0
  186.4280  176.7180  135.0220 C   0  0  2  0  0  3  0  0  0  0  0  0
  184.7010  175.8670  136.4030 C   0  0  0  0  0  2  0  0  0  0  0  0
  186.7780  175.4270  135.7270 C   0  0  0  0  0  2  0  0  0  0  0  0
  1 18  1  0  0  0  0
  1 26  1  1  0  0  0
  2 27  1  0  0  0  0
  3 19  1  1  0  0  0
  3 16  1  0  0  0  0
  4 23  1  0  0  0  0
  4 15  2  0  0  0  0
  5 19  2  0  0  0  0
  5 15  1  0  0  0  0
  6 19  1  1  0  0  0
  6  7  1  0  0  0  0
  6  3  1  0  0  0  0
  7  3  1  0  0  0  0
  9 13  1  0  0  0  0
  9 27  1  0  0  0  0
 10 22  1  0  0  0  0
 11  5  1  0  0  0  0
 12  8  2  0  0  0  0
 13 20  1  0  0  0  0
 14 25  1  0  0  0  0
 14  2  1  0  0  0  0
 15 12  1  0  0  0  0
 16  8  1  0  0  0  0
 17 10  2  0  0  0  0
 17 25  1  0  0  0  0
 18  4  1  0  0  0  0
 20 18  2  0  0  0  0
 20 11  1  0  0  0  0
 21 23  2  0  0  0  0
 22 24  2  0  0  0  0
 24 13  1  0  0  0  0
 25  9  1  0  0  0  0
 26 21  1  0  0  0  0
 27  1  1  0  0  0  0
 28 17  1  0  0  0  0
 29 28  1  0  0  0  0
 31 33  1  0  0  0  0
 32 29  1  0  0  0  0
 32 31  1  0  0  0  0
 32 34  1  0  0  0  0
 33 30  1  0  0  0  0
 34 30  1  0  0  0  0
M  END
>  <MODEL>
1

>  <REMARK>
 VINA RESULT:     -10.7      0.000      0.000
  Name = 
  3 active torsions:
  status: ('A' for Active; 'I' for Inactive)
    1  A    between atoms: C_17  and  O_28
    2  A    between atoms: O_28  and  C_29
    3  A    between atoms: C_29  and  C_32
                            x       y       z     vdW  Elec       q    Type
                         _______ _______ _______ _____ _____    ______ ____

>  <TORSDO>
F 3

$$$$
=
 OpenBabel11122412023D

 34 42  0  0  1  0  0  0  0  0999 V2000
  186.3990  178.0730  141.6720 C   0  0  1  0  0  3  0  0  0  0  0  0
  186.0810  178.4680  139.3560 C   0  0  0  0  0  2  0  0  0  0  0  0
  190.2550  177.1570  147.1860 C   0  0  2  0  0  0  0  0  0  0  0  0
  187.0030  177.9430  144.2010 C   0  0  0  0  0  0  0  0  0  0  0  0
  189.2690  177.3470  144.8140 C   0  0  0  0  0  0  0  0  0  0  0  0
  191.5890  176.8020  145.8010 C   0  0  2  0  0  3  0  0  0  0  0  0
  191.6460  176.8310  147.1900 O   0  0  0  0  0  0  0  0  0  0  0  0
  187.9920  177.6870  147.8150 C   0  0  0  0  0  3  0  0  0  0  0  0
  188.3030  178.1080  140.0440 C   0  0  1  0  0  3  0  0  0  0  0  0
  190.5550  177.3000  138.2620 C   0  0  0  0  0  3  0  0  0  0  0  0
  189.5910  177.2100  143.4620 O   0  0  0  0  0  0  0  0  0  0  0  0
  187.3940  177.8180  146.6160 C   0  0  0  0  0  3  0  0  0  0  0  0
  188.9860  177.1570  141.0230 C   0  0  2  0  0  3  0  0  0  0  0  0
  186.8750  178.0030  138.1580 C   0  0  0  0  0  2  0  0  0  0  0  0
  187.8800  177.7080  145.2040 C   0  0  0  0  0  0  0  0  0  0  0  0
  189.3660  177.3800  148.0920 N   0  0  0  0  0  2  0  0  0  0  0  0
  189.2820  177.4050  137.8360 C   0  0  0  0  0  0  0  0  0  0  0  0
  187.4190  177.8640  142.7710 C   0  0  0  0  0  0  0  0  0  0  0  0
  190.2060  177.1390  145.7160 C   0  0  0  0  0  0  0  0  0  0  0  0
  188.6500  177.4510  142.4540 C   0  0  0  0  0  0  0  0  0  0  0  0
  184.7550  178.6370  143.5230 C   0  0  0  0  0  3  0  0  0  0  0  0
  191.1070  177.1850  139.6320 C   0  0  0  0  0  3  0  0  0  0  0  0
  185.5750  178.2040  144.4770 C   0  0  0  0  0  3  0  0  0  0  0  0
  190.4680  177.1440  140.8060 C   0  0  0  0  0  3  0  0  0  0  0  0
  188.0920  177.3530  138.7580 C   0  0  1  0  0  3  0  0  0  0  0  0
  185.2690  178.9970  142.1600 C   0  0  0  0  0  2  0  0  0  0  0  0
  187.0050  178.6790  140.4710 N   0  0  2  0  0  0  0  0  0  0  0  0
  189.0250  177.4960  136.4570 O   0  0  0  0  0  0  0  0  0  0  0  0
  189.7410  176.7670  135.4630 C   0  0  0  0  0  2  0  0  0  0  0  0
  188.0140  174.2740  136.6730 O   0  0  0  0  0  0  0  0  0  0  0  0
  187.4390  175.9370  135.1010 C   0  0  0  0  0  2  0  0  0  0  0  0
  188.8950  175.6190  134.9320 C   0  0  2  0  0  3  0  0  0  0  0  0
  186.9250  174.8250  135.9820 C   0  0  0  0  0  2  0  0  0  0  0  0
  189.1040  174.3960  135.7980 C   0  0  0  0  0  2  0  0  0  0  0  0
  1 26  1  1  0  0  0
  1 18  1  0  0  0  0
  2 27  1  0  0  0  0
  3 19  1  6  0  0  0
  3  7  1  0  0  0  0
  3 16  1  0  0  0  0
  4 23  1  0  0  0  0
  4 15  2  0  0  0  0
  5 15  1  0  0  0  0
  5 19  2  0  0  0  0
  6 19  1  6  0  0  0
  6  3  1  0  0  0  0
  6  7  1  0  0  0  0
  8 16  1  0  0  0  0
  9 27  1  0  0  0  0
  9 13  1  0  0  0  0
 10 22  1  0  0  0  0
 11  5  1  0  0  0  0
 12  8  2  0  0  0  0
 13 20  1  0  0  0  0
 14 25  1  0  0  0  0
 14  2  1  0  0  0  0
 15 12  1  0  0  0  0
 17 10  2  0  0  0  0
 17 25  1  0  0  0  0
 18  4  1  0  0  0  0
 20 18  2  0  0  0  0
 20 11  1  0  0  0  0
 21 23  2  0  0  0  0
 22 24  2  0  0  0  0
 24 13  1  0  0  0  0
 25  9  1  0  0  0  0
 26 21  1  0  0  0  0
 27  1  1  0  0  0  0
 28 17  1  0  0  0  0
 29 28  1  0  0  0  0
 31 33  1  0  0  0  0
 32 31  1  0  0  0  0
 32 29  1  0  0  0  0
 32 34  1  0  0  0  0
 33 30  1  0  0  0  0
 34 30  1  0  0  0  0
M  END
>  <MODEL>
2

>  <REMARK>
 VINA RESULT:     -10.6      1.230      1.538
  Name = 
  3 active torsions:
  status: ('A' for Active; 'I' for Inactive)
    1  A    between atoms: C_17  and  O_28
    2  A    between atoms: O_28  and  C_29
    3  A    between atoms: C_29  and  C_32
                            x       y       z     vdW  Elec       q    Type
                         _______ _______ _______ _____ _____    ______ ____

>  <TORSDO>
F 3

$$$$
=
 OpenBabel11122412023D

 34 42  0  0  1  0  0  0  0  0999 V2000
  184.6740  178.2920  144.6180 C   0  0  1  0  0  3  0  0  0  0  0  0
  182.5010  179.0340  144.0290 C   0  0  0  0  0  2  0  0  0  0  0  0
  191.2700  177.2690  143.3710 C   0  0  2  0  0  0  0  0  0  0  0  0
  187.1840  177.8280  145.1290 C   0  0  0  0  0  0  0  0  0  0  0  0
  188.7280  177.6700  143.2700 C   0  0  0  0  0  0  0  0  0  0  0  0
  190.6310  177.5030  141.5370 C   0  0  2  0  0  3  0  0  0  0  0  0
  191.8910  177.2800  142.0840 O   0  0  0  0  0  0  0  0  0  0  0  0
  190.8240  177.1280  145.7320 C   0  0  0  0  0  3  0  0  0  0  0  0
  184.1070  179.0780  142.3080 C   0  0  1  0  0  3  0  0  0  0  0  0
  183.5070  179.1690  139.3870 C   0  0  0  0  0  3  0  0  0  0  0  0
  187.6690  177.8720  142.3830 O   0  0  0  0  0  0  0  0  0  0  0  0
  189.4960  177.3420  145.7780 C   0  0  0  0  0  2  0  0  0  0  0  0
  185.2260  178.1440  141.8570 C   0  0  2  0  0  3  0  0  0  0  0  0
  181.7740  179.0030  142.7050 C   0  0  0  0  0  2  0  0  0  0  0  0
  188.4600  177.6180  144.7320 C   0  0  0  0  0  0  0  0  0  0  0  0
  191.6800  177.1030  144.5810 N   0  0  0  0  0  0  0  0  0  0  0  0
  182.5520  179.0540  140.3300 C   0  0  0  0  0  0  0  0  0  0  0  0
  186.1030  178.1210  144.1460 C   0  0  0  0  0  0  0  0  0  0  0  0
  189.9430  177.5190  142.7860 C   0  0  0  0  0  0  0  0  0  0  0  0
  186.3590  178.0740  142.8350 C   0  0  0  0  0  0  0  0  0  0  0  0
  185.5970  178.0960  146.9750 C   0  0  0  0  0  3  0  0  0  0  0  0
  184.9680  178.9280  139.4580 C   0  0  0  0  0  3  0  0  0  0  0  0
  186.7910  177.6920  146.5480 C   0  0  0  0  0  3  0  0  0  0  0  0
  185.7120  178.5170  140.4900 C   0  0  0  0  0  3  0  0  0  0  0  0
  182.8210  178.5530  141.7240 C   0  0  1  0  0  3  0  0  0  0  0  0
  184.6490  178.8180  146.0650 C   0  0  0  0  0  2  0  0  0  0  0  0
  183.9270  179.2390  143.7690 N   0  0  2  0  0  0  0  0  0  0  0  0
  181.2190  179.3430  139.9940 O   0  0  0  0  0  0  0  0  0  0  0  0
  180.6070  178.9690  138.7620 C   0  0  0  0  0  2  0  0  0  0  0  0
  180.4410  176.0380  140.1920 O   0  0  0  0  0  0  0  0  0  0  0  0
  179.0670  177.9460  140.4050 C   0  0  0  0  0  2  0  0  0  0  0  0
  179.5650  177.8840  138.9910 C   0  0  2  0  0  3  0  0  0  0  0  0
  179.4100  176.5890  140.9680 C   0  0  0  0  0  2  0  0  0  0  0  0
  180.2220  176.5260  138.8950 C   0  0  0  0  0  2  0  0  0  0  0  0
  1 26  1  1  0  0  0
  3  7  1  1  0  0  0
  3 16  1  0  0  0  0
  4 23  1  0  0  0  0
  5 15  1  0  0  0  0
  6  7  1  1  0  0  0
  6 19  1  0  0  0  0
  6  3  1  0  0  0  0
  8 12  1  0  0  0  0
  9 27  1  0  0  0  0
 10 22  1  0  0  0  0
 10 17  2  0  0  0  0
 11 20  1  0  0  0  0
 11  5  1  0  0  0  0
 13  9  1  0  0  0  0
 13 20  1  0  0  0  0
 14  2  1  0  0  0  0
 15  4  2  0  0  0  0
 15 12  1  0  0  0  0
 16  8  2  0  0  0  0
 17 25  1  0  0  0  0
 18  1  1  0  0  0  0
 18  4  1  0  0  0  0
 19  5  2  0  0  0  0
 19  3  1  0  0  0  0
 20 18  2  0  0  0  0
 22 24  2  0  0  0  0
 23 21  2  0  0  0  0
 24 13  1  0  0  0  0
 25  9  1  0  0  0  0
 25 14  1  0  0  0  0
 26 21  1  0  0  0  0
 27  2  1  0  0  0  0
 27  1  1  0  0  0  0
 28 17  1  0  0  0  0
 29 32  1  0  0  0  0
 29 28  1  0  0  0  0
 30 33  1  0  0  0  0
 31 33  1  0  0  0  0
 32 31  1  0  0  0  0
 34 32  1  0  0  0  0
 34 30  1  0  0  0  0
M  END
>  <MODEL>
3

>  <REMARK>
 VINA RESULT:     -10.3      3.040      4.504
  Name = 
  3 active torsions:
  status: ('A' for Active; 'I' for Inactive)
    1  A    between atoms: C_17  and  O_28
    2  A    between atoms: O_28  and  C_29
    3  A    between atoms: C_29  and  C_32
                            x       y       z     vdW  Elec       q    Type
                         _______ _______ _______ _____ _____    ______ ____

>  <TORSDO>
F 3

$$$$
=
 OpenBabel11122412023D

 34 42  0  0  1  0  0  0  0  0999 V2000
  185.0190  178.2500  144.7190 C   0  0  1  0  0  3  0  0  0  0  0  0
  182.7880  179.0120  144.4720 C   0  0  0  0  0  2  0  0  0  0  0  0
  191.3540  177.2370  142.4940 C   0  0  2  0  0  0  0  0  0  0  0  0
  187.5740  177.7680  144.8460 C   0  0  0  0  0  0  0  0  0  0  0  0
  188.8280  177.6480  142.7770 C   0  0  0  0  0  0  0  0  0  0  0  0
  190.4550  177.5140  140.7800 C   0  0  2  0  0  3  0  0  0  0  0  0
  191.7790  177.2760  141.1300 O   0  0  0  0  0  0  0  0  0  0  0  0
  191.2590  177.0430  144.8920 C   0  0  0  0  0  3  0  0  0  0  0  0
  184.1240  179.0900  142.5350 C   0  0  1  0  0  3  0  0  0  0  0  0
  183.1030  179.2500  139.7370 C   0  0  0  0  0  3  0  0  0  0  0  0
  187.6510  177.8720  142.0590 O   0  0  0  0  0  0  0  0  0  0  0  0
  189.9530  177.2600  145.1370 C   0  0  0  0  0  2  0  0  0  0  0  0
  185.1590  178.1640  141.9040 C   0  0  2  0  0  3  0  0  0  0  0  0
  181.8740  179.0130  143.2690 C   0  0  0  0  0  2  0  0  0  0  0  0
  188.7770  177.5630  144.2610 C   0  0  0  0  0  0  0  0  0  0  0  0
  191.9370  177.0420  143.6270 N   0  0  0  0  0  0  0  0  0  0  0  0
  182.2950  179.1160  140.8070 C   0  0  0  0  0  0  0  0  0  0  0  0
  186.3620  178.0860  144.0380 C   0  0  0  0  0  0  0  0  0  0  0  0
  189.9580  177.5040  142.1160 C   0  0  0  0  0  0  0  0  0  0  0  0
  186.4230  178.0680  142.7030 C   0  0  0  0  0  0  0  0  0  0  0  0
  186.2770  177.9980  146.9100 C   0  0  0  0  0  3  0  0  0  0  0  0
  184.5560  179.0030  139.5870 C   0  0  0  0  0  3  0  0  0  0  0  0
  187.3920  177.6010  146.3030 C   0  0  0  0  0  3  0  0  0  0  0  0
  185.4420  178.5670  140.4890 C   0  0  0  0  0  3  0  0  0  0  0  0
  182.7630  178.5820  142.1350 C   0  0  1  0  0  3  0  0  0  0  0  0
  185.2090  178.7430  146.1650 C   0  0  0  0  0  2  0  0  0  0  0  0
  184.1610  179.2180  144.0100 N   0  0  2  0  0  0  0  0  0  0  0  0
  180.9290  179.4170  140.6770 O   0  0  0  0  0  0  0  0  0  0  0  0
  180.0960  178.9080  139.6380 C   0  0  0  0  0  2  0  0  0  0  0  0
  180.9760  181.9160  138.7190 O   0  0  0  0  0  0  0  0  0  0  0  0
  180.1770  180.0840  137.4630 C   0  0  0  0  0  2  0  0  0  0  0  0
  179.5200  180.0480  138.8110 C   0  0  2  0  0  3  0  0  0  0  0  0
  180.8090  181.4530  137.4060 C   0  0  0  0  0  2  0  0  0  0  0  0
  179.9010  181.3700  139.4390 C   0  0  0  0  0  2  0  0  0  0  0  0
  1 26  1  1  0  0  0
  3  7  1  1  0  0  0
  3 16  1  0  0  0  0
  4 23  1  0  0  0  0
  5 15  1  0  0  0  0
  6  7  1  1  0  0  0
  6 19  1  0  0  0  0
  6  3  1  0  0  0  0
  8 12  1  0  0  0  0
  9 27  1  0  0  0  0
 10 17  2  0  0  0  0
 11 20  1  0  0  0  0
 11  5  1  0  0  0  0
 13  9  1  0  0  0  0
 13 20  1  0  0  0  0
 14  2  1  0  0  0  0
 15  4  2  0  0  0  0
 15 12  1  0  0  0  0
 16  8  2  0  0  0  0
 17 25  1  0  0  0  0
 18  1  1  0  0  0  0
 18  4  1  0  0  0  0
 19  3  1  0  0  0  0
 19  5  2  0  0  0  0
 20 18  2  0  0  0  0
 22 10  1  0  0  0  0
 22 24  2  0  0  0  0
 23 21  2  0  0  0  0
 24 13  1  0  0  0  0
 25  9  1  0  0  0  0
 25 14  1  0  0  0  0
 26 21  1  0  0  0  0
 27  2  1  0  0  0  0
 27  1  1  0  0  0  0
 28 17  1  0  0  0  0
 29 28  1  0  0  0  0
 30 34  1  0  0  0  0
 31 32  1  0  0  0  0
 32 34  1  0  0  0  0
 32 29  1  0  0  0  0
 33 31  1  0  0  0  0
 33 30  1  0  0  0  0
M  END
>  <MODEL>
4

>  <REMARK>
 VINA RESULT:     -10.2      3.147      4.997
  Name = 
  3 active torsions:
  status: ('A' for Active; 'I' for Inactive)
    1  A    between atoms: C_17  and  O_28
    2  A    between atoms: O_28  and  C_29
    3  A    between atoms: C_29  and  C_32
                            x       y       z     vdW  Elec       q    Type
                         _______ _______ _______ _____ _____    ______ ____

>  <TORSDO>
F 3

$$$$
=
 OpenBabel11122412023D

 34 42  0  0  1  0  0  0  0  0999 V2000
  190.3100  177.4050  143.3790 C   0  0  1  0  0  3  0  0  0  0  0  0
  192.0390  176.7390  141.9010 C   0  0  0  0  0  2  0  0  0  0  0  0
  183.8150  178.6190  144.9470 C   0  0  2  0  0  0  0  0  0  0  0  0
  188.2240  177.8070  144.8840 C   0  0  0  0  0  0  0  0  0  0  0  0
  186.0930  178.2230  143.8120 C   0  0  0  0  0  0  0  0  0  0  0  0
  183.6800  178.6320  142.9960 C   0  0  2  0  0  3  0  0  0  0  0  0
  182.7450  178.7850  144.0150 O   0  0  0  0  0  0  0  0  0  0  0  0
  185.1470  178.4370  146.9440 C   0  0  0  0  0  3  0  0  0  0  0  0
  189.8930  176.9370  140.9540 C   0  0  1  0  0  3  0  0  0  0  0  0
  189.3090  177.2380  138.0440 C   0  0  0  0  0  3  0  0  0  0  0  0
  186.7130  178.1380  142.5630 O   0  0  0  0  0  0  0  0  0  0  0  0
  186.3750  178.2120  146.4400 C   0  0  0  0  0  2  0  0  0  0  0  0
  188.7420  177.9280  141.0950 C   0  0  2  0  0  3  0  0  0  0  0  0
  192.1980  176.9460  140.4130 C   0  0  0  0  0  2  0  0  0  0  0  0
  186.9080  178.0760  145.0470 C   0  0  0  0  0  0  0  0  0  0  0  0
  183.9150  178.6220  146.2320 N   0  0  0  0  0  0  0  0  0  0  0  0
  190.5590  177.2210  138.5440 C   0  0  0  0  0  0  0  0  0  0  0  0
  188.8220  177.6450  143.5280 C   0  0  0  0  0  0  0  0  0  0  0  0
  184.7960  178.4440  143.8640 C   0  0  0  0  0  0  0  0  0  0  0  0
  188.0810  177.8710  142.4390 C   0  0  0  0  0  0  0  0  0  0  0  0
  190.3830  177.2840  145.9140 C   0  0  0  0  0  3  0  0  0  0  0  0
  188.0060  177.4750  138.7090 C   0  0  0  0  0  3  0  0  0  0  0  0
  189.1430  177.7480  146.0410 C   0  0  0  0  0  3  0  0  0  0  0  0
  187.7440  177.7460  139.9930 C   0  0  0  0  0  3  0  0  0  0  0  0
  190.8800  177.5300  139.9830 C   0  0  1  0  0  3  0  0  0  0  0  0
  190.8630  176.6880  144.6240 C   0  0  0  0  0  2  0  0  0  0  0  0
  190.6150  176.5790  142.1960 N   0  0  2  0  0  0  0  0  0  0  0  0
  191.6400  176.9730  137.6820 O   0  0  0  0  0  0  0  0  0  0  0  0
  191.5230  176.3030  136.4280 C   0  0  0  0  0  2  0  0  0  0  0  0
  194.6780  175.9600  137.1960 O   0  0  0  0  0  0  0  0  0  0  0  0
  192.8250  174.5540  137.5970 C   0  0  0  0  0  2  0  0  0  0  0  0
  192.6100  175.2480  136.2840 C   0  0  2  0  0  3  0  0  0  0  0  0
  194.2750  174.8260  137.9160 C   0  0  0  0  0  2  0  0  0  0  0  0
  193.9340  175.9230  136.0070 C   0  0  0  0  0  2  0  0  0  0  0  0
  1 18  1  0  0  0  0
  1 26  1  1  0  0  0
  2 27  1  0  0  0  0
  3 19  1  1  0  0  0
  3 16  1  0  0  0  0
  4 15  2  0  0  0  0
  4 23  1  0  0  0  0
  5 19  2  0  0  0  0
  5 15  1  0  0  0  0
  6 19  1  1  0  0  0
  6  7  1  0  0  0  0
  6  3  1  0  0  0  0
  7  3  1  0  0  0  0
  9 13  1  0  0  0  0
  9 27  1  0  0  0  0
 10 17  2  0  0  0  0
 10 22  1  0  0  0  0
 11  5  1  0  0  0  0
 12  8  1  0  0  0  0
 13 20  1  0  0  0  0
 14  2  1  0  0  0  0
 15 12  1  0  0  0  0
 16  8  2  0  0  0  0
 17 25  1  0  0  0  0
 18  4  1  0  0  0  0
 20 11  1  0  0  0  0
 20 18  2  0  0  0  0
 21 23  2  0  0  0  0
 22 24  2  0  0  0  0
 24 13  1  0  0  0  0
 25 14  1  0  0  0  0
 25  9  1  0  0  0  0
 26 21  1  0  0  0  0
 27  1  1  0  0  0  0
 28 17  1  0  0  0  0
 29 28  1  0  0  0  0
 30 33  1  0  0  0  0
 31 33  1  0  0  0  0
 32 29  1  0  0  0  0
 32 31  1  0  0  0  0
 34 32  1  0  0  0  0
 34 30  1  0  0  0  0
M  END
>  <MODEL>
5

>  <REMARK>
 VINA RESULT:     -10.1      3.303      5.513
  Name = 
  3 active torsions:
  status: ('A' for Active; 'I' for Inactive)
    1  A    between atoms: C_17  and  O_28
    2  A    between atoms: O_28  and  C_29
    3  A    between atoms: C_29  and  C_32
                            x       y       z     vdW  Elec       q    Type
                         _______ _______ _______ _____ _____    ______ ____

>  <TORSDO>
F 3

$$$$
=
 OpenBabel11122412023D

 34 42  0  0  1  0  0  0  0  0999 V2000
  190.2770  177.2930  142.3440 C   0  0  1  0  0  3  0  0  0  0  0  0
  191.4040  176.7470  140.3320 C   0  0  0  0  0  2  0  0  0  0  0  0
  184.7120  178.6430  145.9940 C   0  0  2  0  0  0  0  0  0  0  0  0
  188.7930  177.5940  144.4620 C   0  0  0  0  0  0  0  0  0  0  0  0
  186.4900  178.2830  144.1660 C   0  0  0  0  0  0  0  0  0  0  0  0
  183.9970  178.9440  144.1990 C   0  0  2  0  0  3  0  0  0  0  0  0
  183.4330  179.0030  145.4690 O   0  0  0  0  0  0  0  0  0  0  0  0
  186.5590  178.0990  147.4390 C   0  0  0  0  0  3  0  0  0  0  0  0
  189.1040  177.2020  140.1330 C   0  0  1  0  0  3  0  0  0  0  0  0
  187.7030  177.9530  137.6080 C   0  0  0  0  0  3  0  0  0  0  0  0
  186.6930  178.3430  142.7850 O   0  0  0  0  0  0  0  0  0  0  0  0
  187.5490  177.8780  146.5530 C   0  0  0  0  0  3  0  0  0  0  0  0
  188.1530  178.2290  140.7430 C   0  0  2  0  0  3  0  0  0  0  0  0
  191.1280  177.1560  138.9050 C   0  0  0  0  0  2  0  0  0  0  0  0
  187.6210  177.9120  145.0580 C   0  0  0  0  0  0  0  0  0  0  0  0
  185.1940  178.4550  147.1740 N   0  0  0  0  0  2  0  0  0  0  0  0
  189.0380  177.7910  137.6870 C   0  0  0  0  0  0  0  0  0  0  0  0
  188.9350  177.5940  142.9780 C   0  0  0  0  0  0  0  0  0  0  0  0
  185.2980  178.5690  144.6460 C   0  0  0  0  0  0  0  0  0  0  0  0
  187.9260  178.0170  142.2090 C   0  0  0  0  0  0  0  0  0  0  0  0
  191.0990  176.8040  144.6970 C   0  0  0  0  0  3  0  0  0  0  0  0
  186.6920  178.1660  138.6700 C   0  0  0  0  0  3  0  0  0  0  0  0
  190.0070  177.3160  145.2590 C   0  0  0  0  0  3  0  0  0  0  0  0
  186.8570  178.2640  139.9940 C   0  0  0  0  0  3  0  0  0  0  0  0
  189.8070  177.8710  138.9800 C   0  0  1  0  0  3  0  0  0  0  0  0
  191.1050  176.3730  143.2600 C   0  0  0  0  0  2  0  0  0  0  0  0
  190.1270  176.6280  141.0360 N   0  0  2  0  0  0  0  0  0  0  0  0
  189.7780  177.6080  136.5070 O   0  0  0  0  0  0  0  0  0  0  0  0
  189.1980  177.2980  135.2420 C   0  0  0  0  0  2  0  0  0  0  0  0
  190.1460  174.5660  136.7600 O   0  0  0  0  0  0  0  0  0  0  0  0
  188.2880  175.0010  135.3700 C   0  0  0  0  0  2  0  0  0  0  0  0
  189.4380  175.8370  134.8890 C   0  0  2  0  0  3  0  0  0  0  0  0
  188.9280  174.0230  136.3260 C   0  0  0  0  0  2  0  0  0  0  0  0
  190.6210  175.3170  135.6740 C   0  0  0  0  0  2  0  0  0  0  0  0
  1 18  1  0  0  0  0
  1 26  1  1  0  0  0
  2 27  1  0  0  0  0
  3 19  1  6  0  0  0
  3 16  1  0  0  0  0
  4 15  2  0  0  0  0
  4 23  1  0  0  0  0
  5 19  2  0  0  0  0
  5 15  1  0  0  0  0
  6 19  1  6  0  0  0
  6  7  1  0  0  0  0
  6  3  1  0  0  0  0
  7  3  1  0  0  0  0
  9 13  1  0  0  0  0
  9 27  1  0  0  0  0
 10 17  2  0  0  0  0
 10 22  1  0  0  0  0
 11  5  1  0  0  0  0
 12  8  2  0  0  0  0
 13 20  1  0  0  0  0
 14 25  1  0  0  0  0
 14  2  1  0  0  0  0
 15 12  1  0  0  0  0
 16  8  1  0  0  0  0
 17 25  1  0  0  0  0
 18  4  1  0  0  0  0
 20 11  1  0  0  0  0
 20 18  2  0  0  0  0
 21 23  2  0  0  0  0
 22 24  2  0  0  0  0
 24 13  1  0  0  0  0
 25  9  1  0  0  0  0
 26 21  1  0  0  0  0
 27  1  1  0  0  0  0
 28 17  1  0  0  0  0
 29 28  1  0  0  0  0
 31 33  1  0  0  0  0
 32 29  1  0  0  0  0
 32 31  1  0  0  0  0
 32 34  1  0  0  0  0
 33 30  1  0  0  0  0
 34 30  1  0  0  0  0
M  END
>  <MODEL>
6

>  <REMARK>
 VINA RESULT:     -10.0      2.353      4.346
  Name = 
  3 active torsions:
  status: ('A' for Active; 'I' for Inactive)
    1  A    between atoms: C_17  and  O_28
    2  A    between atoms: O_28  and  C_29
    3  A    between atoms: C_29  and  C_32
                            x       y       z     vdW  Elec       q    Type
                         _______ _______ _______ _____ _____    ______ ____

>  <TORSDO>
F 3

$$$$
=
 OpenBabel11122412023D

 34 42  0  0  1  0  0  0  0  0999 V2000
  189.5590  177.5430  142.5980 C   0  0  1  0  0  3  0  0  0  0  0  0
  191.1310  176.9180  140.9370 C   0  0  0  0  0  2  0  0  0  0  0  0
  183.2680  178.8510  144.7950 C   0  0  2  0  0  0  0  0  0  0  0  0
  187.6240  177.9130  144.3000 C   0  0  0  0  0  0  0  0  0  0  0  0
  185.4250  178.4580  143.4440 C   0  0  0  0  0  0  0  0  0  0  0  0
  182.9680  178.9890  142.8670 C   0  0  2  0  0  3  0  0  0  0  0  0
  182.1290  179.1060  143.9700 O   0  0  0  0  0  0  0  0  0  0  0  0
  184.7580  178.5050  146.6540 C   0  0  0  0  0  3  0  0  0  0  0  0
  188.9210  177.2390  140.1950 C   0  0  1  0  0  3  0  0  0  0  0  0
  188.1020  177.7380  137.3690 C   0  0  0  0  0  3  0  0  0  0  0  0
  185.9330  178.4330  142.1430 O   0  0  0  0  0  0  0  0  0  0  0  0
  185.9300  178.2750  146.0320 C   0  0  0  0  0  3  0  0  0  0  0  0
  187.8210  178.2540  140.4930 C   0  0  2  0  0  3  0  0  0  0  0  0
  191.1710  177.2130  139.4560 C   0  0  0  0  0  2  0  0  0  0  0  0
  186.3370  178.2090  144.5930 C   0  0  0  0  0  0  0  0  0  0  0  0
  183.4770  178.7700  146.0640 N   0  0  0  0  0  2  0  0  0  0  0  0
  189.3890  177.6520  137.7570 C   0  0  0  0  0  0  0  0  0  0  0  0
  188.0980  177.8170  142.8900 C   0  0  0  0  0  0  0  0  0  0  0  0
  184.1460  178.7140  143.6220 C   0  0  0  0  0  0  0  0  0  0  0  0
  187.2760  178.1320  141.8840 C   0  0  0  0  0  0  0  0  0  0  0  0
  189.8430  177.2620  145.1050 C   0  0  0  0  0  3  0  0  0  0  0  0
  186.8700  177.9720  138.1590 C   0  0  0  0  0  3  0  0  0  0  0  0
  188.6350  177.7540  145.3670 C   0  0  0  0  0  3  0  0  0  0  0  0
  186.7280  178.1700  139.4740 C   0  0  0  0  0  3  0  0  0  0  0  0
  189.8420  177.8610  139.1780 C   0  0  1  0  0  3  0  0  0  0  0  0
  190.1900  176.7340  143.7450 C   0  0  0  0  0  2  0  0  0  0  0  0
  189.7320  176.7830  141.3460 N   0  0  2  0  0  0  0  0  0  0  0  0
  190.3840  177.4270  136.7900 O   0  0  0  0  0  0  0  0  0  0  0  0
  190.1250  176.9160  135.4840 C   0  0  0  0  0  2  0  0  0  0  0  0
  190.3140  174.4030  137.5610 O   0  0  0  0  0  0  0  0  0  0  0  0
  189.1480  174.6440  135.5230 C   0  0  0  0  0  2  0  0  0  0  0  0
  190.4250  175.4260  135.4260 C   0  0  2  0  0  3  0  0  0  0  0  0
  189.3350  173.7980  136.7590 C   0  0  0  0  0  2  0  0  0  0  0  0
  191.1970  175.0170  136.6600 C   0  0  0  0  0  2  0  0  0  0  0  0
  1 18  1  0  0  0  0
  1 26  1  1  0  0  0
  2 27  1  0  0  0  0
  3 19  1  6  0  0  0
  3 16  1  0  0  0  0
  4 15  2  0  0  0  0
  4 23  1  0  0  0  0
  5 19  2  0  0  0  0
  5 15  1  0  0  0  0
  6 19  1  6  0  0  0
  6  7  1  0  0  0  0
  6  3  1  0  0  0  0
  7  3  1  0  0  0  0
  9 13  1  0  0  0  0
  9 27  1  0  0  0  0
 10 17  2  0  0  0  0
 10 22  1  0  0  0  0
 11  5  1  0  0  0  0
 12  8  2  0  0  0  0
 13 20  1  0  0  0  0
 14  2  1  0  0  0  0
 15 12  1  0  0  0  0
 16  8  1  0  0  0  0
 17 25  1  0  0  0  0
 18  4  1  0  0  0  0
 20 11  1  0  0  0  0
 20 18  2  0  0  0  0
 21 23  2  0  0  0  0
 22 24  2  0  0  0  0
 24 13  1  0  0  0  0
 25 14  1  0  0  0  0
 25  9  1  0  0  0  0
 26 21  1  0  0  0  0
 27  1  1  0  0  0  0
 28 17  1  0  0  0  0
 29 28  1  0  0  0  0
 31 33  1  0  0  0  0
 32 29  1  0  0  0  0
 32 31  1  0  0  0  0
 32 34  1  0  0  0  0
 33 30  1  0  0  0  0
 34 30  1  0  0  0  0
M  END
>  <MODEL>
7

>  <REMARK>
 VINA RESULT:      -9.7      2.676      4.740
  Name = 
  3 active torsions:
  status: ('A' for Active; 'I' for Inactive)
    1  A    between atoms: C_17  and  O_28
    2  A    between atoms: O_28  and  C_29
    3  A    between atoms: C_29  and  C_32
                            x       y       z     vdW  Elec       q    Type
                         _______ _______ _______ _____ _____    ______ ____

>  <TORSDO>
F 3

$$$$
=
 OpenBabel11122412023D

 34 42  0  0  1  0  0  0  0  0999 V2000
  189.4620  177.5920  143.5960 C   0  0  1  0  0  3  0  0  0  0  0  0
  191.5860  176.8280  142.8720 C   0  0  0  0  0  2  0  0  0  0  0  0
  182.8580  178.8880  142.6860 C   0  0  2  0  0  0  0  0  0  0  0  0
  186.9890  178.0920  144.2380 C   0  0  0  0  0  0  0  0  0  0  0  0
  185.3810  178.4200  142.4570 C   0  0  0  0  0  0  0  0  0  0  0  0
  183.4190  178.7590  140.8160 C   0  0  2  0  0  3  0  0  0  0  0  0
  182.1890  178.9810  141.4270 O   0  0  0  0  0  0  0  0  0  0  0  0
  183.3980  178.8550  145.0320 C   0  0  0  0  0  3  0  0  0  0  0  0
  189.9150  176.9480  141.2180 C   0  0  1  0  0  3  0  0  0  0  0  0
  190.4000  177.0360  138.2750 C   0  0  0  0  0  3  0  0  0  0  0  0
  186.3990  178.2490  141.5160 O   0  0  0  0  0  0  0  0  0  0  0  0
  184.7200  178.6000  145.0090 C   0  0  0  0  0  2  0  0  0  0  0  0
  188.8100  177.9420  140.8750 C   0  0  2  0  0  3  0  0  0  0  0  0
  192.2630  176.9280  141.5250 C   0  0  0  0  0  2  0  0  0  0  0  0
  185.7060  178.3660  143.9070 C   0  0  0  0  0  0  0  0  0  0  0  0
  182.5000  178.9830  143.9200 N   0  0  0  0  0  0  0  0  0  0  0  0
  191.3930  177.0600  139.1850 C   0  0  0  0  0  0  0  0  0  0  0  0
  188.0220  177.8350  143.1940 C   0  0  0  0  0  0  0  0  0  0  0  0
  184.1530  178.6390  142.0330 C   0  0  0  0  0  0  0  0  0  0  0  0
  187.7180  177.9780  141.9000 C   0  0  0  0  0  0  0  0  0  0  0  0
  188.6360  177.6540  145.9960 C   0  0  0  0  0  3  0  0  0  0  0  0
  188.9520  177.3150  138.4210 C   0  0  0  0  0  3  0  0  0  0  0  0
  187.4400  178.1200  145.6450 C   0  0  0  0  0  3  0  0  0  0  0  0
  188.2600  177.6760  139.5080 C   0  0  0  0  0  3  0  0  0  0  0  0
  191.1940  177.4730  140.6190 C   0  0  1  0  0  3  0  0  0  0  0  0
  189.5260  176.9690  145.0020 C   0  0  0  0  0  2  0  0  0  0  0  0
  190.1460  176.6830  142.6560 N   0  0  2  0  0  0  0  0  0  0  0  0
  192.7030  176.7560  138.7780 O   0  0  0  0  0  0  0  0  0  0  0  0
  193.0600  176.3870  137.4470 C   0  0  0  0  0  2  0  0  0  0  0  0
  196.0410  175.1940  136.8520 O   0  0  0  0  0  0  0  0  0  0  0  0
  194.5790  174.8710  138.6760 C   0  0  0  0  0  2  0  0  0  0  0  0
  193.7490  175.0320  137.4360 C   0  0  2  0  0  3  0  0  0  0  0  0
  195.9790  174.6700  138.1510 C   0  0  0  0  0  2  0  0  0  0  0  0
  194.7610  174.9890  136.3130 C   0  0  0  0  0  2  0  0  0  0  0  0
  1 26  1  1  0  0  0
  3  7  1  1  0  0  0
  3 16  1  0  0  0  0
  4 23  1  0  0  0  0
  5 15  1  0  0  0  0
  6  7  1  1  0  0  0
  6 19  1  0  0  0  0
  6  3  1  0  0  0  0
  9 27  1  0  0  0  0
 10 22  1  0  0  0  0
 10 17  2  0  0  0  0
 11 20  1  0  0  0  0
 11  5  1  0  0  0  0
 12  8  1  0  0  0  0
 13  9  1  0  0  0  0
 13 20  1  0  0  0  0
 14  2  1  0  0  0  0
 15  4  2  0  0  0  0
 15 12  1  0  0  0  0
 16  8  2  0  0  0  0
 17 25  1  0  0  0  0
 18  1  1  0  0  0  0
 18  4  1  0  0  0  0
 19  5  2  0  0  0  0
 19  3  1  0  0  0  0
 20 18  2  0  0  0  0
 22 24  2  0  0  0  0
 23 21  2  0  0  0  0
 24 13  1  0  0  0  0
 25  9  1  0  0  0  0
 25 14  1  0  0  0  0
 26 21  1  0  0  0  0
 27  2  1  0  0  0  0
 27  1  1  0  0  0  0
 28 17  1  0  0  0  0
 29 28  1  0  0  0  0
 30 33  1  0  0  0  0
 32 29  1  0  0  0  0
 32 31  1  0  0  0  0
 33 31  1  0  0  0  0
 34 30  1  0  0  0  0
 34 32  1  0  0  0  0
M  END
>  <MODEL>
8

>  <REMARK>
 VINA RESULT:      -9.7      3.621      6.256
  Name = 
  3 active torsions:
  status: ('A' for Active; 'I' for Inactive)
    1  A    between atoms: C_17  and  O_28
    2  A    between atoms: O_28  and  C_29
    3  A    between atoms: C_29  and  C_32
                            x       y       z     vdW  Elec       q    Type
                         _______ _______ _______ _____ _____    ______ ____

>  <TORSDO>
F 3

$$$$
=
 OpenBabel11122412023D

 34 42  0  0  1  0  0  0  0  0999 V2000
  186.9250  178.0030  140.8560 C   0  0  1  0  0  3  0  0  0  0  0  0
  187.7900  178.0780  138.6510 C   0  0  0  0  0  2  0  0  0  0  0  0
  187.5630  178.0580  147.6170 C   0  0  2  0  0  0  0  0  0  0  0  0
  186.2060  178.2370  143.3480 C   0  0  0  0  0  0  0  0  0  0  0  0
  187.8730  177.8770  145.0670 C   0  0  0  0  0  0  0  0  0  0  0  0
  189.4050  177.6200  147.1260 C   0  0  2  0  0  3  0  0  0  0  0  0
  188.7710  177.8290  148.3460 O   0  0  0  0  0  0  0  0  0  0  0  0
  185.2860  178.5090  146.9790 C   0  0  0  0  0  3  0  0  0  0  0  0
  189.3840  177.9600  140.3780 C   0  0  1  0  0  3  0  0  0  0  0  0
  192.2180  177.0860  140.0580 C   0  0  0  0  0  3  0  0  0  0  0  0
  188.8190  177.5920  144.0790 O   0  0  0  0  0  0  0  0  0  0  0  0
  185.3560  178.4470  145.6360 C   0  0  0  0  0  3  0  0  0  0  0  0
  189.4930  177.1890  141.6910 C   0  0  2  0  0  3  0  0  0  0  0  0
  189.0690  177.5200  138.0730 C   0  0  0  0  0  2  0  0  0  0  0  0
  186.4740  178.1910  144.6730 C   0  0  0  0  0  0  0  0  0  0  0  0
  186.3450  178.3340  147.9320 N   0  0  0  0  0  2  0  0  0  0  0  0
  191.3200  177.0490  139.0550 C   0  0  0  0  0  0  0  0  0  0  0  0
  187.2710  178.0050  142.3310 C   0  0  0  0  0  0  0  0  0  0  0  0
  188.2450  177.8490  146.3300 C   0  0  0  0  0  0  0  0  0  0  0  0
  188.4970  177.6390  142.7170 C   0  0  0  0  0  0  0  0  0  0  0  0
  184.5850  178.6860  141.5680 C   0  0  0  0  0  3  0  0  0  0  0  0
  192.0240  177.1830  141.5240 C   0  0  0  0  0  3  0  0  0  0  0  0
  184.8270  178.4330  142.8510 C   0  0  0  0  0  3  0  0  0  0  0  0
  190.8890  177.2490  142.2290 C   0  0  0  0  0  3  0  0  0  0  0  0
  189.8300  177.0350  139.2760 C   0  0  1  0  0  3  0  0  0  0  0  0
  185.7050  178.9030  140.5930 C   0  0  0  0  0  2  0  0  0  0  0  0
  188.0460  178.4910  140.0310 N   0  0  2  0  0  0  0  0  0  0  0  0
  191.7760  176.9470  137.7300 O   0  0  0  0  0  0  0  0  0  0  0  0
  193.0300  176.3780  137.3590 C   0  0  0  0  0  2  0  0  0  0  0  0
  194.3130  173.5320  136.4040 O   0  0  0  0  0  0  0  0  0  0  0  0
  192.0680  174.1980  136.6970 C   0  0  0  0  0  2  0  0  0  0  0  0
  192.8490  175.3870  136.2200 C   0  0  2  0  0  3  0  0  0  0  0  0
  193.0030  173.0350  136.4690 C   0  0  0  0  0  2  0  0  0  0  0  0
  194.1930  174.8090  135.8350 C   0  0  0  0  0  2  0  0  0  0  0  0
  1 26  1  1  0  0  0
  1 18  1  0  0  0  0
  2 27  1  0  0  0  0
  3 19  1  6  0  0  0
  3 16  1  0  0  0  0
  3  7  1  0  0  0  0
  4 15  2  0  0  0  0
  5 19  2  0  0  0  0
  6 19  1  6  0  0  0
  6  3  1  0  0  0  0
  6  7  1  0  0  0  0
  8 16  1  0  0  0  0
  9 13  1  0  0  0  0
 10 22  1  0  0  0  0
 11  5  1  0  0  0  0
 12  8  2  0  0  0  0
 13 24  1  0  0  0  0
 13 20  1  0  0  0  0
 14  2  1  0  0  0  0
 14 25  1  0  0  0  0
 15  5  1  0  0  0  0
 15 12  1  0  0  0  0
 17 25  1  0  0  0  0
 17 10  2  0  0  0  0
 18 20  2  0  0  0  0
 18  4  1  0  0  0  0
 20 11  1  0  0  0  0
 21 23  2  0  0  0  0
 22 24  2  0  0  0  0
 23  4  1  0  0  0  0
 25  9  1  0  0  0  0
 26 21  1  0  0  0  0
 27  9  1  0  0  0  0
 27  1  1  0  0  0  0
 28 17  1  0  0  0  0
 29 28  1  0  0  0  0
 30 33  1  0  0  0  0
 32 31  1  0  0  0  0
 32 29  1  0  0  0  0
 33 31  1  0  0  0  0
 34 32  1  0  0  0  0
 34 30  1  0  0  0  0
M  END
>  <MODEL>
9

>  <REMARK>
 VINA RESULT:      -9.3      3.107      4.164
  Name = 
  3 active torsions:
  status: ('A' for Active; 'I' for Inactive)
    1  A    between atoms: C_17  and  O_28
    2  A    between atoms: O_28  and  C_29
    3  A    between atoms: C_29  and  C_32
                            x       y       z     vdW  Elec       q    Type
                         _______ _______ _______ _____ _____    ______ ____

>  <TORSDO>
F 3

$$$$
