=
 OpenBabel11122411533D

 28 32  0  0  1  0  0  0  0  0999 V2000
  181.0940  179.0760  136.6400 C   0  0  0  0  0  0  0  0  0  0  0  0
  185.3580  178.4450  138.0910 O   0  0  0  0  0  0  0  0  0  0  0  0
  179.8680  175.1030  139.9720 C   0  0  0  0  0  2  0  0  0  0  0  0
  181.3270  181.5620  137.8430 C   0  0  0  0  0  3  0  0  0  0  0  0
  180.8330  177.8140  136.1090 O   0  0  0  0  0  0  0  0  0  0  0  0
  184.3380  180.4890  139.0110 O   0  0  0  0  0  0  0  0  0  0  0  0
  184.6280  179.0370  139.2630 S   0  0  0  0  0  0  0  0  0  0  0  0
  184.7290  179.1360  141.9780 C   0  0  2  0  0  3  0  0  0  0  0  0
  183.2040  178.1100  139.6180 N   0  0  1  0  0  0  0  0  0  0  0  0
  178.9450  174.7050  137.0730 C   0  0  0  0  0  1  0  0  0  0  0  0
  180.9490  177.4390  139.4230 C   0  0  2  0  0  3  0  0  0  0  0  0
  183.4940  178.2240  142.0240 C   0  0  0  0  0  2  0  0  0  0  0  0
  185.6080  178.8900  140.7460 C   0  0  0  0  0  2  0  0  0  0  0  0
  180.1520  175.6070  136.8700 C   0  0  2  0  0  3  0  0  0  0  0  0
  181.7040  179.2130  137.8980 C   0  0  0  0  0  0  0  0  0  0  0  0
  181.2660  175.1180  140.1480 O   0  0  0  0  0  0  0  0  0  0  0  0
  185.4880  178.9460  143.1320 O   0  0  0  0  0  1  0  0  0  0  0  0
  181.1520  175.4300  137.8620 O   0  0  0  0  0  0  0  0  0  0  0  0
  181.7460  180.4410  138.4880 N   0  0  0  0  0  0  0  0  0  0  0  0
  180.6800  180.2190  135.9540 C   0  0  0  0  0  3  0  0  0  0  0  0
  180.8040  181.4720  136.5520 C   0  0  0  0  0  3  0  0  0  0  0  0
  179.7430  177.0560  136.6180 C   0  0  0  0  0  2  0  0  0  0  0  0
  181.2600  177.7690  140.8940 C   0  0  1  0  0  3  0  0  0  0  0  0
  180.7520  175.9380  139.1240 C   0  0  1  0  0  0  0  0  0  0  0  0
  182.5740  178.5360  140.8480 C   0  0  2  0  0  3  0  0  0  0  0  0
  182.1360  177.9680  138.6310 C   0  0  1  0  0  3  0  0  0  0  0  0
  180.1520  178.6390  141.4610 C   0  0  0  0  0  2  0  0  0  0  0  0
  179.8990  178.2930  142.9170 C   0  0  0  0  0  1  0  0  0  0  0  0
  1 15  1  0  0  0  0
  2  7  2  0  0  0  0
  3 16  1  0  0  0  0
  4 19  1  0  0  0  0
  5 22  1  0  0  0  0
  5  1  1  0  0  0  0
  6  7  2  0  0  0  0
  7 13  1  0  0  0  0
  8 12  1  0  0  0  0
  8 17  1  1  0  0  0
  9  7  1  6  0  0  0
  9 25  1  0  0  0  0
 11 23  1  0  0  0  0
 13  8  1  0  0  0  0
 14 10  1  0  0  0  0
 14 18  1  0  0  0  0
 15 19  2  0  0  0  0
 15 26  1  0  0  0  0
 18 24  1  0  0  0  0
 20 21  1  0  0  0  0
 20  1  2  0  0  0  0
 21  4  2  0  0  0  0
 22 14  1  0  0  0  0
 23 27  1  0  0  0  0
 24 11  1  0  0  0  0
 24  3  1  0  0  0  0
 24 16  1  0  0  0  0
 25 23  1  0  0  0  0
 25 12  1  0  0  0  0
 26 11  1  0  0  0  0
 26  9  1  0  0  0  0
 27 28  1  0  0  0  0
M  END
>  <MODEL>
1

>  <REMARK>
 VINA RESULT:      -5.9      0.000      0.000
  Name = 
  1 active torsions:
  status: ('A' for Active; 'I' for Inactive)
    1  A    between atoms: C_5  and  C_24
                            x       y       z     vdW  Elec       q    Type
                         _______ _______ _______ _____ _____    ______ ____

>  <TORSDO>
F 1

$$$$
=
 OpenBabel11122411533D

 28 32  0  0  1  0  0  0  0  0999 V2000
  182.7080  174.9560  136.9610 C   0  0  0  0  0  0  0  0  0  0  0  0
  181.2110  178.7330  134.9170 O   0  0  0  0  0  0  0  0  0  0  0  0
  186.7800  177.9950  138.5610 C   0  0  0  0  0  2  0  0  0  0  0  0
  180.4160  175.1910  138.5020 C   0  0  0  0  0  3  0  0  0  0  0  0
  183.9390  174.8120  136.3250 O   0  0  0  0  0  0  0  0  0  0  0  0
  179.9090  178.1670  136.9300 O   0  0  0  0  0  0  0  0  0  0  0  0
  181.0430  178.9900  136.3880 S   0  0  0  0  0  0  0  0  0  0  0  0
  180.9080  181.0400  138.1680 C   0  0  2  0  0  3  0  0  0  0  0  0
  182.5400  178.7180  137.2230 N   0  0  1  0  0  0  0  0  0  0  0  0
  187.5730  175.4230  137.0880 C   0  0  0  0  0  1  0  0  0  0  0  0
  184.2120  177.4690  138.3250 C   0  0  2  0  0  3  0  0  0  0  0  0
  182.3010  180.6440  138.6790 C   0  0  0  0  0  2  0  0  0  0  0  0
  180.7010  180.7140  136.6840 C   0  0  0  0  0  2  0  0  0  0  0  0
  186.2020  175.6880  136.4880 C   0  0  2  0  0  3  0  0  0  0  0  0
  182.2940  176.2060  137.4510 C   0  0  0  0  0  0  0  0  0  0  0  0
  186.0950  178.9380  137.7710 O   0  0  0  0  0  0  0  0  0  0  0  0
  180.7090  182.4040  138.3740 O   0  0  0  0  0  1  0  0  0  0  0  0
  185.8770  177.0690  136.4320 O   0  0  0  0  0  0  0  0  0  0  0  0
  181.1970  176.2770  138.2570 N   0  0  0  0  0  0  0  0  0  0  0  0
  181.9040  173.8360  137.1830 C   0  0  0  0  0  3  0  0  0  0  0  0
  180.7450  173.9520  137.9500 C   0  0  0  0  0  3  0  0  0  0  0  0
  185.1280  174.7970  137.1050 C   0  0  0  0  0  2  0  0  0  0  0  0
  183.7740  178.6410  139.2220 C   0  0  1  0  0  3  0  0  0  0  0  0
  185.6240  177.6120  137.7170 C   0  0  1  0  0  0  0  0  0  0  0  0
  182.4690  179.1300  138.6070 C   0  0  2  0  0  3  0  0  0  0  0  0
  183.1780  177.4040  137.2110 C   0  0  1  0  0  3  0  0  0  0  0  0
  183.5440  178.1370  140.6360 C   0  0  0  0  0  2  0  0  0  0  0  0
  184.6450  178.6240  141.5590 C   0  0  0  0  0  1  0  0  0  0  0  0
  1 20  2  0  0  0  0
  1 15  1  0  0  0  0
  2  7  2  0  0  0  0
  5  1  1  0  0  0  0
  5 22  1  0  0  0  0
  7 13  1  0  0  0  0
  7  6  2  0  0  0  0
  8 17  1  6  0  0  0
  8 12  1  0  0  0  0
  9  7  1  1  0  0  0
  9 25  1  0  0  0  0
 11 23  1  0  0  0  0
 13  8  1  0  0  0  0
 14 10  1  0  0  0  0
 14 22  1  0  0  0  0
 15 19  2  0  0  0  0
 16  3  1  0  0  0  0
 18 14  1  0  0  0  0
 18 24  1  0  0  0  0
 19  4  1  0  0  0  0
 20 21  1  0  0  0  0
 21  4  2  0  0  0  0
 23 27  1  0  0  0  0
 24 16  1  0  0  0  0
 24 11  1  0  0  0  0
 24  3  1  0  0  0  0
 25 12  1  0  0  0  0
 25 23  1  0  0  0  0
 26  9  1  0  0  0  0
 26 15  1  0  0  0  0
 26 11  1  0  0  0  0
 27 28  1  0  0  0  0
M  END
>  <MODEL>
2

>  <REMARK>
 VINA RESULT:      -5.1      2.731      5.403
  Name = 
  1 active torsions:
  status: ('A' for Active; 'I' for Inactive)
    1  A    between atoms: C_5  and  C_24
                            x       y       z     vdW  Elec       q    Type
                         _______ _______ _______ _____ _____    ______ ____

>  <TORSDO>
F 1

$$$$
=
 OpenBabel11122411533D

 28 32  0  0  1  0  0  0  0  0999 V2000
  180.8940  179.1360  142.8090 C   0  0  0  0  0  0  0  0  0  0  0  0
  180.7960  175.2320  140.4790 O   0  0  0  0  0  0  0  0  0  0  0  0
  186.1060  179.1220  141.7070 C   0  0  0  0  0  2  0  0  0  0  0  0
  179.2840  180.0960  140.7670 C   0  0  0  0  0  3  0  0  0  0  0  0
  181.7900  178.7890  143.8180 O   0  0  0  0  0  0  0  0  0  0  0  0
  179.8070  177.1070  139.2250 O   0  0  0  0  0  0  0  0  0  0  0  0
  181.0510  176.2970  139.4500 S   0  0  0  0  0  0  0  0  0  0  0  0
  182.1700  176.6310  136.9940 C   0  0  2  0  0  3  0  0  0  0  0  0
  182.4180  177.2620  139.9070 N   0  0  1  0  0  0  0  0  0  0  0  0
  185.4040  179.3850  144.6820 C   0  0  0  0  0  1  0  0  0  0  0  0
  183.5720  179.0050  141.0060 C   0  0  2  0  0  3  0  0  0  0  0  0
  183.3270  177.3880  137.6610 C   0  0  0  0  0  2  0  0  0  0  0  0
  181.5520  175.5620  137.9040 C   0  0  0  0  0  2  0  0  0  0  0  0
  184.1910  178.6270  144.1650 C   0  0  2  0  0  3  0  0  0  0  0  0
  181.1660  178.8180  141.4670 C   0  0  0  0  0  0  0  0  0  0  0  0
  185.7520  177.8890  141.1250 O   0  0  0  0  0  0  0  0  0  0  0  0
  182.6230  176.0320  135.8200 O   0  0  0  0  0  1  0  0  0  0  0  0
  184.4890  177.7930  143.0560 O   0  0  0  0  0  0  0  0  0  0  0  0
  180.3910  179.3580  140.4850 N   0  0  0  0  0  0  0  0  0  0  0  0
  179.7490  179.8730  143.1180 C   0  0  0  0  0  3  0  0  0  0  0  0
  178.9310  180.3490  142.0930 C   0  0  0  0  0  3  0  0  0  0  0  0
  182.9850  179.5430  143.9780 C   0  0  0  0  0  2  0  0  0  0  0  0
  183.8700  179.0660  139.4960 C   0  0  1  0  0  3  0  0  0  0  0  0
  184.7560  178.5380  141.8800 C   0  0  1  0  0  0  0  0  0  0  0  0
  182.8090  178.1780  138.8590 C   0  0  2  0  0  3  0  0  0  0  0  0
  182.4120  178.0310  141.1500 C   0  0  1  0  0  3  0  0  0  0  0  0
  183.7310  180.4980  139.0110 C   0  0  0  0  0  2  0  0  0  0  0  0
  182.3330  180.7430  138.4750 C   0  0  0  0  0  1  0  0  0  0  0  0
  1 20  1  0  0  0  0
  1  5  1  0  0  0  0
  3 24  1  0  0  0  0
  4 21  1  0  0  0  0
  5 22  1  0  0  0  0
  6  7  2  0  0  0  0
  7  2  2  0  0  0  0
  8 17  1  6  0  0  0
  8 12  1  0  0  0  0
  8 13  1  0  0  0  0
  9  7  1  6  0  0  0
  9 26  1  0  0  0  0
 11 26  1  0  0  0  0
 11 24  1  0  0  0  0
 12 25  1  0  0  0  0
 13  7  1  0  0  0  0
 14 10  1  0  0  0  0
 15  1  2  0  0  0  0
 16  3  1  0  0  0  0
 16 24  1  0  0  0  0
 18 14  1  0  0  0  0
 19  4  2  0  0  0  0
 19 15  1  0  0  0  0
 21 20  2  0  0  0  0
 22 14  1  0  0  0  0
 23 11  1  0  0  0  0
 24 18  1  0  0  0  0
 25 23  1  0  0  0  0
 25  9  1  0  0  0  0
 26 15  1  0  0  0  0
 27 23  1  0  0  0  0
 28 27  1  0  0  0  0
M  END
>  <MODEL>
3

>  <REMARK>
 VINA RESULT:      -4.9      2.199      5.960
  Name = 
  1 active torsions:
  status: ('A' for Active; 'I' for Inactive)
    1  A    between atoms: C_5  and  C_24
                            x       y       z     vdW  Elec       q    Type
                         _______ _______ _______ _____ _____    ______ ____

>  <TORSDO>
F 1

$$$$
=
 OpenBabel11122411533D

 28 32  0  0  1  0  0  0  0  0999 V2000
  186.9840  176.3370  137.3660 C   0  0  0  0  0  0  0  0  0  0  0  0
  184.6100  177.8790  140.9250 O   0  0  0  0  0  0  0  0  0  0  0  0
  182.4780  173.8190  136.0460 C   0  0  0  0  0  2  0  0  0  0  0  0
  187.0830  179.0010  136.6060 C   0  0  0  0  0  3  0  0  0  0  0  0
  186.8930  174.9650  137.5940 O   0  0  0  0  0  0  0  0  0  0  0  0
  184.9860  179.6120  139.2160 O   0  0  0  0  0  0  0  0  0  0  0  0
  184.0260  178.5790  139.7310 S   0  0  0  0  0  0  0  0  0  0  0  0
  181.7210  179.7530  138.8950 C   0  0  2  0  0  3  0  0  0  0  0  0
  183.5590  177.4230  138.5240 N   0  0  1  0  0  0  0  0  0  0  0  0
  184.9590  172.0260  136.2600 C   0  0  0  0  0  1  0  0  0  0  0  0
  183.8470  175.9750  136.6810 C   0  0  2  0  0  3  0  0  0  0  0  0
  181.4890  178.5580  137.9600 C   0  0  0  0  0  2  0  0  0  0  0  0
  182.4930  179.3770  140.1660 C   0  0  0  0  0  2  0  0  0  0  0  0
  185.3260  173.1430  137.2240 C   0  0  2  0  0  3  0  0  0  0  0  0
  185.8500  177.1590  137.4720 C   0  0  0  0  0  0  0  0  0  0  0  0
  182.0630  174.3960  137.2620 O   0  0  0  0  0  0  0  0  0  0  0  0
  180.4930  180.3100  139.2480 O   0  0  0  0  0  1  0  0  0  0  0  0
  184.1960  173.7320  137.8480 O   0  0  0  0  0  0  0  0  0  0  0  0
  185.9170  178.4470  137.0320 N   0  0  0  0  0  0  0  0  0  0  0  0
  188.1960  176.8950  136.9530 C   0  0  0  0  0  3  0  0  0  0  0  0
  188.2520  178.2370  136.5800 C   0  0  0  0  0  3  0  0  0  0  0  0
  186.3090  174.1310  136.6020 C   0  0  0  0  0  2  0  0  0  0  0  0
  182.6780  176.9370  136.3990 C   0  0  1  0  0  3  0  0  0  0  0  0
  183.4300  174.5130  136.9450 C   0  0  1  0  0  0  0  0  0  0  0  0
  182.8270  178.0390  137.4400 C   0  0  2  0  0  3  0  0  0  0  0  0
  184.5460  176.5390  137.9090 C   0  0  1  0  0  3  0  0  0  0  0  0
  182.8190  177.5040  134.9970 C   0  0  0  0  0  2  0  0  0  0  0  0
  181.5570  178.2450  134.5950 C   0  0  0  0  0  1  0  0  0  0  0  0
  1 15  1  0  0  0  0
  1  5  1  0  0  0  0
  3 24  1  0  0  0  0
  3 16  1  0  0  0  0
  4 19  1  0  0  0  0
  6  7  2  0  0  0  0
  7 13  1  0  0  0  0
  7  2  2  0  0  0  0
  8 17  1  1  0  0  0
  8 13  1  0  0  0  0
  9  7  1  6  0  0  0
 10 14  1  0  0  0  0
 11 24  1  0  0  0  0
 11 26  1  0  0  0  0
 12  8  1  0  0  0  0
 14 18  1  0  0  0  0
 15 26  1  0  0  0  0
 19 15  2  0  0  0  0
 20  1  2  0  0  0  0
 21  4  2  0  0  0  0
 21 20  1  0  0  0  0
 22 14  1  0  0  0  0
 22  5  1  0  0  0  0
 23 11  1  0  0  0  0
 23 25  1  0  0  0  0
 24 16  1  0  0  0  0
 24 18  1  0  0  0  0
 25 12  1  0  0  0  0
 25  9  1  0  0  0  0
 26  9  1  0  0  0  0
 27 23  1  0  0  0  0
 28 27  1  0  0  0  0
M  END
>  <MODEL>
4

>  <REMARK>
 VINA RESULT:      -4.3      3.490      5.300
  Name = 
  1 active torsions:
  status: ('A' for Active; 'I' for Inactive)
    1  A    between atoms: C_5  and  C_24
                            x       y       z     vdW  Elec       q    Type
                         _______ _______ _______ _____ _____    ______ ____

>  <TORSDO>
F 1

$$$$
=
 OpenBabel11122411533D

 28 32  0  0  1  0  0  0  0  0999 V2000
  182.8700  176.4920  136.1240 C   0  0  0  0  0  0  0  0  0  0  0  0
  181.1580  180.6730  135.6000 O   0  0  0  0  0  0  0  0  0  0  0  0
  185.5860  178.6180  140.1840 C   0  0  0  0  0  2  0  0  0  0  0  0
  180.2600  175.7790  136.7280 C   0  0  0  0  0  3  0  0  0  0  0  0
  184.2250  176.7660  135.9510 O   0  0  0  0  0  0  0  0  0  0  0  0
  179.5330  179.1000  136.5750 O   0  0  0  0  0  0  0  0  0  0  0  0
  180.5540  180.1590  136.8760 S   0  0  0  0  0  0  0  0  0  0  0  0
  179.4980  181.0500  139.2170 C   0  0  2  0  0  3  0  0  0  0  0  0
  181.7990  179.6150  137.9560 N   0  0  1  0  0  0  0  0  0  0  0  0
  187.2960  177.1680  138.0890 C   0  0  0  0  0  1  0  0  0  0  0  0
  183.3570  178.1030  138.8830 C   0  0  2  0  0  3  0  0  0  0  0  0
  180.7580  180.5510  139.9380 C   0  0  0  0  0  2  0  0  0  0  0  0
  179.7690  181.4850  137.7720 C   0  0  0  0  0  2  0  0  0  0  0  0
  186.1080  177.6000  137.2440 C   0  0  2  0  0  3  0  0  0  0  0  0
  182.0720  177.3070  136.9450 C   0  0  0  0  0  0  0  0  0  0  0  0
  184.9410  179.7790  139.7150 O   0  0  0  0  0  0  0  0  0  0  0  0
  178.9510  182.1180  139.9260 O   0  0  0  0  0  1  0  0  0  0  0  0
  185.5080  178.8030  137.7010 O   0  0  0  0  0  0  0  0  0  0  0  0
  180.8150  176.8950  137.2720 N   0  0  0  0  0  0  0  0  0  0  0  0
  182.3090  175.3560  135.5380 C   0  0  0  0  0  3  0  0  0  0  0  0
  180.9930  174.9990  135.8310 C   0  0  0  0  0  3  0  0  0  0  0  0
  185.1380  176.4490  136.9950 C   0  0  0  0  0  2  0  0  0  0  0  0
  182.4470  178.6470  139.9980 C   0  0  1  0  0  3  0  0  0  0  0  0
  184.8100  178.6230  138.9220 C   0  0  1  0  0  0  0  0  0  0  0  0
  181.2760  179.2840  139.2620 C   0  0  2  0  0  3  0  0  0  0  0  0
  182.6960  178.5240  137.5790 C   0  0  1  0  0  3  0  0  0  0  0  0
  181.9700  177.4970  140.8680 C   0  0  0  0  0  2  0  0  0  0  0  0
  180.4690  177.3220  140.7400 C   0  0  0  0  0  1  0  0  0  0  0  0
  1 15  1  0  0  0  0
  2  7  2  0  0  0  0
  4 19  1  0  0  0  0
  5  1  1  0  0  0  0
  5 22  1  0  0  0  0
  6  7  2  0  0  0  0
  7 13  1  0  0  0  0
  8 17  1  1  0  0  0
  8 12  1  0  0  0  0
  9  7  1  6  0  0  0
  9 25  1  0  0  0  0
 11 24  1  0  0  0  0
 11 23  1  0  0  0  0
 13  8  1  0  0  0  0
 14 18  1  0  0  0  0
 14 10  1  0  0  0  0
 15 19  2  0  0  0  0
 15 26  1  0  0  0  0
 16  3  1  0  0  0  0
 18 24  1  0  0  0  0
 20 21  1  0  0  0  0
 20  1  2  0  0  0  0
 21  4  2  0  0  0  0
 22 14  1  0  0  0  0
 23 27  1  0  0  0  0
 24 16  1  0  0  0  0
 24  3  1  0  0  0  0
 25 12  1  0  0  0  0
 25 23  1  0  0  0  0
 26  9  1  0  0  0  0
 26 11  1  0  0  0  0
 28 27  1  0  0  0  0
M  END
>  <MODEL>
5

>  <REMARK>
 VINA RESULT:      -4.3      2.531      5.048
  Name = 
  1 active torsions:
  status: ('A' for Active; 'I' for Inactive)
    1  A    between atoms: C_5  and  C_24
                            x       y       z     vdW  Elec       q    Type
                         _______ _______ _______ _____ _____    ______ ____

>  <TORSDO>
F 1

$$$$
=
 OpenBabel11122411533D

 28 32  0  0  1  0  0  0  0  0999 V2000
  187.6620  177.2740  137.3640 C   0  0  0  0  0  0  0  0  0  0  0  0
  186.5210  172.9120  137.9650 O   0  0  0  0  0  0  0  0  0  0  0  0
  192.6570  175.5880  138.1350 C   0  0  0  0  0  2  0  0  0  0  0  0
  186.7020  176.9020  134.7910 C   0  0  0  0  0  3  0  0  0  0  0  0
  188.2730  177.5310  138.5900 O   0  0  0  0  0  0  0  0  0  0  0  0
  186.3610  173.6170  135.6100 O   0  0  0  0  0  0  0  0  0  0  0  0
  187.2290  172.9540  136.6400 S   0  0  0  0  0  0  0  0  0  0  0  0
  188.6590  171.3610  134.9630 C   0  0  2  0  0  3  0  0  0  0  0  0
  188.7810  173.7110  136.8100 N   0  0  1  0  0  0  0  0  0  0  0  0
  191.7590  177.8840  139.9620 C   0  0  0  0  0  1  0  0  0  0  0  0
  190.3230  175.4950  136.9210 C   0  0  2  0  0  3  0  0  0  0  0  0
  189.9210  172.1440  135.3500 C   0  0  0  0  0  2  0  0  0  0  0  0
  187.6220  171.3030  136.0920 C   0  0  0  0  0  2  0  0  0  0  0  0
  190.4280  177.2100  139.6690 C   0  0  2  0  0  3  0  0  0  0  0  0
  187.9570  176.1020  136.6470 C   0  0  0  0  0  0  0  0  0  0  0  0
  191.9770  174.3720  138.3410 O   0  0  0  0  0  0  0  0  0  0  0  0
  189.0120  170.0650  134.5940 O   0  0  0  0  0  1  0  0  0  0  0  0
  190.5490  175.8140  139.4430 O   0  0  0  0  0  0  0  0  0  0  0  0
  187.5220  175.9800  135.3620 N   0  0  0  0  0  0  0  0  0  0  0  0
  186.8020  178.2200  136.8020 C   0  0  0  0  0  3  0  0  0  0  0  0
  186.3090  178.0320  135.5110 C   0  0  0  0  0  3  0  0  0  0  0  0
  189.6260  177.9680  138.6150 C   0  0  0  0  0  2  0  0  0  0  0  0
  190.7890  174.4820  135.8590 C   0  0  1  0  0  3  0  0  0  0  0  0
  191.1780  175.5240  138.2060 C   0  0  1  0  0  0  0  0  0  0  0  0
  189.5690  173.6070  135.6020 C   0  0  2  0  0  3  0  0  0  0  0  0
  188.8960  175.0950  137.2630 C   0  0  1  0  0  3  0  0  0  0  0  0
  191.1910  175.2230  134.5960 C   0  0  0  0  0  2  0  0  0  0  0  0
  192.6090  175.7500  134.7200 C   0  0  0  0  0  1  0  0  0  0  0  0
  1  5  1  0  0  0  0
  3 24  1  0  0  0  0
  3 16  1  0  0  0  0
  4 19  2  0  0  0  0
  4 21  1  0  0  0  0
  5 22  1  0  0  0  0
  6  7  2  0  0  0  0
  7  2  2  0  0  0  0
  8 17  1  1  0  0  0
  8 12  1  0  0  0  0
  8 13  1  0  0  0  0
  9  7  1  6  0  0  0
  9 26  1  0  0  0  0
 11 26  1  0  0  0  0
 11 24  1  0  0  0  0
 12 25  1  0  0  0  0
 13  7  1  0  0  0  0
 14 10  1  0  0  0  0
 15 26  1  0  0  0  0
 15  1  2  0  0  0  0
 18 14  1  0  0  0  0
 19 15  1  0  0  0  0
 20  1  1  0  0  0  0
 21 20  2  0  0  0  0
 22 14  1  0  0  0  0
 23 11  1  0  0  0  0
 24 16  1  0  0  0  0
 24 18  1  0  0  0  0
 25 23  1  0  0  0  0
 25  9  1  0  0  0  0
 27 28  1  0  0  0  0
 27 23  1  0  0  0  0
M  END
>  <MODEL>
6

>  <REMARK>
 VINA RESULT:      -4.2      7.107      9.912
  Name = 
  1 active torsions:
  status: ('A' for Active; 'I' for Inactive)
    1  A    between atoms: C_5  and  C_24
                            x       y       z     vdW  Elec       q    Type
                         _______ _______ _______ _____ _____    ______ ____

>  <TORSDO>
F 1

$$$$
=
 OpenBabel11122411533D

 28 32  0  0  1  0  0  0  0  0999 V2000
  189.2980  175.2500  135.8640 C   0  0  0  0  0  0  0  0  0  0  0  0
  188.3700  177.0940  139.9160 O   0  0  0  0  0  0  0  0  0  0  0  0
  184.4510  173.0760  136.2650 C   0  0  0  0  0  2  0  0  0  0  0  0
  189.3180  177.8710  134.9640 C   0  0  0  0  0  3  0  0  0  0  0  0
  189.1960  173.8980  136.1880 O   0  0  0  0  0  0  0  0  0  0  0  0
  188.2670  178.7360  138.0830 O   0  0  0  0  0  0  0  0  0  0  0  0
  187.4670  177.8030  138.9460 S   0  0  0  0  0  0  0  0  0  0  0  0
  185.1010  179.1390  138.8590 C   0  0  2  0  0  3  0  0  0  0  0  0
  186.5440  176.6530  138.0320 N   0  0  1  0  0  0  0  0  0  0  0  0
  186.7310  171.0900  135.7430 C   0  0  0  0  0  1  0  0  0  0  0  0
  186.0970  175.1290  136.2840 C   0  0  2  0  0  3  0  0  0  0  0  0
  184.4880  177.9380  138.1250 C   0  0  0  0  0  2  0  0  0  0  0  0
  186.2270  178.7400  139.8200 C   0  0  0  0  0  2  0  0  0  0  0  0
  187.4760  172.2020  136.4650 C   0  0  2  0  0  3  0  0  0  0  0  0
  188.3250  176.1670  136.2950 C   0  0  0  0  0  0  0  0  0  0  0  0
  184.5090  173.7230  137.5140 O   0  0  0  0  0  0  0  0  0  0  0  0
  184.1040  179.8060  139.5680 O   0  0  0  0  0  1  0  0  0  0  0  0
  186.6640  172.9030  137.3940 O   0  0  0  0  0  0  0  0  0  0  0  0
  188.3270  177.4300  135.7840 N   0  0  0  0  0  0  0  0  0  0  0  0
  190.3360  175.6920  135.0410 C   0  0  0  0  0  3  0  0  0  0  0  0
  190.3550  177.0130  134.5940 C   0  0  0  0  0  3  0  0  0  0  0  0
  188.2570  173.0860  135.4960 C   0  0  0  0  0  2  0  0  0  0  0  0
  184.9700  176.1760  136.3520 C   0  0  1  0  0  3  0  0  0  0  0  0
  185.6950  173.7160  136.7540 C   0  0  1  0  0  0  0  0  0  0  0  0
  185.5340  177.2930  137.2200 C   0  0  2  0  0  3  0  0  0  0  0  0
  187.2050  175.6710  137.1750 C   0  0  1  0  0  3  0  0  0  0  0  0
  184.6690  176.6860  134.9530 C   0  0  0  0  0  2  0  0  0  0  0  0
  183.1730  176.8340  134.7530 C   0  0  0  0  0  1  0  0  0  0  0  0
  1  5  1  0  0  0  0
  1 15  1  0  0  0  0
  3 24  1  0  0  0  0
  3 16  1  0  0  0  0
  4 19  1  0  0  0  0
  6  7  2  0  0  0  0
  7 13  1  0  0  0  0
  7  2  2  0  0  0  0
  8 17  1  1  0  0  0
  8 13  1  0  0  0  0
  9  7  1  6  0  0  0
 10 14  1  0  0  0  0
 11 23  1  0  0  0  0
 11 24  1  0  0  0  0
 11 26  1  0  0  0  0
 12  8  1  0  0  0  0
 14 18  1  0  0  0  0
 15 26  1  0  0  0  0
 19 15  2  0  0  0  0
 20  1  2  0  0  0  0
 21  4  2  0  0  0  0
 21 20  1  0  0  0  0
 22  5  1  0  0  0  0
 22 14  1  0  0  0  0
 23 25  1  0  0  0  0
 24 18  1  0  0  0  0
 24 16  1  0  0  0  0
 25  9  1  0  0  0  0
 25 12  1  0  0  0  0
 26  9  1  0  0  0  0
 27 23  1  0  0  0  0
 28 27  1  0  0  0  0
M  END
>  <MODEL>
7

>  <REMARK>
 VINA RESULT:      -4.1      5.438      6.923
  Name = 
  1 active torsions:
  status: ('A' for Active; 'I' for Inactive)
    1  A    between atoms: C_5  and  C_24
                            x       y       z     vdW  Elec       q    Type
                         _______ _______ _______ _____ _____    ______ ____

>  <TORSDO>
F 1

$$$$
=
 OpenBabel11122411533D

 28 32  0  0  1  0  0  0  0  0999 V2000
  185.5790  176.9230  137.1840 C   0  0  0  0  0  0  0  0  0  0  0  0
  185.9270  172.4430  137.8870 O   0  0  0  0  0  0  0  0  0  0  0  0
  190.8150  177.0120  138.1670 C   0  0  0  0  0  2  0  0  0  0  0  0
  184.9020  176.2030  134.5940 C   0  0  0  0  0  3  0  0  0  0  0  0
  186.0200  177.3930  138.4200 O   0  0  0  0  0  0  0  0  0  0  0  0
  185.6380  173.0080  135.5070 O   0  0  0  0  0  0  0  0  0  0  0  0
  186.6350  172.6920  136.5850 S   0  0  0  0  0  0  0  0  0  0  0  0
  188.5780  171.6340  135.0060 C   0  0  2  0  0  3  0  0  0  0  0  0
  187.8390  173.9260  136.7800 N   0  0  1  0  0  0  0  0  0  0  0  0
  189.1330  178.9130  139.8900 C   0  0  0  0  0  1  0  0  0  0  0  0
  188.6960  176.1240  136.8830 C   0  0  2  0  0  3  0  0  0  0  0  0
  189.4930  172.7990  135.4080 C   0  0  0  0  0  2  0  0  0  0  0  0
  187.5750  171.2560  136.1030 C   0  0  0  0  0  2  0  0  0  0  0  0
  188.1130  177.8290  139.5770 C   0  0  2  0  0  3  0  0  0  0  0  0
  186.2760  175.9030  136.5140 C   0  0  0  0  0  0  0  0  0  0  0  0
  190.5690  175.6430  138.3900 O   0  0  0  0  0  0  0  0  0  0  0  0
  189.3570  170.5220  134.6900 O   0  0  0  0  0  1  0  0  0  0  0  0
  188.7000  176.5490  139.4000 O   0  0  0  0  0  0  0  0  0  0  0  0
  185.9580  175.6180  135.2200 N   0  0  0  0  0  0  0  0  0  0  0  0
  184.4780  177.5180  136.5650 C   0  0  0  0  0  3  0  0  0  0  0  0
  184.1290  177.1510  135.2660 C   0  0  0  0  0  3  0  0  0  0  0  0
  187.1490  178.2560  138.4740 C   0  0  0  0  0  2  0  0  0  0  0  0
  189.5140  175.3020  135.8700 C   0  0  1  0  0  3  0  0  0  0  0  0
  189.4390  176.4600  138.1930 C   0  0  1  0  0  0  0  0  0  0  0  0
  188.6650  174.0660  135.6020 C   0  0  2  0  0  3  0  0  0  0  0  0
  187.4700  175.2780  137.1920 C   0  0  1  0  0  3  0  0  0  0  0  0
  189.6990  176.1100  134.5970 C   0  0  0  0  0  2  0  0  0  0  0  0
  189.1370  177.5090  134.7710 C   0  0  0  0  0  1  0  0  0  0  0  0
  1  5  1  0  0  0  0
  3 24  1  0  0  0  0
  3 16  1  0  0  0  0
  4 19  2  0  0  0  0
  4 21  1  0  0  0  0
  5 22  1  0  0  0  0
  6  7  2  0  0  0  0
  7  2  2  0  0  0  0
  8 17  1  1  0  0  0
  8 12  1  0  0  0  0
  8 13  1  0  0  0  0
  9  7  1  6  0  0  0
  9 26  1  0  0  0  0
 11 26  1  0  0  0  0
 11 24  1  0  0  0  0
 12 25  1  0  0  0  0
 13  7  1  0  0  0  0
 14 10  1  0  0  0  0
 15  1  2  0  0  0  0
 15 26  1  0  0  0  0
 18 14  1  0  0  0  0
 19 15  1  0  0  0  0
 20  1  1  0  0  0  0
 21 20  2  0  0  0  0
 22 14  1  0  0  0  0
 23 11  1  0  0  0  0
 24 16  1  0  0  0  0
 24 18  1  0  0  0  0
 25 23  1  0  0  0  0
 25  9  1  0  0  0  0
 27 28  1  0  0  0  0
 27 23  1  0  0  0  0
M  END
>  <MODEL>
8

>  <REMARK>
 VINA RESULT:      -3.9      6.140      8.719
  Name = 
  1 active torsions:
  status: ('A' for Active; 'I' for Inactive)
    1  A    between atoms: C_5  and  C_24
                            x       y       z     vdW  Elec       q    Type
                         _______ _______ _______ _____ _____    ______ ____

>  <TORSDO>
F 1

$$$$
=
 OpenBabel11122411533D

 28 32  0  0  1  0  0  0  0  0999 V2000
  180.5160  175.8240  139.1250 C   0  0  0  0  0  0  0  0  0  0  0  0
  179.3400  179.2820  136.4150 O   0  0  0  0  0  0  0  0  0  0  0  0
  185.5100  177.0220  137.7080 C   0  0  0  0  0  2  0  0  0  0  0  0
  179.4810  177.4020  141.1550 C   0  0  0  0  0  3  0  0  0  0  0  0
  181.1640  175.0060  138.2010 O   0  0  0  0  0  0  0  0  0  0  0  0
  179.1240  179.8370  138.8040 O   0  0  0  0  0  0  0  0  0  0  0  0
  180.0130  179.9210  137.5970 S   0  0  0  0  0  0  0  0  0  0  0  0
  181.3770  182.1700  138.2850 C   0  0  2  0  0  3  0  0  0  0  0  0
  181.5780  179.2170  137.8540 N   0  0  1  0  0  0  0  0  0  0  0  0
  184.6900  174.1020  137.2490 C   0  0  0  0  0  1  0  0  0  0  0  0
  183.1430  177.6510  138.6720 C   0  0  2  0  0  3  0  0  0  0  0  0
  182.6590  181.3290  138.3620 C   0  0  0  0  0  2  0  0  0  0  0  0
  180.3710  181.6340  137.2580 C   0  0  0  0  0  2  0  0  0  0  0  0
  183.3430  174.8000  137.1430 C   0  0  2  0  0  3  0  0  0  0  0  0
  180.7780  177.2040  139.1700 C   0  0  0  0  0  0  0  0  0  0  0  0
  184.8220  177.9590  136.9120 O   0  0  0  0  0  0  0  0  0  0  0  0
  181.7040  183.4870  137.9670 O   0  0  0  0  0  1  0  0  0  0  0  0
  183.4420  176.1260  136.6480 O   0  0  0  0  0  0  0  0  0  0  0  0
  180.3050  177.9380  140.2160 N   0  0  0  0  0  0  0  0  0  0  0  0
  179.6530  175.2620  140.0670 C   0  0  0  0  0  3  0  0  0  0  0  0
  179.1220  176.0550  141.0850 C   0  0  0  0  0  3  0  0  0  0  0  0
  182.5220  174.6480  138.4210 C   0  0  0  0  0  2  0  0  0  0  0  0
  183.5670  179.0680  139.0980 C   0  0  1  0  0  3  0  0  0  0  0  0
  184.0330  177.0080  137.5880 C   0  0  1  0  0  0  0  0  0  0  0  0
  182.3310  179.9260  138.8640 C   0  0  2  0  0  3  0  0  0  0  0  0
  181.7210  177.7940  138.1510 C   0  0  1  0  0  3  0  0  0  0  0  0
  183.9440  179.0630  140.5690 C   0  0  0  0  0  2  0  0  0  0  0  0
  185.4510  179.0020  140.7300 C   0  0  0  0  0  1  0  0  0  0  0  0
  1 15  2  0  0  0  0
  1 20  1  0  0  0  0
  2  7  2  0  0  0  0
  5 22  1  0  0  0  0
  5  1  1  0  0  0  0
  7  6  2  0  0  0  0
  8 17  1  6  0  0  0
  8 12  1  0  0  0  0
  9  7  1  1  0  0  0
  9 26  1  0  0  0  0
  9 25  1  0  0  0  0
 11 23  1  0  0  0  0
 12 25  1  0  0  0  0
 13  7  1  0  0  0  0
 13  8  1  0  0  0  0
 14 10  1  0  0  0  0
 14 22  1  0  0  0  0
 15 19  1  0  0  0  0
 16 24  1  0  0  0  0
 16  3  1  0  0  0  0
 18 14  1  0  0  0  0
 18 24  1  0  0  0  0
 19  4  2  0  0  0  0
 20 21  2  0  0  0  0
 21  4  1  0  0  0  0
 23 27  1  0  0  0  0
 24  3  1  0  0  0  0
 24 11  1  0  0  0  0
 25 23  1  0  0  0  0
 26 11  1  0  0  0  0
 26 15  1  0  0  0  0
 27 28  1  0  0  0  0
M  END
>  <MODEL>
9

>  <REMARK>
 VINA RESULT:      -3.9      2.355      4.884
  Name = 
  1 active torsions:
  status: ('A' for Active; 'I' for Inactive)
    1  A    between atoms: C_5  and  C_24
                            x       y       z     vdW  Elec       q    Type
                         _______ _______ _______ _____ _____    ______ ____

>  <TORSDO>
F 1

$$$$
