=
 OpenBabel11122411523D

 28 31  0  0  1  0  0  0  0  0999 V2000
  180.9500  178.3930  137.9040 C   0  0  0  0  0  0  0  0  0  0  0  0
  184.5300  180.1130  139.1290 O   0  0  0  0  0  0  0  0  0  0  0  0
  179.7690  178.6810  140.4270 C   0  0  0  0  0  3  0  0  0  0  0  0
  181.5440  178.2390  136.6520 O   0  0  0  0  0  0  0  0  0  0  0  0
  184.8650  178.2420  140.6990 O   0  0  0  0  0  0  0  0  0  0  0  0
  184.9400  178.6740  139.2610 S   0  0  0  0  0  0  0  0  0  0  0  0
  186.5070  178.0550  137.1260 C   0  0  1  0  0  3  0  0  0  0  0  0
  183.9420  177.6490  138.2210 C   0  0  1  0  0  3  0  0  0  0  0  0
  178.9370  176.3620  136.0640 C   0  0  0  0  0  1  0  0  0  0  0  0
  182.6470  175.5970  138.2240 C   0  0  2  0  0  3  0  0  0  0  0  0
  185.7420  176.8980  136.7710 O   0  0  0  0  0  0  0  0  0  0  0  0
  186.5880  178.4240  138.6250 C   0  0  0  0  0  2  0  0  0  0  0  0
  180.3160  176.5170  135.4420 C   0  0  2  0  0  3  0  0  0  0  0  0
  181.5560  177.8120  139.0340 C   0  0  0  0  0  0  0  0  0  0  0  0
  187.9070  177.9240  136.5630 C   0  0  0  0  0  1  0  0  0  0  0  0
  181.3490  175.5140  135.9780 C   0  0  0  0  0  2  0  0  0  0  0  0
  180.9570  177.9580  140.2900 C   0  0  0  0  0  3  0  0  0  0  0  0
  179.7520  179.1080  138.0470 C   0  0  0  0  0  3  0  0  0  0  0  0
  179.1650  179.2540  139.3060 C   0  0  0  0  0  3  0  0  0  0  0  0
  180.7950  177.9700  135.4750 C   0  0  0  0  0  2  0  0  0  0  0  0
  183.8880  175.4110  137.3470 C   0  0  1  0  0  3  0  0  0  0  0  0
  181.3060  175.3310  137.5050 C   0  0  1  0  0  3  0  0  0  0  0  0
  184.8340  176.5130  137.7850 C   0  0  2  0  0  3  0  0  0  0  0  0
  182.7960  176.9610  138.9300 C   0  0  2  0  0  3  0  0  0  0  0  0
  180.0120  174.2010  138.9010 C   0  0  0  0  0  1  0  0  0  0  0  0
  180.8610  174.0430  137.8050 O   0  0  0  0  0  0  0  0  0  0  0  0
  184.4990  174.0430  137.6010 C   0  0  0  0  0  2  0  0  0  0  0  0
  184.0680  173.0630  136.5280 C   0  0  0  0  0  1  0  0  0  0  0  0
  1 18  2  0  0  0  0
  1 14  1  0  0  0  0
  2  6  2  0  0  0  0
  4  1  1  0  0  0  0
  6  5  2  0  0  0  0
  7 15  1  1  0  0  0
  7 12  1  0  0  0  0
  8 24  1  0  0  0  0
  8  6  1  1  0  0  0
 10 24  1  0  0  0  0
 11  7  1  0  0  0  0
 11 23  1  0  0  0  0
 12  6  1  0  0  0  0
 13 20  1  0  0  0  0
 13 16  1  0  0  0  0
 13  9  1  0  0  0  0
 14 17  2  0  0  0  0
 16 22  1  0  0  0  0
 17  3  1  0  0  0  0
 18 19  1  0  0  0  0
 19  3  2  0  0  0  0
 20  4  1  0  0  0  0
 21 27  1  0  0  0  0
 21 23  1  0  0  0  0
 21 10  1  0  0  0  0
 22 26  1  0  0  0  0
 22 10  1  0  0  0  0
 23  8  1  0  0  0  0
 24 14  1  0  0  0  0
 26 25  1  0  0  0  0
 28 27  1  0  0  0  0
M  END
>  <MODEL>
1

>  <REMARK>
 VINA RESULT:      -4.4      0.000      0.000
  Name = 
  2 active torsions:
  status: ('A' for Active; 'I' for Inactive)
    1  A    between atoms: C_5  and  C_24
    2  A    between atoms: O_17  and  C_25
                            x       y       z     vdW  Elec       q    Type
                         _______ _______ _______ _____ _____    ______ ____

>  <TORSDO>
F 2

$$$$
=
 OpenBabel11122411523D

 28 31  0  0  1  0  0  0  0  0999 V2000
  182.3420  176.1470  138.6670 C   0  0  0  0  0  0  0  0  0  0  0  0
  185.4630  177.5420  141.0320 O   0  0  0  0  0  0  0  0  0  0  0  0
  183.6180  176.8750  136.2820 C   0  0  0  0  0  3  0  0  0  0  0  0
  181.7030  175.7970  139.8560 O   0  0  0  0  0  0  0  0  0  0  0  0
  185.0210  179.8290  140.2240 O   0  0  0  0  0  0  0  0  0  0  0  0
  184.5640  178.7390  141.1540 S   0  0  0  0  0  0  0  0  0  0  0  0
  183.3740  178.6430  143.5980 C   0  0  1  0  0  3  0  0  0  0  0  0
  182.8820  178.2840  140.8450 C   0  0  1  0  0  3  0  0  0  0  0  0
  179.1240  175.3580  137.9010 C   0  0  0  0  0  1  0  0  0  0  0  0
  180.9120  178.9550  139.5990 C   0  0  2  0  0  3  0  0  0  0  0  0
  182.0510  178.7920  143.0720 O   0  0  0  0  0  0  0  0  0  0  0  0
  184.5270  179.3350  142.8350 C   0  0  0  0  0  2  0  0  0  0  0  0
  179.3210  175.5720  139.3930 C   0  0  2  0  0  3  0  0  0  0  0  0
  182.7240  177.4850  138.4540 C   0  0  0  0  0  0  0  0  0  0  0  0
  183.3920  179.0830  145.0460 C   0  0  0  0  0  1  0  0  0  0  0  0
  179.1780  177.0380  139.8290 C   0  0  0  0  0  2  0  0  0  0  0  0
  183.3570  177.8400  137.2580 C   0  0  0  0  0  3  0  0  0  0  0  0
  182.5970  175.1850  137.6790 C   0  0  0  0  0  3  0  0  0  0  0  0
  183.2360  175.5480  136.4910 C   0  0  0  0  0  3  0  0  0  0  0  0
  180.6000  174.9020  139.8990 C   0  0  0  0  0  2  0  0  0  0  0  0
  180.6610  179.1670  141.0950 C   0  0  1  0  0  3  0  0  0  0  0  0
  179.8850  178.0370  138.8980 C   0  0  1  0  0  3  0  0  0  0  0  0
  182.0460  179.1900  141.7140 C   0  0  2  0  0  3  0  0  0  0  0  0
  182.4000  178.5770  139.4420 C   0  0  2  0  0  3  0  0  0  0  0  0
  179.5960  179.3460  137.1370 C   0  0  0  0  0  1  0  0  0  0  0  0
  178.9310  178.8160  138.2430 O   0  0  0  0  0  0  0  0  0  0  0  0
  179.9480  180.4900  141.3160 C   0  0  0  0  0  2  0  0  0  0  0  0
  178.9480  180.3700  142.4480 C   0  0  0  0  0  1  0  0  0  0  0  0
  1  4  1  0  0  0  0
  2  6  2  0  0  0  0
  3 19  2  0  0  0  0
  3 17  1  0  0  0  0
  4 20  1  0  0  0  0
  5  6  2  0  0  0  0
  6 12  1  0  0  0  0
  7 15  1  1  0  0  0
  8  6  1  6  0  0  0
  8 23  1  0  0  0  0
  9 13  1  0  0  0  0
 10 21  1  0  0  0  0
 11  7  1  0  0  0  0
 12  7  1  0  0  0  0
 13 16  1  0  0  0  0
 13 20  1  0  0  0  0
 14  1  1  0  0  0  0
 14 24  1  0  0  0  0
 17 14  2  0  0  0  0
 18  1  2  0  0  0  0
 19 18  1  0  0  0  0
 21 27  1  0  0  0  0
 21 23  1  0  0  0  0
 22 10  1  0  0  0  0
 22 16  1  0  0  0  0
 23 11  1  0  0  0  0
 24 10  1  0  0  0  0
 24  8  1  0  0  0  0
 25 26  1  0  0  0  0
 26 22  1  0  0  0  0
 27 28  1  0  0  0  0
M  END
>  <MODEL>
2

>  <REMARK>
 VINA RESULT:      -4.4      2.331      5.374
  Name = 
  2 active torsions:
  status: ('A' for Active; 'I' for Inactive)
    1  A    between atoms: C_5  and  C_24
    2  A    between atoms: O_17  and  C_25
                            x       y       z     vdW  Elec       q    Type
                         _______ _______ _______ _____ _____    ______ ____

>  <TORSDO>
F 2

$$$$
=
 OpenBabel11122411523D

 28 31  0  0  1  0  0  0  0  0999 V2000
  183.6630  176.1410  137.9720 C   0  0  0  0  0  0  0  0  0  0  0  0
  184.5600  177.4300  141.8200 O   0  0  0  0  0  0  0  0  0  0  0  0
  186.2010  176.8040  136.9910 C   0  0  0  0  0  3  0  0  0  0  0  0
  182.3950  175.8240  138.4590 O   0  0  0  0  0  0  0  0  0  0  0  0
  184.8210  179.7280  140.9640 O   0  0  0  0  0  0  0  0  0  0  0  0
  183.8360  178.6620  141.3560 S   0  0  0  0  0  0  0  0  0  0  0  0
  181.3460  178.6270  142.4500 C   0  0  1  0  0  3  0  0  0  0  0  0
  182.7380  178.2700  140.0250 C   0  0  1  0  0  3  0  0  0  0  0  0
  181.6790  175.4710  135.2920 C   0  0  0  0  0  1  0  0  0  0  0  0
  182.0640  179.0080  137.8140 C   0  0  2  0  0  3  0  0  0  0  0  0
  180.6820  178.8230  141.1970 O   0  0  0  0  0  0  0  0  0  0  0  0
  182.7410  179.2690  142.6270 C   0  0  0  0  0  2  0  0  0  0  0  0
  180.8720  175.6860  136.5630 C   0  0  2  0  0  3  0  0  0  0  0  0
  184.1360  177.4630  138.0820 C   0  0  0  0  0  0  0  0  0  0  0  0
  180.4380  179.0750  143.5760 C   0  0  0  0  0  1  0  0  0  0  0  0
  180.5290  177.1600  136.8320 C   0  0  0  0  0  2  0  0  0  0  0  0
  185.4040  177.7850  137.5860 C   0  0  0  0  0  3  0  0  0  0  0  0
  184.4630  175.1630  137.3630 C   0  0  0  0  0  3  0  0  0  0  0  0
  185.7300  175.4940  136.8770 C   0  0  0  0  0  3  0  0  0  0  0  0
  181.4970  174.9720  137.7620 C   0  0  0  0  0  2  0  0  0  0  0  0
  180.9130  179.2380  138.7980 C   0  0  1  0  0  3  0  0  0  0  0  0
  181.7030  178.1250  136.5980 C   0  0  1  0  0  3  0  0  0  0  0  0
  181.5690  179.2120  140.1660 C   0  0  2  0  0  3  0  0  0  0  0  0
  183.2870  178.5720  138.6480 C   0  0  2  0  0  3  0  0  0  0  0  0
  180.0450  178.8310  135.3130 C   0  0  0  0  0  1  0  0  0  0  0  0
  181.4250  178.9360  135.4970 O   0  0  0  0  0  0  0  0  0  0  0  0
  180.2710  180.5900  138.5320 C   0  0  0  0  0  2  0  0  0  0  0  0
  181.3310  181.6280  138.2240 C   0  0  0  0  0  1  0  0  0  0  0  0
  1 14  1  0  0  0  0
  1  4  1  0  0  0  0
  3 17  1  0  0  0  0
  5  6  2  0  0  0  0
  6  2  2  0  0  0  0
  6 12  1  0  0  0  0
  7 12  1  0  0  0  0
  7 15  1  1  0  0  0
  8 23  1  0  0  0  0
  8  6  1  1  0  0  0
  9 13  1  0  0  0  0
 10 24  1  0  0  0  0
 10 21  1  0  0  0  0
 11  7  1  0  0  0  0
 13 16  1  0  0  0  0
 13 20  1  0  0  0  0
 14 24  1  0  0  0  0
 17 14  2  0  0  0  0
 18  1  2  0  0  0  0
 19  3  2  0  0  0  0
 19 18  1  0  0  0  0
 20  4  1  0  0  0  0
 21 23  1  0  0  0  0
 22 16  1  0  0  0  0
 22 10  1  0  0  0  0
 23 11  1  0  0  0  0
 24  8  1  0  0  0  0
 25 26  1  0  0  0  0
 26 22  1  0  0  0  0
 27 21  1  0  0  0  0
 28 27  1  0  0  0  0
M  END
>  <MODEL>
3

>  <REMARK>
 VINA RESULT:      -4.4      1.863      5.335
  Name = 
  2 active torsions:
  status: ('A' for Active; 'I' for Inactive)
    1  A    between atoms: C_5  and  C_24
    2  A    between atoms: O_17  and  C_25
                            x       y       z     vdW  Elec       q    Type
                         _______ _______ _______ _____ _____    ______ ____

>  <TORSDO>
F 2

$$$$
=
 OpenBabel11122411523D

 28 31  0  0  1  0  0  0  0  0999 V2000
  180.5850  179.3480  139.3740 C   0  0  0  0  0  0  0  0  0  0  0  0
  179.6100  177.8930  135.6050 O   0  0  0  0  0  0  0  0  0  0  0  0
  180.1510  182.0120  138.6290 C   0  0  0  0  0  3  0  0  0  0  0  0
  180.8130  178.0220  139.7400 O   0  0  0  0  0  0  0  0  0  0  0  0
  181.5550  179.0830  134.6680 O   0  0  0  0  0  0  0  0  0  0  0  0
  181.1040  177.8800  135.4480 S   0  0  0  0  0  0  0  0  0  0  0  0
  181.9480  175.3080  135.7110 C   0  0  1  0  0  3  0  0  0  0  0  0
  181.8910  177.7980  137.0300 C   0  0  1  0  0  3  0  0  0  0  0  0
  182.1440  179.3780  142.3960 C   0  0  0  0  0  1  0  0  0  0  0  0
  183.6600  178.8100  138.3470 C   0  0  2  0  0  3  0  0  0  0  0  0
  182.9270  175.6230  136.7050 O   0  0  0  0  0  0  0  0  0  0  0  0
  181.6430  176.3830  134.6420 C   0  0  0  0  0  2  0  0  0  0  0  0
  182.2350  178.0200  141.7190 C   0  0  2  0  0  3  0  0  0  0  0  0
  181.3030  179.9020  138.2970 C   0  0  0  0  0  0  0  0  0  0  0  0
  182.3250  174.0100  135.0270 C   0  0  0  0  0  1  0  0  0  0  0  0
  183.4310  177.8880  140.7630 C   0  0  0  0  0  2  0  0  0  0  0  0
  181.0820  181.2350  137.9340 C   0  0  0  0  0  3  0  0  0  0  0  0
  179.6600  180.1360  140.0740 C   0  0  0  0  0  3  0  0  0  0  0  0
  179.4420  181.4640  139.7000 C   0  0  0  0  0  3  0  0  0  0  0  0
  180.9010  177.6050  141.0960 C   0  0  0  0  0  2  0  0  0  0  0  0
  184.0530  177.3730  137.9910 C   0  0  1  0  0  3  0  0  0  0  0  0
  183.6460  179.1160  139.8620 C   0  0  1  0  0  3  0  0  0  0  0  0
  183.1620  177.0140  136.8170 C   0  0  2  0  0  3  0  0  0  0  0  0
  182.3690  179.1300  137.5640 C   0  0  2  0  0  3  0  0  0  0  0  0
  185.5100  178.8290  141.0210 C   0  0  0  0  0  1  0  0  0  0  0  0
  184.8350  179.7520  140.2220 O   0  0  0  0  0  0  0  0  0  0  0  0
  185.5180  177.3230  137.5940 C   0  0  0  0  0  2  0  0  0  0  0  0
  185.6670  177.5030  136.0960 C   0  0  0  0  0  1  0  0  0  0  0  0
  1  4  1  0  0  0  0
  1 18  1  0  0  0  0
  3 19  1  0  0  0  0
  4 20  1  0  0  0  0
  5  6  2  0  0  0  0
  6  2  2  0  0  0  0
  7 15  1  6  0  0  0
  7 11  1  0  0  0  0
  8  6  1  6  0  0  0
  8 24  1  0  0  0  0
 10 22  1  0  0  0  0
 11 23  1  0  0  0  0
 12  6  1  0  0  0  0
 12  7  1  0  0  0  0
 13  9  1  0  0  0  0
 14  1  2  0  0  0  0
 16 13  1  0  0  0  0
 17 14  1  0  0  0  0
 17  3  2  0  0  0  0
 19 18  2  0  0  0  0
 20 13  1  0  0  0  0
 21 10  1  0  0  0  0
 22 26  1  0  0  0  0
 22 16  1  0  0  0  0
 23  8  1  0  0  0  0
 23 21  1  0  0  0  0
 24 14  1  0  0  0  0
 24 10  1  0  0  0  0
 26 25  1  0  0  0  0
 27 21  1  0  0  0  0
 28 27  1  0  0  0  0
M  END
>  <MODEL>
4

>  <REMARK>
 VINA RESULT:      -4.2      2.258      4.941
  Name = 
  2 active torsions:
  status: ('A' for Active; 'I' for Inactive)
    1  A    between atoms: C_5  and  C_24
    2  A    between atoms: O_17  and  C_25
                            x       y       z     vdW  Elec       q    Type
                         _______ _______ _______ _____ _____    ______ ____

>  <TORSDO>
F 2

$$$$
=
 OpenBabel11122411523D

 28 31  0  0  1  0  0  0  0  0999 V2000
  187.4530  175.4070  136.6000 C   0  0  0  0  0  0  0  0  0  0  0  0
  189.6380  177.2200  139.6360 O   0  0  0  0  0  0  0  0  0  0  0  0
  189.1730  176.3350  134.5950 C   0  0  0  0  0  3  0  0  0  0  0  0
  186.5900  174.9570  137.5990 O   0  0  0  0  0  0  0  0  0  0  0  0
  189.0920  179.4260  138.6790 O   0  0  0  0  0  0  0  0  0  0  0  0
  188.5760  178.2730  139.4930 S   0  0  0  0  0  0  0  0  0  0  0  0
  186.8310  177.9810  141.5590 C   0  0  1  0  0  3  0  0  0  0  0  0
  187.1110  177.5800  138.7830 C   0  0  1  0  0  3  0  0  0  0  0  0
  184.6820  174.1650  135.0700 C   0  0  0  0  0  1  0  0  0  0  0  0
  185.4460  177.9680  137.0620 C   0  0  2  0  0  3  0  0  0  0  0  0
  185.6780  177.9410  140.7130 O   0  0  0  0  0  0  0  0  0  0  0  0
  188.0290  178.8410  141.0930 C   0  0  0  0  0  2  0  0  0  0  0  0
  184.4610  174.3900  136.5580 C   0  0  2  0  0  3  0  0  0  0  0  0
  187.6800  176.7890  136.4530 C   0  0  0  0  0  0  0  0  0  0  0  0
  186.4180  178.4060  142.9530 C   0  0  0  0  0  1  0  0  0  0  0  0
  184.0030  175.8160  136.9020 C   0  0  0  0  0  2  0  0  0  0  0  0
  188.5380  177.2430  135.4460 C   0  0  0  0  0  3  0  0  0  0  0  0
  188.0850  174.5010  135.7370 C   0  0  0  0  0  3  0  0  0  0  0  0
  188.9450  174.9640  134.7390 C   0  0  0  0  0  3  0  0  0  0  0  0
  185.6520  173.9100  137.3880 C   0  0  0  0  0  2  0  0  0  0  0  0
  184.7960  178.1270  138.4400 C   0  0  1  0  0  3  0  0  0  0  0  0
  184.7730  176.9160  136.1510 C   0  0  1  0  0  3  0  0  0  0  0  0
  185.9600  178.3460  139.3870 C   0  0  2  0  0  3  0  0  0  0  0  0
  186.9630  177.8120  137.2960 C   0  0  2  0  0  3  0  0  0  0  0  0
  182.6300  177.2180  135.6860 C   0  0  0  0  0  1  0  0  0  0  0  0
  183.9140  177.5540  135.2550 O   0  0  0  0  0  0  0  0  0  0  0  0
  183.8680  179.3300  138.4360 C   0  0  0  0  0  2  0  0  0  0  0  0
  182.5750  179.0040  139.1580 C   0  0  0  0  0  1  0  0  0  0  0  0
  1  4  1  0  0  0  0
  3 19  2  0  0  0  0
  3 17  1  0  0  0  0
  5  6  2  0  0  0  0
  6  2  2  0  0  0  0
  6 12  1  0  0  0  0
  7 15  1  1  0  0  0
  8 23  1  0  0  0  0
  8  6  1  1  0  0  0
  9 13  1  0  0  0  0
 10 24  1  0  0  0  0
 10 21  1  0  0  0  0
 11  7  1  0  0  0  0
 12  7  1  0  0  0  0
 13 16  1  0  0  0  0
 13 20  1  0  0  0  0
 14  1  1  0  0  0  0
 14 24  1  0  0  0  0
 17 14  2  0  0  0  0
 18  1  2  0  0  0  0
 19 18  1  0  0  0  0
 20  4  1  0  0  0  0
 21 23  1  0  0  0  0
 22 16  1  0  0  0  0
 22 10  1  0  0  0  0
 23 11  1  0  0  0  0
 24  8  1  0  0  0  0
 26 25  1  0  0  0  0
 26 22  1  0  0  0  0
 27 21  1  0  0  0  0
 27 28  1  0  0  0  0
M  END
>  <MODEL>
5

>  <REMARK>
 VINA RESULT:      -3.9      2.557      6.139
  Name = 
  2 active torsions:
  status: ('A' for Active; 'I' for Inactive)
    1  A    between atoms: C_5  and  C_24
    2  A    between atoms: O_17  and  C_25
                            x       y       z     vdW  Elec       q    Type
                         _______ _______ _______ _____ _____    ______ ____

>  <TORSDO>
F 2

$$$$
=
 OpenBabel11122411523D

 28 31  0  0  1  0  0  0  0  0999 V2000
  186.2780  174.6980  136.6860 C   0  0  0  0  0  0  0  0  0  0  0  0
  187.0780  177.9200  139.1870 O   0  0  0  0  0  0  0  0  0  0  0  0
  187.8210  175.7390  134.5940 C   0  0  0  0  0  3  0  0  0  0  0  0
  185.4990  174.1880  137.7240 O   0  0  0  0  0  0  0  0  0  0  0  0
  185.9010  179.4060  137.6110 O   0  0  0  0  0  0  0  0  0  0  0  0
  185.7340  178.3760  138.6930 S   0  0  0  0  0  0  0  0  0  0  0  0
  183.9170  177.8990  140.6590 C   0  0  1  0  0  3  0  0  0  0  0  0
  184.7810  176.9940  138.1330 C   0  0  1  0  0  3  0  0  0  0  0  0
  184.4800  172.1000  135.4300 C   0  0  0  0  0  1  0  0  0  0  0  0
  183.4020  176.2370  136.2870 C   0  0  2  0  0  3  0  0  0  0  0  0
  183.0220  177.1870  139.7990 O   0  0  0  0  0  0  0  0  0  0  0  0
  184.7570  179.0350  140.0310 C   0  0  0  0  0  2  0  0  0  0  0  0
  183.9480  172.5650  136.7760 C   0  0  2  0  0  3  0  0  0  0  0  0
  185.9830  175.9710  136.1620 C   0  0  0  0  0  0  0  0  0  0  0  0
  183.1500  178.4380  141.8490 C   0  0  0  0  0  1  0  0  0  0  0  0
  182.9330  173.7140  136.6720 C   0  0  0  0  0  2  0  0  0  0  0  0
  186.7580  176.4810  135.1140 C   0  0  0  0  0  3  0  0  0  0  0  0
  187.3390  173.9530  136.1530 C   0  0  0  0  0  3  0  0  0  0  0  0
  188.1110  174.4740  135.1120 C   0  0  0  0  0  3  0  0  0  0  0  0
  185.0780  172.8320  137.7720 C   0  0  0  0  0  2  0  0  0  0  0  0
  182.5230  176.4420  137.5240 C   0  0  1  0  0  3  0  0  0  0  0  0
  183.3390  174.8170  135.6810 C   0  0  1  0  0  3  0  0  0  0  0  0
  183.3430  177.3400  138.4300 C   0  0  2  0  0  3  0  0  0  0  0  0
  184.8030  176.7800  136.6360 C   0  0  2  0  0  3  0  0  0  0  0  0
  181.3470  174.0960  135.0370 C   0  0  0  0  0  1  0  0  0  0  0  0
  182.4620  174.8100  134.5950 O   0  0  0  0  0  0  0  0  0  0  0  0
  181.2220  177.1180  137.1270 C   0  0  0  0  0  2  0  0  0  0  0  0
  181.4790  178.5470  136.6910 C   0  0  0  0  0  1  0  0  0  0  0  0
  1  4  1  0  0  0  0
  3 19  2  0  0  0  0
  3 17  1  0  0  0  0
  4 20  1  0  0  0  0
  5  6  2  0  0  0  0
  6  2  2  0  0  0  0
  6 12  1  0  0  0  0
  7 15  1  1  0  0  0
  8 23  1  0  0  0  0
  8  6  1  6  0  0  0
  9 13  1  0  0  0  0
 10 24  1  0  0  0  0
 10 21  1  0  0  0  0
 11  7  1  0  0  0  0
 12  7  1  0  0  0  0
 13 20  1  0  0  0  0
 14 24  1  0  0  0  0
 14  1  1  0  0  0  0
 16 13  1  0  0  0  0
 17 14  2  0  0  0  0
 18  1  2  0  0  0  0
 19 18  1  0  0  0  0
 21 23  1  0  0  0  0
 22 10  1  0  0  0  0
 22 16  1  0  0  0  0
 23 11  1  0  0  0  0
 24  8  1  0  0  0  0
 26 25  1  0  0  0  0
 26 22  1  0  0  0  0
 27 21  1  0  0  0  0
 28 27  1  0  0  0  0
M  END
>  <MODEL>
6

>  <REMARK>
 VINA RESULT:      -3.8      2.266      5.528
  Name = 
  2 active torsions:
  status: ('A' for Active; 'I' for Inactive)
    1  A    between atoms: C_5  and  C_24
    2  A    between atoms: O_17  and  C_25
                            x       y       z     vdW  Elec       q    Type
                         _______ _______ _______ _____ _____    ______ ____

>  <TORSDO>
F 2

$$$$
=
 OpenBabel11122411523D

 28 31  0  0  1  0  0  0  0  0999 V2000
  185.6070  175.8120  135.5350 C   0  0  0  0  0  0  0  0  0  0  0  0
  181.4850  175.7190  136.0570 O   0  0  0  0  0  0  0  0  0  0  0  0
  185.9030  173.0980  136.1580 C   0  0  0  0  0  3  0  0  0  0  0  0
  185.4590  177.1660  135.2380 O   0  0  0  0  0  0  0  0  0  0  0  0
  181.8220  175.1880  138.4410 O   0  0  0  0  0  0  0  0  0  0  0  0
  181.8470  176.2760  137.4040 S   0  0  0  0  0  0  0  0  0  0  0  0
  181.3150  178.9430  137.3730 C   0  0  1  0  0  3  0  0  0  0  0  0
  183.4250  177.0740  137.3380 C   0  0  1  0  0  3  0  0  0  0  0  0
  188.7140  177.1940  135.5020 C   0  0  0  0  0  1  0  0  0  0  0  0
  185.5490  177.2240  138.5010 C   0  0  2  0  0  3  0  0  0  0  0  0
  182.6180  179.3120  137.8380 O   0  0  0  0  0  0  0  0  0  0  0  0
  180.7380  177.5950  137.8630 C   0  0  0  0  0  2  0  0  0  0  0  0
  187.6190  178.2480  135.5540 C   0  0  2  0  0  3  0  0  0  0  0  0
  185.1550  175.3220  136.7750 C   0  0  0  0  0  0  0  0  0  0  0  0
  180.3360  180.0550  137.6880 C   0  0  0  0  0  1  0  0  0  0  0  0
  187.1550  178.5820  136.9800 C   0  0  0  0  0  2  0  0  0  0  0  0
  185.3110  173.9650  137.0790 C   0  0  0  0  0  3  0  0  0  0  0  0
  186.2100  174.9380  134.6190 C   0  0  0  0  0  3  0  0  0  0  0  0
  186.3550  173.5840  134.9290 C   0  0  0  0  0  3  0  0  0  0  0  0
  186.4730  177.9260  134.5940 C   0  0  0  0  0  2  0  0  0  0  0  0
  184.7970  178.5510  138.6460 C   0  0  1  0  0  3  0  0  0  0  0  0
  186.9560  177.3480  137.8760 C   0  0  1  0  0  3  0  0  0  0  0  0
  183.3540  178.2080  138.3300 C   0  0  2  0  0  3  0  0  0  0  0  0
  184.5780  176.2290  137.8320 C   0  0  2  0  0  3  0  0  0  0  0  0
  188.5020  178.6160  138.8270 C   0  0  0  0  0  1  0  0  0  0  0  0
  187.9190  177.3490  138.8870 O   0  0  0  0  0  0  0  0  0  0  0  0
  184.9310  179.0660  140.0690 C   0  0  0  0  0  2  0  0  0  0  0  0
  184.0360  178.2770  141.0050 C   0  0  0  0  0  1  0  0  0  0  0  0
  1 14  1  0  0  0  0
  2  6  2  0  0  0  0
  3 17  1  0  0  0  0
  4  1  1  0  0  0  0
  6 12  1  0  0  0  0
  6  5  2  0  0  0  0
  7 15  1  1  0  0  0
  7 11  1  0  0  0  0
  7 12  1  0  0  0  0
  8  6  1  1  0  0  0
  8 24  1  0  0  0  0
  8 23  1  0  0  0  0
  9 13  1  0  0  0  0
 10 21  1  0  0  0  0
 11 23  1  0  0  0  0
 13 16  1  0  0  0  0
 14 17  2  0  0  0  0
 14 24  1  0  0  0  0
 16 22  1  0  0  0  0
 18 19  1  0  0  0  0
 18  1  2  0  0  0  0
 19  3  2  0  0  0  0
 20  4  1  0  0  0  0
 20 13  1  0  0  0  0
 21 27  1  0  0  0  0
 22 10  1  0  0  0  0
 22 26  1  0  0  0  0
 23 21  1  0  0  0  0
 24 10  1  0  0  0  0
 25 26  1  0  0  0  0
 27 28  1  0  0  0  0
M  END
>  <MODEL>
7

>  <REMARK>
 VINA RESULT:      -3.8      2.178      6.381
  Name = 
  2 active torsions:
  status: ('A' for Active; 'I' for Inactive)
    1  A    between atoms: C_5  and  C_24
    2  A    between atoms: O_17  and  C_25
                            x       y       z     vdW  Elec       q    Type
                         _______ _______ _______ _____ _____    ______ ____

>  <TORSDO>
F 2

$$$$
=
 OpenBabel11122411523D

 28 31  0  0  1  0  0  0  0  0999 V2000
  187.5360  174.8860  135.5550 C   0  0  0  0  0  0  0  0  0  0  0  0
  183.5740  174.0790  134.5940 O   0  0  0  0  0  0  0  0  0  0  0  0
  187.9180  172.3830  136.7520 C   0  0  0  0  0  3  0  0  0  0  0  0
  187.3400  176.1370  134.9700 O   0  0  0  0  0  0  0  0  0  0  0  0
  183.0440  173.9380  136.9980 O   0  0  0  0  0  0  0  0  0  0  0  0
  183.3220  174.8660  135.8480 S   0  0  0  0  0  0  0  0  0  0  0  0
  182.5050  177.3560  135.1190 C   0  0  1  0  0  3  0  0  0  0  0  0
  184.6900  175.9350  136.1920 C   0  0  1  0  0  3  0  0  0  0  0  0
  190.2170  176.8180  136.3570 C   0  0  0  0  0  1  0  0  0  0  0  0
  186.1730  176.6370  137.9790 C   0  0  2  0  0  3  0  0  0  0  0  0
  183.4740  178.0230  135.9340 O   0  0  0  0  0  0  0  0  0  0  0  0
  181.9630  175.9990  135.6230 C   0  0  0  0  0  2  0  0  0  0  0  0
  189.0600  177.6420  135.8160 C   0  0  2  0  0  3  0  0  0  0  0  0
  186.7140  174.4860  136.6250 C   0  0  0  0  0  0  0  0  0  0  0  0
  181.3460  178.2920  134.8470 C   0  0  0  0  0  1  0  0  0  0  0  0
  188.0490  178.0650  136.8930 C   0  0  0  0  0  2  0  0  0  0  0  0
  186.9150  173.2350  137.2190 C   0  0  0  0  0  3  0  0  0  0  0  0
  188.5490  174.0310  135.0980 C   0  0  0  0  0  3  0  0  0  0  0  0
  188.7370  172.7820  135.6930 C   0  0  0  0  0  3  0  0  0  0  0  0
  188.4170  176.9850  134.5940 C   0  0  0  0  0  2  0  0  0  0  0  0
  185.2600  177.8040  137.5910 C   0  0  1  0  0  3  0  0  0  0  0  0
  187.6850  176.9440  137.8800 C   0  0  1  0  0  3  0  0  0  0  0  0
  184.1020  177.1540  136.8570 C   0  0  2  0  0  3  0  0  0  0  0  0
  185.6670  175.3970  137.2140 C   0  0  2  0  0  3  0  0  0  0  0  0
  188.5210  178.6120  139.0710 C   0  0  0  0  0  1  0  0  0  0  0  0
  188.1820  177.2610  139.1450 O   0  0  0  0  0  0  0  0  0  0  0  0
  184.7750  178.5170  138.8420 C   0  0  0  0  0  2  0  0  0  0  0  0
  183.5770  177.7980  139.4300 C   0  0  0  0  0  1  0  0  0  0  0  0
  1 14  1  0  0  0  0
  2  6  2  0  0  0  0
  3 17  1  0  0  0  0
  4  1  1  0  0  0  0
  6  5  2  0  0  0  0
  7 15  1  1  0  0  0
  7 12  1  0  0  0  0
  7 11  1  0  0  0  0
  8  6  1  1  0  0  0
  8 23  1  0  0  0  0
  8 24  1  0  0  0  0
 11 23  1  0  0  0  0
 12  6  1  0  0  0  0
 13  9  1  0  0  0  0
 13 16  1  0  0  0  0
 14 24  1  0  0  0  0
 14 17  2  0  0  0  0
 16 22  1  0  0  0  0
 18  1  2  0  0  0  0
 18 19  1  0  0  0  0
 19  3  2  0  0  0  0
 20  4  1  0  0  0  0
 20 13  1  0  0  0  0
 21 10  1  0  0  0  0
 21 27  1  0  0  0  0
 22 10  1  0  0  0  0
 22 26  1  0  0  0  0
 23 21  1  0  0  0  0
 24 10  1  0  0  0  0
 25 26  1  0  0  0  0
 27 28  1  0  0  0  0
M  END
>  <MODEL>
8

>  <REMARK>
 VINA RESULT:      -3.6      2.768      7.168
  Name = 
  2 active torsions:
  status: ('A' for Active; 'I' for Inactive)
    1  A    between atoms: C_5  and  C_24
    2  A    between atoms: O_17  and  C_25
                            x       y       z     vdW  Elec       q    Type
                         _______ _______ _______ _____ _____    ______ ____

>  <TORSDO>
F 2

$$$$
=
 OpenBabel11122411523D

 28 31  0  0  1  0  0  0  0  0999 V2000
  191.5180  174.6790  137.6150 C   0  0  0  0  0  0  0  0  0  0  0  0
  191.9140  175.9710  141.5450 O   0  0  0  0  0  0  0  0  0  0  0  0
  194.1080  175.4860  136.9240 C   0  0  0  0  0  3  0  0  0  0  0  0
  190.2230  174.2890  137.9570 O   0  0  0  0  0  0  0  0  0  0  0  0
  192.1440  178.2880  140.7350 O   0  0  0  0  0  0  0  0  0  0  0  0
  191.1810  177.1680  141.0110 S   0  0  0  0  0  0  0  0  0  0  0  0
  188.5910  176.9890  141.8230 C   0  0  1  0  0  3  0  0  0  0  0  0
  190.2590  176.7330  139.5650 C   0  0  1  0  0  3  0  0  0  0  0  0
  189.8790  173.9350  134.7290 C   0  0  0  0  0  1  0  0  0  0  0  0
  189.7930  177.4580  137.2970 C   0  0  2  0  0  3  0  0  0  0  0  0
  188.0590  177.1640  140.5050 O   0  0  0  0  0  0  0  0  0  0  0  0
  189.9210  177.7020  142.1560 C   0  0  0  0  0  2  0  0  0  0  0  0
  188.9270  174.0920  135.9040 C   0  0  2  0  0  3  0  0  0  0  0  0
  191.9030  176.0220  137.7840 C   0  0  0  0  0  0  0  0  0  0  0  0
  187.5420  177.3760  142.8440 C   0  0  0  0  0  1  0  0  0  0  0  0
  188.4780  175.5430  136.1410 C   0  0  0  0  0  2  0  0  0  0  0  0
  193.1990  176.4170  137.4320 C   0  0  0  0  0  3  0  0  0  0  0  0
  192.4310  173.7520  137.0940 C   0  0  0  0  0  3  0  0  0  0  0  0
  193.7240  174.1550  136.7520 C   0  0  0  0  0  3  0  0  0  0  0  0
  189.4540  173.3990  137.1610 C   0  0  0  0  0  2  0  0  0  0  0  0
  188.5300  177.6170  138.1490 C   0  0  1  0  0  3  0  0  0  0  0  0
  189.6170  176.5710  136.0440 C   0  0  1  0  0  3  0  0  0  0  0  0
  189.0320  177.6100  139.5800 C   0  0  2  0  0  3  0  0  0  0  0  0
  190.9390  177.0790  138.2590 C   0  0  2  0  0  3  0  0  0  0  0  0
  188.0700  177.2190  134.5990 C   0  0  0  0  0  1  0  0  0  0  0  0
  189.4180  177.3790  134.9230 O   0  0  0  0  0  0  0  0  0  0  0  0
  187.8490  178.9350  137.8210 C   0  0  0  0  0  2  0  0  0  0  0  0
  186.3840  178.7090  137.5040 C   0  0  0  0  0  1  0  0  0  0  0  0
  1 14  1  0  0  0  0
  1  4  1  0  0  0  0
  3 17  1  0  0  0  0
  5  6  2  0  0  0  0
  6  2  2  0  0  0  0
  6 12  1  0  0  0  0
  7 12  1  0  0  0  0
  7 15  1  1  0  0  0
  8 23  1  0  0  0  0
  8  6  1  1  0  0  0
  9 13  1  0  0  0  0
 10 21  1  0  0  0  0
 10 24  1  0  0  0  0
 11  7  1  0  0  0  0
 13 16  1  0  0  0  0
 13 20  1  0  0  0  0
 14 24  1  0  0  0  0
 17 14  2  0  0  0  0
 18  1  2  0  0  0  0
 19  3  2  0  0  0  0
 19 18  1  0  0  0  0
 20  4  1  0  0  0  0
 21 23  1  0  0  0  0
 22 16  1  0  0  0  0
 22 10  1  0  0  0  0
 23 11  1  0  0  0  0
 24  8  1  0  0  0  0
 25 26  1  0  0  0  0
 26 22  1  0  0  0  0
 27 21  1  0  0  0  0
 28 27  1  0  0  0  0
M  END
>  <MODEL>
9

>  <REMARK>
 VINA RESULT:      -3.6      5.594      9.144
  Name = 
  2 active torsions:
  status: ('A' for Active; 'I' for Inactive)
    1  A    between atoms: C_5  and  C_24
    2  A    between atoms: O_17  and  C_25
                            x       y       z     vdW  Elec       q    Type
                         _______ _______ _______ _____ _____    ______ ____

>  <TORSDO>
F 2

$$$$
