=
 OpenBabel11122412143D

 34 41  0  0  1  0  0  0  0  0999 V2000
  184.4620  178.5680  144.4420 C   0  0  0  0  0  0  0  0  0  0  0  0
  182.3420  179.0450  143.3570 C   0  0  0  0  0  3  0  0  0  0  0  0
  190.8800  178.0760  144.4090 C   0  0  2  0  0  3  0  0  0  0  0  0
  186.6930  178.0470  145.3200 C   0  0  0  0  0  0  0  0  0  0  0  0
  188.5290  177.7770  143.8150 C   0  0  0  0  0  0  0  0  0  0  0  0
  190.6870  177.8050  142.3090 C   0  0  0  0  0  2  0  0  0  0  0  0
  191.8030  178.2910  143.2290 C   0  0  0  0  0  2  0  0  0  0  0  0
  190.0210  176.6100  146.2280 C   0  0  0  0  0  2  0  0  0  0  0  0
  184.1120  178.7780  142.0890 C   0  0  0  0  0  0  0  0  0  0  0  0
  184.1820  179.0730  138.9720 C   0  0  0  0  0  2  0  0  0  0  0  0
  187.6840  177.9920  142.7240 C   0  0  0  0  0  3  0  0  0  0  0  0
  188.8990  177.6660  146.3140 C   0  0  0  0  0  2  0  0  0  0  0  0
  185.4720  178.5020  141.8080 C   0  0  0  0  0  0  0  0  0  0  0  0
  181.9080  179.1820  142.0480 C   0  0  0  0  0  3  0  0  0  0  0  0
  188.0280  177.7820  145.1100 N   0  0  0  0  0  0  0  0  0  0  0  0
  191.2930  177.1510  145.5370 C   0  0  0  0  0  2  0  0  0  0  0  0
  182.9910  178.9940  139.8020 N   0  0  0  0  0  0  0  0  0  0  0  0
  185.8290  178.2910  144.2260 C   0  0  0  0  0  0  0  0  0  0  0  0
  189.9290  177.3220  143.5310 C   0  0  1  0  0  3  0  0  0  0  0  0
  186.3310  178.2650  142.9090 C   0  0  0  0  0  0  0  0  0  0  0  0
  184.7970  178.3540  146.8310 C   0  0  0  0  0  3  0  0  0  0  0  0
  185.1680  177.9970  139.3540 C   0  0  0  0  0  2  0  0  0  0  0  0
  186.1510  178.0830  146.6210 C   0  0  0  0  0  3  0  0  0  0  0  0
  186.0670  178.5670  140.4260 C   0  0  0  0  0  2  0  0  0  0  0  0
  183.0300  179.0200  141.2440 C   0  0  0  0  0  0  0  0  0  0  0  0
  183.9550  178.5950  145.7470 C   0  0  0  0  0  3  0  0  0  0  0  0
  183.6660  178.7960  143.3620 N   0  0  0  0  0  0  0  0  0  0  0  0
  181.7180  178.8820  139.1020 C   0  0  0  0  0  2  0  0  0  0  0  0
  181.6090  179.9570  138.0310 C   0  0  0  0  0  2  0  0  0  0  0  0
  179.5160  182.6230  137.7110 N   0  0  0  0  0  2  0  0  0  0  0  0
  180.0680  181.1910  139.5380 C   0  0  0  0  0  2  0  0  0  0  0  0
  181.2930  181.3010  138.6620 C   0  0  2  0  0  3  0  0  0  0  0  0
  179.1700  182.3190  139.0900 C   0  0  0  0  0  2  0  0  0  0  0  0
  180.9290  182.2970  137.5790 C   0  0  0  0  0  2  0  0  0  0  0  0
  1 26  1  0  0  0  0
  2 27  1  0  0  0  0
  3  7  1  6  0  0  0
  3 16  1  0  0  0  0
  4 23  2  0  0  0  0
  5 15  1  0  0  0  0
  6  7  1  0  0  0  0
  8 12  1  0  0  0  0
  9 27  1  0  0  0  0
 10 22  1  0  0  0  0
 10 17  1  0  0  0  0
 11 20  1  0  0  0  0
 11  5  2  0  0  0  0
 13  9  1  0  0  0  0
 13 20  2  0  0  0  0
 14  2  2  0  0  0  0
 15  4  1  0  0  0  0
 15 12  1  0  0  0  0
 16  8  1  0  0  0  0
 17 25  1  0  0  0  0
 18  1  2  0  0  0  0
 18  4  1  0  0  0  0
 19  6  1  6  0  0  0
 19  5  1  0  0  0  0
 19  3  1  0  0  0  0
 20 18  1  0  0  0  0
 22 24  1  0  0  0  0
 23 21  1  0  0  0  0
 24 13  1  0  0  0  0
 25 14  1  0  0  0  0
 25  9  2  0  0  0  0
 26 21  2  0  0  0  0
 27  1  1  0  0  0  0
 28 17  1  0  0  0  0
 29 28  1  0  0  0  0
 30 33  1  0  0  0  0
 32 29  1  6  0  0  0
 32 31  1  0  0  0  0
 33 31  1  0  0  0  0
 34 30  1  0  0  0  0
 34 32  1  0  0  0  0
M  END
>  <MODEL>
1

>  <REMARK>
 VINA RESULT:     -10.0      0.000      0.000
  Name = 
  3 active torsions:
  status: ('A' for Active; 'I' for Inactive)
    1  A    between atoms: N_17  and  C_28
    2  A    between atoms: C_28  and  C_29
    3  A    between atoms: C_29  and  C_32
                            x       y       z     vdW  Elec       q    Type
                         _______ _______ _______ _____ _____    ______ ____

>  <TORSDO>
F 3

$$$$
=
 OpenBabel11122412143D

 34 41  0  0  1  0  0  0  0  0999 V2000
  185.4540  178.3490  145.1080 C   0  0  0  0  0  0  0  0  0  0  0  0
  183.0990  178.9390  145.0590 C   0  0  0  0  0  3  0  0  0  0  0  0
  191.1670  177.5180  142.2580 C   0  0  2  0  0  3  0  0  0  0  0  0
  187.8170  177.7100  144.9240 C   0  0  0  0  0  0  0  0  0  0  0  0
  188.7830  177.3440  142.7700 C   0  0  0  0  0  0  0  0  0  0  0  0
  190.0520  177.2580  140.4660 C   0  0  0  0  0  2  0  0  0  0  0  0
  191.4820  177.6830  140.7880 C   0  0  0  0  0  2  0  0  0  0  0  0
  191.1300  176.0980  144.3020 C   0  0  0  0  0  2  0  0  0  0  0  0
  184.1120  178.5790  143.1470 C   0  0  0  0  0  0  0  0  0  0  0  0
  182.8120  178.8710  140.3140 C   0  0  0  0  0  2  0  0  0  0  0  0
  187.5550  177.6040  142.1580 C   0  0  0  0  0  3  0  0  0  0  0  0
  190.2130  177.2120  144.8510 C   0  0  0  0  0  2  0  0  0  0  0  0
  185.1930  178.2320  142.3010 C   0  0  0  0  0  0  0  0  0  0  0  0
  182.1390  179.0990  144.0740 C   0  0  0  0  0  3  0  0  0  0  0  0
  188.9070  177.3750  144.1520 N   0  0  0  0  0  0  0  0  0  0  0  0
  191.9900  176.5710  143.1090 C   0  0  0  0  0  2  0  0  0  0  0  0
  182.1080  178.8560  141.5850 N   0  0  0  0  0  0  0  0  0  0  0  0
  186.5710  178.0010  144.3180 C   0  0  0  0  0  0  0  0  0  0  0  0
  189.8900  176.8150  141.9080 C   0  0  1  0  0  3  0  0  0  0  0  0
  186.4370  177.9480  142.9160 C   0  0  0  0  0  0  0  0  0  0  0  0
  186.8010  178.1170  147.1080 C   0  0  0  0  0  3  0  0  0  0  0  0
  183.8120  177.7440  140.2450 C   0  0  0  0  0  2  0  0  0  0  0  0
  187.9080  177.7740  146.3290 C   0  0  0  0  0  3  0  0  0  0  0  0
  185.1180  178.2650  140.7970 C   0  0  0  0  0  2  0  0  0  0  0  0
  182.7810  178.8780  142.8600 C   0  0  0  0  0  0  0  0  0  0  0  0
  185.5790  178.4030  146.5020 C   0  0  0  0  0  3  0  0  0  0  0  0
  184.2760  178.6200  144.4850 N   0  0  0  0  0  0  0  0  0  0  0  0
  180.6530  178.8120  141.5220 C   0  0  0  0  0  2  0  0  0  0  0  0
  180.1850  178.9050  140.0770 C   0  0  0  0  0  2  0  0  0  0  0  0
  180.7020  175.6380  139.2700 N   0  0  0  0  0  2  0  0  0  0  0  0
  179.3050  176.7230  140.8720 C   0  0  0  0  0  2  0  0  0  0  0  0
  179.4330  177.6460  139.6840 C   0  0  2  0  0  3  0  0  0  0  0  0
  179.7910  175.3830  140.3740 C   0  0  0  0  0  2  0  0  0  0  0  0
  180.2380  176.8750  138.6560 C   0  0  0  0  0  2  0  0  0  0  0  0
  1 26  1  0  0  0  0
  3  7  1  6  0  0  0
  3 16  1  0  0  0  0
  4 23  2  0  0  0  0
  5 15  1  0  0  0  0
  6  7  1  0  0  0  0
  8 12  1  0  0  0  0
  9 27  1  0  0  0  0
 10 17  1  0  0  0  0
 11  5  2  0  0  0  0
 11 20  1  0  0  0  0
 13 20  2  0  0  0  0
 13  9  1  0  0  0  0
 14  2  2  0  0  0  0
 15 12  1  0  0  0  0
 15  4  1  0  0  0  0
 16  8  1  0  0  0  0
 17 25  1  0  0  0  0
 18  4  1  0  0  0  0
 18  1  2  0  0  0  0
 19  6  1  6  0  0  0
 19  3  1  0  0  0  0
 19  5  1  0  0  0  0
 20 18  1  0  0  0  0
 22 10  1  0  0  0  0
 22 24  1  0  0  0  0
 23 21  1  0  0  0  0
 24 13  1  0  0  0  0
 25  9  2  0  0  0  0
 25 14  1  0  0  0  0
 26 21  2  0  0  0  0
 27  2  1  0  0  0  0
 27  1  1  0  0  0  0
 28 17  1  0  0  0  0
 29 28  1  0  0  0  0
 30 33  1  0  0  0  0
 32 29  1  1  0  0  0
 32 31  1  0  0  0  0
 33 31  1  0  0  0  0
 34 30  1  0  0  0  0
 34 32  1  0  0  0  0
M  END
>  <MODEL>
2

>  <REMARK>
 VINA RESULT:     -10.0      1.949      2.797
  Name = 
  3 active torsions:
  status: ('A' for Active; 'I' for Inactive)
    1  A    between atoms: N_17  and  C_28
    2  A    between atoms: C_28  and  C_29
    3  A    between atoms: C_29  and  C_32
                            x       y       z     vdW  Elec       q    Type
                         _______ _______ _______ _____ _____    ______ ____

>  <TORSDO>
F 3

$$$$
=
 OpenBabel11122412143D

 34 41  0  0  1  0  0  0  0  0999 V2000
  186.5790  178.2980  140.8680 C   0  0  0  0  0  0  0  0  0  0  0  0
  184.4140  178.6600  139.8300 C   0  0  0  0  0  3  0  0  0  0  0  0
  190.2830  176.7430  145.8990 C   0  0  2  0  0  3  0  0  0  0  0  0
  188.6610  177.9680  142.1270 C   0  0  0  0  0  0  0  0  0  0  0  0
  188.5990  177.8440  144.5120 C   0  0  0  0  0  0  0  0  0  0  0  0
  188.6280  177.3380  147.0940 C   0  0  0  0  0  2  0  0  0  0  0  0
  189.8200  176.4080  147.3000 C   0  0  0  0  0  2  0  0  0  0  0  0
  191.6470  178.1510  144.3650 C   0  0  0  0  0  2  0  0  0  0  0  0
  184.4990  178.5220  142.0170 C   0  0  0  0  0  0  0  0  0  0  0  0
  182.0350  178.6360  143.9470 C   0  0  0  0  0  2  0  0  0  0  0  0
  187.2180  178.0520  144.5010 C   0  0  0  0  0  3  0  0  0  0  0  0
  190.7750  177.5000  143.2700 C   0  0  0  0  0  2  0  0  0  0  0  0
  185.1220  178.3900  143.2820 C   0  0  0  0  0  0  0  0  0  0  0  0
  183.1180  178.8410  140.2820 C   0  0  0  0  0  3  0  0  0  0  0  0
  189.3210  177.8250  143.3260 N   0  0  0  0  0  0  0  0  0  0  0  0
  191.6610  177.3340  145.6760 C   0  0  0  0  0  2  0  0  0  0  0  0
  182.0370  178.9750  142.5340 N   0  0  0  0  0  0  0  0  0  0  0  0
  187.2570  178.1560  142.0980 C   0  0  0  0  0  0  0  0  0  0  0  0
  189.2950  177.8680  145.8390 C   0  0  1  0  0  3  0  0  0  0  0  0
  186.5250  178.1970  143.3010 C   0  0  0  0  0  0  0  0  0  0  0  0
  188.6820  178.0760  139.6860 C   0  0  0  0  0  3  0  0  0  0  0  0
  183.2000  179.2860  144.6510 C   0  0  0  0  0  2  0  0  0  0  0  0
  189.3550  177.9320  140.9010 C   0  0  0  0  0  3  0  0  0  0  0  0
  184.3630  178.3250  144.5820 C   0  0  0  0  0  2  0  0  0  0  0  0
  183.1680  178.7470  141.6690 C   0  0  0  0  0  0  0  0  0  0  0  0
  187.3000  178.2580  139.6680 C   0  0  0  0  0  3  0  0  0  0  0  0
  185.2310  178.4760  140.8860 N   0  0  0  0  0  0  0  0  0  0  0  0
  180.8170  179.5730  142.0070 C   0  0  0  0  0  2  0  0  0  0  0  0
  179.6020  178.7760  142.4590 C   0  0  0  0  0  2  0  0  0  0  0  0
  179.9090  178.4320  139.0850 N   0  0  0  0  0  2  0  0  0  0  0  0
  179.6780  176.8670  140.8720 C   0  0  0  0  0  2  0  0  0  0  0  0
  178.9310  178.1190  141.2670 C   0  0  2  0  0  3  0  0  0  0  0  0
  179.9140  177.0100  139.3870 C   0  0  0  0  0  2  0  0  0  0  0  0
  179.0160  179.0380  140.0650 C   0  0  0  0  0  2  0  0  0  0  0  0
  1 27  1  0  0  0  0
  1 18  1  0  0  0  0
  2 14  2  0  0  0  0
  2 27  1  0  0  0  0
  3 16  1  1  0  0  0
  3  7  1  0  0  0  0
  4 15  1  0  0  0  0
  5 19  1  0  0  0  0
  6  7  1  0  0  0  0
  8 16  1  0  0  0  0
  9 13  1  0  0  0  0
 10 22  1  0  0  0  0
 11  5  2  0  0  0  0
 12 15  1  0  0  0  0
 12  8  1  0  0  0  0
 13 20  2  0  0  0  0
 13 24  1  0  0  0  0
 14 25  1  0  0  0  0
 15  5  1  0  0  0  0
 17 10  1  0  0  0  0
 18  4  2  0  0  0  0
 18 20  1  0  0  0  0
 19  3  1  0  0  0  0
 19  6  1  1  0  0  0
 20 11  1  0  0  0  0
 21 23  2  0  0  0  0
 23  4  1  0  0  0  0
 24 22  1  0  0  0  0
 25  9  2  0  0  0  0
 25 17  1  0  0  0  0
 26 21  1  0  0  0  0
 26  1  2  0  0  0  0
 27  9  1  0  0  0  0
 28 29  1  0  0  0  0
 28 17  1  0  0  0  0
 30 33  1  0  0  0  0
 30 34  1  0  0  0  0
 31 32  1  0  0  0  0
 32 29  1  1  0  0  0
 33 31  1  0  0  0  0
 34 32  1  0  0  0  0
M  END
>  <MODEL>
3

>  <REMARK>
 VINA RESULT:      -9.9      1.905      4.056
  Name = 
  3 active torsions:
  status: ('A' for Active; 'I' for Inactive)
    1  A    between atoms: N_17  and  C_28
    2  A    between atoms: C_28  and  C_29
    3  A    between atoms: C_29  and  C_32
                            x       y       z     vdW  Elec       q    Type
                         _______ _______ _______ _____ _____    ______ ____

>  <TORSDO>
F 3

$$$$
=
 OpenBabel11122412143D

 34 41  0  0  1  0  0  0  0  0999 V2000
  184.6930  178.5050  144.7970 C   0  0  0  0  0  0  0  0  0  0  0  0
  182.4850  179.0020  143.9170 C   0  0  0  0  0  3  0  0  0  0  0  0
  191.0780  177.9750  144.1650 C   0  0  2  0  0  3  0  0  0  0  0  0
  186.9930  177.9640  145.4620 C   0  0  0  0  0  0  0  0  0  0  0  0
  188.6790  177.6930  143.7910 C   0  0  0  0  0  0  0  0  0  0  0  0
  190.6880  177.7190  142.0910 C   0  0  0  0  0  2  0  0  0  0  0  0
  191.8890  178.1910  142.9070 C   0  0  0  0  0  2  0  0  0  0  0  0
  190.3820  176.5020  146.0470 C   0  0  0  0  0  2  0  0  0  0  0  0
  184.1280  178.7330  142.4890 C   0  0  0  0  0  0  0  0  0  0  0  0
  183.9100  179.0480  139.3810 C   0  0  0  0  0  2  0  0  0  0  0  0
  187.7390  177.9210  142.7840 C   0  0  0  0  0  3  0  0  0  0  0  0
  189.2790  177.5630  146.2440 C   0  0  0  0  0  2  0  0  0  0  0  0
  185.4540  178.4510  142.0810 C   0  0  0  0  0  0  0  0  0  0  0  0
  181.9330  179.1500  142.6550 C   0  0  0  0  0  3  0  0  0  0  0  0
  188.3010  177.6930  145.1270 N   0  0  0  0  0  0  0  0  0  0  0  0
  191.5870  177.0390  145.2440 C   0  0  0  0  0  2  0  0  0  0  0  0
  182.8010  178.9710  140.3170 N   0  0  0  0  0  0  0  0  0  0  0  0
  186.0330  178.2220  144.4540 C   0  0  0  0  0  0  0  0  0  0  0  0
  190.0440  177.2320  143.3760 C   0  0  1  0  0  3  0  0  0  0  0  0
  186.4100  178.2010  143.0960 C   0  0  0  0  0  0  0  0  0  0  0  0
  185.2480  178.2730  147.1430 C   0  0  0  0  0  3  0  0  0  0  0  0
  184.9210  177.9640  139.6620 C   0  0  0  0  0  2  0  0  0  0  0  0
  186.5750  177.9950  146.8070 C   0  0  0  0  0  3  0  0  0  0  0  0
  185.9180  178.5210  140.6500 C   0  0  0  0  0  2  0  0  0  0  0  0
  182.9740  178.9870  141.7490 C   0  0  0  0  0  0  0  0  0  0  0  0
  184.3100  178.5260  146.1440 C   0  0  0  0  0  3  0  0  0  0  0  0
  183.8020  178.7450  143.7970 N   0  0  0  0  0  0  0  0  0  0  0  0
  181.4680  178.8720  139.7380 C   0  0  0  0  0  2  0  0  0  0  0  0
  181.3420  177.5950  138.9210 C   0  0  0  0  0  2  0  0  0  0  0  0
  178.9310  175.6050  140.2680 N   0  0  0  0  0  2  0  0  0  0  0  0
  180.9140  175.1500  139.0240 C   0  0  0  0  0  2  0  0  0  0  0  0
  181.1660  176.3980  139.8370 C   0  0  2  0  0  3  0  0  0  0  0  0
  179.6800  174.5330  139.6350 C   0  0  0  0  0  2  0  0  0  0  0  0
  179.9240  176.5860  140.6850 C   0  0  0  0  0  2  0  0  0  0  0  0
  1 26  1  0  0  0  0
  3  7  1  6  0  0  0
  3 16  1  0  0  0  0
  4 23  2  0  0  0  0
  5 15  1  0  0  0  0
  6  7  1  0  0  0  0
  8 12  1  0  0  0  0
  9 27  1  0  0  0  0
 10 22  1  0  0  0  0
 10 17  1  0  0  0  0
 11 20  1  0  0  0  0
 11  5  2  0  0  0  0
 13  9  1  0  0  0  0
 13 20  2  0  0  0  0
 14  2  2  0  0  0  0
 15  4  1  0  0  0  0
 15 12  1  0  0  0  0
 16  8  1  0  0  0  0
 17 25  1  0  0  0  0
 18  1  2  0  0  0  0
 18  4  1  0  0  0  0
 19  6  1  6  0  0  0
 19  5  1  0  0  0  0
 19  3  1  0  0  0  0
 20 18  1  0  0  0  0
 22 24  1  0  0  0  0
 23 21  1  0  0  0  0
 24 13  1  0  0  0  0
 25  9  2  0  0  0  0
 25 14  1  0  0  0  0
 26 21  2  0  0  0  0
 27  2  1  0  0  0  0
 27  1  1  0  0  0  0
 28 17  1  0  0  0  0
 29 28  1  0  0  0  0
 30 34  1  0  0  0  0
 31 33  1  0  0  0  0
 31 32  1  0  0  0  0
 32 29  1  6  0  0  0
 32 34  1  0  0  0  0
 33 30  1  0  0  0  0
M  END
>  <MODEL>
4

>  <REMARK>
 VINA RESULT:      -9.7      1.635      2.628
  Name = 
  3 active torsions:
  status: ('A' for Active; 'I' for Inactive)
    1  A    between atoms: N_17  and  C_28
    2  A    between atoms: C_28  and  C_29
    3  A    between atoms: C_29  and  C_32
                            x       y       z     vdW  Elec       q    Type
                         _______ _______ _______ _____ _____    ______ ____

>  <TORSDO>
F 3

$$$$
=
 OpenBabel11122412143D

 34 41  0  0  1  0  0  0  0  0999 V2000
  185.0380  178.7210  142.4460 C   0  0  0  0  0  0  0  0  0  0  0  0
  184.1220  179.1230  140.2330 C   0  0  0  0  0  3  0  0  0  0  0  0
  189.9690  177.7130  146.4600 C   0  0  2  0  0  3  0  0  0  0  0  0
  186.1550  178.2220  144.5740 C   0  0  0  0  0  0  0  0  0  0  0  0
  188.4280  177.4850  144.5770 C   0  0  0  0  0  0  0  0  0  0  0  0
  191.0110  177.0120  144.7440 C   0  0  0  0  0  2  0  0  0  0  0  0
  191.4320  177.5920  146.0920 C   0  0  0  0  0  2  0  0  0  0  0  0
  187.9310  176.7490  147.5130 C   0  0  0  0  0  2  0  0  0  0  0  0
  186.2030  178.4460  140.3800 C   0  0  0  0  0  0  0  0  0  0  0  0
  188.1660  178.0540  137.9720 C   0  0  0  0  0  2  0  0  0  0  0  0
  188.4590  177.5270  143.1820 C   0  0  0  0  0  3  0  0  0  0  0  0
  187.2110  177.8870  146.7580 C   0  0  0  0  0  2  0  0  0  0  0  0
  187.3770  178.0060  141.0390 C   0  0  0  0  0  0  0  0  0  0  0  0
  184.5870  179.0090  138.9330 C   0  0  0  0  0  3  0  0  0  0  0  0
  187.2700  177.8110  145.2700 N   0  0  0  0  0  0  0  0  0  0  0  0
  189.4390  177.0230  147.7010 C   0  0  0  0  0  2  0  0  0  0  0  0
  186.7290  178.2530  137.8860 N   0  0  0  0  0  0  0  0  0  0  0  0
  186.1780  178.2940  143.1600 C   0  0  0  0  0  0  0  0  0  0  0  0
  189.5990  176.8670  145.2800 C   0  0  1  0  0  3  0  0  0  0  0  0
  187.3460  177.9430  142.4530 C   0  0  0  0  0  0  0  0  0  0  0  0
  183.8400  179.0010  144.5320 C   0  0  0  0  0  3  0  0  0  0  0  0
  188.4970  177.0090  139.0080 C   0  0  0  0  0  2  0  0  0  0  0  0
  184.9680  178.5820  145.2410 C   0  0  0  0  0  3  0  0  0  0  0  0
  188.6740  177.7220  140.3280 C   0  0  0  0  0  2  0  0  0  0  0  0
  185.9090  178.5860  139.0250 C   0  0  0  0  0  0  0  0  0  0  0  0
  183.8740  179.0700  143.1400 C   0  0  0  0  0  3  0  0  0  0  0  0
  185.1040  178.7750  141.0880 N   0  0  0  0  0  0  0  0  0  0  0  0
  186.1280  178.0970  136.5670 C   0  0  0  0  0  2  0  0  0  0  0  0
  186.3930  176.6980  136.0310 C   0  0  0  0  0  2  0  0  0  0  0  0
  183.8050  175.5970  137.9500 N   0  0  0  0  0  2  0  0  0  0  0  0
  183.9160  176.8580  135.9280 C   0  0  0  0  0  2  0  0  0  0  0  0
  185.0960  175.9150  135.9380 C   0  0  2  0  0  3  0  0  0  0  0  0
  182.9890  176.3300  136.9960 C   0  0  0  0  0  2  0  0  0  0  0  0
  184.9250  175.0680  137.1830 C   0  0  0  0  0  2  0  0  0  0  0  0
  1 26  2  0  0  0  0
  1 18  1  0  0  0  0
  2 27  1  0  0  0  0
  3  7  1  1  0  0  0
  3 16  1  0  0  0  0
  4 23  1  0  0  0  0
  4 15  1  0  0  0  0
  5 15  1  0  0  0  0
  5 19  1  0  0  0  0
  6  7  1  0  0  0  0
  8 16  1  0  0  0  0
  9 13  1  0  0  0  0
  9 27  1  0  0  0  0
 10 22  1  0  0  0  0
 11  5  2  0  0  0  0
 12  8  1  0  0  0  0
 13 20  2  0  0  0  0
 14 25  1  0  0  0  0
 14  2  2  0  0  0  0
 15 12  1  0  0  0  0
 17 10  1  0  0  0  0
 17 25  1  0  0  0  0
 18  4  2  0  0  0  0
 19  6  1  6  0  0  0
 19  3  1  0  0  0  0
 20 18  1  0  0  0  0
 20 11  1  0  0  0  0
 21 23  2  0  0  0  0
 22 24  1  0  0  0  0
 24 13  1  0  0  0  0
 25  9  2  0  0  0  0
 26 21  1  0  0  0  0
 27  1  1  0  0  0  0
 28 17  1  0  0  0  0
 29 28  1  0  0  0  0
 31 32  1  0  0  0  0
 31 33  1  0  0  0  0
 32 29  1  1  0  0  0
 32 34  1  0  0  0  0
 33 30  1  0  0  0  0
 34 30  1  0  0  0  0
M  END
>  <MODEL>
5

>  <REMARK>
 VINA RESULT:      -9.7      2.569      3.983
  Name = 
  3 active torsions:
  status: ('A' for Active; 'I' for Inactive)
    1  A    between atoms: N_17  and  C_28
    2  A    between atoms: C_28  and  C_29
    3  A    between atoms: C_29  and  C_32
                            x       y       z     vdW  Elec       q    Type
                         _______ _______ _______ _____ _____    ______ ____

>  <TORSDO>
F 3

$$$$
=
 OpenBabel11122412143D

 34 41  0  0  1  0  0  0  0  0999 V2000
  188.9560  177.3860  143.9770 C   0  0  0  0  0  0  0  0  0  0  0  0
  191.2440  176.8240  143.3870 C   0  0  0  0  0  3  0  0  0  0  0  0
  182.7670  178.3290  142.4760 C   0  0  2  0  0  3  0  0  0  0  0  0
  186.6110  178.0110  144.3430 C   0  0  0  0  0  0  0  0  0  0  0  0
  185.2060  178.4960  142.4730 C   0  0  0  0  0  0  0  0  0  0  0  0
  183.4710  178.7060  140.5050 C   0  0  0  0  0  2  0  0  0  0  0  0
  182.1420  178.2480  141.1010 C   0  0  0  0  0  2  0  0  0  0  0  0
  183.2470  179.6240  144.5470 C   0  0  0  0  0  2  0  0  0  0  0  0
  189.8450  177.2870  141.7630 C   0  0  0  0  0  0  0  0  0  0  0  0
  190.5040  177.1770  138.7040 C   0  0  0  0  0  2  0  0  0  0  0  0
  186.2730  178.2850  141.5980 C   0  0  0  0  0  3  0  0  0  0  0  0
  184.2570  178.4890  144.8180 C   0  0  0  0  0  2  0  0  0  0  0  0
  188.6080  177.6730  141.1910 C   0  0  0  0  0  0  0  0  0  0  0  0
  191.9690  176.7320  142.2110 C   0  0  0  0  0  3  0  0  0  0  0  0
  185.3820  178.3810  143.8460 N   0  0  0  0  0  0  0  0  0  0  0  0
  182.1490  179.2150  143.5400 C   0  0  0  0  0  2  0  0  0  0  0  0
  191.4650  177.1240  139.7930 N   0  0  0  0  0  0  0  0  0  0  0  0
  187.6970  177.7700  143.4670 C   0  0  0  0  0  0  0  0  0  0  0  0
  183.9410  179.0640  141.9030 C   0  0  1  0  0  3  0  0  0  0  0  0
  187.5260  177.9070  142.0750 C   0  0  0  0  0  0  0  0  0  0  0  0
  188.0730  177.4850  146.2290 C   0  0  0  0  0  3  0  0  0  0  0  0
  189.5160  178.2960  138.9200 C   0  0  0  0  0  2  0  0  0  0  0  0
  186.8250  177.8620  145.7280 C   0  0  0  0  0  3  0  0  0  0  0  0
  188.3580  177.7300  139.7070 C   0  0  0  0  0  2  0  0  0  0  0  0
  191.0820  177.0190  141.1790 C   0  0  0  0  0  0  0  0  0  0  0  0
  189.1350  177.2480  145.3590 C   0  0  0  0  0  3  0  0  0  0  0  0
  189.9730  177.1640  143.0990 N   0  0  0  0  0  0  0  0  0  0  0  0
  192.8730  177.1860  139.4210 C   0  0  0  0  0  2  0  0  0  0  0  0
  193.0550  176.7560  137.9730 C   0  0  0  0  0  2  0  0  0  0  0  0
  192.8290  173.8760  136.1720 N   0  0  0  0  0  2  0  0  0  0  0  0
  194.6640  175.2560  136.8190 C   0  0  0  0  0  2  0  0  0  0  0  0
  193.6210  175.3490  137.9080 C   0  0  2  0  0  3  0  0  0  0  0  0
  194.2610  174.0530  136.0000 C   0  0  0  0  0  2  0  0  0  0  0  0
  192.5270  174.3800  137.5050 C   0  0  0  0  0  2  0  0  0  0  0  0
  1 26  1  0  0  0  0
  3  7  1  6  0  0  0
  3 16  1  0  0  0  0
  4 23  2  0  0  0  0
  5 15  1  0  0  0  0
  6  7  1  0  0  0  0
  8 12  1  0  0  0  0
  9 27  1  0  0  0  0
 10 22  1  0  0  0  0
 10 17  1  0  0  0  0
 11 20  1  0  0  0  0
 11  5  2  0  0  0  0
 13  9  1  0  0  0  0
 13 20  2  0  0  0  0
 14  2  2  0  0  0  0
 15  4  1  0  0  0  0
 15 12  1  0  0  0  0
 16  8  1  0  0  0  0
 17 25  1  0  0  0  0
 18  1  2  0  0  0  0
 18  4  1  0  0  0  0
 19  6  1  6  0  0  0
 19  5  1  0  0  0  0
 19  3  1  0  0  0  0
 20 18  1  0  0  0  0
 22 24  1  0  0  0  0
 23 21  1  0  0  0  0
 24 13  1  0  0  0  0
 25  9  2  0  0  0  0
 25 14  1  0  0  0  0
 26 21  2  0  0  0  0
 27  2  1  0  0  0  0
 27  1  1  0  0  0  0
 28 17  1  0  0  0  0
 29 28  1  0  0  0  0
 30 34  1  0  0  0  0
 31 32  1  0  0  0  0
 32 29  1  6  0  0  0
 33 30  1  0  0  0  0
 33 31  1  0  0  0  0
 34 32  1  0  0  0  0
M  END
>  <MODEL>
6

>  <REMARK>
 VINA RESULT:      -9.4      3.667      8.577
  Name = 
  3 active torsions:
  status: ('A' for Active; 'I' for Inactive)
    1  A    between atoms: N_17  and  C_28
    2  A    between atoms: C_28  and  C_29
    3  A    between atoms: C_29  and  C_32
                            x       y       z     vdW  Elec       q    Type
                         _______ _______ _______ _____ _____    ______ ____

>  <TORSDO>
F 3

$$$$
=
 OpenBabel11122412143D

 34 41  0  0  1  0  0  0  0  0999 V2000
  185.2980  178.3940  144.4170 C   0  0  0  0  0  0  0  0  0  0  0  0
  186.9530  178.0270  146.1550 C   0  0  0  0  0  3  0  0  0  0  0  0
  183.2900  178.0280  138.3110 C   0  0  2  0  0  3  0  0  0  0  0  0
  183.8040  178.7550  142.5020 C   0  0  0  0  0  0  0  0  0  0  0  0
  184.6490  178.5310  140.2790 C   0  0  0  0  0  0  0  0  0  0  0  0
  185.3540  177.9730  137.8060 C   0  0  0  0  0  2  0  0  0  0  0  0
  184.0710  177.5030  137.1260 C   0  0  0  0  0  2  0  0  0  0  0  0
  182.0310  179.8730  139.4090 C   0  0  0  0  0  2  0  0  0  0  0  0
  187.5950  177.8470  144.0660 C   0  0  0  0  0  0  0  0  0  0  0  0
  190.4630  177.0370  143.1050 C   0  0  0  0  0  2  0  0  0  0  0  0
  185.9230  178.2520  140.7750 C   0  0  0  0  0  3  0  0  0  0  0  0
  182.1950  179.0020  140.6730 C   0  0  0  0  0  2  0  0  0  0  0  0
  187.4470  177.8920  142.6580 C   0  0  0  0  0  0  0  0  0  0  0  0
  188.3060  177.7340  146.1880 C   0  0  0  0  0  3  0  0  0  0  0  0
  183.5960  178.8040  141.1420 N   0  0  0  0  0  0  0  0  0  0  0  0
  182.2020  179.0640  138.1040 C   0  0  0  0  0  2  0  0  0  0  0  0
  190.0820  177.4060  144.4580 N   0  0  0  0  0  0  0  0  0  0  0  0
  185.0850  178.4490  143.0220 C   0  0  0  0  0  0  0  0  0  0  0  0
  184.5100  178.7460  138.8020 C   0  0  1  0  0  3  0  0  0  0  0  0
  186.1600  178.1930  142.1470 C   0  0  0  0  0  0  0  0  0  0  0  0
  182.9710  178.9520  144.7910 C   0  0  0  0  0  3  0  0  0  0  0  0
  189.9060  178.0220  142.1070 C   0  0  0  0  0  2  0  0  0  0  0  0
  182.7570  179.0040  143.4110 C   0  0  0  0  0  3  0  0  0  0  0  0
  188.5420  177.5230  141.6930 C   0  0  0  0  0  2  0  0  0  0  0  0
  188.7140  177.6130  144.8640 C   0  0  0  0  0  0  0  0  0  0  0  0
  184.2350  178.6480  145.2920 C   0  0  0  0  0  3  0  0  0  0  0  0
  186.5440  178.0970  144.8730 N   0  0  0  0  0  0  0  0  0  0  0  0
  191.1670  177.5670  145.4170 C   0  0  0  0  0  2  0  0  0  0  0  0
  191.6800  176.2070  145.8650 C   0  0  0  0  0  2  0  0  0  0  0  0
  193.2440  176.7280  148.8440 N   0  0  0  0  0  2  0  0  0  0  0  0
  191.1040  177.3510  147.9930 C   0  0  0  0  0  2  0  0  0  0  0  0
  191.4770  176.0320  147.3590 C   0  0  2  0  0  3  0  0  0  0  0  0
  192.0550  177.5030  149.1560 C   0  0  0  0  0  2  0  0  0  0  0  0
  192.7870  175.6280  148.0050 C   0  0  0  0  0  2  0  0  0  0  0  0
  1 27  1  0  0  0  0
  1 26  1  0  0  0  0
  2 14  2  0  0  0  0
  3  7  1  6  0  0  0
  3 19  1  0  0  0  0
  4 18  1  0  0  0  0
  4 23  2  0  0  0  0
  5 11  2  0  0  0  0
  5 15  1  0  0  0  0
  7  6  1  0  0  0  0
  8 12  1  0  0  0  0
  9 25  2  0  0  0  0
  9 27  1  0  0  0  0
 10 17  1  0  0  0  0
 11 20  1  0  0  0  0
 12 15  1  0  0  0  0
 13  9  1  0  0  0  0
 15  4  1  0  0  0  0
 16  3  1  0  0  0  0
 16  8  1  0  0  0  0
 17 25  1  0  0  0  0
 17 28  1  0  0  0  0
 18  1  2  0  0  0  0
 19  6  1  6  0  0  0
 19  5  1  0  0  0  0
 20 13  2  0  0  0  0
 20 18  1  0  0  0  0
 21 26  2  0  0  0  0
 22 10  1  0  0  0  0
 23 21  1  0  0  0  0
 24 22  1  0  0  0  0
 24 13  1  0  0  0  0
 25 14  1  0  0  0  0
 27  2  1  0  0  0  0
 28 29  1  0  0  0  0
 30 33  1  0  0  0  0
 31 33  1  0  0  0  0
 32 29  1  6  0  0  0
 32 31  1  0  0  0  0
 32 34  1  0  0  0  0
 34 30  1  0  0  0  0
M  END
>  <MODEL>
7

>  <REMARK>
 VINA RESULT:      -9.4      1.826      9.006
  Name = 
  3 active torsions:
  status: ('A' for Active; 'I' for Inactive)
    1  A    between atoms: N_17  and  C_28
    2  A    between atoms: C_28  and  C_29
    3  A    between atoms: C_29  and  C_32
                            x       y       z     vdW  Elec       q    Type
                         _______ _______ _______ _____ _____    ______ ____

>  <TORSDO>
F 3

$$$$
=
 OpenBabel11122412143D

 34 41  0  0  1  0  0  0  0  0999 V2000
  186.1350  178.4670  141.0270 C   0  0  0  0  0  0  0  0  0  0  0  0
  185.7820  178.6840  138.6340 C   0  0  0  0  0  3  0  0  0  0  0  0
  189.9340  177.6620  146.1620 C   0  0  2  0  0  3  0  0  0  0  0  0
  186.6980  178.1380  143.3940 C   0  0  0  0  0  0  0  0  0  0  0  0
  188.8560  177.3110  143.9970 C   0  0  0  0  0  0  0  0  0  0  0  0
  191.2970  176.7500  144.8080 C   0  0  0  0  0  2  0  0  0  0  0  0
  191.4310  177.4450  146.1610 C   0  0  0  0  0  2  0  0  0  0  0  0
  187.6500  176.8940  146.7860 C   0  0  0  0  0  2  0  0  0  0  0  0
  187.7250  177.9400  139.3260 C   0  0  0  0  0  0  0  0  0  0  0  0
  190.1610  177.2280  137.4920 C   0  0  0  0  0  2  0  0  0  0  0  0
  189.2110  177.2130  142.6500 C   0  0  0  0  0  3  0  0  0  0  0  0
  187.1980  177.9790  145.7850 C   0  0  0  0  0  2  0  0  0  0  0  0
  188.6860  177.5200  140.2790 C   0  0  0  0  0  0  0  0  0  0  0  0
  186.5260  178.4220  137.4960 C   0  0  0  0  0  3  0  0  0  0  0  0
  187.5930  177.7520  144.3660 N   0  0  0  0  0  0  0  0  0  0  0  0
  189.0890  177.1220  147.2990 C   0  0  0  0  0  2  0  0  0  0  0  0
  188.7990  177.4770  137.0530 N   0  0  0  0  0  0  0  0  0  0  0  0
  187.0510  178.0670  142.0240 C   0  0  0  0  0  0  0  0  0  0  0  0
  189.7920  176.7190  145.0070 C   0  0  1  0  0  3  0  0  0  0  0  0
  188.3250  177.5990  141.6460 C   0  0  0  0  0  0  0  0  0  0  0  0
  184.5090  179.0040  142.7400 C   0  0  0  0  0  3  0  0  0  0  0  0
  190.1780  176.2790  138.6650 C   0  0  0  0  0  2  0  0  0  0  0  0
  185.4140  178.6120  143.7290 C   0  0  0  0  0  3  0  0  0  0  0  0
  190.0910  177.1130  139.9210 C   0  0  0  0  0  2  0  0  0  0  0  0
  187.7610  177.9560  137.9330 C   0  0  0  0  0  0  0  0  0  0  0  0
  184.8670  178.9320  141.3950 C   0  0  0  0  0  3  0  0  0  0  0  0
  186.5150  178.3830  139.7230 N   0  0  0  0  0  0  0  0  0  0  0  0
  188.5100  177.2150  135.6490 C   0  0  0  0  0  2  0  0  0  0  0  0
  189.0000  175.8290  135.2600 C   0  0  0  0  0  2  0  0  0  0  0  0
  186.4770  174.5880  137.1810 N   0  0  0  0  0  2  0  0  0  0  0  0
  186.5380  175.6010  135.0220 C   0  0  0  0  0  2  0  0  0  0  0  0
  187.8370  174.8540  135.2080 C   0  0  2  0  0  3  0  0  0  0  0  0
  185.6290  175.0710  136.1050 C   0  0  0  0  0  2  0  0  0  0  0  0
  187.7090  174.1450  136.5410 C   0  0  0  0  0  2  0  0  0  0  0  0
  1 26  2  0  0  0  0
  1 18  1  0  0  0  0
  2 27  1  0  0  0  0
  3  7  1  1  0  0  0
  3 16  1  0  0  0  0
  4 23  1  0  0  0  0
  4 15  1  0  0  0  0
  5 15  1  0  0  0  0
  5 19  1  0  0  0  0
  6  7  1  0  0  0  0
  8 16  1  0  0  0  0
  9 27  1  0  0  0  0
  9 13  1  0  0  0  0
 10 22  1  0  0  0  0
 11  5  2  0  0  0  0
 12  8  1  0  0  0  0
 13 20  2  0  0  0  0
 14 25  1  0  0  0  0
 14  2  2  0  0  0  0
 15 12  1  0  0  0  0
 17 10  1  0  0  0  0
 17 25  1  0  0  0  0
 18  4  2  0  0  0  0
 19  6  1  6  0  0  0
 19  3  1  0  0  0  0
 20 18  1  0  0  0  0
 20 11  1  0  0  0  0
 21 23  2  0  0  0  0
 22 24  1  0  0  0  0
 24 13  1  0  0  0  0
 25  9  2  0  0  0  0
 26 21  1  0  0  0  0
 27  1  1  0  0  0  0
 28 17  1  0  0  0  0
 29 28  1  0  0  0  0
 31 32  1  0  0  0  0
 31 33  1  0  0  0  0
 32 29  1  1  0  0  0
 32 34  1  0  0  0  0
 33 30  1  0  0  0  0
 34 30  1  0  0  0  0
M  END
>  <MODEL>
8

>  <REMARK>
 VINA RESULT:      -9.4      3.229      5.641
  Name = 
  3 active torsions:
  status: ('A' for Active; 'I' for Inactive)
    1  A    between atoms: N_17  and  C_28
    2  A    between atoms: C_28  and  C_29
    3  A    between atoms: C_29  and  C_32
                            x       y       z     vdW  Elec       q    Type
                         _______ _______ _______ _____ _____    ______ ____

>  <TORSDO>
F 3

$$$$
=
 OpenBabel11122412143D

 34 41  0  0  1  0  0  0  0  0999 V2000
  186.3690  178.4810  141.5600 C   0  0  0  0  0  0  0  0  0  0  0  0
  186.5100  178.6060  139.1390 C   0  0  0  0  0  3  0  0  0  0  0  0
  189.0490  177.9840  147.3920 C   0  0  2  0  0  3  0  0  0  0  0  0
  186.4410  178.2500  144.0030 C   0  0  0  0  0  0  0  0  0  0  0  0
  188.4520  177.5230  145.0680 C   0  0  0  0  0  0  0  0  0  0  0  0
  190.6880  177.0790  146.3830 C   0  0  0  0  0  2  0  0  0  0  0  0
  190.5200  177.8220  147.7060 C   0  0  0  0  0  2  0  0  0  0  0  0
  186.7100  177.1540  147.5650 C   0  0  0  0  0  2  0  0  0  0  0  0
  188.2900  177.9560  140.2430 C   0  0  0  0  0  0  0  0  0  0  0  0
  191.0710  177.2740  138.9770 C   0  0  0  0  0  2  0  0  0  0  0  0
  189.0800  177.3940  143.8270 C   0  0  0  0  0  3  0  0  0  0  0  0
  186.4420  178.1880  146.4510 C   0  0  0  0  0  2  0  0  0  0  0  0
  189.0450  177.6030  141.3880 C   0  0  0  0  0  0  0  0  0  0  0  0
  187.4790  178.3340  138.1880 C   0  0  0  0  0  3  0  0  0  0  0  0
  187.1270  177.9290  145.1530 N   0  0  0  0  0  0  0  0  0  0  0  0
  188.0050  177.4510  148.3520 C   0  0  0  0  0  2  0  0  0  0  0  0
  189.8210  177.4590  138.2580 N   0  0  0  0  0  0  0  0  0  0  0  0
  187.0710  178.1470  142.7380 C   0  0  0  0  0  0  0  0  0  0  0  0
  189.1770  176.9990  146.2710 C   0  0  1  0  0  3  0  0  0  0  0  0
  188.4090  177.7140  142.6480 C   0  0  0  0  0  0  0  0  0  0  0  0
  184.4100  179.0140  142.8800 C   0  0  0  0  0  3  0  0  0  0  0  0
  190.8730  176.3660  140.1640 C   0  0  0  0  0  2  0  0  0  0  0  0
  185.1020  178.6880  144.0490 C   0  0  0  0  0  3  0  0  0  0  0  0
  190.5050  177.2360  141.3420 C   0  0  0  0  0  2  0  0  0  0  0  0
  188.6110  177.9280  138.8870 C   0  0  0  0  0  0  0  0  0  0  0  0
  185.0390  178.9110  141.6410 C   0  0  0  0  0  3  0  0  0  0  0  0
  187.0120  178.3670  140.3660 N   0  0  0  0  0  0  0  0  0  0  0  0
  189.8360  177.1410  136.8360 C   0  0  0  0  0  2  0  0  0  0  0  0
  191.0630  176.3090  136.4950 C   0  0  0  0  0  2  0  0  0  0  0  0
  189.4810  173.3830  137.2190 N   0  0  0  0  0  2  0  0  0  0  0  0
  189.1790  175.0220  135.5130 C   0  0  0  0  0  2  0  0  0  0  0  0
  190.6490  174.9950  135.8590 C   0  0  2  0  0  3  0  0  0  0  0  0
  188.6170  173.7550  136.1110 C   0  0  0  0  0  2  0  0  0  0  0  0
  190.8070  173.8720  136.8650 C   0  0  0  0  0  2  0  0  0  0  0  0
  1 26  2  0  0  0  0
  1 18  1  0  0  0  0
  2 27  1  0  0  0  0
  3  7  1  1  0  0  0
  3 16  1  0  0  0  0
  4 23  1  0  0  0  0
  4 15  1  0  0  0  0
  5 15  1  0  0  0  0
  5 19  1  0  0  0  0
  6  7  1  0  0  0  0
  8 16  1  0  0  0  0
  9 27  1  0  0  0  0
  9 13  1  0  0  0  0
 10 22  1  0  0  0  0
 11  5  2  0  0  0  0
 12  8  1  0  0  0  0
 13 20  2  0  0  0  0
 14 25  1  0  0  0  0
 14  2  2  0  0  0  0
 15 12  1  0  0  0  0
 17 25  1  0  0  0  0
 17 10  1  0  0  0  0
 18  4  2  0  0  0  0
 19  6  1  6  0  0  0
 19  3  1  0  0  0  0
 20 18  1  0  0  0  0
 20 11  1  0  0  0  0
 21 23  2  0  0  0  0
 22 24  1  0  0  0  0
 24 13  1  0  0  0  0
 25  9  2  0  0  0  0
 26 21  1  0  0  0  0
 27  1  1  0  0  0  0
 28 17  1  0  0  0  0
 29 28  1  0  0  0  0
 31 32  1  0  0  0  0
 31 33  1  0  0  0  0
 32 29  1  1  0  0  0
 32 34  1  0  0  0  0
 33 30  1  0  0  0  0
 34 30  1  0  0  0  0
M  END
>  <MODEL>
9

>  <REMARK>
 VINA RESULT:      -9.0      3.655      6.600
  Name = 
  3 active torsions:
  status: ('A' for Active; 'I' for Inactive)
    1  A    between atoms: N_17  and  C_28
    2  A    between atoms: C_28  and  C_29
    3  A    between atoms: C_29  and  C_32
                            x       y       z     vdW  Elec       q    Type
                         _______ _______ _______ _____ _____    ______ ____

>  <TORSDO>
F 3

$$$$
