=
 OpenBabel11122412103D

 34 42  0  0  1  0  0  0  0  0999 V2000
  187.2470  178.2850  140.2510 C   0  0  0  0  0  0  0  0  0  0  0  0
  185.3080  179.0030  138.8150 C   0  0  0  0  0  2  0  0  0  0  0  0
  190.5920  178.1730  144.9770 C   0  0  2  0  0  0  0  0  0  0  0  0
  188.6620  176.8550  141.6360 C   0  0  0  0  0  0  0  0  0  0  0  0
  188.4160  176.9300  144.1870 C   0  0  1  0  0  3  0  0  0  0  0  0
  190.1720  178.7670  143.6350 C   0  0  2  0  0  3  0  0  0  0  0  0
  191.3520  179.3450  144.3910 C   0  0  0  0  0  2  0  0  0  0  0  0
  191.4290  176.2690  143.3940 C   0  0  0  0  0  2  0  0  0  0  0  0
  185.0990  179.3580  141.2310 C   0  0  2  0  0  3  0  0  0  0  0  0
  182.3230  178.0040  142.3250 C   0  0  0  0  0  2  0  0  0  0  0  0
  186.9400  177.2150  143.9330 C   0  0  0  0  0  2  0  0  0  0  0  0
  190.2300  175.3850  143.1150 C   0  0  0  0  0  2  0  0  0  0  0  0
  185.2800  178.3250  142.3660 C   0  0  1  0  0  3  0  0  0  0  0  0
  183.9170  179.5260  139.0940 C   0  0  0  0  0  2  0  0  0  0  0  0
  188.9280  176.1700  142.9530 C   0  0  2  0  0  3  0  0  0  0  0  0
  191.3380  176.8320  144.8090 C   0  0  0  0  0  2  0  0  0  0  0  0
  182.8320  178.0960  140.8750 C   0  0  1  0  0  3  0  0  0  0  0  0
  187.5530  177.7270  141.5100 C   0  0  0  0  0  0  0  0  0  0  0  0
  189.1150  178.2530  144.6000 C   0  0  2  0  0  3  0  0  0  0  0  0
  186.7560  178.1600  142.7290 C   0  0  2  0  0  3  0  0  0  0  0  0
  189.1380  177.1110  139.2720 C   0  0  0  0  0  3  0  0  0  0  0  0
  182.9690  179.0030  143.2900 C   0  0  0  0  0  2  0  0  0  0  0  0
  189.4300  176.5400  140.5080 C   0  0  0  0  0  3  0  0  0  0  0  0
  184.4350  178.6850  143.5980 C   0  0  0  0  0  2  0  0  0  0  0  0
  183.7000  179.3460  140.5830 C   0  0  1  0  0  3  0  0  0  0  0  0
  188.0590  177.9840  139.1470 C   0  0  0  0  0  3  0  0  0  0  0  0
  186.1130  179.2700  140.0770 C   0  0  1  0  0  3  0  0  0  0  0  0
  183.5210  176.8630  140.5150 N   0  0  0  0  0  2  0  0  0  0  0  0
  182.5850  176.0340  139.7770 C   0  0  0  0  0  2  0  0  0  0  0  0
  183.2340  176.2410  136.1300 N   0  0  0  0  0  0  0  0  0  0  0  0
  183.8050  174.9370  137.9690 N   0  0  0  0  0  0  0  0  0  0  0  0
  183.0560  175.8940  138.3730 C   0  0  0  0  0  0  0  0  0  0  0  0
  183.9470  175.1200  136.5910 N   0  0  0  0  0  0  0  0  0  0  0  0
  182.6460  176.7310  137.3090 N   0  0  0  0  0  2  0  0  0  0  0  0
  1 18  1  0  0  0  0
  2 14  1  0  0  0  0
  2 27  1  0  0  0  0
  3  7  1  1  0  0  0
  4 15  1  0  0  0  0
  5 11  1  6  0  0  0
  5 19  1  0  0  0  0
  6  7  1  1  0  0  0
  6 19  1  0  0  0  0
  6  3  1  0  0  0  0
  8 16  1  0  0  0  0
  9 13  1  0  0  0  0
 10 22  1  0  0  0  0
 12  8  1  0  0  0  0
 13 20  1  0  0  0  0
 13 24  1  0  0  0  0
 14 25  1  0  0  0  0
 15 12  1  0  0  0  0
 15  5  1  0  0  0  0
 16  3  1  0  0  0  0
 17 10  1  0  0  0  0
 18  4  2  0  0  0  0
 18 20  1  0  0  0  0
 19  3  1  0  0  0  0
 20 11  1  0  0  0  0
 21 23  2  0  0  0  0
 22 24  1  0  0  0  0
 23  4  1  0  0  0  0
 25 17  1  0  0  0  0
 25  9  1  0  0  0  0
 26 21  1  0  0  0  0
 26  1  2  0  0  0  0
 27  1  1  0  0  0  0
 27  9  1  0  0  0  0
 28 17  1  0  0  0  0
 29 28  1  0  0  0  0
 30 33  2  0  0  0  0
 30 34  1  0  0  0  0
 31 32  2  0  0  0  0
 32 29  1  0  0  0  0
 33 31  1  0  0  0  0
 34 32  1  0  0  0  0
M  END
>  <MODEL>
1

>  <REMARK>
 VINA RESULT:      -7.4      0.000      0.000
  Name = 
  3 active torsions:
  status: ('A' for Active; 'I' for Inactive)
    1  A    between atoms: C_17  and  N_28
    2  A    between atoms: N_28  and  C_29
    3  A    between atoms: C_29  and  C_32
                            x       y       z     vdW  Elec       q    Type
                         _______ _______ _______ _____ _____    ______ ____

>  <TORSDO>
F 3

$$$$
=
 OpenBabel11122412103D

 34 42  0  0  1  0  0  0  0  0999 V2000
  185.9170  176.1820  135.1710 C   0  0  0  0  0  0  0  0  0  0  0  0
  187.9000  177.6210  134.5940 C   0  0  0  0  0  2  0  0  0  0  0  0
  183.0310  171.2430  136.0740 C   0  0  2  0  0  0  0  0  0  0  0  0
  184.1620  175.1360  136.5100 C   0  0  0  0  0  0  0  0  0  0  0  0
  184.5630  172.8140  137.5210 C   0  0  1  0  0  3  0  0  0  0  0  0
  183.5600  172.3490  135.1660 C   0  0  2  0  0  3  0  0  0  0  0  0
  182.7140  171.2300  134.5940 C   0  0  0  0  0  2  0  0  0  0  0  0
  181.4750  173.1980  136.8420 C   0  0  0  0  0  2  0  0  0  0  0  0
  188.3590  175.3180  135.2970 C   0  0  2  0  0  3  0  0  0  0  0  0
  190.5170  175.3120  137.7630 C   0  0  0  0  0  2  0  0  0  0  0  0
  186.0250  173.2290  137.6350 C   0  0  0  0  0  2  0  0  0  0  0  0
  182.2550  173.9890  137.8720 C   0  0  0  0  0  2  0  0  0  0  0  0
  187.8820  174.6000  136.5790 C   0  0  1  0  0  3  0  0  0  0  0  0
  189.4000  177.4490  134.6840 C   0  0  0  0  0  2  0  0  0  0  0  0
  183.7420  174.1120  137.5360 C   0  0  2  0  0  3  0  0  0  0  0  0
  181.8430  171.7200  136.9360 C   0  0  0  0  0  2  0  0  0  0  0  0
  189.9940  176.5140  136.9580 C   0  0  1  0  0  3  0  0  0  0  0  0
  185.5020  175.1600  136.0520 C   0  0  0  0  0  0  0  0  0  0  0  0
  184.4130  171.8420  136.3190 C   0  0  2  0  0  3  0  0  0  0  0  0
  186.4700  174.0430  136.4030 C   0  0  2  0  0  3  0  0  0  0  0  0
  183.6780  177.1270  135.2140 C   0  0  0  0  0  3  0  0  0  0  0  0
  190.3300  173.9560  137.0750 C   0  0  0  0  0  2  0  0  0  0  0  0
  183.2700  176.1340  136.1010 C   0  0  0  0  0  3  0  0  0  0  0  0
  188.8690  173.5040  137.0130 C   0  0  0  0  0  2  0  0  0  0  0  0
  189.6210  176.1840  135.4910 C   0  0  1  0  0  3  0  0  0  0  0  0
  184.9900  177.1450  134.7470 C   0  0  0  0  0  3  0  0  0  0  0  0
  187.3190  176.2160  134.6050 C   0  0  1  0  0  3  0  0  0  0  0  0
  188.8870  177.1410  137.6690 N   0  0  0  0  0  2  0  0  0  0  0  0
  189.4400  177.8480  138.8110 C   0  0  0  0  0  2  0  0  0  0  0  0
  187.1810  178.6090  141.6540 N   0  0  0  0  0  0  0  0  0  0  0  0
  187.1430  178.4900  139.3320 N   0  0  0  0  0  0  0  0  0  0  0  0
  188.3350  178.2400  139.7260 C   0  0  0  0  0  0  0  0  0  0  0  0
  186.4000  178.7330  140.4900 N   0  0  0  0  0  0  0  0  0  0  0  0
  188.4450  178.2750  141.1360 N   0  0  0  0  0  2  0  0  0  0  0  0
  1 18  1  0  0  0  0
  2 27  1  0  0  0  0
  2 14  1  0  0  0  0
  3  7  1  6  0  0  0
  3 19  1  0  0  0  0
  3 16  1  0  0  0  0
  4 15  1  0  0  0  0
  5 15  1  0  0  0  0
  5 11  1  6  0  0  0
  6  7  1  6  0  0  0
  6  3  1  0  0  0  0
  6 19  1  0  0  0  0
  8 16  1  0  0  0  0
  8 12  1  0  0  0  0
  9 25  1  0  0  0  0
  9 13  1  0  0  0  0
 13 24  1  0  0  0  0
 14 25  1  0  0  0  0
 15 12  1  0  0  0  0
 17 28  1  0  0  0  0
 17 10  1  0  0  0  0
 18 20  1  0  0  0  0
 18  4  2  0  0  0  0
 19  5  1  0  0  0  0
 20 13  1  0  0  0  0
 20 11  1  0  0  0  0
 21 23  2  0  0  0  0
 22 10  1  0  0  0  0
 23  4  1  0  0  0  0
 24 22  1  0  0  0  0
 25 17  1  0  0  0  0
 26  1  2  0  0  0  0
 26 21  1  0  0  0  0
 27  1  1  0  0  0  0
 27  9  1  0  0  0  0
 28 29  1  0  0  0  0
 29 32  1  0  0  0  0
 31 32  2  0  0  0  0
 31 33  1  0  0  0  0
 32 34  1  0  0  0  0
 33 30  2  0  0  0  0
 34 30  1  0  0  0  0
M  END
>  <MODEL>
2

>  <REMARK>
 VINA RESULT:      -6.6      4.351      8.752
  Name = 
  3 active torsions:
  status: ('A' for Active; 'I' for Inactive)
    1  A    between atoms: C_17  and  N_28
    2  A    between atoms: N_28  and  C_29
    3  A    between atoms: C_29  and  C_32
                            x       y       z     vdW  Elec       q    Type
                         _______ _______ _______ _____ _____    ______ ____

>  <TORSDO>
F 3

$$$$
=
 OpenBabel11122412103D

 34 42  0  0  1  0  0  0  0  0999 V2000
  189.8340  177.7670  138.8030 C   0  0  0  0  0  0  0  0  0  0  0  0
  188.9360  178.1330  136.4800 C   0  0  0  0  0  2  0  0  0  0  0  0
  190.2930  178.6370  144.5100 C   0  0  2  0  0  0  0  0  0  0  0  0
  190.2700  176.6670  140.9400 C   0  0  0  0  0  0  0  0  0  0  0  0
  188.7620  177.1760  142.9510 C   0  0  1  0  0  3  0  0  0  0  0  0
  190.6450  178.9660  143.0630 C   0  0  2  0  0  3  0  0  0  0  0  0
  191.3030  179.7210  144.2010 C   0  0  0  0  0  2  0  0  0  0  0  0
  191.7200  176.5240  143.9340 C   0  0  0  0  0  2  0  0  0  0  0  0
  187.5440  178.8960  138.3480 C   0  0  2  0  0  3  0  0  0  0  0  0
  184.5330  177.6300  138.0870 C   0  0  0  0  0  2  0  0  0  0  0  0
  187.6390  177.3450  141.9350 C   0  0  0  0  0  2  0  0  0  0  0  0
  190.7880  175.5520  143.2410 C   0  0  0  0  0  2  0  0  0  0  0  0
  187.0680  178.0870  139.5740 C   0  0  1  0  0  3  0  0  0  0  0  0
  187.6260  178.6320  135.9140 C   0  0  0  0  0  2  0  0  0  0  0  0
  189.7920  176.2360  142.3050 C   0  0  2  0  0  3  0  0  0  0  0  0
  190.9490  177.3230  144.9820 C   0  0  0  0  0  2  0  0  0  0  0  0
  185.7130  177.4890  137.1100 C   0  0  1  0  0  3  0  0  0  0  0  0
  189.4260  177.4530  140.1170 C   0  0  0  0  0  0  0  0  0  0  0  0
  189.2200  178.5820  143.4260 C   0  0  2  0  0  3  0  0  0  0  0  0
  188.1420  178.0550  140.6620 C   0  0  2  0  0  3  0  0  0  0  0  0
  191.8960  176.5270  139.1470 C   0  0  0  0  0  3  0  0  0  0  0  0
  184.6470  178.8100  139.0570 C   0  0  0  0  0  2  0  0  0  0  0  0
  191.4880  176.1950  140.4370 C   0  0  0  0  0  3  0  0  0  0  0  0
  185.7330  178.6180  140.1190 C   0  0  0  0  0  2  0  0  0  0  0  0
  186.6710  178.7070  137.0900 C   0  0  1  0  0  3  0  0  0  0  0  0
  191.0780  177.3140  138.3400 C   0  0  0  0  0  3  0  0  0  0  0  0
  188.9980  178.6530  137.9070 C   0  0  1  0  0  3  0  0  0  0  0  0
  186.4250  176.2450  137.3720 N   0  0  0  0  0  2  0  0  0  0  0  0
  186.2050  175.3630  136.2400 C   0  0  0  0  0  2  0  0  0  0  0  0
  183.4530  172.9750  136.9380 N   0  0  0  0  0  0  0  0  0  0  0  0
  185.6890  173.3230  137.4770 N   0  0  0  0  0  0  0  0  0  0  0  0
  185.3270  174.2380  136.6580 C   0  0  0  0  0  0  0  0  0  0  0  0
  184.5650  172.5160  137.6690 N   0  0  0  0  0  0  0  0  0  0  0  0
  183.9670  174.1110  136.2890 N   0  0  0  0  0  2  0  0  0  0  0  0
  1 18  1  0  0  0  0
  2 27  1  0  0  0  0
  3  7  1  1  0  0  0
  3 16  1  0  0  0  0
  4 15  1  0  0  0  0
  5 11  1  6  0  0  0
  5 19  1  0  0  0  0
  6 19  1  0  0  0  0
  6  7  1  1  0  0  0
  6  3  1  0  0  0  0
  8 16  1  0  0  0  0
  9 13  1  0  0  0  0
 10 22  1  0  0  0  0
 12  8  1  0  0  0  0
 13 24  1  0  0  0  0
 13 20  1  0  0  0  0
 14  2  1  0  0  0  0
 14 25  1  0  0  0  0
 15  5  1  0  0  0  0
 15 12  1  0  0  0  0
 17 28  1  0  0  0  0
 17 10  1  0  0  0  0
 18 20  1  0  0  0  0
 18  4  2  0  0  0  0
 19  3  1  0  0  0  0
 20 11  1  0  0  0  0
 21 23  2  0  0  0  0
 22 24  1  0  0  0  0
 23  4  1  0  0  0  0
 25 17  1  0  0  0  0
 25  9  1  0  0  0  0
 26  1  2  0  0  0  0
 26 21  1  0  0  0  0
 27  9  1  0  0  0  0
 27  1  1  0  0  0  0
 29 32  1  0  0  0  0
 29 28  1  0  0  0  0
 30 33  2  0  0  0  0
 31 33  1  0  0  0  0
 32 31  2  0  0  0  0
 34 32  1  0  0  0  0
 34 30  1  0  0  0  0
M  END
>  <MODEL>
3

>  <REMARK>
 VINA RESULT:      -6.2      2.026      3.134
  Name = 
  3 active torsions:
  status: ('A' for Active; 'I' for Inactive)
    1  A    between atoms: C_17  and  N_28
    2  A    between atoms: N_28  and  C_29
    3  A    between atoms: C_29  and  C_32
                            x       y       z     vdW  Elec       q    Type
                         _______ _______ _______ _____ _____    ______ ____

>  <TORSDO>
F 3

$$$$
=
 OpenBabel11122412103D

 34 42  0  0  1  0  0  0  0  0999 V2000
  189.7770  177.7460  138.8390 C   0  0  0  0  0  0  0  0  0  0  0  0
  188.8480  178.0990  136.5270 C   0  0  0  0  0  2  0  0  0  0  0  0
  190.3280  178.6610  144.5310 C   0  0  2  0  0  0  0  0  0  0  0  0
  190.2380  176.6610  140.9790 C   0  0  0  0  0  0  0  0  0  0  0  0
  188.7640  177.1990  143.0070 C   0  0  1  0  0  3  0  0  0  0  0  0
  190.6620  178.9750  143.0750 C   0  0  2  0  0  3  0  0  0  0  0  0
  191.3420  179.7340  144.1970 C   0  0  0  0  0  2  0  0  0  0  0  0
  191.7320  176.5330  143.9520 C   0  0  0  0  0  2  0  0  0  0  0  0
  187.4890  178.8880  138.4080 C   0  0  2  0  0  3  0  0  0  0  0  0
  184.4650  177.6430  138.2040 C   0  0  0  0  0  2  0  0  0  0  0  0
  187.6270  177.3670  142.0060 C   0  0  0  0  0  2  0  0  0  0  0  0
  190.7820  175.5610  143.2810 C   0  0  0  0  0  2  0  0  0  0  0  0
  187.0260  178.0930  139.6490 C   0  0  1  0  0  3  0  0  0  0  0  0
  187.5330  178.6040  135.9760 C   0  0  0  0  0  2  0  0  0  0  0  0
  189.7770  176.2450  142.3540 C   0  0  2  0  0  3  0  0  0  0  0  0
  190.9830  177.3460  145.0040 C   0  0  0  0  0  2  0  0  0  0  0  0
  185.6300  177.4850  137.2100 C   0  0  1  0  0  3  0  0  0  0  0  0
  189.3870  177.4460  140.1620 C   0  0  0  0  0  0  0  0  0  0  0  0
  189.2390  178.6050  143.4630 C   0  0  2  0  0  3  0  0  0  0  0  0
  188.1160  178.0630  140.7200 C   0  0  2  0  0  3  0  0  0  0  0  0
  191.8360  176.4940  139.1630 C   0  0  0  0  0  3  0  0  0  0  0  0
  184.6030  178.8300  139.1610 C   0  0  0  0  0  2  0  0  0  0  0  0
  191.4440  176.1760  140.4610 C   0  0  0  0  0  3  0  0  0  0  0  0
  185.7030  178.6390  140.2090 C   0  0  0  0  0  2  0  0  0  0  0  0
  186.5970  178.6950  137.1650 C   0  0  1  0  0  3  0  0  0  0  0  0
  191.0110  177.2800  138.3610 C   0  0  0  0  0  3  0  0  0  0  0  0
  188.9350  178.6310  137.9480 C   0  0  1  0  0  3  0  0  0  0  0  0
  186.3370  176.2370  137.4720 N   0  0  0  0  0  2  0  0  0  0  0  0
  185.8990  175.2660  136.4860 C   0  0  0  0  0  2  0  0  0  0  0  0
  187.7660  172.1010  136.9920 N   0  0  0  0  0  0  0  0  0  0  0  0
  187.9950  174.1510  135.9180 N   0  0  0  0  0  0  0  0  0  0  0  0
  186.8430  174.1170  136.4770 C   0  0  0  0  0  0  0  0  0  0  0  0
  188.5940  172.9210  136.2030 N   0  0  0  0  0  0  0  0  0  0  0  0
  186.6270  172.9040  137.1710 N   0  0  0  0  0  2  0  0  0  0  0  0
  1 18  1  0  0  0  0
  2 27  1  0  0  0  0
  3  7  1  1  0  0  0
  3 16  1  0  0  0  0
  4 15  1  0  0  0  0
  5 11  1  6  0  0  0
  5 19  1  0  0  0  0
  6 19  1  0  0  0  0
  6  7  1  1  0  0  0
  6  3  1  0  0  0  0
  8 16  1  0  0  0  0
  9 13  1  0  0  0  0
 10 22  1  0  0  0  0
 12  8  1  0  0  0  0
 13 24  1  0  0  0  0
 13 20  1  0  0  0  0
 14  2  1  0  0  0  0
 14 25  1  0  0  0  0
 15  5  1  0  0  0  0
 15 12  1  0  0  0  0
 17 28  1  0  0  0  0
 17 10  1  0  0  0  0
 18 20  1  0  0  0  0
 18  4  2  0  0  0  0
 19  3  1  0  0  0  0
 20 11  1  0  0  0  0
 21 23  2  0  0  0  0
 22 24  1  0  0  0  0
 23  4  1  0  0  0  0
 25 17  1  0  0  0  0
 25  9  1  0  0  0  0
 26  1  2  0  0  0  0
 26 21  1  0  0  0  0
 27  9  1  0  0  0  0
 27  1  1  0  0  0  0
 29 28  1  0  0  0  0
 30 34  1  0  0  0  0
 31 33  1  0  0  0  0
 31 32  2  0  0  0  0
 32 29  1  0  0  0  0
 32 34  1  0  0  0  0
 33 30  2  0  0  0  0
M  END
>  <MODEL>
4

>  <REMARK>
 VINA RESULT:      -6.1      2.327      3.475
  Name = 
  3 active torsions:
  status: ('A' for Active; 'I' for Inactive)
    1  A    between atoms: C_17  and  N_28
    2  A    between atoms: N_28  and  C_29
    3  A    between atoms: C_29  and  C_32
                            x       y       z     vdW  Elec       q    Type
                         _______ _______ _______ _____ _____    ______ ____

>  <TORSDO>
F 3

$$$$
=
 OpenBabel11122412103D

 34 42  0  0  1  0  0  0  0  0999 V2000
  185.6590  178.1380  137.5350 C   0  0  0  0  0  0  0  0  0  0  0  0
  188.0050  178.9900  137.2050 C   0  0  0  0  0  2  0  0  0  0  0  0
  180.8960  175.0940  136.2790 C   0  0  2  0  0  0  0  0  0  0  0  0
  183.7890  176.9050  138.5090 C   0  0  0  0  0  0  0  0  0  0  0  0
  183.1500  174.6170  137.5440 C   0  0  1  0  0  3  0  0  0  0  0  0
  181.7780  176.3320  136.1510 C   0  0  2  0  0  3  0  0  0  0  0  0
  180.4400  176.2700  135.4430 C   0  0  0  0  0  2  0  0  0  0  0  0
  180.5630  176.0950  138.6700 C   0  0  0  0  0  2  0  0  0  0  0  0
  187.3890  176.9310  136.0270 C   0  0  2  0  0  3  0  0  0  0  0  0
  189.5560  174.5670  136.7020 C   0  0  0  0  0  2  0  0  0  0  0  0
  184.6350  174.4410  137.2490 C   0  0  0  0  0  2  0  0  0  0  0  0
  181.7410  175.6280  139.4990 C   0  0  0  0  0  2  0  0  0  0  0  0
  186.7820  175.6400  136.6190 C   0  0  1  0  0  3  0  0  0  0  0  0
  189.2390  178.4600  136.5120 C   0  0  0  0  0  2  0  0  0  0  0  0
  183.0560  175.6030  138.7190 C   0  0  2  0  0  3  0  0  0  0  0  0
  180.1900  175.0240  137.6490 C   0  0  0  0  0  2  0  0  0  0  0  0
  189.5790  176.0380  137.1540 C   0  0  1  0  0  3  0  0  0  0  0  0
  184.9140  176.9460  137.6490 C   0  0  0  0  0  0  0  0  0  0  0  0
  182.4150  174.9530  136.2180 C   0  0  2  0  0  3  0  0  0  0  0  0
  185.2650  175.7620  136.7640 C   0  0  2  0  0  3  0  0  0  0  0  0
  184.1640  179.2220  139.1170 C   0  0  0  0  0  3  0  0  0  0  0  0
  188.6660  174.2890  135.4870 C   0  0  0  0  0  2  0  0  0  0  0  0
  183.4400  178.0400  139.2500 C   0  0  0  0  0  3  0  0  0  0  0  0
  187.1700  174.4030  135.7930 C   0  0  0  0  0  2  0  0  0  0  0  0
  188.9240  177.0220  136.1520 C   0  0  1  0  0  3  0  0  0  0  0  0
  185.2610  179.2720  138.2590 C   0  0  0  0  0  3  0  0  0  0  0  0
  186.8300  178.2510  136.5850 C   0  0  1  0  0  3  0  0  0  0  0  0
  188.9970  176.1550  138.4850 N   0  0  0  0  0  2  0  0  0  0  0  0
  190.0550  176.5570  139.3950 C   0  0  0  0  0  2  0  0  0  0  0  0
  189.1880  178.2420  142.5850 N   0  0  0  0  0  0  0  0  0  0  0  0
  188.3080  177.8880  140.4610 N   0  0  0  0  0  0  0  0  0  0  0  0
  189.4690  177.3490  140.5090 C   0  0  0  0  0  0  0  0  0  0  0  0
  188.1000  178.4590  141.7190 N   0  0  0  0  0  0  0  0  0  0  0  0
  190.0720  177.5030  141.7790 N   0  0  0  0  0  2  0  0  0  0  0  0
  1 18  2  0  0  0  0
  1 26  1  0  0  0  0
  3  7  1  6  0  0  0
  3 16  1  0  0  0  0
  4 15  1  0  0  0  0
  4 23  2  0  0  0  0
  5 11  1  6  0  0  0
  5 15  1  0  0  0  0
  6  7  1  6  0  0  0
  6 19  1  0  0  0  0
  6  3  1  0  0  0  0
  8 12  1  0  0  0  0
  9 25  1  0  0  0  0
  9 27  1  0  0  0  0
  9 13  1  0  0  0  0
 10 17  1  0  0  0  0
 13 20  1  0  0  0  0
 14  2  1  0  0  0  0
 15 12  1  0  0  0  0
 16  8  1  0  0  0  0
 17 28  1  0  0  0  0
 18  4  1  0  0  0  0
 19  3  1  0  0  0  0
 19  5  1  0  0  0  0
 20 11  1  0  0  0  0
 20 18  1  0  0  0  0
 21 23  1  0  0  0  0
 22 24  1  0  0  0  0
 22 10  1  0  0  0  0
 24 13  1  0  0  0  0
 25 14  1  0  0  0  0
 25 17  1  0  0  0  0
 26 21  2  0  0  0  0
 27  2  1  0  0  0  0
 27  1  1  0  0  0  0
 28 29  1  0  0  0  0
 29 32  1  0  0  0  0
 31 32  2  0  0  0  0
 31 33  1  0  0  0  0
 32 34  1  0  0  0  0
 33 30  2  0  0  0  0
 34 30  1  0  0  0  0
M  END
>  <MODEL>
5

>  <REMARK>
 VINA RESULT:      -5.7      3.577      8.343
  Name = 
  3 active torsions:
  status: ('A' for Active; 'I' for Inactive)
    1  A    between atoms: C_17  and  N_28
    2  A    between atoms: N_28  and  C_29
    3  A    between atoms: C_29  and  C_32
                            x       y       z     vdW  Elec       q    Type
                         _______ _______ _______ _____ _____    ______ ____

>  <TORSDO>
F 3

$$$$
=
 OpenBabel11122412103D

 34 42  0  0  1  0  0  0  0  0999 V2000
  183.2640  178.1330  139.3070 C   0  0  0  0  0  0  0  0  0  0  0  0
  181.3540  179.2530  140.5050 C   0  0  0  0  0  2  0  0  0  0  0  0
  185.8110  174.2100  135.8930 C   0  0  2  0  0  0  0  0  0  0  0  0
  185.0690  177.7900  137.6970 C   0  0  0  0  0  0  0  0  0  0  0  0
  184.5950  176.5110  135.5260 C   0  0  1  0  0  3  0  0  0  0  0  0
  185.2740  174.6780  137.2420 C   0  0  2  0  0  3  0  0  0  0  0  0
  185.9520  173.3280  137.1150 C   0  0  0  0  0  2  0  0  0  0  0  0
  187.6040  176.0280  136.4500 C   0  0  0  0  0  2  0  0  0  0  0  0
  180.7890  177.8260  138.5940 C   0  0  2  0  0  3  0  0  0  0  0  0
  178.9400  179.4920  136.4630 C   0  0  0  0  0  2  0  0  0  0  0  0
  183.1960  177.1110  135.5980 C   0  0  0  0  0  2  0  0  0  0  0  0
  187.0180  177.3570  136.0180 C   0  0  0  0  0  2  0  0  0  0  0  0
  181.3500  177.8920  137.1570 C   0  0  1  0  0  3  0  0  0  0  0  0
  179.8670  179.3660  140.2600 C   0  0  0  0  0  2  0  0  0  0  0  0
  185.5180  177.4700  136.2930 C   0  0  2  0  0  3  0  0  0  0  0  0
  187.1270  174.9220  135.5130 C   0  0  0  0  0  2  0  0  0  0  0  0
  179.4640  179.9540  137.8340 C   0  0  1  0  0  3  0  0  0  0  0  0
  183.6910  177.7340  138.0230 C   0  0  0  0  0  0  0  0  0  0  0  0
  184.5220  175.0230  135.9660 C   0  0  2  0  0  3  0  0  0  0  0  0
  182.6810  177.1470  137.0510 C   0  0  2  0  0  3  0  0  0  0  0  0
  185.5640  178.6280  139.9180 C   0  0  0  0  0  3  0  0  0  0  0  0
  178.9310  177.9730  136.2650 C   0  0  0  0  0  2  0  0  0  0  0  0
  185.9880  178.2570  138.6440 C   0  0  0  0  0  3  0  0  0  0  0  0
  180.3320  177.3720  136.1280 C   0  0  0  0  0  2  0  0  0  0  0  0
  179.6360  178.8130  138.8680 C   0  0  1  0  0  3  0  0  0  0  0  0
  184.2130  178.5580  140.2490 C   0  0  0  0  0  3  0  0  0  0  0  0
  181.8130  178.0330  139.7230 C   0  0  1  0  0  3  0  0  0  0  0  0
  180.6950  180.7160  137.6600 N   0  0  0  0  0  2  0  0  0  0  0  0
  180.6390  181.3520  136.3570 C   0  0  0  0  0  2  0  0  0  0  0  0
  181.1800  185.0030  135.9710 N   0  0  0  0  0  0  0  0  0  0  0  0
  181.3450  183.3390  137.5880 N   0  0  0  0  0  0  0  0  0  0  0  0
  180.8960  182.8090  136.5120 C   0  0  0  0  0  0  0  0  0  0  0  0
  181.5250  184.6940  137.3000 N   0  0  0  0  0  0  0  0  0  0  0  0
  180.7800  183.7530  135.4650 N   0  0  0  0  0  2  0  0  0  0  0  0
  1 27  1  0  0  0  0
  1 26  1  0  0  0  0
  3 16  1  6  0  0  0
  3 19  1  0  0  0  0
  3  7  1  0  0  0  0
  3  6  1  0  0  0  0
  4 18  1  0  0  0  0
  4 23  2  0  0  0  0
  5 11  1  1  0  0  0
  5 19  1  0  0  0  0
  5 15  1  0  0  0  0
  6  7  1  1  0  0  0
  9 25  1  0  0  0  0
  9 27  1  0  0  0  0
 10 17  1  0  0  0  0
 11 20  1  0  0  0  0
 12 15  1  0  0  0  0
 12  8  1  0  0  0  0
 13  9  1  0  0  0  0
 14  2  1  0  0  0  0
 15  4  1  0  0  0  0
 16  8  1  0  0  0  0
 17 25  1  0  0  0  0
 18  1  2  0  0  0  0
 19  6  1  0  0  0  0
 20 13  1  0  0  0  0
 20 18  1  0  0  0  0
 21 26  2  0  0  0  0
 22 10  1  0  0  0  0
 23 21  1  0  0  0  0
 24 22  1  0  0  0  0
 24 13  1  0  0  0  0
 25 14  1  0  0  0  0
 27  2  1  0  0  0  0
 28 17  1  0  0  0  0
 29 32  1  0  0  0  0
 29 28  1  0  0  0  0
 30 33  2  0  0  0  0
 32 31  2  0  0  0  0
 33 31  1  0  0  0  0
 34 30  1  0  0  0  0
 34 32  1  0  0  0  0
M  END
>  <MODEL>
6

>  <REMARK>
 VINA RESULT:      -5.7      4.514      7.415
  Name = 
  3 active torsions:
  status: ('A' for Active; 'I' for Inactive)
    1  A    between atoms: C_17  and  N_28
    2  A    between atoms: N_28  and  C_29
    3  A    between atoms: C_29  and  C_32
                            x       y       z     vdW  Elec       q    Type
                         _______ _______ _______ _____ _____    ______ ____

>  <TORSDO>
F 3

$$$$
=
 OpenBabel11122412103D

 34 42  0  0  1  0  0  0  0  0999 V2000
  186.0230  178.3750  139.6180 C   0  0  0  0  0  0  0  0  0  0  0  0
  188.4730  177.9340  139.2390 C   0  0  0  0  0  2  0  0  0  0  0  0
  180.6880  180.1790  138.2700 C   0  0  2  0  0  0  0  0  0  0  0  0
  183.6450  177.9340  139.9550 C   0  0  0  0  0  0  0  0  0  0  0  0
  182.0600  177.9620  137.9400 C   0  0  1  0  0  3  0  0  0  0  0  0
  182.1040  180.4210  138.7850 C   0  0  2  0  0  3  0  0  0  0  0  0
  181.0960  181.5520  138.7590 C   0  0  0  0  0  2  0  0  0  0  0  0
  180.5240  178.9260  140.5580 C   0  0  0  0  0  2  0  0  0  0  0  0
  187.0690  178.2170  137.2500 C   0  0  2  0  0  3  0  0  0  0  0  0
  187.4580  175.6630  135.2340 C   0  0  0  0  0  2  0  0  0  0  0  0
  183.2410  177.4340  137.1340 C   0  0  0  0  0  2  0  0  0  0  0  0
  181.0930  177.5410  140.3310 C   0  0  0  0  0  2  0  0  0  0  0  0
  185.7670  177.4680  136.8870 C   0  0  1  0  0  3  0  0  0  0  0  0
  189.3280  177.6720  138.0200 C   0  0  0  0  0  2  0  0  0  0  0  0
  182.3030  177.5330  139.3950 C   0  0  2  0  0  3  0  0  0  0  0  0
  179.8230  179.4120  139.2920 C   0  0  0  0  0  2  0  0  0  0  0  0
  188.1890  175.9530  136.5570 C   0  0  1  0  0  3  0  0  0  0  0  0
  184.7480  178.1010  139.0820 C   0  0  0  0  0  0  0  0  0  0  0  0
  181.8730  179.4700  137.6210 C   0  0  2  0  0  3  0  0  0  0  0  0
  184.5580  178.1030  137.5740 C   0  0  2  0  0  3  0  0  0  0  0  0
  185.0920  178.3140  141.8630 C   0  0  0  0  0  3  0  0  0  0  0  0
  186.7940  176.8860  134.5940 C   0  0  0  0  0  2  0  0  0  0  0  0
  183.8360  178.0210  141.3390 C   0  0  0  0  0  3  0  0  0  0  0  0
  185.5690  177.3830  135.3650 C   0  0  0  0  0  2  0  0  0  0  0  0
  188.3590  177.4600  136.8740 C   0  0  1  0  0  3  0  0  0  0  0  0
  186.1760  178.4980  141.0070 C   0  0  0  0  0  3  0  0  0  0  0  0
  187.2190  178.6240  138.7260 C   0  0  1  0  0  3  0  0  0  0  0  0
  187.5330  175.2410  137.6480 N   0  0  0  0  0  2  0  0  0  0  0  0
  187.7660  173.8220  137.4520 C   0  0  0  0  0  2  0  0  0  0  0  0
  184.8080  171.8870  136.3230 N   0  0  0  0  0  0  0  0  0  0  0  0
  185.4500  173.3180  138.0400 N   0  0  0  0  0  0  0  0  0  0  0  0
  186.4600  173.1310  137.2750 C   0  0  0  0  0  0  0  0  0  0  0  0
  184.4120  172.5600  137.4940 N   0  0  0  0  0  0  0  0  0  0  0  0
  186.1500  172.2810  136.1880 N   0  0  0  0  0  2  0  0  0  0  0  0
  1 26  1  0  0  0  0
  3  7  1  6  0  0  0
  3  6  1  0  0  0  0
  3 16  1  0  0  0  0
  4 23  2  0  0  0  0
  5 11  1  6  0  0  0
  5 15  1  0  0  0  0
  6  7  1  6  0  0  0
  9 27  1  0  0  0  0
 10 17  1  0  0  0  0
 11 20  1  0  0  0  0
 12  8  1  0  0  0  0
 13  9  1  0  0  0  0
 13 20  1  0  0  0  0
 14  2  1  0  0  0  0
 15  4  1  0  0  0  0
 15 12  1  0  0  0  0
 16  8  1  0  0  0  0
 17 25  1  0  0  0  0
 17 28  1  0  0  0  0
 18  1  2  0  0  0  0
 18  4  1  0  0  0  0
 19  5  1  0  0  0  0
 19  3  1  0  0  0  0
 19  6  1  0  0  0  0
 20 18  1  0  0  0  0
 22 10  1  0  0  0  0
 22 24  1  0  0  0  0
 23 21  1  0  0  0  0
 24 13  1  0  0  0  0
 25  9  1  0  0  0  0
 25 14  1  0  0  0  0
 26 21  2  0  0  0  0
 27  2  1  0  0  0  0
 27  1  1  0  0  0  0
 29 28  1  0  0  0  0
 30 33  2  0  0  0  0
 32 29  1  0  0  0  0
 32 31  2  0  0  0  0
 33 31  1  0  0  0  0
 34 30  1  0  0  0  0
 34 32  1  0  0  0  0
M  END
>  <MODEL>
7

>  <REMARK>
 VINA RESULT:      -5.5      3.324      7.307
  Name = 
  3 active torsions:
  status: ('A' for Active; 'I' for Inactive)
    1  A    between atoms: C_17  and  N_28
    2  A    between atoms: N_28  and  C_29
    3  A    between atoms: C_29  and  C_32
                            x       y       z     vdW  Elec       q    Type
                         _______ _______ _______ _____ _____    ______ ____

>  <TORSDO>
F 3

$$$$
=
 OpenBabel11122412103D

 34 42  0  0  1  0  0  0  0  0999 V2000
  184.1410  178.1790  138.7980 C   0  0  0  0  0  0  0  0  0  0  0  0
  185.8980  177.2660  137.2420 C   0  0  0  0  0  2  0  0  0  0  0  0
  178.9610  180.2950  140.2900 C   0  0  2  0  0  0  0  0  0  0  0  0
  182.4710  178.2410  140.5790 C   0  0  0  0  0  0  0  0  0  0  0  0
  179.9970  177.8970  140.0000 C   0  0  1  0  0  3  0  0  0  0  0  0
  180.3850  180.4580  139.7660 C   0  0  2  0  0  3  0  0  0  0  0  0
  179.4930  181.6700  139.9500 C   0  0  0  0  0  2  0  0  0  0  0  0
  180.2780  179.8460  142.5030 C   0  0  0  0  0  2  0  0  0  0  0  0
  183.5680  177.1400  136.4910 C   0  0  2  0  0  3  0  0  0  0  0  0
  182.8320  174.0630  135.6390 C   0  0  0  0  0  2  0  0  0  0  0  0
  180.4910  176.9690  138.8960 C   0  0  0  0  0  2  0  0  0  0  0  0
  180.6840  178.3870  142.4730 C   0  0  0  0  0  2  0  0  0  0  0  0
  182.3590  176.5290  137.2340 C   0  0  1  0  0  3  0  0  0  0  0  0
  185.8680  176.5110  135.9330 C   0  0  0  0  0  2  0  0  0  0  0  0
  181.0890  177.9030  141.0810 C   0  0  2  0  0  3  0  0  0  0  0  0
  178.9310  180.0230  141.8090 C   0  0  0  0  0  2  0  0  0  0  0  0
  184.1890  174.6270  136.0950 C   0  0  1  0  0  3  0  0  0  0  0  0
  182.8180  177.9580  139.2350 C   0  0  0  0  0  0  0  0  0  0  0  0
  179.5630  179.2440  139.3610 C   0  0  2  0  0  3  0  0  0  0  0  0
  181.7650  177.5260  138.2290 C   0  0  2  0  0  3  0  0  0  0  0  0
  184.7450  178.9570  141.0200 C   0  0  0  0  0  3  0  0  0  0  0  0
  181.8410  175.1180  135.1370 C   0  0  0  0  0  2  0  0  0  0  0  0
  183.4470  178.7180  141.4630 C   0  0  0  0  0  3  0  0  0  0  0  0
  181.2940  176.0140  136.2520 C   0  0  0  0  0  2  0  0  0  0  0  0
  184.4210  176.1120  135.7200 C   0  0  1  0  0  3  0  0  0  0  0  0
  185.0870  178.6970  139.6950 C   0  0  0  0  0  3  0  0  0  0  0  0
  184.5460  177.9520  137.3580 C   0  0  1  0  0  3  0  0  0  0  0  0
  184.3640  174.3960  137.5240 N   0  0  0  0  0  2  0  0  0  0  0  0
  184.7580  173.0110  137.7030 C   0  0  0  0  0  2  0  0  0  0  0  0
  188.2690  173.1410  136.5100 N   0  0  0  0  0  0  0  0  0  0  0  0
  186.3150  171.9270  136.1660 N   0  0  0  0  0  0  0  0  0  0  0  0
  186.0920  172.7970  137.0790 C   0  0  0  0  0  0  0  0  0  0  0  0
  187.6510  172.0990  135.7940 N   0  0  0  0  0  0  0  0  0  0  0  0
  187.2300  173.5950  137.3400 N   0  0  0  0  0  2  0  0  0  0  0  0
  1 18  2  0  0  0  0
  1 26  1  0  0  0  0
  2 27  1  0  0  0  0
  3  7  1  6  0  0  0
  3 16  1  0  0  0  0
  4 15  1  0  0  0  0
  4 23  2  0  0  0  0
  5 11  1  6  0  0  0
  5 15  1  0  0  0  0
  6  7  1  6  0  0  0
  6  3  1  0  0  0  0
  9 13  1  0  0  0  0
  9 27  1  0  0  0  0
 10 17  1  0  0  0  0
 12  8  1  0  0  0  0
 13 20  1  0  0  0  0
 14  2  1  0  0  0  0
 15 12  1  0  0  0  0
 16  8  1  0  0  0  0
 17 28  1  0  0  0  0
 18  4  1  0  0  0  0
 19  6  1  0  0  0  0
 19  5  1  0  0  0  0
 19  3  1  0  0  0  0
 20 11  1  0  0  0  0
 20 18  1  0  0  0  0
 21 23  1  0  0  0  0
 22 10  1  0  0  0  0
 22 24  1  0  0  0  0
 24 13  1  0  0  0  0
 25 14  1  0  0  0  0
 25 17  1  0  0  0  0
 25  9  1  0  0  0  0
 26 21  2  0  0  0  0
 27  1  1  0  0  0  0
 28 29  1  0  0  0  0
 30 34  1  0  0  0  0
 31 32  2  0  0  0  0
 32 34  1  0  0  0  0
 32 29  1  0  0  0  0
 33 31  1  0  0  0  0
 33 30  2  0  0  0  0
M  END
>  <MODEL>
8

>  <REMARK>
 VINA RESULT:      -5.4      4.072      7.585
  Name = 
  3 active torsions:
  status: ('A' for Active; 'I' for Inactive)
    1  A    between atoms: C_17  and  N_28
    2  A    between atoms: N_28  and  C_29
    3  A    between atoms: C_29  and  C_32
                            x       y       z     vdW  Elec       q    Type
                         _______ _______ _______ _____ _____    ______ ____

>  <TORSDO>
F 3

$$$$
=
 OpenBabel11122412103D

 34 42  0  0  1  0  0  0  0  0999 V2000
  183.7150  176.1120  135.5260 C   0  0  0  0  0  0  0  0  0  0  0  0
  185.7260  177.4770  134.8690 C   0  0  0  0  0  2  0  0  0  0  0  0
  180.4440  171.3520  135.9480 C   0  0  2  0  0  0  0  0  0  0  0  0
  182.1120  174.9360  136.9450 C   0  0  0  0  0  0  0  0  0  0  0  0
  182.3950  172.4200  137.3480 C   0  0  1  0  0  3  0  0  0  0  0  0
  180.9360  172.5890  135.2020 C   0  0  2  0  0  3  0  0  0  0  0  0
  179.8670  171.7030  134.5940 C   0  0  0  0  0  2  0  0  0  0  0  0
  179.3080  173.2010  137.4060 C   0  0  0  0  0  2  0  0  0  0  0  0
  186.0130  175.0450  134.9710 C   0  0  2  0  0  3  0  0  0  0  0  0
  188.5600  174.2990  136.8910 C   0  0  0  0  0  2  0  0  0  0  0  0
  183.8940  172.6770  137.2470 C   0  0  0  0  0  2  0  0  0  0  0  0
  180.3540  173.6700  138.3970 C   0  0  0  0  0  2  0  0  0  0  0  0
  185.6880  174.0950  136.1440 C   0  0  1  0  0  3  0  0  0  0  0  0
  187.1840  177.1670  134.6160 C   0  0  0  0  0  2  0  0  0  0  0  0
  181.7590  173.7440  137.7990 C   0  0  2  0  0  3  0  0  0  0  0  0
  179.5000  171.7150  137.1140 C   0  0  0  0  0  2  0  0  0  0  0  0
  188.0560  175.6930  136.4760 C   0  0  1  0  0  3  0  0  0  0  0  0
  183.3410  174.9550  136.2400 C   0  0  0  0  0  0  0  0  0  0  0  0
  181.9120  171.7640  136.0270 C   0  0  2  0  0  3  0  0  0  0  0  0
  184.2090  173.7110  136.1470 C   0  0  2  0  0  3  0  0  0  0  0  0
  181.6560  177.2040  136.2180 C   0  0  0  0  0  3  0  0  0  0  0  0
  188.0850  173.1560  135.9890 C   0  0  0  0  0  2  0  0  0  0  0  0
  181.2930  176.0720  136.9430 C   0  0  0  0  0  3  0  0  0  0  0  0
  186.5920  172.8520  136.1320 C   0  0  0  0  0  2  0  0  0  0  0  0
  187.3860  175.7380  135.0800 C   0  0  1  0  0  3  0  0  0  0  0  0
  182.8540  177.2200  135.5080 C   0  0  0  0  0  3  0  0  0  0  0  0
  184.9850  176.1590  134.7060 C   0  0  1  0  0  3  0  0  0  0  0  0
  187.1820  176.2290  137.5120 N   0  0  0  0  0  2  0  0  0  0  0  0
  187.8330  177.3970  138.0770 C   0  0  0  0  0  2  0  0  0  0  0  0
  185.0090  179.3910  139.4240 N   0  0  0  0  0  0  0  0  0  0  0  0
  187.0650  178.5360  140.0960 N   0  0  0  0  0  0  0  0  0  0  0  0
  186.8490  178.1620  138.8900 C   0  0  0  0  0  0  0  0  0  0  0  0
  185.9480  179.2890  140.4670 N   0  0  0  0  0  0  0  0  0  0  0  0
  185.6200  178.6560  138.3940 N   0  0  0  0  0  2  0  0  0  0  0  0
  1 18  1  0  0  0  0
  3  7  1  6  0  0  0
  3 19  1  0  0  0  0
  3 16  1  0  0  0  0
  4 15  1  0  0  0  0
  5 11  1  6  0  0  0
  5 15  1  0  0  0  0
  6  7  1  6  0  0  0
  6  3  1  0  0  0  0
  6 19  1  0  0  0  0
  8 12  1  0  0  0  0
  9 25  1  0  0  0  0
  9 13  1  0  0  0  0
 13 20  1  0  0  0  0
 14  2  1  0  0  0  0
 14 25  1  0  0  0  0
 15 12  1  0  0  0  0
 16  8  1  0  0  0  0
 17 10  1  0  0  0  0
 17 28  1  0  0  0  0
 18  4  2  0  0  0  0
 19  5  1  0  0  0  0
 20 18  1  0  0  0  0
 20 11  1  0  0  0  0
 21 23  2  0  0  0  0
 22 24  1  0  0  0  0
 22 10  1  0  0  0  0
 23  4  1  0  0  0  0
 24 13  1  0  0  0  0
 25 17  1  0  0  0  0
 26  1  2  0  0  0  0
 26 21  1  0  0  0  0
 27  2  1  0  0  0  0
 27  9  1  0  0  0  0
 27  1  1  0  0  0  0
 28 29  1  0  0  0  0
 29 32  1  0  0  0  0
 30 33  2  0  0  0  0
 31 33  1  0  0  0  0
 32 31  2  0  0  0  0
 34 32  1  0  0  0  0
 34 30  1  0  0  0  0
M  END
>  <MODEL>
9

>  <REMARK>
 VINA RESULT:      -5.3      4.517      9.210
  Name = 
  3 active torsions:
  status: ('A' for Active; 'I' for Inactive)
    1  A    between atoms: C_17  and  N_28
    2  A    between atoms: N_28  and  C_29
    3  A    between atoms: C_29  and  C_32
                            x       y       z     vdW  Elec       q    Type
                         _______ _______ _______ _____ _____    ______ ____

>  <TORSDO>
F 3

$$$$
