=
 OpenBabel11122411553D

 28 32  0  0  1  0  0  0  0  0999 V2000
  185.3680  178.1180  137.9500 C   0  0  0  0  0  0  0  0  0  0  0  0
  180.7330  177.9140  136.8010 C   0  0  0  0  0  1  0  0  0  0  0  0
  179.9070  176.8180  140.6320 O   0  0  0  0  0  0  0  0  0  0  0  0
  186.9300  175.9600  137.0830 C   0  0  0  0  0  3  0  0  0  0  0  0
  180.5450  175.3610  138.8990 N   0  0  0  0  0  0  0  0  0  0  0  0
  184.5570  179.2780  138.4530 C   0  0  0  0  0  2  0  0  0  0  0  0
  182.5000  178.2580  135.2560 O   0  0  0  0  0  1  0  0  0  0  0  0
  181.7010  177.2620  135.8170 C   0  0  1  0  0  0  0  0  0  0  0  0
  180.1640  175.3920  135.2050 C   0  0  0  0  0  0  0  0  0  0  0  0
  182.6090  176.2150  136.4890 C   0  0  2  0  0  3  0  0  0  0  0  0
  184.2640  178.2950  142.0540 C   0  0  0  0  0  1  0  0  0  0  0  0
  182.8940  175.7910  138.9210 C   0  0  2  0  0  3  0  0  0  0  0  0
  180.6320  174.6650  136.1740 N   0  0  0  0  0  0  0  0  0  0  0  0
  180.9130  176.5880  134.6980 C   0  0  0  0  0  2  0  0  0  0  0  0
  184.0680  178.2020  140.5550 C   0  0  1  0  0  3  0  0  0  0  0  0
  184.7510  176.8920  137.6250 C   0  0  0  0  0  0  0  0  0  0  0  0
  180.8110  176.3030  139.9210 C   0  0  0  0  0  0  0  0  0  0  0  0
  178.9310  175.0340  134.5940 N   0  0  0  0  0  1  0  0  0  0  0  0
  182.5880  178.0220  140.2350 C   0  0  0  0  0  2  0  0  0  0  0  0
  185.5450  175.8160  137.1970 C   0  0  0  0  0  3  0  0  0  0  0  0
  186.7550  178.2530  137.8370 C   0  0  0  0  0  3  0  0  0  0  0  0
  187.5340  177.1780  137.4010 C   0  0  0  0  0  3  0  0  0  0  0  0
  184.6160  179.3960  139.9130 N   0  0  0  0  0  2  0  0  0  0  0  0
  181.8060  174.8430  138.3840 C   0  0  2  0  0  3  0  0  0  0  0  0
  182.2550  176.5330  140.1240 C   0  0  2  0  0  3  0  0  0  0  0  0
  181.9080  174.9070  136.8600 C   0  0  2  0  0  3  0  0  0  0  0  0
  179.2920  174.6250  138.8240 C   0  0  0  0  0  1  0  0  0  0  0  0
  183.2640  176.7300  137.7650 C   0  0  1  0  0  3  0  0  0  0  0  0
  1  6  1  0  0  0  0
  4 20  2  0  0  0  0
  4 22  1  0  0  0  0
  5 17  1  0  0  0  0
  6 23  1  0  0  0  0
  7  8  1  0  0  0  0
  8 10  1  0  0  0  0
  8  2  1  1  0  0  0
  9 13  2  0  0  0  0
 10 26  1  0  0  0  0
 10 28  1  0  0  0  0
 12 25  1  0  0  0  0
 13 26  1  0  0  0  0
 14  9  1  0  0  0  0
 14  8  1  0  0  0  0
 15 11  1  0  0  0  0
 16 28  1  0  0  0  0
 16  1  2  0  0  0  0
 17 25  1  0  0  0  0
 17  3  2  0  0  0  0
 18  9  1  0  0  0  0
 19 15  1  0  0  0  0
 20 16  1  0  0  0  0
 21  1  1  0  0  0  0
 22 21  2  0  0  0  0
 23 15  1  0  0  0  0
 24  5  1  0  0  0  0
 24 12  1  0  0  0  0
 25 19  1  0  0  0  0
 26 24  1  0  0  0  0
 27  5  1  0  0  0  0
 28 12  1  0  0  0  0
M  END
>  <MODEL>
1

>  <REMARK>
 VINA RESULT:      -5.0      0.000      0.000
  Name = 
  0 active torsions:
  status: ('A' for Active; 'I' for Inactive)
                            x       y       z     vdW  Elec       q    Type
                         _______ _______ _______ _____ _____    ______ ____

>  <TORSDO>
F 0

$$$$
=
 OpenBabel11122411553D

 28 32  0  0  1  0  0  0  0  0999 V2000
  181.8480  176.3850  136.0280 C   0  0  0  0  0  0  0  0  0  0  0  0
  181.7930  180.3310  138.7250 C   0  0  0  0  0  1  0  0  0  0  0  0
  185.5160  179.3780  140.0650 O   0  0  0  0  0  0  0  0  0  0  0  0
  180.3440  174.2300  136.9990 C   0  0  0  0  0  3  0  0  0  0  0  0
  183.4930  178.5730  140.9550 N   0  0  0  0  0  0  0  0  0  0  0  0
  182.6860  177.5100  135.4910 C   0  0  0  0  0  2  0  0  0  0  0  0
  179.9440  179.5070  137.4880 O   0  0  0  0  0  1  0  0  0  0  0  0
  180.5290  179.4770  138.7540 C   0  0  1  0  0  0  0  0  0  0  0  0
  180.0330  179.9030  141.1630 C   0  0  0  0  0  0  0  0  0  0  0  0
  180.8150  178.0120  139.1350 C   0  0  2  0  0  3  0  0  0  0  0  0
  186.0790  176.2490  136.4490 C   0  0  0  0  0  1  0  0  0  0  0  0
  183.0290  176.8960  139.3180 C   0  0  2  0  0  3  0  0  0  0  0  0
  180.7530  178.8800  141.5130 N   0  0  0  0  0  0  0  0  0  0  0  0
  179.5400  180.0640  139.7560 C   0  0  0  0  0  2  0  0  0  0  0  0
  184.6690  176.7680  136.6440 C   0  0  1  0  0  3  0  0  0  0  0  0
  181.5050  176.3280  137.3950 C   0  0  0  0  0  0  0  0  0  0  0  0
  184.5480  178.5730  140.0120 C   0  0  0  0  0  0  0  0  0  0  0  0
  179.6810  180.8780  142.1380 N   0  0  0  0  0  1  0  0  0  0  0  0
  184.6800  177.9540  137.6010 C   0  0  0  0  0  2  0  0  0  0  0  0
  180.7550  175.2410  137.8710 C   0  0  0  0  0  3  0  0  0  0  0  0
  181.4350  175.3670  135.1630 C   0  0  0  0  0  3  0  0  0  0  0  0
  180.6830  174.2940  135.6450 C   0  0  0  0  0  3  0  0  0  0  0  0
  184.0940  177.1260  135.3480 N   0  0  0  0  0  2  0  0  0  0  0  0
  182.6310  177.4240  140.7090 C   0  0  2  0  0  3  0  0  0  0  0  0
  184.4400  177.4730  139.0330 C   0  0  2  0  0  3  0  0  0  0  0  0
  181.1490  177.7910  140.6120 C   0  0  2  0  0  3  0  0  0  0  0  0
  183.6080  179.2180  142.2540 C   0  0  0  0  0  1  0  0  0  0  0  0
  181.9630  177.4060  138.3370 C   0  0  1  0  0  3  0  0  0  0  0  0
  1 16  1  0  0  0  0
  4 20  1  0  0  0  0
  5 27  1  0  0  0  0
  6  1  1  0  0  0  0
  7  8  1  0  0  0  0
  8  2  1  1  0  0  0
  8 10  1  0  0  0  0
  8 14  1  0  0  0  0
  9 13  2  0  0  0  0
  9 18  1  0  0  0  0
 10 26  1  0  0  0  0
 11 15  1  0  0  0  0
 12 24  1  0  0  0  0
 14  9  1  0  0  0  0
 15 19  1  0  0  0  0
 16 20  2  0  0  0  0
 16 28  1  0  0  0  0
 17  3  2  0  0  0  0
 17  5  1  0  0  0  0
 19 25  1  0  0  0  0
 21 22  1  0  0  0  0
 21  1  2  0  0  0  0
 22  4  2  0  0  0  0
 23  6  1  0  0  0  0
 23 15  1  0  0  0  0
 24  5  1  0  0  0  0
 25 12  1  0  0  0  0
 25 17  1  0  0  0  0
 26 24  1  0  0  0  0
 26 13  1  0  0  0  0
 28 10  1  0  0  0  0
 28 12  1  0  0  0  0
M  END
>  <MODEL>
2

>  <REMARK>
 VINA RESULT:      -4.8      2.576      5.264
  Name = 
  0 active torsions:
  status: ('A' for Active; 'I' for Inactive)
                            x       y       z     vdW  Elec       q    Type
                         _______ _______ _______ _____ _____    ______ ____

>  <TORSDO>
F 0

$$$$
=
 OpenBabel11122411553D

 28 32  0  0  1  0  0  0  0  0999 V2000
  180.8430  175.6760  135.9800 C   0  0  0  0  0  0  0  0  0  0  0  0
  181.3130  179.7780  138.3870 C   0  0  0  0  0  1  0  0  0  0  0  0
  185.3170  179.0910  138.6310 O   0  0  0  0  0  0  0  0  0  0  0  0
  179.8220  173.5180  137.4470 C   0  0  0  0  0  3  0  0  0  0  0  0
  183.6920  178.2480  140.1070 N   0  0  0  0  0  0  0  0  0  0  0  0
  181.4160  176.8030  135.1700 C   0  0  0  0  0  2  0  0  0  0  0  0
  179.2430  178.7900  137.7820 O   0  0  0  0  0  1  0  0  0  0  0  0
  180.1680  178.8680  138.8230 C   0  0  1  0  0  0  0  0  0  0  0  0
  180.3590  179.4230  141.2500 C   0  0  0  0  0  0  0  0  0  0  0  0
  180.6450  177.4460  139.1730 C   0  0  2  0  0  3  0  0  0  0  0  0
  185.0160  175.7690  135.1580 C   0  0  0  0  0  1  0  0  0  0  0  0
  182.8840  176.4510  138.7570 C   0  0  2  0  0  3  0  0  0  0  0  0
  181.2130  178.4600  141.4230 N   0  0  0  0  0  0  0  0  0  0  0  0
  179.4740  179.4700  140.0400 C   0  0  0  0  0  2  0  0  0  0  0  0
  183.6910  176.2310  135.7300 C   0  0  1  0  0  3  0  0  0  0  0  0
  180.9110  175.6900  137.3890 C   0  0  0  0  0  0  0  0  0  0  0  0
  184.4280  178.2390  138.8990 C   0  0  0  0  0  0  0  0  0  0  0  0
  180.2410  180.4400  142.2380 N   0  0  0  0  0  1  0  0  0  0  0  0
  183.9010  177.4750  136.5860 C   0  0  0  0  0  2  0  0  0  0  0  0
  180.4020  174.6000  138.1130 C   0  0  0  0  0  3  0  0  0  0  0  0
  180.2640  174.5860  135.3210 C   0  0  0  0  0  3  0  0  0  0  0  0
  179.7530  173.5120  136.0510 C   0  0  0  0  0  3  0  0  0  0  0  0
  182.7450  176.4780  134.6430 N   0  0  0  0  0  2  0  0  0  0  0  0
  182.8700  177.0470  140.1770 C   0  0  2  0  0  3  0  0  0  0  0  0
  184.1140  177.0750  138.0470 C   0  0  2  0  0  3  0  0  0  0  0  0
  181.4030  177.3350  140.4970 C   0  0  2  0  0  3  0  0  0  0  0  0
  184.1330  178.9800  141.2850 C   0  0  0  0  0  1  0  0  0  0  0  0
  181.5510  176.8450  138.1050 C   0  0  1  0  0  3  0  0  0  0  0  0
  1 16  1  0  0  0  0
  3 17  2  0  0  0  0
  4 20  1  0  0  0  0
  5 24  1  0  0  0  0
  5 27  1  0  0  0  0
  6  1  1  0  0  0  0
  7  8  1  0  0  0  0
  8  2  1  6  0  0  0
  8 10  1  0  0  0  0
  8 14  1  0  0  0  0
  9 13  2  0  0  0  0
  9 18  1  0  0  0  0
 10 26  1  0  0  0  0
 11 15  1  0  0  0  0
 12 24  1  0  0  0  0
 14  9  1  0  0  0  0
 15 19  1  0  0  0  0
 16 28  1  0  0  0  0
 16 20  2  0  0  0  0
 17  5  1  0  0  0  0
 19 25  1  0  0  0  0
 21  1  2  0  0  0  0
 21 22  1  0  0  0  0
 22  4  2  0  0  0  0
 23  6  1  0  0  0  0
 23 15  1  0  0  0  0
 24 26  1  0  0  0  0
 25 12  1  0  0  0  0
 25 17  1  0  0  0  0
 26 13  1  0  0  0  0
 28 12  1  0  0  0  0
 28 10  1  0  0  0  0
M  END
>  <MODEL>
3

>  <REMARK>
 VINA RESULT:      -4.8      2.309      5.579
  Name = 
  0 active torsions:
  status: ('A' for Active; 'I' for Inactive)
                            x       y       z     vdW  Elec       q    Type
                         _______ _______ _______ _____ _____    ______ ____

>  <TORSDO>
F 0

$$$$
=
 OpenBabel11122411553D

 28 32  0  0  1  0  0  0  0  0999 V2000
  180.6360  174.3710  136.2360 C   0  0  0  0  0  0  0  0  0  0  0  0
  181.3280  178.9930  137.2370 C   0  0  0  0  0  1  0  0  0  0  0  0
  185.2780  178.1990  137.8160 O   0  0  0  0  0  0  0  0  0  0  0  0
  179.4630  172.8490  138.2760 C   0  0  0  0  0  3  0  0  0  0  0  0
  183.5830  177.9600  139.4290 N   0  0  0  0  0  0  0  0  0  0  0  0
  181.2900  175.1490  135.1300 C   0  0  0  0  0  2  0  0  0  0  0  0
  179.2090  177.9780  136.9070 O   0  0  0  0  0  1  0  0  0  0  0  0
  180.1220  178.3320  137.9010 C   0  0  1  0  0  0  0  0  0  0  0  0
  180.3150  179.6180  140.0330 C   0  0  0  0  0  0  0  0  0  0  0  0
  180.5050  177.0710  138.6970 C   0  0  2  0  0  3  0  0  0  0  0  0
  184.8170  173.9690  135.5640 C   0  0  0  0  0  1  0  0  0  0  0  0
  182.6830  175.8740  138.6910 C   0  0  2  0  0  3  0  0  0  0  0  0
  181.1050  178.7140  140.5290 N   0  0  0  0  0  0  0  0  0  0  0  0
  179.4510  179.3270  138.8410 C   0  0  0  0  0  2  0  0  0  0  0  0
  183.5160  174.6600  135.9170 C   0  0  1  0  0  3  0  0  0  0  0  0
  180.6860  174.8270  137.5700 C   0  0  0  0  0  0  0  0  0  0  0  0
  184.3340  177.5270  138.3110 C   0  0  0  0  0  0  0  0  0  0  0  0
  180.2470  180.9000  140.6440 N   0  0  0  0  0  1  0  0  0  0  0  0
  183.7920  176.0990  136.3420 C   0  0  0  0  0  2  0  0  0  0  0  0
  180.0990  174.0540  138.5840 C   0  0  0  0  0  3  0  0  0  0  0  0
  180.0000  173.1610  135.9370 C   0  0  0  0  0  3  0  0  0  0  0  0
  179.4120  172.4040  136.9520 C   0  0  0  0  0  3  0  0  0  0  0  0
  182.6030  174.6010  134.7770 N   0  0  0  0  0  2  0  0  0  0  0  0
  182.6870  176.8890  139.8480 C   0  0  2  0  0  3  0  0  0  0  0  0
  183.9590  176.1720  137.8610 C   0  0  2  0  0  3  0  0  0  0  0  0
  181.2370  177.3450  140.0130 C   0  0  2  0  0  3  0  0  0  0  0  0
  184.0530  179.0020  140.3290 C   0  0  0  0  0  1  0  0  0  0  0  0
  181.3870  176.1140  137.9050 C   0  0  1  0  0  3  0  0  0  0  0  0
  1 16  1  0  0  0  0
  3 17  2  0  0  0  0
  4 20  1  0  0  0  0
  5 24  1  0  0  0  0
  5 27  1  0  0  0  0
  6  1  1  0  0  0  0
  7  8  1  0  0  0  0
  8  2  1  6  0  0  0
  8 10  1  0  0  0  0
  8 14  1  0  0  0  0
  9 13  2  0  0  0  0
  9 18  1  0  0  0  0
 10 26  1  0  0  0  0
 11 15  1  0  0  0  0
 12 24  1  0  0  0  0
 14  9  1  0  0  0  0
 15 19  1  0  0  0  0
 16 28  1  0  0  0  0
 16 20  2  0  0  0  0
 17  5  1  0  0  0  0
 19 25  1  0  0  0  0
 21  1  2  0  0  0  0
 21 22  1  0  0  0  0
 22  4  2  0  0  0  0
 23  6  1  0  0  0  0
 23 15  1  0  0  0  0
 24 26  1  0  0  0  0
 25 17  1  0  0  0  0
 25 12  1  0  0  0  0
 26 13  1  0  0  0  0
 28 12  1  0  0  0  0
 28 10  1  0  0  0  0
M  END
>  <MODEL>
4

>  <REMARK>
 VINA RESULT:      -4.4      2.199      5.653
  Name = 
  0 active torsions:
  status: ('A' for Active; 'I' for Inactive)
                            x       y       z     vdW  Elec       q    Type
                         _______ _______ _______ _____ _____    ______ ____

>  <TORSDO>
F 0

$$$$
=
 OpenBabel11122411553D

 28 32  0  0  1  0  0  0  0  0999 V2000
  182.4990  179.8060  138.7180 C   0  0  0  0  0  0  0  0  0  0  0  0
  181.8000  175.1390  139.4770 C   0  0  0  0  0  1  0  0  0  0  0  0
  185.0930  174.3540  137.2180 O   0  0  0  0  0  0  0  0  0  0  0  0
  180.8060  180.9960  136.8290 C   0  0  0  0  0  3  0  0  0  0  0  0
  182.9160  174.6890  136.3930 N   0  0  0  0  0  0  0  0  0  0  0  0
  183.4410  179.1970  139.7160 C   0  0  0  0  0  2  0  0  0  0  0  0
  180.3010  176.8590  140.1270 O   0  0  0  0  0  1  0  0  0  0  0  0
  180.5650  175.9540  139.0990 C   0  0  1  0  0  0  0  0  0  0  0  0
  179.5060  174.1350  137.7560 C   0  0  0  0  0  0  0  0  0  0  0  0
  180.7520  176.7340  137.7840 C   0  0  2  0  0  3  0  0  0  0  0  0
  186.5060  178.9420  137.5800 C   0  0  0  0  0  1  0  0  0  0  0  0
  182.8570  177.0740  136.5070 C   0  0  2  0  0  3  0  0  0  0  0  0
  180.1210  174.5400  136.6860 N   0  0  0  0  0  0  0  0  0  0  0  0
  179.3650  175.0230  138.9560 C   0  0  0  0  0  2  0  0  0  0  0  0
  185.0900  178.6620  138.0400 C   0  0  1  0  0  3  0  0  0  0  0  0
  181.8380  179.0040  137.7640 C   0  0  0  0  0  0  0  0  0  0  0  0
  184.1660  175.1380  136.8810 C   0  0  0  0  0  0  0  0  0  0  0  0
  178.9310  172.8340  137.7820 N   0  0  0  0  0  1  0  0  0  0  0  0
  184.8720  177.1580  138.1600 C   0  0  0  0  0  2  0  0  0  0  0  0
  180.9960  179.6130  136.8190 C   0  0  0  0  0  3  0  0  0  0  0  0
  182.3050  181.1910  138.7190 C   0  0  0  0  0  3  0  0  0  0  0  0
  181.4590  181.7850  137.7800 C   0  0  0  0  0  3  0  0  0  0  0  0
  184.8420  179.3440  139.3100 N   0  0  0  0  0  2  0  0  0  0  0  0
  182.1370  175.8350  135.9420 C   0  0  2  0  0  3  0  0  0  0  0  0
  184.2950  176.6080  136.8530 C   0  0  2  0  0  3  0  0  0  0  0  0
  180.7220  175.8700  136.5210 C   0  0  2  0  0  3  0  0  0  0  0  0
  182.7160  173.3410  135.8830 C   0  0  0  0  0  1  0  0  0  0  0  0
  182.0570  177.5180  137.7410 C   0  0  1  0  0  3  0  0  0  0  0  0
  1 21  1  0  0  0  0
  1  6  1  0  0  0  0
  4 22  1  0  0  0  0
  5 17  1  0  0  0  0
  8  2  1  1  0  0  0
  8  7  1  0  0  0  0
  9 18  1  0  0  0  0
  9 14  1  0  0  0  0
 10  8  1  0  0  0  0
 11 15  1  0  0  0  0
 12 25  1  0  0  0  0
 12 28  1  0  0  0  0
 13  9  2  0  0  0  0
 14  8  1  0  0  0  0
 15 19  1  0  0  0  0
 15 23  1  0  0  0  0
 16  1  2  0  0  0  0
 17  3  2  0  0  0  0
 20  4  2  0  0  0  0
 20 16  1  0  0  0  0
 22 21  2  0  0  0  0
 23  6  1  0  0  0  0
 24  5  1  0  0  0  0
 24 12  1  0  0  0  0
 24 26  1  0  0  0  0
 25 17  1  0  0  0  0
 25 19  1  0  0  0  0
 26 13  1  0  0  0  0
 26 10  1  0  0  0  0
 27  5  1  0  0  0  0
 28 16  1  0  0  0  0
 28 10  1  0  0  0  0
M  END
>  <MODEL>
5

>  <REMARK>
 VINA RESULT:      -4.4      1.978      4.244
  Name = 
  0 active torsions:
  status: ('A' for Active; 'I' for Inactive)
                            x       y       z     vdW  Elec       q    Type
                         _______ _______ _______ _____ _____    ______ ____

>  <TORSDO>
F 0

$$$$
=
 OpenBabel11122411553D

 28 32  0  0  1  0  0  0  0  0999 V2000
  180.6490  179.1050  142.4410 C   0  0  0  0  0  0  0  0  0  0  0  0
  182.8360  175.9500  139.5940 C   0  0  0  0  0  1  0  0  0  0  0  0
  186.3690  177.8170  140.3630 O   0  0  0  0  0  0  0  0  0  0  0  0
  179.2240  181.1340  141.1370 C   0  0  0  0  0  3  0  0  0  0  0  0
  184.8200  178.4470  138.7090 N   0  0  0  0  0  0  0  0  0  0  0  0
  181.4230  178.0470  143.1750 C   0  0  0  0  0  2  0  0  0  0  0  0
  180.4860  176.1300  139.8670 O   0  0  0  0  0  1  0  0  0  0  0  0
  181.5410  176.5570  139.0590 C   0  0  1  0  0  0  0  0  0  0  0  0
  182.2980  176.6260  136.6810 C   0  0  0  0  0  0  0  0  0  0  0  0
  181.5700  178.0960  139.0500 C   0  0  2  0  0  3  0  0  0  0  0  0
  184.4240  180.0630  144.1520 C   0  0  0  0  0  1  0  0  0  0  0  0
  183.2550  179.5890  140.1060 C   0  0  2  0  0  3  0  0  0  0  0  0
  182.8010  177.8110  136.8550 N   0  0  0  0  0  0  0  0  0  0  0  0
  181.2930  176.0580  137.6390 C   0  0  0  0  0  2  0  0  0  0  0  0
  183.4390  179.3690  143.2330 C   0  0  1  0  0  3  0  0  0  0  0  0
  180.9460  179.4190  141.0990 C   0  0  0  0  0  0  0  0  0  0  0  0
  185.3050  178.4080  140.0370 C   0  0  0  0  0  0  0  0  0  0  0  0
  182.6850  175.8610  135.5460 N   0  0  0  0  0  1  0  0  0  0  0  0
  184.1850  178.4590  142.2640 C   0  0  0  0  0  2  0  0  0  0  0  0
  180.2300  180.4420  140.4580 C   0  0  0  0  0  3  0  0  0  0  0  0
  179.6430  179.8050  143.1150 C   0  0  0  0  0  3  0  0  0  0  0  0
  178.9310  180.8150  142.4650 C   0  0  0  0  0  3  0  0  0  0  0  0
  182.4650  178.6240  144.0300 N   0  0  0  0  0  2  0  0  0  0  0  0
  183.6700  179.3400  138.6440 C   0  0  2  0  0  3  0  0  0  0  0  0
  184.4890  179.2130  140.9670 C   0  0  2  0  0  3  0  0  0  0  0  0
  182.4540  178.7110  137.9630 C   0  0  2  0  0  3  0  0  0  0  0  0
  185.6640  178.1530  137.5610 C   0  0  0  0  0  1  0  0  0  0  0  0
  182.0400  178.6880  140.3740 C   0  0  1  0  0  3  0  0  0  0  0  0
  1 21  1  0  0  0  0
  1  6  1  0  0  0  0
  4 22  1  0  0  0  0
  5 17  1  0  0  0  0
  6 23  1  0  0  0  0
  8  2  1  1  0  0  0
  8  7  1  0  0  0  0
  9 13  2  0  0  0  0
  9 14  1  0  0  0  0
 10  8  1  0  0  0  0
 10 28  1  0  0  0  0
 12 28  1  0  0  0  0
 12 25  1  0  0  0  0
 13 26  1  0  0  0  0
 14  8  1  0  0  0  0
 15 23  1  0  0  0  0
 15 11  1  0  0  0  0
 16  1  2  0  0  0  0
 17  3  2  0  0  0  0
 17 25  1  0  0  0  0
 18  9  1  0  0  0  0
 19 15  1  0  0  0  0
 20 16  1  0  0  0  0
 20  4  2  0  0  0  0
 22 21  2  0  0  0  0
 24  5  1  0  0  0  0
 24 12  1  0  0  0  0
 25 19  1  0  0  0  0
 26 24  1  0  0  0  0
 26 10  1  0  0  0  0
 27  5  1  0  0  0  0
 28 16  1  0  0  0  0
M  END
>  <MODEL>
6

>  <REMARK>
 VINA RESULT:      -4.3      2.820      5.539
  Name = 
  0 active torsions:
  status: ('A' for Active; 'I' for Inactive)
                            x       y       z     vdW  Elec       q    Type
                         _______ _______ _______ _____ _____    ______ ____

>  <TORSDO>
F 0

$$$$
=
 OpenBabel11122411553D

 28 32  0  0  1  0  0  0  0  0999 V2000
  182.0890  178.6160  140.6680 C   0  0  0  0  0  0  0  0  0  0  0  0
  182.4500  175.9740  136.7010 C   0  0  0  0  0  1  0  0  0  0  0  0
  180.6660  178.9840  134.6220 O   0  0  0  0  0  0  0  0  0  0  0  0
  180.0440  177.8790  142.4350 C   0  0  0  0  0  3  0  0  0  0  0  0
  179.5470  177.2940  135.8150 N   0  0  0  0  0  0  0  0  0  0  0  0
  183.1780  179.0560  139.7320 C   0  0  0  0  0  2  0  0  0  0  0  0
  182.9720  175.2170  138.8880 O   0  0  0  0  0  1  0  0  0  0  0  0
  181.9420  175.2530  137.9480 C   0  0  1  0  0  0  0  0  0  0  0  0
  180.3470  173.7810  136.7140 C   0  0  0  0  0  0  0  0  0  0  0  0
  180.7200  175.9500  138.5750 C   0  0  2  0  0  3  0  0  0  0  0  0
  181.5130  182.0560  138.2320 C   0  0  0  0  0  1  0  0  0  0  0  0
  179.7950  178.1880  138.0150 C   0  0  2  0  0  3  0  0  0  0  0  0
  179.4080  174.6710  136.8250 N   0  0  0  0  0  0  0  0  0  0  0  0
  181.5650  173.8200  137.5890 C   0  0  0  0  0  2  0  0  0  0  0  0
  181.7390  180.5940  138.5580 C   0  0  1  0  0  3  0  0  0  0  0  0
  181.0000  177.8500  140.2010 C   0  0  0  0  0  0  0  0  0  0  0  0
  180.2420  178.5210  135.7150 C   0  0  0  0  0  0  0  0  0  0  0  0
  180.2090  172.7320  135.7630 N   0  0  0  0  0  1  0  0  0  0  0  0
  181.7320  179.7690  137.2760 C   0  0  0  0  0  2  0  0  0  0  0  0
  179.9790  177.4920  141.0950 C   0  0  0  0  0  3  0  0  0  0  0  0
  182.1450  179.0030  142.0110 C   0  0  0  0  0  3  0  0  0  0  0  0
  181.1280  178.6330  142.8930 C   0  0  0  0  0  3  0  0  0  0  0  0
  182.9960  180.4420  139.2900 N   0  0  0  0  0  2  0  0  0  0  0  0
  179.0550  177.1300  137.1770 C   0  0  2  0  0  3  0  0  0  0  0  0
  180.3230  179.2380  137.0040 C   0  0  2  0  0  3  0  0  0  0  0  0
  179.4160  175.7770  137.7910 C   0  0  2  0  0  3  0  0  0  0  0  0
  178.9310  176.6500  134.6640 C   0  0  0  0  0  1  0  0  0  0  0  0
  180.9190  177.4490  138.7550 C   0  0  1  0  0  3  0  0  0  0  0  0
  1 21  1  0  0  0  0
  3 17  2  0  0  0  0
  4 22  1  0  0  0  0
  5 24  1  0  0  0  0
  6  1  1  0  0  0  0
  8  2  1  6  0  0  0
  8 10  1  0  0  0  0
  8  7  1  0  0  0  0
  9 13  2  0  0  0  0
  9 14  1  0  0  0  0
 10 28  1  0  0  0  0
 11 15  1  0  0  0  0
 12 28  1  0  0  0  0
 13 26  1  0  0  0  0
 14  8  1  0  0  0  0
 15 23  1  0  0  0  0
 16  1  2  0  0  0  0
 16 20  1  0  0  0  0
 17  5  1  0  0  0  0
 17 25  1  0  0  0  0
 18  9  1  0  0  0  0
 19 15  1  0  0  0  0
 20  4  2  0  0  0  0
 21 22  2  0  0  0  0
 23  6  1  0  0  0  0
 24 26  1  0  0  0  0
 24 12  1  0  0  0  0
 25 19  1  0  0  0  0
 25 12  1  0  0  0  0
 26 10  1  0  0  0  0
 27  5  1  0  0  0  0
 28 16  1  0  0  0  0
M  END
>  <MODEL>
7

>  <REMARK>
 VINA RESULT:      -4.2      2.429      4.616
  Name = 
  0 active torsions:
  status: ('A' for Active; 'I' for Inactive)
                            x       y       z     vdW  Elec       q    Type
                         _______ _______ _______ _____ _____    ______ ____

>  <TORSDO>
F 0

$$$$
=
 OpenBabel11122411553D

 28 32  0  0  1  0  0  0  0  0999 V2000
  186.5020  175.3450  136.2010 C   0  0  0  0  0  0  0  0  0  0  0  0
  182.7520  178.2900  135.8730 C   0  0  0  0  0  1  0  0  0  0  0  0
  184.1760  180.3410  139.0870 O   0  0  0  0  0  0  0  0  0  0  0  0
  185.9800  172.8360  137.3350 C   0  0  0  0  0  3  0  0  0  0  0  0
  182.8320  178.4140  139.1800 N   0  0  0  0  0  0  0  0  0  0  0  0
  186.8240  176.6880  135.6120 C   0  0  0  0  0  2  0  0  0  0  0  0
  183.0410  176.3130  134.5940 O   0  0  0  0  0  1  0  0  0  0  0  0
  182.4500  176.7970  135.7610 C   0  0  1  0  0  0  0  0  0  0  0  0
  180.2590  176.9280  136.9520 C   0  0  0  0  0  0  0  0  0  0  0  0
  182.9860  175.9950  136.9610 C   0  0  2  0  0  3  0  0  0  0  0  0
  188.4890  178.2630  138.5750 C   0  0  0  0  0  1  0  0  0  0  0  0
  184.5220  176.7820  138.7490 C   0  0  2  0  0  3  0  0  0  0  0  0
  180.8470  176.7400  138.0950 N   0  0  0  0  0  0  0  0  0  0  0  0
  180.9420  176.5900  135.6600 C   0  0  0  0  0  2  0  0  0  0  0  0
  187.3720  177.6490  137.7560 C   0  0  1  0  0  3  0  0  0  0  0  0
  185.3620  175.1640  137.0110 C   0  0  0  0  0  0  0  0  0  0  0  0
  184.0670  179.0870  139.0310 C   0  0  0  0  0  0  0  0  0  0  0  0
  178.9320  177.4400  136.9230 N   0  0  0  0  0  1  0  0  0  0  0  0
  186.1530  178.5650  137.7710 C   0  0  0  0  0  2  0  0  0  0  0  0
  185.1140  173.9040  137.5780 C   0  0  0  0  0  3  0  0  0  0  0  0
  187.3670  174.2710  135.9650 C   0  0  0  0  0  3  0  0  0  0  0  0
  187.1060  173.0200  136.5280 C   0  0  0  0  0  3  0  0  0  0  0  0
  187.8410  177.4000  136.3930 N   0  0  0  0  0  2  0  0  0  0  0  0
  183.0730  176.9770  139.2300 C   0  0  2  0  0  3  0  0  0  0  0  0
  185.2110  178.1620  138.9070 C   0  0  2  0  0  3  0  0  0  0  0  0
  182.1970  176.1840  138.2580 C   0  0  2  0  0  3  0  0  0  0  0  0
  181.6650  179.0460  139.7770 C   0  0  0  0  0  1  0  0  0  0  0  0
  184.4390  176.3170  137.2880 C   0  0  1  0  0  3  0  0  0  0  0  0
  1 16  1  0  0  0  0
  4 20  1  0  0  0  0
  5 24  1  0  0  0  0
  5 27  1  0  0  0  0
  6  1  1  0  0  0  0
  6 23  1  0  0  0  0
  7  8  1  0  0  0  0
  8  2  1  1  0  0  0
  8 10  1  0  0  0  0
  9 13  2  0  0  0  0
 10 28  1  0  0  0  0
 10 26  1  0  0  0  0
 12 25  1  0  0  0  0
 12 24  1  0  0  0  0
 13 26  1  0  0  0  0
 14  8  1  0  0  0  0
 14  9  1  0  0  0  0
 15 19  1  0  0  0  0
 15 11  1  0  0  0  0
 16 28  1  0  0  0  0
 16 20  2  0  0  0  0
 17  3  2  0  0  0  0
 17  5  1  0  0  0  0
 18  9  1  0  0  0  0
 19 25  1  0  0  0  0
 21  1  2  0  0  0  0
 21 22  1  0  0  0  0
 22  4  2  0  0  0  0
 23 15  1  0  0  0  0
 25 17  1  0  0  0  0
 26 24  1  0  0  0  0
 28 12  1  0  0  0  0
M  END
>  <MODEL>
8

>  <REMARK>
 VINA RESULT:      -4.2      2.071      3.492
  Name = 
  0 active torsions:
  status: ('A' for Active; 'I' for Inactive)
                            x       y       z     vdW  Elec       q    Type
                         _______ _______ _______ _____ _____    ______ ____

>  <TORSDO>
F 0

$$$$
=
 OpenBabel11122411553D

 28 32  0  0  1  0  0  0  0  0999 V2000
  185.0600  175.1610  137.2280 C   0  0  0  0  0  0  0  0  0  0  0  0
  181.1940  176.7760  139.5280 C   0  0  0  0  0  1  0  0  0  0  0  0
  178.9320  175.7240  136.3120 O   0  0  0  0  0  0  0  0  0  0  0  0
  186.7200  177.1250  136.1160 C   0  0  0  0  0  3  0  0  0  0  0  0
  180.0990  177.7510  136.5610 N   0  0  0  0  0  0  0  0  0  0  0  0
  184.1810  174.0800  137.7880 C   0  0  0  0  0  2  0  0  0  0  0  0
  183.4280  177.0270  140.2870 O   0  0  0  0  0  1  0  0  0  0  0  0
  182.4270  177.6770  139.5650 C   0  0  1  0  0  0  0  0  0  0  0  0
  181.1390  179.8140  139.4690 C   0  0  0  0  0  0  0  0  0  0  0  0
  182.9600  178.0050  138.1580 C   0  0  2  0  0  3  0  0  0  0  0  0
  182.5030  172.9670  134.6300 C   0  0  0  0  0  1  0  0  0  0  0  0
  182.2870  176.9720  136.0000 C   0  0  2  0  0  3  0  0  0  0  0  0
  181.1690  179.7960  138.1700 N   0  0  0  0  0  0  0  0  0  0  0  0
  182.0840  178.9790  140.2810 C   0  0  0  0  0  2  0  0  0  0  0  0
  182.8820  173.8980  135.7640 C   0  0  1  0  0  3  0  0  0  0  0  0
  184.5490  176.4510  136.9760 C   0  0  0  0  0  0  0  0  0  0  0  0
  180.0100  176.3750  136.2460 C   0  0  0  0  0  0  0  0  0  0  0  0
  180.2100  180.6590  140.1360 N   0  0  0  0  0  1  0  0  0  0  0  0
  181.6240  174.4820  136.3980 C   0  0  0  0  0  2  0  0  0  0  0  0
  185.3890  177.4260  136.4130 C   0  0  0  0  0  3  0  0  0  0  0  0
  186.3930  174.8670  136.9230 C   0  0  0  0  0  3  0  0  0  0  0  0
  187.2220  175.8460  136.3720 C   0  0  0  0  0  3  0  0  0  0  0  0
  183.6920  173.1740  136.7440 N   0  0  0  0  0  2  0  0  0  0  0  0
  181.4330  178.2330  136.2250 C   0  0  2  0  0  3  0  0  0  0  0  0
  181.2810  175.8200  135.7400 C   0  0  2  0  0  3  0  0  0  0  0  0
  182.1050  178.9970  137.3670 C   0  0  2  0  0  3  0  0  0  0  0  0
  178.9310  178.6170  136.6170 C   0  0  0  0  0  1  0  0  0  0  0  0
  183.1120  176.7700  137.2790 C   0  0  1  0  0  3  0  0  0  0  0  0
  1  6  1  0  0  0  0
  4 22  2  0  0  0  0
  4 20  1  0  0  0  0
  5 27  1  0  0  0  0
  8  2  1  6  0  0  0
  8 14  1  0  0  0  0
  8  7  1  0  0  0  0
  9 18  1  0  0  0  0
  9 14  1  0  0  0  0
 10  8  1  0  0  0  0
 11 15  1  0  0  0  0
 12 24  1  0  0  0  0
 12 28  1  0  0  0  0
 13  9  2  0  0  0  0
 15 19  1  0  0  0  0
 15 23  1  0  0  0  0
 16  1  1  0  0  0  0
 16 28  1  0  0  0  0
 17  3  2  0  0  0  0
 17  5  1  0  0  0  0
 20 16  2  0  0  0  0
 21  1  2  0  0  0  0
 22 21  1  0  0  0  0
 23  6  1  0  0  0  0
 24  5  1  0  0  0  0
 24 26  1  0  0  0  0
 25 12  1  0  0  0  0
 25 17  1  0  0  0  0
 25 19  1  0  0  0  0
 26 10  1  0  0  0  0
 26 13  1  0  0  0  0
 28 10  1  0  0  0  0
M  END
>  <MODEL>
9

>  <REMARK>
 VINA RESULT:      -4.1      2.231      4.731
  Name = 
  0 active torsions:
  status: ('A' for Active; 'I' for Inactive)
                            x       y       z     vdW  Elec       q    Type
                         _______ _______ _______ _____ _____    ______ ____

>  <TORSDO>
F 0

$$$$
