=
 OpenBabel11122410463D

 32 37  0  0  1  0  0  0  0  0999 V2000
  189.6720  175.7020  136.4860 C   0  0  0  0  0  2  0  0  0  0  0  0
  188.5260  178.1350  141.5610 C   0  0  1  0  0  3  0  0  0  0  0  0
  191.7990  176.2210  144.7580 C   0  0  0  0  0  2  0  0  0  0  0  0
  191.0340  177.1200  145.6210 N   0  0  0  0  0  2  0  0  0  0  0  0
  186.1570  178.8020  142.4570 C   0  0  2  0  0  3  0  0  0  0  0  0
  185.0500  178.3280  143.4050 C   0  0  2  0  0  3  0  0  0  0  0  0
  188.7730  177.1340  139.2830 N   0  0  2  0  0  0  0  0  0  0  0  0
  190.7760  177.4370  140.7500 C   0  0  0  0  0  2  0  0  0  0  0  0
  184.8620  178.5970  145.6940 C   0  0  0  0  0  0  0  0  0  0  0  0
  190.9500  176.1530  138.6340 C   0  0  0  0  0  2  0  0  0  0  0  0
  191.2670  176.2360  143.3170 C   0  0  0  0  0  2  0  0  0  0  0  0
  189.6820  177.1380  141.7820 C   0  0  1  0  0  3  0  0  0  0  0  0
  190.1860  177.2160  143.1580 N   0  0  1  0  0  0  0  0  0  0  0  0
  187.9220  177.7900  143.9550 C   0  0  2  0  0  3  0  0  0  0  0  0
  183.8210  179.3860  145.1450 N   0  0  0  0  0  2  0  0  0  0  0  0
  188.3380  175.9740  137.1910 C   0  0  0  0  0  2  0  0  0  0  0  0
  190.2380  177.3190  139.3150 C   0  0  1  0  0  3  0  0  0  0  0  0
  183.9740  179.3840  143.6940 C   0  0  0  0  0  2  0  0  0  0  0  0
  188.2970  177.3120  137.9170 C   0  0  0  0  0  2  0  0  0  0  0  0
  190.9120  176.3400  137.1260 C   0  0  1  0  0  3  0  0  0  0  0  0
  189.6140  176.7760  145.5360 C   0  0  0  0  0  2  0  0  0  0  0  0
  189.1040  176.8260  144.0810 C   0  0  2  0  0  3  0  0  0  0  0  0
  186.8900  177.4930  144.9450 N   0  0  0  0  0  2  0  0  0  0  0  0
  188.1350  178.1900  140.0710 C   0  0  0  0  0  2  0  0  0  0  0  0
  185.5420  178.9030  141.0700 C   0  0  0  0  0  1  0  0  0  0  0  0
  185.1920  178.5860  147.1460 C   0  0  0  0  0  1  0  0  0  0  0  0
  187.3560  177.8060  142.5140 C   0  0  2  0  0  3  0  0  0  0  0  0
  185.5910  178.0420  144.7520 C   0  0  0  0  0  0  0  0  0  0  0  0
  192.1160  175.7690  136.5400 N   0  0  0  0  0  2  0  0  0  0  0  0
  193.4290  176.1790  136.9250 C   0  0  0  0  0  0  0  0  0  0  0  0
  193.5950  177.0480  137.8210 O   0  0  0  0  0  0  0  0  0  0  0  0
  194.6130  175.5690  136.2640 C   0  0  0  0  0  1  0  0  0  0  0  0
  1 20  1  0  0  0  0
  1 16  1  0  0  0  0
  2 24  1  6  0  0  0
  2 12  1  0  0  0  0
  2 27  1  0  0  0  0
  3  4  1  0  0  0  0
  5 25  1  6  0  0  0
  5 27  1  0  0  0  0
  5  6  1  0  0  0  0
  6 18  1  1  0  0  0
  6 28  1  0  0  0  0
  7 19  1  6  0  0  0
  7 17  1  0  0  0  0
  7 24  1  0  0  0  0
  9 26  1  0  0  0  0
 11  3  1  0  0  0  0
 12  8  1  6  0  0  0
 12 13  1  0  0  0  0
 13 11  1  6  0  0  0
 13 22  1  0  0  0  0
 14 22  1  0  0  0  0
 14 23  1  1  0  0  0
 15  9  1  0  0  0  0
 16 19  1  0  0  0  0
 17 10  1  1  0  0  0
 17  8  1  0  0  0  0
 18 15  1  0  0  0  0
 20 29  1  6  0  0  0
 20 10  1  0  0  0  0
 21  4  1  0  0  0  0
 22 21  1  1  0  0  0
 27 14  1  0  0  0  0
 28 23  1  0  0  0  0
 28  9  2  0  0  0  0
 29 30  1  0  0  0  0
 30 31  2  0  0  0  0
 32 30  1  0  0  0  0
M  END
>  <MODEL>
1

>  <REMARK>
 VINA RESULT:     -10.9      0.000      0.000
  Name = 
  1 active torsions:
  status: ('A' for Active; 'I' for Inactive)
    1  A    between atoms: C_20  and  N_29
                            x       y       z     vdW  Elec       q    Type
                         _______ _______ _______ _____ _____    ______ ____

>  <TORSDO>
F 1

$$$$
=
 OpenBabel11122410463D

 32 37  0  0  1  0  0  0  0  0999 V2000
  181.3250  178.1980  140.3080 C   0  0  0  0  0  2  0  0  0  0  0  0
  186.3500  178.7730  143.0300 C   0  0  1  0  0  3  0  0  0  0  0  0
  189.8030  177.1250  139.8750 C   0  0  0  0  0  2  0  0  0  0  0  0
  190.6160  177.5050  141.0310 N   0  0  0  0  0  2  0  0  0  0  0  0
  186.7620  178.4630  145.5980 C   0  0  2  0  0  3  0  0  0  0  0  0
  187.3060  177.4570  146.6190 C   0  0  2  0  0  3  0  0  0  0  0  0
  184.0480  178.5210  142.0880 N   0  0  2  0  0  0  0  0  0  0  0  0
  185.9830  178.9970  140.5760 C   0  0  0  0  0  2  0  0  0  0  0  0
  189.4900  177.0490  147.2600 C   0  0  0  0  0  0  0  0  0  0  0  0
  183.7630  178.4220  139.6310 C   0  0  0  0  0  2  0  0  0  0  0  0
  188.3080  177.3620  140.1360 C   0  0  0  0  0  2  0  0  0  0  0  0
  186.6430  178.1340  141.6580 C   0  0  1  0  0  3  0  0  0  0  0  0
  188.0890  177.9920  141.4440 N   0  0  1  0  0  0  0  0  0  0  0  0
  188.4140  177.6530  143.8660 C   0  0  2  0  0  3  0  0  0  0  0  0
  188.8710  177.6170  148.4010 N   0  0  0  0  0  2  0  0  0  0  0  0
  181.7280  177.8760  141.7520 C   0  0  0  0  0  2  0  0  0  0  0  0
  184.4660  179.1090  140.7980 C   0  0  1  0  0  3  0  0  0  0  0  0
  187.5280  178.0400  148.0200 C   0  0  0  0  0  2  0  0  0  0  0  0
  182.6690  178.9040  142.3640 C   0  0  0  0  0  2  0  0  0  0  0  0
  182.3560  178.9770  139.4820 C   0  0  1  0  0  3  0  0  0  0  0  0
  190.1260  176.7970  142.2150 C   0  0  0  0  0  2  0  0  0  0  0  0
  188.6290  177.0760  142.4650 C   0  0  2  0  0  3  0  0  0  0  0  0
  189.0500  176.8190  144.8840 N   0  0  0  0  0  2  0  0  0  0  0  0
  184.8490  179.1010  143.1660 C   0  0  0  0  0  2  0  0  0  0  0  0
  185.3160  178.7410  145.9740 C   0  0  0  0  0  1  0  0  0  0  0  0
  190.9480  176.7550  147.1890 C   0  0  0  0  0  1  0  0  0  0  0  0
  186.9110  177.8810  144.1590 C   0  0  2  0  0  3  0  0  0  0  0  0
  188.6610  176.9970  146.2410 C   0  0  0  0  0  0  0  0  0  0  0  0
  181.9770  178.9560  138.0760 N   0  0  0  0  0  2  0  0  0  0  0  0
  181.1760  179.9770  137.4790 C   0  0  0  0  0  0  0  0  0  0  0  0
  180.7830  180.9650  138.1540 O   0  0  0  0  0  0  0  0  0  0  0  0
  180.8070  179.8750  136.0420 C   0  0  0  0  0  1  0  0  0  0  0  0
  1 16  1  0  0  0  0
  2 24  1  1  0  0  0
  2 27  1  0  0  0  0
  3 11  1  0  0  0  0
  3  4  1  0  0  0  0
  4 21  1  0  0  0  0
  5 25  1  1  0  0  0
  5  6  1  0  0  0  0
  6 18  1  1  0  0  0
  7 19  1  1  0  0  0
  7 24  1  0  0  0  0
  8 17  1  0  0  0  0
  9 15  1  0  0  0  0
 12  8  1  6  0  0  0
 12  2  1  0  0  0  0
 13 11  1  6  0  0  0
 13 12  1  0  0  0  0
 13 22  1  0  0  0  0
 14 27  1  0  0  0  0
 14 23  1  1  0  0  0
 16 19  1  0  0  0  0
 17 10  1  6  0  0  0
 17  7  1  0  0  0  0
 18 15  1  0  0  0  0
 20 29  1  6  0  0  0
 20 10  1  0  0  0  0
 20  1  1  0  0  0  0
 22 21  1  6  0  0  0
 22 14  1  0  0  0  0
 23 28  1  0  0  0  0
 26  9  1  0  0  0  0
 27  5  1  0  0  0  0
 28  6  1  0  0  0  0
 28  9  2  0  0  0  0
 30 29  1  0  0  0  0
 30 31  2  0  0  0  0
 32 30  1  0  0  0  0
M  END
>  <MODEL>
2

>  <REMARK>
 VINA RESULT:      -9.9      3.687      6.753
  Name = 
  1 active torsions:
  status: ('A' for Active; 'I' for Inactive)
    1  A    between atoms: C_20  and  N_29
                            x       y       z     vdW  Elec       q    Type
                         _______ _______ _______ _____ _____    ______ ____

>  <TORSDO>
F 1

$$$$
=
 OpenBabel11122410463D

 32 37  0  0  1  0  0  0  0  0999 V2000
  180.0690  177.8670  139.1890 C   0  0  0  0  0  2  0  0  0  0  0  0
  185.1270  178.9850  141.6700 C   0  0  1  0  0  3  0  0  0  0  0  0
  188.5600  178.1730  138.1840 C   0  0  0  0  0  2  0  0  0  0  0  0
  189.3850  178.5740  139.3240 N   0  0  0  0  0  2  0  0  0  0  0  0
  185.7590  178.5250  144.1690 C   0  0  2  0  0  3  0  0  0  0  0  0
  186.5180  177.5330  145.0570 C   0  0  2  0  0  3  0  0  0  0  0  0
  182.8290  178.4580  140.8370 N   0  0  2  0  0  0  0  0  0  0  0  0
  184.5600  179.3590  139.2730 C   0  0  0  0  0  2  0  0  0  0  0  0
  188.7770  177.4180  145.5350 C   0  0  0  0  0  0  0  0  0  0  0  0
  182.3920  178.5260  138.4020 C   0  0  0  0  0  2  0  0  0  0  0  0
  187.0680  178.1500  138.5500 C   0  0  0  0  0  2  0  0  0  0  0  0
  185.4160  178.5200  140.2280 C   0  0  1  0  0  3  0  0  0  0  0  0
  186.8480  178.6240  139.9210 N   0  0  1  0  0  0  0  0  0  0  0  0
  187.3890  178.1340  142.2780 C   0  0  2  0  0  3  0  0  0  0  0  0
  188.1620  177.7820  146.7570 N   0  0  0  0  0  2  0  0  0  0  0  0
  180.6140  177.4900  140.5710 C   0  0  0  0  0  2  0  0  0  0  0  0
  183.0630  179.2120  139.5880 C   0  0  1  0  0  3  0  0  0  0  0  0
  186.7470  178.0210  146.4940 C   0  0  0  0  0  2  0  0  0  0  0  0
  181.4300  178.5970  141.2250 C   0  0  0  0  0  2  0  0  0  0  0  0
  180.9100  178.8660  138.3850 C   0  0  1  0  0  3  0  0  0  0  0  0
  189.0910  177.7010  140.4610 C   0  0  0  0  0  2  0  0  0  0  0  0
  187.5910  177.7200  140.8190 C   0  0  2  0  0  3  0  0  0  0  0  0
  188.2120  177.3260  143.1760 N   0  0  0  0  0  2  0  0  0  0  0  0
  183.6070  179.0620  141.9200 C   0  0  0  0  0  2  0  0  0  0  0  0
  184.3170  178.5410  144.6500 C   0  0  0  0  0  1  0  0  0  0  0  0
  190.2550  177.3630  145.3550 C   0  0  0  0  0  1  0  0  0  0  0  0
  185.8930  178.0980  142.6760 C   0  0  2  0  0  3  0  0  0  0  0  0
  187.8970  177.3250  144.5630 C   0  0  0  0  0  0  0  0  0  0  0  0
  180.4410  178.9060  137.0070 N   0  0  0  0  0  2  0  0  0  0  0  0
  180.3950  180.1120  136.2430 C   0  0  0  0  0  0  0  0  0  0  0  0
  180.7900  181.2020  136.7370 O   0  0  0  0  0  0  0  0  0  0  0  0
  179.8800  180.0800  134.8490 C   0  0  0  0  0  1  0  0  0  0  0  0
  1 16  1  0  0  0  0
  2 24  1  1  0  0  0
  2 27  1  0  0  0  0
  3 11  1  0  0  0  0
  3  4  1  0  0  0  0
  4 21  1  0  0  0  0
  5 25  1  1  0  0  0
  5  6  1  0  0  0  0
  6 18  1  1  0  0  0
  7 19  1  1  0  0  0
  7 24  1  0  0  0  0
  8 17  1  0  0  0  0
  9 15  1  0  0  0  0
 12  8  1  6  0  0  0
 12  2  1  0  0  0  0
 13 11  1  6  0  0  0
 13 12  1  0  0  0  0
 13 22  1  0  0  0  0
 14 27  1  0  0  0  0
 14 23  1  1  0  0  0
 16 19  1  0  0  0  0
 17 10  1  6  0  0  0
 17  7  1  0  0  0  0
 18 15  1  0  0  0  0
 20 29  1  6  0  0  0
 20 10  1  0  0  0  0
 20  1  1  0  0  0  0
 22 21  1  6  0  0  0
 22 14  1  0  0  0  0
 23 28  1  0  0  0  0
 26  9  1  0  0  0  0
 27  5  1  0  0  0  0
 28  6  1  0  0  0  0
 28  9  2  0  0  0  0
 30 31  2  0  0  0  0
 30 29  1  0  0  0  0
 32 30  1  0  0  0  0
M  END
>  <MODEL>
3

>  <REMARK>
 VINA RESULT:      -9.9      4.232      7.321
  Name = 
  1 active torsions:
  status: ('A' for Active; 'I' for Inactive)
    1  A    between atoms: C_20  and  N_29
                            x       y       z     vdW  Elec       q    Type
                         _______ _______ _______ _____ _____    ______ ____

>  <TORSDO>
F 1

$$$$
=
 OpenBabel11122410463D

 32 37  0  0  1  0  0  0  0  0999 V2000
  189.3740  178.4590  148.4410 C   0  0  0  0  0  2  0  0  0  0  0  0
  186.6360  177.4390  143.4960 C   0  0  1  0  0  3  0  0  0  0  0  0
  190.1180  177.5480  139.9660 C   0  0  0  0  0  2  0  0  0  0  0  0
  188.9120  177.2720  139.1840 N   0  0  0  0  0  2  0  0  0  0  0  0
  184.2150  178.2210  142.8790 C   0  0  2  0  0  3  0  0  0  0  0  0
  183.4600  179.2890  142.0790 C   0  0  2  0  0  3  0  0  0  0  0  0
  187.5920  177.9640  145.7460 N   0  0  2  0  0  0  0  0  0  0  0  0
  188.9680  176.7530  144.0440 C   0  0  0  0  0  2  0  0  0  0  0  0
  182.9500  179.3490  139.8240 C   0  0  0  0  0  0  0  0  0  0  0  0
  190.0010  177.5670  146.1470 C   0  0  0  0  0  2  0  0  0  0  0  0
  189.7960  177.7050  141.4600 C   0  0  0  0  0  2  0  0  0  0  0  0
  188.1220  177.6730  143.1570 C   0  0  1  0  0  3  0  0  0  0  0  0
  188.3760  177.4480  141.7280 N   0  0  1  0  0  0  0  0  0  0  0  0
  186.1020  178.2450  141.1990 C   0  0  2  0  0  3  0  0  0  0  0  0
  181.7030  179.2000  140.4800 N   0  0  0  0  0  2  0  0  0  0  0  0
  188.0480  179.0030  147.8970 C   0  0  0  0  0  2  0  0  0  0  0  0
  188.7130  177.0250  145.5360 C   0  0  1  0  0  3  0  0  0  0  0  0
  181.9630  179.0030  141.9020 C   0  0  0  0  0  2  0  0  0  0  0  0
  187.2220  177.9590  147.1560 C   0  0  0  0  0  2  0  0  0  0  0  0
  190.0060  177.3100  147.6460 C   0  0  1  0  0  3  0  0  0  0  0  0
  187.9210  178.3160  139.4450 C   0  0  0  0  0  2  0  0  0  0  0  0
  187.6000  178.4310  140.9500 C   0  0  2  0  0  3  0  0  0  0  0  0
  185.3100  179.1280  140.3450 N   0  0  0  0  0  2  0  0  0  0  0  0
  186.4150  177.4820  145.0210 C   0  0  0  0  0  2  0  0  0  0  0  0
  183.7720  178.3550  144.3270 C   0  0  0  0  0  1  0  0  0  0  0  0
  183.1000  179.2970  138.3440 C   0  0  0  0  0  1  0  0  0  0  0  0
  185.7500  178.4190  142.6970 C   0  0  2  0  0  3  0  0  0  0  0  0
  183.9460  179.3480  140.6820 C   0  0  0  0  0  0  0  0  0  0  0  0
  191.3740  177.0960  148.0940 N   0  0  0  0  0  2  0  0  0  0  0  0
  192.0560  175.8520  147.9220 C   0  0  0  0  0  0  0  0  0  0  0  0
  191.4930  174.8840  147.3430 O   0  0  0  0  0  0  0  0  0  0  0  0
  193.4450  175.7000  148.4280 C   0  0  0  0  0  1  0  0  0  0  0  0
  2 24  1  1  0  0  0
  3 11  1  0  0  0  0
  4 21  1  0  0  0  0
  4  3  1  0  0  0  0
  5 25  1  1  0  0  0
  6 18  1  6  0  0  0
  6  5  1  0  0  0  0
  7 24  1  6  0  0  0
  7 19  1  0  0  0  0
  9 15  1  0  0  0  0
  9 28  2  0  0  0  0
 10 20  1  0  0  0  0
 12  2  1  0  0  0  0
 12  8  1  1  0  0  0
 13 11  1  1  0  0  0
 13 12  1  0  0  0  0
 14 23  1  6  0  0  0
 14 27  1  0  0  0  0
 15 18  1  0  0  0  0
 16  1  1  0  0  0  0
 17  8  1  6  0  0  0
 17  7  1  0  0  0  0
 17 10  1  0  0  0  0
 19 16  1  0  0  0  0
 20 29  1  1  0  0  0
 20  1  1  0  0  0  0
 22 21  1  6  0  0  0
 22 14  1  0  0  0  0
 22 13  1  0  0  0  0
 23 28  1  0  0  0  0
 26  9  1  0  0  0  0
 27  5  1  0  0  0  0
 27  2  1  0  0  0  0
 28  6  1  0  0  0  0
 30 29  1  0  0  0  0
 30 32  1  0  0  0  0
 31 30  2  0  0  0  0
M  END
>  <MODEL>
4

>  <REMARK>
 VINA RESULT:      -9.6      2.985      6.992
  Name = 
  1 active torsions:
  status: ('A' for Active; 'I' for Inactive)
    1  A    between atoms: C_20  and  N_29
                            x       y       z     vdW  Elec       q    Type
                         _______ _______ _______ _____ _____    ______ ____

>  <TORSDO>
F 1

$$$$
=
 OpenBabel11122410463D

 32 37  0  0  1  0  0  0  0  0999 V2000
  187.7710  177.0710  144.7190 C   0  0  0  0  0  2  0  0  0  0  0  0
  183.5780  178.9700  141.2850 C   0  0  1  0  0  3  0  0  0  0  0  0
  179.4500  178.9410  144.0330 C   0  0  0  0  0  2  0  0  0  0  0  0
  178.9480  179.4340  142.7510 N   0  0  0  0  0  2  0  0  0  0  0  0
  183.3620  178.5230  138.7130 C   0  0  2  0  0  3  0  0  0  0  0  0
  182.6180  177.6450  137.7010 C   0  0  2  0  0  3  0  0  0  0  0  0
  185.5350  178.0760  142.5560 N   0  0  2  0  0  0  0  0  0  0  0  0
  183.7330  179.3400  143.7430 C   0  0  0  0  0  2  0  0  0  0  0  0
  180.5110  177.9180  136.7890 C   0  0  0  0  0  0  0  0  0  0  0  0
  185.5030  178.1700  145.0290 C   0  0  0  0  0  2  0  0  0  0  0  0
  180.9540  178.6340  143.9690 C   0  0  0  0  0  2  0  0  0  0  0  0
  182.9360  178.6280  142.6440 C   0  0  1  0  0  3  0  0  0  0  0  0
  181.5160  179.0010  142.6630 N   0  0  1  0  0  0  0  0  0  0  0  0
  181.3570  178.5140  140.2500 C   0  0  2  0  0  3  0  0  0  0  0  0
  181.4060  178.1120  135.7090 N   0  0  0  0  0  2  0  0  0  0  0  0
  187.4400  176.7370  143.2590 C   0  0  0  0  0  2  0  0  0  0  0  0
  185.2100  178.9130  143.7290 C   0  0  1  0  0  3  0  0  0  0  0  0
  182.7630  178.1040  136.2440 C   0  0  0  0  0  2  0  0  0  0  0  0
  186.9840  177.9430  142.4500 C   0  0  0  0  0  2  0  0  0  0  0  0
  186.9910  178.2380  145.3350 C   0  0  1  0  0  3  0  0  0  0  0  0
  179.2870  178.4730  141.7000 C   0  0  0  0  0  2  0  0  0  0  0  0
  180.8060  178.2070  141.6440 C   0  0  2  0  0  3  0  0  0  0  0  0
  180.5860  177.8290  139.2140 N   0  0  0  0  0  2  0  0  0  0  0  0
  185.1050  178.7610  141.3370 C   0  0  0  0  0  2  0  0  0  0  0  0
  184.8480  178.2580  138.5250 C   0  0  0  0  0  1  0  0  0  0  0  0
  179.0420  178.1370  136.6760 C   0  0  0  0  0  1  0  0  0  0  0  0
  182.8680  178.1920  140.1540 C   0  0  2  0  0  3  0  0  0  0  0  0
  181.1560  177.7100  137.9160 C   0  0  0  0  0  0  0  0  0  0  0  0
  187.1860  178.2530  146.7770 N   0  0  0  0  0  2  0  0  0  0  0  0
  188.4630  178.0530  147.3840 C   0  0  0  0  0  0  0  0  0  0  0  0
  189.4920  177.8780  146.6770 O   0  0  0  0  0  0  0  0  0  0  0  0
  188.5820  178.0560  148.8660 C   0  0  0  0  0  1  0  0  0  0  0  0
  1 20  1  0  0  0  0
  2 24  1  1  0  0  0
  2 12  1  0  0  0  0
  4  3  1  0  0  0  0
  5 25  1  1  0  0  0
  5 27  1  0  0  0  0
  6 18  1  6  0  0  0
  6 28  1  0  0  0  0
  6  5  1  0  0  0  0
  7 24  1  6  0  0  0
  7 17  1  0  0  0  0
  9 28  2  0  0  0  0
 10 20  1  0  0  0  0
 11  3  1  0  0  0  0
 12 13  1  0  0  0  0
 12  8  1  1  0  0  0
 13 11  1  1  0  0  0
 14 23  1  6  0  0  0
 14 22  1  0  0  0  0
 15 18  1  0  0  0  0
 15  9  1  0  0  0  0
 16  1  1  0  0  0  0
 17  8  1  1  0  0  0
 17 10  1  0  0  0  0
 19  7  1  0  0  0  0
 19 16  1  0  0  0  0
 20 29  1  1  0  0  0
 21  4  1  0  0  0  0
 22 21  1  6  0  0  0
 22 13  1  0  0  0  0
 26  9  1  0  0  0  0
 27 14  1  0  0  0  0
 27  2  1  0  0  0  0
 28 23  1  0  0  0  0
 29 30  1  0  0  0  0
 30 32  1  0  0  0  0
 31 30  2  0  0  0  0
M  END
>  <MODEL>
5

>  <REMARK>
 VINA RESULT:      -8.5      4.614      8.814
  Name = 
  1 active torsions:
  status: ('A' for Active; 'I' for Inactive)
    1  A    between atoms: C_20  and  N_29
                            x       y       z     vdW  Elec       q    Type
                         _______ _______ _______ _____ _____    ______ ____

>  <TORSDO>
F 1

$$$$
