=
 OpenBabel11122410223D

 30 35  0  0  1  0  0  0  0  0999 V2000
  185.4240  178.1640  142.4280 C   0  0  0  0  0  0  0  0  0  0  0  0
  186.5560  178.0480  144.7280 C   0  0  0  0  0  0  0  0  0  0  0  0
  181.6070  178.9810  144.1530 C   0  0  0  0  0  2  0  0  0  0  0  0
  184.2560  178.3940  141.6600 C   0  0  0  0  0  0  0  0  0  0  0  0
  186.6770  177.7240  141.7200 C   0  0  0  0  0  2  0  0  0  0  0  0
  185.8170  179.0850  138.4390 O   0  0  0  0  0  0  0  0  0  0  0  0
  182.2250  176.8910  140.1930 C   0  0  1  0  0  3  0  0  0  0  0  0
  185.6740  178.6310  139.6050 C   0  0  0  0  0  0  0  0  0  0  0  0
  181.4140  178.1380  140.4490 C   0  0  1  0  0  3  0  0  0  0  0  0
  180.7890  178.9330  142.8490 C   0  0  1  0  0  3  0  0  0  0  0  0
  186.8230  178.3810  140.4290 N   0  0  0  0  0  0  0  0  0  0  0  0
  184.2890  178.3940  140.1450 C   0  0  1  0  0  3  0  0  0  0  0  0
  186.5350  178.5250  146.1520 C   0  0  0  0  0  2  0  0  0  0  0  0
  179.9680  177.6760  140.3560 C   0  0  0  0  0  2  0  0  0  0  0  0
  181.3010  175.9700  139.4330 C   0  0  0  0  0  2  0  0  0  0  0  0
  187.6010  177.4950  144.2960 O   0  0  0  0  0  0  0  0  0  0  0  0
  183.0100  178.7750  143.6950 C   0  0  0  0  0  0  0  0  0  0  0  0
  185.1450  178.6030  146.7200 C   0  0  0  0  0  3  0  0  0  0  0  0
  185.3760  178.2760  143.8490 C   0  0  0  0  0  0  0  0  0  0  0  0
  183.0560  178.6640  142.3360 C   0  0  0  0  0  0  0  0  0  0  0  0
  180.0910  180.2630  142.6410 C   0  0  0  0  0  1  0  0  0  0  0  0
  181.7510  178.7010  141.7680 N   0  0  0  0  0  0  0  0  0  0  0  0
  179.9360  176.3240  139.8000 N   0  0  0  0  0  2  0  0  0  0  0  0
  183.3730  177.4460  138.0070 C   0  0  0  0  0  1  0  0  0  0  0  0
  184.0590  178.6740  145.9500 C   0  0  0  0  0  3  0  0  0  0  0  0
  184.1510  178.6040  144.4790 C   0  0  0  0  0  0  0  0  0  0  0  0
  183.5710  177.1880  139.4990 C   0  0  2  0  0  3  0  0  0  0  0  0
  188.1690  178.6030  139.9220 C   0  0  0  0  0  2  0  0  0  0  0  0
  190.0360  177.4510  139.7000 C   0  0  0  0  0  1  0  0  0  0  0  0
  189.0780  177.8270  140.6400 O   0  0  0  0  0  0  0  0  0  0  0  0
  1 19  1  0  0  0  0
  2 13  1  0  0  0  0
  4 20  1  0  0  0  0
  4  1  2  0  0  0  0
  5  1  1  0  0  0  0
  6  8  2  0  0  0  0
  7 15  1  6  0  0  0
  7  9  1  0  0  0  0
  8 11  1  0  0  0  0
  9 14  1  1  0  0  0
  9 22  1  0  0  0  0
 10 21  1  6  0  0  0
 10  3  1  0  0  0  0
 11  5  1  0  0  0  0
 12  8  1  1  0  0  0
 12  4  1  0  0  0  0
 13 18  1  0  0  0  0
 15 23  1  0  0  0  0
 16  2  2  0  0  0  0
 17  3  1  0  0  0  0
 17 26  1  0  0  0  0
 19 26  2  0  0  0  0
 19  2  1  0  0  0  0
 20 17  2  0  0  0  0
 22 20  1  0  0  0  0
 22 10  1  0  0  0  0
 23 14  1  0  0  0  0
 25 18  2  0  0  0  0
 26 25  1  0  0  0  0
 27 24  1  6  0  0  0
 27 12  1  0  0  0  0
 27  7  1  0  0  0  0
 28 11  1  0  0  0  0
 28 30  1  0  0  0  0
 29 30  1  0  0  0  0
M  END
>  <MODEL>
1

>  <REMARK>
 VINA RESULT:      -8.7      0.000      0.000
  Name = 
  2 active torsions:
  status: ('A' for Active; 'I' for Inactive)
    1  A    between atoms: N_11  and  C_28
    2  A    between atoms: C_28  and  O_30
                            x       y       z     vdW  Elec       q    Type
                         _______ _______ _______ _____ _____    ______ ____

>  <TORSDO>
F 2

$$$$
=
 OpenBabel11122410223D

 30 35  0  0  1  0  0  0  0  0999 V2000
  188.5420  177.5660  141.3960 C   0  0  0  0  0  0  0  0  0  0  0  0
  186.6740  177.9430  143.1160 C   0  0  0  0  0  0  0  0  0  0  0  0
  185.9780  178.5620  138.1330 C   0  0  0  0  0  2  0  0  0  0  0  0
  188.9750  177.5980  140.0480 C   0  0  0  0  0  0  0  0  0  0  0  0
  189.4860  177.0430  142.4440 C   0  0  0  0  0  2  0  0  0  0  0  0
  192.5760  177.7040  140.6070 O   0  0  0  0  0  0  0  0  0  0  0  0
  189.5160  175.7630  137.8400 C   0  0  1  0  0  3  0  0  0  0  0  0
  191.3550  177.4810  140.8270 C   0  0  0  0  0  0  0  0  0  0  0  0
  189.2640  177.0060  137.0190 C   0  0  1  0  0  3  0  0  0  0  0  0
  186.9660  178.2300  137.0000 C   0  0  1  0  0  3  0  0  0  0  0  0
  190.8610  177.4400  142.1750 N   0  0  0  0  0  0  0  0  0  0  0  0
  190.4120  177.3030  139.6680 C   0  0  1  0  0  3  0  0  0  0  0  0
  185.4110  178.6880  143.4390 C   0  0  0  0  0  2  0  0  0  0  0  0
  188.8600  176.4810  135.6500 C   0  0  0  0  0  2  0  0  0  0  0  0
  189.8060  174.6780  136.8300 C   0  0  0  0  0  2  0  0  0  0  0  0
  187.2800  177.3560  144.0500 O   0  0  0  0  0  0  0  0  0  0  0  0
  186.7710  178.3230  139.3720 C   0  0  0  0  0  0  0  0  0  0  0  0
  184.4950  178.8240  142.2540 C   0  0  0  0  0  3  0  0  0  0  0  0
  187.2080  177.9510  141.7260 C   0  0  0  0  0  0  0  0  0  0  0  0
  188.0450  177.9500  139.0570 C   0  0  0  0  0  0  0  0  0  0  0  0
  187.2000  179.4670  136.1540 C   0  0  0  0  0  1  0  0  0  0  0  0
  188.2170  177.8270  137.6490 N   0  0  0  0  0  0  0  0  0  0  0  0
  189.1360  175.0460  135.5900 N   0  0  0  0  0  2  0  0  0  0  0  0
  192.0000  175.9230  138.2950 C   0  0  0  0  0  1  0  0  0  0  0  0
  184.9260  178.7030  140.9980 C   0  0  0  0  0  3  0  0  0  0  0  0
  186.3260  178.3510  140.6930 C   0  0  0  0  0  0  0  0  0  0  0  0
  190.6040  175.9690  138.9130 C   0  0  2  0  0  3  0  0  0  0  0  0
  191.7600  177.6090  143.3060 C   0  0  0  0  0  2  0  0  0  0  0  0
  191.5350  177.0220  145.4200 C   0  0  0  0  0  1  0  0  0  0  0  0
  191.6840  176.4920  144.1400 O   0  0  0  0  0  0  0  0  0  0  0  0
  1 19  1  0  0  0  0
  1  5  1  0  0  0  0
  2 13  1  0  0  0  0
  2 16  2  0  0  0  0
  3 17  1  0  0  0  0
  4  1  2  0  0  0  0
  6  8  2  0  0  0  0
  7 15  1  6  0  0  0
  7 27  1  0  0  0  0
  8 11  1  0  0  0  0
  9 14  1  6  0  0  0
  9 22  1  0  0  0  0
  9  7  1  0  0  0  0
 10 21  1  6  0  0  0
 10 22  1  0  0  0  0
 10  3  1  0  0  0  0
 11  5  1  0  0  0  0
 11 28  1  0  0  0  0
 12  4  1  1  0  0  0
 12  8  1  0  0  0  0
 17 26  1  0  0  0  0
 18 13  1  0  0  0  0
 19  2  1  0  0  0  0
 20 17  2  0  0  0  0
 20  4  1  0  0  0  0
 22 20  1  0  0  0  0
 23 14  1  0  0  0  0
 23 15  1  0  0  0  0
 25 18  2  0  0  0  0
 26 25  1  0  0  0  0
 26 19  2  0  0  0  0
 27 24  1  6  0  0  0
 27 12  1  0  0  0  0
 28 30  1  0  0  0  0
 30 29  1  0  0  0  0
M  END
>  <MODEL>
2

>  <REMARK>
 VINA RESULT:      -7.6      3.534      6.476
  Name = 
  2 active torsions:
  status: ('A' for Active; 'I' for Inactive)
    1  A    between atoms: N_11  and  C_28
    2  A    between atoms: C_28  and  O_30
                            x       y       z     vdW  Elec       q    Type
                         _______ _______ _______ _____ _____    ______ ____

>  <TORSDO>
F 2

$$$$
=
 OpenBabel11122410223D

 30 35  0  0  1  0  0  0  0  0999 V2000
  188.5210  177.4360  139.7420 C   0  0  0  0  0  0  0  0  0  0  0  0
  189.9400  176.4620  137.8380 C   0  0  0  0  0  0  0  0  0  0  0  0
  191.8930  177.7240  142.3410 C   0  0  0  0  0  2  0  0  0  0  0  0
  188.4500  177.9690  141.0520 C   0  0  0  0  0  0  0  0  0  0  0  0
  187.2420  177.2310  138.9760 C   0  0  0  0  0  2  0  0  0  0  0  0
  185.2570  179.7080  140.7890 O   0  0  0  0  0  0  0  0  0  0  0  0
  187.6300  177.1680  143.7390 C   0  0  1  0  0  3  0  0  0  0  0  0
  186.1670  178.8720  140.5430 C   0  0  0  0  0  0  0  0  0  0  0  0
  188.5840  178.2710  144.1340 C   0  0  1  0  0  3  0  0  0  0  0  0
  191.1310  178.1760  143.6010 C   0  0  1  0  0  3  0  0  0  0  0  0
  186.2870  178.3010  139.2310 N   0  0  0  0  0  0  0  0  0  0  0  0
  187.1540  178.5100  141.6200 C   0  0  1  0  0  3  0  0  0  0  0  0
  191.3010  176.3970  137.2060 C   0  0  0  0  0  2  0  0  0  0  0  0
  188.9920  177.9270  145.5580 C   0  0  0  0  0  2  0  0  0  0  0  0
  187.1070  176.6150  145.0440 C   0  0  0  0  0  2  0  0  0  0  0  0
  188.9490  176.0610  137.1720 O   0  0  0  0  0  0  0  0  0  0  0  0
  190.8320  177.6430  141.2990 C   0  0  0  0  0  0  0  0  0  0  0  0
  192.4100  176.3190  138.2170 C   0  0  0  0  0  3  0  0  0  0  0  0
  189.7800  177.0330  139.2030 C   0  0  0  0  0  0  0  0  0  0  0  0
  189.6280  178.0240  141.8150 C   0  0  0  0  0  0  0  0  0  0  0  0
  191.6680  179.5180  144.0610 C   0  0  0  0  0  1  0  0  0  0  0  0
  189.7260  178.3110  143.2050 N   0  0  0  0  0  0  0  0  0  0  0  0
  188.1200  176.8660  146.0600 N   0  0  0  0  0  2  0  0  0  0  0  0
  185.4510  178.4260  143.4660 C   0  0  0  0  0  1  0  0  0  0  0  0
  192.2520  176.7020  139.4850 C   0  0  0  0  0  3  0  0  0  0  0  0
  190.9460  177.1600  139.9950 C   0  0  0  0  0  0  0  0  0  0  0  0
  186.5490  177.6430  142.7470 C   0  0  2  0  0  3  0  0  0  0  0  0
  185.3410  178.6400  138.1790 C   0  0  0  0  0  2  0  0  0  0  0  0
  183.5270  177.3940  138.3290 C   0  0  0  0  0  1  0  0  0  0  0  0
  184.7560  177.4760  137.6770 O   0  0  0  0  0  0  0  0  0  0  0  0
  1  4  1  0  0  0  0
  2 19  1  0  0  0  0
  3 10  1  0  0  0  0
  4 12  1  0  0  0  0
  4 20  2  0  0  0  0
  5 11  1  0  0  0  0
  5  1  1  0  0  0  0
  7  9  1  0  0  0  0
  7 15  1  1  0  0  0
  8  6  2  0  0  0  0
  9 14  1  1  0  0  0
 10 21  1  6  0  0  0
 11  8  1  0  0  0  0
 12  8  1  6  0  0  0
 12 27  1  0  0  0  0
 13  2  1  0  0  0  0
 13 18  1  0  0  0  0
 14 23  1  0  0  0  0
 15 23  1  0  0  0  0
 16  2  2  0  0  0  0
 17 20  1  0  0  0  0
 17  3  1  0  0  0  0
 18 25  2  0  0  0  0
 19  1  2  0  0  0  0
 19 26  1  0  0  0  0
 20 22  1  0  0  0  0
 22 10  1  0  0  0  0
 22  9  1  0  0  0  0
 25 26  1  0  0  0  0
 26 17  2  0  0  0  0
 27 24  1  1  0  0  0
 27  7  1  0  0  0  0
 28 11  1  0  0  0  0
 30 28  1  0  0  0  0
 30 29  1  0  0  0  0
M  END
>  <MODEL>
3

>  <REMARK>
 VINA RESULT:      -7.4      3.078      7.525
  Name = 
  2 active torsions:
  status: ('A' for Active; 'I' for Inactive)
    1  A    between atoms: N_11  and  C_28
    2  A    between atoms: C_28  and  O_30
                            x       y       z     vdW  Elec       q    Type
                         _______ _______ _______ _____ _____    ______ ____

>  <TORSDO>
F 2

$$$$
=
 OpenBabel11122410223D

 30 35  0  0  1  0  0  0  0  0999 V2000
  187.7920  177.6070  141.7910 C   0  0  0  0  0  0  0  0  0  0  0  0
  187.2450  177.5090  144.2970 C   0  0  0  0  0  0  0  0  0  0  0  0
  183.8800  179.0030  140.8140 C   0  0  0  0  0  2  0  0  0  0  0  0
  187.3870  177.9260  140.4720 C   0  0  0  0  0  0  0  0  0  0  0  0
  189.1390  176.9690  141.9970 C   0  0  0  0  0  2  0  0  0  0  0  0
  190.6720  178.2000  138.9150 O   0  0  0  0  0  0  0  0  0  0  0  0
  186.4990  176.5890  138.0310 C   0  0  1  0  0  3  0  0  0  0  0  0
  189.7820  177.8470  139.7350 C   0  0  0  0  0  0  0  0  0  0  0  0
  185.8840  177.9410  137.7610 C   0  0  1  0  0  3  0  0  0  0  0  0
  184.0370  178.9670  139.2820 C   0  0  1  0  0  3  0  0  0  0  0  0
  190.1360  177.5140  141.0860 N   0  0  0  0  0  0  0  0  0  0  0  0
  188.3410  177.8190  139.3000 C   0  0  1  0  0  3  0  0  0  0  0  0
  186.4220  178.0800  145.4150 C   0  0  0  0  0  2  0  0  0  0  0  0
  184.7520  177.6550  136.7850 C   0  0  0  0  0  2  0  0  0  0  0  0
  186.1180  175.7390  136.8420 C   0  0  0  0  0  2  0  0  0  0  0  0
  188.2460  176.8030  144.5890 O   0  0  0  0  0  0  0  0  0  0  0  0
  185.2220  178.5960  141.3140 C   0  0  0  0  0  0  0  0  0  0  0  0
  185.0030  178.3670  145.0070 C   0  0  0  0  0  3  0  0  0  0  0  0
  186.8980  177.8200  142.8830 C   0  0  0  0  0  0  0  0  0  0  0  0
  186.0760  178.3880  140.2700 C   0  0  0  0  0  0  0  0  0  0  0  0
  183.8060  180.3570  138.7190 C   0  0  0  0  0  1  0  0  0  0  0  0
  185.4160  178.5460  139.0190 N   0  0  0  0  0  0  0  0  0  0  0  0
  184.8810  176.2830  136.2970 N   0  0  0  0  0  2  0  0  0  0  0  0
  188.8090  176.8490  137.0310 C   0  0  0  0  0  1  0  0  0  0  0  0
  184.6420  178.5190  143.7320 C   0  0  0  0  0  3  0  0  0  0  0  0
  185.6050  178.3390  142.6300 C   0  0  0  0  0  0  0  0  0  0  0  0
  188.0120  176.6700  138.3210 C   0  0  2  0  0  3  0  0  0  0  0  0
  191.5240  177.5340  141.5210 C   0  0  0  0  0  2  0  0  0  0  0  0
  191.6800  178.2620  143.5970 C   0  0  0  0  0  1  0  0  0  0  0  0
  191.6110  177.0930  142.8420 O   0  0  0  0  0  0  0  0  0  0  0  0
  1  5  1  0  0  0  0
  1 19  1  0  0  0  0
  2 16  2  0  0  0  0
  2 13  1  0  0  0  0
  3 17  1  0  0  0  0
  4  1  2  0  0  0  0
  6  8  2  0  0  0  0
  7 15  1  6  0  0  0
  7 27  1  0  0  0  0
  8 11  1  0  0  0  0
  9 14  1  6  0  0  0
  9  7  1  0  0  0  0
  9 22  1  0  0  0  0
 10 21  1  1  0  0  0
 10  3  1  0  0  0  0
 11 28  1  0  0  0  0
 11  5  1  0  0  0  0
 12  8  1  1  0  0  0
 12  4  1  0  0  0  0
 17 26  1  0  0  0  0
 18 13  1  0  0  0  0
 19  2  1  0  0  0  0
 20  4  1  0  0  0  0
 20 17  2  0  0  0  0
 22 10  1  0  0  0  0
 22 20  1  0  0  0  0
 23 14  1  0  0  0  0
 23 15  1  0  0  0  0
 25 18  2  0  0  0  0
 26 19  2  0  0  0  0
 26 25  1  0  0  0  0
 27 24  1  6  0  0  0
 27 12  1  0  0  0  0
 28 30  1  0  0  0  0
 30 29  1  0  0  0  0
M  END
>  <MODEL>
4

>  <REMARK>
 VINA RESULT:      -7.0      2.635      4.001
  Name = 
  2 active torsions:
  status: ('A' for Active; 'I' for Inactive)
    1  A    between atoms: N_11  and  C_28
    2  A    between atoms: C_28  and  O_30
                            x       y       z     vdW  Elec       q    Type
                         _______ _______ _______ _____ _____    ______ ____

>  <TORSDO>
F 2

$$$$
=
 OpenBabel11122410223D

 30 35  0  0  1  0  0  0  0  0999 V2000
  185.6630  178.2350  141.2570 C   0  0  0  0  0  0  0  0  0  0  0  0
  186.0710  178.2650  143.7910 C   0  0  0  0  0  0  0  0  0  0  0  0
  181.4930  178.9980  141.7440 C   0  0  0  0  0  2  0  0  0  0  0  0
  184.7680  178.3890  140.1700 C   0  0  0  0  0  0  0  0  0  0  0  0
  187.0770  177.8070  140.9720 C   0  0  0  0  0  2  0  0  0  0  0  0
  187.1930  178.9850  137.5140 O   0  0  0  0  0  0  0  0  0  0  0  0
  183.2890  176.7510  138.2570 C   0  0  1  0  0  3  0  0  0  0  0  0
  186.7220  178.5800  138.6110 C   0  0  0  0  0  0  0  0  0  0  0  0
  182.4130  177.9790  138.1970 C   0  0  1  0  0  3  0  0  0  0  0  0
  181.0950  178.8610  140.2620 C   0  0  1  0  0  3  0  0  0  0  0  0
  187.5830  178.4090  139.7460 N   0  0  0  0  0  0  0  0  0  0  0  0
  185.2450  178.3200  138.7330 C   0  0  1  0  0  3  0  0  0  0  0  0
  185.6230  178.8060  145.1190 C   0  0  0  0  0  2  0  0  0  0  0  0
  181.0680  177.4640  137.7100 C   0  0  0  0  0  2  0  0  0  0  0  0
  182.6470  175.7640  137.3110 C   0  0  0  0  0  2  0  0  0  0  0  0
  187.2080  177.7290  143.7140 O   0  0  0  0  0  0  0  0  0  0  0  0
  182.9720  178.8200  141.7280 C   0  0  0  0  0  0  0  0  0  0  0  0
  184.1260  178.8610  145.2500 C   0  0  0  0  0  3  0  0  0  0  0  0
  185.1970  178.4110  142.5940 C   0  0  0  0  0  0  0  0  0  0  0  0
  183.4170  178.6480  140.4500 C   0  0  0  0  0  0  0  0  0  0  0  0
  180.4630  180.1560  139.7870 C   0  0  0  0  0  1  0  0  0  0  0  0
  182.3370  178.6140  139.5230 N   0  0  0  0  0  0  0  0  0  0  0  0
  181.2270  176.0870  137.2430 N   0  0  0  0  0  2  0  0  0  0  0  0
  185.0170  177.2440  136.4750 C   0  0  0  0  0  1  0  0  0  0  0  0
  183.3140  178.8590  144.1930 C   0  0  0  0  0  3  0  0  0  0  0  0
  183.8350  178.7250  142.8190 C   0  0  0  0  0  0  0  0  0  0  0  0
  184.7720  177.0620  137.9720 C   0  0  2  0  0  3  0  0  0  0  0  0
  189.0140  178.6540  139.6440 C   0  0  0  0  0  2  0  0  0  0  0  0
  190.4710  177.1060  139.0590 C   0  0  0  0  0  1  0  0  0  0  0  0
  189.7180  177.5570  140.1410 O   0  0  0  0  0  0  0  0  0  0  0  0
  1 19  1  0  0  0  0
  2 13  1  0  0  0  0
  4 20  1  0  0  0  0
  4  1  2  0  0  0  0
  5  1  1  0  0  0  0
  6  8  2  0  0  0  0
  7 15  1  6  0  0  0
  8 11  1  0  0  0  0
  9 14  1  1  0  0  0
  9  7  1  0  0  0  0
  9 22  1  0  0  0  0
 10 21  1  6  0  0  0
 10  3  1  0  0  0  0
 11  5  1  0  0  0  0
 12  8  1  1  0  0  0
 12  4  1  0  0  0  0
 13 18  1  0  0  0  0
 16  2  2  0  0  0  0
 17  3  1  0  0  0  0
 17 26  1  0  0  0  0
 19 26  2  0  0  0  0
 19  2  1  0  0  0  0
 20 17  2  0  0  0  0
 22 10  1  0  0  0  0
 22 20  1  0  0  0  0
 23 15  1  0  0  0  0
 23 14  1  0  0  0  0
 25 18  2  0  0  0  0
 26 25  1  0  0  0  0
 27 24  1  6  0  0  0
 27  7  1  0  0  0  0
 27 12  1  0  0  0  0
 28 11  1  0  0  0  0
 28 30  1  0  0  0  0
 29 30  1  0  0  0  0
M  END
>  <MODEL>
5

>  <REMARK>
 VINA RESULT:      -7.0      1.378      1.892
  Name = 
  2 active torsions:
  status: ('A' for Active; 'I' for Inactive)
    1  A    between atoms: N_11  and  C_28
    2  A    between atoms: C_28  and  O_30
                            x       y       z     vdW  Elec       q    Type
                         _______ _______ _______ _____ _____    ______ ____

>  <TORSDO>
F 2

$$$$
=
 OpenBabel11122410223D

 30 35  0  0  1  0  0  0  0  0999 V2000
  186.9150  178.1860  141.5240 C   0  0  0  0  0  0  0  0  0  0  0  0
  184.4960  179.0320  141.3770 C   0  0  0  0  0  0  0  0  0  0  0  0
  186.7360  177.8840  145.7770 C   0  0  0  0  0  2  0  0  0  0  0  0
  187.9880  177.7080  142.3160 C   0  0  0  0  0  0  0  0  0  0  0  0
  187.1460  178.4040  140.0530 C   0  0  0  0  0  2  0  0  0  0  0  0
  189.9410  176.0730  139.7080 O   0  0  0  0  0  0  0  0  0  0  0  0
  190.5220  178.6440  143.4280 C   0  0  1  0  0  3  0  0  0  0  0  0
  189.1210  176.8660  140.2440 C   0  0  0  0  0  0  0  0  0  0  0  0
  190.2670  177.5260  144.4090 C   0  0  1  0  0  3  0  0  0  0  0  0
  188.2110  177.5090  146.0080 C   0  0  1  0  0  3  0  0  0  0  0  0
  188.0140  177.3790  139.4880 N   0  0  0  0  0  0  0  0  0  0  0  0
  189.2870  177.2370  141.6930 C   0  0  1  0  0  3  0  0  0  0  0  0
  183.1330  179.0220  142.0070 C   0  0  0  0  0  2  0  0  0  0  0  0
  191.0700  177.9120  145.6420 C   0  0  0  0  0  2  0  0  0  0  0  0
  191.8240  179.2680  143.8720 C   0  0  0  0  0  2  0  0  0  0  0  0
  184.6070  179.4400  140.1910 O   0  0  0  0  0  0  0  0  0  0  0  0
  186.6210  177.9590  144.2930 C   0  0  0  0  0  0  0  0  0  0  0  0
  183.1840  179.1020  143.5080 C   0  0  0  0  0  3  0  0  0  0  0  0
  185.6710  178.5210  142.1370 C   0  0  0  0  0  0  0  0  0  0  0  0
  187.8120  177.6420  143.7070 C   0  0  0  0  0  0  0  0  0  0  0  0
  188.2880  176.1690  146.7150 C   0  0  0  0  0  1  0  0  0  0  0  0
  188.8240  177.4080  144.6810 N   0  0  0  0  0  0  0  0  0  0  0  0
  191.9590  179.0230  145.3020 N   0  0  0  0  0  2  0  0  0  0  0  0
  191.7870  177.4550  141.5870 C   0  0  0  0  0  1  0  0  0  0  0  0
  184.2720  178.7760  144.2060 C   0  0  0  0  0  3  0  0  0  0  0  0
  185.5290  178.3850  143.5390 C   0  0  0  0  0  0  0  0  0  0  0  0
  190.4890  178.1680  141.9610 C   0  0  2  0  0  3  0  0  0  0  0  0
  187.8410  177.0330  138.0860 C   0  0  0  0  0  2  0  0  0  0  0  0
  189.0400  178.3810  136.8190 C   0  0  0  0  0  1  0  0  0  0  0  0
  187.7530  178.1950  137.3190 O   0  0  0  0  0  0  0  0  0  0  0  0
  1 19  2  0  0  0  0
  1  4  1  0  0  0  0
  2 13  1  0  0  0  0
  2 19  1  0  0  0  0
  3 10  1  0  0  0  0
  4 20  2  0  0  0  0
  5  1  1  0  0  0  0
  6  8  2  0  0  0  0
  7 15  1  1  0  0  0
  7  9  1  0  0  0  0
  9 22  1  0  0  0  0
  9 14  1  1  0  0  0
 10 21  1  6  0  0  0
 11  5  1  0  0  0  0
 11  8  1  0  0  0  0
 12  8  1  6  0  0  0
 12 27  1  0  0  0  0
 12  4  1  0  0  0  0
 13 18  1  0  0  0  0
 15 23  1  0  0  0  0
 16  2  2  0  0  0  0
 17  3  1  0  0  0  0
 18 25  2  0  0  0  0
 19 26  1  0  0  0  0
 20 17  1  0  0  0  0
 20 22  1  0  0  0  0
 22 10  1  0  0  0  0
 23 14  1  0  0  0  0
 26 25  1  0  0  0  0
 26 17  2  0  0  0  0
 27 24  1  1  0  0  0
 27  7  1  0  0  0  0
 28 11  1  0  0  0  0
 29 30  1  0  0  0  0
 30 28  1  0  0  0  0
M  END
>  <MODEL>
6

>  <REMARK>
 VINA RESULT:      -6.8      2.957      6.612
  Name = 
  2 active torsions:
  status: ('A' for Active; 'I' for Inactive)
    1  A    between atoms: N_11  and  C_28
    2  A    between atoms: C_28  and  O_30
                            x       y       z     vdW  Elec       q    Type
                         _______ _______ _______ _____ _____    ______ ____

>  <TORSDO>
F 2

$$$$
=
 OpenBabel11122410223D

 30 35  0  0  1  0  0  0  0  0999 V2000
  191.4170  175.6650  138.1700 C   0  0  0  0  0  0  0  0  0  0  0  0
  193.7670  174.7080  137.7810 C   0  0  0  0  0  0  0  0  0  0  0  0
  189.6350  172.8340  135.5200 C   0  0  0  0  0  2  0  0  0  0  0  0
  190.0230  175.5990  137.9250 C   0  0  0  0  0  0  0  0  0  0  0  0
  191.9500  176.8060  138.9930 C   0  0  0  0  0  2  0  0  0  0  0  0
  188.8470  177.5300  140.7840 O   0  0  0  0  0  0  0  0  0  0  0  0
  187.9740  176.9560  136.3460 C   0  0  1  0  0  3  0  0  0  0  0  0
  189.6230  177.1110  139.8840 C   0  0  0  0  0  0  0  0  0  0  0  0
  187.2630  175.6350  136.5150 C   0  0  1  0  0  3  0  0  0  0  0  0
  188.2060  173.4040  135.5570 C   0  0  1  0  0  3  0  0  0  0  0  0
  191.0450  177.1530  140.0800 N   0  0  0  0  0  0  0  0  0  0  0  0
  189.0490  176.5270  138.6210 C   0  0  1  0  0  3  0  0  0  0  0  0
  194.5740  173.4900  137.4360 C   0  0  0  0  0  2  0  0  0  0  0  0
  186.2830  175.5790  135.3530 C   0  0  0  0  0  2  0  0  0  0  0  0
  187.0380  177.8030  135.5170 C   0  0  0  0  0  2  0  0  0  0  0  0
  194.3610  175.7010  138.2790 O   0  0  0  0  0  0  0  0  0  0  0  0
  190.3830  173.6980  136.4750 C   0  0  0  0  0  0  0  0  0  0  0  0
  193.9380  172.6560  136.3580 C   0  0  0  0  0  3  0  0  0  0  0  0
  192.2920  174.7070  137.5760 C   0  0  0  0  0  0  0  0  0  0  0  0
  189.5480  174.6170  137.0400 C   0  0  0  0  0  0  0  0  0  0  0  0
  187.2490  172.3390  136.0580 C   0  0  0  0  0  1  0  0  0  0  0  0
  188.2350  174.5280  136.4970 N   0  0  0  0  0  0  0  0  0  0  0  0
  186.2210  176.8960  134.7200 N   0  0  0  0  0  2  0  0  0  0  0  0
  187.2170  178.2310  138.3970 C   0  0  0  0  0  1  0  0  0  0  0  0
  192.6400  172.7330  136.0640 C   0  0  0  0  0  3  0  0  0  0  0  0
  191.7540  173.7040  136.7340 C   0  0  0  0  0  0  0  0  0  0  0  0
  188.4030  177.5770  137.6910 C   0  0  2  0  0  3  0  0  0  0  0  0
  191.6160  177.7160  141.2940 C   0  0  0  0  0  2  0  0  0  0  0  0
  191.5700  177.4940  143.4870 C   0  0  0  0  0  1  0  0  0  0  0  0
  191.6150  176.7560  142.3060 O   0  0  0  0  0  0  0  0  0  0  0  0
  1  5  1  0  0  0  0
  2 16  2  0  0  0  0
  3 10  1  0  0  0  0
  3 17  1  0  0  0  0
  4  1  1  0  0  0  0
  5 11  1  0  0  0  0
  7 15  1  1  0  0  0
  7  9  1  0  0  0  0
  7 27  1  0  0  0  0
  8 11  1  0  0  0  0
  8  6  2  0  0  0  0
  9 14  1  6  0  0  0
 10 21  1  1  0  0  0
 10 22  1  0  0  0  0
 11 28  1  0  0  0  0
 12  4  1  6  0  0  0
 12  8  1  0  0  0  0
 13  2  1  0  0  0  0
 17 26  2  0  0  0  0
 17 20  1  0  0  0  0
 18 13  1  0  0  0  0
 19  2  1  0  0  0  0
 19  1  2  0  0  0  0
 20  4  2  0  0  0  0
 22  9  1  0  0  0  0
 22 20  1  0  0  0  0
 23 14  1  0  0  0  0
 23 15  1  0  0  0  0
 25 18  2  0  0  0  0
 25 26  1  0  0  0  0
 26 19  1  0  0  0  0
 27 24  1  1  0  0  0
 27 12  1  0  0  0  0
 28 30  1  0  0  0  0
 30 29  1  0  0  0  0
M  END
>  <MODEL>
7

>  <REMARK>
 VINA RESULT:      -6.7      5.750      8.979
  Name = 
  2 active torsions:
  status: ('A' for Active; 'I' for Inactive)
    1  A    between atoms: N_11  and  C_28
    2  A    between atoms: C_28  and  O_30
                            x       y       z     vdW  Elec       q    Type
                         _______ _______ _______ _____ _____    ______ ____

>  <TORSDO>
F 2

$$$$
=
 OpenBabel11122410223D

 30 35  0  0  1  0  0  0  0  0999 V2000
  187.5960  177.7330  141.4030 C   0  0  0  0  0  0  0  0  0  0  0  0
  187.4680  177.5670  143.9610 C   0  0  0  0  0  0  0  0  0  0  0  0
  183.5310  179.0000  141.1070 C   0  0  0  0  0  2  0  0  0  0  0  0
  186.9710  178.0620  140.1750 C   0  0  0  0  0  0  0  0  0  0  0  0
  188.9790  177.1420  141.3720 C   0  0  0  0  0  2  0  0  0  0  0  0
  189.9470  178.4870  138.1140 O   0  0  0  0  0  0  0  0  0  0  0  0
  185.7430  176.7380  137.8780 C   0  0  1  0  0  3  0  0  0  0  0  0
  189.2150  178.0860  139.0580 C   0  0  0  0  0  0  0  0  0  0  0  0
  185.0470  178.0710  137.7450 C   0  0  1  0  0  3  0  0  0  0  0  0
  183.4380  178.9990  139.5700 C   0  0  1  0  0  3  0  0  0  0  0  0
  189.7950  177.7410  140.3250 N   0  0  0  0  0  0  0  0  0  0  0  0
  187.7250  178.0120  138.8620 C   0  0  1  0  0  3  0  0  0  0  0  0
  186.8190  178.0860  145.2120 C   0  0  0  0  0  2  0  0  0  0  0  0
  183.7820  177.7620  136.9590 C   0  0  0  0  0  2  0  0  0  0  0  0
  185.2030  175.8970  136.7460 C   0  0  0  0  0  2  0  0  0  0  0  0
  188.5260  176.8940  144.0690 O   0  0  0  0  0  0  0  0  0  0  0  0
  184.9510  178.6340  141.3730 C   0  0  0  0  0  0  0  0  0  0  0  0
  185.3440  178.3280  145.0460 C   0  0  0  0  0  3  0  0  0  0  0  0
  186.8850  177.8920  142.6300 C   0  0  0  0  0  0  0  0  0  0  0  0
  185.6300  178.4780  140.1990 C   0  0  0  0  0  0  0  0  0  0  0  0
  183.0720  180.3890  139.0860 C   0  0  0  0  0  1  0  0  0  0  0  0
  184.7690  178.6350  139.0770 N   0  0  0  0  0  0  0  0  0  0  0  0
  183.8750  176.4050  136.4220 N   0  0  0  0  0  2  0  0  0  0  0  0
  187.8490  177.1030  136.5230 C   0  0  0  0  0  1  0  0  0  0  0  0
  184.7740  178.4900  143.8510 C   0  0  0  0  0  3  0  0  0  0  0  0
  185.5510  178.3670  142.6030 C   0  0  0  0  0  0  0  0  0  0  0  0
  187.2790  176.8710  137.9210 C   0  0  2  0  0  3  0  0  0  0  0  0
  191.2350  177.8040  140.5310 C   0  0  0  0  0  2  0  0  0  0  0  0
  193.2190  177.1320  139.8430 C   0  0  0  0  0  1  0  0  0  0  0  0
  191.8640  176.8150  139.7740 O   0  0  0  0  0  0  0  0  0  0  0  0
  1 19  1  0  0  0  0
  2 16  2  0  0  0  0
  2 13  1  0  0  0  0
  3 17  1  0  0  0  0
  4 20  1  0  0  0  0
  4  1  2  0  0  0  0
  5  1  1  0  0  0  0
  6  8  2  0  0  0  0
  7 15  1  6  0  0  0
  7 27  1  0  0  0  0
  8 11  1  0  0  0  0
  9 14  1  1  0  0  0
  9  7  1  0  0  0  0
  9 22  1  0  0  0  0
 10 21  1  6  0  0  0
 10  3  1  0  0  0  0
 11 28  1  0  0  0  0
 11  5  1  0  0  0  0
 12  8  1  1  0  0  0
 12  4  1  0  0  0  0
 17 26  1  0  0  0  0
 18 13  1  0  0  0  0
 19  2  1  0  0  0  0
 20 17  2  0  0  0  0
 22 10  1  0  0  0  0
 22 20  1  0  0  0  0
 23 15  1  0  0  0  0
 23 14  1  0  0  0  0
 25 18  2  0  0  0  0
 26 19  2  0  0  0  0
 26 25  1  0  0  0  0
 27 24  1  6  0  0  0
 27 12  1  0  0  0  0
 30 29  1  0  0  0  0
 30 28  1  0  0  0  0
M  END
>  <MODEL>
8

>  <REMARK>
 VINA RESULT:      -6.6      2.429      3.503
  Name = 
  2 active torsions:
  status: ('A' for Active; 'I' for Inactive)
    1  A    between atoms: N_11  and  C_28
    2  A    between atoms: C_28  and  O_30
                            x       y       z     vdW  Elec       q    Type
                         _______ _______ _______ _____ _____    ______ ____

>  <TORSDO>
F 2

$$$$
=
 OpenBabel11122410223D

 30 35  0  0  1  0  0  0  0  0999 V2000
  184.8520  178.1490  139.4510 C   0  0  0  0  0  0  0  0  0  0  0  0
  186.1160  178.1530  137.2170 C   0  0  0  0  0  0  0  0  0  0  0  0
  181.3990  176.3590  137.6940 C   0  0  0  0  0  2  0  0  0  0  0  0
  183.6920  177.8060  140.1890 C   0  0  0  0  0  0  0  0  0  0  0  0
  185.9420  178.9230  140.1400 C   0  0  0  0  0  2  0  0  0  0  0  0
  185.1020  177.9050  143.5490 O   0  0  0  0  0  0  0  0  0  0  0  0
  181.3090  179.0760  141.3060 C   0  0  1  0  0  3  0  0  0  0  0  0
  184.9670  178.1500  142.3200 C   0  0  0  0  0  0  0  0  0  0  0  0
  180.7680  177.6700  141.2080 C   0  0  1  0  0  3  0  0  0  0  0  0
  180.4890  176.4320  138.9340 C   0  0  1  0  0  3  0  0  0  0  0  0
  186.1090  178.5000  141.5240 N   0  0  0  0  0  0  0  0  0  0  0  0
  183.6070  178.0310  141.6850 C   0  0  1  0  0  3  0  0  0  0  0  0
  186.2930  177.4820  135.8850 C   0  0  0  0  0  2  0  0  0  0  0  0
  179.2580  177.8480  141.1590 C   0  0  0  0  0  2  0  0  0  0  0  0
  180.1730  179.8970  141.8670 C   0  0  0  0  0  2  0  0  0  0  0  0
  187.0030  178.9570  137.6070 O   0  0  0  0  0  0  0  0  0  0  0  0
  182.6990  176.8990  138.1800 C   0  0  0  0  0  0  0  0  0  0  0  0
  184.9900  177.0520  135.2710 C   0  0  0  0  0  3  0  0  0  0  0  0
  184.9350  177.8260  138.0630 C   0  0  0  0  0  0  0  0  0  0  0  0
  182.6190  177.2110  139.5070 C   0  0  0  0  0  0  0  0  0  0  0  0
  180.0380  175.0340  139.3130 C   0  0  0  0  0  1  0  0  0  0  0  0
  181.3040  177.0010  140.0110 N   0  0  0  0  0  0  0  0  0  0  0  0
  178.9310  179.2330  141.4950 N   0  0  0  0  0  2  0  0  0  0  0  0
  182.3690  179.0760  143.6040 C   0  0  0  0  0  1  0  0  0  0  0  0
  183.8810  176.8800  135.9910 C   0  0  0  0  0  3  0  0  0  0  0  0
  183.8450  177.1770  137.4350 C   0  0  0  0  0  0  0  0  0  0  0  0
  182.6290  179.1520  142.1010 C   0  0  2  0  0  3  0  0  0  0  0  0
  187.4290  178.6210  142.1230 C   0  0  0  0  0  2  0  0  0  0  0  0
  188.7810  176.8990  142.3870 C   0  0  0  0  0  1  0  0  0  0  0  0
  188.3360  177.8140  141.4350 O   0  0  0  0  0  0  0  0  0  0  0  0
  1  5  1  0  0  0  0
  1  4  1  0  0  0  0
  2 16  2  0  0  0  0
  2 19  1  0  0  0  0
  3 17  1  0  0  0  0
  3 10  1  0  0  0  0
  5 11  1  0  0  0  0
  7 15  1  1  0  0  0
  7 27  1  0  0  0  0
  8  6  2  0  0  0  0
  9 14  1  6  0  0  0
  9  7  1  0  0  0  0
 10 21  1  1  0  0  0
 10 22  1  0  0  0  0
 11 28  1  0  0  0  0
 11  8  1  0  0  0  0
 12  4  1  6  0  0  0
 12 27  1  0  0  0  0
 12  8  1  0  0  0  0
 13  2  1  0  0  0  0
 14 23  1  0  0  0  0
 17 20  1  0  0  0  0
 18 13  1  0  0  0  0
 18 25  2  0  0  0  0
 19  1  2  0  0  0  0
 20 22  1  0  0  0  0
 20  4  2  0  0  0  0
 22  9  1  0  0  0  0
 23 15  1  0  0  0  0
 25 26  1  0  0  0  0
 26 19  1  0  0  0  0
 26 17  2  0  0  0  0
 27 24  1  1  0  0  0
 30 28  1  0  0  0  0
 30 29  1  0  0  0  0
M  END
>  <MODEL>
9

>  <REMARK>
 VINA RESULT:      -6.3      1.885      5.338
  Name = 
  2 active torsions:
  status: ('A' for Active; 'I' for Inactive)
    1  A    between atoms: N_11  and  C_28
    2  A    between atoms: C_28  and  O_30
                            x       y       z     vdW  Elec       q    Type
                         _______ _______ _______ _____ _____    ______ ____

>  <TORSDO>
F 2

$$$$
