=
 OpenBabel11122411593D

 28 32  0  0  1  0  0  0  0  0999 V2000
  190.1280  177.7750  144.1070 C   0  0  2  0  0  3  0  0  0  0  0  0
  189.4670  178.5360  141.3190 O   0  0  0  0  0  0  0  0  0  0  0  0
  184.4710  178.4540  147.2250 O   0  0  0  0  0  0  0  0  0  0  0  0
  190.6870  175.1630  143.0980 C   0  0  0  0  0  3  0  0  0  0  0  0
  184.6790  178.5870  144.8720 N   0  0  0  0  0  0  0  0  0  0  0  0
  189.9080  178.8760  145.1460 C   0  0  0  0  0  2  0  0  0  0  0  0
  188.3740  176.4880  140.4900 O   0  0  0  0  0  0  0  0  0  0  0  0
  188.1530  177.8460  141.0930 S   0  0  0  0  0  0  0  0  0  0  0  0
  185.6760  178.6040  140.2870 C   0  0  2  0  0  3  0  0  0  0  0  0
  187.2660  177.7060  142.5740 N   0  0  0  0  0  0  0  0  0  0  0  0
  188.8340  176.3680  146.9520 O   0  0  0  0  0  1  0  0  0  0  0  0
  186.6470  177.4000  144.6880 C   0  0  0  0  0  0  0  0  0  0  0  0
  185.3110  179.0390  141.7060 C   0  0  0  0  0  2  0  0  0  0  0  0
  187.1570  178.8340  139.9940 C   0  0  0  0  0  2  0  0  0  0  0  0
  188.8290  177.7440  147.1950 C   0  0  2  0  0  3  0  0  0  0  0  0
  189.0380  176.6910  144.1170 C   0  0  2  0  0  3  0  0  0  0  0  0
  185.1340  178.2200  146.1800 C   0  0  0  0  0  0  0  0  0  0  0  0
  184.8440  179.3850  139.2930 C   0  0  0  0  0  1  0  0  0  0  0  0
  187.5180  178.4340  146.7910 C   0  0  0  0  0  2  0  0  0  0  0  0
  189.4070  175.5100  143.2600 C   0  0  0  0  0  3  0  0  0  0  0  0
  191.5100  177.1810  144.2040 C   0  0  0  0  0  3  0  0  0  0  0  0
  191.7670  175.9720  143.6960 C   0  0  0  0  0  3  0  0  0  0  0  0
  190.0680  178.4180  146.6010 C   0  0  0  0  0  2  0  0  0  0  0  0
  185.6290  177.9790  144.0260 C   0  0  0  0  0  0  0  0  0  0  0  0
  186.4720  177.5060  146.1750 C   0  0  2  0  0  3  0  0  0  0  0  0
  186.0110  178.1930  142.7240 C   0  0  0  0  0  0  0  0  0  0  0  0
  183.3290  178.9780  144.5040 C   0  0  0  0  0  1  0  0  0  0  0  0
  187.6750  177.2180  143.7800 C   0  0  0  0  0  0  0  0  0  0  0  0
  1 16  1  0  0  0  0
  1 21  1  1  0  0  0
  1  6  1  0  0  0  0
  4 20  2  0  0  0  0
  4 22  1  0  0  0  0
  5 17  1  0  0  0  0
  6 23  1  0  0  0  0
  7  8  2  0  0  0  0
  8  2  2  0  0  0  0
  8 10  1  0  0  0  0
  9 18  1  6  0  0  0
  9 13  1  0  0  0  0
 10 26  1  0  0  0  0
 10 28  1  0  0  0  0
 12 25  1  0  0  0  0
 13 26  1  0  0  0  0
 14  9  1  0  0  0  0
 14  8  1  0  0  0  0
 15 11  1  6  0  0  0
 16 20  1  6  0  0  0
 17  3  2  0  0  0  0
 19 15  1  0  0  0  0
 22 21  2  0  0  0  0
 23 15  1  0  0  0  0
 24 12  1  0  0  0  0
 24  5  1  0  0  0  0
 25 17  1  0  0  0  0
 25 19  1  6  0  0  0
 26 24  2  0  0  0  0
 27  5  1  0  0  0  0
 28 16  1  0  0  0  0
 28 12  2  0  0  0  0
M  END
>  <MODEL>
1

>  <REMARK>
 VINA RESULT:      -6.9      0.000      0.000
  Name = 
  0 active torsions:
  status: ('A' for Active; 'I' for Inactive)
                            x       y       z     vdW  Elec       q    Type
                         _______ _______ _______ _____ _____    ______ ____

>  <TORSDO>
F 0

$$$$
=
 OpenBabel11122411593D

 28 32  0  0  1  0  0  0  0  0999 V2000
  190.5410  177.5230  144.1640 C   0  0  2  0  0  3  0  0  0  0  0  0
  191.2860  177.9900  141.3330 O   0  0  0  0  0  0  0  0  0  0  0  0
  184.1440  178.6430  144.2330 O   0  0  0  0  0  0  0  0  0  0  0  0
  191.3240  174.8060  143.7600 C   0  0  0  0  0  3  0  0  0  0  0  0
  185.4170  178.5180  142.2430 N   0  0  0  0  0  0  0  0  0  0  0  0
  189.9430  178.7330  144.8820 C   0  0  0  0  0  2  0  0  0  0  0  0
  190.5610  175.8860  140.2730 O   0  0  0  0  0  0  0  0  0  0  0  0
  190.1790  177.3060  140.5840 S   0  0  0  0  0  0  0  0  0  0  0  0
  188.4060  178.0190  138.6600 C   0  0  2  0  0  3  0  0  0  0  0  0
  188.7040  177.3440  141.4920 N   0  0  0  0  0  0  0  0  0  0  0  0
  187.9940  176.4570  146.1960 O   0  0  0  0  0  1  0  0  0  0  0  0
  187.1650  177.2800  143.0960 C   0  0  0  0  0  0  0  0  0  0  0  0
  187.4600  178.6130  139.7040 C   0  0  0  0  0  2  0  0  0  0  0  0
  189.8680  178.1880  139.0670 C   0  0  0  0  0  2  0  0  0  0  0  0
  187.9710  177.8510  146.2870 C   0  0  2  0  0  3  0  0  0  0  0  0
  189.4980  176.4670  143.7620 C   0  0  2  0  0  3  0  0  0  0  0  0
  185.1950  178.2850  143.6390 C   0  0  0  0  0  0  0  0  0  0  0  0
  188.1770  178.7050  137.3300 C   0  0  0  0  0  1  0  0  0  0  0  0
  187.0420  178.5180  145.2640 C   0  0  0  0  0  2  0  0  0  0  0  0
  190.1380  175.1930  143.2790 C   0  0  0  0  0  3  0  0  0  0  0  0
  191.6810  176.9160  144.9410 C   0  0  0  0  0  3  0  0  0  0  0  0
  192.0600  175.6540  144.7170 C   0  0  0  0  0  3  0  0  0  0  0  0
  189.3870  178.4320  146.2790 C   0  0  0  0  0  2  0  0  0  0  0  0
  186.6060  177.8030  141.9900 C   0  0  0  0  0  0  0  0  0  0  0  0
  186.3350  177.5490  144.3160 C   0  0  2  0  0  3  0  0  0  0  0  0
  187.5560  177.8680  141.0010 C   0  0  0  0  0  0  0  0  0  0  0  0
  184.4160  178.8920  141.2590 C   0  0  0  0  0  1  0  0  0  0  0  0
  188.4810  176.9810  142.7870 C   0  0  0  0  0  0  0  0  0  0  0  0
  1  6  1  1  0  0  0
  1 21  1  0  0  0  0
  4 22  1  0  0  0  0
  5 17  1  0  0  0  0
  6 23  1  0  0  0  0
  7  8  2  0  0  0  0
  8  2  2  0  0  0  0
  8 10  1  0  0  0  0
  9 18  1  6  0  0  0
  9 14  1  0  0  0  0
  9 13  1  0  0  0  0
 10 28  1  0  0  0  0
 12 25  1  0  0  0  0
 13 26  1  0  0  0  0
 14  8  1  0  0  0  0
 15 11  1  6  0  0  0
 16 20  1  6  0  0  0
 16  1  1  0  0  0  0
 17  3  2  0  0  0  0
 17 25  1  0  0  0  0
 19 15  1  0  0  0  0
 20  4  2  0  0  0  0
 22 21  2  0  0  0  0
 23 15  1  0  0  0  0
 24  5  1  0  0  0  0
 24 12  1  0  0  0  0
 25 19  1  1  0  0  0
 26 10  1  0  0  0  0
 26 24  2  0  0  0  0
 27  5  1  0  0  0  0
 28 12  2  0  0  0  0
 28 16  1  0  0  0  0
M  END
>  <MODEL>
2

>  <REMARK>
 VINA RESULT:      -6.7      1.543      2.101
  Name = 
  0 active torsions:
  status: ('A' for Active; 'I' for Inactive)
                            x       y       z     vdW  Elec       q    Type
                         _______ _______ _______ _____ _____    ______ ____

>  <TORSDO>
F 0

$$$$
=
 OpenBabel11122411593D

 28 32  0  0  1  0  0  0  0  0999 V2000
  190.4580  178.4770  142.5880 C   0  0  2  0  0  3  0  0  0  0  0  0
  188.1290  179.4560  141.0380 O   0  0  0  0  0  0  0  0  0  0  0  0
  187.9300  177.1820  148.4290 O   0  0  0  0  0  0  0  0  0  0  0  0
  190.5560  176.2840  140.7610 C   0  0  0  0  0  3  0  0  0  0  0  0
  186.6160  177.7220  146.5380 N   0  0  0  0  0  0  0  0  0  0  0  0
  190.8100  179.3110  143.8200 C   0  0  0  0  0  2  0  0  0  0  0  0
  186.9940  177.3470  140.4570 O   0  0  0  0  0  0  0  0  0  0  0  0
  187.0460  178.4930  141.4270 S   0  0  0  0  0  0  0  0  0  0  0  0
  184.5390  178.6960  142.4450 C   0  0  2  0  0  3  0  0  0  0  0  0
  187.2930  177.9030  143.0370 N   0  0  0  0  0  0  0  0  0  0  0  0
  191.3780  176.3650  145.1260 O   0  0  0  0  0  1  0  0  0  0  0  0
  188.1600  177.1280  144.9330 C   0  0  0  0  0  0  0  0  0  0  0  0
  185.0890  178.8000  143.8670 C   0  0  0  0  0  2  0  0  0  0  0  0
  185.4800  179.3450  141.4310 C   0  0  0  0  0  2  0  0  0  0  0  0
  191.3720  177.6390  145.7000 C   0  0  2  0  0  3  0  0  0  0  0  0
  189.7390  177.1580  142.9200 C   0  0  2  0  0  3  0  0  0  0  0  0
  187.8220  177.2900  147.1790 C   0  0  0  0  0  0  0  0  0  0  0  0
  183.1900  179.3780  142.3780 C   0  0  0  0  0  1  0  0  0  0  0  0
  190.0270  178.0190  146.3360 C   0  0  0  0  0  2  0  0  0  0  0  0
  189.6240  176.2580  141.7190 C   0  0  0  0  0  3  0  0  0  0  0  0
  191.6570  178.2530  141.7010 C   0  0  0  0  0  3  0  0  0  0  0  0
  191.6750  177.2440  140.8250 C   0  0  0  0  0  3  0  0  0  0  0  0
  191.8890  178.6940  144.7180 C   0  0  0  0  0  2  0  0  0  0  0  0
  186.8950  177.5170  145.1710 C   0  0  0  0  0  0  0  0  0  0  0  0
  188.9360  176.9570  146.2060 C   0  0  2  0  0  3  0  0  0  0  0  0
  186.3590  178.0190  144.0100 C   0  0  0  0  0  0  0  0  0  0  0  0
  185.2970  177.8010  147.1410 C   0  0  0  0  0  1  0  0  0  0  0  0
  188.4140  177.3600  143.5920 C   0  0  0  0  0  0  0  0  0  0  0  0
  1 21  1  1  0  0  0
  1 16  1  0  0  0  0
  1  6  1  0  0  0  0
  2  8  2  0  0  0  0
  4 22  1  0  0  0  0
  4 20  2  0  0  0  0
  5 27  1  0  0  0  0
  5 17  1  0  0  0  0
  6 23  1  0  0  0  0
  7  8  2  0  0  0  0
  8 14  1  0  0  0  0
  8 10  1  0  0  0  0
  9 18  1  1  0  0  0
  9 13  1  0  0  0  0
 10 28  1  0  0  0  0
 10 26  1  0  0  0  0
 12 24  1  0  0  0  0
 12 25  1  0  0  0  0
 13 26  1  0  0  0  0
 14  9  1  0  0  0  0
 15 11  1  6  0  0  0
 15 19  1  0  0  0  0
 16 20  1  6  0  0  0
 16 28  1  0  0  0  0
 17  3  2  0  0  0  0
 22 21  2  0  0  0  0
 23 15  1  0  0  0  0
 24  5  1  0  0  0  0
 25 19  1  6  0  0  0
 25 17  1  0  0  0  0
 26 24  2  0  0  0  0
 28 12  2  0  0  0  0
M  END
>  <MODEL>
3

>  <REMARK>
 VINA RESULT:      -6.3      1.714      2.393
  Name = 
  0 active torsions:
  status: ('A' for Active; 'I' for Inactive)
                            x       y       z     vdW  Elec       q    Type
                         _______ _______ _______ _____ _____    ______ ____

>  <TORSDO>
F 0

$$$$
=
 OpenBabel11122411593D

 28 32  0  0  1  0  0  0  0  0999 V2000
  182.3790  177.1050  138.9050 C   0  0  2  0  0  3  0  0  0  0  0  0
  182.3380  174.4290  137.6310 O   0  0  0  0  0  0  0  0  0  0  0  0
  188.6960  178.6070  139.0320 O   0  0  0  0  0  0  0  0  0  0  0  0
  180.9240  178.0390  136.6330 C   0  0  0  0  0  3  0  0  0  0  0  0
  187.8320  176.7340  137.8740 N   0  0  0  0  0  0  0  0  0  0  0  0
  183.1620  177.1840  140.2160 C   0  0  0  0  0  2  0  0  0  0  0  0
  182.5990  175.0070  135.2490 O   0  0  0  0  0  0  0  0  0  0  0  0
  183.3140  174.5880  136.5010 S   0  0  0  0  0  0  0  0  0  0  0  0
  185.5420  173.2870  135.6630 C   0  0  2  0  0  3  0  0  0  0  0  0
  184.5430  175.7420  136.9040 N   0  0  0  0  0  0  0  0  0  0  0  0
  184.0820  180.0790  139.0000 O   0  0  0  0  0  1  0  0  0  0  0  0
  185.6730  177.5080  137.6450 C   0  0  0  0  0  0  0  0  0  0  0  0
  186.4110  174.0690  136.6480 C   0  0  0  0  0  2  0  0  0  0  0  0
  184.1450  173.0350  136.2240 C   0  0  0  0  0  2  0  0  0  0  0  0
  184.4950  179.3880  140.1430 C   0  0  2  0  0  3  0  0  0  0  0  0
  183.1230  177.7150  137.7050 C   0  0  2  0  0  3  0  0  0  0  0  0
  187.7150  178.0080  138.5190 C   0  0  0  0  0  0  0  0  0  0  0  0
  186.2030  171.9600  135.3570 C   0  0  0  0  0  1  0  0  0  0  0  0
  185.7510  178.5340  139.9230 C   0  0  0  0  0  2  0  0  0  0  0  0
  182.2380  177.8390  136.4940 C   0  0  0  0  0  3  0  0  0  0  0  0
  180.9890  177.6700  139.0480 C   0  0  0  0  0  3  0  0  0  0  0  0
  180.3050  178.0700  137.9720 C   0  0  0  0  0  3  0  0  0  0  0  0
  183.3380  178.6040  140.7670 C   0  0  0  0  0  2  0  0  0  0  0  0
  186.5540  176.5500  137.3080 C   0  0  0  0  0  0  0  0  0  0  0  0
  186.3050  178.5670  138.4990 C   0  0  2  0  0  3  0  0  0  0  0  0
  185.8630  175.4460  136.8710 C   0  0  0  0  0  0  0  0  0  0  0  0
  189.0620  176.0950  137.4410 C   0  0  0  0  0  1  0  0  0  0  0  0
  184.4070  177.0100  137.3850 C   0  0  0  0  0  0  0  0  0  0  0  0
  1 21  1  1  0  0  0
  1  6  1  0  0  0  0
  4 22  1  0  0  0  0
  5 17  1  0  0  0  0
  6 23  1  0  0  0  0
  7  8  2  0  0  0  0
  8 10  1  0  0  0  0
  8  2  2  0  0  0  0
  9 18  1  1  0  0  0
  9 14  1  0  0  0  0
  9 13  1  0  0  0  0
 10 28  1  0  0  0  0
 12 25  1  0  0  0  0
 13 26  1  0  0  0  0
 14  8  1  0  0  0  0
 15 11  1  6  0  0  0
 15 23  1  0  0  0  0
 16 20  1  6  0  0  0
 16  1  1  0  0  0  0
 17  3  2  0  0  0  0
 19 15  1  0  0  0  0
 20  4  2  0  0  0  0
 22 21  2  0  0  0  0
 24 12  1  0  0  0  0
 24  5  1  0  0  0  0
 25 17  1  0  0  0  0
 25 19  1  1  0  0  0
 26 10  1  0  0  0  0
 26 24  2  0  0  0  0
 27  5  1  0  0  0  0
 28 12  2  0  0  0  0
 28 16  1  0  0  0  0
M  END
>  <MODEL>
4

>  <REMARK>
 VINA RESULT:      -5.9      5.686      8.704
  Name = 
  0 active torsions:
  status: ('A' for Active; 'I' for Inactive)
                            x       y       z     vdW  Elec       q    Type
                         _______ _______ _______ _____ _____    ______ ____

>  <TORSDO>
F 0

$$$$
=
 OpenBabel11122411593D

 28 32  0  0  1  0  0  0  0  0999 V2000
  186.1010  177.6170  143.3810 C   0  0  2  0  0  3  0  0  0  0  0  0
  184.0750  177.3840  141.2300 O   0  0  0  0  0  0  0  0  0  0  0  0
  191.7370  177.2780  140.1730 O   0  0  0  0  0  0  0  0  0  0  0  0
  185.0860  180.2480  143.8390 C   0  0  0  0  0  3  0  0  0  0  0  0
  189.6410  177.4710  139.0940 N   0  0  0  0  0  0  0  0  0  0  0  0
  187.0350  176.4160  143.5210 C   0  0  0  0  0  2  0  0  0  0  0  0
  184.0730  179.6650  140.2970 O   0  0  0  0  0  0  0  0  0  0  0  0
  184.6290  178.2770  140.1580 S   0  0  0  0  0  0  0  0  0  0  0  0
  185.2490  178.0030  137.5310 C   0  0  2  0  0  3  0  0  0  0  0  0
  186.3600  178.3160  140.2200 N   0  0  0  0  0  0  0  0  0  0  0  0
  189.2620  178.7490  144.0680 O   0  0  0  0  0  1  0  0  0  0  0  0
  188.4860  178.3850  140.8680 C   0  0  0  0  0  0  0  0  0  0  0  0
  186.6160  177.4150  137.8800 C   0  0  0  0  0  2  0  0  0  0  0  0
  184.1910  177.6140  138.5620 C   0  0  0  0  0  2  0  0  0  0  0  0
  189.3980  177.3660  143.9170 C   0  0  2  0  0  3  0  0  0  0  0  0
  186.7530  178.8300  142.6970 C   0  0  2  0  0  3  0  0  0  0  0  0
  190.5130  177.5710  140.2260 C   0  0  0  0  0  0  0  0  0  0  0  0
  184.8220  177.5030  136.1680 C   0  0  0  0  0  1  0  0  0  0  0  0
  189.7300  176.9360  142.4810 C   0  0  0  0  0  2  0  0  0  0  0  0
  185.8950  180.0630  142.7910 C   0  0  0  0  0  3  0  0  0  0  0  0
  185.4670  177.9910  144.6970 C   0  0  0  0  0  3  0  0  0  0  0  0
  184.9640  179.2150  144.8860 C   0  0  0  0  0  3  0  0  0  0  0  0
  188.1950  176.6230  144.5020 C   0  0  0  0  0  2  0  0  0  0  0  0
  188.4490  178.0600  139.5630 C   0  0  0  0  0  0  0  0  0  0  0  0
  189.8240  178.0830  141.4760 C   0  0  2  0  0  3  0  0  0  0  0  0
  187.1380  177.9930  139.1600 C   0  0  0  0  0  0  0  0  0  0  0  0
  190.0400  177.3330  137.7040 C   0  0  0  0  0  1  0  0  0  0  0  0
  187.1780  178.5550  141.2850 C   0  0  0  0  0  0  0  0  0  0  0  0
  1  6  1  1  0  0  0
  1 21  1  0  0  0  0
  3 17  2  0  0  0  0
  4 22  1  0  0  0  0
  5 24  1  0  0  0  0
  5 17  1  0  0  0  0
  6 23  1  0  0  0  0
  8 10  1  0  0  0  0
  8  7  2  0  0  0  0
  8  2  2  0  0  0  0
  9 18  1  6  0  0  0
  9 13  1  0  0  0  0
  9 14  1  0  0  0  0
 10 28  1  0  0  0  0
 12 28  2  0  0  0  0
 12 25  1  0  0  0  0
 13 26  1  0  0  0  0
 14  8  1  0  0  0  0
 15 11  1  6  0  0  0
 15 23  1  0  0  0  0
 16 20  1  6  0  0  0
 16  1  1  0  0  0  0
 17 25  1  0  0  0  0
 19 15  1  0  0  0  0
 20  4  2  0  0  0  0
 21 22  2  0  0  0  0
 24 12  1  0  0  0  0
 25 19  1  1  0  0  0
 26 24  2  0  0  0  0
 26 10  1  0  0  0  0
 27  5  1  0  0  0  0
 28 16  1  0  0  0  0
M  END
>  <MODEL>
5

>  <REMARK>
 VINA RESULT:      -5.7      2.630      5.514
  Name = 
  0 active torsions:
  status: ('A' for Active; 'I' for Inactive)
                            x       y       z     vdW  Elec       q    Type
                         _______ _______ _______ _____ _____    ______ ____

>  <TORSDO>
F 0

$$$$
=
 OpenBabel11122411593D

 28 32  0  0  1  0  0  0  0  0999 V2000
  190.7690  177.6770  147.0560 C   0  0  2  0  0  3  0  0  0  0  0  0
  192.0550  177.9540  144.3990 O   0  0  0  0  0  0  0  0  0  0  0  0
  184.4390  178.2530  145.7230 O   0  0  0  0  0  0  0  0  0  0  0  0
  191.7940  175.0110  147.1010 C   0  0  0  0  0  3  0  0  0  0  0  0
  186.1030  178.0600  144.0520 N   0  0  0  0  0  0  0  0  0  0  0  0
  189.9580  178.8910  147.5100 C   0  0  0  0  0  2  0  0  0  0  0  0
  191.7040  175.7110  143.4390 O   0  0  0  0  0  0  0  0  0  0  0  0
  191.1750  177.1150  143.5190 S   0  0  0  0  0  0  0  0  0  0  0  0
  189.7980  177.5030  141.2140 C   0  0  2  0  0  3  0  0  0  0  0  0
  189.5440  177.1080  144.1020 N   0  0  0  0  0  0  0  0  0  0  0  0
  187.9310  176.5820  148.6350 O   0  0  0  0  0  1  0  0  0  0  0  0
  187.7120  177.0550  145.3630 C   0  0  0  0  0  0  0  0  0  0  0  0
  188.6190  178.1040  141.9800 C   0  0  0  0  0  2  0  0  0  0  0  0
  191.1290  177.8300  141.8870 C   0  0  0  0  0  2  0  0  0  0  0  0
  187.7980  177.9720  148.5740 C   0  0  2  0  0  3  0  0  0  0  0  0
  189.9030  176.5050  146.5640 C   0  0  2  0  0  3  0  0  0  0  0  0
  185.6120  177.9340  145.3920 C   0  0  0  0  0  0  0  0  0  0  0  0
  189.8060  178.0470  139.8010 C   0  0  0  0  0  1  0  0  0  0  0  0
  187.0610  178.4650  147.3220 C   0  0  0  0  0  2  0  0  0  0  0  0
  190.7110  175.2530  146.3550 C   0  0  0  0  0  3  0  0  0  0  0  0
  191.7590  177.2400  148.1050 C   0  0  0  0  0  3  0  0  0  0  0  0
  192.2580  176.0000  148.0930 C   0  0  0  0  0  3  0  0  0  0  0  0
  189.1440  178.6690  148.7900 C   0  0  0  0  0  2  0  0  0  0  0  0
  187.3620  177.4300  144.1190 C   0  0  0  0  0  0  0  0  0  0  0  0
  186.6310  177.3600  146.3570 C   0  0  2  0  0  3  0  0  0  0  0  0
  188.4920  177.4870  143.3390 C   0  0  0  0  0  0  0  0  0  0  0  0
  185.3060  178.2600  142.8550 C   0  0  0  0  0  1  0  0  0  0  0  0
  189.0800  176.8430  145.3570 C   0  0  0  0  0  0  0  0  0  0  0  0
  1  6  1  1  0  0  0
  1 21  1  0  0  0  0
  4 22  1  0  0  0  0
  5 24  1  0  0  0  0
  5 17  1  0  0  0  0
  6 23  1  0  0  0  0
  7  8  2  0  0  0  0
  8 10  1  0  0  0  0
  8  2  2  0  0  0  0
  9 18  1  6  0  0  0
  9 14  1  0  0  0  0
  9 13  1  0  0  0  0
 10 28  1  0  0  0  0
 12 25  1  0  0  0  0
 13 26  1  0  0  0  0
 14  8  1  0  0  0  0
 15 11  1  6  0  0  0
 15 23  1  0  0  0  0
 16 20  1  6  0  0  0
 16  1  1  0  0  0  0
 17  3  2  0  0  0  0
 17 25  1  0  0  0  0
 19 15  1  0  0  0  0
 20  4  2  0  0  0  0
 22 21  2  0  0  0  0
 24 12  1  0  0  0  0
 25 19  1  1  0  0  0
 26 10  1  0  0  0  0
 26 24  2  0  0  0  0
 27  5  1  0  0  0  0
 28 12  2  0  0  0  0
 28 16  1  0  0  0  0
M  END
>  <MODEL>
6

>  <REMARK>
 VINA RESULT:      -5.7      2.332      3.084
  Name = 
  0 active torsions:
  status: ('A' for Active; 'I' for Inactive)
                            x       y       z     vdW  Elec       q    Type
                         _______ _______ _______ _____ _____    ______ ____

>  <TORSDO>
F 0

$$$$
=
 OpenBabel11122411593D

 28 32  0  0  1  0  0  0  0  0999 V2000
  182.1280  177.6640  140.1850 C   0  0  2  0  0  3  0  0  0  0  0  0
  180.9400  175.1280  139.2130 O   0  0  0  0  0  0  0  0  0  0  0  0
  188.0450  177.6680  137.5070 O   0  0  0  0  0  0  0  0  0  0  0  0
  180.0900  179.0070  138.7010 C   0  0  0  0  0  3  0  0  0  0  0  0
  186.3680  176.0960  136.9450 N   0  0  0  0  0  0  0  0  0  0  0  0
  183.3930  177.5030  141.0280 C   0  0  0  0  0  2  0  0  0  0  0  0
  180.2750  175.7360  136.9190 O   0  0  0  0  0  0  0  0  0  0  0  0
  181.3430  175.1090  137.7670 S   0  0  0  0  0  0  0  0  0  0  0  0
  182.6370  173.3690  136.1360 C   0  0  2  0  0  3  0  0  0  0  0  0
  182.8510  175.9300  137.5360 N   0  0  0  0  0  0  0  0  0  0  0  0
  184.3300  180.1600  139.3640 O   0  0  0  0  0  1  0  0  0  0  0  0
  184.5570  177.3550  137.6150 C   0  0  0  0  0  0  0  0  0  0  0  0
  183.9960  173.8860  136.6060 C   0  0  0  0  0  2  0  0  0  0  0  0
  181.5990  173.4200  137.2560 C   0  0  0  0  0  2  0  0  0  0  0  0
  185.0260  179.3430  140.2590 C   0  0  2  0  0  3  0  0  0  0  0  0
  182.4000  178.1390  138.7480 C   0  0  2  0  0  3  0  0  0  0  0  0
  186.8310  177.3340  137.5000 C   0  0  0  0  0  0  0  0  0  0  0  0
  182.7830  171.9410  135.6570 C   0  0  0  0  0  1  0  0  0  0  0  0
  185.8360  178.2330  139.5750 C   0  0  0  0  0  2  0  0  0  0  0  0
  181.1340  178.5170  138.0270 C   0  0  0  0  0  3  0  0  0  0  0  0
  181.1010  178.5260  140.8740 C   0  0  0  0  0  3  0  0  0  0  0  0
  180.1310  179.1200  140.1720 C   0  0  0  0  0  3  0  0  0  0  0  0
  184.1050  178.8190  141.3640 C   0  0  0  0  0  2  0  0  0  0  0  0
  184.9660  176.2360  136.9920 C   0  0  0  0  0  0  0  0  0  0  0  0
  185.7160  178.2020  138.0520 C   0  0  2  0  0  3  0  0  0  0  0  0
  183.9240  175.3410  136.9590 C   0  0  0  0  0  0  0  0  0  0  0  0
  187.1130  175.2110  136.0670 C   0  0  0  0  0  1  0  0  0  0  0  0
  183.2260  177.1730  137.9520 C   0  0  0  0  0  0  0  0  0  0  0  0
  1 21  1  1  0  0  0
  1  6  1  0  0  0  0
  4 22  1  0  0  0  0
  5 24  1  0  0  0  0
  5 17  1  0  0  0  0
  6 23  1  0  0  0  0
  7  8  2  0  0  0  0
  8  2  2  0  0  0  0
  9 18  1  1  0  0  0
  9 13  1  0  0  0  0
  9 14  1  0  0  0  0
 10  8  1  0  0  0  0
 10 28  1  0  0  0  0
 12 28  2  0  0  0  0
 12 25  1  0  0  0  0
 13 26  1  0  0  0  0
 14  8  1  0  0  0  0
 15 11  1  6  0  0  0
 15 23  1  0  0  0  0
 16 20  1  6  0  0  0
 16  1  1  0  0  0  0
 17  3  2  0  0  0  0
 17 25  1  0  0  0  0
 19 15  1  0  0  0  0
 20  4  2  0  0  0  0
 22 21  2  0  0  0  0
 24 12  1  0  0  0  0
 25 19  1  1  0  0  0
 26 24  2  0  0  0  0
 26 10  1  0  0  0  0
 27  5  1  0  0  0  0
 28 16  1  0  0  0  0
M  END
>  <MODEL>
7

>  <REMARK>
 VINA RESULT:      -5.6      5.823      8.830
  Name = 
  0 active torsions:
  status: ('A' for Active; 'I' for Inactive)
                            x       y       z     vdW  Elec       q    Type
                         _______ _______ _______ _____ _____    ______ ____

>  <TORSDO>
F 0

$$$$
=
 OpenBabel11122411593D

 28 32  0  0  1  0  0  0  0  0999 V2000
  190.5700  175.8570  139.0070 C   0  0  2  0  0  3  0  0  0  0  0  0
  190.7180  175.4100  141.9340 O   0  0  0  0  0  0  0  0  0  0  0  0
  184.9680  179.0570  138.2630 O   0  0  0  0  0  0  0  0  0  0  0  0
  192.9020  177.4820  139.2940 C   0  0  0  0  0  3  0  0  0  0  0  0
  185.9360  178.6130  140.3750 N   0  0  0  0  0  0  0  0  0  0  0  0
  189.3650  175.2190  138.3170 C   0  0  0  0  0  2  0  0  0  0  0  0
  191.4750  177.6140  142.7370 O   0  0  0  0  0  0  0  0  0  0  0  0
  190.2830  176.7350  142.4910 S   0  0  0  0  0  0  0  0  0  0  0  0
  188.3870  177.5770  144.2400 C   0  0  2  0  0  3  0  0  0  0  0  0
  189.1710  177.5200  141.4210 N   0  0  0  0  0  0  0  0  0  0  0  0
  189.4000  178.0110  136.6120 O   0  0  0  0  0  1  0  0  0  0  0  0
  188.1040  178.3300  139.6450 C   0  0  0  0  0  0  0  0  0  0  0  0
  187.3270  177.5860  143.1390 C   0  0  0  0  0  2  0  0  0  0  0  0
  189.4120  176.4660  144.0230 C   0  0  0  0  0  2  0  0  0  0  0  0
  188.4870  176.9530  136.6240 C   0  0  2  0  0  3  0  0  0  0  0  0
  190.4380  177.3770  139.2010 C   0  0  2  0  0  3  0  0  0  0  0  0
  185.9760  178.7420  138.9490 C   0  0  0  0  0  0  0  0  0  0  0  0
  187.7150  177.3800  145.5810 C   0  0  0  0  0  1  0  0  0  0  0  0
  187.3040  177.1740  137.5770 C   0  0  0  0  0  2  0  0  0  0  0  0
  191.7270  178.0050  139.6580 C   0  0  0  0  0  3  0  0  0  0  0  0
  191.8650  175.4910  138.3270 C   0  0  0  0  0  3  0  0  0  0  0  0
  192.9580  176.2400  138.4980 C   0  0  0  0  0  3  0  0  0  0  0  0
  189.1930  175.6130  136.8450 C   0  0  0  0  0  2  0  0  0  0  0  0
  187.2940  178.4350  140.7120 C   0  0  0  0  0  0  0  0  0  0  0  0
  187.3490  178.4880  138.3580 C   0  0  2  0  0  3  0  0  0  0  0  0
  187.9360  177.9160  141.8100 C   0  0  0  0  0  0  0  0  0  0  0  0
  184.8890  179.0960  141.2580 C   0  0  0  0  0  1  0  0  0  0  0  0
  189.2880  177.7630  140.0840 C   0  0  0  0  0  0  0  0  0  0  0  0
  1  6  1  6  0  0  0
  1 16  1  0  0  0  0
  2  8  2  0  0  0  0
  3 17  2  0  0  0  0
  4 20  2  0  0  0  0
  5 24  1  0  0  0  0
  5 27  1  0  0  0  0
  8  7  2  0  0  0  0
  8 14  1  0  0  0  0
  9 18  1  1  0  0  0
 10 26  1  0  0  0  0
 10  8  1  0  0  0  0
 12 28  2  0  0  0  0
 12 24  1  0  0  0  0
 13  9  1  0  0  0  0
 14  9  1  0  0  0  0
 15 11  1  1  0  0  0
 15 23  1  0  0  0  0
 15 19  1  0  0  0  0
 16 20  1  1  0  0  0
 16 28  1  0  0  0  0
 17  5  1  0  0  0  0
 21 22  2  0  0  0  0
 21  1  1  0  0  0  0
 22  4  1  0  0  0  0
 23  6  1  0  0  0  0
 24 26  2  0  0  0  0
 25 19  1  6  0  0  0
 25 17  1  0  0  0  0
 25 12  1  0  0  0  0
 26 13  1  0  0  0  0
 28 10  1  0  0  0  0
M  END
>  <MODEL>
8

>  <REMARK>
 VINA RESULT:      -5.5      3.243      6.244
  Name = 
  0 active torsions:
  status: ('A' for Active; 'I' for Inactive)
                            x       y       z     vdW  Elec       q    Type
                         _______ _______ _______ _____ _____    ______ ____

>  <TORSDO>
F 0

$$$$
=
 OpenBabel11122411593D

 28 32  0  0  1  0  0  0  0  0999 V2000
  187.6690  176.4190  137.4630 C   0  0  2  0  0  3  0  0  0  0  0  0
  188.3110  176.9300  140.3120 O   0  0  0  0  0  0  0  0  0  0  0  0
  181.2880  177.5840  137.1350 O   0  0  0  0  0  0  0  0  0  0  0  0
  189.3710  178.6280  136.8440 C   0  0  0  0  0  3  0  0  0  0  0  0
  182.6000  178.0780  139.0400 N   0  0  0  0  0  0  0  0  0  0  0  0
  186.6580  175.2990  137.2210 C   0  0  0  0  0  2  0  0  0  0  0  0
  188.4110  179.3930  140.3660 O   0  0  0  0  0  0  0  0  0  0  0  0
  187.5450  178.1890  140.6010 S   0  0  0  0  0  0  0  0  0  0  0  0
  185.7090  178.9640  142.4410 C   0  0  2  0  0  3  0  0  0  0  0  0
  186.1160  178.2800  139.6250 N   0  0  0  0  0  0  0  0  0  0  0  0
  185.5830  177.3470  134.9070 O   0  0  0  0  0  1  0  0  0  0  0  0
  184.6370  178.1940  137.9670 C   0  0  0  0  0  0  0  0  0  0  0  0
  184.5750  178.3510  141.6190 C   0  0  0  0  0  2  0  0  0  0  0  0
  187.0010  178.1640  142.2990 C   0  0  0  0  0  2  0  0  0  0  0  0
  185.0680  176.1340  135.3720 C   0  0  2  0  0  3  0  0  0  0  0  0
  187.0790  177.8300  137.2970 C   0  0  2  0  0  3  0  0  0  0  0  0
  182.4200  177.7790  137.6510 C   0  0  0  0  0  0  0  0  0  0  0  0
  185.3050  179.0030  143.8990 C   0  0  0  0  0  1  0  0  0  0  0  0
  184.0040  176.2980  136.4660 C   0  0  0  0  0  2  0  0  0  0  0  0
  188.1440  178.8930  137.3040 C   0  0  0  0  0  3  0  0  0  0  0  0
  188.9190  176.2350  136.6410 C   0  0  0  0  0  3  0  0  0  0  0  0
  189.7250  177.2700  136.3880 C   0  0  0  0  0  3  0  0  0  0  0  0
  186.1890  175.1690  135.7670 C   0  0  0  0  0  2  0  0  0  0  0  0
  183.9730  178.3890  139.1200 C   0  0  0  0  0  0  0  0  0  0  0  0
  183.7190  177.7450  136.8680 C   0  0  2  0  0  3  0  0  0  0  0  0
  184.8770  178.4210  140.1530 C   0  0  0  0  0  0  0  0  0  0  0  0
  181.5700  178.4980  139.9740 C   0  0  0  0  0  1  0  0  0  0  0  0
  185.9840  178.1330  138.2760 C   0  0  0  0  0  0  0  0  0  0  0  0
  1 21  1  6  0  0  0
  2  8  2  0  0  0  0
  3 17  2  0  0  0  0
  4 20  2  0  0  0  0
  5 24  1  0  0  0  0
  5 27  1  0  0  0  0
  6  1  1  0  0  0  0
  7  8  2  0  0  0  0
  8 14  1  0  0  0  0
  9 18  1  1  0  0  0
 10 26  1  0  0  0  0
 10  8  1  0  0  0  0
 12 28  2  0  0  0  0
 12 24  1  0  0  0  0
 13  9  1  0  0  0  0
 14  9  1  0  0  0  0
 15 11  1  1  0  0  0
 15 23  1  0  0  0  0
 15 19  1  0  0  0  0
 16 20  1  1  0  0  0
 16  1  1  0  0  0  0
 16 28  1  0  0  0  0
 17  5  1  0  0  0  0
 22 21  2  0  0  0  0
 22  4  1  0  0  0  0
 23  6  1  0  0  0  0
 24 26  2  0  0  0  0
 25 19  1  1  0  0  0
 25 17  1  0  0  0  0
 25 12  1  0  0  0  0
 26 13  1  0  0  0  0
 28 10  1  0  0  0  0
M  END
>  <MODEL>
9

>  <REMARK>
 VINA RESULT:      -5.4      3.717      7.370
  Name = 
  0 active torsions:
  status: ('A' for Active; 'I' for Inactive)
                            x       y       z     vdW  Elec       q    Type
                         _______ _______ _______ _____ _____    ______ ____

>  <TORSDO>
F 0

$$$$
