=
 OpenBabel11122412213D

 34 41  0  0  1  0  0  0  0  0999 V2000
  187.9820  177.8230  141.1090 C   0  0  2  0  0  3  0  0  0  0  0  0
  186.0820  178.9060  139.9840 N   0  0  0  0  0  2  0  0  0  0  0  0
  191.7950  176.5490  146.3110 C   0  0  1  0  0  3  0  0  0  0  0  0
  189.7770  176.6860  142.3630 C   0  0  1  0  0  3  0  0  0  0  0  0
  190.0090  177.3310  144.8870 C   0  0  2  0  0  3  0  0  0  0  0  0
  190.4100  177.3730  147.4740 C   0  0  0  0  0  2  0  0  0  0  0  0
  191.7800  177.0630  147.6150 O   0  0  0  0  0  0  0  0  0  0  0  0
  192.2330  174.8010  144.6300 C   0  0  0  0  0  2  0  0  0  0  0  0
  186.0890  178.8100  142.3380 C   0  0  0  0  0  0  0  0  0  0  0  0
  183.3380  178.5670  143.8690 C   0  0  0  0  0  2  0  0  0  0  0  0
  188.5380  177.6120  144.7830 C   0  0  0  0  0  3  0  0  0  0  0  0
  190.8860  175.0440  143.9170 C   0  0  0  0  0  2  0  0  0  0  0  0
  186.5370  178.3170  143.5210 C   0  0  0  0  0  0  0  0  0  0  0  0
  184.7610  179.3230  140.4550 C   0  0  0  0  0  2  0  0  0  0  0  0
  190.5910  176.5410  143.6580 C   0  0  1  0  0  3  0  0  0  0  0  0
  192.2160  175.1080  146.1390 C   0  0  0  0  0  2  0  0  0  0  0  0
  183.6890  178.1750  142.4510 C   0  0  2  0  0  3  0  0  0  0  0  0
  188.8360  177.8950  142.3720 C   0  0  2  0  0  3  0  0  0  0  0  0
  190.3120  176.6070  146.1830 C   0  0  2  0  0  3  0  0  0  0  0  0
  187.9720  177.9120  143.6100 C   0  0  0  0  0  0  0  0  0  0  0  0
  189.8870  176.7060  139.9760 C   0  0  0  0  0  2  0  0  0  0  0  0
  184.3570  178.1210  144.8680 C   0  0  0  0  0  3  0  0  0  0  0  0
  190.6760  176.7770  141.2100 N   0  0  0  0  0  2  0  0  0  0  0  0
  185.6820  178.0440  144.7100 C   0  0  0  0  0  3  0  0  0  0  0  0
  184.7090  179.2000  141.9770 C   0  0  1  0  0  3  0  0  0  0  0  0
  188.9000  177.8750  139.8910 C   0  0  0  0  0  2  0  0  0  0  0  0
  186.9650  178.9560  141.1410 C   0  0  1  0  0  3  0  0  0  0  0  0
  182.5260  178.2370  141.6760 O   0  0  0  0  0  0  0  0  0  0  0  0
  181.6140  178.9480  142.4590 C   0  0  0  0  0  2  0  0  0  0  0  0
  179.5570  181.3600  141.6820 O   0  0  0  0  0  0  0  0  0  0  0  0
  180.5620  179.6920  140.3500 C   0  0  0  0  0  2  0  0  0  0  0  0
  180.3040  179.1100  141.7080 C   0  0  2  0  0  3  0  0  0  0  0  0
  179.7730  180.9790  140.3510 C   0  0  0  0  0  2  0  0  0  0  0  0
  179.4560  180.1570  142.3970 C   0  0  0  0  0  2  0  0  0  0  0  0
  1 26  1  6  0  0  0
  1 27  1  0  0  0  0
  1 18  1  0  0  0  0
  2 14  1  0  0  0  0
  3 16  1  1  0  0  0
  3  7  1  0  0  0  0
  4 23  1  6  0  0  0
  4 18  1  0  0  0  0
  4 15  1  0  0  0  0
  5 11  1  6  0  0  0
  5 19  1  0  0  0  0
  6  7  1  0  0  0  0
  8 16  1  0  0  0  0
  9 13  2  0  0  0  0
 10 22  1  0  0  0  0
 12  8  1  0  0  0  0
 13 20  1  0  0  0  0
 13 24  1  0  0  0  0
 15 12  1  1  0  0  0
 15  5  1  0  0  0  0
 17 28  1  6  0  0  0
 17 10  1  0  0  0  0
 18 20  1  1  0  0  0
 19  3  1  0  0  0  0
 19  6  1  1  0  0  0
 20 11  2  0  0  0  0
 21 23  1  0  0  0  0
 24 22  2  0  0  0  0
 25 14  1  6  0  0  0
 25  9  1  0  0  0  0
 25 17  1  0  0  0  0
 26 21  1  0  0  0  0
 27  2  1  6  0  0  0
 27  9  1  0  0  0  0
 28 29  1  0  0  0  0
 30 34  1  0  0  0  0
 31 33  1  0  0  0  0
 31 32  1  0  0  0  0
 32 34  1  0  0  0  0
 32 29  1  1  0  0  0
 33 30  1  0  0  0  0
M  END
>  <MODEL>
1

>  <REMARK>
 VINA RESULT:      -9.7      0.000      0.000
  Name = 
  3 active torsions:
  status: ('A' for Active; 'I' for Inactive)
    1  A    between atoms: C_17  and  O_28
    2  A    between atoms: O_28  and  C_29
    3  A    between atoms: C_29  and  C_32
                            x       y       z     vdW  Elec       q    Type
                         _______ _______ _______ _____ _____    ______ ____

>  <TORSDO>
F 3

$$$$
=
 OpenBabel11122412213D

 34 41  0  0  1  0  0  0  0  0999 V2000
  188.3370  177.6700  140.7090 C   0  0  2  0  0  3  0  0  0  0  0  0
  186.5350  178.6940  139.3850 N   0  0  0  0  0  2  0  0  0  0  0  0
  191.7210  176.6550  146.2530 C   0  0  1  0  0  3  0  0  0  0  0  0
  190.0230  176.5970  142.1560 C   0  0  1  0  0  3  0  0  0  0  0  0
  190.0560  177.3640  144.6550 C   0  0  2  0  0  3  0  0  0  0  0  0
  190.2500  177.5330  147.2610 C   0  0  0  0  0  2  0  0  0  0  0  0
  191.6030  177.2320  147.5250 O   0  0  0  0  0  0  0  0  0  0  0  0
  192.2870  174.8290  144.7000 C   0  0  0  0  0  2  0  0  0  0  0  0
  186.3550  178.7130  141.7340 C   0  0  0  0  0  0  0  0  0  0  0  0
  183.4900  178.5400  143.0520 C   0  0  0  0  0  2  0  0  0  0  0  0
  188.5980  177.6390  144.4210 C   0  0  0  0  0  3  0  0  0  0  0  0
  191.0010  175.0340  143.8710 C   0  0  0  0  0  2  0  0  0  0  0  0
  186.7050  178.2790  142.9720 C   0  0  0  0  0  0  0  0  0  0  0  0
  185.1820  179.1320  139.7290 C   0  0  0  0  0  2  0  0  0  0  0  0
  190.7320  176.5170  143.5170 C   0  0  1  0  0  3  0  0  0  0  0  0
  192.1510  175.2080  146.1860 C   0  0  0  0  0  2  0  0  0  0  0  0
  183.9510  178.0810  141.6860 C   0  0  2  0  0  3  0  0  0  0  0  0
  189.0870  177.8040  142.0310 C   0  0  2  0  0  3  0  0  0  0  0  0
  190.2530  176.7050  146.0050 C   0  0  2  0  0  3  0  0  0  0  0  0
  188.1280  177.8800  143.1940 C   0  0  0  0  0  0  0  0  0  0  0  0
  190.3230  176.5020  139.7870 C   0  0  0  0  0  2  0  0  0  0  0  0
  184.4250  178.1450  144.1480 C   0  0  0  0  0  3  0  0  0  0  0  0
  191.0120  176.6330  141.0750 N   0  0  0  0  0  2  0  0  0  0  0  0
  185.7590  178.0630  144.1010 C   0  0  0  0  0  3  0  0  0  0  0  0
  185.0080  179.0830  141.2460 C   0  0  1  0  0  3  0  0  0  0  0  0
  189.3480  177.6630  139.5670 C   0  0  0  0  0  2  0  0  0  0  0  0
  187.3230  178.8020  140.6050 C   0  0  1  0  0  3  0  0  0  0  0  0
  182.8540  178.1040  140.8190 O   0  0  0  0  0  0  0  0  0  0  0  0
  181.8440  178.7470  141.5400 C   0  0  0  0  0  2  0  0  0  0  0  0
  180.3520  176.3870  139.8510 O   0  0  0  0  0  0  0  0  0  0  0  0
  179.6370  177.6480  141.7130 C   0  0  0  0  0  2  0  0  0  0  0  0
  180.5040  178.5270  140.8600 C   0  0  2  0  0  3  0  0  0  0  0  0
  179.3540  176.4550  140.8320 C   0  0  0  0  0  2  0  0  0  0  0  0
  180.7080  177.7210  139.5970 C   0  0  0  0  0  2  0  0  0  0  0  0
  1 26  1  6  0  0  0
  1 18  1  0  0  0  0
  2 14  1  0  0  0  0
  3 16  1  1  0  0  0
  3  7  1  0  0  0  0
  4 23  1  6  0  0  0
  4 15  1  0  0  0  0
  5 11  1  6  0  0  0
  5 19  1  0  0  0  0
  6  7  1  0  0  0  0
  8 16  1  0  0  0  0
  9 13  2  0  0  0  0
 10 22  1  0  0  0  0
 12  8  1  0  0  0  0
 13 20  1  0  0  0  0
 13 24  1  0  0  0  0
 15 12  1  1  0  0  0
 15  5  1  0  0  0  0
 17 28  1  6  0  0  0
 17 10  1  0  0  0  0
 18  4  1  0  0  0  0
 18 20  1  1  0  0  0
 19  3  1  0  0  0  0
 19  6  1  1  0  0  0
 20 11  2  0  0  0  0
 21 23  1  0  0  0  0
 24 22  2  0  0  0  0
 25 14  1  6  0  0  0
 25 17  1  0  0  0  0
 25  9  1  0  0  0  0
 26 21  1  0  0  0  0
 27  2  1  6  0  0  0
 27  1  1  0  0  0  0
 27  9  1  0  0  0  0
 28 29  1  0  0  0  0
 30 33  1  0  0  0  0
 32 29  1  1  0  0  0
 32 31  1  0  0  0  0
 33 31  1  0  0  0  0
 34 30  1  0  0  0  0
 34 32  1  0  0  0  0
M  END
>  <MODEL>
2

>  <REMARK>
 VINA RESULT:      -9.3      1.177      1.555
  Name = 
  3 active torsions:
  status: ('A' for Active; 'I' for Inactive)
    1  A    between atoms: C_17  and  O_28
    2  A    between atoms: O_28  and  C_29
    3  A    between atoms: C_29  and  C_32
                            x       y       z     vdW  Elec       q    Type
                         _______ _______ _______ _____ _____    ______ ____

>  <TORSDO>
F 3

$$$$
=
 OpenBabel11122412213D

 34 41  0  0  1  0  0  0  0  0999 V2000
  187.8850  177.1170  138.4350 C   0  0  2  0  0  3  0  0  0  0  0  0
  186.6250  178.5810  139.9570 N   0  0  0  0  0  2  0  0  0  0  0  0
  193.3950  174.3720  136.1260 C   0  0  1  0  0  3  0  0  0  0  0  0
  189.2280  175.5780  137.0500 C   0  0  1  0  0  3  0  0  0  0  0  0
  191.8090  175.6040  137.4660 C   0  0  2  0  0  3  0  0  0  0  0  0
  194.3450  175.0170  137.7480 C   0  0  0  0  0  2  0  0  0  0  0  0
  194.7400  174.5720  136.4690 O   0  0  0  0  0  0  0  0  0  0  0  0
  191.5020  173.0290  135.3030 C   0  0  0  0  0  2  0  0  0  0  0  0
  188.8110  177.9460  140.5620 C   0  0  0  0  0  0  0  0  0  0  0  0
  189.5100  177.5820  143.6200 C   0  0  0  0  0  2  0  0  0  0  0  0
  191.4170  176.0220  138.8550 C   0  0  0  0  0  3  0  0  0  0  0  0
  190.5590  173.5380  136.4140 C   0  0  0  0  0  2  0  0  0  0  0  0
  189.9120  177.1590  140.4460 C   0  0  0  0  0  0  0  0  0  0  0  0
  186.8430  178.9850  141.3460 C   0  0  0  0  0  2  0  0  0  0  0  0
  190.6080  175.0740  136.6020 C   0  0  1  0  0  3  0  0  0  0  0  0
  192.9870  172.9800  135.7040 C   0  0  0  0  0  2  0  0  0  0  0  0
  188.1710  177.5010  142.9210 C   0  0  2  0  0  3  0  0  0  0  0  0
  189.2980  176.8260  137.9370 C   0  0  2  0  0  3  0  0  0  0  0  0
  192.9230  174.5800  137.5240 C   0  0  2  0  0  3  0  0  0  0  0  0
  190.2500  176.6280  139.0910 C   0  0  0  0  0  0  0  0  0  0  0  0
  187.0210  176.1390  136.3250 C   0  0  0  0  0  2  0  0  0  0  0  0
  190.5890  176.8370  142.9040 C   0  0  0  0  0  3  0  0  0  0  0  0
  188.3900  175.8580  135.8810 N   0  0  0  0  0  2  0  0  0  0  0  0
  190.7500  176.6910  141.5840 C   0  0  0  0  0  3  0  0  0  0  0  0
  188.2270  178.5210  141.7940 C   0  0  1  0  0  3  0  0  0  0  0  0
  186.9820  177.3720  137.2330 C   0  0  0  0  0  2  0  0  0  0  0  0
  187.9400  178.2910  139.4030 C   0  0  1  0  0  3  0  0  0  0  0  0
  187.1720  177.8340  143.8420 O   0  0  0  0  0  0  0  0  0  0  0  0
  187.8030  177.7750  145.0880 C   0  0  0  0  0  2  0  0  0  0  0  0
  185.7560  179.3950  147.0470 O   0  0  0  0  0  0  0  0  0  0  0  0
  185.3960  177.5580  145.6110 C   0  0  0  0  0  2  0  0  0  0  0  0
  186.7850  177.4490  146.1670 C   0  0  2  0  0  3  0  0  0  0  0  0
  184.7450  178.6170  146.4660 C   0  0  0  0  0  2  0  0  0  0  0  0
  186.8310  178.5150  147.2400 C   0  0  0  0  0  2  0  0  0  0  0  0
  1 26  1  6  0  0  0
  1 27  1  0  0  0  0
  2 14  1  0  0  0  0
  3 16  1  1  0  0  0
  3  7  1  0  0  0  0
  3 19  1  0  0  0  0
  4 23  1  6  0  0  0
  4 18  1  0  0  0  0
  5 19  1  0  0  0  0
  5 11  1  1  0  0  0
  7  6  1  0  0  0  0
  8 16  1  0  0  0  0
  8 12  1  0  0  0  0
  9 25  1  0  0  0  0
 11 20  2  0  0  0  0
 13  9  2  0  0  0  0
 13 24  1  0  0  0  0
 15 12  1  1  0  0  0
 15  4  1  0  0  0  0
 15  5  1  0  0  0  0
 17 10  1  0  0  0  0
 17 28  1  1  0  0  0
 18  1  1  0  0  0  0
 18 20  1  1  0  0  0
 19  6  1  1  0  0  0
 20 13  1  0  0  0  0
 21 26  1  0  0  0  0
 22 10  1  0  0  0  0
 23 21  1  0  0  0  0
 24 22  2  0  0  0  0
 25 14  1  6  0  0  0
 25 17  1  0  0  0  0
 27  2  1  1  0  0  0
 27  9  1  0  0  0  0
 28 29  1  0  0  0  0
 30 34  1  0  0  0  0
 31 32  1  0  0  0  0
 31 33  1  0  0  0  0
 32 29  1  6  0  0  0
 32 34  1  0  0  0  0
 33 30  1  0  0  0  0
M  END
>  <MODEL>
3

>  <REMARK>
 VINA RESULT:      -8.9      3.930      6.941
  Name = 
  3 active torsions:
  status: ('A' for Active; 'I' for Inactive)
    1  A    between atoms: C_17  and  O_28
    2  A    between atoms: O_28  and  C_29
    3  A    between atoms: C_29  and  C_32
                            x       y       z     vdW  Elec       q    Type
                         _______ _______ _______ _____ _____    ______ ____

>  <TORSDO>
F 3

$$$$
=
 OpenBabel11122412213D

 34 41  0  0  1  0  0  0  0  0999 V2000
  187.9000  177.4200  138.5890 C   0  0  2  0  0  3  0  0  0  0  0  0
  186.7060  178.6280  140.3670 N   0  0  0  0  0  2  0  0  0  0  0  0
  193.3000  175.0300  135.6980 C   0  0  1  0  0  3  0  0  0  0  0  0
  189.1790  176.1140  136.9310 C   0  0  1  0  0  3  0  0  0  0  0  0
  191.7710  176.0430  137.2680 C   0  0  2  0  0  3  0  0  0  0  0  0
  194.3040  175.3890  137.3740 C   0  0  0  0  0  2  0  0  0  0  0  0
  194.6560  175.1550  136.0280 O   0  0  0  0  0  0  0  0  0  0  0  0
  191.3630  173.8600  134.7230 C   0  0  0  0  0  2  0  0  0  0  0  0
  188.8980  177.8780  140.7940 C   0  0  0  0  0  0  0  0  0  0  0  0
  189.6760  177.0100  143.7290 C   0  0  0  0  0  2  0  0  0  0  0  0
  191.4250  176.2310  138.7170 C   0  0  0  0  0  3  0  0  0  0  0  0
  190.4600  174.1910  135.9300 C   0  0  0  0  0  2  0  0  0  0  0  0
  189.9820  177.1090  140.5180 C   0  0  0  0  0  0  0  0  0  0  0  0
  186.9690  178.7970  141.7970 C   0  0  0  0  0  2  0  0  0  0  0  0
  190.5390  175.6740  136.3650 C   0  0  1  0  0  3  0  0  0  0  0  0
  192.8580  173.7300  135.0660 C   0  0  0  0  0  2  0  0  0  0  0  0
  188.3160  177.0590  143.0670 C   0  0  2  0  0  3  0  0  0  0  0  0
  189.2940  177.1980  138.0080 C   0  0  2  0  0  3  0  0  0  0  0  0
  192.8700  175.0100  137.1240 C   0  0  2  0  0  3  0  0  0  0  0  0
  190.2750  176.8030  139.0850 C   0  0  0  0  0  0  0  0  0  0  0  0
  186.9620  176.8100  136.3740 C   0  0  0  0  0  2  0  0  0  0  0  0
  190.7230  176.3800  142.8680 C   0  0  0  0  0  3  0  0  0  0  0  0
  188.3140  176.5910  135.8490 N   0  0  0  0  0  2  0  0  0  0  0  0
  190.8440  176.4510  141.5390 C   0  0  0  0  0  3  0  0  0  0  0  0
  188.3570  178.2490  142.1200 C   0  0  1  0  0  3  0  0  0  0  0  0
  186.9680  177.8780  137.4720 C   0  0  0  0  0  2  0  0  0  0  0  0
  188.0010  178.4180  139.7340 C   0  0  1  0  0  3  0  0  0  0  0  0
  187.3490  177.2480  144.0590 O   0  0  0  0  0  0  0  0  0  0  0  0
  188.0330  177.8650  145.1100 C   0  0  0  0  0  2  0  0  0  0  0  0
  189.1730  177.7280  148.1650 O   0  0  0  0  0  0  0  0  0  0  0  0
  187.0280  178.2520  147.3350 C   0  0  0  0  0  2  0  0  0  0  0  0
  187.6390  177.2240  146.4300 C   0  0  2  0  0  3  0  0  0  0  0  0
  187.9310  178.2510  148.5450 C   0  0  0  0  0  2  0  0  0  0  0  0
  188.8840  176.7840  147.1670 C   0  0  0  0  0  2  0  0  0  0  0  0
  1 26  1  6  0  0  0
  1 27  1  0  0  0  0
  2 14  1  0  0  0  0
  3 16  1  1  0  0  0
  3  7  1  0  0  0  0
  3 19  1  0  0  0  0
  4 23  1  6  0  0  0
  4 18  1  0  0  0  0
  5 11  1  1  0  0  0
  7  6  1  0  0  0  0
  8 16  1  0  0  0  0
  8 12  1  0  0  0  0
  9 25  1  0  0  0  0
 11 20  2  0  0  0  0
 13  9  2  0  0  0  0
 13 24  1  0  0  0  0
 15 12  1  1  0  0  0
 15  4  1  0  0  0  0
 15  5  1  0  0  0  0
 17 10  1  0  0  0  0
 17 28  1  1  0  0  0
 18  1  1  0  0  0  0
 18 20  1  1  0  0  0
 19  5  1  0  0  0  0
 19  6  1  1  0  0  0
 20 13  1  0  0  0  0
 21 26  1  0  0  0  0
 22 10  1  0  0  0  0
 23 21  1  0  0  0  0
 24 22  2  0  0  0  0
 25 14  1  6  0  0  0
 25 17  1  0  0  0  0
 27  2  1  1  0  0  0
 27  9  1  0  0  0  0
 28 29  1  0  0  0  0
 30 33  1  0  0  0  0
 31 33  1  0  0  0  0
 32 29  1  6  0  0  0
 32 34  1  0  0  0  0
 32 31  1  0  0  0  0
 34 30  1  0  0  0  0
M  END
>  <MODEL>
4

>  <REMARK>
 VINA RESULT:      -8.8      3.842      7.578
  Name = 
  3 active torsions:
  status: ('A' for Active; 'I' for Inactive)
    1  A    between atoms: C_17  and  O_28
    2  A    between atoms: O_28  and  C_29
    3  A    between atoms: C_29  and  C_32
                            x       y       z     vdW  Elec       q    Type
                         _______ _______ _______ _____ _____    ______ ____

>  <TORSDO>
F 3

$$$$
=
 OpenBabel11122412213D

 34 41  0  0  1  0  0  0  0  0999 V2000
  188.9270  177.7160  139.6990 C   0  0  2  0  0  3  0  0  0  0  0  0
  189.3480  177.8140  137.2780 N   0  0  0  0  0  2  0  0  0  0  0  0
  185.4440  178.9970  145.1260 C   0  0  1  0  0  3  0  0  0  0  0  0
  188.3430  177.5610  142.0920 C   0  0  1  0  0  3  0  0  0  0  0  0
  186.1570  178.7920  142.8280 C   0  0  2  0  0  3  0  0  0  0  0  0
  183.9230  179.5430  143.9690 C   0  0  0  0  0  2  0  0  0  0  0  0
  184.2790  179.7530  145.3180 O   0  0  0  0  0  0  0  0  0  0  0  0
  187.0070  177.1720  145.6680 C   0  0  0  0  0  2  0  0  0  0  0  0
  187.1690  178.2530  138.0600 C   0  0  0  0  0  0  0  0  0  0  0  0
  184.7030  177.4440  136.2600 C   0  0  0  0  0  2  0  0  0  0  0  0
  185.7260  178.5300  141.4140 C   0  0  0  0  0  3  0  0  0  0  0  0
  187.1820  176.7800  144.1850 C   0  0  0  0  0  2  0  0  0  0  0  0
  186.2020  178.2180  139.0120 C   0  0  0  0  0  0  0  0  0  0  0  0
  188.4540  177.8550  136.1200 C   0  0  0  0  0  2  0  0  0  0  0  0
  187.4400  177.9920  143.2580 C   0  0  1  0  0  3  0  0  0  0  0  0
  185.6350  177.7830  146.0050 C   0  0  0  0  0  2  0  0  0  0  0  0
  186.1100  176.8880  136.2730 C   0  0  2  0  0  3  0  0  0  0  0  0
  188.0870  178.3510  140.8040 C   0  0  2  0  0  3  0  0  0  0  0  0
  185.0110  178.5210  143.7820 C   0  0  2  0  0  3  0  0  0  0  0  0
  186.6220  178.3510  140.4390 C   0  0  0  0  0  0  0  0  0  0  0  0
  190.5890  177.0840  141.4300 C   0  0  0  0  0  2  0  0  0  0  0  0
  184.1250  177.6030  137.6290 C   0  0  0  0  0  3  0  0  0  0  0  0
  189.7530  177.6900  142.4710 N   0  0  0  0  0  2  0  0  0  0  0  0
  184.7600  177.9450  138.7550 C   0  0  0  0  0  3  0  0  0  0  0  0
  187.0190  178.0640  136.6000 C   0  0  1  0  0  3  0  0  0  0  0  0
  190.3990  177.8010  140.0900 C   0  0  0  0  0  2  0  0  0  0  0  0
  188.6150  178.4160  138.3840 C   0  0  1  0  0  3  0  0  0  0  0  0
  186.3950  176.3790  135.0020 O   0  0  0  0  0  0  0  0  0  0  0  0
  186.3310  174.9910  135.1520 C   0  0  0  0  0  2  0  0  0  0  0  0
  186.9070  172.2400  136.8090 O   0  0  0  0  0  0  0  0  0  0  0  0
  188.3100  174.0710  136.3140 C   0  0  0  0  0  2  0  0  0  0  0  0
  186.9140  174.5890  136.4950 C   0  0  2  0  0  3  0  0  0  0  0  0
  188.2430  172.6590  136.8430 C   0  0  0  0  0  2  0  0  0  0  0  0
  186.1520  173.4000  137.0380 C   0  0  0  0  0  2  0  0  0  0  0  0
  1 26  1  1  0  0  0
  1 18  1  0  0  0  0
  3  7  1  0  0  0  0
  3 16  1  1  0  0  0
  4 23  1  1  0  0  0
  4 15  1  0  0  0  0
  5 11  1  6  0  0  0
  5 15  1  0  0  0  0
  5 19  1  0  0  0  0
  6  7  1  0  0  0  0
  8 16  1  0  0  0  0
  9 27  1  0  0  0  0
  9 13  2  0  0  0  0
 10 17  1  0  0  0  0
 10 22  1  0  0  0  0
 12  8  1  0  0  0  0
 13 20  1  0  0  0  0
 14  2  1  0  0  0  0
 15 12  1  6  0  0  0
 17 28  1  6  0  0  0
 17 25  1  0  0  0  0
 18 20  1  6  0  0  0
 18  4  1  0  0  0  0
 19  6  1  6  0  0  0
 19  3  1  0  0  0  0
 20 11  2  0  0  0  0
 21 23  1  0  0  0  0
 22 24  2  0  0  0  0
 24 13  1  0  0  0  0
 25 14  1  6  0  0  0
 25  9  1  0  0  0  0
 26 21  1  0  0  0  0
 27  2  1  6  0  0  0
 27  1  1  0  0  0  0
 28 29  1  0  0  0  0
 30 33  1  0  0  0  0
 30 34  1  0  0  0  0
 31 32  1  0  0  0  0
 31 33  1  0  0  0  0
 32 29  1  6  0  0  0
 32 34  1  0  0  0  0
M  END
>  <MODEL>
5

>  <REMARK>
 VINA RESULT:      -8.5      3.640      6.687
  Name = 
  3 active torsions:
  status: ('A' for Active; 'I' for Inactive)
    1  A    between atoms: C_17  and  O_28
    2  A    between atoms: O_28  and  C_29
    3  A    between atoms: C_29  and  C_32
                            x       y       z     vdW  Elec       q    Type
                         _______ _______ _______ _____ _____    ______ ____

>  <TORSDO>
F 3

$$$$
=
 OpenBabel11122412213D

 34 41  0  0  1  0  0  0  0  0999 V2000
  183.2510  178.3540  141.9520 C   0  0  2  0  0  3  0  0  0  0  0  0
  183.2330  178.9350  144.3420 N   0  0  0  0  0  2  0  0  0  0  0  0
  186.0110  178.0270  135.9940 C   0  0  1  0  0  3  0  0  0  0  0  0
  183.4240  177.6910  139.5810 C   0  0  1  0  0  3  0  0  0  0  0  0
  185.6400  178.3490  138.3580 C   0  0  2  0  0  3  0  0  0  0  0  0
  187.7610  178.4640  136.8270 C   0  0  0  0  0  2  0  0  0  0  0  0
  187.2390  178.5070  135.5180 O   0  0  0  0  0  0  0  0  0  0  0  0
  184.1080  176.4620  136.0110 C   0  0  0  0  0  2  0  0  0  0  0  0
  185.3060  178.8210  143.2280 C   0  0  0  0  0  0  0  0  0  0  0  0
  187.8580  177.8790  144.8330 C   0  0  0  0  0  2  0  0  0  0  0  0
  186.2370  178.2530  139.7320 C   0  0  0  0  0  3  0  0  0  0  0  0
  184.1050  176.3650  137.5520 C   0  0  0  0  0  2  0  0  0  0  0  0
  186.0960  178.4450  142.1890 C   0  0  0  0  0  0  0  0  0  0  0  0
  184.2910  179.0030  145.3510 C   0  0  0  0  0  2  0  0  0  0  0  0
  184.1930  177.7430  138.2520 C   0  0  1  0  0  3  0  0  0  0  0  0
  185.4920  176.7400  135.3960 C   0  0  0  0  0  2  0  0  0  0  0  0
  186.3950  177.6020  145.1010 C   0  0  2  0  0  3  0  0  0  0  0  0
  184.0020  178.6250  140.6510 C   0  0  2  0  0  3  0  0  0  0  0  0
  186.5640  177.7120  137.3410 C   0  0  2  0  0  3  0  0  0  0  0  0
  185.4860  178.4120  140.8260 C   0  0  0  0  0  0  0  0  0  0  0  0
  181.2610  177.7620  140.5940 C   0  0  0  0  0  2  0  0  0  0  0  0
  188.2350  177.6930  143.3990 C   0  0  0  0  0  3  0  0  0  0  0  0
  182.0130  178.0170  139.3600 N   0  0  0  0  0  2  0  0  0  0  0  0
  187.4960  177.9540  142.3150 C   0  0  0  0  0  3  0  0  0  0  0  0
  185.6490  178.8550  144.6670 C   0  0  1  0  0  3  0  0  0  0  0  0
  181.7700  178.6460  141.7370 C   0  0  0  0  0  2  0  0  0  0  0  0
  183.8730  179.1940  143.0590 C   0  0  1  0  0  3  0  0  0  0  0  0
  186.2320  177.3780  146.4720 O   0  0  0  0  0  0  0  0  0  0  0  0
  187.0040  178.3660  147.0880 C   0  0  0  0  0  2  0  0  0  0  0  0
  189.6400  176.4600  147.3440 O   0  0  0  0  0  0  0  0  0  0  0  0
  189.1180  178.5250  148.3590 C   0  0  0  0  0  2  0  0  0  0  0  0
  187.8430  177.7510  148.1940 C   0  0  2  0  0  3  0  0  0  0  0  0
  190.1980  177.5040  148.0940 C   0  0  0  0  0  2  0  0  0  0  0  0
  188.3060  176.3750  147.7680 C   0  0  0  0  0  2  0  0  0  0  0  0
  1 26  1  6  0  0  0
  1 27  1  0  0  0  0
  2 14  1  0  0  0  0
  3 16  1  6  0  0  0
  3 19  1  0  0  0  0
  4 23  1  6  0  0  0
  4 18  1  0  0  0  0
  5 11  1  1  0  0  0
  7  3  1  0  0  0  0
  7  6  1  0  0  0  0
  8 12  1  0  0  0  0
  9 25  1  0  0  0  0
 10 17  1  0  0  0  0
 11 20  2  0  0  0  0
 13 24  1  0  0  0  0
 13  9  2  0  0  0  0
 15 12  1  1  0  0  0
 15  5  1  0  0  0  0
 15  4  1  0  0  0  0
 16  8  1  0  0  0  0
 17 28  1  1  0  0  0
 18 20  1  1  0  0  0
 18  1  1  0  0  0  0
 19  6  1  6  0  0  0
 19  5  1  0  0  0  0
 20 13  1  0  0  0  0
 21 26  1  0  0  0  0
 22 10  1  0  0  0  0
 23 21  1  0  0  0  0
 24 22  2  0  0  0  0
 25 17  1  0  0  0  0
 25 14  1  1  0  0  0
 27  9  1  1  0  0  0
 27  2  1  0  0  0  0
 28 29  1  0  0  0  0
 30 34  1  0  0  0  0
 30 33  1  0  0  0  0
 32 29  1  6  0  0  0
 32 31  1  0  0  0  0
 33 31  1  0  0  0  0
 34 32  1  0  0  0  0
M  END
>  <MODEL>
6

>  <REMARK>
 VINA RESULT:      -8.3      3.226      8.291
  Name = 
  3 active torsions:
  status: ('A' for Active; 'I' for Inactive)
    1  A    between atoms: C_17  and  O_28
    2  A    between atoms: O_28  and  C_29
    3  A    between atoms: C_29  and  C_32
                            x       y       z     vdW  Elec       q    Type
                         _______ _______ _______ _____ _____    ______ ____

>  <TORSDO>
F 3

$$$$
=
 OpenBabel11122412213D

 34 41  0  0  1  0  0  0  0  0999 V2000
  191.0130  177.3990  142.4070 C   0  0  2  0  0  3  0  0  0  0  0  0
  192.8300  177.1290  140.7710 N   0  0  0  0  0  2  0  0  0  0  0  0
  184.9370  179.1360  144.2220 C   0  0  1  0  0  3  0  0  0  0  0  0
  189.0840  177.5870  143.9340 C   0  0  1  0  0  3  0  0  0  0  0  0
  186.9090  178.6300  142.9230 C   0  0  2  0  0  3  0  0  0  0  0  0
  184.4470  179.2670  142.3000 C   0  0  0  0  0  2  0  0  0  0  0  0
  183.9020  179.7530  143.5070 O   0  0  0  0  0  0  0  0  0  0  0  0
  185.8350  177.6550  145.9740 C   0  0  0  0  0  2  0  0  0  0  0  0
  190.6310  177.4080  139.9730 C   0  0  0  0  0  0  0  0  0  0  0  0
  189.7850  175.9800  137.2860 C   0  0  0  0  0  2  0  0  0  0  0  0
  187.4350  178.0710  141.6320 C   0  0  0  0  0  3  0  0  0  0  0  0
  186.8810  177.0370  145.0210 C   0  0  0  0  0  2  0  0  0  0  0  0
  189.2830  177.4110  140.1350 C   0  0  0  0  0  0  0  0  0  0  0  0
  192.8340  176.8500  139.3350 C   0  0  0  0  0  2  0  0  0  0  0  0
  187.6570  178.0930  144.1970 C   0  0  1  0  0  3  0  0  0  0  0  0
  184.5460  178.1290  145.2780 C   0  0  0  0  0  2  0  0  0  0  0  0
  190.8860  175.6250  138.2600 C   0  0  2  0  0  3  0  0  0  0  0  0
  189.6740  178.1010  142.6160 C   0  0  2  0  0  3  0  0  0  0  0  0
  185.4180  178.3810  143.0310 C   0  0  2  0  0  3  0  0  0  0  0  0
  188.7400  177.8450  141.4570 C   0  0  0  0  0  0  0  0  0  0  0  0
  191.2630  177.3030  144.8730 C   0  0  0  0  0  2  0  0  0  0  0  0
  188.4890  176.2970  137.9600 C   0  0  0  0  0  3  0  0  0  0  0  0
  189.9650  177.9650  145.0420 N   0  0  0  0  0  2  0  0  0  0  0  0
  188.3020  176.9110  139.1330 C   0  0  0  0  0  3  0  0  0  0  0  0
  191.4070  176.9490  138.8000 C   0  0  1  0  0  3  0  0  0  0  0  0
  191.9370  177.7440  143.5700 C   0  0  0  0  0  2  0  0  0  0  0  0
  191.5750  177.8120  141.0530 C   0  0  1  0  0  3  0  0  0  0  0  0
  191.8900  174.9450  137.5620 O   0  0  0  0  0  0  0  0  0  0  0  0
  191.7910  175.4140  136.2500 C   0  0  0  0  0  2  0  0  0  0  0  0
  194.9860  175.9170  136.6830 O   0  0  0  0  0  0  0  0  0  0  0  0
  193.7890  173.9640  136.1190 C   0  0  0  0  0  2  0  0  0  0  0  0
  193.0840  175.1370  135.5030 C   0  0  2  0  0  3  0  0  0  0  0  0
  195.1200  174.5290  136.5530 C   0  0  0  0  0  2  0  0  0  0  0  0
  194.0420  176.2880  135.7120 C   0  0  0  0  0  2  0  0  0  0  0  0
  1 18  1  0  0  0  0
  1 26  1  1  0  0  0
  2 27  1  0  0  0  0
  3 16  1  1  0  0  0
  4 15  1  0  0  0  0
  4 23  1  1  0  0  0
  5 11  1  6  0  0  0
  5 19  1  0  0  0  0
  5 15  1  0  0  0  0
  6  7  1  0  0  0  0
  7  3  1  0  0  0  0
  9 13  2  0  0  0  0
 10 22  1  0  0  0  0
 10 17  1  0  0  0  0
 12  8  1  0  0  0  0
 13 20  1  0  0  0  0
 14  2  1  0  0  0  0
 15 12  1  6  0  0  0
 16  8  1  0  0  0  0
 17 28  1  6  0  0  0
 17 25  1  0  0  0  0
 18 20  1  6  0  0  0
 18  4  1  0  0  0  0
 19  6  1  6  0  0  0
 19  3  1  0  0  0  0
 20 11  2  0  0  0  0
 21 23  1  0  0  0  0
 22 24  2  0  0  0  0
 24 13  1  0  0  0  0
 25 14  1  1  0  0  0
 25  9  1  0  0  0  0
 26 21  1  0  0  0  0
 27  9  1  6  0  0  0
 27  1  1  0  0  0  0
 29 28  1  0  0  0  0
 31 33  1  0  0  0  0
 32 34  1  0  0  0  0
 32 31  1  0  0  0  0
 32 29  1  1  0  0  0
 33 30  1  0  0  0  0
 34 30  1  0  0  0  0
M  END
>  <MODEL>
7

>  <REMARK>
 VINA RESULT:      -8.3      3.812      8.761
  Name = 
  3 active torsions:
  status: ('A' for Active; 'I' for Inactive)
    1  A    between atoms: C_17  and  O_28
    2  A    between atoms: O_28  and  C_29
    3  A    between atoms: C_29  and  C_32
                            x       y       z     vdW  Elec       q    Type
                         _______ _______ _______ _____ _____    ______ ____

>  <TORSDO>
F 3

$$$$
=
 OpenBabel11122412213D

 34 41  0  0  1  0  0  0  0  0999 V2000
  187.3630  177.9880  139.7350 C   0  0  2  0  0  3  0  0  0  0  0  0
  186.7420  178.0990  137.3580 N   0  0  0  0  0  2  0  0  0  0  0  0
  186.2140  178.7700  146.1620 C   0  0  1  0  0  3  0  0  0  0  0  0
  187.8340  177.7910  142.1500 C   0  0  1  0  0  3  0  0  0  0  0  0
  185.9590  178.6370  143.7640 C   0  0  2  0  0  3  0  0  0  0  0  0
  184.2870  179.0120  145.7440 C   0  0  0  0  0  2  0  0  0  0  0  0
  185.1170  179.3140  146.8440 O   0  0  0  0  0  0  0  0  0  0  0  0
  188.1490  177.2610  145.9370 C   0  0  0  0  0  2  0  0  0  0  0  0
  185.0270  178.1690  138.9720 C   0  0  0  0  0  0  0  0  0  0  0  0
  182.2210  176.8950  138.2820 C   0  0  0  0  0  2  0  0  0  0  0  0
  185.0430  178.2690  142.6320 C   0  0  0  0  0  3  0  0  0  0  0  0
  187.7720  176.8700  144.4920 C   0  0  0  0  0  2  0  0  0  0  0  0
  184.5500  177.9870  140.2300 C   0  0  0  0  0  0  0  0  0  0  0  0
  185.4630  177.9540  136.6620 C   0  0  0  0  0  2  0  0  0  0  0  0
  187.4220  178.0860  143.6000 C   0  0  1  0  0  3  0  0  0  0  0  0
  186.9490  177.6310  146.8280 C   0  0  0  0  0  2  0  0  0  0  0  0
  183.5850  176.5950  137.6990 C   0  0  2  0  0  3  0  0  0  0  0  0
  186.9470  178.4930  141.1150 C   0  0  2  0  0  3  0  0  0  0  0  0
  185.3630  178.1930  145.0840 C   0  0  2  0  0  3  0  0  0  0  0  0
  185.4840  178.2270  141.3720 C   0  0  0  0  0  0  0  0  0  0  0  0
  189.6640  177.7010  140.6160 C   0  0  0  0  0  2  0  0  0  0  0  0
  182.2290  176.9830  139.7730 C   0  0  0  0  0  3  0  0  0  0  0  0
  189.2310  178.1750  141.9350 N   0  0  0  0  0  2  0  0  0  0  0  0
  183.1980  177.4590  140.5630 C   0  0  0  0  0  3  0  0  0  0  0  0
  184.3330  177.9200  137.6900 C   0  0  1  0  0  3  0  0  0  0  0  0
  188.8280  178.3390  139.5030 C   0  0  0  0  0  2  0  0  0  0  0  0
  186.4290  178.5900  138.6930 C   0  0  1  0  0  3  0  0  0  0  0  0
  183.4120  176.1140  136.3970 O   0  0  0  0  0  0  0  0  0  0  0  0
  183.5010  174.7240  136.5170 C   0  0  0  0  0  2  0  0  0  0  0  0
  185.4430  172.1010  136.5430 O   0  0  0  0  0  0  0  0  0  0  0  0
  185.8810  174.3460  135.9630 C   0  0  0  0  0  2  0  0  0  0  0  0
  184.8640  174.3400  137.0660 C   0  0  2  0  0  3  0  0  0  0  0  0
  186.4000  172.9290  135.9410 C   0  0  0  0  0  2  0  0  0  0  0  0
  184.8330  172.8980  137.5240 C   0  0  0  0  0  2  0  0  0  0  0  0
  1 26  1  6  0  0  0
  1 18  1  0  0  0  0
  3 16  1  1  0  0  0
  3  7  1  0  0  0  0
  4 23  1  1  0  0  0
  4 15  1  0  0  0  0
  5 11  1  6  0  0  0
  5 19  1  0  0  0  0
  6  7  1  0  0  0  0
  8 16  1  0  0  0  0
  9 13  2  0  0  0  0
 10 22  1  0  0  0  0
 12  8  1  0  0  0  0
 13 24  1  0  0  0  0
 13 20  1  0  0  0  0
 14  2  1  0  0  0  0
 15  5  1  0  0  0  0
 15 12  1  1  0  0  0
 17 28  1  6  0  0  0
 17 10  1  0  0  0  0
 18 20  1  1  0  0  0
 18  4  1  0  0  0  0
 19  6  1  1  0  0  0
 19  3  1  0  0  0  0
 20 11  2  0  0  0  0
 21 23  1  0  0  0  0
 22 24  2  0  0  0  0
 25 14  1  6  0  0  0
 25 17  1  0  0  0  0
 25  9  1  0  0  0  0
 26 21  1  0  0  0  0
 27  2  1  6  0  0  0
 27  9  1  0  0  0  0
 27  1  1  0  0  0  0
 28 29  1  0  0  0  0
 30 34  1  0  0  0  0
 31 32  1  0  0  0  0
 32 29  1  6  0  0  0
 32 34  1  0  0  0  0
 33 31  1  0  0  0  0
 33 30  1  0  0  0  0
M  END
>  <MODEL>
8

>  <REMARK>
 VINA RESULT:      -8.3      3.680      5.729
  Name = 
  3 active torsions:
  status: ('A' for Active; 'I' for Inactive)
    1  A    between atoms: C_17  and  O_28
    2  A    between atoms: O_28  and  C_29
    3  A    between atoms: C_29  and  C_32
                            x       y       z     vdW  Elec       q    Type
                         _______ _______ _______ _____ _____    ______ ____

>  <TORSDO>
F 3

$$$$
=
 OpenBabel11122412213D

 34 41  0  0  1  0  0  0  0  0999 V2000
  182.2100  178.6160  143.8980 C   0  0  2  0  0  3  0  0  0  0  0  0
  183.7710  179.0030  145.7600 N   0  0  0  0  0  2  0  0  0  0  0  0
  180.4300  178.8120  137.5720 C   0  0  1  0  0  3  0  0  0  0  0  0
  180.7770  178.1490  141.9450 C   0  0  1  0  0  3  0  0  0  0  0  0
  181.6940  178.9370  139.6260 C   0  0  2  0  0  3  0  0  0  0  0  0
  182.3180  179.2080  137.0970 C   0  0  0  0  0  2  0  0  0  0  0  0
  181.0730  179.3480  136.4490 O   0  0  0  0  0  0  0  0  0  0  0  0
  178.9310  177.2230  138.7110 C   0  0  0  0  0  2  0  0  0  0  0  0
  184.6190  179.0100  143.5610 C   0  0  0  0  0  0  0  0  0  0  0  0
  187.5600  177.9800  143.0520 C   0  0  0  0  0  2  0  0  0  0  0  0
  183.0350  178.7390  140.2710 C   0  0  0  0  0  3  0  0  0  0  0  0
  179.9240  177.0020  139.8720 C   0  0  0  0  0  2  0  0  0  0  0  0
  184.5290  178.7310  142.2360 C   0  0  0  0  0  0  0  0  0  0  0  0
  185.2320  179.0040  145.8410 C   0  0  0  0  0  2  0  0  0  0  0  0
  180.5010  178.3200  140.4430 C   0  0  1  0  0  3  0  0  0  0  0  0
  179.5950  177.5700  137.3660 C   0  0  0  0  0  2  0  0  0  0  0  0
  186.6110  177.6600  144.1850 C   0  0  2  0  0  3  0  0  0  0  0  0
  181.9470  179.0030  142.4450 C   0  0  2  0  0  3  0  0  0  0  0  0
  181.7100  178.3980  138.2100 C   0  0  2  0  0  3  0  0  0  0  0  0
  183.1800  178.7990  141.5980 C   0  0  0  0  0  0  0  0  0  0  0  0
  179.7920  178.1060  144.1210 C   0  0  0  0  0  2  0  0  0  0  0  0
  186.9090  177.9160  141.7080 C   0  0  0  0  0  3  0  0  0  0  0  0
  179.5740  178.4710  142.7180 N   0  0  0  0  0  2  0  0  0  0  0  0
  185.6550  178.2530  141.3870 C   0  0  0  0  0  3  0  0  0  0  0  0
  185.8140  178.9330  144.4310 C   0  0  1  0  0  3  0  0  0  0  0  0
  180.9570  178.9020  144.7180 C   0  0  0  0  0  2  0  0  0  0  0  0
  183.4360  179.3740  144.3920 C   0  0  1  0  0  3  0  0  0  0  0  0
  187.3670  177.3240  145.3130 O   0  0  0  0  0  0  0  0  0  0  0  0
  188.6640  177.1370  144.8280 C   0  0  0  0  0  2  0  0  0  0  0  0
  190.5040  176.1690  147.3430 O   0  0  0  0  0  0  0  0  0  0  0  0
  191.0610  177.3650  145.3880 C   0  0  0  0  0  2  0  0  0  0  0  0
  189.6680  177.7510  145.7880 C   0  0  2  0  0  3  0  0  0  0  0  0
  191.5940  176.6290  146.5930 C   0  0  0  0  0  2  0  0  0  0  0  0
  189.4980  177.1300  147.1570 C   0  0  0  0  0  2  0  0  0  0  0  0
  1 27  1  0  0  0  0
  1 26  1  1  0  0  0
  2 14  1  0  0  0  0
  3 16  1  6  0  0  0
  3 19  1  0  0  0  0
  4 18  1  0  0  0  0
  4 23  1  1  0  0  0
  5 11  1  1  0  0  0
  5 15  1  0  0  0  0
  7  6  1  0  0  0  0
  7  3  1  0  0  0  0
  8 12  1  0  0  0  0
  9 25  1  0  0  0  0
 10 17  1  0  0  0  0
 11 20  2  0  0  0  0
 13  9  2  0  0  0  0
 15 12  1  6  0  0  0
 15  4  1  0  0  0  0
 16  8  1  0  0  0  0
 17 25  1  0  0  0  0
 17 28  1  1  0  0  0
 18 20  1  6  0  0  0
 18  1  1  0  0  0  0
 19  6  1  6  0  0  0
 19  5  1  0  0  0  0
 20 13  1  0  0  0  0
 21 26  1  0  0  0  0
 22 10  1  0  0  0  0
 23 21  1  0  0  0  0
 24 22  2  0  0  0  0
 24 13  1  0  0  0  0
 25 14  1  1  0  0  0
 27  9  1  6  0  0  0
 27  2  1  0  0  0  0
 29 28  1  0  0  0  0
 31 32  1  0  0  0  0
 31 33  1  0  0  0  0
 32 29  1  6  0  0  0
 32 34  1  0  0  0  0
 33 30  1  0  0  0  0
 34 30  1  0  0  0  0
M  END
>  <MODEL>
9

>  <REMARK>
 VINA RESULT:      -8.2      2.797      9.697
  Name = 
  3 active torsions:
  status: ('A' for Active; 'I' for Inactive)
    1  A    between atoms: C_17  and  O_28
    2  A    between atoms: O_28  and  C_29
    3  A    between atoms: C_29  and  C_32
                            x       y       z     vdW  Elec       q    Type
                         _______ _______ _______ _____ _____    ______ ____

>  <TORSDO>
F 3

$$$$
