=
 OpenBabel11122411473D

 37 43  0  0  1  0  0  0  0  0999 V2000
  187.7960  178.2140  142.0960 C   0  0  1  0  0  3  0  0  0  0  0  0
  188.9850  178.7200  139.0460 O   0  0  0  0  0  0  0  0  0  0  0  0
  185.6910  178.3950  143.6120 C   0  0  2  0  0  3  0  0  0  0  0  0
  187.5630  177.7460  140.7070 C   0  0  2  0  0  3  0  0  0  0  0  0
  186.4670  178.9030  142.3710 C   0  0  2  0  0  3  0  0  0  0  0  0
  188.8320  177.5880  139.8640 C   0  0  2  0  0  3  0  0  0  0  0  0
  186.3040  177.1380  144.2450 C   0  0  0  0  0  2  0  0  0  0  0  0
  185.7130  178.8720  141.1750 O   0  0  0  0  0  0  0  0  0  0  0  0
  189.5780  176.6790  142.8290 C   0  0  0  0  0  2  0  0  0  0  0  0
  187.7050  177.2270  144.2680 O   0  0  0  0  0  0  0  0  0  0  0  0
  187.6890  177.2330  137.4190 C   0  0  0  0  0  2  0  0  0  0  0  0
  188.4380  178.5240  137.7420 C   0  0  1  0  0  3  0  0  0  0  0  0
  188.0870  176.9890  142.9450 C   0  0  1  0  0  3  0  0  0  0  0  0
  186.6440  178.7360  140.1810 N   0  0  2  0  0  0  0  0  0  0  0  0
  190.0920  177.2910  140.7040 C   0  0  1  0  0  3  0  0  0  0  0  0
  186.8880  178.4910  137.7080 C   0  0  2  0  0  3  0  0  0  0  0  0
  186.0420  178.1840  138.9660 C   0  0  2  0  0  3  0  0  0  0  0  0
  189.8730  176.1800  141.5450 O   0  0  0  0  0  0  0  0  0  0  0  0
  192.5380  177.4760  140.2300 C   0  0  0  0  0  3  0  0  0  0  0  0
  191.2750  177.0400  139.8240 C   0  0  0  0  0  0  0  0  0  0  0  0
  191.1310  176.3920  138.5910 C   0  0  0  0  0  3  0  0  0  0  0  0
  192.1260  175.5300  136.5350 N   0  0  0  0  0  1  0  0  0  0  0  0
  193.4780  176.6190  138.2080 N   0  0  0  0  0  0  0  0  0  0  0  0
  192.2560  176.1880  137.7890 C   0  0  0  0  0  0  0  0  0  0  0  0
  193.6400  177.2530  139.4010 C   0  0  0  0  0  3  0  0  0  0  0  0
  184.6330  178.7260  138.7350 C   0  0  0  0  0  2  0  0  0  0  0  0
  183.6150  177.5940  138.7190 C   0  0  0  0  0  0  0  0  0  0  0  0
  182.7250  177.5550  137.5000 C   0  0  0  0  0  2  0  0  0  0  0  0
  183.8460  176.5370  137.6660 C   0  0  0  0  0  2  0  0  0  0  0  0
  182.9790  177.0870  140.0090 C   0  0  0  0  0  2  0  0  0  0  0  0
  181.6500  177.7720  140.2850 C   0  0  0  0  0  2  0  0  0  0  0  0
  181.8640  179.0010  140.9100 O   0  0  0  0  0  1  0  0  0  0  0  0
  184.3370  178.1630  143.3100 O   0  0  0  0  0  0  0  0  0  0  0  0
  183.5510  178.8990  144.2210 C   0  0  0  0  0  0  0  0  0  0  0  0
  182.1990  178.6880  143.9880 F   0  0  0  0  0  0  0  0  0  0  0  0
  183.8590  178.5590  145.5280 F   0  0  0  0  0  0  0  0  0  0  0  0
  183.8200  180.2440  144.0460 F   0  0  0  0  0  0  0  0  0  0  0  0
  1  5  1  0  0  0  0
  1 13  1  0  0  0  0
  2  6  1  0  0  0  0
  3  7  1  0  0  0  0
  4  1  1  0  0  0  0
  5  3  1  0  0  0  0
  6 15  1  0  0  0  0
  6  4  1  0  0  0  0
  7 10  1  0  0  0  0
  8  5  1  0  0  0  0
  9 13  1  0  0  0  0
 11 16  1  0  0  0  0
 11 12  1  0  0  0  0
 12  2  1  0  0  0  0
 13 10  1  0  0  0  0
 14  4  1  0  0  0  0
 14  8  1  0  0  0  0
 15 18  1  0  0  0  0
 16 12  1  0  0  0  0
 16 17  1  0  0  0  0
 17 14  1  0  0  0  0
 18  9  1  0  0  0  0
 20 19  1  0  0  0  0
 20 15  1  0  0  0  0
 21 20  2  0  0  0  0
 22 24  1  0  0  0  0
 23 25  1  0  0  0  0
 24 23  2  0  0  0  0
 24 21  1  0  0  0  0
 25 19  2  0  0  0  0
 26 17  1  0  0  0  0
 27 26  1  0  0  0  0
 27 30  1  0  0  0  0
 28 29  1  0  0  0  0
 28 27  1  0  0  0  0
 29 27  1  0  0  0  0
 30 31  1  0  0  0  0
 31 32  1  0  0  0  0
 33  3  1  0  0  0  0
 33 34  1  0  0  0  0
 34 36  1  0  0  0  0
 35 34  1  0  0  0  0
 37 34  1  0  0  0  0
M  END
>  <MODEL>
1

>  <REMARK>
 VINA RESULT:      -8.0      0.000      0.000
  Name = 
  7 active torsions:
  status: ('A' for Active; 'I' for Inactive)
    1  A    between atoms: C_1  and  C_4
    2  A    between atoms: C_1  and  C_27
    3  A    between atoms: C_2  and  O_22
    4  A    between atoms: C_4  and  C_12
    5  A    between atoms: C_6  and  O_22
    6  A    between atoms: C_8  and  C_12
    7  A    between atoms: C_23  and  C_30
                            x       y       z     vdW  Elec       q    Type
                         _______ _______ _______ _____ _____    ______ ____

>  <TORSDO>
F 7

$$$$
=
 OpenBabel11122411473D

 37 43  0  0  1  0  0  0  0  0999 V2000
  187.7740  178.2430  142.0990 C   0  0  1  0  0  3  0  0  0  0  0  0
  188.9570  178.7180  139.0430 O   0  0  0  0  0  0  0  0  0  0  0  0
  185.6700  178.4310  143.6150 C   0  0  2  0  0  3  0  0  0  0  0  0
  187.5420  177.7570  140.7170 C   0  0  2  0  0  3  0  0  0  0  0  0
  186.4420  178.9280  142.3680 C   0  0  2  0  0  3  0  0  0  0  0  0
  188.8110  177.5940  139.8740 C   0  0  2  0  0  3  0  0  0  0  0  0
  186.2900  177.1860  144.2630 C   0  0  0  0  0  2  0  0  0  0  0  0
  185.6870  178.8790  141.1730 O   0  0  0  0  0  0  0  0  0  0  0  0
  189.5650  176.7250  142.8500 C   0  0  0  0  0  2  0  0  0  0  0  0
  187.6900  177.2810  144.2840 O   0  0  0  0  0  0  0  0  0  0  0  0
  187.6680  177.2040  137.4350 C   0  0  0  0  0  2  0  0  0  0  0  0
  188.4100  178.5020  137.7420 C   0  0  1  0  0  3  0  0  0  0  0  0
  188.0720  177.0290  142.9630 C   0  0  1  0  0  3  0  0  0  0  0  0
  186.6180  178.7360  140.1800 N   0  0  2  0  0  0  0  0  0  0  0  0
  190.0730  177.3140  140.7170 C   0  0  1  0  0  3  0  0  0  0  0  0
  186.8600  178.4620  137.7100 C   0  0  2  0  0  3  0  0  0  0  0  0
  186.0170  178.1650  138.9720 C   0  0  2  0  0  3  0  0  0  0  0  0
  189.8610  176.2120  141.5710 O   0  0  0  0  0  0  0  0  0  0  0  0
  192.5230  177.4770  140.2530 C   0  0  0  0  0  3  0  0  0  0  0  0
  191.2570  177.0580  139.8380 C   0  0  0  0  0  0  0  0  0  0  0  0
  191.1100  176.4220  138.5990 C   0  0  0  0  0  3  0  0  0  0  0  0
  192.1030  175.5680  136.5390 N   0  0  0  0  0  1  0  0  0  0  0  0
  193.4610  176.6280  138.2260 N   0  0  0  0  0  0  0  0  0  0  0  0
  192.2360  176.2140  137.7990 C   0  0  0  0  0  0  0  0  0  0  0  0
  193.6250  177.2500  139.4250 C   0  0  0  0  0  3  0  0  0  0  0  0
  184.6050  178.6980  138.7360 C   0  0  0  0  0  2  0  0  0  0  0  0
  183.6110  177.5520  138.6090 C   0  0  0  0  0  0  0  0  0  0  0  0
  182.9800  177.1070  139.9070 C   0  0  0  0  0  2  0  0  0  0  0  0
  182.1730  177.9140  138.8970 C   0  0  0  0  0  2  0  0  0  0  0  0
  183.8010  176.4560  137.5660 C   0  0  0  0  0  2  0  0  0  0  0  0
  183.2710  175.1170  138.0560 C   0  0  0  0  0  2  0  0  0  0  0  0
  184.2520  174.1350  137.9240 O   0  0  0  0  0  1  0  0  0  0  0  0
  184.3170  178.1890  143.3180 O   0  0  0  0  0  0  0  0  0  0  0  0
  183.5280  178.9200  144.2300 C   0  0  0  0  0  0  0  0  0  0  0  0
  182.1770  178.7060  143.9960 F   0  0  0  0  0  0  0  0  0  0  0  0
  183.8370  178.5780  145.5370 F   0  0  0  0  0  0  0  0  0  0  0  0
  183.7930  180.2660  144.0590 F   0  0  0  0  0  0  0  0  0  0  0  0
  1  5  1  0  0  0  0
  1 13  1  0  0  0  0
  2  6  1  0  0  0  0
  3  7  1  0  0  0  0
  4  1  1  0  0  0  0
  5  3  1  0  0  0  0
  6 15  1  0  0  0  0
  6  4  1  0  0  0  0
  7 10  1  0  0  0  0
  8  5  1  0  0  0  0
  9 13  1  0  0  0  0
 11 16  1  0  0  0  0
 11 12  1  0  0  0  0
 12  2  1  0  0  0  0
 13 10  1  0  0  0  0
 14  4  1  0  0  0  0
 14  8  1  0  0  0  0
 15 18  1  0  0  0  0
 16 12  1  0  0  0  0
 16 17  1  0  0  0  0
 17 14  1  0  0  0  0
 18  9  1  0  0  0  0
 20 19  1  0  0  0  0
 20 15  1  0  0  0  0
 21 20  2  0  0  0  0
 22 24  1  0  0  0  0
 23 25  1  0  0  0  0
 24 23  2  0  0  0  0
 24 21  1  0  0  0  0
 25 19  2  0  0  0  0
 26 17  1  0  0  0  0
 27 26  1  0  0  0  0
 27 29  1  0  0  0  0
 27 28  1  0  0  0  0
 29 28  1  0  0  0  0
 30 31  1  0  0  0  0
 30 27  1  0  0  0  0
 32 31  1  0  0  0  0
 33  3  1  0  0  0  0
 33 34  1  0  0  0  0
 34 36  1  0  0  0  0
 35 34  1  0  0  0  0
 37 34  1  0  0  0  0
M  END
>  <MODEL>
2

>  <REMARK>
 VINA RESULT:      -7.9      1.039      1.398
  Name = 
  7 active torsions:
  status: ('A' for Active; 'I' for Inactive)
    1  A    between atoms: C_1  and  C_4
    2  A    between atoms: C_1  and  C_27
    3  A    between atoms: C_2  and  O_22
    4  A    between atoms: C_4  and  C_12
    5  A    between atoms: C_6  and  O_22
    6  A    between atoms: C_8  and  C_12
    7  A    between atoms: C_23  and  C_30
                            x       y       z     vdW  Elec       q    Type
                         _______ _______ _______ _____ _____    ______ ____

>  <TORSDO>
F 7

$$$$
=
 OpenBabel11122411473D

 37 43  0  0  1  0  0  0  0  0999 V2000
  186.3620  178.7120  142.5370 C   0  0  1  0  0  3  0  0  0  0  0  0
  189.6250  178.5610  143.0800 O   0  0  0  0  0  0  0  0  0  0  0  0
  184.5210  178.9770  140.7200 C   0  0  2  0  0  3  0  0  0  0  0  0
  187.5230  177.8640  142.1730 C   0  0  2  0  0  3  0  0  0  0  0  0
  185.9800  179.2460  141.1640 C   0  0  2  0  0  3  0  0  0  0  0  0
  188.5540  177.6760  143.2900 C   0  0  2  0  0  3  0  0  0  0  0  0
  183.7570  178.0380  141.6640 C   0  0  0  0  0  2  0  0  0  0  0  0
  186.9500  178.7870  140.2420 O   0  0  0  0  0  0  0  0  0  0  0  0
  185.6840  177.7070  144.6830 C   0  0  0  0  0  2  0  0  0  0  0  0
  184.0500  178.3350  143.0040 O   0  0  0  0  0  0  0  0  0  0  0  0
  190.5530  176.5200  141.8490 C   0  0  0  0  0  2  0  0  0  0  0  0
  190.7030  177.9460  142.3730 C   0  0  1  0  0  3  0  0  0  0  0  0
  185.3320  177.8130  143.2000 C   0  0  1  0  0  3  0  0  0  0  0  0
  188.0590  178.5320  141.0040 N   0  0  2  0  0  0  0  0  0  0  0  0
  187.9520  177.8020  144.7060 C   0  0  1  0  0  3  0  0  0  0  0  0
  190.4020  177.6780  140.8760 C   0  0  2  0  0  3  0  0  0  0  0  0
  188.9580  177.5940  140.3280 C   0  0  2  0  0  3  0  0  0  0  0  0
  186.8500  176.9340  144.8520 O   0  0  0  0  0  0  0  0  0  0  0  0
  188.8010  177.9920  147.0480 C   0  0  0  0  0  3  0  0  0  0  0  0
  188.9790  177.5030  145.7520 C   0  0  0  0  0  0  0  0  0  0  0  0
  190.1250  176.7590  145.4450 C   0  0  0  0  0  3  0  0  0  0  0  0
  192.2360  175.7560  146.1490 N   0  0  0  0  0  1  0  0  0  0  0  0
  190.8720  176.9960  147.7020 N   0  0  0  0  0  0  0  0  0  0  0  0
  191.0690  176.5130  146.4450 C   0  0  0  0  0  0  0  0  0  0  0  0
  189.7680  177.7240  148.0200 C   0  0  0  0  0  3  0  0  0  0  0  0
  189.0060  177.8420  138.8210 C   0  0  0  0  0  2  0  0  0  0  0  0
  189.2080  176.5350  138.0660 C   0  0  0  0  0  0  0  0  0  0  0  0
  187.9480  175.7430  137.8130 C   0  0  0  0  0  2  0  0  0  0  0  0
  188.6220  176.5000  136.6750 C   0  0  0  0  0  2  0  0  0  0  0  0
  190.4750  175.7060  138.2500 C   0  0  0  0  0  2  0  0  0  0  0  0
  191.6660  176.3390  137.5470 C   0  0  0  0  0  2  0  0  0  0  0  0
  192.6780  176.6130  138.4680 O   0  0  0  0  0  1  0  0  0  0  0  0
  184.4690  178.4760  139.4070 O   0  0  0  0  0  0  0  0  0  0  0  0
  183.3930  179.0990  138.7410 C   0  0  0  0  0  0  0  0  0  0  0  0
  182.1850  178.7660  139.3370 F   0  0  0  0  0  0  0  0  0  0  0  0
  183.5470  180.4760  138.7310 F   0  0  0  0  0  0  0  0  0  0  0  0
  183.3720  178.6550  137.4310 F   0  0  0  0  0  0  0  0  0  0  0  0
  1 13  1  0  0  0  0
  2  6  1  0  0  0  0
  3  5  1  0  0  0  0
  3  7  1  0  0  0  0
  4  1  1  0  0  0  0
  4  6  1  0  0  0  0
  5  1  1  0  0  0  0
  6 15  1  0  0  0  0
  7 10  1  0  0  0  0
  8 14  1  0  0  0  0
  8  5  1  0  0  0  0
  9 18  1  0  0  0  0
 10 13  1  0  0  0  0
 11 12  1  0  0  0  0
 12  2  1  0  0  0  0
 13  9  1  0  0  0  0
 14  4  1  0  0  0  0
 15 18  1  0  0  0  0
 15 20  1  0  0  0  0
 16 11  1  0  0  0  0
 16 12  1  0  0  0  0
 17 16  1  0  0  0  0
 17 14  1  0  0  0  0
 19 25  1  0  0  0  0
 20 19  2  0  0  0  0
 21 20  1  0  0  0  0
 21 24  2  0  0  0  0
 22 24  1  0  0  0  0
 23 25  2  0  0  0  0
 24 23  1  0  0  0  0
 26 17  1  0  0  0  0
 27 30  1  0  0  0  0
 27 26  1  0  0  0  0
 28 27  1  0  0  0  0
 29 28  1  0  0  0  0
 29 27  1  0  0  0  0
 31 30  1  0  0  0  0
 31 32  1  0  0  0  0
 33  3  1  0  0  0  0
 34 35  1  0  0  0  0
 34 33  1  0  0  0  0
 36 34  1  0  0  0  0
 37 34  1  0  0  0  0
M  END
>  <MODEL>
3

>  <REMARK>
 VINA RESULT:      -7.7      3.202      5.960
  Name = 
  7 active torsions:
  status: ('A' for Active; 'I' for Inactive)
    1  A    between atoms: C_1  and  C_4
    2  A    between atoms: C_1  and  C_27
    3  A    between atoms: C_2  and  O_22
    4  A    between atoms: C_4  and  C_12
    5  A    between atoms: C_6  and  O_22
    6  A    between atoms: C_8  and  C_12
    7  A    between atoms: C_23  and  C_30
                            x       y       z     vdW  Elec       q    Type
                         _______ _______ _______ _____ _____    ______ ____

>  <TORSDO>
F 7

$$$$
=
 OpenBabel11122411473D

 37 43  0  0  1  0  0  0  0  0999 V2000
  186.4760  178.7100  142.6500 C   0  0  1  0  0  3  0  0  0  0  0  0
  189.7470  178.5810  143.1540 O   0  0  0  0  0  0  0  0  0  0  0  0
  184.6130  179.0020  140.8600 C   0  0  2  0  0  3  0  0  0  0  0  0
  187.6430  177.8850  142.2500 C   0  0  2  0  0  3  0  0  0  0  0  0
  186.0740  179.2770  141.2960 C   0  0  2  0  0  3  0  0  0  0  0  0
  188.6880  177.6780  143.3510 C   0  0  2  0  0  3  0  0  0  0  0  0
  183.8700  178.0290  141.7860 C   0  0  0  0  0  2  0  0  0  0  0  0
  187.0390  178.8550  140.3520 O   0  0  0  0  0  0  0  0  0  0  0  0
  185.8340  177.6380  144.7740 C   0  0  0  0  0  2  0  0  0  0  0  0
  184.1750  178.2930  143.1310 O   0  0  0  0  0  0  0  0  0  0  0  0
  190.6840  176.5860  141.8580 C   0  0  0  0  0  2  0  0  0  0  0  0
  190.8240  177.9990  142.4190 C   0  0  1  0  0  3  0  0  0  0  0  0
  185.4640  177.7810  143.2980 C   0  0  1  0  0  3  0  0  0  0  0  0
  188.1590  178.5910  141.0940 N   0  0  2  0  0  0  0  0  0  0  0  0
  188.1000  177.7590  144.7760 C   0  0  1  0  0  3  0  0  0  0  0  0
  190.5100  177.7680  140.9180 C   0  0  2  0  0  3  0  0  0  0  0  0
  189.0610  177.6830  140.3840 C   0  0  2  0  0  3  0  0  0  0  0  0
  187.0100  176.8750  144.9090 O   0  0  0  0  0  0  0  0  0  0  0  0
  189.0280  177.9850  147.0850 C   0  0  0  0  0  3  0  0  0  0  0  0
  189.1420  177.4430  145.8030 C   0  0  0  0  0  0  0  0  0  0  0  0
  190.2390  176.6310  145.4900 C   0  0  0  0  0  3  0  0  0  0  0  0
  192.3180  175.5460  146.1690 N   0  0  0  0  0  1  0  0  0  0  0  0
  191.0640  176.9070  147.7150 N   0  0  0  0  0  0  0  0  0  0  0  0
  191.1990  176.3710  146.4710 C   0  0  0  0  0  0  0  0  0  0  0  0
  190.0080  177.7010  148.0390 C   0  0  0  0  0  3  0  0  0  0  0  0
  189.0900  177.9720  138.8840 C   0  0  0  0  0  2  0  0  0  0  0  0
  189.0980  176.6760  138.0840 C   0  0  0  0  0  0  0  0  0  0  0  0
  190.1780  176.5830  137.0330 C   0  0  0  0  0  2  0  0  0  0  0  0
  190.2900  175.7810  138.3240 C   0  0  0  0  0  2  0  0  0  0  0  0
  187.8010  175.9450  137.7550 C   0  0  0  0  0  2  0  0  0  0  0  0
  186.7150  176.9080  137.3010 C   0  0  0  0  0  2  0  0  0  0  0  0
  186.9120  177.2580  135.9650 O   0  0  0  0  0  1  0  0  0  0  0  0
  184.5520  178.5370  139.5340 O   0  0  0  0  0  0  0  0  0  0  0  0
  183.5320  179.2450  138.8660 C   0  0  0  0  0  0  0  0  0  0  0  0
  183.2670  178.6760  137.6290 F   0  0  0  0  0  0  0  0  0  0  0  0
  182.3720  179.2770  139.6250 F   0  0  0  0  0  0  0  0  0  0  0  0
  183.9570  180.5450  138.6670 F   0  0  0  0  0  0  0  0  0  0  0  0
  1 13  1  0  0  0  0
  2  6  1  0  0  0  0
  3  5  1  0  0  0  0
  3  7  1  0  0  0  0
  4  1  1  0  0  0  0
  4  6  1  0  0  0  0
  5  1  1  0  0  0  0
  6 15  1  0  0  0  0
  7 10  1  0  0  0  0
  8 14  1  0  0  0  0
  8  5  1  0  0  0  0
  9 18  1  0  0  0  0
 10 13  1  0  0  0  0
 11 12  1  0  0  0  0
 12  2  1  0  0  0  0
 13  9  1  0  0  0  0
 14  4  1  0  0  0  0
 15 18  1  0  0  0  0
 15 20  1  0  0  0  0
 16 11  1  0  0  0  0
 16 12  1  0  0  0  0
 17 16  1  0  0  0  0
 17 14  1  0  0  0  0
 19 25  1  0  0  0  0
 20 19  2  0  0  0  0
 21 20  1  0  0  0  0
 21 24  2  0  0  0  0
 22 24  1  0  0  0  0
 23 25  2  0  0  0  0
 24 23  1  0  0  0  0
 26 17  1  0  0  0  0
 27 29  1  0  0  0  0
 27 26  1  0  0  0  0
 28 27  1  0  0  0  0
 28 29  1  0  0  0  0
 30 27  1  0  0  0  0
 31 30  1  0  0  0  0
 32 31  1  0  0  0  0
 33  3  1  0  0  0  0
 34 33  1  0  0  0  0
 34 36  1  0  0  0  0
 35 34  1  0  0  0  0
 37 34  1  0  0  0  0
M  END
>  <MODEL>
4

>  <REMARK>
 VINA RESULT:      -7.7      3.220      5.599
  Name = 
  7 active torsions:
  status: ('A' for Active; 'I' for Inactive)
    1  A    between atoms: C_1  and  C_4
    2  A    between atoms: C_1  and  C_27
    3  A    between atoms: C_2  and  O_22
    4  A    between atoms: C_4  and  C_12
    5  A    between atoms: C_6  and  O_22
    6  A    between atoms: C_8  and  C_12
    7  A    between atoms: C_23  and  C_30
                            x       y       z     vdW  Elec       q    Type
                         _______ _______ _______ _____ _____    ______ ____

>  <TORSDO>
F 7

$$$$
=
 OpenBabel11122411473D

 37 43  0  0  1  0  0  0  0  0999 V2000
  188.6850  177.9810  140.7320 C   0  0  1  0  0  3  0  0  0  0  0  0
  189.0190  178.3880  137.4630 O   0  0  0  0  0  0  0  0  0  0  0  0
  187.0810  178.2800  142.7570 C   0  0  2  0  0  3  0  0  0  0  0  0
  188.0650  177.5040  139.4720 C   0  0  2  0  0  3  0  0  0  0  0  0
  187.5100  178.7340  141.3400 C   0  0  2  0  0  3  0  0  0  0  0  0
  189.0490  177.2750  138.3200 C   0  0  2  0  0  3  0  0  0  0  0  0
  187.7930  177.0060  143.2340 C   0  0  0  0  0  2  0  0  0  0  0  0
  186.4580  178.7190  140.3940 O   0  0  0  0  0  0  0  0  0  0  0  0
  190.5370  176.3770  140.9950 C   0  0  0  0  0  2  0  0  0  0  0  0
  189.1500  177.0310  142.8740 O   0  0  0  0  0  0  0  0  0  0  0  0
  187.2710  176.9360  136.2880 C   0  0  0  0  0  2  0  0  0  0  0  0
  188.1300  178.1970  136.3610 C   0  0  1  0  0  3  0  0  0  0  0  0
  189.1470  176.7560  141.5030 C   0  0  1  0  0  3  0  0  0  0  0  0
  187.0780  178.5270  139.1880 N   0  0  2  0  0  0  0  0  0  0  0  0
  190.4780  176.9340  138.7960 C   0  0  1  0  0  3  0  0  0  0  0  0
  186.6290  178.2340  136.7500 C   0  0  2  0  0  3  0  0  0  0  0  0
  186.1460  177.9840  138.1970 C   0  0  2  0  0  3  0  0  0  0  0  0
  190.4510  175.8460  139.6930 O   0  0  0  0  0  0  0  0  0  0  0  0
  190.7970  176.3770  136.3810 C   0  0  0  0  0  3  0  0  0  0  0  0
  191.3660  176.6160  137.6340 C   0  0  0  0  0  0  0  0  0  0  0  0
  192.7550  176.5360  137.7900 C   0  0  0  0  0  3  0  0  0  0  0  0
  194.9630  176.1390  136.8280 N   0  0  0  0  0  1  0  0  0  0  0  0
  192.9740  175.9970  135.4730 N   0  0  0  0  0  0  0  0  0  0  0  0
  193.5500  176.2230  136.6860 C   0  0  0  0  0  0  0  0  0  0  0  0
  191.6270  176.0670  135.3000 C   0  0  0  0  0  3  0  0  0  0  0  0
  184.7500  178.5870  138.3430 C   0  0  0  0  0  2  0  0  0  0  0  0
  183.7180  177.4990  138.6110 C   0  0  0  0  0  0  0  0  0  0  0  0
  182.8960  177.0910  137.4120 C   0  0  0  0  0  2  0  0  0  0  0  0
  183.9920  176.1740  137.9400 C   0  0  0  0  0  2  0  0  0  0  0  0
  183.0050  177.4030  139.9550 C   0  0  0  0  0  2  0  0  0  0  0  0
  182.9820  178.7430  140.6740 C   0  0  0  0  0  2  0  0  0  0  0  0
  182.2940  178.6280  141.8830 O   0  0  0  0  0  1  0  0  0  0  0  0
  185.6880  178.1050  142.8400 O   0  0  0  0  0  0  0  0  0  0  0  0
  185.2170  178.8390  143.9480 C   0  0  0  0  0  0  0  0  0  0  0  0
  184.0570  178.2740  144.4570 F   0  0  0  0  0  0  0  0  0  0  0  0
  186.1800  178.9080  144.9420 F   0  0  0  0  0  0  0  0  0  0  0  0
  184.9310  180.1260  143.5320 F   0  0  0  0  0  0  0  0  0  0  0  0
  1  5  1  0  0  0  0
  1 13  1  0  0  0  0
  2  6  1  0  0  0  0
  3 33  1  0  0  0  0
  3  7  1  0  0  0  0
  4  1  1  0  0  0  0
  5  3  1  0  0  0  0
  6 15  1  0  0  0  0
  6  4  1  0  0  0  0
  8  5  1  0  0  0  0
  9 13  1  0  0  0  0
 10  7  1  0  0  0  0
 11 12  1  0  0  0  0
 11 16  1  0  0  0  0
 12 16  1  0  0  0  0
 12  2  1  0  0  0  0
 13 10  1  0  0  0  0
 14  4  1  0  0  0  0
 14  8  1  0  0  0  0
 15 18  1  0  0  0  0
 16 17  1  0  0  0  0
 17 26  1  0  0  0  0
 17 14  1  0  0  0  0
 18  9  1  0  0  0  0
 19 20  1  0  0  0  0
 20 21  2  0  0  0  0
 20 15  1  0  0  0  0
 23 24  2  0  0  0  0
 24 22  1  0  0  0  0
 24 21  1  0  0  0  0
 25 23  1  0  0  0  0
 25 19  2  0  0  0  0
 26 27  1  0  0  0  0
 27 30  1  0  0  0  0
 28 29  1  0  0  0  0
 28 27  1  0  0  0  0
 29 27  1  0  0  0  0
 30 31  1  0  0  0  0
 31 32  1  0  0  0  0
 33 34  1  0  0  0  0
 34 35  1  0  0  0  0
 34 36  1  0  0  0  0
 37 34  1  0  0  0  0
M  END
>  <MODEL>
5

>  <REMARK>
 VINA RESULT:      -7.4      1.320      1.912
  Name = 
  7 active torsions:
  status: ('A' for Active; 'I' for Inactive)
    1  A    between atoms: C_1  and  C_4
    2  A    between atoms: C_1  and  C_27
    3  A    between atoms: C_2  and  O_22
    4  A    between atoms: C_4  and  C_12
    5  A    between atoms: C_6  and  O_22
    6  A    between atoms: C_8  and  C_12
    7  A    between atoms: C_23  and  C_30
                            x       y       z     vdW  Elec       q    Type
                         _______ _______ _______ _____ _____    ______ ____

>  <TORSDO>
F 7

$$$$
=
 OpenBabel11122411473D

 37 43  0  0  1  0  0  0  0  0999 V2000
  187.4140  177.4580  142.0640 C   0  0  1  0  0  3  0  0  0  0  0  0
  190.2690  175.8190  142.4330 O   0  0  0  0  0  0  0  0  0  0  0  0
  185.2380  178.2300  143.2600 C   0  0  2  0  0  3  0  0  0  0  0  0
  188.6630  177.5420  142.8610 C   0  0  2  0  0  3  0  0  0  0  0  0
  186.4050  177.2140  143.1760 C   0  0  2  0  0  3  0  0  0  0  0  0
  189.9340  177.1440  142.1040 C   0  0  2  0  0  3  0  0  0  0  0  0
  185.4070  179.4350  142.3240 C   0  0  0  0  0  2  0  0  0  0  0  0
  187.1260  177.0730  144.3850 O   0  0  0  0  0  0  0  0  0  0  0  0
  188.0630  178.6730  140.0210 C   0  0  0  0  0  2  0  0  0  0  0  0
  185.9090  179.0280  141.0770 O   0  0  0  0  0  0  0  0  0  0  0  0
  191.6710  177.0300  144.1950 C   0  0  0  0  0  2  0  0  0  0  0  0
  191.2230  175.7510  143.4930 C   0  0  1  0  0  3  0  0  0  0  0  0
  187.2620  178.7730  141.3180 C   0  0  1  0  0  3  0  0  0  0  0  0
  188.3810  176.6890  143.9980 N   0  0  2  0  0  0  0  0  0  0  0  0
  189.8330  177.3660  140.5790 C   0  0  1  0  0  3  0  0  0  0  0  0
  190.6500  176.1370  144.8810 C   0  0  2  0  0  3  0  0  0  0  0  0
  189.3690  176.9890  145.0360 C   0  0  2  0  0  3  0  0  0  0  0  0
  189.4440  178.6920  140.3000 O   0  0  0  0  0  0  0  0  0  0  0  0
  192.3260  177.5030  140.4880 C   0  0  0  0  0  3  0  0  0  0  0  0
  191.1350  177.0620  139.9070 C   0  0  0  0  0  0  0  0  0  0  0  0
  191.1740  176.3610  138.6960 C   0  0  0  0  0  3  0  0  0  0  0  0
  192.4630  175.3970  136.8610 N   0  0  0  0  0  1  0  0  0  0  0  0
  193.5550  176.5450  138.6780 N   0  0  0  0  0  0  0  0  0  0  0  0
  192.4070  176.1090  138.0910 C   0  0  0  0  0  0  0  0  0  0  0  0
  193.5400  177.2310  139.8530 C   0  0  0  0  0  3  0  0  0  0  0  0
  188.8070  176.7520  146.4370 C   0  0  0  0  0  2  0  0  0  0  0  0
  189.5270  177.6200  147.4610 C   0  0  0  0  0  0  0  0  0  0  0  0
  188.9540  179.0050  147.6370 C   0  0  0  0  0  2  0  0  0  0  0  0
  188.7320  177.9400  148.7040 C   0  0  0  0  0  2  0  0  0  0  0  0
  191.0320  177.5030  147.6730 C   0  0  0  0  0  2  0  0  0  0  0  0
  191.4640  176.0540  147.8420 C   0  0  0  0  0  2  0  0  0  0  0  0
  192.8470  175.9450  147.6940 O   0  0  0  0  0  1  0  0  0  0  0  0
  185.0420  178.6770  144.5790 O   0  0  0  0  0  0  0  0  0  0  0  0
  183.6860  179.0360  144.7250 C   0  0  0  0  0  0  0  0  0  0  0  0
  182.8790  178.2520  143.9130 F   0  0  0  0  0  0  0  0  0  0  0  0
  183.2800  178.9160  146.0450 F   0  0  0  0  0  0  0  0  0  0  0  0
  183.5390  180.3570  144.3430 F   0  0  0  0  0  0  0  0  0  0  0  0
  1  4  1  0  0  0  0
  1  5  1  0  0  0  0
  2 12  1  0  0  0  0
  3 33  1  0  0  0  0
  4 14  1  0  0  0  0
  5  3  1  0  0  0  0
  5  8  1  0  0  0  0
  6  2  1  0  0  0  0
  6  4  1  0  0  0  0
  7  3  1  0  0  0  0
  9 18  1  0  0  0  0
  9 13  1  0  0  0  0
 10 13  1  0  0  0  0
 10  7  1  0  0  0  0
 11 16  1  0  0  0  0
 12 11  1  0  0  0  0
 12 16  1  0  0  0  0
 13  1  1  0  0  0  0
 14  8  1  0  0  0  0
 14 17  1  0  0  0  0
 15  6  1  0  0  0  0
 16 17  1  0  0  0  0
 17 26  1  0  0  0  0
 18 15  1  0  0  0  0
 20 19  1  0  0  0  0
 20 15  1  0  0  0  0
 21 20  2  0  0  0  0
 22 24  1  0  0  0  0
 23 25  1  0  0  0  0
 24 23  2  0  0  0  0
 24 21  1  0  0  0  0
 25 19  2  0  0  0  0
 26 27  1  0  0  0  0
 27 28  1  0  0  0  0
 27 30  1  0  0  0  0
 27 29  1  0  0  0  0
 28 29  1  0  0  0  0
 30 31  1  0  0  0  0
 32 31  1  0  0  0  0
 33 34  1  0  0  0  0
 34 36  1  0  0  0  0
 35 34  1  0  0  0  0
 37 34  1  0  0  0  0
M  END
>  <MODEL>
6

>  <REMARK>
 VINA RESULT:      -7.4      2.521      5.942
  Name = 
  7 active torsions:
  status: ('A' for Active; 'I' for Inactive)
    1  A    between atoms: C_1  and  C_4
    2  A    between atoms: C_1  and  C_27
    3  A    between atoms: C_2  and  O_22
    4  A    between atoms: C_4  and  C_12
    5  A    between atoms: C_6  and  O_22
    6  A    between atoms: C_8  and  C_12
    7  A    between atoms: C_23  and  C_30
                            x       y       z     vdW  Elec       q    Type
                         _______ _______ _______ _____ _____    ______ ____

>  <TORSDO>
F 7

$$$$
=
 OpenBabel11122411473D

 37 43  0  0  1  0  0  0  0  0999 V2000
  187.0780  178.0970  138.0090 C   0  0  1  0  0  3  0  0  0  0  0  0
  185.3050  179.6220  140.3540 O   0  0  0  0  0  0  0  0  0  0  0  0
  189.4440  177.2360  137.3580 C   0  0  2  0  0  3  0  0  0  0  0  0
  186.6760  177.8940  139.4220 C   0  0  2  0  0  3  0  0  0  0  0  0
  188.5850  178.2310  138.1780 C   0  0  2  0  0  3  0  0  0  0  0  0
  185.2520  178.3520  139.7550 C   0  0  2  0  0  3  0  0  0  0  0  0
  188.6200  176.1460  136.6590 C   0  0  0  0  0  2  0  0  0  0  0  0
  188.8630  178.2150  139.5650 O   0  0  0  0  0  0  0  0  0  0  0  0
  185.1590  177.1150  136.8150 C   0  0  0  0  0  2  0  0  0  0  0  0
  187.4420  176.6850  136.1180 O   0  0  0  0  0  0  0  0  0  0  0  0
  185.3600  178.1840  142.4690 C   0  0  0  0  0  2  0  0  0  0  0  0
  185.3060  179.5460  141.7800 C   0  0  1  0  0  3  0  0  0  0  0  0
  186.6130  176.8820  137.2260 C   0  0  1  0  0  3  0  0  0  0  0  0
  187.6960  178.6150  140.1570 N   0  0  2  0  0  0  0  0  0  0  0  0
  184.2980  178.3110  138.5410 C   0  0  1  0  0  3  0  0  0  0  0  0
  186.6320  179.0120  142.3810 C   0  0  2  0  0  3  0  0  0  0  0  0
  187.6350  178.1750  141.5530 C   0  0  2  0  0  3  0  0  0  0  0  0
  184.3170  177.0350  137.9420 O   0  0  0  0  0  0  0  0  0  0  0  0
  182.2850  179.7840  138.3840 C   0  0  0  0  0  3  0  0  0  0  0  0
  182.9010  178.6640  138.9470 C   0  0  0  0  0  0  0  0  0  0  0  0
  182.2130  177.9000  139.8980 C   0  0  0  0  0  3  0  0  0  0  0  0
  180.2030  177.5020  141.2250 N   0  0  0  0  0  1  0  0  0  0  0  0
  180.3340  179.3620  139.6960 N   0  0  0  0  0  0  0  0  0  0  0  0
  180.9160  178.2690  140.2620 C   0  0  0  0  0  0  0  0  0  0  0  0
  180.9870  180.1200  138.7740 C   0  0  0  0  0  3  0  0  0  0  0  0
  189.0000  178.2580  142.2330 C   0  0  0  0  0  2  0  0  0  0  0  0
  189.0810  177.2860  143.4020 C   0  0  0  0  0  0  0  0  0  0  0  0
  188.3060  176.0030  143.2190 C   0  0  0  0  0  2  0  0  0  0  0  0
  189.8260  176.0030  143.1210 C   0  0  0  0  0  2  0  0  0  0  0  0
  189.1850  177.7870  144.8380 C   0  0  0  0  0  2  0  0  0  0  0  0
  187.8990  177.5390  145.6130 C   0  0  0  0  0  2  0  0  0  0  0  0
  188.1940  177.1280  146.9130 O   0  0  0  0  0  1  0  0  0  0  0  0
  190.4410  176.6420  138.1530 O   0  0  0  0  0  0  0  0  0  0  0  0
  191.5000  176.2480  137.3100 C   0  0  0  0  0  0  0  0  0  0  0  0
  191.6000  174.8650  137.2590 F   0  0  0  0  0  0  0  0  0  0  0  0
  191.3290  176.7530  136.0300 F   0  0  0  0  0  0  0  0  0  0  0  0
  192.6800  176.7540  137.8230 F   0  0  0  0  0  0  0  0  0  0  0  0
  1  5  1  0  0  0  0
  1  4  1  0  0  0  0
  2 12  1  0  0  0  0
  3 33  1  0  0  0  0
  3  5  1  0  0  0  0
  4  6  1  0  0  0  0
  4 14  1  0  0  0  0
  5  8  1  0  0  0  0
  6  2  1  0  0  0  0
  7  3  1  0  0  0  0
  8 14  1  0  0  0  0
  9 13  1  0  0  0  0
  9 18  1  0  0  0  0
 10  7  1  0  0  0  0
 10 13  1  0  0  0  0
 12 16  1  0  0  0  0
 12 11  1  0  0  0  0
 13  1  1  0  0  0  0
 14 17  1  0  0  0  0
 15 20  1  0  0  0  0
 15  6  1  0  0  0  0
 16 11  1  0  0  0  0
 17 26  1  0  0  0  0
 17 16  1  0  0  0  0
 18 15  1  0  0  0  0
 19 25  2  0  0  0  0
 19 20  1  0  0  0  0
 20 21  2  0  0  0  0
 21 24  1  0  0  0  0
 23 24  2  0  0  0  0
 24 22  1  0  0  0  0
 25 23  1  0  0  0  0
 26 27  1  0  0  0  0
 27 30  1  0  0  0  0
 28 27  1  0  0  0  0
 29 28  1  0  0  0  0
 29 27  1  0  0  0  0
 30 31  1  0  0  0  0
 31 32  1  0  0  0  0
 34 37  1  0  0  0  0
 34 33  1  0  0  0  0
 35 34  1  0  0  0  0
 36 34  1  0  0  0  0
M  END
>  <MODEL>
7

>  <REMARK>
 VINA RESULT:      -7.3      4.065      8.222
  Name = 
  7 active torsions:
  status: ('A' for Active; 'I' for Inactive)
    1  A    between atoms: C_1  and  C_4
    2  A    between atoms: C_1  and  C_27
    3  A    between atoms: C_2  and  O_22
    4  A    between atoms: C_4  and  C_12
    5  A    between atoms: C_6  and  O_22
    6  A    between atoms: C_8  and  C_12
    7  A    between atoms: C_23  and  C_30
                            x       y       z     vdW  Elec       q    Type
                         _______ _______ _______ _____ _____    ______ ____

>  <TORSDO>
F 7

$$$$
=
 OpenBabel11122411473D

 37 43  0  0  1  0  0  0  0  0999 V2000
  187.3720  178.0920  138.0420 C   0  0  1  0  0  3  0  0  0  0  0  0
  185.3570  179.6060  140.1910 O   0  0  0  0  0  0  0  0  0  0  0  0
  189.7960  177.2390  137.6420 C   0  0  2  0  0  3  0  0  0  0  0  0
  186.8230  177.8850  139.4050 C   0  0  2  0  0  3  0  0  0  0  0  0
  188.8520  178.2290  138.3690 C   0  0  2  0  0  3  0  0  0  0  0  0
  185.3710  178.3380  139.5870 C   0  0  2  0  0  3  0  0  0  0  0  0
  189.0530  176.1480  136.8590 C   0  0  0  0  0  2  0  0  0  0  0  0
  188.9830  178.2110  139.7780 O   0  0  0  0  0  0  0  0  0  0  0  0
  185.5920  177.1070  136.6520 C   0  0  0  0  0  2  0  0  0  0  0  0
  187.9360  176.6850  136.1970 O   0  0  0  0  0  0  0  0  0  0  0  0
  185.1940  178.1640  142.2970 C   0  0  0  0  0  2  0  0  0  0  0  0
  185.2080  179.5270  141.6090 C   0  0  1  0  0  3  0  0  0  0  0  0
  186.9950  176.8770  137.2120 C   0  0  1  0  0  3  0  0  0  0  0  0
  187.7580  178.6070  140.2450 N   0  0  2  0  0  0  0  0  0  0  0  0
  184.5500  178.2970  138.2800 C   0  0  1  0  0  3  0  0  0  0  0  0
  186.4660  178.9960  142.3450 C   0  0  2  0  0  3  0  0  0  0  0  0
  187.5520  178.1640  141.6250 C   0  0  2  0  0  3  0  0  0  0  0  0
  184.6360  177.0220  137.6830 O   0  0  0  0  0  0  0  0  0  0  0  0
  182.1900  177.6220  138.7430 C   0  0  0  0  0  3  0  0  0  0  0  0
  183.1180  178.6450  138.5370 C   0  0  0  0  0  0  0  0  0  0  0  0
  182.6920  179.9790  138.5540 C   0  0  0  0  0  3  0  0  0  0  0  0
  180.8970  181.6140  138.8050 N   0  0  0  0  0  1  0  0  0  0  0  0
  180.4590  179.2510  138.9850 N   0  0  0  0  0  0  0  0  0  0  0  0
  181.3440  180.2640  138.7830 C   0  0  0  0  0  0  0  0  0  0  0  0
  180.8500  177.9480  138.9700 C   0  0  0  0  0  3  0  0  0  0  0  0
  188.8380  178.2490  142.4450 C   0  0  0  0  0  2  0  0  0  0  0  0
  189.1330  176.9200  143.1270 C   0  0  0  0  0  0  0  0  0  0  0  0
  188.8070  176.8730  144.6000 C   0  0  0  0  0  2  0  0  0  0  0  0
  187.9180  176.1530  143.5930 C   0  0  0  0  0  2  0  0  0  0  0  0
  190.3100  176.0550  142.6900 C   0  0  0  0  0  2  0  0  0  0  0  0
  191.5690  176.3810  143.4810 C   0  0  0  0  0  2  0  0  0  0  0  0
  192.0380  175.2370  144.1290 O   0  0  0  0  0  1  0  0  0  0  0  0
  190.7050  176.6470  138.5370 O   0  0  0  0  0  0  0  0  0  0  0  0
  191.8910  176.3560  137.8310 C   0  0  0  0  0  0  0  0  0  0  0  0
  192.9820  176.9700  138.4270 F   0  0  0  0  0  0  0  0  0  0  0  0
  192.1030  174.9880  137.7620 F   0  0  0  0  0  0  0  0  0  0  0  0
  191.7650  176.8420  136.5430 F   0  0  0  0  0  0  0  0  0  0  0  0
  1  5  1  0  0  0  0
  1  4  1  0  0  0  0
  2 12  1  0  0  0  0
  3  5  1  0  0  0  0
  3 33  1  0  0  0  0
  4  6  1  0  0  0  0
  4 14  1  0  0  0  0
  5  8  1  0  0  0  0
  6  2  1  0  0  0  0
  7  3  1  0  0  0  0
  8 14  1  0  0  0  0
  9 13  1  0  0  0  0
  9 18  1  0  0  0  0
 10  7  1  0  0  0  0
 10 13  1  0  0  0  0
 11 16  1  0  0  0  0
 12 11  1  0  0  0  0
 12 16  1  0  0  0  0
 13  1  1  0  0  0  0
 14 17  1  0  0  0  0
 15 20  1  0  0  0  0
 15  6  1  0  0  0  0
 17 16  1  0  0  0  0
 17 26  1  0  0  0  0
 18 15  1  0  0  0  0
 19 25  1  0  0  0  0
 20 21  1  0  0  0  0
 20 19  2  0  0  0  0
 21 24  2  0  0  0  0
 24 22  1  0  0  0  0
 24 23  1  0  0  0  0
 25 23  2  0  0  0  0
 26 27  1  0  0  0  0
 27 29  1  0  0  0  0
 27 28  1  0  0  0  0
 29 28  1  0  0  0  0
 30 27  1  0  0  0  0
 30 31  1  0  0  0  0
 31 32  1  0  0  0  0
 34 35  1  0  0  0  0
 34 33  1  0  0  0  0
 36 34  1  0  0  0  0
 37 34  1  0  0  0  0
M  END
>  <MODEL>
8

>  <REMARK>
 VINA RESULT:      -7.2      4.077      8.319
  Name = 
  7 active torsions:
  status: ('A' for Active; 'I' for Inactive)
    1  A    between atoms: C_1  and  C_4
    2  A    between atoms: C_1  and  C_27
    3  A    between atoms: C_2  and  O_22
    4  A    between atoms: C_4  and  C_12
    5  A    between atoms: C_6  and  O_22
    6  A    between atoms: C_8  and  C_12
    7  A    between atoms: C_23  and  C_30
                            x       y       z     vdW  Elec       q    Type
                         _______ _______ _______ _____ _____    ______ ____

>  <TORSDO>
F 7

$$$$
=
 OpenBabel11122411473D

 37 43  0  0  1  0  0  0  0  0999 V2000
  185.8120  178.9340  141.1390 C   0  0  1  0  0  3  0  0  0  0  0  0
  189.0360  178.7780  140.3960 O   0  0  0  0  0  0  0  0  0  0  0  0
  183.4110  179.0980  140.1540 C   0  0  2  0  0  3  0  0  0  0  0  0
  186.7560  178.0470  140.4150 C   0  0  2  0  0  3  0  0  0  0  0  0
  184.9250  179.3780  139.9850 C   0  0  2  0  0  3  0  0  0  0  0  0
  188.1400  177.9230  141.0610 C   0  0  2  0  0  3  0  0  0  0  0  0
  183.0810  178.2350  141.3800 C   0  0  0  0  0  2  0  0  0  0  0  0
  185.4740  178.8450  138.7940 O   0  0  0  0  0  0  0  0  0  0  0  0
  186.0240  178.0860  143.4430 C   0  0  0  0  0  2  0  0  0  0  0  0
  183.8630  178.6190  142.4820 O   0  0  0  0  0  0  0  0  0  0  0  0
  189.4490  176.6460  139.0450 C   0  0  0  0  0  2  0  0  0  0  0  0
  189.7680  178.1030  139.3730 C   0  0  1  0  0  3  0  0  0  0  0  0
  185.1280  178.0950  142.2050 C   0  0  1  0  0  3  0  0  0  0  0  0
  186.7930  178.6280  139.0870 N   0  0  2  0  0  0  0  0  0  0  0  0
  188.1260  178.1530  142.5870 C   0  0  1  0  0  3  0  0  0  0  0  0
  188.9190  177.7370  138.1280 C   0  0  2  0  0  3  0  0  0  0  0  0
  187.3770  177.6340  138.1840 C   0  0  2  0  0  3  0  0  0  0  0  0
  187.1770  177.3110  143.2030 O   0  0  0  0  0  0  0  0  0  0  0  0
  190.2490  179.0010  143.5950 C   0  0  0  0  0  3  0  0  0  0  0  0
  189.4800  177.9130  143.1770 C   0  0  0  0  0  0  0  0  0  0  0  0
  189.9940  176.6160  143.2960 C   0  0  0  0  0  3  0  0  0  0  0  0
  191.8040  175.1210  143.9670 N   0  0  0  0  0  1  0  0  0  0  0  0
  191.9980  177.5080  144.2420 N   0  0  0  0  0  0  0  0  0  0  0  0
  191.2680  176.4330  143.8380 C   0  0  0  0  0  0  0  0  0  0  0  0
  191.5190  178.7770  144.1320 C   0  0  0  0  0  3  0  0  0  0  0  0
  186.8400  177.7780  136.7610 C   0  0  0  0  0  2  0  0  0  0  0  0
  186.0450  176.5440  136.3570 C   0  0  0  0  0  0  0  0  0  0  0  0
  186.7500  175.6180  135.3960 C   0  0  0  0  0  2  0  0  0  0  0  0
  186.5940  175.2320  136.8620 C   0  0  0  0  0  2  0  0  0  0  0  0
  184.5270  176.5950  136.2200 C   0  0  0  0  0  2  0  0  0  0  0  0
  183.8420  175.6870  137.2310 C   0  0  0  0  0  2  0  0  0  0  0  0
  182.4570  175.7770  137.0960 O   0  0  0  0  0  1  0  0  0  0  0  0
  182.8660  178.5090  138.9980 O   0  0  0  0  0  0  0  0  0  0  0  0
  181.9450  179.4170  138.4360 C   0  0  0  0  0  0  0  0  0  0  0  0
  181.8490  179.2340  137.0640 F   0  0  0  0  0  0  0  0  0  0  0  0
  180.6940  179.2760  139.0150 F   0  0  0  0  0  0  0  0  0  0  0  0
  182.3930  180.7020  138.6750 F   0  0  0  0  0  0  0  0  0  0  0  0
  1 13  1  0  0  0  0
  2  6  1  0  0  0  0
  3  7  1  0  0  0  0
  4  6  1  0  0  0  0
  4  1  1  0  0  0  0
  5  3  1  0  0  0  0
  5  1  1  0  0  0  0
  6 15  1  0  0  0  0
  7 10  1  0  0  0  0
  8 14  1  0  0  0  0
  8  5  1  0  0  0  0
 11 12  1  0  0  0  0
 12  2  1  0  0  0  0
 13 10  1  0  0  0  0
 13  9  1  0  0  0  0
 14  4  1  0  0  0  0
 15 20  1  0  0  0  0
 15 18  1  0  0  0  0
 16 17  1  0  0  0  0
 16 11  1  0  0  0  0
 16 12  1  0  0  0  0
 17 14  1  0  0  0  0
 18  9  1  0  0  0  0
 19 25  1  0  0  0  0
 20 21  1  0  0  0  0
 20 19  2  0  0  0  0
 21 24  2  0  0  0  0
 24 22  1  0  0  0  0
 24 23  1  0  0  0  0
 25 23  2  0  0  0  0
 26 17  1  0  0  0  0
 27 26  1  0  0  0  0
 27 29  1  0  0  0  0
 28 27  1  0  0  0  0
 28 29  1  0  0  0  0
 30 27  1  0  0  0  0
 30 31  1  0  0  0  0
 32 31  1  0  0  0  0
 33  3  1  0  0  0  0
 34 37  1  0  0  0  0
 34 33  1  0  0  0  0
 34 36  1  0  0  0  0
 35 34  1  0  0  0  0
M  END
>  <MODEL>
9

>  <REMARK>
 VINA RESULT:      -7.1      2.855      4.262
  Name = 
  7 active torsions:
  status: ('A' for Active; 'I' for Inactive)
    1  A    between atoms: C_1  and  C_4
    2  A    between atoms: C_1  and  C_27
    3  A    between atoms: C_2  and  O_22
    4  A    between atoms: C_4  and  C_12
    5  A    between atoms: C_6  and  O_22
    6  A    between atoms: C_8  and  C_12
    7  A    between atoms: C_23  and  C_30
                            x       y       z     vdW  Elec       q    Type
                         _______ _______ _______ _____ _____    ______ ____

>  <TORSDO>
F 7

$$$$
