=
 OpenBabel11122410213D

 30 35  0  0  1  0  0  0  0  0999 V2000
  185.8140  178.5790  142.4370 C   0  0  1  0  0  3  0  0  0  0  0  0
  183.3070  179.0380  142.9340 C   0  0  2  0  0  3  0  0  0  0  0  0
  186.5710  177.9610  146.5980 N   0  0  0  0  0  0  0  0  0  0  0  0
  186.9980  177.7070  142.8980 C   0  0  1  0  0  3  0  0  0  0  0  0
  185.5400  178.2400  140.9850 C   0  0  0  0  0  2  0  0  0  0  0  0
  189.0430  178.4110  139.9250 O   0  0  0  0  0  0  0  0  0  0  0  0
  190.1170  178.3120  143.5990 C   0  0  1  0  0  3  0  0  0  0  0  0
  188.0340  178.3380  140.6790 C   0  0  0  0  0  0  0  0  0  0  0  0
  189.6560  177.9840  145.0200 C   0  0  2  0  0  3  0  0  0  0  0  0
  187.8280  177.3090  146.5370 C   0  0  0  0  0  0  0  0  0  0  0  0
  186.6910  178.7550  140.1310 C   0  0  1  0  0  3  0  0  0  0  0  0
  188.1930  177.9420  142.0610 N   0  0  0  0  0  0  0  0  0  0  0  0
  182.2720  178.8670  144.0530 C   0  0  0  0  0  2  0  0  0  0  0  0
  190.7040  177.3260  145.6830 O   0  0  0  0  0  0  0  0  0  0  0  0
  191.6050  178.1340  143.6540 C   0  0  0  0  0  2  0  0  0  0  0  0
  182.8040  178.4500  141.7730 O   0  0  0  0  0  1  0  0  0  0  0  0
  186.2620  178.1990  145.2320 C   0  0  0  0  0  0  0  0  0  0  0  0
  182.7350  179.4340  145.2580 O   0  0  0  0  0  0  0  0  0  0  0  0
  184.6100  178.3460  143.3640 C   0  0  2  0  0  3  0  0  0  0  0  0
  187.2350  177.8300  144.3930 C   0  0  1  0  0  3  0  0  0  0  0  0
  188.4140  176.8710  147.5620 O   0  0  0  0  0  0  0  0  0  0  0  0
  188.3570  177.1820  145.1480 C   0  0  1  0  0  3  0  0  0  0  0  0
  191.8770  177.8400  145.1110 C   0  0  0  0  0  2  0  0  0  0  0  0
  189.5760  175.9600  142.6530 C   0  0  0  0  0  1  0  0  0  0  0  0
  183.8130  178.6450  145.7010 C   0  0  0  0  0  2  0  0  0  0  0  0
  184.9960  178.8500  144.7600 C   0  0  1  0  0  3  0  0  0  0  0  0
  189.5230  177.4720  142.4600 C   0  0  2  0  0  3  0  0  0  0  0  0
  186.5360  178.2950  138.8200 O   0  0  0  0  0  0  0  0  0  0  0  0
  184.8280  177.4610  137.3950 C   0  0  0  0  0  1  0  0  0  0  0  0
  185.1610  178.3340  138.5850 C   0  0  0  0  0  2  0  0  0  0  0  0
  1  5  1  6  0  0  0
  1  4  1  0  0  0  0
  1 19  1  0  0  0  0
  2 16  1  6  0  0  0
  2 19  1  0  0  0  0
  2 13  1  0  0  0  0
  4 12  1  6  0  0  0
  4 20  1  0  0  0  0
  6  8  2  0  0  0  0
  7 15  1  1  0  0  0
  7  9  1  0  0  0  0
  8 12  1  0  0  0  0
  9 22  1  0  0  0  0
  9 14  1  6  0  0  0
 10  3  1  0  0  0  0
 10 21  2  0  0  0  0
 11 28  1  6  0  0  0
 11  8  1  0  0  0  0
 11  5  1  0  0  0  0
 12 27  1  0  0  0  0
 13 18  1  0  0  0  0
 15 23  1  0  0  0  0
 17  3  2  0  0  0  0
 18 25  1  0  0  0  0
 19 26  1  0  0  0  0
 20 22  1  0  0  0  0
 20 17  1  0  0  0  0
 22 10  1  0  0  0  0
 23 14  1  0  0  0  0
 26 17  1  0  0  0  0
 26 25  1  0  0  0  0
 27 24  1  0  0  0  0
 27  7  1  0  0  0  0
 29 30  1  0  0  0  0
 30 28  1  0  0  0  0
M  END
>  <MODEL>
1

>  <REMARK>
 VINA RESULT:      -9.7      0.000      0.000
  Name = 
  2 active torsions:
  status: ('A' for Active; 'I' for Inactive)
    1  A    between atoms: C_11  and  O_28
    2  A    between atoms: O_28  and  C_30
                            x       y       z     vdW  Elec       q    Type
                         _______ _______ _______ _____ _____    ______ ____

>  <TORSDO>
F 2

$$$$
=
 OpenBabel11122410213D

 30 35  0  0  1  0  0  0  0  0999 V2000
  187.9990  178.1250  140.2070 C   0  0  1  0  0  3  0  0  0  0  0  0
  185.8880  178.8160  138.8630 C   0  0  2  0  0  3  0  0  0  0  0  0
  185.7680  178.2360  143.8510 N   0  0  0  0  0  0  0  0  0  0  0  0
  188.4370  177.2820  141.4220 C   0  0  1  0  0  3  0  0  0  0  0  0
  188.6770  177.5420  138.9830 C   0  0  0  0  0  2  0  0  0  0  0  0
  191.9990  177.3060  140.5120 O   0  0  0  0  0  0  0  0  0  0  0  0
  190.4050  177.8180  143.9560 C   0  0  1  0  0  3  0  0  0  0  0  0
  190.7480  177.4320  140.4070 C   0  0  0  0  0  0  0  0  0  0  0  0
  189.0880  177.7840  144.7330 C   0  0  2  0  0  3  0  0  0  0  0  0
  186.6340  177.5100  144.7060 C   0  0  0  0  0  0  0  0  0  0  0  0
  190.1720  177.8220  139.0660 C   0  0  1  0  0  3  0  0  0  0  0  0
  189.9070  177.2880  141.5740 N   0  0  0  0  0  0  0  0  0  0  0  0
  184.3650  178.9170  139.0190 C   0  0  0  0  0  2  0  0  0  0  0  0
  189.3300  177.1980  145.9860 O   0  0  0  0  0  0  0  0  0  0  0  0
  191.4470  177.5640  145.0040 C   0  0  0  0  0  2  0  0  0  0  0  0
  186.1670  178.0570  137.7260 O   0  0  0  0  0  1  0  0  0  0  0  0
  186.4610  178.2370  142.6120 C   0  0  0  0  0  0  0  0  0  0  0  0
  184.0250  179.6650  140.1630 O   0  0  0  0  0  0  0  0  0  0  0  0
  186.4640  178.1380  140.1160 C   0  0  2  0  0  3  0  0  0  0  0  0
  187.6670  177.6640  142.6740 C   0  0  1  0  0  3  0  0  0  0  0  0
  186.3340  177.2330  145.8980 O   0  0  0  0  0  0  0  0  0  0  0  0
  187.9050  177.0990  144.0420 C   0  0  1  0  0  3  0  0  0  0  0  0
  190.6580  177.5260  146.2920 C   0  0  0  0  0  2  0  0  0  0  0  0
  190.2230  175.3690  143.1260 C   0  0  0  0  0  1  0  0  0  0  0  0
  184.4090  178.9090  141.2860 C   0  0  0  0  0  2  0  0  0  0  0  0
  185.9320  178.8660  141.3560 C   0  0  1  0  0  3  0  0  0  0  0  0
  190.5600  176.8210  142.8000 C   0  0  2  0  0  3  0  0  0  0  0  0
  190.8290  177.1400  138.0390 O   0  0  0  0  0  0  0  0  0  0  0  0
  191.0210  174.8340  137.4970 C   0  0  0  0  0  1  0  0  0  0  0  0
  190.0880  175.9710  137.8530 C   0  0  0  0  0  2  0  0  0  0  0  0
  1  5  1  6  0  0  0
  1  4  1  0  0  0  0
  2 16  1  6  0  0  0
  2 13  1  0  0  0  0
  2 19  1  0  0  0  0
  3 10  1  0  0  0  0
  4 12  1  1  0  0  0
  4 20  1  0  0  0  0
  5 11  1  0  0  0  0
  7  9  1  0  0  0  0
  7 15  1  1  0  0  0
  8  6  2  0  0  0  0
  8 12  1  0  0  0  0
  9 14  1  1  0  0  0
 10 21  2  0  0  0  0
 11 28  1  6  0  0  0
 11  8  1  0  0  0  0
 12 27  1  0  0  0  0
 13 18  1  0  0  0  0
 14 23  1  0  0  0  0
 15 23  1  0  0  0  0
 17 20  1  0  0  0  0
 17  3  2  0  0  0  0
 18 25  1  0  0  0  0
 19  1  1  0  0  0  0
 19 26  1  0  0  0  0
 20 22  1  0  0  0  0
 22 10  1  0  0  0  0
 22  9  1  0  0  0  0
 25 26  1  0  0  0  0
 26 17  1  0  0  0  0
 27 24  1  0  0  0  0
 27  7  1  0  0  0  0
 29 30  1  0  0  0  0
 30 28  1  0  0  0  0
M  END
>  <MODEL>
2

>  <REMARK>
 VINA RESULT:      -9.1      2.065      3.457
  Name = 
  2 active torsions:
  status: ('A' for Active; 'I' for Inactive)
    1  A    between atoms: C_11  and  O_28
    2  A    between atoms: O_28  and  C_30
                            x       y       z     vdW  Elec       q    Type
                         _______ _______ _______ _____ _____    ______ ____

>  <TORSDO>
F 2

$$$$
=
 OpenBabel11122410213D

 30 35  0  0  1  0  0  0  0  0999 V2000
  186.2930  177.8700  144.6810 C   0  0  1  0  0  3  0  0  0  0  0  0
  183.7620  178.4420  144.5990 C   0  0  2  0  0  3  0  0  0  0  0  0
  186.6450  178.6250  140.4890 N   0  0  0  0  0  0  0  0  0  0  0  0
  187.6460  178.2820  144.0690 C   0  0  1  0  0  3  0  0  0  0  0  0
  186.3750  178.1210  146.1740 C   0  0  0  0  0  2  0  0  0  0  0  0
  189.6490  176.5330  146.6080 O   0  0  0  0  0  0  0  0  0  0  0  0
  190.1560  176.6380  142.8140 C   0  0  1  0  0  3  0  0  0  0  0  0
  188.6540  177.0630  146.0420 C   0  0  0  0  0  0  0  0  0  0  0  0
  189.6660  177.2720  141.5120 C   0  0  2  0  0  3  0  0  0  0  0  0
  188.0510  178.7480  140.3660 C   0  0  0  0  0  0  0  0  0  0  0  0
  187.3430  177.1200  146.7910 C   0  0  1  0  0  3  0  0  0  0  0  0
  188.7600  177.5240  144.6760 N   0  0  0  0  0  0  0  0  0  0  0  0
  182.7280  179.1120  143.6830 C   0  0  0  0  0  2  0  0  0  0  0  0
  190.7850  177.5600  140.7130 O   0  0  0  0  0  0  0  0  0  0  0  0
  191.5740  176.2510  142.5130 C   0  0  0  0  0  2  0  0  0  0  0  0
  183.6910  179.0400  145.8570 O   0  0  0  0  0  1  0  0  0  0  0  0
  186.4610  178.3680  141.8730 C   0  0  0  0  0  0  0  0  0  0  0  0
  182.7640  178.5530  142.3900 O   0  0  0  0  0  0  0  0  0  0  0  0
  185.1570  178.6400  143.9870 C   0  0  2  0  0  3  0  0  0  0  0  0
  187.6070  178.2480  142.5510 C   0  0  1  0  0  3  0  0  0  0  0  0
  188.6130  179.0480  139.2790 O   0  0  0  0  0  0  0  0  0  0  0  0
  188.7750  178.5100  141.6490 C   0  0  1  0  0  3  0  0  0  0  0  0
  191.7340  176.5840  141.0490 C   0  0  0  0  0  2  0  0  0  0  0  0
  190.7060  178.8980  143.9570 C   0  0  0  0  0  1  0  0  0  0  0  0
  183.9900  178.9260  141.8090 C   0  0  0  0  0  2  0  0  0  0  0  0
  185.1200  178.1890  142.5220 C   0  0  1  0  0  3  0  0  0  0  0  0
  190.0990  177.5040  144.0790 C   0  0  2  0  0  3  0  0  0  0  0  0
  187.5630  177.4530  148.1300 O   0  0  0  0  0  0  0  0  0  0  0  0
  189.4210  178.6510  149.0010 C   0  0  0  0  0  1  0  0  0  0  0  0
  188.2120  178.6890  148.0910 C   0  0  0  0  0  2  0  0  0  0  0  0
  1  5  1  1  0  0  0
  2 16  1  1  0  0  0
  3 17  2  0  0  0  0
  4 12  1  1  0  0  0
  4  1  1  0  0  0  0
  5 11  1  0  0  0  0
  7 15  1  6  0  0  0
  7 27  1  0  0  0  0
  8  6  2  0  0  0  0
  8 11  1  0  0  0  0
  9 14  1  6  0  0  0
  9 22  1  0  0  0  0
  9  7  1  0  0  0  0
 10  3  1  0  0  0  0
 10 22  1  0  0  0  0
 11 28  1  1  0  0  0
 12  8  1  0  0  0  0
 13  2  1  0  0  0  0
 14 23  1  0  0  0  0
 17 26  1  0  0  0  0
 17 20  1  0  0  0  0
 18 13  1  0  0  0  0
 19  2  1  0  0  0  0
 19  1  1  0  0  0  0
 20  4  1  0  0  0  0
 21 10  2  0  0  0  0
 22 20  1  0  0  0  0
 23 15  1  0  0  0  0
 24 27  1  0  0  0  0
 25 18  1  0  0  0  0
 25 26  1  0  0  0  0
 26 19  1  0  0  0  0
 27 12  1  0  0  0  0
 30 28  1  0  0  0  0
 30 29  1  0  0  0  0
M  END
>  <MODEL>
3

>  <REMARK>
 VINA RESULT:      -8.4      1.624      5.248
  Name = 
  2 active torsions:
  status: ('A' for Active; 'I' for Inactive)
    1  A    between atoms: C_11  and  O_28
    2  A    between atoms: O_28  and  C_30
                            x       y       z     vdW  Elec       q    Type
                         _______ _______ _______ _____ _____    ______ ____

>  <TORSDO>
F 2

$$$$
=
 OpenBabel11122410213D

 30 35  0  0  1  0  0  0  0  0999 V2000
  187.4580  177.5020  143.4290 C   0  0  1  0  0  3  0  0  0  0  0  0
  186.2230  177.8810  145.6800 C   0  0  2  0  0  3  0  0  0  0  0  0
  184.1720  179.2030  141.2890 N   0  0  0  0  0  0  0  0  0  0  0  0
  187.6710  178.1440  142.0430 C   0  0  1  0  0  3  0  0  0  0  0  0
  188.8130  177.4170  144.1020 C   0  0  0  0  0  2  0  0  0  0  0  0
  190.5560  176.0290  141.1930 O   0  0  0  0  0  0  0  0  0  0  0  0
  187.5840  177.0210  138.9920 C   0  0  1  0  0  3  0  0  0  0  0  0
  189.6630  176.5940  141.8820 C   0  0  0  0  0  0  0  0  0  0  0  0
  186.3290  177.8920  138.9160 C   0  0  2  0  0  3  0  0  0  0  0  0
  184.7840  179.4590  140.0370 C   0  0  0  0  0  0  0  0  0  0  0  0
  189.6620  176.3810  143.3770 C   0  0  1  0  0  3  0  0  0  0  0  0
  188.6220  177.3570  141.2300 N   0  0  0  0  0  0  0  0  0  0  0  0
  185.0350  178.6580  146.2630 C   0  0  0  0  0  2  0  0  0  0  0  0
  186.2470  178.4370  137.6250 O   0  0  0  0  0  0  0  0  0  0  0  0
  187.9690  176.8220  137.5560 C   0  0  0  0  0  2  0  0  0  0  0  0
  187.3570  178.1750  146.4380 O   0  0  0  0  0  1  0  0  0  0  0  0
  185.2220  178.6280  142.0530 C   0  0  0  0  0  0  0  0  0  0  0  0
  183.8600  178.4080  145.5260 O   0  0  0  0  0  0  0  0  0  0  0  0
  186.4230  178.3180  144.2210 C   0  0  2  0  0  3  0  0  0  0  0  0
  186.3500  178.4490  141.3580 C   0  0  1  0  0  3  0  0  0  0  0  0
  184.1820  180.0370  139.0940 O   0  0  0  0  0  0  0  0  0  0  0  0
  186.2000  178.9950  139.9710 C   0  0  1  0  0  3  0  0  0  0  0  0
  186.8500  177.4860  136.7890 C   0  0  0  0  0  2  0  0  0  0  0  0
  189.1900  179.0030  139.4530 C   0  0  0  0  0  1  0  0  0  0  0  0
  184.0300  178.9950  144.2580 C   0  0  0  0  0  2  0  0  0  0  0  0
  185.0830  178.2060  143.4860 C   0  0  1  0  0  3  0  0  0  0  0  0
  188.7720  177.5740  139.7890 C   0  0  2  0  0  3  0  0  0  0  0  0
  190.9670  176.4210  143.8750 O   0  0  0  0  0  0  0  0  0  0  0  0
  191.6800  176.3780  146.1410 C   0  0  0  0  0  1  0  0  0  0  0  0
  190.8670  177.1020  145.0900 C   0  0  0  0  0  2  0  0  0  0  0  0
  1  5  1  1  0  0  0
  1 19  1  0  0  0  0
  2 13  1  0  0  0  0
  2 16  1  1  0  0  0
  3 17  2  0  0  0  0
  4 12  1  6  0  0  0
  4  1  1  0  0  0  0
  6  8  2  0  0  0  0
  7 15  1  6  0  0  0
  7 27  1  0  0  0  0
  8 11  1  0  0  0  0
  9 14  1  6  0  0  0
  9  7  1  0  0  0  0
  9 22  1  0  0  0  0
 10  3  1  0  0  0  0
 11 28  1  1  0  0  0
 11  5  1  0  0  0  0
 12  8  1  0  0  0  0
 17 26  1  0  0  0  0
 18 13  1  0  0  0  0
 19  2  1  0  0  0  0
 20  4  1  0  0  0  0
 20 17  1  0  0  0  0
 21 10  2  0  0  0  0
 22 10  1  0  0  0  0
 22 20  1  0  0  0  0
 23 15  1  0  0  0  0
 23 14  1  0  0  0  0
 24 27  1  0  0  0  0
 25 18  1  0  0  0  0
 26 19  1  0  0  0  0
 26 25  1  0  0  0  0
 27 12  1  0  0  0  0
 28 30  1  0  0  0  0
 30 29  1  0  0  0  0
M  END
>  <MODEL>
4

>  <REMARK>
 VINA RESULT:      -8.3      1.869      5.741
  Name = 
  2 active torsions:
  status: ('A' for Active; 'I' for Inactive)
    1  A    between atoms: C_11  and  O_28
    2  A    between atoms: O_28  and  C_30
                            x       y       z     vdW  Elec       q    Type
                         _______ _______ _______ _____ _____    ______ ____

>  <TORSDO>
F 2

$$$$
=
 OpenBabel11122410213D

 30 35  0  0  1  0  0  0  0  0999 V2000
  188.5960  177.3490  145.1520 C   0  0  1  0  0  3  0  0  0  0  0  0
  186.8470  177.8330  147.0070 C   0  0  2  0  0  3  0  0  0  0  0  0
  185.7860  178.4920  142.1410 N   0  0  0  0  0  0  0  0  0  0  0  0
  189.0800  177.8630  143.7820 C   0  0  1  0  0  3  0  0  0  0  0  0
  189.7600  177.4670  146.1160 C   0  0  0  0  0  2  0  0  0  0  0  0
  192.2280  175.9660  143.8620 O   0  0  0  0  0  0  0  0  0  0  0  0
  189.7890  176.4320  140.9480 C   0  0  1  0  0  3  0  0  0  0  0  0
  191.1610  176.5090  144.2600 C   0  0  0  0  0  0  0  0  0  0  0  0
  188.5270  177.1630  140.4890 C   0  0  2  0  0  3  0  0  0  0  0  0
  186.6540  178.6770  141.0360 C   0  0  0  0  0  0  0  0  0  0  0  0
  190.8270  176.4500  145.7320 C   0  0  1  0  0  3  0  0  0  0  0  0
  190.2490  177.0950  143.3040 N   0  0  0  0  0  0  0  0  0  0  0  0
  185.5030  178.5450  147.2100 C   0  0  0  0  0  2  0  0  0  0  0  0
  188.7090  177.5620  139.1550 O   0  0  0  0  0  0  0  0  0  0  0  0
  190.5110  176.1250  139.6700 C   0  0  0  0  0  2  0  0  0  0  0  0
  187.7490  178.3120  147.9570 O   0  0  0  0  0  1  0  0  0  0  0  0
  186.6680  178.1040  143.1840 C   0  0  0  0  0  0  0  0  0  0  0  0
  184.5530  178.1080  146.2660 O   0  0  0  0  0  0  0  0  0  0  0  0
  187.3500  178.1360  145.5870 C   0  0  2  0  0  3  0  0  0  0  0  0
  187.9370  177.9660  142.7870 C   0  0  1  0  0  3  0  0  0  0  0  0
  186.2480  179.0940  139.9180 O   0  0  0  0  0  0  0  0  0  0  0  0
  188.0760  178.3500  141.3450 C   0  0  1  0  0  3  0  0  0  0  0  0
  189.5570  176.5950  138.5970 C   0  0  0  0  0  2  0  0  0  0  0  0
  191.0960  178.5980  141.5110 C   0  0  0  0  0  1  0  0  0  0  0  0
  184.9720  178.5750  145.0060 C   0  0  0  0  0  2  0  0  0  0  0  0
  186.2300  177.8180  144.5910 C   0  0  1  0  0  3  0  0  0  0  0  0
  190.7150  177.1770  141.9170 C   0  0  2  0  0  3  0  0  0  0  0  0
  191.9730  176.6680  146.5000 O   0  0  0  0  0  0  0  0  0  0  0  0
  192.9070  175.8910  148.5420 C   0  0  0  0  0  1  0  0  0  0  0  0
  192.0700  175.5490  147.3280 C   0  0  0  0  0  2  0  0  0  0  0  0
  1 19  1  0  0  0  0
  1  5  1  1  0  0  0
  2 13  1  0  0  0  0
  2 16  1  1  0  0  0
  3 17  2  0  0  0  0
  4 12  1  6  0  0  0
  4  1  1  0  0  0  0
  6  8  2  0  0  0  0
  7 15  1  6  0  0  0
  7 27  1  0  0  0  0
  8 11  1  0  0  0  0
  9 14  1  6  0  0  0
  9  7  1  0  0  0  0
  9 22  1  0  0  0  0
 10 22  1  0  0  0  0
 10  3  1  0  0  0  0
 11  5  1  0  0  0  0
 11 28  1  1  0  0  0
 12  8  1  0  0  0  0
 17 26  1  0  0  0  0
 18 13  1  0  0  0  0
 19  2  1  0  0  0  0
 20 17  1  0  0  0  0
 20  4  1  0  0  0  0
 21 10  2  0  0  0  0
 22 20  1  0  0  0  0
 23 14  1  0  0  0  0
 23 15  1  0  0  0  0
 24 27  1  0  0  0  0
 25 18  1  0  0  0  0
 26 25  1  0  0  0  0
 26 19  1  0  0  0  0
 27 12  1  0  0  0  0
 28 30  1  0  0  0  0
 30 29  1  0  0  0  0
M  END
>  <MODEL>
5

>  <REMARK>
 VINA RESULT:      -8.3      2.049      5.901
  Name = 
  2 active torsions:
  status: ('A' for Active; 'I' for Inactive)
    1  A    between atoms: C_11  and  O_28
    2  A    between atoms: O_28  and  C_30
                            x       y       z     vdW  Elec       q    Type
                         _______ _______ _______ _____ _____    ______ ____

>  <TORSDO>
F 2

$$$$
=
 OpenBabel11122410213D

 30 35  0  0  1  0  0  0  0  0999 V2000
  188.1470  178.2420  141.9910 C   0  0  1  0  0  3  0  0  0  0  0  0
  189.2630  178.1070  144.3310 C   0  0  2  0  0  3  0  0  0  0  0  0
  191.7760  176.9500  140.1380 N   0  0  0  0  0  0  0  0  0  0  0  0
  188.1210  177.5360  140.6210 C   0  0  1  0  0  3  0  0  0  0  0  0
  186.7500  178.1580  142.5710 C   0  0  0  0  0  2  0  0  0  0  0  0
  185.0400  179.2020  139.5030 O   0  0  0  0  0  0  0  0  0  0  0  0
  188.2650  178.5670  137.5390 C   0  0  1  0  0  3  0  0  0  0  0  0
  185.9510  178.7880  140.2710 C   0  0  0  0  0  0  0  0  0  0  0  0
  189.6290  177.8770  137.5800 C   0  0  2  0  0  3  0  0  0  0  0  0
  191.2930  176.5750  138.8590 C   0  0  0  0  0  0  0  0  0  0  0  0
  185.8190  179.0440  141.7530 C   0  0  1  0  0  3  0  0  0  0  0  0
  187.1290  178.1580  139.7180 N   0  0  0  0  0  0  0  0  0  0  0  0
  190.5030  177.5210  145.0190 C   0  0  0  0  0  2  0  0  0  0  0  0
  189.8740  177.3100  136.3190 O   0  0  0  0  0  0  0  0  0  0  0  0
  187.9570  178.6670  136.0750 C   0  0  0  0  0  2  0  0  0  0  0  0
  188.1300  177.6820  145.0240 O   0  0  0  0  0  1  0  0  0  0  0  0
  190.6060  177.3970  140.8080 C   0  0  0  0  0  0  0  0  0  0  0  0
  191.6810  177.9090  144.3510 O   0  0  0  0  0  0  0  0  0  0  0  0
  189.2260  177.6020  142.8800 C   0  0  2  0  0  3  0  0  0  0  0  0
  189.5150  177.3970  140.0360 C   0  0  1  0  0  3  0  0  0  0  0  0
  192.0320  176.0580  137.9800 O   0  0  0  0  0  0  0  0  0  0  0  0
  189.8340  176.8350  138.6830 C   0  0  1  0  0  3  0  0  0  0  0  0
  189.2070  178.1420  135.4090 C   0  0  0  0  0  2  0  0  0  0  0  0
  186.9160  176.3960  137.9740 C   0  0  0  0  0  1  0  0  0  0  0  0
  191.6800  177.2660  143.0990 C   0  0  0  0  0  2  0  0  0  0  0  0
  190.5860  177.8780  142.2290 C   0  0  1  0  0  3  0  0  0  0  0  0
  187.1110  177.8780  138.2790 C   0  0  2  0  0  3  0  0  0  0  0  0
  184.5010  178.8380  142.1670 O   0  0  0  0  0  0  0  0  0  0  0  0
  183.4460  179.0030  144.2900 C   0  0  0  0  0  1  0  0  0  0  0  0
  184.6010  178.4290  143.4980 C   0  0  0  0  0  2  0  0  0  0  0  0
  1  5  1  1  0  0  0
  1 19  1  0  0  0  0
  2 13  1  0  0  0  0
  2 16  1  1  0  0  0
  3 17  2  0  0  0  0
  4 12  1  6  0  0  0
  4  1  1  0  0  0  0
  6  8  2  0  0  0  0
  7 15  1  6  0  0  0
  7  9  1  0  0  0  0
  7 27  1  0  0  0  0
  8 11  1  0  0  0  0
  9 14  1  6  0  0  0
  9 22  1  0  0  0  0
 10  3  1  0  0  0  0
 11 28  1  1  0  0  0
 11  5  1  0  0  0  0
 12  8  1  0  0  0  0
 17 26  1  0  0  0  0
 18 13  1  0  0  0  0
 19  2  1  0  0  0  0
 20  4  1  0  0  0  0
 20 17  1  0  0  0  0
 21 10  2  0  0  0  0
 22 10  1  0  0  0  0
 22 20  1  0  0  0  0
 23 15  1  0  0  0  0
 23 14  1  0  0  0  0
 24 27  1  0  0  0  0
 25 18  1  0  0  0  0
 26 19  1  0  0  0  0
 26 25  1  0  0  0  0
 27 12  1  0  0  0  0
 28 30  1  0  0  0  0
 30 29  1  0  0  0  0
M  END
>  <MODEL>
6

>  <REMARK>
 VINA RESULT:      -8.2      2.490      6.496
  Name = 
  2 active torsions:
  status: ('A' for Active; 'I' for Inactive)
    1  A    between atoms: C_11  and  O_28
    2  A    between atoms: O_28  and  C_30
                            x       y       z     vdW  Elec       q    Type
                         _______ _______ _______ _____ _____    ______ ____

>  <TORSDO>
F 2

$$$$
=
 OpenBabel11122410213D

 30 35  0  0  1  0  0  0  0  0999 V2000
  189.1980  177.2890  143.4380 C   0  0  1  0  0  3  0  0  0  0  0  0
  191.2720  176.5320  144.8030 C   0  0  2  0  0  3  0  0  0  0  0  0
  186.9430  177.7550  147.0390 N   0  0  0  0  0  0  0  0  0  0  0  0
  188.0010  178.2590  143.4940 C   0  0  1  0  0  3  0  0  0  0  0  0
  190.0380  177.6760  142.2370 C   0  0  0  0  0  2  0  0  0  0  0  0
  187.2160  177.9480  139.9160 O   0  0  0  0  0  0  0  0  0  0  0  0
  184.8170  177.9610  142.9000 C   0  0  1  0  0  3  0  0  0  0  0  0
  187.8570  177.8680  141.0000 C   0  0  0  0  0  0  0  0  0  0  0  0
  184.7170  178.1570  144.4130 C   0  0  2  0  0  3  0  0  0  0  0  0
  185.8630  178.5440  146.5670 C   0  0  0  0  0  0  0  0  0  0  0  0
  189.2700  177.3380  140.9660 C   0  0  1  0  0  3  0  0  0  0  0  0
  187.2080  178.2030  142.2480 N   0  0  0  0  0  0  0  0  0  0  0  0
  191.8040  176.5260  146.2430 C   0  0  0  0  0  2  0  0  0  0  0  0
  183.5500  178.8880  144.6870 O   0  0  0  0  0  0  0  0  0  0  0  0
  183.4420  178.2970  142.4030 C   0  0  0  0  0  2  0  0  0  0  0  0
  192.2300  177.1240  143.9810 O   0  0  0  0  0  1  0  0  0  0  0  0
  187.7350  177.5610  145.8760 C   0  0  0  0  0  0  0  0  0  0  0  0
  190.8680  175.9480  147.1230 O   0  0  0  0  0  0  0  0  0  0  0  0
  189.9640  177.3370  144.7700 C   0  0  2  0  0  3  0  0  0  0  0  0
  187.1950  178.0800  144.7690 C   0  0  1  0  0  3  0  0  0  0  0  0
  184.9630  178.9860  147.3290 O   0  0  0  0  0  0  0  0  0  0  0  0
  185.9250  178.8030  145.0990 C   0  0  1  0  0  3  0  0  0  0  0  0
  182.6530  178.5380  143.6680 C   0  0  0  0  0  2  0  0  0  0  0  0
  185.8670  180.2890  142.4530 C   0  0  0  0  0  1  0  0  0  0  0  0
  189.7690  176.8240  147.1960 C   0  0  0  0  0  2  0  0  0  0  0  0
  189.0300  176.8020  145.8610 C   0  0  1  0  0  3  0  0  0  0  0  0
  185.8690  178.7920  142.1550 C   0  0  2  0  0  3  0  0  0  0  0  0
  189.9550  177.8490  139.8610 O   0  0  0  0  0  0  0  0  0  0  0  0
  191.3070  176.3380  138.6230 C   0  0  0  0  0  1  0  0  0  0  0  0
  191.1870  177.1930  139.8660 C   0  0  0  0  0  2  0  0  0  0  0  0
  1  5  1  6  0  0  0
  1  4  1  0  0  0  0
  1 19  1  0  0  0  0
  2 16  1  6  0  0  0
  2 13  1  0  0  0  0
  4 12  1  6  0  0  0
  4 20  1  0  0  0  0
  6  8  2  0  0  0  0
  7 15  1  6  0  0  0
  7  9  1  0  0  0  0
  8 12  1  0  0  0  0
  9 14  1  6  0  0  0
  9 22  1  0  0  0  0
 10  3  1  0  0  0  0
 10 21  2  0  0  0  0
 11 28  1  6  0  0  0
 11  8  1  0  0  0  0
 11  5  1  0  0  0  0
 13 18  1  0  0  0  0
 15 23  1  0  0  0  0
 17  3  2  0  0  0  0
 18 25  1  0  0  0  0
 19  2  1  0  0  0  0
 19 26  1  0  0  0  0
 20 22  1  0  0  0  0
 20 17  1  0  0  0  0
 22 10  1  0  0  0  0
 23 14  1  0  0  0  0
 26 17  1  0  0  0  0
 26 25  1  0  0  0  0
 27 12  1  0  0  0  0
 27 24  1  0  0  0  0
 27  7  1  0  0  0  0
 28 30  1  0  0  0  0
 29 30  1  0  0  0  0
M  END
>  <MODEL>
7

>  <REMARK>
 VINA RESULT:      -7.9      1.706      5.600
  Name = 
  2 active torsions:
  status: ('A' for Active; 'I' for Inactive)
    1  A    between atoms: C_11  and  O_28
    2  A    between atoms: O_28  and  C_30
                            x       y       z     vdW  Elec       q    Type
                         _______ _______ _______ _____ _____    ______ ____

>  <TORSDO>
F 2

$$$$
=
 OpenBabel11122410213D

 30 35  0  0  1  0  0  0  0  0999 V2000
  187.4960  177.9610  141.3100 C   0  0  1  0  0  3  0  0  0  0  0  0
  189.1990  177.7580  143.2580 C   0  0  2  0  0  3  0  0  0  0  0  0
  184.2690  178.2290  144.0990 N   0  0  0  0  0  0  0  0  0  0  0  0
  186.1800  178.6640  140.9220 C   0  0  1  0  0  3  0  0  0  0  0  0
  188.5590  178.4180  140.3310 C   0  0  0  0  0  2  0  0  0  0  0  0
  186.5080  177.9200  137.3360 O   0  0  0  0  0  0  0  0  0  0  0  0
  183.3990  177.6690  139.5580 C   0  0  1  0  0  3  0  0  0  0  0  0
  186.8190  178.0590  138.5500 C   0  0  0  0  0  0  0  0  0  0  0  0
  182.8420  177.9570  140.9520 C   0  0  2  0  0  3  0  0  0  0  0  0
  183.2450  178.7380  143.2610 C   0  0  0  0  0  0  0  0  0  0  0  0
  188.2550  177.8310  138.9590 C   0  0  1  0  0  3  0  0  0  0  0  0
  185.7950  178.3480  139.5300 N   0  0  0  0  0  0  0  0  0  0  0  0
  189.2940  177.9740  144.7750 C   0  0  0  0  0  2  0  0  0  0  0  0
  181.5350  178.4500  140.8120 O   0  0  0  0  0  0  0  0  0  0  0  0
  182.1850  177.6740  138.6780 C   0  0  0  0  0  2  0  0  0  0  0  0
  190.2300  178.4690  142.6450 O   0  0  0  0  0  1  0  0  0  0  0  0
  185.3790  178.1130  143.2210 C   0  0  0  0  0  0  0  0  0  0  0  0
  188.2650  177.2850  145.4470 O   0  0  0  0  0  0  0  0  0  0  0  0
  187.8320  178.2700  142.7770 C   0  0  2  0  0  3  0  0  0  0  0  0
  185.0910  178.4220  141.9530 C   0  0  1  0  0  3  0  0  0  0  0  0
  182.1030  179.0430  143.6950 O   0  0  0  0  0  0  0  0  0  0  0  0
  183.6720  178.8900  141.8400 C   0  0  1  0  0  3  0  0  0  0  0  0
  181.0400  177.8440  139.6490 C   0  0  0  0  0  2  0  0  0  0  0  0
  184.1030  180.1210  139.0990 C   0  0  0  0  0  1  0  0  0  0  0  0
  187.0530  177.9170  145.1130 C   0  0  0  0  0  2  0  0  0  0  0  0
  186.7380  177.6400  143.6460 C   0  0  1  0  0  3  0  0  0  0  0  0
  184.4550  178.6390  139.0120 C   0  0  2  0  0  3  0  0  0  0  0  0
  189.1230  178.3860  138.0150 O   0  0  0  0  0  0  0  0  0  0  0  0
  189.7870  176.8350  136.3420 C   0  0  0  0  0  1  0  0  0  0  0  0
  190.0420  177.3740  137.7330 C   0  0  0  0  0  2  0  0  0  0  0  0
  1  5  1  6  0  0  0
  1 19  1  0  0  0  0
  2 16  1  6  0  0  0
  2 13  1  0  0  0  0
  4 12  1  6  0  0  0
  4  1  1  0  0  0  0
  4 20  1  0  0  0  0
  6  8  2  0  0  0  0
  7 15  1  6  0  0  0
  7  9  1  0  0  0  0
  8 11  1  0  0  0  0
  8 12  1  0  0  0  0
  9 14  1  6  0  0  0
  9 22  1  0  0  0  0
 10 21  2  0  0  0  0
 10  3  1  0  0  0  0
 11 28  1  6  0  0  0
 11  5  1  0  0  0  0
 13 18  1  0  0  0  0
 15 23  1  0  0  0  0
 17 26  1  0  0  0  0
 17  3  2  0  0  0  0
 19  2  1  0  0  0  0
 19 26  1  0  0  0  0
 20 17  1  0  0  0  0
 22 20  1  0  0  0  0
 22 10  1  0  0  0  0
 23 14  1  0  0  0  0
 25 18  1  0  0  0  0
 26 25  1  0  0  0  0
 27 24  1  0  0  0  0
 27 12  1  0  0  0  0
 27  7  1  0  0  0  0
 29 30  1  0  0  0  0
 30 28  1  0  0  0  0
M  END
>  <MODEL>
8

>  <REMARK>
 VINA RESULT:      -7.9      2.176      5.975
  Name = 
  2 active torsions:
  status: ('A' for Active; 'I' for Inactive)
    1  A    between atoms: C_11  and  O_28
    2  A    between atoms: O_28  and  C_30
                            x       y       z     vdW  Elec       q    Type
                         _______ _______ _______ _____ _____    ______ ____

>  <TORSDO>
F 2

$$$$
=
 OpenBabel11122410213D

 30 35  0  0  1  0  0  0  0  0999 V2000
  186.3720  178.1520  141.6810 C   0  0  1  0  0  3  0  0  0  0  0  0
  184.9950  178.6430  139.5360 C   0  0  2  0  0  3  0  0  0  0  0  0
  189.8300  177.2990  139.3190 N   0  0  0  0  0  0  0  0  0  0  0  0
  187.7860  178.3120  142.2730 C   0  0  1  0  0  3  0  0  0  0  0  0
  185.4210  178.9390  142.5600 C   0  0  0  0  0  2  0  0  0  0  0  0
  186.7240  177.6380  145.7280 O   0  0  0  0  0  0  0  0  0  0  0  0
  189.8070  176.3280  143.8740 C   0  0  1  0  0  3  0  0  0  0  0  0
  186.6530  177.9160  144.5000 C   0  0  0  0  0  0  0  0  0  0  0  0
  190.6170  176.4320  142.5810 C   0  0  2  0  0  3  0  0  0  0  0  0
  190.8430  177.3730  140.3080 C   0  0  0  0  0  0  0  0  0  0  0  0
  185.3020  178.2420  143.9100 C   0  0  1  0  0  3  0  0  0  0  0  0
  187.8370  177.8370  143.6730 N   0  0  0  0  0  0  0  0  0  0  0  0
  185.1930  178.9230  138.0400 C   0  0  0  0  0  2  0  0  0  0  0  0
  191.9810  176.4070  142.9110 O   0  0  0  0  0  0  0  0  0  0  0  0
  190.8090  175.8620  144.8880 C   0  0  0  0  0  2  0  0  0  0  0  0
  184.2150  179.6660  140.0770 O   0  0  0  0  0  1  0  0  0  0  0  0
  188.6430  177.5730  140.0490 C   0  0  0  0  0  0  0  0  0  0  0  0
  185.9870  177.9240  137.4430 O   0  0  0  0  0  0  0  0  0  0  0  0
  186.3740  178.6050  140.2120 C   0  0  2  0  0  3  0  0  0  0  0  0
  188.8450  177.7170  141.3620 C   0  0  1  0  0  3  0  0  0  0  0  0
  192.0660  177.2490  140.0360 O   0  0  0  0  0  0  0  0  0  0  0  0
  190.3080  177.6300  141.6760 C   0  0  1  0  0  3  0  0  0  0  0  0
  192.0610  175.6290  144.0740 C   0  0  0  0  0  2  0  0  0  0  0  0
  189.9770  178.8540  144.4340 C   0  0  0  0  0  1  0  0  0  0  0  0
  187.2870  178.0580  137.9640 C   0  0  0  0  0  2  0  0  0  0  0  0
  187.2770  177.6430  139.4320 C   0  0  1  0  0  3  0  0  0  0  0  0
  189.1070  177.6020  144.3640 C   0  0  2  0  0  3  0  0  0  0  0  0
  184.5710  179.0500  144.7850 O   0  0  0  0  0  0  0  0  0  0  0  0
  182.2770  178.7800  144.2290 C   0  0  0  0  0  1  0  0  0  0  0  0
  183.5410  179.5820  144.0080 C   0  0  0  0  0  2  0  0  0  0  0  0
  1  4  1  0  0  0  0
  1  5  1  1  0  0  0
  2 16  1  1  0  0  0
  2 19  1  0  0  0  0
  3 17  2  0  0  0  0
  3 10  1  0  0  0  0
  4 12  1  1  0  0  0
  5 11  1  0  0  0  0
  7 27  1  0  0  0  0
  7 15  1  1  0  0  0
  8  6  2  0  0  0  0
  9 14  1  1  0  0  0
  9  7  1  0  0  0  0
 10 22  1  0  0  0  0
 11  8  1  0  0  0  0
 11 28  1  1  0  0  0
 12 27  1  0  0  0  0
 12  8  1  0  0  0  0
 13  2  1  0  0  0  0
 14 23  1  0  0  0  0
 17 20  1  0  0  0  0
 18 25  1  0  0  0  0
 18 13  1  0  0  0  0
 19  1  1  0  0  0  0
 20 22  1  0  0  0  0
 20  4  1  0  0  0  0
 21 10  2  0  0  0  0
 22  9  1  0  0  0  0
 23 15  1  0  0  0  0
 25 26  1  0  0  0  0
 26 17  1  0  0  0  0
 26 19  1  0  0  0  0
 27 24  1  0  0  0  0
 30 29  1  0  0  0  0
 30 28  1  0  0  0  0
M  END
>  <MODEL>
9

>  <REMARK>
 VINA RESULT:      -7.5      1.770      5.049
  Name = 
  2 active torsions:
  status: ('A' for Active; 'I' for Inactive)
    1  A    between atoms: C_11  and  O_28
    2  A    between atoms: O_28  and  C_30
                            x       y       z     vdW  Elec       q    Type
                         _______ _______ _______ _____ _____    ______ ____

>  <TORSDO>
F 2

$$$$
