=
 OpenBabel11122411353D

 37 43  0  0  1  0  0  0  0  0999 V2000
  184.2490  178.8810  139.5650 C   0  0  0  0  0  2  0  0  0  0  0  0
  183.9600  173.8020  136.7910 C   0  0  0  0  0  0  0  0  0  0  0  0
  181.4790  177.1480  136.5940 C   0  0  0  0  0  0  0  0  0  0  0  0
  185.1480  179.1500  140.7860 C   0  0  1  0  0  3  0  0  0  0  0  0
  180.5620  178.7380  139.6000 C   0  0  0  0  0  2  0  0  0  0  0  0
  181.8430  174.7700  135.8850 C   0  0  0  0  0  0  0  0  0  0  0  0
  181.9470  177.8700  137.6890 C   0  0  0  0  0  0  0  0  0  0  0  0
  183.2900  179.0920  142.3050 C   0  0  1  0  0  3  0  0  0  0  0  0
  182.2020  175.9940  136.5740 C   0  0  0  0  0  0  0  0  0  0  0  0
  181.2650  179.0760  138.2890 C   0  0  1  0  0  3  0  0  0  0  0  0
  180.1880  174.6380  135.1960 S   0  0  0  0  0  0  0  0  0  0  0  0
  184.6240  178.5640  142.0230 N   0  0  0  0  0  2  0  0  0  0  0  0
  183.1290  176.0480  137.5690 C   0  0  0  0  0  0  0  0  0  0  0  0
  185.0510  174.2070  135.8160 C   0  0  0  0  0  1  0  0  0  0  0  0
  179.0630  177.6690  136.5330 C   0  0  0  0  0  2  0  0  0  0  0  0
  180.1240  176.3760  134.5940 C   0  0  0  0  0  2  0  0  0  0  0  0
  183.9150  174.8260  137.9590 C   0  0  0  0  0  2  0  0  0  0  0  0
  182.1890  178.3450  141.5340 C   0  0  1  0  0  3  0  0  0  0  0  0
  181.3530  179.3540  140.7420 C   0  0  0  0  0  2  0  0  0  0  0  0
  180.3120  177.4360  135.6990 C   0  0  2  0  0  3  0  0  0  0  0  0
  182.9790  177.1910  138.2720 N   0  0  0  0  0  0  0  0  0  0  0  0
  182.6360  173.7010  136.0430 C   0  0  0  0  0  3  0  0  0  0  0  0
  180.3350  179.8050  137.3000 C   0  0  1  0  0  3  0  0  0  0  0  0
  184.3060  172.4390  137.3530 C   0  0  0  0  0  1  0  0  0  0  0  0
  182.7040  177.1370  140.7200 C   0  0  0  0  0  2  0  0  0  0  0  0
  183.0360  179.0010  143.6740 O   0  0  0  0  0  1  0  0  0  0  0  0
  183.6410  177.4720  139.5450 C   0  0  2  0  0  3  0  0  0  0  0  0
  178.9780  179.1200  137.0310 C   0  0  0  0  0  2  0  0  0  0  0  0
  179.1440  181.6190  138.5360 C   0  0  0  0  0  3  0  0  0  0  0  0
  180.1680  181.2490  137.6560 C   0  0  0  0  0  0  0  0  0  0  0  0
  180.9950  182.2380  137.1010 C   0  0  0  0  0  3  0  0  0  0  0  0
  181.6460  184.5800  136.8690 N   0  0  0  0  0  1  0  0  0  0  0  0
  179.7840  183.9450  138.3160 C   0  0  0  0  0  3  0  0  0  0  0  0
  180.8040  183.5810  137.4330 C   0  0  0  0  0  0  0  0  0  0  0  0
  178.9540  182.9640  138.8670 C   0  0  0  0  0  3  0  0  0  0  0  0
  186.8130  178.5940  139.1670 O   0  0  0  0  0  1  0  0  0  0  0  0
  186.5480  178.6170  140.5370 C   0  0  0  0  0  2  0  0  0  0  0  0
  1  4  1  0  0  0  0
  2 24  1  0  0  0  0
  2 17  1  0  0  0  0
  3  7  2  0  0  0  0
  4 37  1  6  0  0  0
  4 12  1  0  0  0  0
  5 19  1  0  0  0  0
  6 22  2  0  0  0  0
  6  9  1  0  0  0  0
  7 21  1  0  0  0  0
  7 10  1  0  0  0  0
  8 26  1  1  0  0  0
  9  3  1  0  0  0  0
  9 13  2  0  0  0  0
 10  5  1  1  0  0  0
 11  6  1  0  0  0  0
 12  8  1  0  0  0  0
 13 17  1  0  0  0  0
 13 21  1  0  0  0  0
 14  2  1  0  0  0  0
 15 28  1  0  0  0  0
 16 11  1  0  0  0  0
 18 25  1  6  0  0  0
 18  8  1  0  0  0  0
 19 18  1  0  0  0  0
 20 16  1  6  0  0  0
 20 15  1  0  0  0  0
 20  3  1  0  0  0  0
 21 27  1  0  0  0  0
 22  2  1  0  0  0  0
 23 30  1  1  0  0  0
 23 10  1  0  0  0  0
 27  1  1  6  0  0  0
 27 25  1  0  0  0  0
 28 23  1  0  0  0  0
 29 35  1  0  0  0  0
 30 29  2  0  0  0  0
 31 34  2  0  0  0  0
 31 30  1  0  0  0  0
 32 34  1  0  0  0  0
 33 35  2  0  0  0  0
 34 33  1  0  0  0  0
 36 37  1  0  0  0  0
M  END
>  <MODEL>
1

>  <REMARK>
 VINA RESULT:      -6.1      0.000      0.000
  Name = 
  2 active torsions:
  status: ('A' for Active; 'I' for Inactive)
    1  A    between atoms: CA_4  and  C_37
    2  A    between atoms: C_23  and  C_30
                            x       y       z     vdW  Elec       q    Type
                         _______ _______ _______ _____ _____    ______ ____

>  <TORSDO>
F 2

$$$$
=
 OpenBabel11122411353D

 37 43  0  0  1  0  0  0  0  0999 V2000
  182.5840  178.3760  137.6780 C   0  0  0  0  0  2  0  0  0  0  0  0
  188.3590  178.1280  138.0820 C   0  0  0  0  0  0  0  0  0  0  0  0
  185.6290  175.4080  136.4870 C   0  0  0  0  0  0  0  0  0  0  0  0
  181.7060  179.3900  138.4340 C   0  0  1  0  0  3  0  0  0  0  0  0
  182.6780  174.7380  138.2880 C   0  0  0  0  0  2  0  0  0  0  0  0
  188.0200  175.8560  137.1020 C   0  0  0  0  0  0  0  0  0  0  0  0
  184.4350  175.9490  136.9580 C   0  0  0  0  0  0  0  0  0  0  0  0
  180.9390  177.7310  139.9920 C   0  0  1  0  0  3  0  0  0  0  0  0
  186.6180  176.2050  136.9820 C   0  0  0  0  0  0  0  0  0  0  0  0
  183.0940  175.2560  136.9160 C   0  0  1  0  0  3  0  0  0  0  0  0
  188.4960  174.1450  136.8220 S   0  0  0  0  0  0  0  0  0  0  0  0
  181.5400  179.0580  139.8510 N   0  0  0  0  0  2  0  0  0  0  0  0
  186.0420  177.2350  137.6590 C   0  0  0  0  0  0  0  0  0  0  0  0
  188.5390  179.0660  136.9010 C   0  0  0  0  0  1  0  0  0  0  0  0
  185.2160  172.9710  136.4920 C   0  0  0  0  0  2  0  0  0  0  0  0
  187.3480  173.8870  135.4080 C   0  0  0  0  0  2  0  0  0  0  0  0
  186.8690  178.1480  138.5240 C   0  0  0  0  0  2  0  0  0  0  0  0
  181.9810  176.6040  139.8920 C   0  0  1  0  0  3  0  0  0  0  0  0
  181.5490  175.6110  138.8110 C   0  0  0  0  0  2  0  0  0  0  0  0
  185.8610  174.1270  135.7460 C   0  0  2  0  0  3  0  0  0  0  0  0
  184.7000  177.0870  137.6640 N   0  0  0  0  0  0  0  0  0  0  0  0
  188.8400  176.7360  137.6910 C   0  0  0  0  0  3  0  0  0  0  0  0
  183.0040  174.1680  135.8290 C   0  0  1  0  0  3  0  0  0  0  0  0
  189.2120  178.6350  139.2260 C   0  0  0  0  0  1  0  0  0  0  0  0
  183.4380  177.1060  139.7800 C   0  0  0  0  0  2  0  0  0  0  0  0
  180.2850  177.6460  141.2210 O   0  0  0  0  0  1  0  0  0  0  0  0
  183.7840  177.8720  138.4900 C   0  0  2  0  0  3  0  0  0  0  0  0
  183.7240  172.8410  136.1530 C   0  0  0  0  0  2  0  0  0  0  0  0
  180.8070  175.0400  135.0220 C   0  0  0  0  0  3  0  0  0  0  0  0
  181.5920  173.9400  135.3860 C   0  0  0  0  0  0  0  0  0  0  0  0
  181.0360  172.6520  135.3580 C   0  0  0  0  0  3  0  0  0  0  0  0
  179.1490  171.1610  134.9330 N   0  0  0  0  0  1  0  0  0  0  0  0
  178.9310  173.5690  134.5940 C   0  0  0  0  0  3  0  0  0  0  0  0
  179.7090  172.4680  134.9610 C   0  0  0  0  0  0  0  0  0  0  0  0
  179.4800  174.8550  134.6240 C   0  0  0  0  0  3  0  0  0  0  0  0
  181.3560  181.7340  138.7280 O   0  0  0  0  0  1  0  0  0  0  0  0
  182.2920  180.7860  138.3150 C   0  0  0  0  0  2  0  0  0  0  0  0
  1  4  1  0  0  0  0
  2 17  1  0  0  0  0
  2 24  1  0  0  0  0
  3  7  2  0  0  0  0
  3  9  1  0  0  0  0
  4 37  1  1  0  0  0
  4 12  1  0  0  0  0
  5 19  1  0  0  0  0
  6 22  2  0  0  0  0
  7 21  1  0  0  0  0
  8 26  1  1  0  0  0
  9  6  1  0  0  0  0
  9 13  2  0  0  0  0
 10  7  1  0  0  0  0
 10  5  1  1  0  0  0
 11  6  1  0  0  0  0
 12  8  1  0  0  0  0
 13 21  1  0  0  0  0
 13 17  1  0  0  0  0
 14  2  1  0  0  0  0
 16 11  1  0  0  0  0
 18 19  1  6  0  0  0
 18  8  1  0  0  0  0
 20 16  1  1  0  0  0
 20  3  1  0  0  0  0
 20 15  1  0  0  0  0
 21 27  1  0  0  0  0
 22  2  1  0  0  0  0
 23 30  1  1  0  0  0
 23 28  1  0  0  0  0
 23 10  1  0  0  0  0
 25 18  1  0  0  0  0
 27  1  1  6  0  0  0
 27 25  1  0  0  0  0
 28 15  1  0  0  0  0
 29 30  1  0  0  0  0
 31 30  2  0  0  0  0
 32 34  1  0  0  0  0
 33 35  1  0  0  0  0
 33 34  2  0  0  0  0
 34 31  1  0  0  0  0
 35 29  2  0  0  0  0
 37 36  1  0  0  0  0
M  END
>  <MODEL>
2

>  <REMARK>
 VINA RESULT:      -5.8      3.045      6.571
  Name = 
  2 active torsions:
  status: ('A' for Active; 'I' for Inactive)
    1  A    between atoms: CA_4  and  C_37
    2  A    between atoms: C_23  and  C_30
                            x       y       z     vdW  Elec       q    Type
                         _______ _______ _______ _____ _____    ______ ____

>  <TORSDO>
F 2

$$$$
=
 OpenBabel11122411353D

 37 43  0  0  1  0  0  0  0  0999 V2000
  187.4920  176.2000  137.8570 C   0  0  0  0  0  2  0  0  0  0  0  0
  182.5220  178.9350  139.0390 C   0  0  0  0  0  0  0  0  0  0  0  0
  183.2310  175.2930  137.1350 C   0  0  0  0  0  0  0  0  0  0  0  0
  188.8820  176.8560  137.9460 C   0  0  1  0  0  3  0  0  0  0  0  0
  185.8180  175.1190  134.7520 C   0  0  0  0  0  2  0  0  0  0  0  0
  181.5290  177.0170  137.7830 C   0  0  0  0  0  0  0  0  0  0  0  0
  184.6080  175.3770  136.9410 C   0  0  0  0  0  0  0  0  0  0  0  0
  189.0820  177.0120  135.5580 C   0  0  1  0  0  3  0  0  0  0  0  0
  182.8680  176.4640  137.7290 C   0  0  0  0  0  0  0  0  0  0  0  0
  185.4180  174.4530  136.0640 C   0  0  1  0  0  3  0  0  0  0  0  0
  180.2530  176.2530  136.7740 S   0  0  0  0  0  0  0  0  0  0  0  0
  189.1670  177.7480  136.8190 N   0  0  0  0  0  2  0  0  0  0  0  0
  183.9910  177.1960  137.9600 C   0  0  0  0  0  0  0  0  0  0  0  0
  182.5620  178.5000  140.4940 C   0  0  0  0  0  1  0  0  0  0  0  0
  182.4320  174.0430  135.1580 C   0  0  0  0  0  2  0  0  0  0  0  0
  180.8140  174.5280  137.0830 C   0  0  0  0  0  2  0  0  0  0  0  0
  183.8990  178.6380  138.3810 C   0  0  0  0  0  2  0  0  0  0  0  0
  187.6370  176.8940  135.0460 C   0  0  1  0  0  3  0  0  0  0  0  0
  187.3070  175.4190  134.7990 C   0  0  0  0  0  2  0  0  0  0  0  0
  182.2700  174.2490  136.6540 C   0  0  2  0  0  3  0  0  0  0  0  0
  185.0690  176.5480  137.4710 N   0  0  0  0  0  0  0  0  0  0  0  0
  181.3680  178.2260  138.3390 C   0  0  0  0  0  3  0  0  0  0  0  0
  184.7500  173.0820  135.8420 C   0  0  1  0  0  3  0  0  0  0  0  0
  182.2740  180.4280  138.9950 C   0  0  0  0  0  1  0  0  0  0  0  0
  186.6050  177.6630  135.8990 C   0  0  0  0  0  2  0  0  0  0  0  0
  189.8610  177.6520  134.5940 O   0  0  0  0  0  1  0  0  0  0  0  0
  186.3990  177.1410  137.3330 C   0  0  2  0  0  3  0  0  0  0  0  0
  183.5750  173.0670  134.8410 C   0  0  0  0  0  2  0  0  0  0  0  0
  185.3090  170.7250  135.2340 C   0  0  0  0  0  3  0  0  0  0  0  0
  185.7560  172.0170  135.5340 C   0  0  0  0  0  0  0  0  0  0  0  0
  187.1330  172.2820  135.5720 C   0  0  0  0  0  3  0  0  0  0  0  0
  189.4470  171.5380  135.3390 N   0  0  0  0  0  1  0  0  0  0  0  0
  187.6000  169.9770  134.9970 C   0  0  0  0  0  3  0  0  0  0  0  0
  188.0520  171.2650  135.3010 C   0  0  0  0  0  0  0  0  0  0  0  0
  186.2280  169.7080  134.9630 C   0  0  0  0  0  3  0  0  0  0  0  0
  189.0180  179.0040  138.9810 O   0  0  0  0  0  1  0  0  0  0  0  0
  189.0170  177.6330  139.2430 C   0  0  0  0  0  2  0  0  0  0  0  0
  1  4  1  0  0  0  0
  2 14  1  0  0  0  0
  3  9  1  0  0  0  0
  4 37  1  1  0  0  0
  5 19  1  0  0  0  0
  6 22  2  0  0  0  0
  7  3  2  0  0  0  0
  7 21  1  0  0  0  0
  8 26  1  6  0  0  0
  8 12  1  0  0  0  0
  9  6  1  0  0  0  0
  9 13  2  0  0  0  0
 10  5  1  6  0  0  0
 10  7  1  0  0  0  0
 11 16  1  0  0  0  0
 11  6  1  0  0  0  0
 12  4  1  0  0  0  0
 13 17  1  0  0  0  0
 17  2  1  0  0  0  0
 18 19  1  1  0  0  0
 18  8  1  0  0  0  0
 18 25  1  0  0  0  0
 20 15  1  6  0  0  0
 20 16  1  0  0  0  0
 20  3  1  0  0  0  0
 21 13  1  0  0  0  0
 22  2  1  0  0  0  0
 23 30  1  6  0  0  0
 23 10  1  0  0  0  0
 24  2  1  0  0  0  0
 27 25  1  6  0  0  0
 27 21  1  0  0  0  0
 27  1  1  0  0  0  0
 28 15  1  0  0  0  0
 28 23  1  0  0  0  0
 29 30  1  0  0  0  0
 30 31  2  0  0  0  0
 33 34  2  0  0  0  0
 34 32  1  0  0  0  0
 34 31  1  0  0  0  0
 35 33  1  0  0  0  0
 35 29  2  0  0  0  0
 36 37  1  0  0  0  0
M  END
>  <MODEL>
3

>  <REMARK>
 VINA RESULT:      -5.4      3.228      8.124
  Name = 
  2 active torsions:
  status: ('A' for Active; 'I' for Inactive)
    1  A    between atoms: CA_4  and  C_37
    2  A    between atoms: C_23  and  C_30
                            x       y       z     vdW  Elec       q    Type
                         _______ _______ _______ _____ _____    ______ ____

>  <TORSDO>
F 2

$$$$
=
 OpenBabel11122411353D

 37 43  0  0  1  0  0  0  0  0999 V2000
  183.6000  178.0080  140.2480 C   0  0  0  0  0  2  0  0  0  0  0  0
  179.9860  182.0980  138.3020 C   0  0  0  0  0  0  0  0  0  0  0  0
  180.8830  178.3200  136.7810 C   0  0  0  0  0  0  0  0  0  0  0  0
  184.6720  178.2430  141.3270 C   0  0  1  0  0  3  0  0  0  0  0  0
  184.2540  177.3050  136.6850 C   0  0  0  0  0  2  0  0  0  0  0  0
  179.6720  180.4870  136.4190 C   0  0  0  0  0  0  0  0  0  0  0  0
  181.9980  177.9990  137.5510 C   0  0  0  0  0  0  0  0  0  0  0  0
  186.4540  178.2240  139.7180 C   0  0  1  0  0  3  0  0  0  0  0  0
  180.5120  179.5720  137.1670 C   0  0  0  0  0  0  0  0  0  0  0  0
  182.9310  176.8420  137.2870 C   0  0  1  0  0  3  0  0  0  0  0  0
  179.2730  180.0720  134.7160 S   0  0  0  0  0  0  0  0  0  0  0  0
  185.8440  178.9630  140.8230 N   0  0  0  0  0  2  0  0  0  0  0  0
  181.3200  179.9640  138.1900 C   0  0  0  0  0  0  0  0  0  0  0  0
  178.9320  181.7390  139.3340 C   0  0  0  0  0  1  0  0  0  0  0  0
  181.3500  177.2590  134.5970 C   0  0  0  0  0  2  0  0  0  0  0  0
  179.0410  178.2750  135.0380 C   0  0  0  0  0  2  0  0  0  0  0  0
  181.3200  181.3910  138.6700 C   0  0  0  0  0  2  0  0  0  0  0  0
  185.7570  178.4990  138.3750 C   0  0  1  0  0  3  0  0  0  0  0  0
  185.3370  177.1690  137.7420 C   0  0  0  0  0  2  0  0  0  0  0  0
  180.2810  177.5720  135.6300 C   0  0  2  0  0  3  0  0  0  0  0  0
  182.2470  179.0130  138.4310 N   0  0  0  0  0  0  0  0  0  0  0  0
  179.4770  181.7160  136.9170 C   0  0  0  0  0  3  0  0  0  0  0  0
  182.2820  175.7100  136.4680 C   0  0  1  0  0  3  0  0  0  0  0  0
  180.2020  183.5960  138.3450 C   0  0  0  0  0  1  0  0  0  0  0  0
  184.6470  179.5700  138.4520 C   0  0  0  0  0  2  0  0  0  0  0  0
  187.8010  178.5690  139.6170 O   0  0  0  0  0  1  0  0  0  0  0  0
  183.4140  179.1950  139.2940 C   0  0  2  0  0  3  0  0  0  0  0  0
  182.1280  175.9840  134.9570 C   0  0  0  0  0  2  0  0  0  0  0  0
  182.2070  173.2140  136.5100 C   0  0  0  0  0  3  0  0  0  0  0  0
  182.9350  174.3890  136.7290 C   0  0  0  0  0  0  0  0  0  0  0  0
  184.2480  174.3090  137.2180 C   0  0  0  0  0  3  0  0  0  0  0  0
  186.1600  172.9880  137.9680 N   0  0  0  0  0  1  0  0  0  0  0  0
  184.0990  171.8940  137.2480 C   0  0  0  0  0  3  0  0  0  0  0  0
  184.8280  173.0650  137.4750 C   0  0  0  0  0  0  0  0  0  0  0  0
  182.7890  171.9690  136.7660 C   0  0  0  0  0  3  0  0  0  0  0  0
  184.4270  178.3890  143.6980 O   0  0  0  0  0  1  0  0  0  0  0  0
  184.0820  179.0100  142.4980 C   0  0  0  0  0  2  0  0  0  0  0  0
  1  4  1  0  0  0  0
  2 24  1  0  0  0  0
  2 17  1  0  0  0  0
  2 14  1  0  0  0  0
  3  9  1  0  0  0  0
  3  7  2  0  0  0  0
  4 37  1  1  0  0  0
  5 19  1  0  0  0  0
  6 22  2  0  0  0  0
  6  9  1  0  0  0  0
  7 21  1  0  0  0  0
  8 26  1  6  0  0  0
  8 12  1  0  0  0  0
  9 13  2  0  0  0  0
 10  5  1  6  0  0  0
 10  7  1  0  0  0  0
 11 16  1  0  0  0  0
 11  6  1  0  0  0  0
 12  4  1  0  0  0  0
 13 21  1  0  0  0  0
 13 17  1  0  0  0  0
 15 28  1  0  0  0  0
 16 20  1  0  0  0  0
 18 19  1  1  0  0  0
 18 25  1  0  0  0  0
 18  8  1  0  0  0  0
 20 15  1  6  0  0  0
 20  3  1  0  0  0  0
 21 27  1  0  0  0  0
 22  2  1  0  0  0  0
 23 30  1  6  0  0  0
 23 10  1  0  0  0  0
 27 25  1  6  0  0  0
 27  1  1  0  0  0  0
 28 23  1  0  0  0  0
 29 30  2  0  0  0  0
 29 35  1  0  0  0  0
 30 31  1  0  0  0  0
 31 34  2  0  0  0  0
 33 34  1  0  0  0  0
 34 32  1  0  0  0  0
 35 33  2  0  0  0  0
 37 36  1  0  0  0  0
M  END
>  <MODEL>
4

>  <REMARK>
 VINA RESULT:      -5.1      1.802      6.643
  Name = 
  2 active torsions:
  status: ('A' for Active; 'I' for Inactive)
    1  A    between atoms: CA_4  and  C_37
    2  A    between atoms: C_23  and  C_30
                            x       y       z     vdW  Elec       q    Type
                         _______ _______ _______ _____ _____    ______ ____

>  <TORSDO>
F 2

$$$$
=
 OpenBabel11122411353D

 37 43  0  0  1  0  0  0  0  0999 V2000
  186.1050  176.6330  138.1270 C   0  0  0  0  0  2  0  0  0  0  0  0
  180.6880  174.5940  137.8570 C   0  0  0  0  0  0  0  0  0  0  0  0
  184.2850  172.9240  136.5680 C   0  0  0  0  0  0  0  0  0  0  0  0
  186.4640  178.0940  138.4540 C   0  0  1  0  0  3  0  0  0  0  0  0
  186.5760  174.9820  134.8600 C   0  0  0  0  0  2  0  0  0  0  0  0
  181.7860  172.7190  136.6250 C   0  0  0  0  0  0  0  0  0  0  0  0
  185.1270  174.0280  136.6800 C   0  0  0  0  0  0  0  0  0  0  0  0
  187.0190  178.5850  136.1690 C   0  0  1  0  0  3  0  0  0  0  0  0
  183.0480  173.3620  136.9340 C   0  0  0  0  0  0  0  0  0  0  0  0
  186.5240  174.1150  136.1140 C   0  0  1  0  0  3  0  0  0  0  0  0
  181.7900  171.3640  135.4440 S   0  0  0  0  0  0  0  0  0  0  0  0
  186.2340  179.0050  137.3290 N   0  0  0  0  0  2  0  0  0  0  0  0
  183.1500  174.6590  137.3310 C   0  0  0  0  0  0  0  0  0  0  0  0
  180.7040  174.1940  139.3220 C   0  0  0  0  0  1  0  0  0  0  0  0
  185.1710  171.7030  134.6090 C   0  0  0  0  0  2  0  0  0  0  0  0
  183.3570  170.6200  136.0570 C   0  0  0  0  0  2  0  0  0  0  0  0
  181.9200  175.4950  137.5620 C   0  0  0  0  0  2  0  0  0  0  0  0
  186.3210  177.4770  135.3610 C   0  0  1  0  0  3  0  0  0  0  0  0
  187.2730  176.2880  135.2080 C   0  0  0  0  0  2  0  0  0  0  0  0
  184.5730  171.5680  136.0000 C   0  0  2  0  0  3  0  0  0  0  0  0
  184.4200  175.0880  137.1700 N   0  0  0  0  0  0  0  0  0  0  0  0
  180.6560  173.3370  136.9970 C   0  0  0  0  0  3  0  0  0  0  0  0
  187.1800  172.7370  135.8980 C   0  0  1  0  0  3  0  0  0  0  0  0
  179.4280  175.3940  137.5970 C   0  0  0  0  0  1  0  0  0  0  0  0
  184.9060  177.1260  135.8720 C   0  0  0  0  0  2  0  0  0  0  0  0
  187.2480  179.6830  135.3420 O   0  0  0  0  0  1  0  0  0  0  0  0
  184.8400  176.4860  137.2710 C   0  0  2  0  0  3  0  0  0  0  0  0
  186.6860  171.9490  134.6660 C   0  0  0  0  0  2  0  0  0  0  0  0
  189.4250  172.0480  135.0480 C   0  0  0  0  0  3  0  0  0  0  0  0
  188.6740  172.8200  135.9410 C   0  0  0  0  0  0  0  0  0  0  0  0
  189.3320  173.6320  136.8780 C   0  0  0  0  0  3  0  0  0  0  0  0
  191.3910  174.5010  137.8620 N   0  0  0  0  0  1  0  0  0  0  0  0
  191.4740  172.9060  136.0140 C   0  0  0  0  0  3  0  0  0  0  0  0
  190.7280  173.6760  136.9120 C   0  0  0  0  0  0  0  0  0  0  0  0
  190.8220  172.0920  135.0830 C   0  0  0  0  0  3  0  0  0  0  0  0
  184.9230  179.7030  139.3140 O   0  0  0  0  0  1  0  0  0  0  0  0
  185.6710  178.5750  139.6560 C   0  0  0  0  0  2  0  0  0  0  0  0
  1  4  1  0  0  0  0
  2 14  1  0  0  0  0
  3  7  2  0  0  0  0
  3  9  1  0  0  0  0
  4 37  1  1  0  0  0
  5 19  1  0  0  0  0
  6  9  1  0  0  0  0
  6 22  2  0  0  0  0
  7 21  1  0  0  0  0
  8 26  1  6  0  0  0
  8 12  1  0  0  0  0
  9 13  2  0  0  0  0
 10  5  1  6  0  0  0
 10  7  1  0  0  0  0
 11 16  1  0  0  0  0
 11  6  1  0  0  0  0
 12  4  1  0  0  0  0
 13 17  1  0  0  0  0
 15 28  1  0  0  0  0
 17  2  1  0  0  0  0
 18 19  1  1  0  0  0
 18 25  1  0  0  0  0
 18  8  1  0  0  0  0
 20 15  1  6  0  0  0
 20 16  1  0  0  0  0
 20  3  1  0  0  0  0
 21 27  1  0  0  0  0
 21 13  1  0  0  0  0
 22  2  1  0  0  0  0
 23 30  1  6  0  0  0
 23 10  1  0  0  0  0
 24  2  1  0  0  0  0
 27 25  1  6  0  0  0
 27  1  1  0  0  0  0
 28 23  1  0  0  0  0
 29 35  2  0  0  0  0
 29 30  1  0  0  0  0
 30 31  2  0  0  0  0
 31 34  1  0  0  0  0
 33 34  2  0  0  0  0
 34 32  1  0  0  0  0
 35 33  1  0  0  0  0
 36 37  1  0  0  0  0
M  END
>  <MODEL>
5

>  <REMARK>
 VINA RESULT:      -4.5      4.039      8.188
  Name = 
  2 active torsions:
  status: ('A' for Active; 'I' for Inactive)
    1  A    between atoms: CA_4  and  C_37
    2  A    between atoms: C_23  and  C_30
                            x       y       z     vdW  Elec       q    Type
                         _______ _______ _______ _____ _____    ______ ____

>  <TORSDO>
F 2

$$$$
=
 OpenBabel11122411353D

 37 43  0  0  1  0  0  0  0  0999 V2000
  181.8270  174.1620  137.5780 C   0  0  0  0  0  2  0  0  0  0  0  0
  187.3400  173.5200  135.9140 C   0  0  0  0  0  0  0  0  0  0  0  0
  185.4640  176.6390  137.9500 C   0  0  0  0  0  0  0  0  0  0  0  0
  180.6640  173.2880  137.0750 C   0  0  1  0  0  3  0  0  0  0  0  0
  182.3180  177.7380  136.8090 C   0  0  0  0  0  2  0  0  0  0  0  0
  187.5650  175.8260  136.8480 C   0  0  0  0  0  0  0  0  0  0  0  0
  184.1280  176.2840  137.7740 C   0  0  0  0  0  0  0  0  0  0  0  0
  179.8230  175.0310  135.6530 C   0  0  1  0  0  3  0  0  0  0  0  0
  186.1890  175.6970  137.2860 C   0  0  0  0  0  0  0  0  0  0  0  0
  182.9470  177.1730  138.0780 C   0  0  1  0  0  3  0  0  0  0  0  0
  188.3380  177.4460  136.9450 S   0  0  0  0  0  0  0  0  0  0  0  0
  180.2380  173.6300  135.7150 N   0  0  0  0  0  2  0  0  0  0  0  0
  185.3320  174.7600  136.7940 C   0  0  0  0  0  0  0  0  0  0  0  0
  187.6370  172.5760  137.0660 C   0  0  0  0  0  1  0  0  0  0  0  0
  185.4240  179.1110  137.9320 C   0  0  0  0  0  2  0  0  0  0  0  0
  187.5840  177.8880  138.5640 C   0  0  0  0  0  2  0  0  0  0  0  0
  185.8030  173.7250  135.8090 C   0  0  0  0  0  2  0  0  0  0  0  0
  181.0160  175.9860  135.4750 C   0  0  1  0  0  3  0  0  0  0  0  0
  180.9850  177.0430  136.5830 C   0  0  0  0  0  2  0  0  0  0  0  0
  186.0410  177.8760  138.5680 C   0  0  2  0  0  3  0  0  0  0  0  0
  184.0600  175.1120  137.0760 N   0  0  0  0  0  0  0  0  0  0  0  0
  188.0960  174.8250  136.1320 C   0  0  0  0  0  3  0  0  0  0  0  0
  183.2620  178.2720  139.1110 C   0  0  1  0  0  3  0  0  0  0  0  0
  187.8330  172.8790  134.6340 C   0  0  0  0  0  1  0  0  0  0  0  0
  182.3710  175.2690  135.2890 C   0  0  0  0  0  2  0  0  0  0  0  0
  178.9320  175.2040  134.5940 O   0  0  0  0  0  1  0  0  0  0  0  0
  182.8770  174.4690  136.5030 C   0  0  2  0  0  3  0  0  0  0  0  0
  184.0790  179.4700  138.5830 C   0  0  0  0  0  2  0  0  0  0  0  0
  181.5000  179.9830  139.5700 C   0  0  0  0  0  3  0  0  0  0  0  0
  182.0330  178.7170  139.8420 C   0  0  0  0  0  0  0  0  0  0  0  0
  181.4270  177.9040  140.8120 C   0  0  0  0  0  3  0  0  0  0  0  0
  179.6820  177.5240  142.4770 N   0  0  0  0  0  1  0  0  0  0  0  0
  179.7620  179.6140  141.2160 C   0  0  0  0  0  3  0  0  0  0  0  0
  180.2940  178.3520  141.4950 C   0  0  0  0  0  0  0  0  0  0  0  0
  180.3660  180.4290  140.2540 C   0  0  0  0  0  3  0  0  0  0  0  0
  180.0130  171.0370  136.6130 O   0  0  0  0  0  1  0  0  0  0  0  0
  181.0490  171.8200  137.1220 C   0  0  0  0  0  2  0  0  0  0  0  0
  2 22  1  0  0  0  0
  2 14  1  0  0  0  0
  3 20  1  0  0  0  0
  4 37  1  6  0  0  0
  4  1  1  0  0  0  0
  6 11  1  0  0  0  0
  6  9  1  0  0  0  0
  7  3  2  0  0  0  0
  7 10  1  0  0  0  0
  8 26  1  6  0  0  0
  8 12  1  0  0  0  0
  9  3  1  0  0  0  0
 10  5  1  6  0  0  0
 10 23  1  0  0  0  0
 11 16  1  0  0  0  0
 12  4  1  0  0  0  0
 13 21  1  0  0  0  0
 13  9  2  0  0  0  0
 15 28  1  0  0  0  0
 16 20  1  0  0  0  0
 17  2  1  0  0  0  0
 17 13  1  0  0  0  0
 18 25  1  1  0  0  0
 18  8  1  0  0  0  0
 18 19  1  0  0  0  0
 19  5  1  0  0  0  0
 20 15  1  6  0  0  0
 21  7  1  0  0  0  0
 22  6  2  0  0  0  0
 23 30  1  6  0  0  0
 24  2  1  0  0  0  0
 27 25  1  6  0  0  0
 27 21  1  0  0  0  0
 27  1  1  0  0  0  0
 28 23  1  0  0  0  0
 29 30  2  0  0  0  0
 29 35  1  0  0  0  0
 30 31  1  0  0  0  0
 31 34  2  0  0  0  0
 33 34  1  0  0  0  0
 34 32  1  0  0  0  0
 35 33  2  0  0  0  0
 36 37  1  0  0  0  0
M  END
>  <MODEL>
6

>  <REMARK>
 VINA RESULT:      -4.5      3.828      6.112
  Name = 
  2 active torsions:
  status: ('A' for Active; 'I' for Inactive)
    1  A    between atoms: CA_4  and  C_37
    2  A    between atoms: C_23  and  C_30
                            x       y       z     vdW  Elec       q    Type
                         _______ _______ _______ _____ _____    ______ ____

>  <TORSDO>
F 2

$$$$
=
 OpenBabel11122411353D

 37 43  0  0  1  0  0  0  0  0999 V2000
  186.7580  177.2290  138.8560 C   0  0  0  0  0  2  0  0  0  0  0  0
  181.5470  179.7510  139.1000 C   0  0  0  0  0  0  0  0  0  0  0  0
  182.7850  176.2530  137.1970 C   0  0  0  0  0  0  0  0  0  0  0  0
  188.0720  177.9160  139.2740 C   0  0  1  0  0  3  0  0  0  0  0  0
  185.8200  176.2950  135.4120 C   0  0  0  0  0  2  0  0  0  0  0  0
  180.9170  177.8880  137.5590 C   0  0  0  0  0  0  0  0  0  0  0  0
  184.1670  176.3860  137.3040 C   0  0  0  0  0  0  0  0  0  0  0  0
  188.7640  178.2230  136.9950 C   0  0  1  0  0  3  0  0  0  0  0  0
  182.2580  177.3750  137.7620 C   0  0  0  0  0  0  0  0  0  0  0  0
  185.1790  175.5390  136.5710 C   0  0  1  0  0  3  0  0  0  0  0  0
  179.9140  177.1520  136.2620 S   0  0  0  0  0  0  0  0  0  0  0  0
  188.5520  178.8820  138.2830 N   0  0  0  0  0  2  0  0  0  0  0  0
  183.2780  178.1220  138.2660 C   0  0  0  0  0  0  0  0  0  0  0  0
  181.2970  179.2300  140.5040 C   0  0  0  0  0  1  0  0  0  0  0  0
  182.4690  175.1050  135.0300 C   0  0  0  0  0  2  0  0  0  0  0  0
  180.4640  175.4280  136.5900 C   0  0  0  0  0  2  0  0  0  0  0  0
  183.0420  179.5320  138.7350 C   0  0  0  0  0  2  0  0  0  0  0  0
  187.4650  178.0970  136.1810 C   0  0  1  0  0  3  0  0  0  0  0  0
  187.2530  176.6310  135.7910 C   0  0  0  0  0  2  0  0  0  0  0  0
  181.9870  175.2140  136.4660 C   0  0  2  0  0  3  0  0  0  0  0  0
  184.4590  177.5340  137.9830 N   0  0  0  0  0  0  0  0  0  0  0  0
  180.5960  179.0550  138.1330 C   0  0  0  0  0  3  0  0  0  0  0  0
  184.6280  174.1670  136.1390 C   0  0  1  0  0  3  0  0  0  0  0  0
  181.2550  181.2370  139.0850 C   0  0  0  0  0  1  0  0  0  0  0  0
  186.2460  178.7840  136.8360 C   0  0  0  0  0  2  0  0  0  0  0  0
  189.7030  178.9410  136.2550 O   0  0  0  0  0  1  0  0  0  0  0  0
  185.7640  178.1700  138.1630 C   0  0  2  0  0  3  0  0  0  0  0  0
  183.6910  174.1810  134.9110 C   0  0  0  0  0  2  0  0  0  0  0  0
  185.4350  171.9380  135.3540 C   0  0  0  0  0  3  0  0  0  0  0  0
  185.7160  173.1500  135.9940 C   0  0  0  0  0  0  0  0  0  0  0  0
  187.0000  173.3770  136.5150 C   0  0  0  0  0  3  0  0  0  0  0  0
  189.2930  172.6380  136.9140 N   0  0  0  0  0  1  0  0  0  0  0  0
  187.7080  171.1960  135.7410 C   0  0  0  0  0  3  0  0  0  0  0  0
  187.9930  172.4030  136.3860 C   0  0  0  0  0  0  0  0  0  0  0  0
  186.4300  170.9640  135.2250 C   0  0  0  0  0  3  0  0  0  0  0  0
  188.4300  177.8300  141.6330 O   0  0  0  0  0  1  0  0  0  0  0  0
  187.8990  178.6150  140.6100 C   0  0  0  0  0  2  0  0  0  0  0  0
  1  4  1  0  0  0  0
  2 14  1  0  0  0  0
  3  7  2  0  0  0  0
  3  9  1  0  0  0  0
  4 37  1  1  0  0  0
  5 19  1  0  0  0  0
  6  9  1  0  0  0  0
  6 22  2  0  0  0  0
  7 21  1  0  0  0  0
  8 26  1  6  0  0  0
  8 12  1  0  0  0  0
  9 13  2  0  0  0  0
 10  5  1  6  0  0  0
 10  7  1  0  0  0  0
 11 16  1  0  0  0  0
 11  6  1  0  0  0  0
 12  4  1  0  0  0  0
 13 17  1  0  0  0  0
 17  2  1  0  0  0  0
 18 19  1  1  0  0  0
 18 25  1  0  0  0  0
 18  8  1  0  0  0  0
 20 15  1  6  0  0  0
 20 16  1  0  0  0  0
 20  3  1  0  0  0  0
 21 27  1  0  0  0  0
 21 13  1  0  0  0  0
 22  2  1  0  0  0  0
 23 30  1  6  0  0  0
 23 10  1  0  0  0  0
 24  2  1  0  0  0  0
 27 25  1  6  0  0  0
 27  1  1  0  0  0  0
 28 15  1  0  0  0  0
 28 23  1  0  0  0  0
 29 30  1  0  0  0  0
 30 31  2  0  0  0  0
 33 34  2  0  0  0  0
 34 31  1  0  0  0  0
 34 32  1  0  0  0  0
 35 29  2  0  0  0  0
 35 33  1  0  0  0  0
 37 36  1  0  0  0  0
M  END
>  <MODEL>
7

>  <REMARK>
 VINA RESULT:      -4.4      2.764      7.500
  Name = 
  2 active torsions:
  status: ('A' for Active; 'I' for Inactive)
    1  A    between atoms: CA_4  and  C_37
    2  A    between atoms: C_23  and  C_30
                            x       y       z     vdW  Elec       q    Type
                         _______ _______ _______ _____ _____    ______ ____

>  <TORSDO>
F 2

$$$$
=
 OpenBabel11122411353D

 37 43  0  0  1  0  0  0  0  0999 V2000
  182.5490  176.8510  139.1450 C   0  0  0  0  0  2  0  0  0  0  0  0
  180.7740  171.8520  136.8120 C   0  0  0  0  0  0  0  0  0  0  0  0
  184.4850  173.7490  136.6690 C   0  0  0  0  0  0  0  0  0  0  0  0
  181.6040  177.9170  139.7290 C   0  0  1  0  0  3  0  0  0  0  0  0
  184.5760  177.2210  136.0840 C   0  0  0  0  0  2  0  0  0  0  0  0
  183.0760  171.8470  135.8400 C   0  0  0  0  0  0  0  0  0  0  0  0
  184.1460  175.0000  137.1810 C   0  0  0  0  0  0  0  0  0  0  0  0
  181.8980  179.3710  137.8410 C   0  0  1  0  0  3  0  0  0  0  0  0
  183.3250  173.0360  136.6320 C   0  0  0  0  0  0  0  0  0  0  0  0
  185.0320  176.2220  137.1420 C   0  0  1  0  0  3  0  0  0  0  0  0
  184.2870  171.3860  134.5960 S   0  0  0  0  0  0  0  0  0  0  0  0
  180.9200  178.7020  138.6980 N   0  0  0  0  0  2  0  0  0  0  0  0
  182.3350  173.7950  137.1750 C   0  0  0  0  0  0  0  0  0  0  0  0
  180.8840  171.1270  138.1410 C   0  0  0  0  0  1  0  0  0  0  0  0
  186.2550  174.2490  135.0160 C   0  0  0  0  0  2  0  0  0  0  0  0
  185.7500  171.8140  135.6270 C   0  0  0  0  0  2  0  0  0  0  0  0
  180.8930  173.3830  137.0560 C   0  0  0  0  0  2  0  0  0  0  0  0
  182.4280  178.4500  136.7290 C   0  0  1  0  0  3  0  0  0  0  0  0
  183.9580  178.4180  136.7870 C   0  0  0  0  0  2  0  0  0  0  0  0
  185.7890  173.2840  136.0930 C   0  0  2  0  0  3  0  0  0  0  0  0
  182.8210  175.0100  137.5080 N   0  0  0  0  0  0  0  0  0  0  0  0
  181.8430  171.3210  135.8640 C   0  0  0  0  0  3  0  0  0  0  0  0
  186.5300  175.8850  137.0190 C   0  0  1  0  0  3  0  0  0  0  0  0
  179.4110  171.5590  136.2210 C   0  0  0  0  0  1  0  0  0  0  0  0
  181.7430  177.0670  136.6820 C   0  0  0  0  0  2  0  0  0  0  0  0
  181.3140  180.5000  137.2650 O   0  0  0  0  0  1  0  0  0  0  0  0
  181.9950  176.1540  137.8950 C   0  0  2  0  0  3  0  0  0  0  0  0
  187.0030  175.4480  135.6160 C   0  0  0  0  0  2  0  0  0  0  0  0
  188.2190  177.7010  136.7200 C   0  0  0  0  0  3  0  0  0  0  0  0
  187.3920  176.9710  137.5830 C   0  0  0  0  0  0  0  0  0  0  0  0
  187.4090  177.2500  138.9580 C   0  0  0  0  0  3  0  0  0  0  0  0
  188.2510  178.5340  140.8560 N   0  0  0  0  0  1  0  0  0  0  0  0
  189.0590  178.9830  138.5960 C   0  0  0  0  0  3  0  0  0  0  0  0
  188.2390  178.2540  139.4620 C   0  0  0  0  0  0  0  0  0  0  0  0
  189.0490  178.7060  137.2250 C   0  0  0  0  0  3  0  0  0  0  0  0
  180.1100  178.1860  141.5730 O   0  0  0  0  0  1  0  0  0  0  0  0
  180.5680  177.2660  140.6290 C   0  0  0  0  0  2  0  0  0  0  0  0
  1  4  1  0  0  0  0
  2 17  1  0  0  0  0
  2 14  1  0  0  0  0
  3  7  2  0  0  0  0
  4 37  1  6  0  0  0
  5 19  1  0  0  0  0
  6 22  2  0  0  0  0
  6  9  1  0  0  0  0
  7 21  1  0  0  0  0
  8 26  1  6  0  0  0
  8 12  1  0  0  0  0
  9  3  1  0  0  0  0
  9 13  2  0  0  0  0
 10  5  1  6  0  0  0
 10  7  1  0  0  0  0
 11 16  1  0  0  0  0
 11  6  1  0  0  0  0
 12  4  1  0  0  0  0
 13 21  1  0  0  0  0
 15 28  1  0  0  0  0
 16 20  1  0  0  0  0
 17 13  1  0  0  0  0
 18 25  1  1  0  0  0
 18 19  1  0  0  0  0
 18  8  1  0  0  0  0
 20 15  1  6  0  0  0
 20  3  1  0  0  0  0
 21 27  1  0  0  0  0
 22  2  1  0  0  0  0
 23 10  1  0  0  0  0
 23 30  1  6  0  0  0
 24  2  1  0  0  0  0
 27 25  1  6  0  0  0
 27  1  1  0  0  0  0
 28 23  1  0  0  0  0
 29 35  2  0  0  0  0
 29 30  1  0  0  0  0
 30 31  2  0  0  0  0
 31 34  1  0  0  0  0
 33 34  2  0  0  0  0
 34 32  1  0  0  0  0
 35 33  1  0  0  0  0
 37 36  1  0  0  0  0
M  END
>  <MODEL>
8

>  <REMARK>
 VINA RESULT:      -4.3      2.962      6.306
  Name = 
  2 active torsions:
  status: ('A' for Active; 'I' for Inactive)
    1  A    between atoms: CA_4  and  C_37
    2  A    between atoms: C_23  and  C_30
                            x       y       z     vdW  Elec       q    Type
                         _______ _______ _______ _____ _____    ______ ____

>  <TORSDO>
F 2

$$$$
=
 OpenBabel11122411353D

 37 43  0  0  1  0  0  0  0  0999 V2000
  188.6650  179.0090  139.1980 C   0  0  0  0  0  2  0  0  0  0  0  0
  182.8810  179.3470  139.0840 C   0  0  0  0  0  0  0  0  0  0  0  0
  185.5100  178.8500  142.2840 C   0  0  0  0  0  0  0  0  0  0  0  0
  189.5440  178.7950  137.9530 C   0  0  1  0  0  3  0  0  0  0  0  0
  188.1760  176.5770  141.9300 C   0  0  0  0  0  2  0  0  0  0  0  0
  183.1170  178.9080  141.5320 C   0  0  0  0  0  0  0  0  0  0  0  0
  186.6900  178.5780  141.5970 C   0  0  0  0  0  0  0  0  0  0  0  0
  189.9850  176.5040  138.5220 C   0  0  1  0  0  3  0  0  0  0  0  0
  184.5500  178.9990  141.3280 C   0  0  0  0  0  0  0  0  0  0  0  0
  187.9600  178.0570  142.2260 C   0  0  1  0  0  3  0  0  0  0  0  0
  182.5220  178.2990  143.1140 S   0  0  0  0  0  0  0  0  0  0  0  0
  189.5260  177.4110  137.4710 N   0  0  0  0  0  2  0  0  0  0  0  0
  185.1400  178.9010  140.1060 C   0  0  0  0  0  0  0  0  0  0  0  0
  182.9160  180.8570  138.9280 C   0  0  0  0  0  1  0  0  0  0  0  0
  185.6980  177.4910  144.3400 C   0  0  0  0  0  2  0  0  0  0  0  0
  183.7870  179.1820  144.1150 C   0  0  0  0  0  2  0  0  0  0  0  0
  184.3110  178.7800  138.8560 C   0  0  0  0  0  2  0  0  0  0  0  0
  188.8620  176.1330  139.5060 C   0  0  1  0  0  3  0  0  0  0  0  0
  189.3170  176.4470  140.9340 C   0  0  0  0  0  2  0  0  0  0  0  0
  185.2440  178.8190  143.7580 C   0  0  2  0  0  3  0  0  0  0  0  0
  186.4540  178.6310  140.2530 N   0  0  0  0  0  0  0  0  0  0  0  0
  182.3210  179.0000  140.4580 C   0  0  0  0  0  3  0  0  0  0  0  0
  188.0680  178.3720  143.7300 C   0  0  1  0  0  3  0  0  0  0  0  0
  181.9590  178.7800  138.0250 C   0  0  0  0  0  1  0  0  0  0  0  0
  187.4770  176.6970  139.1180 C   0  0  0  0  0  2  0  0  0  0  0  0
  190.4920  175.3410  137.9430 O   0  0  0  0  0  1  0  0  0  0  0  0
  187.3430  178.2310  139.1620 C   0  0  2  0  0  3  0  0  0  0  0  0
  187.2000  177.4970  144.6600 C   0  0  0  0  0  2  0  0  0  0  0  0
  190.3720  179.3240  143.5740 C   0  0  0  0  0  3  0  0  0  0  0  0
  189.4920  178.4240  144.1870 C   0  0  0  0  0  0  0  0  0  0  0  0
  189.9670  177.5680  145.1930 C   0  0  0  0  0  3  0  0  0  0  0  0
  191.7830  176.7530  146.6070 N   0  0  0  0  0  1  0  0  0  0  0  0
  192.1790  178.5260  144.9740 C   0  0  0  0  0  3  0  0  0  0  0  0
  191.3060  177.6210  145.5860 C   0  0  0  0  0  0  0  0  0  0  0  0
  191.7110  179.3770  143.9690 C   0  0  0  0  0  3  0  0  0  0  0  0
  187.7100  179.7530  136.7610 O   0  0  0  0  0  1  0  0  0  0  0  0
  189.1030  179.7190  136.8310 C   0  0  0  0  0  2  0  0  0  0  0  0
  2 22  1  0  0  0  0
  3 20  1  0  0  0  0
  4 37  1  6  0  0  0
  4  1  1  0  0  0  0
  6 11  1  0  0  0  0
  7 10  1  0  0  0  0
  7  3  2  0  0  0  0
  8 26  1  6  0  0  0
  8 18  1  0  0  0  0
  9  6  1  0  0  0  0
  9  3  1  0  0  0  0
 10  5  1  1  0  0  0
 10 23  1  0  0  0  0
 11 16  1  0  0  0  0
 12  4  1  0  0  0  0
 12  8  1  0  0  0  0
 13 21  1  0  0  0  0
 13  9  2  0  0  0  0
 14  2  1  0  0  0  0
 15 28  1  0  0  0  0
 17  2  1  0  0  0  0
 17 13  1  0  0  0  0
 18 25  1  6  0  0  0
 18 19  1  0  0  0  0
 19  5  1  0  0  0  0
 20 16  1  6  0  0  0
 20 15  1  0  0  0  0
 21  7  1  0  0  0  0
 22  6  2  0  0  0  0
 23 30  1  1  0  0  0
 23 28  1  0  0  0  0
 24  2  1  0  0  0  0
 27 25  1  1  0  0  0
 27  1  1  0  0  0  0
 27 21  1  0  0  0  0
 29 35  2  0  0  0  0
 29 30  1  0  0  0  0
 30 31  2  0  0  0  0
 31 34  1  0  0  0  0
 33 34  2  0  0  0  0
 34 32  1  0  0  0  0
 35 33  1  0  0  0  0
 36 37  1  0  0  0  0
M  END
>  <MODEL>
9

>  <REMARK>
 VINA RESULT:      -3.5      4.168      8.988
  Name = 
  2 active torsions:
  status: ('A' for Active; 'I' for Inactive)
    1  A    between atoms: CA_4  and  C_37
    2  A    between atoms: C_23  and  C_30
                            x       y       z     vdW  Elec       q    Type
                         _______ _______ _______ _____ _____    ______ ____

>  <TORSDO>
F 2

$$$$
