=
 OpenBabel11122411153D

 31 35  0  0  1  0  0  0  0  0999 V2000
  191.2320  176.5100  144.7390 C   0  0  0  0  0  0  0  0  0  0  0  0
  187.5690  177.0620  143.8540 C   0  0  2  0  0  3  0  0  0  0  0  0
  186.9410  177.8850  144.9710 C   0  0  0  0  0  0  0  0  0  0  0  0
  186.9350  178.5870  147.3040 C   0  0  0  0  0  0  0  0  0  0  0  0
  189.0760  177.1480  143.8250 C   0  0  0  0  0  0  0  0  0  0  0  0
  191.8750  177.3170  143.7960 C   0  0  0  0  0  3  0  0  0  0  0  0
  187.5370  177.9070  146.2430 C   0  0  0  0  0  3  0  0  0  0  0  0
  187.5650  178.6780  141.9030 C   0  0  2  0  0  3  0  0  0  0  0  0
  192.0320  175.7450  145.7310 C   0  0  0  0  0  1  0  0  0  0  0  0
  184.9900  178.5500  143.4680 C   0  0  0  0  0  2  0  0  0  0  0  0
  187.5480  178.6110  148.5490 O   0  0  0  0  0  1  0  0  0  0  0  0
  188.9930  178.6270  141.8890 O   0  0  0  0  0  0  0  0  0  0  0  0
  186.9760  177.3740  142.4650 C   0  0  2  0  0  3  0  0  0  0  0  0
  189.8370  176.4240  144.7520 C   0  0  0  0  0  3  0  0  0  0  0  0
  185.7170  179.2380  147.1130 C   0  0  0  0  0  3  0  0  0  0  0  0
  189.7270  177.9480  142.8670 C   0  0  0  0  0  0  0  0  0  0  0  0
  191.1220  178.0310  142.8590 C   0  0  0  0  0  3  0  0  0  0  0  0
  185.4500  177.4240  142.5470 C   0  0  0  0  0  2  0  0  0  0  0  0
  185.6850  178.5160  144.7970 C   0  0  0  0  0  0  0  0  0  0  0  0
  185.0960  179.2030  145.8630 C   0  0  0  0  0  3  0  0  0  0  0  0
  188.4260  177.2740  139.5790 O   0  0  0  0  0  0  0  0  0  0  0  0
  187.5460  178.1650  139.4290 C   0  0  0  0  0  0  0  0  0  0  0  0
  187.0760  178.9120  140.5520 N   0  0  0  0  0  2  0  0  0  0  0  0
  187.8060  176.6160  135.9730 N   0  0  0  0  0  0  0  0  0  0  0  0
  186.0850  177.3290  137.5700 C   0  0  0  0  0  2  0  0  0  0  0  0
  188.9810  179.7270  137.5340 O   0  0  0  0  0  1  0  0  0  0  0  0
  188.5060  175.5340  135.5600 O   0  0  0  0  0  1  0  0  0  0  0  0
  186.9220  176.1620  137.0440 C   0  0  0  0  0  2  0  0  0  0  0  0
  188.0600  178.8100  137.0240 C   0  0  2  0  0  3  0  0  0  0  0  0
  186.9850  178.4640  138.0680 C   0  0  2  0  0  3  0  0  0  0  0  0
  188.7770  177.5520  136.5380 C   0  0  0  0  0  2  0  0  0  0  0  0
  1 14  1  0  0  0  0
  1  9  1  0  0  0  0
  2  5  1  6  0  0  0
  2  3  1  0  0  0  0
  3  7  1  0  0  0  0
  4 11  1  0  0  0  0
  5 14  2  0  0  0  0
  6  1  2  0  0  0  0
  7  4  2  0  0  0  0
  8 23  1  6  0  0  0
  8 13  1  0  0  0  0
 10 19  1  0  0  0  0
 12  8  1  0  0  0  0
 12 16  1  0  0  0  0
 13 18  1  1  0  0  0
 13  2  1  0  0  0  0
 15  4  1  0  0  0  0
 16  5  1  0  0  0  0
 17 16  2  0  0  0  0
 17  6  1  0  0  0  0
 18 10  1  0  0  0  0
 19  3  2  0  0  0  0
 19 20  1  0  0  0  0
 20 15  2  0  0  0  0
 22 21  2  0  0  0  0
 22 23  1  0  0  0  0
 24 31  1  0  0  0  0
 24 28  1  0  0  0  0
 25 30  1  0  0  0  0
 27 24  1  0  0  0  0
 28 25  1  0  0  0  0
 29 26  1  1  0  0  0
 29 30  1  0  0  0  0
 30 22  1  1  0  0  0
 31 29  1  0  0  0  0
M  END
>  <MODEL>
1

>  <REMARK>
 VINA RESULT:      -9.5      0.000      0.000
  Name = 
  2 active torsions:
  status: ('A' for Active; 'I' for Inactive)
    1  A    between atoms: C_5  and  C_30
    2  A    between atoms: C_10  and  N_16
                            x       y       z     vdW  Elec       q    Type
                         _______ _______ _______ _____ _____    ______ ____

>  <TORSDO>
F 2

$$$$
=
 OpenBabel11122411153D

 31 35  0  0  1  0  0  0  0  0999 V2000
  189.9440  176.2210  142.7400 C   0  0  0  0  0  0  0  0  0  0  0  0
  186.3450  177.2720  143.4050 C   0  0  2  0  0  3  0  0  0  0  0  0
  186.3090  177.9770  144.7540 C   0  0  0  0  0  0  0  0  0  0  0  0
  187.2760  178.3150  146.9650 C   0  0  0  0  0  0  0  0  0  0  0  0
  187.7280  177.2060  142.8030 C   0  0  0  0  0  0  0  0  0  0  0  0
  190.3060  177.0910  141.7080 C   0  0  0  0  0  3  0  0  0  0  0  0
  187.3310  177.7450  145.6910 C   0  0  0  0  0  3  0  0  0  0  0  0
  185.8630  179.1560  141.7810 C   0  0  2  0  0  3  0  0  0  0  0  0
  190.9290  175.2370  143.2620 C   0  0  0  0  0  1  0  0  0  0  0  0
  184.0650  179.0570  144.2010 C   0  0  0  0  0  2  0  0  0  0  0  0
  188.3030  178.0880  147.8700 O   0  0  0  0  0  1  0  0  0  0  0  0
  187.1580  178.9620  141.2100 O   0  0  0  0  0  0  0  0  0  0  0  0
  185.3340  177.8490  142.3940 C   0  0  2  0  0  3  0  0  0  0  0  0
  188.6580  176.2770  143.2840 C   0  0  0  0  0  3  0  0  0  0  0  0
  186.1890  179.1080  147.3270 C   0  0  0  0  0  3  0  0  0  0  0  0
  188.0910  178.0720  141.7530 C   0  0  0  0  0  0  0  0  0  0  0  0
  189.3780  178.0120  141.2120 C   0  0  0  0  0  3  0  0  0  0  0  0
  183.9740  178.0420  143.0650 C   0  0  0  0  0  2  0  0  0  0  0  0
  185.1910  178.7520  145.1460 C   0  0  0  0  0  0  0  0  0  0  0  0
  185.1510  179.3260  146.4200 C   0  0  0  0  0  3  0  0  0  0  0  0
  185.2520  177.7990  139.3530 O   0  0  0  0  0  0  0  0  0  0  0  0
  184.6820  178.9050  139.5620 C   0  0  0  0  0  0  0  0  0  0  0  0
  184.9490  179.6400  140.7560 N   0  0  0  0  0  2  0  0  0  0  0  0
  180.9700  178.5570  138.8440 N   0  0  0  0  0  0  0  0  0  0  0  0
  182.6360  180.3170  139.2310 C   0  0  0  0  0  2  0  0  0  0  0  0
  184.0640  177.5290  137.1510 O   0  0  0  0  0  1  0  0  0  0  0  0
  180.0340  177.8090  139.4720 O   0  0  0  0  0  1  0  0  0  0  0  0
  181.5620  179.4260  139.8580 C   0  0  0  0  0  2  0  0  0  0  0  0
  183.0940  178.4060  137.6400 C   0  0  2  0  0  3  0  0  0  0  0  0
  183.7200  179.4710  138.5570 C   0  0  2  0  0  3  0  0  0  0  0  0
  181.9980  177.6320  138.3690 C   0  0  0  0  0  2  0  0  0  0  0  0
  1  9  1  0  0  0  0
  1 14  1  0  0  0  0
  2  5  1  6  0  0  0
  2  3  1  0  0  0  0
  3 19  2  0  0  0  0
  3  7  1  0  0  0  0
  4 15  1  0  0  0  0
  4 11  1  0  0  0  0
  5 14  2  0  0  0  0
  6  1  2  0  0  0  0
  7  4  2  0  0  0  0
  8 23  1  6  0  0  0
  8 13  1  0  0  0  0
 10 19  1  0  0  0  0
 12 16  1  0  0  0  0
 12  8  1  0  0  0  0
 13 18  1  1  0  0  0
 13  2  1  0  0  0  0
 16  5  1  0  0  0  0
 17  6  1  0  0  0  0
 17 16  2  0  0  0  0
 18 10  1  0  0  0  0
 19 20  1  0  0  0  0
 20 15  2  0  0  0  0
 21 22  2  0  0  0  0
 22 23  1  0  0  0  0
 24 27  1  0  0  0  0
 24 28  1  0  0  0  0
 25 28  1  0  0  0  0
 29 26  1  1  0  0  0
 29 31  1  0  0  0  0
 29 30  1  0  0  0  0
 30 25  1  0  0  0  0
 30 22  1  1  0  0  0
 31 24  1  0  0  0  0
M  END
>  <MODEL>
2

>  <REMARK>
 VINA RESULT:      -8.9      2.988      3.671
  Name = 
  2 active torsions:
  status: ('A' for Active; 'I' for Inactive)
    1  A    between atoms: C_5  and  C_30
    2  A    between atoms: C_10  and  N_16
                            x       y       z     vdW  Elec       q    Type
                         _______ _______ _______ _____ _____    ______ ____

>  <TORSDO>
F 2

$$$$
=
 OpenBabel11122411153D

 31 35  0  0  1  0  0  0  0  0999 V2000
  189.2190  177.1090  141.6390 C   0  0  0  0  0  0  0  0  0  0  0  0
  186.6530  177.2440  144.4490 C   0  0  2  0  0  3  0  0  0  0  0  0
  187.3720  177.7000  145.7120 C   0  0  0  0  0  0  0  0  0  0  0  0
  189.4340  177.8800  146.9970 C   0  0  0  0  0  0  0  0  0  0  0  0
  187.4060  177.5730  143.1820 C   0  0  0  0  0  0  0  0  0  0  0  0
  188.8260  178.1890  140.8450 C   0  0  0  0  0  3  0  0  0  0  0  0
  188.7650  177.5460  145.8180 C   0  0  0  0  0  3  0  0  0  0  0  0
  185.1520  179.2150  143.9210 C   0  0  2  0  0  3  0  0  0  0  0  0
  190.3950  176.2880  141.2470 C   0  0  0  0  0  1  0  0  0  0  0  0
  185.1630  178.3490  146.8100 C   0  0  0  0  0  2  0  0  0  0  0  0
  190.8120  177.7370  147.0760 O   0  0  0  0  0  1  0  0  0  0  0  0
  185.8640  179.3970  142.6950 O   0  0  0  0  0  0  0  0  0  0  0  0
  185.1970  177.7450  144.3670 C   0  0  2  0  0  3  0  0  0  0  0  0
  188.5100  176.8000  142.8020 C   0  0  0  0  0  3  0  0  0  0  0  0
  188.7170  178.3540  148.0950 C   0  0  0  0  0  3  0  0  0  0  0  0
  187.0030  178.6530  142.3730 C   0  0  0  0  0  0  0  0  0  0  0  0
  187.7160  178.9570  141.2100 C   0  0  0  0  0  3  0  0  0  0  0  0
  184.4940  177.5320  145.7080 C   0  0  0  0  0  2  0  0  0  0  0  0
  186.6490  178.1450  146.8450 C   0  0  0  0  0  0  0  0  0  0  0  0
  187.3300  178.4870  148.0170 C   0  0  0  0  0  3  0  0  0  0  0  0
  183.2950  178.0920  142.0780 O   0  0  0  0  0  0  0  0  0  0  0  0
  182.8910  179.0380  142.8090 C   0  0  0  0  0  0  0  0  0  0  0  0
  183.7730  179.6500  143.7500 N   0  0  0  0  0  2  0  0  0  0  0  0
  179.4990  177.5010  142.0710 N   0  0  0  0  0  0  0  0  0  0  0  0
  180.5750  178.9140  143.7640 C   0  0  0  0  0  2  0  0  0  0  0  0
  181.7670  179.7890  140.3070 O   0  0  0  0  0  1  0  0  0  0  0  0
  179.1720  176.2170  141.7940 O   0  0  0  0  0  1  0  0  0  0  0  0
  180.1720  177.4920  143.3680 C   0  0  0  0  0  2  0  0  0  0  0  0
  180.8750  179.3670  141.2950 C   0  0  2  0  0  3  0  0  0  0  0  0
  181.4800  179.5400  142.6990 C   0  0  2  0  0  3  0  0  0  0  0  0
  180.4600  177.9180  141.0520 C   0  0  0  0  0  2  0  0  0  0  0  0
  1 14  1  0  0  0  0
  2  5  1  6  0  0  0
  2  3  1  0  0  0  0
  3  7  2  0  0  0  0
  3 19  1  0  0  0  0
  4 11  1  0  0  0  0
  4 15  2  0  0  0  0
  6 17  1  0  0  0  0
  6  1  2  0  0  0  0
  7  4  1  0  0  0  0
  8 23  1  6  0  0  0
  8 13  1  0  0  0  0
  9  1  1  0  0  0  0
 10 19  1  0  0  0  0
 12  8  1  0  0  0  0
 13  2  1  0  0  0  0
 13 18  1  1  0  0  0
 14  5  2  0  0  0  0
 16 12  1  0  0  0  0
 16  5  1  0  0  0  0
 17 16  2  0  0  0  0
 18 10  1  0  0  0  0
 19 20  2  0  0  0  0
 20 15  1  0  0  0  0
 21 22  2  0  0  0  0
 22 23  1  0  0  0  0
 24 28  1  0  0  0  0
 27 24  1  0  0  0  0
 28 25  1  0  0  0  0
 29 26  1  6  0  0  0
 29 30  1  0  0  0  0
 30 22  1  6  0  0  0
 30 25  1  0  0  0  0
 31 29  1  0  0  0  0
 31 24  1  0  0  0  0
M  END
>  <MODEL>
3

>  <REMARK>
 VINA RESULT:      -8.2      3.718      5.513
  Name = 
  2 active torsions:
  status: ('A' for Active; 'I' for Inactive)
    1  A    between atoms: C_5  and  C_30
    2  A    between atoms: C_10  and  N_16
                            x       y       z     vdW  Elec       q    Type
                         _______ _______ _______ _____ _____    ______ ____

>  <TORSDO>
F 2

$$$$
=
 OpenBabel11122411153D

 31 35  0  0  1  0  0  0  0  0999 V2000
  183.7980  178.9180  143.1880 C   0  0  0  0  0  0  0  0  0  0  0  0
  183.0410  177.8710  139.6060 C   0  0  2  0  0  3  0  0  0  0  0  0
  182.1070  178.9130  139.0050 C   0  0  0  0  0  0  0  0  0  0  0  0
  180.4130  180.6350  139.3220 C   0  0  0  0  0  0  0  0  0  0  0  0
  183.7810  178.3650  140.8260 C   0  0  0  0  0  0  0  0  0  0  0  0
  185.1370  179.3030  143.0930 C   0  0  0  0  0  3  0  0  0  0  0  0
  181.3360  179.7310  139.8500 C   0  0  0  0  0  3  0  0  0  0  0  0
  185.1870  178.2350  138.3110 C   0  0  2  0  0  3  0  0  0  0  0  0
  183.0890  179.0120  144.4920 C   0  0  0  0  0  1  0  0  0  0  0  0
  182.6780  178.1520  136.6390 C   0  0  0  0  0  2  0  0  0  0  0  0
  179.6730  181.4460  140.1720 O   0  0  0  0  0  1  0  0  0  0  0  0
  185.8330  178.6020  139.5310 O   0  0  0  0  0  0  0  0  0  0  0  0
  184.0200  177.2710  138.5770 C   0  0  2  0  0  3  0  0  0  0  0  0
  183.1220  178.4480  142.0590 C   0  0  0  0  0  3  0  0  0  0  0  0
  180.2320  180.7220  137.9430 C   0  0  0  0  0  3  0  0  0  0  0  0
  185.1350  178.7400  140.7360 C   0  0  0  0  0  0  0  0  0  0  0  0
  185.8060  179.2090  141.8680 C   0  0  0  0  0  3  0  0  0  0  0  0
  183.2730  176.9090  137.2930 C   0  0  0  0  0  2  0  0  0  0  0  0
  181.8870  178.9810  137.6080 C   0  0  0  0  0  0  0  0  0  0  0  0
  180.9680  179.8970  137.0890 C   0  0  0  0  0  3  0  0  0  0  0  0
  187.1500  179.6420  136.8010 O   0  0  0  0  0  0  0  0  0  0  0  0
  187.1200  178.3860  136.6920 C   0  0  0  0  0  0  0  0  0  0  0  0
  186.1570  177.6200  137.4150 N   0  0  0  0  0  2  0  0  0  0  0  0
  188.2330  174.7920  136.1810 N   0  0  0  0  0  0  0  0  0  0  0  0
  187.3780  176.6820  134.8690 C   0  0  0  0  0  2  0  0  0  0  0  0
  189.7880  177.8410  137.5130 O   0  0  0  0  0  1  0  0  0  0  0  0
  187.8410  173.6660  136.8210 O   0  0  0  0  0  1  0  0  0  0  0  0
  187.0260  175.3970  135.6200 C   0  0  0  0  0  2  0  0  0  0  0  0
  189.2400  176.9890  136.5520 C   0  0  2  0  0  3  0  0  0  0  0  0
  188.0910  177.6740  135.7930 C   0  0  2  0  0  3  0  0  0  0  0  0
  188.7690  175.6900  137.2010 C   0  0  0  0  0  2  0  0  0  0  0  0
  1  9  1  0  0  0  0
  2  3  1  6  0  0  0
  2  5  1  0  0  0  0
  3  7  1  0  0  0  0
  4  7  2  0  0  0  0
  4 11  1  0  0  0  0
  5 14  1  0  0  0  0
  6  1  1  0  0  0  0
  8 23  1  6  0  0  0
  8 13  1  0  0  0  0
  8 12  1  0  0  0  0
 10 18  1  0  0  0  0
 10 19  1  0  0  0  0
 12 16  1  0  0  0  0
 13 18  1  6  0  0  0
 13  2  1  0  0  0  0
 14  1  2  0  0  0  0
 15  4  1  0  0  0  0
 16  5  2  0  0  0  0
 16 17  1  0  0  0  0
 17  6  2  0  0  0  0
 19  3  2  0  0  0  0
 20 19  1  0  0  0  0
 20 15  2  0  0  0  0
 22 21  2  0  0  0  0
 22 23  1  0  0  0  0
 24 27  1  0  0  0  0
 24 31  1  0  0  0  0
 25 28  1  0  0  0  0
 25 30  1  0  0  0  0
 28 24  1  0  0  0  0
 29 31  1  0  0  0  0
 29 26  1  1  0  0  0
 30 29  1  0  0  0  0
 30 22  1  1  0  0  0
M  END
>  <MODEL>
4

>  <REMARK>
 VINA RESULT:      -7.9      4.005      6.441
  Name = 
  2 active torsions:
  status: ('A' for Active; 'I' for Inactive)
    1  A    between atoms: C_5  and  C_30
    2  A    between atoms: C_10  and  N_16
                            x       y       z     vdW  Elec       q    Type
                         _______ _______ _______ _____ _____    ______ ____

>  <TORSDO>
F 2

$$$$
=
 OpenBabel11122411153D

 31 35  0  0  1  0  0  0  0  0999 V2000
  184.9570  178.4460  138.7190 C   0  0  0  0  0  0  0  0  0  0  0  0
  188.6840  178.1520  139.4410 C   0  0  2  0  0  3  0  0  0  0  0  0
  188.8420  177.4770  140.7980 C   0  0  0  0  0  0  0  0  0  0  0  0
  187.9310  176.9620  142.9980 C   0  0  0  0  0  0  0  0  0  0  0  0
  187.3260  177.9320  138.8200 C   0  0  0  0  0  0  0  0  0  0  0  0
  184.7950  177.5160  137.6900 C   0  0  0  0  0  3  0  0  0  0  0  0
  187.7810  177.5020  141.7180 C   0  0  0  0  0  3  0  0  0  0  0  0
  189.5630  176.3960  137.8410 C   0  0  2  0  0  3  0  0  0  0  0  0
  183.7860  179.2130  139.2190 C   0  0  0  0  0  1  0  0  0  0  0  0
  191.2660  176.8720  140.2840 C   0  0  0  0  0  2  0  0  0  0  0  0
  186.8660  176.9810  143.8870 O   0  0  0  0  0  1  0  0  0  0  0  0
  188.2640  176.3200  137.2510 O   0  0  0  0  0  0  0  0  0  0  0  0
  189.8060  177.7870  138.4490 C   0  0  2  0  0  3  0  0  0  0  0  0
  186.2190  178.6560  139.2810 C   0  0  0  0  0  3  0  0  0  0  0  0
  189.1510  176.4080  143.3820 C   0  0  0  0  0  3  0  0  0  0  0  0
  187.1620  177.0050  137.7730 C   0  0  0  0  0  0  0  0  0  0  0  0
  185.8980  176.8000  137.2150 C   0  0  0  0  0  3  0  0  0  0  0  0
  191.1670  177.8780  139.1410 C   0  0  0  0  0  2  0  0  0  0  0  0
  190.0880  176.9470  141.2110 C   0  0  0  0  0  0  0  0  0  0  0  0
  190.2250  176.4000  142.4900 C   0  0  0  0  0  3  0  0  0  0  0  0
  191.4330  174.2530  137.9680 O   0  0  0  0  0  0  0  0  0  0  0  0
  191.4760  175.0040  136.9560 C   0  0  0  0  0  0  0  0  0  0  0  0
  190.5710  176.1020  136.8330 N   0  0  0  0  0  2  0  0  0  0  0  0
  194.5620  172.8350  136.5280 N   0  0  0  0  0  0  0  0  0  0  0  0
  192.4470  173.3130  135.3790 C   0  0  0  0  0  2  0  0  0  0  0  0
  193.9300  176.4390  136.8530 O   0  0  0  0  0  1  0  0  0  0  0  0
  195.1410  171.9730  137.3970 O   0  0  0  0  0  1  0  0  0  0  0  0
  193.1810  172.3910  136.3560 C   0  0  0  0  0  2  0  0  0  0  0  0
  193.9140  175.1770  136.2550 C   0  0  2  0  0  3  0  0  0  0  0  0
  192.4830  174.7640  135.8680 C   0  0  2  0  0  3  0  0  0  0  0  0
  194.5510  174.1430  137.1810 C   0  0  0  0  0  2  0  0  0  0  0  0
  1  9  1  0  0  0  0
  1 14  1  0  0  0  0
  2  5  1  6  0  0  0
  2  3  1  0  0  0  0
  3 19  2  0  0  0  0
  3  7  1  0  0  0  0
  4 15  1  0  0  0  0
  4 11  1  0  0  0  0
  5 14  2  0  0  0  0
  6  1  2  0  0  0  0
  7  4  2  0  0  0  0
  8 23  1  6  0  0  0
  8 13  1  0  0  0  0
 10 19  1  0  0  0  0
 12 16  1  0  0  0  0
 12  8  1  0  0  0  0
 13 18  1  1  0  0  0
 13  2  1  0  0  0  0
 16  5  1  0  0  0  0
 17  6  1  0  0  0  0
 17 16  2  0  0  0  0
 18 10  1  0  0  0  0
 19 20  1  0  0  0  0
 20 15  2  0  0  0  0
 22 21  2  0  0  0  0
 23 22  1  0  0  0  0
 24 31  1  0  0  0  0
 24 27  1  0  0  0  0
 25 30  1  0  0  0  0
 25 28  1  0  0  0  0
 28 24  1  0  0  0  0
 29 26  1  1  0  0  0
 29 31  1  0  0  0  0
 30 29  1  0  0  0  0
 30 22  1  1  0  0  0
M  END
>  <MODEL>
5

>  <REMARK>
 VINA RESULT:      -7.2      3.806      6.621
  Name = 
  2 active torsions:
  status: ('A' for Active; 'I' for Inactive)
    1  A    between atoms: C_5  and  C_30
    2  A    between atoms: C_10  and  N_16
                            x       y       z     vdW  Elec       q    Type
                         _______ _______ _______ _____ _____    ______ ____

>  <TORSDO>
F 2

$$$$
=
 OpenBabel11122411153D

 31 35  0  0  1  0  0  0  0  0999 V2000
  190.5770  176.9400  139.7720 C   0  0  0  0  0  0  0  0  0  0  0  0
  187.9540  177.0040  142.5320 C   0  0  2  0  0  3  0  0  0  0  0  0
  188.6410  177.4530  143.8150 C   0  0  0  0  0  0  0  0  0  0  0  0
  190.6740  177.6450  145.1430 C   0  0  0  0  0  0  0  0  0  0  0  0
  188.7270  177.3590  141.2850 C   0  0  0  0  0  0  0  0  0  0  0  0
  190.1840  178.0250  138.9840 C   0  0  0  0  0  3  0  0  0  0  0  0
  190.0330  177.3170  143.9460 C   0  0  0  0  0  3  0  0  0  0  0  0
  186.4360  178.9600  141.9990 C   0  0  2  0  0  3  0  0  0  0  0  0
  191.7720  176.1410  139.3930 C   0  0  0  0  0  1  0  0  0  0  0  0
  186.4010  178.0560  144.8760 C   0  0  0  0  0  2  0  0  0  0  0  0
  192.0520  177.5200  145.2480 O   0  0  0  0  0  1  0  0  0  0  0  0
  187.1690  179.1680  140.7900 O   0  0  0  0  0  0  0  0  0  0  0  0
  186.4930  177.4850  142.4270 C   0  0  2  0  0  3  0  0  0  0  0  0
  189.8490  176.6070  140.9170 C   0  0  0  0  0  3  0  0  0  0  0  0
  189.9290  178.0950  146.2320 C   0  0  0  0  0  3  0  0  0  0  0  0
  188.3240  178.4430  140.4810 C   0  0  0  0  0  0  0  0  0  0  0  0
  189.0550  178.7720  139.3360 C   0  0  0  0  0  3  0  0  0  0  0  0
  185.7660  177.2450  143.7510 C   0  0  0  0  0  2  0  0  0  0  0  0
  187.8890  177.8730  144.9390 C   0  0  0  0  0  0  0  0  0  0  0  0
  188.5420  178.2090  146.1280 C   0  0  0  0  0  3  0  0  0  0  0  0
  184.7870  178.2100  139.8020 O   0  0  0  0  0  0  0  0  0  0  0  0
  184.2800  178.9580  140.6820 C   0  0  0  0  0  0  0  0  0  0  0  0
  185.0540  179.3770  141.8060 N   0  0  0  0  0  2  0  0  0  0  0  0
  181.2470  177.9660  138.6250 N   0  0  0  0  0  0  0  0  0  0  0  0
  181.8680  178.3340  140.9710 C   0  0  0  0  0  2  0  0  0  0  0  0
  183.5020  180.8640  138.7190 O   0  0  0  0  0  1  0  0  0  0  0  0
  181.1160  176.9970  137.6890 O   0  0  0  0  0  1  0  0  0  0  0  0
  181.6960  177.3070  139.8500 C   0  0  0  0  0  2  0  0  0  0  0  0
  182.5140  179.9860  139.1680 C   0  0  2  0  0  3  0  0  0  0  0  0
  182.8580  179.4280  140.5600 C   0  0  2  0  0  3  0  0  0  0  0  0
  182.3090  178.8560  138.1610 C   0  0  0  0  0  2  0  0  0  0  0  0
  1 14  1  0  0  0  0
  2  5  1  6  0  0  0
  2  3  1  0  0  0  0
  3  7  2  0  0  0  0
  3 19  1  0  0  0  0
  4 11  1  0  0  0  0
  4 15  2  0  0  0  0
  6 17  1  0  0  0  0
  6  1  2  0  0  0  0
  7  4  1  0  0  0  0
  8 23  1  6  0  0  0
  8 13  1  0  0  0  0
  9  1  1  0  0  0  0
 10 19  1  0  0  0  0
 12  8  1  0  0  0  0
 13  2  1  0  0  0  0
 13 18  1  1  0  0  0
 14  5  2  0  0  0  0
 16 12  1  0  0  0  0
 16  5  1  0  0  0  0
 17 16  2  0  0  0  0
 18 10  1  0  0  0  0
 19 20  2  0  0  0  0
 20 15  1  0  0  0  0
 21 22  2  0  0  0  0
 22 23  1  0  0  0  0
 24 28  1  0  0  0  0
 27 24  1  0  0  0  0
 28 25  1  0  0  0  0
 29 26  1  6  0  0  0
 29 30  1  0  0  0  0
 30 22  1  6  0  0  0
 30 25  1  0  0  0  0
 31 24  1  0  0  0  0
 31 29  1  0  0  0  0
M  END
>  <MODEL>
6

>  <REMARK>
 VINA RESULT:      -7.2      3.287      4.442
  Name = 
  2 active torsions:
  status: ('A' for Active; 'I' for Inactive)
    1  A    between atoms: C_5  and  C_30
    2  A    between atoms: C_10  and  N_16
                            x       y       z     vdW  Elec       q    Type
                         _______ _______ _______ _____ _____    ______ ____

>  <TORSDO>
F 2

$$$$
=
 OpenBabel11122411153D

 31 35  0  0  1  0  0  0  0  0999 V2000
  190.4320  177.4450  141.3470 C   0  0  0  0  0  0  0  0  0  0  0  0
  190.6050  175.6490  137.9940 C   0  0  2  0  0  3  0  0  0  0  0  0
  189.8920  176.5160  136.9650 C   0  0  0  0  0  0  0  0  0  0  0  0
  188.2260  178.2210  136.4600 C   0  0  0  0  0  0  0  0  0  0  0  0
  191.0160  176.4080  139.2330 C   0  0  0  0  0  0  0  0  0  0  0  0
  191.7610  177.8370  141.5260 C   0  0  0  0  0  3  0  0  0  0  0  0
  188.9520  177.4720  137.3890 C   0  0  0  0  0  3  0  0  0  0  0  0
  193.0250  175.7900  137.2580 C   0  0  2  0  0  3  0  0  0  0  0  0
  189.4110  177.7910  142.3700 C   0  0  0  0  0  1  0  0  0  0  0  0
  191.0380  175.2900  135.0440 C   0  0  0  0  0  2  0  0  0  0  0  0
  187.3150  179.1720  136.8980 O   0  0  0  0  0  1  0  0  0  0  0  0
  193.3400  176.4220  138.4990 O   0  0  0  0  0  0  0  0  0  0  0  0
  191.8010  174.8720  137.4060 C   0  0  2  0  0  3  0  0  0  0  0  0
  190.0610  176.7310  140.2050 C   0  0  0  0  0  3  0  0  0  0  0  0
  188.4140  178.0100  135.0950 C   0  0  0  0  0  3  0  0  0  0  0  0
  192.3570  176.7910  139.4230 C   0  0  0  0  0  0  0  0  0  0  0  0
  192.7230  177.5050  140.5670 C   0  0  0  0  0  3  0  0  0  0  0  0
  191.4040  174.2280  136.0770 C   0  0  0  0  0  2  0  0  0  0  0  0
  190.0460  176.2830  135.5770 C   0  0  0  0  0  0  0  0  0  0  0  0
  189.3220  177.0450  134.6560 C   0  0  0  0  0  3  0  0  0  0  0  0
  195.1640  176.8310  135.6930 O   0  0  0  0  0  0  0  0  0  0  0  0
  195.2190  175.6140  136.0180 C   0  0  0  0  0  0  0  0  0  0  0  0
  194.1760  175.0260  136.7960 N   0  0  0  0  0  2  0  0  0  0  0  0
  196.5540  172.1750  136.9180 N   0  0  0  0  0  0  0  0  0  0  0  0
  195.9020  173.4590  134.9310 C   0  0  0  0  0  2  0  0  0  0  0  0
  197.6910  175.6310  137.4250 O   0  0  0  0  0  1  0  0  0  0  0  0
  196.0890  171.2740  137.8140 O   0  0  0  0  0  1  0  0  0  0  0  0
  195.4590  172.4460  135.9880 C   0  0  0  0  0  2  0  0  0  0  0  0
  197.3790  174.4680  136.7170 C   0  0  2  0  0  3  0  0  0  0  0  0
  196.3760  174.7590  135.5870 C   0  0  2  0  0  3  0  0  0  0  0  0
  196.8410  173.3990  137.6650 C   0  0  0  0  0  2  0  0  0  0  0  0
  1  6  1  0  0  0  0
  1  9  1  0  0  0  0
  2  3  1  6  0  0  0
  2  5  1  0  0  0  0
  3  7  1  0  0  0  0
  4 11  1  0  0  0  0
  4  7  2  0  0  0  0
  5 16  2  0  0  0  0
  5 14  1  0  0  0  0
  8 23  1  1  0  0  0
  8 13  1  0  0  0  0
  8 12  1  0  0  0  0
 10 19  1  0  0  0  0
 10 18  1  0  0  0  0
 12 16  1  0  0  0  0
 13 18  1  6  0  0  0
 13  2  1  0  0  0  0
 14  1  2  0  0  0  0
 15  4  1  0  0  0  0
 16 17  1  0  0  0  0
 17  6  2  0  0  0  0
 19  3  2  0  0  0  0
 20 15  2  0  0  0  0
 20 19  1  0  0  0  0
 21 22  2  0  0  0  0
 22 23  1  0  0  0  0
 24 31  1  0  0  0  0
 24 27  1  0  0  0  0
 25 30  1  0  0  0  0
 25 28  1  0  0  0  0
 28 24  1  0  0  0  0
 29 26  1  1  0  0  0
 29 31  1  0  0  0  0
 30 22  1  1  0  0  0
 30 29  1  0  0  0  0
M  END
>  <MODEL>
7

>  <REMARK>
 VINA RESULT:      -7.1      5.516      8.668
  Name = 
  2 active torsions:
  status: ('A' for Active; 'I' for Inactive)
    1  A    between atoms: C_5  and  C_30
    2  A    between atoms: C_10  and  N_16
                            x       y       z     vdW  Elec       q    Type
                         _______ _______ _______ _____ _____    ______ ____

>  <TORSDO>
F 2

$$$$
=
 OpenBabel11122411153D

 31 35  0  0  1  0  0  0  0  0999 V2000
  189.0500  177.9550  143.9950 C   0  0  0  0  0  0  0  0  0  0  0  0
  186.9230  178.8600  140.9690 C   0  0  2  0  0  3  0  0  0  0  0  0
  187.3930  178.0050  139.7990 C   0  0  0  0  0  0  0  0  0  0  0  0
  189.1640  176.7270  138.7190 C   0  0  0  0  0  0  0  0  0  0  0  0
  187.3390  178.3120  142.3130 C   0  0  0  0  0  0  0  0  0  0  0  0
  188.1280  177.2790  144.7960 C   0  0  0  0  0  3  0  0  0  0  0  0
  188.6820  177.4450  139.8160 C   0  0  0  0  0  3  0  0  0  0  0  0
  184.6140  177.9320  141.4440 C   0  0  2  0  0  3  0  0  0  0  0  0
  190.4540  178.1220  144.4560 C   0  0  0  0  0  1  0  0  0  0  0  0
  185.2210  178.4340  138.5320 C   0  0  0  0  0  2  0  0  0  0  0  0
  190.4340  176.1690  138.7610 O   0  0  0  0  0  1  0  0  0  0  0  0
  185.0690  177.5290  142.7360 O   0  0  0  0  0  0  0  0  0  0  0  0
  185.4090  179.1470  140.9380 C   0  0  2  0  0  3  0  0  0  0  0  0
  188.6570  178.4720  142.7580 C   0  0  0  0  0  3  0  0  0  0  0  0
  188.3720  176.5750  137.5820 C   0  0  0  0  0  3  0  0  0  0  0  0
  186.4070  177.6420  143.1290 C   0  0  0  0  0  0  0  0  0  0  0  0
  186.8060  177.1270  144.3650 C   0  0  0  0  0  3  0  0  0  0  0  0
  184.9830  179.5630  139.5300 C   0  0  0  0  0  2  0  0  0  0  0  0
  186.6120  177.8780  138.6250 C   0  0  0  0  0  0  0  0  0  0  0  0
  187.0990  177.1480  137.5370 C   0  0  0  0  0  3  0  0  0  0  0  0
  182.5940  176.7210  139.8440 O   0  0  0  0  0  0  0  0  0  0  0  0
  182.2310  177.5950  140.6780 C   0  0  0  0  0  0  0  0  0  0  0  0
  183.1940  178.2470  141.5060 N   0  0  0  0  0  2  0  0  0  0  0  0
  179.1150  177.2300  138.5400 N   0  0  0  0  0  0  0  0  0  0  0  0
  179.8790  176.7370  140.8190 C   0  0  0  0  0  2  0  0  0  0  0  0
  181.2250  180.0360  139.6190 O   0  0  0  0  0  1  0  0  0  0  0  0
  178.9660  176.6750  137.3140 O   0  0  0  0  0  1  0  0  0  0  0  0
  179.6800  176.1940  139.4030 C   0  0  0  0  0  2  0  0  0  0  0  0
  180.3150  178.9850  139.7480 C   0  0  2  0  0  3  0  0  0  0  0  0
  180.7830  177.9730  140.8080 C   0  0  2  0  0  3  0  0  0  0  0  0
  180.0970  178.3030  138.3990 C   0  0  0  0  0  2  0  0  0  0  0  0
  1  9  1  0  0  0  0
  1  6  1  0  0  0  0
  2  3  1  6  0  0  0
  2  5  1  0  0  0  0
  3  7  1  0  0  0  0
  4 11  1  0  0  0  0
  4  7  2  0  0  0  0
  5 14  1  0  0  0  0
  5 16  2  0  0  0  0
  8 23  1  1  0  0  0
  8 12  1  0  0  0  0
 10 19  1  0  0  0  0
 10 18  1  0  0  0  0
 12 16  1  0  0  0  0
 13 18  1  6  0  0  0
 13  2  1  0  0  0  0
 13  8  1  0  0  0  0
 14  1  2  0  0  0  0
 15  4  1  0  0  0  0
 16 17  1  0  0  0  0
 17  6  2  0  0  0  0
 19  3  2  0  0  0  0
 20 15  2  0  0  0  0
 20 19  1  0  0  0  0
 21 22  2  0  0  0  0
 22 23  1  0  0  0  0
 24 28  1  0  0  0  0
 27 24  1  0  0  0  0
 28 25  1  0  0  0  0
 29 26  1  6  0  0  0
 29 30  1  0  0  0  0
 30 22  1  6  0  0  0
 30 25  1  0  0  0  0
 31 24  1  0  0  0  0
 31 29  1  0  0  0  0
M  END
>  <MODEL>
8

>  <REMARK>
 VINA RESULT:      -7.1      4.133      6.411
  Name = 
  2 active torsions:
  status: ('A' for Active; 'I' for Inactive)
    1  A    between atoms: C_5  and  C_30
    2  A    between atoms: C_10  and  N_16
                            x       y       z     vdW  Elec       q    Type
                         _______ _______ _______ _____ _____    ______ ____

>  <TORSDO>
F 2

$$$$
=
 OpenBabel11122411153D

 31 35  0  0  1  0  0  0  0  0999 V2000
  188.7180  177.7740  136.1730 C   0  0  0  0  0  0  0  0  0  0  0  0
  185.1200  177.9260  137.4120 C   0  0  2  0  0  3  0  0  0  0  0  0
  184.5710  176.5050  137.4180 C   0  0  0  0  0  0  0  0  0  0  0  0
  184.6320  174.2340  136.5370 C   0  0  0  0  0  0  0  0  0  0  0  0
  186.6290  177.9820  137.3900 C   0  0  0  0  0  0  0  0  0  0  0  0
  189.4300  178.0610  137.3400 C   0  0  0  0  0  3  0  0  0  0  0  0
  185.1680  175.5220  136.6120 C   0  0  0  0  0  3  0  0  0  0  0  0
  185.2610  178.4780  139.8810 C   0  0  2  0  0  3  0  0  0  0  0  0
  189.4460  177.5030  134.9060 C   0  0  0  0  0  1  0  0  0  0  0  0
  182.6870  177.1730  139.0030 C   0  0  0  0  0  2  0  0  0  0  0  0
  185.2460  173.2720  135.7480 O   0  0  0  0  0  1  0  0  0  0  0  0
  186.6780  178.6010  139.7470 O   0  0  0  0  0  0  0  0  0  0  0  0
  184.5560  178.7970  138.5520 C   0  0  2  0  0  3  0  0  0  0  0  0
  187.3210  177.7370  136.1970 C   0  0  0  0  0  3  0  0  0  0  0  0
  183.4790  173.9180  137.2540 C   0  0  0  0  0  3  0  0  0  0  0  0
  187.3490  178.2860  138.5610 C   0  0  0  0  0  0  0  0  0  0  0  0
  188.7460  178.3220  138.5310 C   0  0  0  0  0  3  0  0  0  0  0  0
  183.0420  178.6150  138.6510 C   0  0  0  0  0  2  0  0  0  0  0  0
  183.3780  176.1840  138.1100 C   0  0  0  0  0  0  0  0  0  0  0  0
  182.8550  174.8900  138.0380 C   0  0  0  0  0  3  0  0  0  0  0  0
  185.0790  177.8140  142.6440 O   0  0  0  0  0  0  0  0  0  0  0  0
  184.7330  178.9770  142.3000 C   0  0  0  0  0  0  0  0  0  0  0  0
  184.7940  179.3730  140.9290 N   0  0  0  0  0  2  0  0  0  0  0  0
  184.2980  179.0050  146.0710 N   0  0  0  0  0  0  0  0  0  0  0  0
  185.3530  180.3470  144.3080 C   0  0  0  0  0  2  0  0  0  0  0  0
  182.0290  178.9950  143.1820 O   0  0  0  0  0  1  0  0  0  0  0  0
  184.5530  178.0340  146.9790 O   0  0  0  0  0  1  0  0  0  0  0  0
  185.5500  179.2520  145.3580 C   0  0  0  0  0  2  0  0  0  0  0  0
  182.9830  179.4980  144.0690 C   0  0  2  0  0  3  0  0  0  0  0  0
  184.2450  179.9640  143.3220 C   0  0  2  0  0  3  0  0  0  0  0  0
  183.3280  178.4530  145.1280 C   0  0  0  0  0  2  0  0  0  0  0  0
  1 14  2  0  0  0  0
  1  6  1  0  0  0  0
  2  5  1  1  0  0  0
  2  3  1  0  0  0  0
  2 13  1  0  0  0  0
  3 19  1  0  0  0  0
  4  7  1  0  0  0  0
  4 15  2  0  0  0  0
  5 16  2  0  0  0  0
  6 17  2  0  0  0  0
  7  3  2  0  0  0  0
  8 23  1  1  0  0  0
  9  1  1  0  0  0  0
 11  4  1  0  0  0  0
 12  8  1  0  0  0  0
 13 18  1  1  0  0  0
 13  8  1  0  0  0  0
 14  5  1  0  0  0  0
 15 20  1  0  0  0  0
 16 12  1  0  0  0  0
 17 16  1  0  0  0  0
 18 10  1  0  0  0  0
 19 10  1  0  0  0  0
 20 19  2  0  0  0  0
 22 21  2  0  0  0  0
 23 22  1  0  0  0  0
 24 27  1  0  0  0  0
 25 28  1  0  0  0  0
 28 24  1  0  0  0  0
 29 26  1  6  0  0  0
 29 31  1  0  0  0  0
 30 22  1  6  0  0  0
 30 29  1  0  0  0  0
 30 25  1  0  0  0  0
 31 24  1  0  0  0  0
M  END
>  <MODEL>
9

>  <REMARK>
 VINA RESULT:      -7.1      3.522      8.234
  Name = 
  2 active torsions:
  status: ('A' for Active; 'I' for Inactive)
    1  A    between atoms: C_5  and  C_30
    2  A    between atoms: C_10  and  N_16
                            x       y       z     vdW  Elec       q    Type
                         _______ _______ _______ _____ _____    ______ ____

>  <TORSDO>
F 2

$$$$
