=
 OpenBabel11122412043D

 34 41  0  0  1  0  0  0  0  0999 V2000
  188.2310  178.0130  140.4630 C   0  0  0  0  0  0  0  0  0  0  0  0
  186.3850  178.1300  138.6930 C   0  0  0  0  0  3  0  0  0  0  0  0
  189.5270  176.5850  146.5350 C   0  0  2  0  0  3  0  0  0  0  0  0
  189.7120  177.7580  142.3310 C   0  0  0  0  0  0  0  0  0  0  0  0
  188.6020  177.6450  144.5710 C   0  0  1  0  0  3  0  0  0  0  0  0
  187.7650  177.6510  147.0570 C   0  0  0  0  0  2  0  0  0  0  0  0
  188.5980  176.5600  147.7280 C   0  0  0  0  0  2  0  0  0  0  0  0
  191.6550  177.3110  145.4160 C   0  0  0  0  0  2  0  0  0  0  0  0
  185.8480  178.5990  140.8700 C   0  0  0  0  0  0  0  0  0  0  0  0
  182.8270  178.7720  141.7150 C   0  0  0  0  0  2  0  0  0  0  0  0
  187.6280  178.6310  144.0960 N   0  0  0  0  0  2  0  0  0  0  0  0
  190.9440  176.8200  144.2250 N   0  0  0  0  0  2  0  0  0  0  0  0
  186.0190  178.6030  142.2110 C   0  0  0  0  0  0  0  0  0  0  0  0
  185.0770  178.3760  138.6970 C   0  0  0  0  0  3  0  0  0  0  0  0
  189.9490  177.8220  143.8120 C   0  0  1  0  0  3  0  0  0  0  0  0
  191.0130  176.8220  146.7360 C   0  0  0  0  0  2  0  0  0  0  0  0
  183.4670  177.9470  140.6170 C   0  0  2  0  0  3  0  0  0  0  0  0
  188.4460  178.0700  141.8350 C   0  0  0  0  0  0  0  0  0  0  0  0
  188.8780  177.8490  146.0450 C   0  0  1  0  0  3  0  0  0  0  0  0
  187.3560  178.3870  142.7320 N   0  0  0  0  0  0  0  0  0  0  0  0
  190.4890  177.4250  140.1160 C   0  0  0  0  0  3  0  0  0  0  0  0
  183.5850  178.7520  143.0070 C   0  0  0  0  0  3  0  0  0  0  0  0
  190.7150  177.4620  141.4600 N   0  0  0  0  0  0  0  0  0  0  0  0
  184.9100  178.7090  143.1940 C   0  0  0  0  0  3  0  0  0  0  0  0
  184.6050  178.7930  140.0720 C   0  0  1  0  0  3  0  0  0  0  0  0
  189.2500  177.6940  139.6220 N   0  0  0  0  0  0  0  0  0  0  0  0
  186.9180  178.3020  139.9930 N   0  0  0  0  0  0  0  0  0  0  0  0
  182.5130  177.7150  139.6230 O   0  0  0  0  0  0  0  0  0  0  0  0
  181.3350  178.2780  140.1220 C   0  0  0  0  0  2  0  0  0  0  0  0
  179.9910  175.0330  140.2060 C   0  0  0  0  0  2  0  0  0  0  0  0
  179.3290  177.1010  141.0070 C   0  0  0  0  0  2  0  0  0  0  0  0
  180.1510  177.3960  139.7710 C   0  0  2  0  0  3  0  0  0  0  0  0
  178.9310  175.7040  140.9430 N   0  0  0  0  0  2  0  0  0  0  0  0
  180.6370  176.0510  139.2890 C   0  0  0  0  0  2  0  0  0  0  0  0
  1 18  1  0  0  0  0
  2 14  2  0  0  0  0
  2 27  1  0  0  0  0
  3 16  1  1  0  0  0
  3  7  1  0  0  0  0
  5 11  1  6  0  0  0
  5 19  1  0  0  0  0
  6  7  1  0  0  0  0
  8 16  1  0  0  0  0
  9 13  2  0  0  0  0
 10 22  1  0  0  0  0
 12  8  1  0  0  0  0
 13 20  1  0  0  0  0
 13 24  1  0  0  0  0
 15  4  1  6  0  0  0
 15 12  1  0  0  0  0
 15  5  1  0  0  0  0
 17 28  1  6  0  0  0
 17 10  1  0  0  0  0
 18  4  2  0  0  0  0
 18 20  1  0  0  0  0
 19  3  1  0  0  0  0
 19  6  1  1  0  0  0
 20 11  1  0  0  0  0
 21 23  2  0  0  0  0
 22 24  2  0  0  0  0
 23  4  1  0  0  0  0
 25 14  1  6  0  0  0
 25 17  1  0  0  0  0
 25  9  1  0  0  0  0
 26 21  1  0  0  0  0
 26  1  2  0  0  0  0
 27  1  1  0  0  0  0
 27  9  1  0  0  0  0
 28 29  1  0  0  0  0
 30 33  1  0  0  0  0
 32 29  1  1  0  0  0
 32 31  1  0  0  0  0
 33 31  1  0  0  0  0
 34 32  1  0  0  0  0
 34 30  1  0  0  0  0
M  END
>  <MODEL>
1

>  <REMARK>
 VINA RESULT:      -9.3      0.000      0.000
  Name = 
  3 active torsions:
  status: ('A' for Active; 'I' for Inactive)
    1  A    between atoms: C_17  and  O_28
    2  A    between atoms: O_28  and  C_29
    3  A    between atoms: C_29  and  C_32
                            x       y       z     vdW  Elec       q    Type
                         _______ _______ _______ _____ _____    ______ ____

>  <TORSDO>
F 3

$$$$
=
 OpenBabel11122412043D

 34 41  0  0  1  0  0  0  0  0999 V2000
  187.7090  178.1920  140.4630 C   0  0  0  0  0  0  0  0  0  0  0  0
  185.7260  178.3350  138.8500 C   0  0  0  0  0  3  0  0  0  0  0  0
  189.4960  176.6350  146.3770 C   0  0  2  0  0  3  0  0  0  0  0  0
  189.3360  177.9070  142.2000 C   0  0  0  0  0  0  0  0  0  0  0  0
  188.4100  177.7330  144.5180 C   0  0  1  0  0  3  0  0  0  0  0  0
  187.7740  177.6740  147.0630 C   0  0  0  0  0  2  0  0  0  0  0  0
  188.6660  176.5760  147.6390 C   0  0  0  0  0  2  0  0  0  0  0  0
  191.5230  177.4050  145.1080 C   0  0  0  0  0  2  0  0  0  0  0  0
  185.3620  178.7490  141.0730 C   0  0  0  0  0  0  0  0  0  0  0  0
  182.4170  178.8780  142.1610 C   0  0  0  0  0  2  0  0  0  0  0  0
  187.3950  178.7210  144.1460 N   0  0  0  0  0  2  0  0  0  0  0  0
  190.7220  176.9350  143.9670 N   0  0  0  0  0  2  0  0  0  0  0  0
  185.6400  178.7240  142.3960 C   0  0  0  0  0  0  0  0  0  0  0  0
  184.4210  178.5700  138.9640 C   0  0  0  0  0  3  0  0  0  0  0  0
  189.6900  177.9380  143.6590 C   0  0  1  0  0  3  0  0  0  0  0  0
  190.9920  176.8800  146.4630 C   0  0  0  0  0  2  0  0  0  0  0  0
  182.9730  178.0830  140.9960 C   0  0  2  0  0  3  0  0  0  0  0  0
  188.0330  178.2200  141.8150 C   0  0  0  0  0  0  0  0  0  0  0  0
  188.8010  177.9050  145.9700 C   0  0  1  0  0  3  0  0  0  0  0  0
  187.0160  178.5070  142.8030 N   0  0  0  0  0  0  0  0  0  0  0  0
  189.9350  177.6320  139.9230 C   0  0  0  0  0  3  0  0  0  0  0  0
  183.2760  178.8340  143.3870 C   0  0  0  0  0  3  0  0  0  0  0  0
  190.2680  177.6400  141.2450 N   0  0  0  0  0  0  0  0  0  0  0  0
  184.6130  178.7970  143.4670 C   0  0  0  0  0  3  0  0  0  0  0  0
  184.0580  178.9520  140.3820 C   0  0  1  0  0  3  0  0  0  0  0  0
  188.6580  177.9020  139.5360 N   0  0  0  0  0  0  0  0  0  0  0  0
  186.3600  178.4810  140.1070 N   0  0  0  0  0  0  0  0  0  0  0  0
  181.9430  177.8660  140.0760 O   0  0  0  0  0  0  0  0  0  0  0  0
  180.9060  178.7010  140.5000 C   0  0  0  0  0  2  0  0  0  0  0  0
  181.4300  181.1360  138.0220 C   0  0  0  0  0  2  0  0  0  0  0  0
  180.8800  178.8880  138.0180 C   0  0  0  0  0  2  0  0  0  0  0  0
  180.3150  179.4350  139.3110 C   0  0  2  0  0  3  0  0  0  0  0  0
  181.1330  180.0180  137.1390 N   0  0  0  0  0  2  0  0  0  0  0  0
  180.7310  180.8850  139.3420 C   0  0  0  0  0  2  0  0  0  0  0  0
  1 18  1  0  0  0  0
  2 14  2  0  0  0  0
  2 27  1  0  0  0  0
  3 16  1  1  0  0  0
  3  7  1  0  0  0  0
  5 11  1  6  0  0  0
  5 19  1  0  0  0  0
  6  7  1  0  0  0  0
  8 16  1  0  0  0  0
  9 13  2  0  0  0  0
 10 22  1  0  0  0  0
 12  8  1  0  0  0  0
 13 20  1  0  0  0  0
 13 24  1  0  0  0  0
 15  4  1  6  0  0  0
 15 12  1  0  0  0  0
 15  5  1  0  0  0  0
 17 28  1  6  0  0  0
 17 10  1  0  0  0  0
 18  4  2  0  0  0  0
 18 20  1  0  0  0  0
 19  3  1  0  0  0  0
 19  6  1  1  0  0  0
 20 11  1  0  0  0  0
 21 23  2  0  0  0  0
 22 24  2  0  0  0  0
 23  4  1  0  0  0  0
 25 14  1  6  0  0  0
 25 17  1  0  0  0  0
 25  9  1  0  0  0  0
 26 21  1  0  0  0  0
 26  1  2  0  0  0  0
 27  1  1  0  0  0  0
 27  9  1  0  0  0  0
 28 29  1  0  0  0  0
 30 34  1  0  0  0  0
 31 32  1  0  0  0  0
 32 34  1  0  0  0  0
 32 29  1  1  0  0  0
 33 31  1  0  0  0  0
 33 30  1  0  0  0  0
M  END
>  <MODEL>
2

>  <REMARK>
 VINA RESULT:      -9.3      1.494      1.966
  Name = 
  3 active torsions:
  status: ('A' for Active; 'I' for Inactive)
    1  A    between atoms: C_17  and  O_28
    2  A    between atoms: O_28  and  C_29
    3  A    between atoms: C_29  and  C_32
                            x       y       z     vdW  Elec       q    Type
                         _______ _______ _______ _____ _____    ______ ____

>  <TORSDO>
F 3

$$$$
=
 OpenBabel11122412043D

 34 41  0  0  1  0  0  0  0  0999 V2000
  188.0120  177.7810  142.9760 C   0  0  0  0  0  0  0  0  0  0  0  0
  190.3680  176.9570  142.4090 C   0  0  0  0  0  3  0  0  0  0  0  0
  182.0310  178.2990  140.8420 C   0  0  2  0  0  3  0  0  0  0  0  0
  185.7080  178.4030  143.2000 C   0  0  0  0  0  0  0  0  0  0  0  0
  184.4250  178.5520  141.0570 C   0  0  1  0  0  3  0  0  0  0  0  0
  182.8540  178.9470  138.9930 C   0  0  0  0  0  2  0  0  0  0  0  0
  181.5270  178.3210  139.4170 C   0  0  0  0  0  2  0  0  0  0  0  0
  182.1390  179.2700  143.1560 C   0  0  0  0  0  2  0  0  0  0  0  0
  189.0610  177.7870  140.7200 C   0  0  0  0  0  0  0  0  0  0  0  0
  189.9270  177.3450  137.7330 C   0  0  0  0  0  2  0  0  0  0  0  0
  185.6280  179.0910  140.4180 N   0  0  0  0  0  2  0  0  0  0  0  0
  183.2630  178.3280  143.2670 N   0  0  0  0  0  2  0  0  0  0  0  0
  187.9090  178.1680  140.1240 C   0  0  0  0  0  0  0  0  0  0  0  0
  191.0920  176.8350  141.2980 C   0  0  0  0  0  3  0  0  0  0  0  0
  184.4330  178.8910  142.5750 C   0  0  1  0  0  3  0  0  0  0  0  0
  181.2280  178.9680  141.9420 C   0  0  0  0  0  2  0  0  0  0  0  0
  190.1980  176.4780  138.9450 C   0  0  2  0  0  3  0  0  0  0  0  0
  186.8330  178.2310  142.3940 C   0  0  0  0  0  0  0  0  0  0  0  0
  183.1860  179.1800  140.4550 C   0  0  1  0  0  3  0  0  0  0  0  0
  186.7630  178.4540  140.9670 N   0  0  0  0  0  0  0  0  0  0  0  0
  186.9760  177.7550  145.0950 C   0  0  0  0  0  3  0  0  0  0  0  0
  188.5190  177.8490  137.6520 C   0  0  0  0  0  3  0  0  0  0  0  0
  185.8070  178.1820  144.5390 N   0  0  0  0  0  0  0  0  0  0  0  0
  187.7050  178.2110  138.6530 C   0  0  0  0  0  3  0  0  0  0  0  0
  190.3740  177.4370  140.1110 C   0  0  1  0  0  3  0  0  0  0  0  0
  188.0720  177.5500  144.3140 N   0  0  0  0  0  0  0  0  0  0  0  0
  189.1310  177.5810  142.1190 N   0  0  0  0  0  0  0  0  0  0  0  0
  191.3760  175.7600  138.7230 O   0  0  0  0  0  0  0  0  0  0  0  0
  191.1420  175.0500  137.5420 C   0  0  0  0  0  2  0  0  0  0  0  0
  194.0040  176.3470  135.9710 C   0  0  0  0  0  2  0  0  0  0  0  0
  193.6160  174.9870  137.8030 C   0  0  0  0  0  2  0  0  0  0  0  0
  192.4600  174.7290  136.8620 C   0  0  2  0  0  3  0  0  0  0  0  0
  194.6780  175.6100  137.0290 N   0  0  0  0  0  2  0  0  0  0  0  0
  192.6800  175.6640  135.6990 C   0  0  0  0  0  2  0  0  0  0  0  0
  1 26  1  0  0  0  0
  3  7  1  6  0  0  0
  3 16  1  0  0  0  0
  4 23  2  0  0  0  0
  5 11  1  6  0  0  0
  5 15  1  0  0  0  0
  6  7  1  0  0  0  0
  8 12  1  0  0  0  0
  9 27  1  0  0  0  0
 10 17  1  0  0  0  0
 11 20  1  0  0  0  0
 13  9  2  0  0  0  0
 13 20  1  0  0  0  0
 14  2  2  0  0  0  0
 15  4  1  1  0  0  0
 15 12  1  0  0  0  0
 16  8  1  0  0  0  0
 17 28  1  6  0  0  0
 17 25  1  0  0  0  0
 18  1  2  0  0  0  0
 18  4  1  0  0  0  0
 19  6  1  6  0  0  0
 19  3  1  0  0  0  0
 19  5  1  0  0  0  0
 20 18  1  0  0  0  0
 22 10  1  0  0  0  0
 22 24  2  0  0  0  0
 23 21  1  0  0  0  0
 24 13  1  0  0  0  0
 25  9  1  0  0  0  0
 25 14  1  1  0  0  0
 26 21  2  0  0  0  0
 27  2  1  0  0  0  0
 27  1  1  0  0  0  0
 29 28  1  0  0  0  0
 30 33  1  0  0  0  0
 32 29  1  1  0  0  0
 32 31  1  0  0  0  0
 33 31  1  0  0  0  0
 34 30  1  0  0  0  0
 34 32  1  0  0  0  0
M  END
>  <MODEL>
3

>  <REMARK>
 VINA RESULT:      -9.0      2.991      8.441
  Name = 
  3 active torsions:
  status: ('A' for Active; 'I' for Inactive)
    1  A    between atoms: C_17  and  O_28
    2  A    between atoms: O_28  and  C_29
    3  A    between atoms: C_29  and  C_32
                            x       y       z     vdW  Elec       q    Type
                         _______ _______ _______ _____ _____    ______ ____

>  <TORSDO>
F 3

$$$$
=
 OpenBabel11122412043D

 34 41  0  0  1  0  0  0  0  0999 V2000
  182.2280  178.7980  143.5480 C   0  0  0  0  0  0  0  0  0  0  0  0
  183.9690  178.6290  145.4180 C   0  0  0  0  0  3  0  0  0  0  0  0
  180.9260  177.2670  137.5020 C   0  0  2  0  0  3  0  0  0  0  0  0
  180.8160  178.7460  141.6120 C   0  0  0  0  0  0  0  0  0  0  0  0
  181.9740  178.2320  139.4540 C   0  0  1  0  0  3  0  0  0  0  0  0
  182.9060  177.8770  137.0270 C   0  0  0  0  0  2  0  0  0  0  0  0
  181.8810  176.9530  136.3720 C   0  0  0  0  0  2  0  0  0  0  0  0
  178.9670  178.5230  138.4460 C   0  0  0  0  0  2  0  0  0  0  0  0
  184.6980  178.8120  143.2540 C   0  0  0  0  0  0  0  0  0  0  0  0
  187.7160  178.2530  142.5860 C   0  0  0  0  0  2  0  0  0  0  0  0
  183.1220  179.0090  139.9290 N   0  0  0  0  0  2  0  0  0  0  0  0
  179.4930  177.9720  139.7040 N   0  0  0  0  0  2  0  0  0  0  0  0
  184.5940  178.7590  141.9060 C   0  0  0  0  0  0  0  0  0  0  0  0
  185.2980  178.5780  145.4790 C   0  0  0  0  0  3  0  0  0  0  0  0
  180.6680  178.7550  140.1180 C   0  0  1  0  0  3  0  0  0  0  0  0
  179.5430  177.8120  137.1990 C   0  0  0  0  0  2  0  0  0  0  0  0
  186.8570  177.6690  143.6880 C   0  0  2  0  0  3  0  0  0  0  0  0
  182.0950  178.8050  142.1650 C   0  0  0  0  0  0  0  0  0  0  0  0
  181.8200  178.3870  137.9560 C   0  0  1  0  0  3  0  0  0  0  0  0
  183.2680  178.8080  141.3190 N   0  0  0  0  0  0  0  0  0  0  0  0
  179.8820  178.7510  143.7910 C   0  0  0  0  0  3  0  0  0  0  0  0
  187.0340  178.3100  141.2530 C   0  0  0  0  0  3  0  0  0  0  0  0
  179.7330  178.7420  142.4360 N   0  0  0  0  0  0  0  0  0  0  0  0
  185.7430  178.5470  140.9890 C   0  0  0  0  0  3  0  0  0  0  0  0
  185.9140  178.7830  144.1130 C   0  0  1  0  0  3  0  0  0  0  0  0
  181.1260  178.7730  144.3430 N   0  0  0  0  0  0  0  0  0  0  0  0
  183.5490  178.8220  144.0790 N   0  0  0  0  0  0  0  0  0  0  0  0
  187.6880  177.3030  144.7510 O   0  0  0  0  0  0  0  0  0  0  0  0
  188.9830  177.3810  144.2330 C   0  0  0  0  0  2  0  0  0  0  0  0
  190.4550  176.6760  147.3440 C   0  0  0  0  0  2  0  0  0  0  0  0
  191.2540  177.1060  145.2140 C   0  0  0  0  0  2  0  0  0  0  0  0
  189.9430  177.8560  145.3080 C   0  0  2  0  0  3  0  0  0  0  0  0
  191.6820  176.8030  146.5700 N   0  0  0  0  0  2  0  0  0  0  0  0
  189.3920  177.5210  146.6720 C   0  0  0  0  0  2  0  0  0  0  0  0
  1 27  1  0  0  0  0
  1 26  1  0  0  0  0
  2 14  2  0  0  0  0
  3  7  1  6  0  0  0
  3 19  1  0  0  0  0
  4 18  1  0  0  0  0
  4 23  2  0  0  0  0
  5 11  1  1  0  0  0
  5 15  1  0  0  0  0
  7  6  1  0  0  0  0
  8 12  1  0  0  0  0
  9 27  1  0  0  0  0
  9 25  1  0  0  0  0
 10 17  1  0  0  0  0
 11 20  1  0  0  0  0
 13  9  2  0  0  0  0
 15 12  1  1  0  0  0
 15  4  1  0  0  0  0
 16  3  1  0  0  0  0
 16  8  1  0  0  0  0
 17 25  1  0  0  0  0
 17 28  1  1  0  0  0
 18  1  2  0  0  0  0
 19  6  1  6  0  0  0
 19  5  1  0  0  0  0
 20 13  1  0  0  0  0
 20 18  1  0  0  0  0
 21 26  2  0  0  0  0
 22 10  1  0  0  0  0
 23 21  1  0  0  0  0
 24 22  2  0  0  0  0
 24 13  1  0  0  0  0
 25 14  1  1  0  0  0
 27  2  1  0  0  0  0
 29 28  1  0  0  0  0
 31 32  1  0  0  0  0
 31 33  1  0  0  0  0
 32 29  1  6  0  0  0
 32 34  1  0  0  0  0
 33 30  1  0  0  0  0
 34 30  1  0  0  0  0
M  END
>  <MODEL>
4

>  <REMARK>
 VINA RESULT:      -8.9      2.764      9.426
  Name = 
  3 active torsions:
  status: ('A' for Active; 'I' for Inactive)
    1  A    between atoms: C_17  and  O_28
    2  A    between atoms: O_28  and  C_29
    3  A    between atoms: C_29  and  C_32
                            x       y       z     vdW  Elec       q    Type
                         _______ _______ _______ _____ _____    ______ ____

>  <TORSDO>
F 3

$$$$
=
 OpenBabel11122412043D

 34 41  0  0  1  0  0  0  0  0999 V2000
  185.5140  178.5830  142.7210 C   0  0  0  0  0  0  0  0  0  0  0  0
  185.3940  178.9820  140.1950 C   0  0  0  0  0  3  0  0  0  0  0  0
  189.4200  178.1470  147.7350 C   0  0  2  0  0  3  0  0  0  0  0  0
  185.9730  178.2830  145.0540 C   0  0  0  0  0  0  0  0  0  0  0  0
  188.3430  177.7130  145.6150 C   0  0  1  0  0  3  0  0  0  0  0  0
  190.6890  176.9570  146.5160 C   0  0  0  0  0  2  0  0  0  0  0  0
  190.8920  177.8060  147.7690 C   0  0  0  0  0  2  0  0  0  0  0  0
  187.0610  177.8080  148.5300 C   0  0  0  0  0  2  0  0  0  0  0  0
  187.2130  177.8800  141.0450 C   0  0  0  0  0  0  0  0  0  0  0  0
  189.7390  177.4330  139.2320 C   0  0  0  0  0  2  0  0  0  0  0  0
  188.3980  176.9040  144.3950 N   0  0  0  0  0  2  0  0  0  0  0  0
  186.7710  178.6260  147.3420 N   0  0  0  0  0  2  0  0  0  0  0  0
  188.0750  177.4770  142.0060 C   0  0  0  0  0  0  0  0  0  0  0  0
  186.1850  178.7330  139.1530 C   0  0  0  0  0  3  0  0  0  0  0  0
  186.8810  177.7830  146.1400 C   0  0  1  0  0  3  0  0  0  0  0  0
  188.5490  177.8760  148.9480 C   0  0  0  0  0  2  0  0  0  0  0  0
  188.7210  178.5550  139.1940 C   0  0  2  0  0  3  0  0  0  0  0  0
  186.3580  178.1210  143.7240 C   0  0  0  0  0  0  0  0  0  0  0  0
  189.1890  177.0810  146.7010 C   0  0  1  0  0  3  0  0  0  0  0  0
  187.6390  177.5410  143.3880 N   0  0  0  0  0  0  0  0  0  0  0  0
  183.9390  179.2690  144.3370 C   0  0  0  0  0  3  0  0  0  0  0  0
  190.1920  177.0740  140.6140 C   0  0  0  0  0  3  0  0  0  0  0  0
  184.7610  178.8350  145.3350 N   0  0  0  0  0  0  0  0  0  0  0  0
  189.4810  177.0730  141.7490 C   0  0  0  0  0  3  0  0  0  0  0  0
  187.3910  177.9200  139.5670 C   0  0  1  0  0  3  0  0  0  0  0  0
  184.3180  179.1480  143.0360 N   0  0  0  0  0  0  0  0  0  0  0  0
  185.9540  178.4350  141.3740 N   0  0  0  0  0  0  0  0  0  0  0  0
  188.6700  179.0640  137.8930 O   0  0  0  0  0  0  0  0  0  0  0  0
  189.4270  178.1690  137.1310 C   0  0  0  0  0  2  0  0  0  0  0  0
  186.6330  176.2680  136.1720 C   0  0  0  0  0  2  0  0  0  0  0  0
  187.3240  178.4500  135.8310 C   0  0  0  0  0  2  0  0  0  0  0  0
  188.5970  177.6460  135.9740 C   0  0  2  0  0  3  0  0  0  0  0  0
  186.2500  177.5170  135.5310 N   0  0  0  0  0  2  0  0  0  0  0  0
  188.1450  176.2360  136.2620 C   0  0  0  0  0  2  0  0  0  0  0  0
  1 26  2  0  0  0  0
  1 18  1  0  0  0  0
  2 27  1  0  0  0  0
  3  7  1  1  0  0  0
  3 16  1  0  0  0  0
  4 23  1  0  0  0  0
  5 11  1  6  0  0  0
  5 15  1  0  0  0  0
  5 19  1  0  0  0  0
  6  7  1  0  0  0  0
  8 16  1  0  0  0  0
  9 27  1  0  0  0  0
  9 13  2  0  0  0  0
 10 22  1  0  0  0  0
 12  8  1  0  0  0  0
 13 20  1  0  0  0  0
 14  2  2  0  0  0  0
 15  4  1  6  0  0  0
 15 12  1  0  0  0  0
 17 28  1  6  0  0  0
 17 10  1  0  0  0  0
 17 25  1  0  0  0  0
 18  4  2  0  0  0  0
 19  6  1  6  0  0  0
 19  3  1  0  0  0  0
 20 18  1  0  0  0  0
 20 11  1  0  0  0  0
 21 23  2  0  0  0  0
 22 24  2  0  0  0  0
 24 13  1  0  0  0  0
 25 14  1  6  0  0  0
 25  9  1  0  0  0  0
 26 21  1  0  0  0  0
 27  1  1  0  0  0  0
 29 28  1  0  0  0  0
 30 34  1  0  0  0  0
 31 32  1  0  0  0  0
 32 34  1  0  0  0  0
 32 29  1  1  0  0  0
 33 31  1  0  0  0  0
 33 30  1  0  0  0  0
M  END
>  <MODEL>
5

>  <REMARK>
 VINA RESULT:      -8.9      3.093      5.451
  Name = 
  3 active torsions:
  status: ('A' for Active; 'I' for Inactive)
    1  A    between atoms: C_17  and  O_28
    2  A    between atoms: O_28  and  C_29
    3  A    between atoms: C_29  and  C_32
                            x       y       z     vdW  Elec       q    Type
                         _______ _______ _______ _____ _____    ______ ____

>  <TORSDO>
F 3

$$$$
=
 OpenBabel11122412043D

 34 41  0  0  1  0  0  0  0  0999 V2000
  189.6000  177.0270  141.5150 C   0  0  0  0  0  0  0  0  0  0  0  0
  190.4280  176.3510  139.1890 C   0  0  0  0  0  3  0  0  0  0  0  0
  184.4370  178.2070  145.0560 C   0  0  2  0  0  3  0  0  0  0  0  0
  188.4990  177.6020  143.5650 C   0  0  0  0  0  0  0  0  0  0  0  0
  186.1230  178.3530  143.3310 C   0  0  1  0  0  3  0  0  0  0  0  0
  183.6860  179.3220  143.4100 C   0  0  0  0  0  2  0  0  0  0  0  0
  183.0530  178.6260  144.6130 C   0  0  0  0  0  2  0  0  0  0  0  0
  186.4740  178.5070  146.4940 C   0  0  0  0  0  2  0  0  0  0  0  0
  188.5360  177.6330  139.3500 C   0  0  0  0  0  0  0  0  0  0  0  0
  186.7040  178.0110  136.8260 C   0  0  0  0  0  2  0  0  0  0  0  0
  186.4980  179.0260  142.0860 N   0  0  0  0  0  2  0  0  0  0  0  0
  187.0340  177.5510  145.5250 N   0  0  0  0  0  2  0  0  0  0  0  0
  187.4640  178.1810  139.9660 C   0  0  0  0  0  0  0  0  0  0  0  0
  190.0030  176.5260  137.9400 C   0  0  0  0  0  3  0  0  0  0  0  0
  187.3540  178.2630  144.2780 C   0  0  1  0  0  3  0  0  0  0  0  0
  184.9290  178.5630  146.4470 C   0  0  0  0  0  2  0  0  0  0  0  0
  187.5920  176.8410  137.1960 C   0  0  2  0  0  3  0  0  0  0  0  0
  188.5380  177.6380  142.1720 C   0  0  0  0  0  0  0  0  0  0  0  0
  185.0500  179.1410  144.0510 C   0  0  1  0  0  3  0  0  0  0  0  0
  187.4650  178.2450  141.4150 N   0  0  0  0  0  0  0  0  0  0  0  0
  190.5640  176.4400  143.5860 C   0  0  0  0  0  3  0  0  0  0  0  0
  185.8940  178.5410  137.9690 C   0  0  0  0  0  3  0  0  0  0  0  0
  189.5240  177.0210  144.2460 N   0  0  0  0  0  0  0  0  0  0  0  0
  186.2350  178.6280  139.2610 C   0  0  0  0  0  3  0  0  0  0  0  0
  188.8000  177.4410  137.8960 C   0  0  1  0  0  3  0  0  0  0  0  0
  190.5980  176.4380  142.2250 N   0  0  0  0  0  0  0  0  0  0  0  0
  189.5910  177.0510  140.0910 N   0  0  0  0  0  0  0  0  0  0  0  0
  187.9830  176.1920  136.0220 O   0  0  0  0  0  0  0  0  0  0  0  0
  186.9380  175.3080  135.7390 C   0  0  0  0  0  2  0  0  0  0  0  0
  184.4080  173.3600  137.2020 C   0  0  0  0  0  2  0  0  0  0  0  0
  186.7220  173.3160  137.2150 C   0  0  0  0  0  2  0  0  0  0  0  0
  186.3500  174.7720  137.0310 C   0  0  2  0  0  3  0  0  0  0  0  0
  185.5490  172.6290  137.7320 N   0  0  0  0  0  2  0  0  0  0  0  0
  184.8440  174.7890  136.9560 C   0  0  0  0  0  2  0  0  0  0  0  0
  1 18  2  0  0  0  0
  1 26  1  0  0  0  0
  2 27  1  0  0  0  0
  3  7  1  1  0  0  0
  3 16  1  0  0  0  0
  4 23  2  0  0  0  0
  5 11  1  6  0  0  0
  5 19  1  0  0  0  0
  5 15  1  0  0  0  0
  6  7  1  0  0  0  0
  9 13  2  0  0  0  0
  9 27  1  0  0  0  0
 10 17  1  0  0  0  0
 10 22  1  0  0  0  0
 12  8  1  0  0  0  0
 13 20  1  0  0  0  0
 14  2  2  0  0  0  0
 15  4  1  6  0  0  0
 15 12  1  0  0  0  0
 16  8  1  0  0  0  0
 17 28  1  6  0  0  0
 17 25  1  0  0  0  0
 18  4  1  0  0  0  0
 19  6  1  6  0  0  0
 19  3  1  0  0  0  0
 20 11  1  0  0  0  0
 20 18  1  0  0  0  0
 21 23  1  0  0  0  0
 22 24  2  0  0  0  0
 24 13  1  0  0  0  0
 25 14  1  1  0  0  0
 25  9  1  0  0  0  0
 26 21  2  0  0  0  0
 27  1  1  0  0  0  0
 29 28  1  0  0  0  0
 30 33  1  0  0  0  0
 31 33  1  0  0  0  0
 32 29  1  6  0  0  0
 32 31  1  0  0  0  0
 34 32  1  0  0  0  0
 34 30  1  0  0  0  0
M  END
>  <MODEL>
6

>  <REMARK>
 VINA RESULT:      -8.8      3.107      5.013
  Name = 
  3 active torsions:
  status: ('A' for Active; 'I' for Inactive)
    1  A    between atoms: C_17  and  O_28
    2  A    between atoms: O_28  and  C_29
    3  A    between atoms: C_29  and  C_32
                            x       y       z     vdW  Elec       q    Type
                         _______ _______ _______ _____ _____    ______ ____

>  <TORSDO>
F 3

$$$$
=
 OpenBabel11122412043D

 34 41  0  0  1  0  0  0  0  0999 V2000
  183.0210  178.8270  143.5340 C   0  0  0  0  0  0  0  0  0  0  0  0
  184.1420  178.6280  145.8270 C   0  0  0  0  0  3  0  0  0  0  0  0
  183.3610  177.0920  137.4130 C   0  0  2  0  0  3  0  0  0  0  0  0
  182.2150  178.7780  141.2770 C   0  0  0  0  0  0  0  0  0  0  0  0
  183.8900  178.0770  139.5560 C   0  0  1  0  0  3  0  0  0  0  0  0
  185.4370  177.5350  137.5070 C   0  0  0  0  0  2  0  0  0  0  0  0
  184.5670  176.6550  136.6120 C   0  0  0  0  0  2  0  0  0  0  0  0
  181.3250  178.5300  137.7220 C   0  0  0  0  0  2  0  0  0  0  0  0
  185.4660  178.6510  143.9580 C   0  0  0  0  0  0  0  0  0  0  0  0
  188.4930  177.8460  144.1960 C   0  0  0  0  0  2  0  0  0  0  0  0
  184.9160  178.7930  140.3170 N   0  0  0  0  0  2  0  0  0  0  0  0
  181.4270  178.0060  139.0930 N   0  0  0  0  0  2  0  0  0  0  0  0
  185.7430  178.5380  142.6390 C   0  0  0  0  0  0  0  0  0  0  0  0
  185.3900  178.4860  146.2670 C   0  0  0  0  0  3  0  0  0  0  0  0
  182.4970  178.7240  139.8030 C   0  0  1  0  0  3  0  0  0  0  0  0
  182.1700  177.7180  136.7110 C   0  0  0  0  0  2  0  0  0  0  0  0
  187.3120  177.3810  145.0230 C   0  0  2  0  0  3  0  0  0  0  0  0
  183.2850  178.7740  142.1700 C   0  0  0  0  0  0  0  0  0  0  0  0
  184.1790  178.1670  138.0720 C   0  0  1  0  0  3  0  0  0  0  0  0
  184.6460  178.6520  141.6960 N   0  0  0  0  0  0  0  0  0  0  0  0
  180.7070  178.9580  143.0970 C   0  0  0  0  0  3  0  0  0  0  0  0
  188.2230  177.8850  142.7230 C   0  0  0  0  0  3  0  0  0  0  0  0
  180.9470  178.8920  141.7570 N   0  0  0  0  0  0  0  0  0  0  0  0
  187.0830  178.2000  142.0940 C   0  0  0  0  0  3  0  0  0  0  0  0
  186.3830  178.5780  145.1290 C   0  0  1  0  0  3  0  0  0  0  0  0
  181.7410  178.9200  143.9810 N   0  0  0  0  0  0  0  0  0  0  0  0
  184.1350  178.7830  144.4200 N   0  0  0  0  0  0  0  0  0  0  0  0
  187.7750  177.0090  146.2880 O   0  0  0  0  0  0  0  0  0  0  0  0
  189.0800  177.5070  146.3500 C   0  0  0  0  0  2  0  0  0  0  0  0
  192.0980  176.0030  147.3320 C   0  0  0  0  0  2  0  0  0  0  0  0
  190.8330  177.7860  148.0930 C   0  0  0  0  0  2  0  0  0  0  0  0
  189.8400  176.8270  147.4720 C   0  0  2  0  0  3  0  0  0  0  0  0
  192.0550  177.0410  148.3510 N   0  0  0  0  0  2  0  0  0  0  0  0
  190.6730  175.6980  146.9190 C   0  0  0  0  0  2  0  0  0  0  0  0
  1 26  1  0  0  0  0
  1 27  1  0  0  0  0
  2 14  2  0  0  0  0
  3  7  1  6  0  0  0
  3 19  1  0  0  0  0
  4 23  2  0  0  0  0
  4 18  1  0  0  0  0
  5 15  1  0  0  0  0
  5 11  1  1  0  0  0
  7  6  1  0  0  0  0
  8 12  1  0  0  0  0
  9 27  1  0  0  0  0
  9 25  1  0  0  0  0
 10 17  1  0  0  0  0
 11 20  1  0  0  0  0
 13  9  2  0  0  0  0
 15 12  1  6  0  0  0
 15  4  1  0  0  0  0
 16  3  1  0  0  0  0
 16  8  1  0  0  0  0
 17 25  1  0  0  0  0
 17 28  1  1  0  0  0
 18  1  2  0  0  0  0
 19  6  1  1  0  0  0
 19  5  1  0  0  0  0
 20 18  1  0  0  0  0
 20 13  1  0  0  0  0
 21 26  2  0  0  0  0
 22 10  1  0  0  0  0
 23 21  1  0  0  0  0
 24 13  1  0  0  0  0
 24 22  2  0  0  0  0
 25 14  1  1  0  0  0
 27  2  1  0  0  0  0
 28 29  1  0  0  0  0
 30 33  1  0  0  0  0
 31 33  1  0  0  0  0
 32 29  1  6  0  0  0
 32 31  1  0  0  0  0
 34 30  1  0  0  0  0
 34 32  1  0  0  0  0
M  END
>  <MODEL>
7

>  <REMARK>
 VINA RESULT:      -8.8      2.877      9.140
  Name = 
  3 active torsions:
  status: ('A' for Active; 'I' for Inactive)
    1  A    between atoms: C_17  and  O_28
    2  A    between atoms: O_28  and  C_29
    3  A    between atoms: C_29  and  C_32
                            x       y       z     vdW  Elec       q    Type
                         _______ _______ _______ _____ _____    ______ ____

>  <TORSDO>
F 3

$$$$
=
 OpenBabel11122412043D

 34 41  0  0  1  0  0  0  0  0999 V2000
  189.5450  177.0320  141.5100 C   0  0  0  0  0  0  0  0  0  0  0  0
  190.3380  176.3600  139.1710 C   0  0  0  0  0  3  0  0  0  0  0  0
  184.4350  178.2040  145.1300 C   0  0  2  0  0  3  0  0  0  0  0  0
  188.4740  177.6040  143.5770 C   0  0  0  0  0  0  0  0  0  0  0  0
  186.0950  178.3530  143.3800 C   0  0  1  0  0  3  0  0  0  0  0  0
  183.6590  179.3200  143.4970 C   0  0  0  0  0  2  0  0  0  0  0  0
  183.0440  178.6220  144.7090 C   0  0  0  0  0  2  0  0  0  0  0  0
  186.4940  178.5040  146.5370 C   0  0  0  0  0  2  0  0  0  0  0  0
  188.4480  177.6390  139.3620 C   0  0  0  0  0  0  0  0  0  0  0  0
  186.5770  178.0180  136.8660 C   0  0  0  0  0  2  0  0  0  0  0  0
  186.4510  179.0270  142.1300 N   0  0  0  0  0  2  0  0  0  0  0  0
  187.0400  177.5500  145.5590 N   0  0  0  0  0  2  0  0  0  0  0  0
  187.3850  178.1860  139.9940 C   0  0  0  0  0  0  0  0  0  0  0  0
  189.8940  176.5350  137.9280 C   0  0  0  0  0  3  0  0  0  0  0  0
  187.3410  178.2640  144.3080 C   0  0  1  0  0  3  0  0  0  0  0  0
  184.9480  178.5580  146.5130 C   0  0  0  0  0  2  0  0  0  0  0  0
  187.4720  176.8480  137.2220 C   0  0  2  0  0  3  0  0  0  0  0  0
  188.4930  177.6420  142.1830 C   0  0  0  0  0  0  0  0  0  0  0  0
  185.0320  179.1400  144.1170 C   0  0  1  0  0  3  0  0  0  0  0  0
  187.4080  178.2480  141.4440 N   0  0  0  0  0  0  0  0  0  0  0  0
  190.5410  176.4440  143.5650 C   0  0  0  0  0  3  0  0  0  0  0  0
  185.7840  178.5460  138.0220 C   0  0  0  0  0  3  0  0  0  0  0  0
  189.5100  177.0240  144.2420 N   0  0  0  0  0  0  0  0  0  0  0  0
  186.1450  178.6320  139.3090 C   0  0  0  0  0  3  0  0  0  0  0  0
  188.6900  177.4490  137.9040 C   0  0  1  0  0  3  0  0  0  0  0  0
  190.5550  176.4440  142.2040 N   0  0  0  0  0  0  0  0  0  0  0  0
  189.5150  177.0580  140.0870 N   0  0  0  0  0  0  0  0  0  0  0  0
  187.8460  176.2000  136.0410 O   0  0  0  0  0  0  0  0  0  0  0  0
  186.7460  175.4050  135.7070 C   0  0  0  0  0  2  0  0  0  0  0  0
  189.1130  172.9930  136.6650 C   0  0  0  0  0  2  0  0  0  0  0  0
  186.8230  173.2240  136.9030 C   0  0  0  0  0  2  0  0  0  0  0  0
  187.1670  173.9500  135.6200 C   0  0  2  0  0  3  0  0  0  0  0  0
  187.9350  172.3410  137.2160 N   0  0  0  0  0  2  0  0  0  0  0  0
  188.6680  173.8550  135.5020 C   0  0  0  0  0  2  0  0  0  0  0  0
  1 18  2  0  0  0  0
  1 26  1  0  0  0  0
  2 27  1  0  0  0  0
  3  7  1  1  0  0  0
  3 16  1  0  0  0  0
  4 23  2  0  0  0  0
  5 11  1  6  0  0  0
  5 19  1  0  0  0  0
  5 15  1  0  0  0  0
  6  7  1  0  0  0  0
  9 13  2  0  0  0  0
  9 27  1  0  0  0  0
 10 17  1  0  0  0  0
 10 22  1  0  0  0  0
 12  8  1  0  0  0  0
 13 20  1  0  0  0  0
 14  2  2  0  0  0  0
 15  4  1  6  0  0  0
 15 12  1  0  0  0  0
 16  8  1  0  0  0  0
 17 28  1  6  0  0  0
 17 25  1  0  0  0  0
 18  4  1  0  0  0  0
 19  6  1  6  0  0  0
 19  3  1  0  0  0  0
 20 11  1  0  0  0  0
 20 18  1  0  0  0  0
 21 23  1  0  0  0  0
 22 24  2  0  0  0  0
 24 13  1  0  0  0  0
 25 14  1  1  0  0  0
 25  9  1  0  0  0  0
 26 21  2  0  0  0  0
 27  1  1  0  0  0  0
 29 28  1  0  0  0  0
 30 33  1  0  0  0  0
 31 33  1  0  0  0  0
 32 29  1  1  0  0  0
 32 31  1  0  0  0  0
 34 32  1  0  0  0  0
 34 30  1  0  0  0  0
M  END
>  <MODEL>
8

>  <REMARK>
 VINA RESULT:      -8.8      3.227      5.532
  Name = 
  3 active torsions:
  status: ('A' for Active; 'I' for Inactive)
    1  A    between atoms: C_17  and  O_28
    2  A    between atoms: O_28  and  C_29
    3  A    between atoms: C_29  and  C_32
                            x       y       z     vdW  Elec       q    Type
                         _______ _______ _______ _____ _____    ______ ____

>  <TORSDO>
F 3

$$$$
=
 OpenBabel11122412043D

 34 41  0  0  1  0  0  0  0  0999 V2000
  185.8760  178.3730  140.8560 C   0  0  0  0  0  0  0  0  0  0  0  0
  187.6970  177.9970  142.6170 C   0  0  0  0  0  3  0  0  0  0  0  0
  180.2240  181.0840  139.7200 C   0  0  2  0  0  3  0  0  0  0  0  0
  184.0190  178.9370  139.4500 C   0  0  0  0  0  0  0  0  0  0  0  0
  181.9500  179.6710  140.6500 C   0  0  1  0  0  3  0  0  0  0  0  0
  179.5940  180.3250  141.6020 C   0  0  0  0  0  2  0  0  0  0  0  0
  179.1380  181.4690  140.6990 C   0  0  0  0  0  2  0  0  0  0  0  0
  180.9930  179.9350  137.6230 C   0  0  0  0  0  2  0  0  0  0  0  0
  185.5130  178.1040  143.3020 C   0  0  0  0  0  0  0  0  0  0  0  0
  184.8650  178.3920  146.3630 C   0  0  0  0  0  2  0  0  0  0  0  0
  182.2510  178.6870  141.6920 N   0  0  0  0  0  2  0  0  0  0  0  0
  182.3120  180.1890  138.2240 N   0  0  0  0  0  2  0  0  0  0  0  0
  184.1990  178.4040  143.1970 C   0  0  0  0  0  0  0  0  0  0  0  0
  187.7270  177.8710  143.9420 C   0  0  0  0  0  3  0  0  0  0  0  0
  182.5500  179.2060  139.2920 C   0  0  1  0  0  3  0  0  0  0  0  0
  179.8710  180.7760  138.2760 C   0  0  0  0  0  2  0  0  0  0  0  0
  186.0760  178.8770  145.5920 C   0  0  2  0  0  3  0  0  0  0  0  0
  184.5170  178.6240  140.7140 C   0  0  0  0  0  0  0  0  0  0  0  0
  180.4530  179.8000  140.4670 C   0  0  1  0  0  3  0  0  0  0  0  0
  183.6500  178.6230  141.8720 N   0  0  0  0  0  0  0  0  0  0  0  0
  186.1900  178.6680  138.5370 C   0  0  0  0  0  3  0  0  0  0  0  0
  183.5630  178.6540  145.6700 C   0  0  0  0  0  3  0  0  0  0  0  0
  184.8620  178.9320  138.3810 N   0  0  0  0  0  0  0  0  0  0  0  0
  183.2990  178.6280  144.3570 C   0  0  0  0  0  3  0  0  0  0  0  0
  186.3300  177.8320  144.5180 C   0  0  1  0  0  3  0  0  0  0  0  0
  186.6950  178.3960  139.7720 N   0  0  0  0  0  0  0  0  0  0  0  0
  186.3580  178.0930  142.1670 N   0  0  0  0  0  0  0  0  0  0  0  0
  187.1620  178.9470  146.4700 O   0  0  0  0  0  0  0  0  0  0  0  0
  186.7440  178.2530  147.6080 C   0  0  0  0  0  2  0  0  0  0  0  0
  189.9450  176.8850  147.1360 C   0  0  0  0  0  2  0  0  0  0  0  0
  189.0590  178.5570  148.4690 C   0  0  0  0  0  2  0  0  0  0  0  0
  187.9300  177.5700  148.2620 C   0  0  2  0  0  3  0  0  0  0  0  0
  190.3010  177.8740  148.1420 N   0  0  0  0  0  2  0  0  0  0  0  0
  188.4900  176.5160  147.3400 C   0  0  0  0  0  2  0  0  0  0  0  0
  1 27  1  0  0  0  0
  2 14  2  0  0  0  0
  3 16  1  6  0  0  0
  3 19  1  0  0  0  0
  3  7  1  0  0  0  0
  4 18  2  0  0  0  0
  5 11  1  1  0  0  0
  7  6  1  0  0  0  0
  8 12  1  0  0  0  0
  8 16  1  0  0  0  0
  9 25  1  0  0  0  0
 11 20  1  0  0  0  0
 13  9  2  0  0  0  0
 13 24  1  0  0  0  0
 15 12  1  6  0  0  0
 15  4  1  0  0  0  0
 15  5  1  0  0  0  0
 17 10  1  0  0  0  0
 17 28  1  1  0  0  0
 18  1  1  0  0  0  0
 18 20  1  0  0  0  0
 19  5  1  0  0  0  0
 19  6  1  1  0  0  0
 20 13  1  0  0  0  0
 21 26  1  0  0  0  0
 22 10  1  0  0  0  0
 23 21  2  0  0  0  0
 23  4  1  0  0  0  0
 24 22  2  0  0  0  0
 25 14  1  6  0  0  0
 25 17  1  0  0  0  0
 26  1  2  0  0  0  0
 27  2  1  0  0  0  0
 27  9  1  0  0  0  0
 28 29  1  0  0  0  0
 30 34  1  0  0  0  0
 30 33  1  0  0  0  0
 32 29  1  6  0  0  0
 32 31  1  0  0  0  0
 33 31  1  0  0  0  0
 34 32  1  0  0  0  0
M  END
>  <MODEL>
9

>  <REMARK>
 VINA RESULT:      -8.6      2.794      8.463
  Name = 
  3 active torsions:
  status: ('A' for Active; 'I' for Inactive)
    1  A    between atoms: C_17  and  O_28
    2  A    between atoms: O_28  and  C_29
    3  A    between atoms: C_29  and  C_32
                            x       y       z     vdW  Elec       q    Type
                         _______ _______ _______ _____ _____    ______ ____

>  <TORSDO>
F 3

$$$$
