=
 OpenBabel11122411193D

 31 35  0  0  1  0  0  0  0  0999 V2000
  189.9700  175.9170  142.8110 C   0  0  0  0  0  0  0  0  0  0  0  0
  186.5550  177.0370  144.0650 C   0  0  2  0  0  3  0  0  0  0  0  0
  186.8020  177.7440  145.3910 C   0  0  0  0  0  0  0  0  0  0  0  0
  188.1970  178.1770  147.3370 C   0  0  0  0  0  0  0  0  0  0  0  0
  187.8020  176.9280  143.2220 C   0  0  0  0  0  0  0  0  0  0  0  0
  190.1650  176.7690  141.7210 C   0  0  0  0  0  3  0  0  0  0  0  0
  187.9940  177.5460  146.1080 C   0  0  0  0  0  3  0  0  0  0  0  0
  185.9200  178.9840  142.6880 N   0  0  0  0  0  0  0  0  0  0  0  0
  190.9250  175.0170  143.1450 F   0  0  0  0  0  0  0  0  0  0  0  0
  184.5760  178.7300  145.2940 O   0  0  0  0  0  0  0  0  0  0  0  0
  189.4700  177.9690  148.0760 C   0  0  0  0  0  1  0  0  0  0  0  0
  186.8970  178.6810  141.6370 C   0  0  0  0  0  2  0  0  0  0  0  0
  185.4280  177.7170  143.2550 C   0  0  2  0  0  3  0  0  0  0  0  0
  188.7920  175.9940  143.5560 C   0  0  0  0  0  3  0  0  0  0  0  0
  187.2060  179.0020  147.8720 C   0  0  0  0  0  3  0  0  0  0  0  0
  188.0010  177.7850  142.1210 C   0  0  0  0  0  0  0  0  0  0  0  0
  189.1780  177.6940  141.3710 C   0  0  0  0  0  3  0  0  0  0  0  0
  184.2160  177.9330  144.1680 C   0  0  0  0  0  2  0  0  0  0  0  0
  185.7920  178.5490  145.9580 C   0  0  0  0  0  0  0  0  0  0  0  0
  186.0050  179.1860  147.1840 C   0  0  0  0  0  3  0  0  0  0  0  0
  184.2360  177.7170  140.8480 O   0  0  0  0  0  0  0  0  0  0  0  0
  184.0110  178.9280  141.1190 C   0  0  0  0  0  0  0  0  0  0  0  0
  184.8450  179.6220  142.0470 N   0  0  0  0  0  2  0  0  0  0  0  0
  181.5860  178.0730  138.3380 C   0  0  1  0  0  3  0  0  0  0  0  0
  181.5330  178.9640  140.6840 C   0  0  0  0  0  2  0  0  0  0  0  0
  184.3700  180.5230  138.7610 O   0  0  0  0  0  1  0  0  0  0  0  0
  181.4640  176.9210  137.5630 O   0  0  0  0  0  1  0  0  0  0  0  0
  181.3930  177.7170  139.8100 C   0  0  0  0  0  2  0  0  0  0  0  0
  183.1140  179.9490  138.9690 C   0  0  2  0  0  3  0  0  0  0  0  0
  182.8790  179.6630  140.4610 C   0  0  2  0  0  3  0  0  0  0  0  0
  182.9650  178.6870  138.1200 C   0  0  0  0  0  2  0  0  0  0  0  0
  1  9  1  0  0  0  0
  1 14  1  0  0  0  0
  2  5  1  6  0  0  0
  2  3  1  0  0  0  0
  3 19  2  0  0  0  0
  3  7  1  0  0  0  0
  4 15  1  0  0  0  0
  4 11  1  0  0  0  0
  5 14  2  0  0  0  0
  6  1  2  0  0  0  0
  7  4  2  0  0  0  0
  8 13  1  0  0  0  0
 10 19  1  0  0  0  0
 12 16  1  0  0  0  0
 12  8  1  0  0  0  0
 13  2  1  0  0  0  0
 13 18  1  1  0  0  0
 16  5  1  0  0  0  0
 17  6  1  0  0  0  0
 17 16  2  0  0  0  0
 18 10  1  0  0  0  0
 19 20  1  0  0  0  0
 20 15  2  0  0  0  0
 21 22  2  0  0  0  0
 22 23  1  0  0  0  0
 23  8  1  0  0  0  0
 24 27  1  6  0  0  0
 24 28  1  0  0  0  0
 28 25  1  0  0  0  0
 29 26  1  1  0  0  0
 29 30  1  0  0  0  0
 30 25  1  0  0  0  0
 30 22  1  6  0  0  0
 31 24  1  0  0  0  0
 31 29  1  0  0  0  0
M  END
>  <MODEL>
1

>  <REMARK>
 VINA RESULT:      -9.1      0.000      0.000
  Name = 
  2 active torsions:
  status: ('A' for Active; 'I' for Inactive)
    1  A    between atoms: C_5  and  C_30
    2  A    between atoms: N_10  and  N_16
                            x       y       z     vdW  Elec       q    Type
                         _______ _______ _______ _____ _____    ______ ____

>  <TORSDO>
F 2

$$$$
=
 OpenBabel11122411193D

 31 35  0  0  1  0  0  0  0  0999 V2000
  185.7490  178.3630  138.4700 C   0  0  0  0  0  0  0  0  0  0  0  0
  189.3130  177.9780  139.7530 C   0  0  2  0  0  3  0  0  0  0  0  0
  189.1950  177.4450  141.1750 C   0  0  0  0  0  0  0  0  0  0  0  0
  187.9080  177.0940  143.2100 C   0  0  0  0  0  0  0  0  0  0  0  0
  188.0540  177.7680  138.9470 C   0  0  0  0  0  0  0  0  0  0  0  0
  185.6770  177.3390  137.5220 C   0  0  0  0  0  3  0  0  0  0  0  0
  187.9960  177.5600  141.8970 C   0  0  0  0  0  3  0  0  0  0  0  0
  190.2290  175.9710  138.6490 N   0  0  0  0  0  0  0  0  0  0  0  0
  184.6690  179.1450  138.7050 F   0  0  0  0  0  0  0  0  0  0  0  0
  191.5470  176.8090  141.1430 O   0  0  0  0  0  0  0  0  0  0  0  0
  186.6270  177.2090  143.9550 C   0  0  0  0  0  1  0  0  0  0  0  0
  189.2040  175.9610  137.6000 C   0  0  0  0  0  2  0  0  0  0  0  0
  190.5220  177.3670  139.0100 C   0  0  2  0  0  3  0  0  0  0  0  0
  186.9330  178.5780  139.1780 C   0  0  0  0  0  3  0  0  0  0  0  0
  189.0230  176.5180  143.8230 C   0  0  0  0  0  3  0  0  0  0  0  0
  187.9780  176.7380  137.9880 C   0  0  0  0  0  0  0  0  0  0  0  0
  186.7930  176.5360  137.2740 C   0  0  0  0  0  3  0  0  0  0  0  0
  191.7640  177.4770  139.9030 C   0  0  0  0  0  2  0  0  0  0  0  0
  190.3260  176.8970  141.8160 C   0  0  0  0  0  0  0  0  0  0  0  0
  190.2300  176.4220  143.1270 C   0  0  0  0  0  3  0  0  0  0  0  0
  190.2830  173.4830  137.3720 O   0  0  0  0  0  0  0  0  0  0  0  0
  191.3570  174.1440  137.4240 C   0  0  0  0  0  0  0  0  0  0  0  0
  191.3840  175.4170  138.0690 N   0  0  0  0  0  2  0  0  0  0  0  0
  194.5250  175.7320  136.0880 C   0  0  1  0  0  3  0  0  0  0  0  0
  193.8490  173.9200  137.6890 C   0  0  0  0  0  2  0  0  0  0  0  0
  191.7030  173.7970  134.5970 O   0  0  0  0  0  1  0  0  0  0  0  0
  194.8970  177.0710  135.9870 O   0  0  0  0  0  1  0  0  0  0  0  0
  194.2680  175.3840  137.5520 C   0  0  0  0  0  2  0  0  0  0  0  0
  192.8460  174.0260  135.3660 C   0  0  2  0  0  3  0  0  0  0  0  0
  192.6220  173.6010  136.8260 C   0  0  2  0  0  3  0  0  0  0  0  0
  193.2670  175.4900  135.2600 C   0  0  0  0  0  2  0  0  0  0  0  0
  1  9  1  0  0  0  0
  1 14  1  0  0  0  0
  2  5  1  6  0  0  0
  2  3  1  0  0  0  0
  3 19  2  0  0  0  0
  3  7  1  0  0  0  0
  4 15  1  0  0  0  0
  4 11  1  0  0  0  0
  5 14  2  0  0  0  0
  6  1  2  0  0  0  0
  7  4  2  0  0  0  0
  8 13  1  0  0  0  0
 10 19  1  0  0  0  0
 12 16  1  0  0  0  0
 12  8  1  0  0  0  0
 13  2  1  0  0  0  0
 13 18  1  1  0  0  0
 16  5  1  0  0  0  0
 17  6  1  0  0  0  0
 17 16  2  0  0  0  0
 18 10  1  0  0  0  0
 19 20  1  0  0  0  0
 20 15  2  0  0  0  0
 21 22  2  0  0  0  0
 22 23  1  0  0  0  0
 23  8  1  0  0  0  0
 24 27  1  1  0  0  0
 24 28  1  0  0  0  0
 28 25  1  0  0  0  0
 29 26  1  6  0  0  0
 29 30  1  0  0  0  0
 30 22  1  1  0  0  0
 30 25  1  0  0  0  0
 31 29  1  0  0  0  0
 31 24  1  0  0  0  0
M  END
>  <MODEL>
2

>  <REMARK>
 VINA RESULT:      -8.6      5.523      8.452
  Name = 
  2 active torsions:
  status: ('A' for Active; 'I' for Inactive)
    1  A    between atoms: C_5  and  C_30
    2  A    between atoms: N_10  and  N_16
                            x       y       z     vdW  Elec       q    Type
                         _______ _______ _______ _____ _____    ______ ____

>  <TORSDO>
F 2

$$$$
=
 OpenBabel11122411193D

 31 35  0  0  1  0  0  0  0  0999 V2000
  191.1540  176.2520  143.5990 C   0  0  0  0  0  0  0  0  0  0  0  0
  187.4100  176.9400  143.6690 C   0  0  2  0  0  3  0  0  0  0  0  0
  187.1400  177.6780  144.9730 C   0  0  0  0  0  0  0  0  0  0  0  0
  187.7860  178.2900  147.2380 C   0  0  0  0  0  0  0  0  0  0  0  0
  188.8640  176.9860  143.2650 C   0  0  0  0  0  0  0  0  0  0  0  0
  191.5820  177.1190  142.5900 C   0  0  0  0  0  3  0  0  0  0  0  0
  188.0580  177.6340  146.0360 C   0  0  0  0  0  3  0  0  0  0  0  0
  187.0190  178.7860  142.0790 N   0  0  0  0  0  0  0  0  0  0  0  0
  192.0520  175.4810  144.2550 F   0  0  0  0  0  0  0  0  0  0  0  0
  184.9590  178.3760  144.1400 O   0  0  0  0  0  0  0  0  0  0  0  0
  188.7740  178.2480  148.3470 C   0  0  0  0  0  1  0  0  0  0  0  0
  188.3080  178.6050  141.4020 C   0  0  0  0  0  2  0  0  0  0  0  0
  186.5260  177.4700  142.5170 C   0  0  2  0  0  3  0  0  0  0  0  0
  189.8000  176.1840  143.9330 C   0  0  0  0  0  3  0  0  0  0  0  0
  186.5860  178.9870  147.3990 C   0  0  0  0  0  3  0  0  0  0  0  0
  189.2990  177.8560  142.2460 C   0  0  0  0  0  0  0  0  0  0  0  0
  190.6550  177.9110  141.9070 C   0  0  0  0  0  3  0  0  0  0  0  0
  185.0710  177.5370  142.9940 C   0  0  0  0  0  2  0  0  0  0  0  0
  185.9140  178.3520  145.1590 C   0  0  0  0  0  0  0  0  0  0  0  0
  185.6520  179.0160  146.3610 C   0  0  0  0  0  3  0  0  0  0  0  0
  186.7490  177.6850  139.5220 O   0  0  0  0  0  0  0  0  0  0  0  0
  186.0310  178.6800  139.8160 C   0  0  0  0  0  0  0  0  0  0  0  0
  186.1350  179.2830  141.1060 N   0  0  0  0  0  2  0  0  0  0  0  0
  182.5230  177.7730  138.7160 C   0  0  1  0  0  3  0  0  0  0  0  0
  183.8000  179.7940  139.4810 C   0  0  0  0  0  2  0  0  0  0  0  0
  185.8890  177.7530  137.1050 O   0  0  0  0  0  1  0  0  0  0  0  0
  181.6780  176.7450  139.1310 O   0  0  0  0  0  1  0  0  0  0  0  0
  182.8650  178.6620  139.9080 C   0  0  0  0  0  2  0  0  0  0  0  0
  184.7310  178.2940  137.6650 C   0  0  2  0  0  3  0  0  0  0  0  0
  185.0720  179.2560  138.8150 C   0  0  2  0  0  3  0  0  0  0  0  0
  183.7930  177.1770  138.1190 C   0  0  0  0  0  2  0  0  0  0  0  0
  1 14  1  0  0  0  0
  1  9  1  0  0  0  0
  2  5  1  6  0  0  0
  2  3  1  0  0  0  0
  3 19  2  0  0  0  0
  3  7  1  0  0  0  0
  4 15  1  0  0  0  0
  4 11  1  0  0  0  0
  5 14  2  0  0  0  0
  6  1  2  0  0  0  0
  7  4  2  0  0  0  0
  8 13  1  0  0  0  0
 10 19  1  0  0  0  0
 12  8  1  0  0  0  0
 12 16  1  0  0  0  0
 13 18  1  1  0  0  0
 13  2  1  0  0  0  0
 16  5  1  0  0  0  0
 17 16  2  0  0  0  0
 17  6  1  0  0  0  0
 18 10  1  0  0  0  0
 19 20  1  0  0  0  0
 20 15  2  0  0  0  0
 21 22  2  0  0  0  0
 22 23  1  0  0  0  0
 23  8  1  0  0  0  0
 24 27  1  1  0  0  0
 24 28  1  0  0  0  0
 25 28  1  0  0  0  0
 29 26  1  1  0  0  0
 29 31  1  0  0  0  0
 29 30  1  0  0  0  0
 30 25  1  0  0  0  0
 30 22  1  1  0  0  0
 31 24  1  0  0  0  0
M  END
>  <MODEL>
3

>  <REMARK>
 VINA RESULT:      -8.5      1.458      1.693
  Name = 
  2 active torsions:
  status: ('A' for Active; 'I' for Inactive)
    1  A    between atoms: C_5  and  C_30
    2  A    between atoms: N_10  and  N_16
                            x       y       z     vdW  Elec       q    Type
                         _______ _______ _______ _____ _____    ______ ____

>  <TORSDO>
F 2

$$$$
=
 OpenBabel11122411193D

 31 35  0  0  1  0  0  0  0  0999 V2000
  191.3820  176.5750  145.0060 C   0  0  0  0  0  0  0  0  0  0  0  0
  187.7810  176.9120  143.8150 C   0  0  2  0  0  3  0  0  0  0  0  0
  187.0530  177.7070  144.8900 C   0  0  0  0  0  0  0  0  0  0  0  0
  186.8850  178.5290  147.1740 C   0  0  0  0  0  0  0  0  0  0  0  0
  189.2810  177.0650  143.8920 C   0  0  0  0  0  0  0  0  0  0  0  0
  192.0560  177.4070  144.1080 C   0  0  0  0  0  3  0  0  0  0  0  0
  187.5770  177.8220  146.1890 C   0  0  0  0  0  3  0  0  0  0  0  0
  187.8060  178.6000  142.0160 N   0  0  0  0  0  0  0  0  0  0  0  0
  192.0680  175.9370  145.9830 F   0  0  0  0  0  0  0  0  0  0  0  0
  185.2200  178.1400  143.3440 O   0  0  0  0  0  0  0  0  0  0  0  0
  187.4610  178.6550  148.5390 C   0  0  0  0  0  1  0  0  0  0  0  0
  189.2530  178.4950  141.8050 C   0  0  0  0  0  2  0  0  0  0  0  0
  187.2870  177.2770  142.3980 C   0  0  2  0  0  3  0  0  0  0  0  0
  190.0000  176.4020  144.8970 C   0  0  0  0  0  3  0  0  0  0  0  0
  185.6550  179.1200  146.8780 C   0  0  0  0  0  3  0  0  0  0  0  0
  189.9640  177.9020  142.9880 C   0  0  0  0  0  0  0  0  0  0  0  0
  191.3500  178.0600  143.0950 C   0  0  0  0  0  3  0  0  0  0  0  0
  185.7540  177.2380  142.3780 C   0  0  0  0  0  2  0  0  0  0  0  0
  185.7910  178.2740  144.6120 C   0  0  0  0  0  0  0  0  0  0  0  0
  185.1090  178.9910  145.5990 C   0  0  0  0  0  3  0  0  0  0  0  0
  188.4670  177.3180  139.6210 O   0  0  0  0  0  0  0  0  0  0  0  0
  187.6220  178.2540  139.5760 C   0  0  0  0  0  0  0  0  0  0  0  0
  187.2540  178.9440  140.7710 N   0  0  0  0  0  2  0  0  0  0  0  0
  187.4890  176.7050  136.1230 C   0  0  1  0  0  3  0  0  0  0  0  0
  185.9160  177.6880  137.8150 C   0  0  0  0  0  2  0  0  0  0  0  0
  189.0560  179.7550  137.5960 O   0  0  0  0  0  1  0  0  0  0  0  0
  188.0300  175.5150  135.6400 O   0  0  0  0  0  1  0  0  0  0  0  0
  186.5180  176.3960  137.2600 C   0  0  0  0  0  2  0  0  0  0  0  0
  188.0300  178.9170  137.1560 C   0  0  2  0  0  3  0  0  0  0  0  0
  187.0040  178.6680  138.2720 C   0  0  2  0  0  3  0  0  0  0  0  0
  188.6120  177.6100  136.6180 C   0  0  0  0  0  2  0  0  0  0  0  0
  1  9  1  0  0  0  0
  2  5  1  6  0  0  0
  2  3  1  0  0  0  0
  3  7  1  0  0  0  0
  4 11  1  0  0  0  0
  5 14  2  0  0  0  0
  6  1  2  0  0  0  0
  7  4  2  0  0  0  0
  8 13  1  0  0  0  0
 10 19  1  0  0  0  0
 12  8  1  0  0  0  0
 12 16  1  0  0  0  0
 13 18  1  1  0  0  0
 13  2  1  0  0  0  0
 14  1  1  0  0  0  0
 15  4  1  0  0  0  0
 16 17  2  0  0  0  0
 16  5  1  0  0  0  0
 17  6  1  0  0  0  0
 18 10  1  0  0  0  0
 19  3  2  0  0  0  0
 19 20  1  0  0  0  0
 20 15  2  0  0  0  0
 22 21  2  0  0  0  0
 22 23  1  0  0  0  0
 23  8  1  0  0  0  0
 24 27  1  1  0  0  0
 24 31  1  0  0  0  0
 24 28  1  0  0  0  0
 25 30  1  0  0  0  0
 28 25  1  0  0  0  0
 29 26  1  1  0  0  0
 29 30  1  0  0  0  0
 30 22  1  1  0  0  0
 31 29  1  0  0  0  0
M  END
>  <MODEL>
4

>  <REMARK>
 VINA RESULT:      -8.4      2.936      3.573
  Name = 
  2 active torsions:
  status: ('A' for Active; 'I' for Inactive)
    1  A    between atoms: C_5  and  C_30
    2  A    between atoms: N_10  and  N_16
                            x       y       z     vdW  Elec       q    Type
                         _______ _______ _______ _____ _____    ______ ____

>  <TORSDO>
F 2

$$$$
=
 OpenBabel11122411193D

 31 35  0  0  1  0  0  0  0  0999 V2000
  183.5050  178.9000  144.1670 C   0  0  0  0  0  0  0  0  0  0  0  0
  182.6720  177.9490  140.5760 C   0  0  2  0  0  3  0  0  0  0  0  0
  181.5670  178.8990  140.1320 C   0  0  0  0  0  0  0  0  0  0  0  0
  179.7630  180.4460  140.6530 C   0  0  0  0  0  0  0  0  0  0  0  0
  183.4260  178.4550  141.7820 C   0  0  0  0  0  0  0  0  0  0  0  0
  184.7720  179.4700  144.0220 C   0  0  0  0  0  3  0  0  0  0  0  0
  180.7930  179.6010  141.0710 C   0  0  0  0  0  3  0  0  0  0  0  0
  184.5210  178.8120  139.1880 N   0  0  0  0  0  0  0  0  0  0  0  0
  182.9250  178.8410  145.3890 F   0  0  0  0  0  0  0  0  0  0  0  0
  181.9730  178.3030  137.8050 O   0  0  0  0  0  0  0  0  0  0  0  0
  178.9630  181.1940  141.6590 C   0  0  0  0  0  1  0  0  0  0  0  0
  185.4320  178.9670  140.3270 C   0  0  0  0  0  2  0  0  0  0  0  0
  183.6600  177.6430  139.4280 C   0  0  2  0  0  3  0  0  0  0  0  0
  182.8360  178.3920  143.0520 C   0  0  0  0  0  3  0  0  0  0  0  0
  179.4860  180.5910  139.2920 C   0  0  0  0  0  3  0  0  0  0  0  0
  184.7050  179.0300  141.6400 C   0  0  0  0  0  0  0  0  0  0  0  0
  185.3750  179.5250  142.7620 C   0  0  0  0  0  3  0  0  0  0  0  0
  182.8650  177.2540  138.1750 C   0  0  0  0  0  2  0  0  0  0  0  0
  181.2540  179.0220  138.7620 C   0  0  0  0  0  0  0  0  0  0  0  0
  180.2290  179.8780  138.3490 C   0  0  0  0  0  3  0  0  0  0  0  0
  187.2540  178.2440  139.3640 O   0  0  0  0  0  0  0  0  0  0  0  0
  186.7230  178.2470  138.2190 C   0  0  0  0  0  0  0  0  0  0  0  0
  185.3330  178.5370  138.0750 N   0  0  0  0  0  2  0  0  0  0  0  0
  189.8080  176.1560  137.5450 C   0  0  1  0  0  3  0  0  0  0  0  0
  187.5030  176.4830  136.6040 C   0  0  0  0  0  2  0  0  0  0  0  0
  189.0260  179.8050  137.5100 O   0  0  0  0  0  1  0  0  0  0  0  0
  190.5780  175.3720  138.4010 O   0  0  0  0  0  1  0  0  0  0  0  0
  188.3740  175.6330  137.5310 C   0  0  0  0  0  2  0  0  0  0  0  0
  188.9900  178.4740  137.0890 C   0  0  2  0  0  3  0  0  0  0  0  0
  187.5430  177.9650  136.9930 C   0  0  2  0  0  3  0  0  0  0  0  0
  189.8370  177.6050  138.0180 C   0  0  0  0  0  2  0  0  0  0  0  0
  1  9  1  0  0  0  0
  2  3  1  6  0  0  0
  2  5  1  0  0  0  0
  3  7  1  0  0  0  0
  4  7  2  0  0  0  0
  4 11  1  0  0  0  0
  5 14  1  0  0  0  0
  6  1  1  0  0  0  0
  8 13  1  0  0  0  0
  8 12  1  0  0  0  0
 10 18  1  0  0  0  0
 10 19  1  0  0  0  0
 12 16  1  0  0  0  0
 13 18  1  6  0  0  0
 13  2  1  0  0  0  0
 14  1  2  0  0  0  0
 15  4  1  0  0  0  0
 16  5  2  0  0  0  0
 16 17  1  0  0  0  0
 17  6  2  0  0  0  0
 19  3  2  0  0  0  0
 20 19  1  0  0  0  0
 20 15  2  0  0  0  0
 22 21  2  0  0  0  0
 23 22  1  0  0  0  0
 23  8  1  0  0  0  0
 24 31  1  0  0  0  0
 24 27  1  1  0  0  0
 25 30  1  0  0  0  0
 25 28  1  0  0  0  0
 28 24  1  0  0  0  0
 29 26  1  1  0  0  0
 29 31  1  0  0  0  0
 30 29  1  0  0  0  0
 30 22  1  1  0  0  0
M  END
>  <MODEL>
5

>  <REMARK>
 VINA RESULT:      -8.0      3.751      7.297
  Name = 
  2 active torsions:
  status: ('A' for Active; 'I' for Inactive)
    1  A    between atoms: C_5  and  C_30
    2  A    between atoms: N_10  and  N_16
                            x       y       z     vdW  Elec       q    Type
                         _______ _______ _______ _____ _____    ______ ____

>  <TORSDO>
F 2

$$$$
=
 OpenBabel11122411193D

 31 35  0  0  1  0  0  0  0  0999 V2000
  179.6870  178.6980  142.0980 C   0  0  0  0  0  0  0  0  0  0  0  0
  183.0950  179.1590  140.4650 C   0  0  2  0  0  3  0  0  0  0  0  0
  184.1260  178.8370  141.5380 C   0  0  0  0  0  0  0  0  0  0  0  0
  184.7430  178.5760  143.8780 C   0  0  0  0  0  0  0  0  0  0  0  0
  181.7280  178.6060  140.7860 C   0  0  0  0  0  0  0  0  0  0  0  0
  179.2210  177.5460  141.4610 C   0  0  0  0  0  3  0  0  0  0  0  0
  183.7820  178.8440  142.9000 C   0  0  0  0  0  3  0  0  0  0  0  0
  183.4250  177.2030  138.9960 N   0  0  0  0  0  0  0  0  0  0  0  0
  178.9310  179.3010  143.0460 F   0  0  0  0  0  0  0  0  0  0  0  0
  185.8550  178.6360  139.8340 O   0  0  0  0  0  0  0  0  0  0  0  0
  184.3600  178.5730  145.3140 C   0  0  0  0  0  1  0  0  0  0  0  0
  182.0010  176.8500  138.9850 C   0  0  0  0  0  2  0  0  0  0  0  0
  183.5470  178.6680  139.0710 C   0  0  2  0  0  3  0  0  0  0  0  0
  180.9340  179.2280  141.7600 C   0  0  0  0  0  3  0  0  0  0  0  0
  186.0630  178.3100  143.5070 C   0  0  0  0  0  3  0  0  0  0  0  0
  181.2530  177.4450  140.1440 C   0  0  0  0  0  0  0  0  0  0  0  0
  179.9980  176.9270  140.4780 C   0  0  0  0  0  3  0  0  0  0  0  0
  184.9870  179.1340  138.8200 C   0  0  0  0  0  2  0  0  0  0  0  0
  185.4700  178.6050  141.1760 C   0  0  0  0  0  0  0  0  0  0  0  0
  186.4250  178.3270  142.1580 C   0  0  0  0  0  3  0  0  0  0  0  0
  183.8200  174.5210  138.3090 O   0  0  0  0  0  0  0  0  0  0  0  0
  184.1170  175.4000  137.4540 C   0  0  0  0  0  0  0  0  0  0  0  0
  183.9390  176.7840  137.7580 N   0  0  0  0  0  2  0  0  0  0  0  0
  184.5300  172.1020  135.6390 C   0  0  1  0  0  3  0  0  0  0  0  0
  183.6060  174.3960  135.2040 C   0  0  0  0  0  2  0  0  0  0  0  0
  186.8570  174.6330  137.0900 O   0  0  0  0  0  1  0  0  0  0  0  0
  184.1990  170.8050  136.0270 O   0  0  0  0  0  1  0  0  0  0  0  0
  183.2690  172.9620  135.6180 C   0  0  0  0  0  2  0  0  0  0  0  0
  185.9140  174.1050  136.2060 C   0  0  2  0  0  3  0  0  0  0  0  0
  184.6750  175.0100  136.1160 C   0  0  2  0  0  3  0  0  0  0  0  0
  185.5470  172.6800  136.6170 C   0  0  0  0  0  2  0  0  0  0  0  0
  1  9  1  0  0  0  0
  2  5  1  1  0  0  0
  2  3  1  0  0  0  0
  3  7  1  0  0  0  0
  4 11  1  0  0  0  0
  5 14  2  0  0  0  0
  6  1  2  0  0  0  0
  7  4  2  0  0  0  0
  8 13  1  0  0  0  0
 10 19  1  0  0  0  0
 12  8  1  0  0  0  0
 12 16  1  0  0  0  0
 13 18  1  1  0  0  0
 13  2  1  0  0  0  0
 14  1  1  0  0  0  0
 15  4  1  0  0  0  0
 16 17  2  0  0  0  0
 16  5  1  0  0  0  0
 17  6  1  0  0  0  0
 18 10  1  0  0  0  0
 19  3  2  0  0  0  0
 19 20  1  0  0  0  0
 20 15  2  0  0  0  0
 22 23  1  0  0  0  0
 22 21  2  0  0  0  0
 23  8  1  0  0  0  0
 24 27  1  1  0  0  0
 24 31  1  0  0  0  0
 25 28  1  0  0  0  0
 25 30  1  0  0  0  0
 28 24  1  0  0  0  0
 29 31  1  0  0  0  0
 29 26  1  1  0  0  0
 30 29  1  0  0  0  0
 30 22  1  1  0  0  0
M  END
>  <MODEL>
6

>  <REMARK>
 VINA RESULT:      -8.0      4.258      6.850
  Name = 
  2 active torsions:
  status: ('A' for Active; 'I' for Inactive)
    1  A    between atoms: C_5  and  C_30
    2  A    between atoms: N_10  and  N_16
                            x       y       z     vdW  Elec       q    Type
                         _______ _______ _______ _____ _____    ______ ____

>  <TORSDO>
F 2

$$$$
=
 OpenBabel11122411193D

 31 35  0  0  1  0  0  0  0  0999 V2000
  185.9980  177.9260  138.1780 C   0  0  0  0  0  0  0  0  0  0  0  0
  189.6130  177.7220  139.3550 C   0  0  2  0  0  3  0  0  0  0  0  0
  189.5610  177.2580  140.8040 C   0  0  0  0  0  0  0  0  0  0  0  0
  188.3550  176.9690  142.8970 C   0  0  0  0  0  0  0  0  0  0  0  0
  188.3370  177.4310  138.6040 C   0  0  0  0  0  0  0  0  0  0  0  0
  185.9300  176.8540  137.2850 C   0  0  0  0  0  3  0  0  0  0  0  0
  188.3830  177.3710  141.5610 C   0  0  0  0  0  3  0  0  0  0  0  0
  190.5610  175.6920  138.3200 N   0  0  0  0  0  0  0  0  0  0  0  0
  184.9000  178.6840  138.4110 F   0  0  0  0  0  0  0  0  0  0  0  0
  191.9310  176.6980  140.7230 O   0  0  0  0  0  0  0  0  0  0  0  0
  187.0960  177.0800  143.6800 C   0  0  0  0  0  1  0  0  0  0  0  0
  189.5020  175.5960  137.3090 C   0  0  0  0  0  2  0  0  0  0  0  0
  190.8180  177.1140  138.6010 C   0  0  2  0  0  3  0  0  0  0  0  0
  187.1980  178.2150  138.8330 C   0  0  0  0  0  3  0  0  0  0  0  0
  189.5080  176.4610  143.5000 C   0  0  0  0  0  3  0  0  0  0  0  0
  188.2650  176.3520  137.7000 C   0  0  0  0  0  0  0  0  0  0  0  0
  187.0640  176.0760  137.0380 C   0  0  0  0  0  3  0  0  0  0  0  0
  192.0840  177.3090  139.4440 C   0  0  0  0  0  2  0  0  0  0  0  0
  190.7300  176.7800  141.4320 C   0  0  0  0  0  0  0  0  0  0  0  0
  190.6940  176.3690  142.7680 C   0  0  0  0  0  3  0  0  0  0  0  0
  191.3510  176.2190  135.6890 O   0  0  0  0  0  0  0  0  0  0  0  0
  192.0760  175.4530  136.3820 C   0  0  0  0  0  0  0  0  0  0  0  0
  191.7140  175.1480  137.7290 N   0  0  0  0  0  2  0  0  0  0  0  0
  194.8850  173.3550  137.8130 C   0  0  1  0  0  3  0  0  0  0  0  0
  193.2890  173.3070  135.8760 C   0  0  0  0  0  2  0  0  0  0  0  0
  194.6120  176.7950  136.3920 O   0  0  0  0  0  1  0  0  0  0  0  0
  195.1030  172.8930  139.1100 O   0  0  0  0  0  1  0  0  0  0  0  0
  193.5580  172.8070  137.2960 C   0  0  0  0  0  2  0  0  0  0  0  0
  194.6180  175.3990  136.3980 C   0  0  2  0  0  3  0  0  0  0  0  0
  193.3170  174.8390  135.8020 C   0  0  2  0  0  3  0  0  0  0  0  0
  194.8630  174.8790  137.8140 C   0  0  0  0  0  2  0  0  0  0  0  0
  1  9  1  0  0  0  0
  1 14  1  0  0  0  0
  2  5  1  6  0  0  0
  2  3  1  0  0  0  0
  3 19  2  0  0  0  0
  3  7  1  0  0  0  0
  4 15  1  0  0  0  0
  4 11  1  0  0  0  0
  5 14  2  0  0  0  0
  6  1  2  0  0  0  0
  7  4  2  0  0  0  0
  8 13  1  0  0  0  0
 10 19  1  0  0  0  0
 12 16  1  0  0  0  0
 12  8  1  0  0  0  0
 13  2  1  0  0  0  0
 13 18  1  1  0  0  0
 16  5  1  0  0  0  0
 17  6  1  0  0  0  0
 17 16  2  0  0  0  0
 18 10  1  0  0  0  0
 19 20  1  0  0  0  0
 20 15  2  0  0  0  0
 21 22  2  0  0  0  0
 22 23  1  0  0  0  0
 23  8  1  0  0  0  0
 24 31  1  0  0  0  0
 24 27  1  1  0  0  0
 25 28  1  0  0  0  0
 28 24  1  0  0  0  0
 29 26  1  1  0  0  0
 29 31  1  0  0  0  0
 30 25  1  0  0  0  0
 30 22  1  1  0  0  0
 30 29  1  0  0  0  0
M  END
>  <MODEL>
7

>  <REMARK>
 VINA RESULT:      -7.8      5.838      8.878
  Name = 
  2 active torsions:
  status: ('A' for Active; 'I' for Inactive)
    1  A    between atoms: C_5  and  C_30
    2  A    between atoms: N_10  and  N_16
                            x       y       z     vdW  Elec       q    Type
                         _______ _______ _______ _____ _____    ______ ____

>  <TORSDO>
F 2

$$$$
=
 OpenBabel11122411193D

 31 35  0  0  1  0  0  0  0  0999 V2000
  191.6370  177.3510  140.7620 C   0  0  0  0  0  0  0  0  0  0  0  0
  189.2950  178.0160  137.8360 C   0  0  2  0  0  3  0  0  0  0  0  0
  189.2030  176.7080  137.0620 C   0  0  0  0  0  0  0  0  0  0  0  0
  190.0940  174.5200  136.4800 C   0  0  0  0  0  0  0  0  0  0  0  0
  189.8030  177.8250  139.2450 C   0  0  0  0  0  0  0  0  0  0  0  0
  190.7540  177.3790  141.8440 C   0  0  0  0  0  3  0  0  0  0  0  0
  190.1720  175.7030  137.2170 C   0  0  0  0  0  3  0  0  0  0  0  0
  187.0160  178.0820  138.7800 N   0  0  0  0  0  0  0  0  0  0  0  0
  192.9530  177.1030  140.9690 F   0  0  0  0  0  0  0  0  0  0  0  0
  187.2240  177.5230  135.8980 O   0  0  0  0  0  0  0  0  0  0  0  0
  191.1190  173.4600  136.6670 C   0  0  0  0  0  1  0  0  0  0  0  0
  187.4860  178.2780  140.1550 C   0  0  0  0  0  2  0  0  0  0  0  0
  187.9420  178.7630  137.8610 C   0  0  2  0  0  3  0  0  0  0  0  0
  191.1640  177.5760  139.4680 C   0  0  0  0  0  3  0  0  0  0  0  0
  189.0530  174.3320  135.5680 C   0  0  0  0  0  3  0  0  0  0  0  0
  188.9150  177.8540  140.3390 C   0  0  0  0  0  0  0  0  0  0  0  0
  189.3980  177.6410  141.6340 C   0  0  0  0  0  3  0  0  0  0  0  0
  187.3830  178.8330  136.4350 C   0  0  0  0  0  2  0  0  0  0  0  0
  188.1770  176.5240  136.1110 C   0  0  0  0  0  0  0  0  0  0  0  0
  188.0980  175.3340  135.3830 C   0  0  0  0  0  3  0  0  0  0  0  0
  184.6510  176.7900  138.0330 O   0  0  0  0  0  0  0  0  0  0  0  0
  184.5880  178.0170  138.3180 C   0  0  0  0  0  0  0  0  0  0  0  0
  185.7690  178.7240  138.7000 N   0  0  0  0  0  2  0  0  0  0  0  0
  181.0620  177.2400  139.4570 C   0  0  1  0  0  3  0  0  0  0  0  0
  182.7390  179.0990  139.6370 C   0  0  0  0  0  2  0  0  0  0  0  0
  182.7390  177.6730  136.1520 O   0  0  0  0  0  1  0  0  0  0  0  0
  180.5420  176.1200  140.1030 O   0  0  0  0  0  1  0  0  0  0  0  0
  182.1450  177.8710  140.3280 C   0  0  0  0  0  2  0  0  0  0  0  0
  182.2200  178.0460  137.3930 C   0  0  2  0  0  3  0  0  0  0  0  0
  183.2840  178.7560  138.2450 C   0  0  2  0  0  3  0  0  0  0  0  0
  181.6420  176.8260  138.1100 C   0  0  0  0  0  2  0  0  0  0  0  0
  1  9  1  0  0  0  0
  1  6  1  0  0  0  0
  2  3  1  1  0  0  0
  2 13  1  0  0  0  0
  2  5  1  0  0  0  0
  3  7  1  0  0  0  0
  4 11  1  0  0  0  0
  4  7  2  0  0  0  0
  5 14  1  0  0  0  0
  5 16  2  0  0  0  0
  8 12  1  0  0  0  0
 10 19  1  0  0  0  0
 10 18  1  0  0  0  0
 12 16  1  0  0  0  0
 13 18  1  6  0  0  0
 13  8  1  0  0  0  0
 14  1  2  0  0  0  0
 15  4  1  0  0  0  0
 16 17  1  0  0  0  0
 17  6  2  0  0  0  0
 19  3  2  0  0  0  0
 20 15  2  0  0  0  0
 20 19  1  0  0  0  0
 21 22  2  0  0  0  0
 22 23  1  0  0  0  0
 23  8  1  0  0  0  0
 24 27  1  1  0  0  0
 24 28  1  0  0  0  0
 25 28  1  0  0  0  0
 29 26  1  6  0  0  0
 29 31  1  0  0  0  0
 29 30  1  0  0  0  0
 30 22  1  1  0  0  0
 30 25  1  0  0  0  0
 31 24  1  0  0  0  0
M  END
>  <MODEL>
8

>  <REMARK>
 VINA RESULT:      -7.8      3.766      6.518
  Name = 
  2 active torsions:
  status: ('A' for Active; 'I' for Inactive)
    1  A    between atoms: C_5  and  C_30
    2  A    between atoms: N_10  and  N_16
                            x       y       z     vdW  Elec       q    Type
                         _______ _______ _______ _____ _____    ______ ____

>  <TORSDO>
F 2

$$$$
=
 OpenBabel11122411193D

 31 35  0  0  1  0  0  0  0  0999 V2000
  189.1260  178.0250  143.3060 C   0  0  0  0  0  0  0  0  0  0  0  0
  186.6650  178.9840  140.5640 C   0  0  2  0  0  3  0  0  0  0  0  0
  186.9890  178.0900  139.3740 C   0  0  0  0  0  0  0  0  0  0  0  0
  188.5260  176.6460  138.1610 C   0  0  0  0  0  0  0  0  0  0  0  0
  187.2220  178.4500  141.8620 C   0  0  0  0  0  0  0  0  0  0  0  0
  188.2900  177.3860  144.2260 C   0  0  0  0  0  3  0  0  0  0  0  0
  188.2290  177.4400  139.2700 C   0  0  0  0  0  3  0  0  0  0  0  0
  184.4940  178.0100  141.2160 N   0  0  0  0  0  0  0  0  0  0  0  0
  190.4530  178.1260  143.5550 F   0  0  0  0  0  0  0  0  0  0  0  0
  184.8420  178.6410  138.3620 O   0  0  0  0  0  0  0  0  0  0  0  0
  189.8370  175.9520  138.0740 C   0  0  0  0  0  1  0  0  0  0  0  0
  184.8900  177.8180  142.6150 C   0  0  0  0  0  2  0  0  0  0  0  0
  185.1460  179.2260  140.7030 C   0  0  2  0  0  3  0  0  0  0  0  0
  188.5930  178.5570  142.1300 C   0  0  0  0  0  3  0  0  0  0  0  0
  187.5910  176.5030  137.1330 C   0  0  0  0  0  3  0  0  0  0  0  0
  186.3810  177.8070  142.7920 C   0  0  0  0  0  0  0  0  0  0  0  0
  186.9190  177.2870  143.9740 C   0  0  0  0  0  3  0  0  0  0  0  0
  184.5800  179.6450  139.3400 C   0  0  0  0  0  2  0  0  0  0  0  0
  186.0660  177.9710  138.3130 C   0  0  0  0  0  0  0  0  0  0  0  0
  186.3640  177.1670  137.2090 C   0  0  0  0  0  3  0  0  0  0  0  0
  182.6650  176.4870  139.7480 O   0  0  0  0  0  0  0  0  0  0  0  0
  182.2140  177.4200  140.4660 C   0  0  0  0  0  0  0  0  0  0  0  0
  183.1060  178.2310  141.2310 N   0  0  0  0  0  2  0  0  0  0  0  0
  179.2390  176.2470  138.4380 C   0  0  1  0  0  3  0  0  0  0  0  0
  179.9230  176.4490  140.8450 C   0  0  0  0  0  2  0  0  0  0  0  0
  180.9900  179.5060  138.9240 O   0  0  0  0  0  1  0  0  0  0  0  0
  179.1670  175.3760  137.3520 O   0  0  0  0  0  1  0  0  0  0  0  0
  179.8250  175.5110  139.6410 C   0  0  0  0  0  2  0  0  0  0  0  0
  180.2040  178.4020  139.2580 C   0  0  2  0  0  3  0  0  0  0  0  0
  180.7410  177.7040  140.5180 C   0  0  2  0  0  3  0  0  0  0  0  0
  180.1120  177.4420  138.0730 C   0  0  0  0  0  2  0  0  0  0  0  0
  1  9  1  0  0  0  0
  1  6  1  0  0  0  0
  2  3  1  6  0  0  0
  2 13  1  0  0  0  0
  2  5  1  0  0  0  0
  4  7  2  0  0  0  0
  5 14  1  0  0  0  0
  5 16  2  0  0  0  0
  7  3  1  0  0  0  0
  8 23  1  0  0  0  0
  8 12  1  0  0  0  0
 10 18  1  0  0  0  0
 11  4  1  0  0  0  0
 12 16  1  0  0  0  0
 13 18  1  6  0  0  0
 13  8  1  0  0  0  0
 14  1  2  0  0  0  0
 15 20  2  0  0  0  0
 15  4  1  0  0  0  0
 16 17  1  0  0  0  0
 17  6  2  0  0  0  0
 19 10  1  0  0  0  0
 19  3  2  0  0  0  0
 20 19  1  0  0  0  0
 21 22  2  0  0  0  0
 22 23  1  0  0  0  0
 24 27  1  6  0  0  0
 24 28  1  0  0  0  0
 28 25  1  0  0  0  0
 29 26  1  6  0  0  0
 29 30  1  0  0  0  0
 30 22  1  6  0  0  0
 30 25  1  0  0  0  0
 31 24  1  0  0  0  0
 31 29  1  0  0  0  0
M  END
>  <MODEL>
9

>  <REMARK>
 VINA RESULT:      -7.7      2.444      5.123
  Name = 
  2 active torsions:
  status: ('A' for Active; 'I' for Inactive)
    1  A    between atoms: C_5  and  C_30
    2  A    between atoms: N_10  and  N_16
                            x       y       z     vdW  Elec       q    Type
                         _______ _______ _______ _____ _____    ______ ____

>  <TORSDO>
F 2

$$$$
