=
 OpenBabel11122410323D

 30 35  0  0  1  0  0  0  0  0999 V2000
  185.1820  178.9650  139.6830 C   0  0  2  0  0  3  0  0  0  0  0  0
  185.6450  178.0330  137.3410 C   0  0  0  0  0  0  0  0  0  0  0  0
  188.7110  177.2830  140.9160 O   0  0  0  0  0  0  0  0  0  0  0  0
  185.5070  178.4390  141.0910 C   0  0  2  0  0  3  0  0  0  0  0  0
  183.7970  178.9800  139.3090 O   0  0  0  0  0  0  0  0  0  0  0  0
  182.2010  178.8010  142.4410 O   0  0  0  0  0  0  0  0  0  0  0  0
  185.3330  178.3100  144.2530 C   0  0  1  0  0  3  0  0  0  0  0  0
  183.1600  178.7130  141.6300 C   0  0  0  0  0  0  0  0  0  0  0  0
  186.3590  177.3580  143.6380 C   0  0  2  0  0  3  0  0  0  0  0  0
  188.4690  177.1250  142.2600 C   0  0  0  0  0  0  0  0  0  0  0  0
  182.9200  178.3090  140.2080 C   0  0  2  0  0  3  0  0  0  0  0  0
  184.5140  178.9490  142.0310 N   0  0  0  0  0  0  0  0  0  0  0  0
  186.5260  177.4640  136.4190 C   0  0  0  0  0  3  0  0  0  0  0  0
  186.9760  176.7440  144.8730 C   0  0  0  0  0  2  0  0  0  0  0  0
  185.8830  178.8040  145.5060 N   0  0  0  0  0  2  0  0  0  0  0  0
  184.3870  178.3220  136.9270 F   0  0  0  0  0  0  0  0  0  0  0  0
  187.9730  178.3660  140.3830 C   0  0  2  0  0  3  0  0  0  0  0  0
  187.8410  177.1790  136.7810 C   0  0  0  0  0  3  0  0  0  0  0  0
  186.0750  178.3060  138.6600 C   0  0  0  0  0  0  0  0  0  0  0  0
  186.9560  178.7730  141.4850 C   0  0  2  0  0  3  0  0  0  0  0  0
  189.1090  176.3000  142.9640 O   0  0  0  0  0  0  0  0  0  0  0  0
  187.4470  178.0690  142.7870 C   0  0  1  0  0  3  0  0  0  0  0  0
  186.7970  177.7710  145.9780 C   0  0  0  0  0  2  0  0  0  0  0  0
  183.8950  180.2150  143.9380 O   0  0  0  0  0  1  0  0  0  0  0  0
  188.2840  177.4670  138.0700 C   0  0  0  0  0  3  0  0  0  0  0  0
  187.4160  178.0240  139.0180 C   0  0  0  0  0  0  0  0  0  0  0  0
  184.9120  179.4600  143.3470 C   0  0  1  0  0  3  0  0  0  0  0  0
  182.9970  176.8210  140.0450 C   0  0  0  0  0  3  0  0  0  0  0  0
  182.8570  174.7760  138.7190 C   0  0  0  0  0  1  0  0  0  0  0  0
  182.7710  176.2550  138.8630 C   0  0  0  0  0  3  0  0  0  0  0  0
  1 19  1  6  0  0  0
  1  4  1  0  0  0  0
  2 19  1  0  0  0  0
  3 10  1  0  0  0  0
  4 20  1  0  0  0  0
  4 12  1  1  0  0  0
  5  1  1  0  0  0  0
  5 11  1  0  0  0  0
  7 15  1  1  0  0  0
  8 12  1  0  0  0  0
  8  6  2  0  0  0  0
  9  7  1  0  0  0  0
  9 14  1  1  0  0  0
 10 22  1  0  0  0  0
 10 21  2  0  0  0  0
 11 28  1  1  0  0  0
 11  8  1  0  0  0  0
 12 27  1  0  0  0  0
 13 18  1  0  0  0  0
 13  2  2  0  0  0  0
 14 23  1  0  0  0  0
 15 23  1  0  0  0  0
 16  2  1  0  0  0  0
 17 26  1  6  0  0  0
 17  3  1  0  0  0  0
 17 20  1  0  0  0  0
 18 25  2  0  0  0  0
 19 26  2  0  0  0  0
 20 22  1  0  0  0  0
 22  9  1  0  0  0  0
 25 26  1  0  0  0  0
 27 24  1  0  0  0  0
 27  7  1  0  0  0  0
 29 30  1  0  0  0  0
 30 28  2  0  0  0  0
M  END
>  <MODEL>
1

>  <REMARK>
 VINA RESULT:      -7.8      0.000      0.000
  Name = 
  1 active torsions:
  status: ('A' for Active; 'I' for Inactive)
    1  A    between atoms: C_11  and  C_28
                            x       y       z     vdW  Elec       q    Type
                         _______ _______ _______ _____ _____    ______ ____

>  <TORSDO>
F 1

$$$$
=
 OpenBabel11122410323D

 30 35  0  0  1  0  0  0  0  0999 V2000
  188.0280  178.4330  138.2970 C   0  0  2  0  0  3  0  0  0  0  0  0
  189.1170  177.3730  136.2340 C   0  0  0  0  0  0  0  0  0  0  0  0
  190.7600  176.4370  140.6110 O   0  0  0  0  0  0  0  0  0  0  0  0
  187.8190  177.9270  139.7350 C   0  0  2  0  0  3  0  0  0  0  0  0
  186.8490  178.5780  137.4930 O   0  0  0  0  0  0  0  0  0  0  0  0
  184.3170  178.6810  139.9360 O   0  0  0  0  0  0  0  0  0  0  0  0
  186.6200  177.9310  142.6680 C   0  0  1  0  0  3  0  0  0  0  0  0
  185.4710  178.4640  139.4810 C   0  0  0  0  0  0  0  0  0  0  0  0
  187.6790  176.8560  142.4210 C   0  0  2  0  0  3  0  0  0  0  0  0
  190.0810  176.3540  141.8030 C   0  0  0  0  0  0  0  0  0  0  0  0
  185.6600  178.0360  138.0580 C   0  0  2  0  0  3  0  0  0  0  0  0
  186.6390  178.5720  140.3010 N   0  0  0  0  0  0  0  0  0  0  0  0
  190.1800  176.6830  135.6480 C   0  0  0  0  0  3  0  0  0  0  0  0
  187.7910  176.2260  143.7900 C   0  0  0  0  0  2  0  0  0  0  0  0
  186.7870  178.4110  144.0310 N   0  0  0  0  0  2  0  0  0  0  0  0
  188.1000  177.7770  135.4330 F   0  0  0  0  0  0  0  0  0  0  0  0
  190.3590  177.5720  139.8670 C   0  0  2  0  0  3  0  0  0  0  0  0
  191.2670  176.2760  136.4180 C   0  0  0  0  0  3  0  0  0  0  0  0
  189.1250  177.6480  137.6200 C   0  0  0  0  0  0  0  0  0  0  0  0
  189.0910  178.1220  140.5790 C   0  0  2  0  0  3  0  0  0  0  0  0
  190.3630  175.4930  142.6770 O   0  0  0  0  0  0  0  0  0  0  0  0
  189.0550  177.4180  141.9690 C   0  0  1  0  0  3  0  0  0  0  0  0
  187.3790  177.3050  144.7750 C   0  0  0  0  0  2  0  0  0  0  0  0
  185.5820  179.9630  141.9020 O   0  0  0  0  0  1  0  0  0  0  0  0
  191.2990  176.5620  137.7810 C   0  0  0  0  0  3  0  0  0  0  0  0
  190.2380  177.2400  138.3950 C   0  0  0  0  0  0  0  0  0  0  0  0
  186.6450  179.0860  141.6740 C   0  0  1  0  0  3  0  0  0  0  0  0
  185.6200  176.5430  137.9300 C   0  0  0  0  0  3  0  0  0  0  0  0
  185.6290  174.4790  136.6260 C   0  0  0  0  0  1  0  0  0  0  0  0
  185.6640  175.9630  136.7340 C   0  0  0  0  0  3  0  0  0  0  0  0
  1  5  1  6  0  0  0
  1  4  1  0  0  0  0
  2 19  1  0  0  0  0
  3 10  1  0  0  0  0
  4 12  1  1  0  0  0
  4 20  1  0  0  0  0
  5 11  1  0  0  0  0
  7 15  1  1  0  0  0
  8  6  2  0  0  0  0
  8 12  1  0  0  0  0
  9  7  1  0  0  0  0
  9 14  1  1  0  0  0
 10 22  1  0  0  0  0
 10 21  2  0  0  0  0
 11 28  1  1  0  0  0
 11  8  1  0  0  0  0
 12 27  1  0  0  0  0
 13  2  2  0  0  0  0
 13 18  1  0  0  0  0
 14 23  1  0  0  0  0
 15 23  1  0  0  0  0
 16  2  1  0  0  0  0
 17 26  1  6  0  0  0
 17 20  1  0  0  0  0
 17  3  1  0  0  0  0
 18 25  2  0  0  0  0
 19  1  1  0  0  0  0
 19 26  2  0  0  0  0
 20 22  1  0  0  0  0
 22  9  1  0  0  0  0
 25 26  1  0  0  0  0
 27 24  1  0  0  0  0
 27  7  1  0  0  0  0
 29 30  1  0  0  0  0
 30 28  2  0  0  0  0
M  END
>  <MODEL>
2

>  <REMARK>
 VINA RESULT:      -7.4      2.048      2.884
  Name = 
  1 active torsions:
  status: ('A' for Active; 'I' for Inactive)
    1  A    between atoms: C_11  and  C_28
                            x       y       z     vdW  Elec       q    Type
                         _______ _______ _______ _____ _____    ______ ____

>  <TORSDO>
F 1

$$$$
=
 OpenBabel11122410323D

 30 35  0  0  1  0  0  0  0  0999 V2000
  187.9530  177.7120  137.5560 C   0  0  2  0  0  3  0  0  0  0  0  0
  189.7170  176.1760  136.5090 C   0  0  0  0  0  0  0  0  0  0  0  0
  189.8910  177.2890  141.1430 O   0  0  0  0  0  0  0  0  0  0  0  0
  187.3160  177.7580  138.9550 C   0  0  2  0  0  3  0  0  0  0  0  0
  187.0950  177.3200  136.4750 O   0  0  0  0  0  0  0  0  0  0  0  0
  183.9020  177.8610  137.8540 O   0  0  0  0  0  0  0  0  0  0  0  0
  185.2250  178.6450  141.1650 C   0  0  1  0  0  3  0  0  0  0  0  0
  185.1520  177.7090  137.8670 C   0  0  0  0  0  0  0  0  0  0  0  0
  186.3680  177.7740  141.6900 C   0  0  2  0  0  3  0  0  0  0  0  0
  188.8650  177.5360  142.0240 C   0  0  0  0  0  0  0  0  0  0  0  0
  185.8210  176.8190  136.8650 C   0  0  2  0  0  3  0  0  0  0  0  0
  185.9800  178.3350  138.8520 N   0  0  0  0  0  0  0  0  0  0  0  0
  190.9520  175.5280  136.5820 C   0  0  0  0  0  3  0  0  0  0  0  0
  186.0630  177.7410  143.1700 C   0  0  0  0  0  2  0  0  0  0  0  0
  184.9090  179.6260  142.1920 N   0  0  0  0  0  2  0  0  0  0  0  0
  188.9970  176.0500  135.3680 F   0  0  0  0  0  0  0  0  0  0  0  0
  189.6890  177.9610  139.9140 C   0  0  2  0  0  3  0  0  0  0  0  0
  191.7500  175.6540  137.7170 C   0  0  0  0  0  3  0  0  0  0  0  0
  189.2560  176.9510  137.5980 C   0  0  0  0  0  0  0  0  0  0  0  0
  188.2280  178.4920  139.9540 C   0  0  2  0  0  3  0  0  0  0  0  0
  188.8960  177.1390  143.2190 O   0  0  0  0  0  0  0  0  0  0  0  0
  187.7800  178.3720  141.4420 C   0  0  1  0  0  3  0  0  0  0  0  0
  185.2890  179.0150  143.4610 C   0  0  0  0  0  2  0  0  0  0  0  0
  184.3770  180.0040  139.3680 O   0  0  0  0  0  1  0  0  0  0  0  0
  191.3170  176.4340  138.7880 C   0  0  0  0  0  3  0  0  0  0  0  0
  190.0760  177.0820  138.7450 C   0  0  0  0  0  0  0  0  0  0  0  0
  185.5060  179.3210  139.8290 C   0  0  1  0  0  3  0  0  0  0  0  0
  185.9130  175.4090  137.3660 C   0  0  0  0  0  3  0  0  0  0  0  0
  186.4740  173.0480  137.1020 C   0  0  0  0  0  1  0  0  0  0  0  0
  186.3850  174.4410  136.5860 C   0  0  0  0  0  3  0  0  0  0  0  0
  1  5  1  6  0  0  0
  1 19  1  0  0  0  0
  1  4  1  0  0  0  0
  2 13  2  0  0  0  0
  2 19  1  0  0  0  0
  3 10  1  0  0  0  0
  4 12  1  6  0  0  0
  4 20  1  0  0  0  0
  5 11  1  0  0  0  0
  6  8  2  0  0  0  0
  7  9  1  0  0  0  0
  7 15  1  1  0  0  0
  8 12  1  0  0  0  0
  9 14  1  1  0  0  0
 10 21  2  0  0  0  0
 11 28  1  1  0  0  0
 11  8  1  0  0  0  0
 12 27  1  0  0  0  0
 13 18  1  0  0  0  0
 14 23  1  0  0  0  0
 15 23  1  0  0  0  0
 16  2  1  0  0  0  0
 17 26  1  6  0  0  0
 17 20  1  0  0  0  0
 17  3  1  0  0  0  0
 18 25  2  0  0  0  0
 19 26  2  0  0  0  0
 20 22  1  0  0  0  0
 22  9  1  0  0  0  0
 22 10  1  0  0  0  0
 24 27  1  0  0  0  0
 26 25  1  0  0  0  0
 27  7  1  0  0  0  0
 30 29  1  0  0  0  0
 30 28  2  0  0  0  0
M  END
>  <MODEL>
3

>  <REMARK>
 VINA RESULT:      -6.7      2.326      3.607
  Name = 
  1 active torsions:
  status: ('A' for Active; 'I' for Inactive)
    1  A    between atoms: C_11  and  C_28
                            x       y       z     vdW  Elec       q    Type
                         _______ _______ _______ _____ _____    ______ ____

>  <TORSDO>
F 1

$$$$
=
 OpenBabel11122410323D

 30 35  0  0  1  0  0  0  0  0999 V2000
  185.9220  178.2660  138.0020 C   0  0  2  0  0  3  0  0  0  0  0  0
  188.2070  177.1080  138.0750 C   0  0  0  0  0  0  0  0  0  0  0  0
  186.0470  178.5010  142.0920 O   0  0  0  0  0  0  0  0  0  0  0  0
  184.7190  178.2490  138.9600 C   0  0  2  0  0  3  0  0  0  0  0  0
  185.7360  177.6280  136.7310 O   0  0  0  0  0  0  0  0  0  0  0  0
  182.2270  177.5170  136.4840 O   0  0  0  0  0  0  0  0  0  0  0  0
  181.7310  178.7710  139.8780 C   0  0  1  0  0  3  0  0  0  0  0  0
  183.3370  177.6510  137.0620 C   0  0  0  0  0  0  0  0  0  0  0  0
  182.6390  178.2120  140.9740 C   0  0  2  0  0  3  0  0  0  0  0  0
  184.7060  178.5620  142.3900 C   0  0  0  0  0  0  0  0  0  0  0  0
  184.5330  176.8770  136.6000 C   0  0  2  0  0  3  0  0  0  0  0  0
  183.5000  178.5040  138.2000 N   0  0  0  0  0  0  0  0  0  0  0  0
  189.3640  176.7600  138.7760 C   0  0  0  0  0  3  0  0  0  0  0  0
  181.7030  178.1990  142.1600 C   0  0  0  0  0  2  0  0  0  0  0  0
  180.8150  179.7140  140.5010 N   0  0  0  0  0  2  0  0  0  0  0  0
  188.1210  176.7560  136.7690 F   0  0  0  0  0  0  0  0  0  0  0  0
  186.3150  179.0370  140.8100 C   0  0  2  0  0  3  0  0  0  0  0  0
  189.5190  177.1280  140.1100 C   0  0  0  0  0  3  0  0  0  0  0  0
  187.1710  177.8210  138.7220 C   0  0  0  0  0  0  0  0  0  0  0  0
  184.9310  179.2270  140.1290 C   0  0  2  0  0  3  0  0  0  0  0  0
  184.2570  178.2530  143.5260 O   0  0  0  0  0  0  0  0  0  0  0  0
  183.8810  179.0970  141.2750 C   0  0  1  0  0  3  0  0  0  0  0  0
  180.6730  179.2800  141.8850 C   0  0  0  0  0  2  0  0  0  0  0  0
  181.5750  179.7960  137.7050 O   0  0  0  0  0  1  0  0  0  0  0  0
  188.5160  177.8520  140.7520 C   0  0  0  0  0  3  0  0  0  0  0  0
  187.3400  178.2010  140.0760 C   0  0  0  0  0  0  0  0  0  0  0  0
  182.4680  179.4140  138.7090 C   0  0  1  0  0  3  0  0  0  0  0  0
  184.6310  175.5560  137.3020 C   0  0  0  0  0  3  0  0  0  0  0  0
  185.5670  173.3210  137.5930 C   0  0  0  0  0  1  0  0  0  0  0  0
  185.4810  174.6240  136.8810 C   0  0  0  0  0  3  0  0  0  0  0  0
  1  5  1  6  0  0  0
  1 19  1  0  0  0  0
  1  4  1  0  0  0  0
  2 19  2  0  0  0  0
  2 13  1  0  0  0  0
  3 10  1  0  0  0  0
  4 12  1  6  0  0  0
  4 20  1  0  0  0  0
  6  8  2  0  0  0  0
  7 15  1  1  0  0  0
  7  9  1  0  0  0  0
  8 12  1  0  0  0  0
  9 22  1  0  0  0  0
  9 14  1  1  0  0  0
 10 21  2  0  0  0  0
 11  5  1  0  0  0  0
 11  8  1  0  0  0  0
 11 28  1  1  0  0  0
 12 27  1  0  0  0  0
 13 18  2  0  0  0  0
 15 23  1  0  0  0  0
 16  2  1  0  0  0  0
 17 26  1  6  0  0  0
 17  3  1  0  0  0  0
 18 25  1  0  0  0  0
 19 26  1  0  0  0  0
 20 17  1  0  0  0  0
 20 22  1  0  0  0  0
 22 10  1  0  0  0  0
 23 14  1  0  0  0  0
 24 27  1  0  0  0  0
 26 25  2  0  0  0  0
 27  7  1  0  0  0  0
 30 28  2  0  0  0  0
 30 29  1  0  0  0  0
M  END
>  <MODEL>
4

>  <REMARK>
 VINA RESULT:      -6.6      2.609      4.334
  Name = 
  1 active torsions:
  status: ('A' for Active; 'I' for Inactive)
    1  A    between atoms: C_11  and  C_28
                            x       y       z     vdW  Elec       q    Type
                         _______ _______ _______ _____ _____    ______ ____

>  <TORSDO>
F 1

$$$$
=
 OpenBabel11122410323D

 30 35  0  0  1  0  0  0  0  0999 V2000
  183.9350  177.4790  137.0910 C   0  0  2  0  0  3  0  0  0  0  0  0
  185.7380  176.4950  135.5590 C   0  0  0  0  0  0  0  0  0  0  0  0
  186.9210  178.6750  139.6310 O   0  0  0  0  0  0  0  0  0  0  0  0
  183.8380  177.6230  138.6200 C   0  0  2  0  0  3  0  0  0  0  0  0
  183.0290  176.5510  136.4780 O   0  0  0  0  0  0  0  0  0  0  0  0
  180.5640  176.1960  138.9640 O   0  0  0  0  0  0  0  0  0  0  0  0
  182.4220  178.1840  141.3980 C   0  0  1  0  0  3  0  0  0  0  0  0
  181.6840  176.5210  138.4910 C   0  0  0  0  0  0  0  0  0  0  0  0
  183.9300  177.9490  141.4950 C   0  0  2  0  0  3  0  0  0  0  0  0
  186.2400  178.7330  140.8240 C   0  0  0  0  0  0  0  0  0  0  0  0
  182.3020  175.7260  137.3820 C   0  0  2  0  0  3  0  0  0  0  0  0
  182.4320  177.6260  139.0100 N   0  0  0  0  0  0  0  0  0  0  0  0
  187.0790  176.3850  135.1870 C   0  0  0  0  0  3  0  0  0  0  0  0
  184.1730  178.1640  142.9710 C   0  0  0  0  0  2  0  0  0  0  0  0
  182.0690  179.1970  142.3810 N   0  0  0  0  0  2  0  0  0  0  0  0
  184.8130  175.8420  134.8140 F   0  0  0  0  0  0  0  0  0  0  0  0
  186.0590  178.9090  138.5340 C   0  0  2  0  0  3  0  0  0  0  0  0
  188.0670  177.0640  135.8960 C   0  0  0  0  0  3  0  0  0  0  0  0
  185.3720  177.2840  136.6740 C   0  0  0  0  0  0  0  0  0  0  0  0
  184.6150  178.8580  139.1080 C   0  0  2  0  0  3  0  0  0  0  0  0
  186.8290  178.6750  141.9360 O   0  0  0  0  0  0  0  0  0  0  0  0
  184.7780  178.9440  140.6560 C   0  0  1  0  0  3  0  0  0  0  0  0
  183.0670  179.0930  143.4390 C   0  0  0  0  0  2  0  0  0  0  0  0
  180.5340  178.6600  139.9830 O   0  0  0  0  0  1  0  0  0  0  0  0
  187.7170  177.8640  136.9820 C   0  0  0  0  0  3  0  0  0  0  0  0
  186.3800  177.9800  137.3840 C   0  0  0  0  0  0  0  0  0  0  0  0
  181.9280  178.5730  140.0100 C   0  0  1  0  0  3  0  0  0  0  0  0
  183.1520  174.6140  137.9190 C   0  0  0  0  0  3  0  0  0  0  0  0
  184.6090  172.6750  137.6460 C   0  0  0  0  0  1  0  0  0  0  0  0
  183.7650  173.7700  137.0950 C   0  0  0  0  0  3  0  0  0  0  0  0
  1  5  1  1  0  0  0
  1  4  1  0  0  0  0
  2 19  1  0  0  0  0
  3 10  1  0  0  0  0
  4 12  1  6  0  0  0
  4 20  1  0  0  0  0
  5 11  1  0  0  0  0
  7  9  1  0  0  0  0
  7 15  1  1  0  0  0
  8  6  2  0  0  0  0
  8 12  1  0  0  0  0
  9 14  1  1  0  0  0
 10 21  2  0  0  0  0
 11 28  1  1  0  0  0
 11  8  1  0  0  0  0
 12 27  1  0  0  0  0
 13  2  2  0  0  0  0
 13 18  1  0  0  0  0
 14 23  1  0  0  0  0
 15 23  1  0  0  0  0
 16  2  1  0  0  0  0
 17 26  1  6  0  0  0
 17 20  1  0  0  0  0
 17  3  1  0  0  0  0
 18 25  2  0  0  0  0
 19  1  1  0  0  0  0
 19 26  2  0  0  0  0
 20 22  1  0  0  0  0
 22 10  1  0  0  0  0
 22  9  1  0  0  0  0
 24 27  1  0  0  0  0
 25 26  1  0  0  0  0
 27  7  1  0  0  0  0
 30 29  1  0  0  0  0
 30 28  2  0  0  0  0
M  END
>  <MODEL>
5

>  <REMARK>
 VINA RESULT:      -6.2      2.382      3.462
  Name = 
  1 active torsions:
  status: ('A' for Active; 'I' for Inactive)
    1  A    between atoms: C_11  and  C_28
                            x       y       z     vdW  Elec       q    Type
                         _______ _______ _______ _____ _____    ______ ____

>  <TORSDO>
F 1

$$$$
=
 OpenBabel11122410323D

 30 35  0  0  1  0  0  0  0  0999 V2000
  186.1490  179.0030  140.0470 C   0  0  2  0  0  3  0  0  0  0  0  0
  184.7660  179.0990  142.2020 C   0  0  0  0  0  0  0  0  0  0  0  0
  183.3330  176.4580  138.4990 O   0  0  0  0  0  0  0  0  0  0  0  0
  186.3880  177.8860  139.0170 C   0  0  2  0  0  3  0  0  0  0  0  0
  187.2740  179.3780  140.8550 O   0  0  0  0  0  0  0  0  0  0  0  0
  189.9680  178.1200  138.9720 O   0  0  0  0  0  0  0  0  0  0  0  0
  187.7900  176.4510  136.5640 C   0  0  1  0  0  3  0  0  0  0  0  0
  188.7640  178.2460  139.3180 C   0  0  0  0  0  0  0  0  0  0  0  0
  186.5690  175.7110  137.1140 C   0  0  2  0  0  3  0  0  0  0  0  0
  184.0800  175.7800  137.5650 C   0  0  0  0  0  0  0  0  0  0  0  0
  188.4090  178.5260  140.7460 C   0  0  2  0  0  3  0  0  0  0  0  0
  187.6890  178.0880  138.3870 N   0  0  0  0  0  0  0  0  0  0  0  0
  183.5720  178.8540  142.8840 C   0  0  0  0  0  3  0  0  0  0  0  0
  186.4680  174.5470  136.1560 C   0  0  0  0  0  2  0  0  0  0  0  0
  187.7970  176.2790  135.1190 N   0  0  0  0  0  2  0  0  0  0  0  0
  185.7680  179.7180  142.8720 F   0  0  0  0  0  0  0  0  0  0  0  0
  183.8410  177.7600  138.7190 C   0  0  2  0  0  3  0  0  0  0  0  0
  182.4970  178.2530  142.2330 C   0  0  0  0  0  3  0  0  0  0  0  0
  184.9010  178.7180  140.8470 C   0  0  0  0  0  0  0  0  0  0  0  0
  185.2250  177.8040  138.0130 C   0  0  2  0  0  3  0  0  0  0  0  0
  183.7400  174.6500  137.1260 O   0  0  0  0  0  0  0  0  0  0  0  0
  185.2610  176.5490  137.0880 C   0  0  1  0  0  3  0  0  0  0  0  0
  187.1060  175.0200  134.8620 C   0  0  0  0  0  2  0  0  0  0  0  0
  189.0560  178.4970  136.4940 O   0  0  0  0  0  1  0  0  0  0  0  0
  182.6100  177.8960  140.8910 C   0  0  0  0  0  3  0  0  0  0  0  0
  183.8010  178.1170  140.1890 C   0  0  0  0  0  0  0  0  0  0  0  0
  187.8610  177.9250  136.9400 C   0  0  1  0  0  3  0  0  0  0  0  0
  188.2200  177.2550  141.5180 C   0  0  0  0  0  3  0  0  0  0  0  0
  187.9310  176.0030  143.5940 C   0  0  0  0  0  1  0  0  0  0  0  0
  188.1240  177.2740  142.8440 C   0  0  0  0  0  3  0  0  0  0  0  0
  1 19  1  1  0  0  0
  1  5  1  0  0  0  0
  2 16  1  0  0  0  0
  2 13  1  0  0  0  0
  4 12  1  6  0  0  0
  4  1  1  0  0  0  0
  6  8  2  0  0  0  0
  7 15  1  6  0  0  0
  7 27  1  0  0  0  0
  7  9  1  0  0  0  0
  8 11  1  0  0  0  0
  9 14  1  6  0  0  0
 10  3  1  0  0  0  0
 11  5  1  0  0  0  0
 11 28  1  1  0  0  0
 12  8  1  0  0  0  0
 17  3  1  1  0  0  0
 17 26  1  0  0  0  0
 18 13  2  0  0  0  0
 19  2  2  0  0  0  0
 20 17  1  0  0  0  0
 20  4  1  0  0  0  0
 21 10  2  0  0  0  0
 22  9  1  0  0  0  0
 22 10  1  0  0  0  0
 22 20  1  0  0  0  0
 23 15  1  0  0  0  0
 23 14  1  0  0  0  0
 24 27  1  0  0  0  0
 25 18  1  0  0  0  0
 26 19  1  0  0  0  0
 26 25  2  0  0  0  0
 27 12  1  0  0  0  0
 28 30  2  0  0  0  0
 30 29  1  0  0  0  0
M  END
>  <MODEL>
6

>  <REMARK>
 VINA RESULT:      -6.2      2.827      6.710
  Name = 
  1 active torsions:
  status: ('A' for Active; 'I' for Inactive)
    1  A    between atoms: C_11  and  C_28
                            x       y       z     vdW  Elec       q    Type
                         _______ _______ _______ _____ _____    ______ ____

>  <TORSDO>
F 1

$$$$
=
 OpenBabel11122410323D

 30 35  0  0  1  0  0  0  0  0999 V2000
  185.7160  177.9470  137.5830 C   0  0  2  0  0  3  0  0  0  0  0  0
  184.1850  178.7940  139.4550 C   0  0  0  0  0  0  0  0  0  0  0  0
  183.8060  174.3280  137.8280 O   0  0  0  0  0  0  0  0  0  0  0  0
  186.3230  176.5650  137.2850 C   0  0  2  0  0  3  0  0  0  0  0  0
  186.6320  178.9750  137.9840 O   0  0  0  0  0  0  0  0  0  0  0  0
  189.7070  177.6830  136.8600 O   0  0  0  0  0  0  0  0  0  0  0  0
  188.2490  174.4850  135.8680 C   0  0  1  0  0  3  0  0  0  0  0  0
  188.4880  177.6470  137.1750 C   0  0  0  0  0  0  0  0  0  0  0  0
  187.2260  173.8550  136.8140 C   0  0  2  0  0  3  0  0  0  0  0  0
  184.7790  173.4870  137.3410 C   0  0  0  0  0  0  0  0  0  0  0  0
  187.9570  178.5320  138.2600 C   0  0  2  0  0  3  0  0  0  0  0  0
  187.5720  176.7420  136.5510 N   0  0  0  0  0  0  0  0  0  0  0  0
  183.0460  178.6390  140.2490 C   0  0  0  0  0  3  0  0  0  0  0  0
  187.5130  172.3830  136.6280 C   0  0  0  0  0  2  0  0  0  0  0  0
  188.4190  173.5850  134.7380 N   0  0  0  0  0  2  0  0  0  0  0  0
  184.9300  179.9140  139.6200 F   0  0  0  0  0  0  0  0  0  0  0  0
  183.9320  175.6290  137.2870 C   0  0  2  0  0  3  0  0  0  0  0  0
  182.2250  177.5250  140.0960 C   0  0  0  0  0  3  0  0  0  0  0  0
  184.5260  177.8080  138.5010 C   0  0  0  0  0  0  0  0  0  0  0  0
  185.3090  175.6590  136.5650 C   0  0  2  0  0  3  0  0  0  0  0  0
  184.7850  172.2530  137.5940 O   0  0  0  0  0  0  0  0  0  0  0  0
  185.7500  174.1690  136.4450 C   0  0  1  0  0  3  0  0  0  0  0  0
  188.1080  172.2510  135.2370 C   0  0  0  0  0  2  0  0  0  0  0  0
  188.9320  176.4360  134.6340 O   0  0  0  0  0  1  0  0  0  0  0  0
  182.5360  176.5580  139.1420 C   0  0  0  0  0  3  0  0  0  0  0  0
  183.6810  176.6830  138.3440 C   0  0  0  0  0  0  0  0  0  0  0  0
  187.8980  175.8920  135.4010 C   0  0  1  0  0  3  0  0  0  0  0  0
  188.0460  177.8640  139.5990 C   0  0  0  0  0  3  0  0  0  0  0  0
  187.9370  177.8760  142.0380 C   0  0  0  0  0  1  0  0  0  0  0  0
  187.8490  178.5560  140.7170 C   0  0  0  0  0  3  0  0  0  0  0  0
  1  5  1  1  0  0  0
  1 19  1  0  0  0  0
  2 16  1  0  0  0  0
  2 13  1  0  0  0  0
  4 12  1  6  0  0  0
  4  1  1  0  0  0  0
  5 11  1  0  0  0  0
  6  8  2  0  0  0  0
  7 15  1  6  0  0  0
  7  9  1  0  0  0  0
  8 11  1  0  0  0  0
  9 14  1  6  0  0  0
 10 21  2  0  0  0  0
 10  3  1  0  0  0  0
 11 28  1  1  0  0  0
 12  8  1  0  0  0  0
 15 23  1  0  0  0  0
 17  3  1  1  0  0  0
 17 26  1  0  0  0  0
 18 13  2  0  0  0  0
 19  2  2  0  0  0  0
 20  4  1  0  0  0  0
 20 17  1  0  0  0  0
 22 20  1  0  0  0  0
 22  9  1  0  0  0  0
 22 10  1  0  0  0  0
 23 14  1  0  0  0  0
 24 27  1  0  0  0  0
 25 18  1  0  0  0  0
 26 19  1  0  0  0  0
 26 25  2  0  0  0  0
 27  7  1  0  0  0  0
 27 12  1  0  0  0  0
 28 30  2  0  0  0  0
 30 29  1  0  0  0  0
M  END
>  <MODEL>
7

>  <REMARK>
 VINA RESULT:      -6.2      3.672      7.140
  Name = 
  1 active torsions:
  status: ('A' for Active; 'I' for Inactive)
    1  A    between atoms: C_11  and  C_28
                            x       y       z     vdW  Elec       q    Type
                         _______ _______ _______ _____ _____    ______ ____

>  <TORSDO>
F 1

$$$$
=
 OpenBabel11122410323D

 30 35  0  0  1  0  0  0  0  0999 V2000
  185.1670  179.3780  141.0430 C   0  0  2  0  0  3  0  0  0  0  0  0
  184.3100  179.4090  143.4580 C   0  0  0  0  0  0  0  0  0  0  0  0
  181.9780  176.9920  140.0720 O   0  0  0  0  0  0  0  0  0  0  0  0
  185.1240  178.3050  139.9410 C   0  0  2  0  0  3  0  0  0  0  0  0
  186.4580  179.6820  141.5880 O   0  0  0  0  0  0  0  0  0  0  0  0
  188.6080  178.4400  139.0940 O   0  0  0  0  0  0  0  0  0  0  0  0
  185.8800  176.9510  137.1770 C   0  0  1  0  0  3  0  0  0  0  0  0
  187.5190  178.5830  139.7090 C   0  0  0  0  0  0  0  0  0  0  0  0
  184.7870  176.2210  137.9600 C   0  0  2  0  0  3  0  0  0  0  0  0
  182.4690  176.3390  138.9660 C   0  0  0  0  0  0  0  0  0  0  0  0
  187.5060  178.8030  141.1910 C   0  0  2  0  0  3  0  0  0  0  0  0
  186.2570  178.5000  139.0410 N   0  0  0  0  0  0  0  0  0  0  0  0
  183.2920  179.1660  144.3820 C   0  0  0  0  0  3  0  0  0  0  0  0
  184.4270  175.1080  137.0040 C   0  0  0  0  0  2  0  0  0  0  0  0
  185.5550  176.8490  135.7630 N   0  0  0  0  0  2  0  0  0  0  0  0
  185.4610  179.9660  143.9070 F   0  0  0  0  0  0  0  0  0  0  0  0
  182.5720  178.2670  140.2240 C   0  0  2  0  0  3  0  0  0  0  0  0
  182.0760  178.6280  143.9680 C   0  0  0  0  0  3  0  0  0  0  0  0
  184.1210  179.0910  142.0930 C   0  0  0  0  0  0  0  0  0  0  0  0
  183.7620  178.3050  139.2240 C   0  0  2  0  0  3  0  0  0  0  0  0
  181.9950  175.2420  138.5700 O   0  0  0  0  0  0  0  0  0  0  0  0
  183.5400  177.0960  138.2650 C   0  0  1  0  0  3  0  0  0  0  0  0
  184.7760  175.6250  135.6190 C   0  0  0  0  0  2  0  0  0  0  0  0
  187.1760  178.9620  136.9060 O   0  0  0  0  0  1  0  0  0  0  0  0
  181.8690  178.3330  142.6220 C   0  0  0  0  0  3  0  0  0  0  0  0
  182.8790  178.5540  141.6780 C   0  0  0  0  0  0  0  0  0  0  0  0
  186.0910  178.4030  137.5870 C   0  0  1  0  0  3  0  0  0  0  0  0
  187.4470  177.5030  141.9330 C   0  0  0  0  0  3  0  0  0  0  0  0
  187.5550  176.1650  143.9720 C   0  0  0  0  0  1  0  0  0  0  0  0
  187.6230  177.4640  143.2510 C   0  0  0  0  0  3  0  0  0  0  0  0
  1  5  1  1  0  0  0
  1 19  1  0  0  0  0
  2 16  1  0  0  0  0
  2 13  1  0  0  0  0
  4 12  1  6  0  0  0
  4  1  1  0  0  0  0
  6  8  2  0  0  0  0
  7 15  1  6  0  0  0
  7 27  1  0  0  0  0
  7  9  1  0  0  0  0
  8 11  1  0  0  0  0
  9 14  1  6  0  0  0
  9 22  1  0  0  0  0
 10  3  1  0  0  0  0
 11  5  1  0  0  0  0
 11 28  1  1  0  0  0
 12  8  1  0  0  0  0
 17  3  1  1  0  0  0
 17 26  1  0  0  0  0
 18 13  2  0  0  0  0
 19  2  2  0  0  0  0
 20  4  1  0  0  0  0
 20 17  1  0  0  0  0
 21 10  2  0  0  0  0
 22 10  1  0  0  0  0
 22 20  1  0  0  0  0
 23 15  1  0  0  0  0
 23 14  1  0  0  0  0
 24 27  1  0  0  0  0
 25 18  1  0  0  0  0
 26 19  1  0  0  0  0
 26 25  2  0  0  0  0
 27 12  1  0  0  0  0
 28 30  2  0  0  0  0
 30 29  1  0  0  0  0
M  END
>  <MODEL>
8

>  <REMARK>
 VINA RESULT:      -6.2      2.654      6.652
  Name = 
  1 active torsions:
  status: ('A' for Active; 'I' for Inactive)
    1  A    between atoms: C_11  and  C_28
                            x       y       z     vdW  Elec       q    Type
                         _______ _______ _______ _____ _____    ______ ____

>  <TORSDO>
F 1

$$$$
=
 OpenBabel11122410323D

 30 35  0  0  1  0  0  0  0  0999 V2000
  187.4660  178.3010  138.9490 C   0  0  2  0  0  3  0  0  0  0  0  0
  185.4280  178.9850  140.3430 C   0  0  0  0  0  0  0  0  0  0  0  0
  185.1250  175.4580  137.1490 O   0  0  0  0  0  0  0  0  0  0  0  0
  187.9330  176.9450  138.3900 C   0  0  2  0  0  3  0  0  0  0  0  0
  188.2650  178.8700  139.9960 O   0  0  0  0  0  0  0  0  0  0  0  0
  191.3000  177.1280  139.6170 O   0  0  0  0  0  0  0  0  0  0  0  0
  189.9500  174.8910  137.0660 C   0  0  1  0  0  3  0  0  0  0  0  0
  190.0730  177.3530  139.4510 C   0  0  0  0  0  0  0  0  0  0  0  0
  188.5420  174.3380  137.2900 C   0  0  2  0  0  3  0  0  0  0  0  0
  186.0780  174.5470  136.7550 C   0  0  0  0  0  0  0  0  0  0  0  0
  189.2670  178.0090  140.5290 C   0  0  2  0  0  3  0  0  0  0  0  0
  189.3860  176.9590  138.2580 N   0  0  0  0  0  0  0  0  0  0  0  0
  184.0510  178.9430  140.5730 C   0  0  0  0  0  3  0  0  0  0  0  0
  188.6620  172.9590  136.6820 C   0  0  0  0  0  2  0  0  0  0  0  0
  190.4500  174.3360  135.8170 N   0  0  0  0  0  2  0  0  0  0  0  0
  186.1880  179.7530  141.1620 F   0  0  0  0  0  0  0  0  0  0  0  0
  185.6590  176.7670  137.2120 C   0  0  2  0  0  3  0  0  0  0  0  0
  183.2190  178.1990  139.7400 C   0  0  0  0  0  3  0  0  0  0  0  0
  185.9930  178.2530  139.2740 C   0  0  0  0  0  0  0  0  0  0  0  0
  187.2000  176.6060  137.0810 C   0  0  2  0  0  3  0  0  0  0  0  0
  185.7960  173.3440  136.5150 O   0  0  0  0  0  0  0  0  0  0  0  0
  187.4260  175.1490  136.5760 C   0  0  1  0  0  3  0  0  0  0  0  0
  189.7640  173.0610  135.6420 C   0  0  0  0  0  2  0  0  0  0  0  0
  191.3700  176.8320  136.9670 O   0  0  0  0  0  1  0  0  0  0  0  0
  183.7600  177.4920  138.6680 C   0  0  0  0  0  3  0  0  0  0  0  0
  185.1400  177.5060  138.4260 C   0  0  0  0  0  0  0  0  0  0  0  0
  190.0410  176.4120  137.0660 C   0  0  1  0  0  3  0  0  0  0  0  0
  188.6810  176.9950  141.4640 C   0  0  0  0  0  3  0  0  0  0  0  0
  187.6920  176.3270  143.5930 C   0  0  0  0  0  1  0  0  0  0  0  0
  188.2760  177.3470  142.6810 C   0  0  0  0  0  3  0  0  0  0  0  0
  1 19  1  1  0  0  0
  1  5  1  0  0  0  0
  2 13  1  0  0  0  0
  2 16  1  0  0  0  0
  4 12  1  6  0  0  0
  4  1  1  0  0  0  0
  5 11  1  0  0  0  0
  7 15  1  6  0  0  0
  7  9  1  0  0  0  0
  8  6  2  0  0  0  0
  8 11  1  0  0  0  0
  9 14  1  6  0  0  0
 10  3  1  0  0  0  0
 11 28  1  6  0  0  0
 12  8  1  0  0  0  0
 17  3  1  1  0  0  0
 17 26  1  0  0  0  0
 18 13  2  0  0  0  0
 19  2  2  0  0  0  0
 20 17  1  0  0  0  0
 20  4  1  0  0  0  0
 21 10  2  0  0  0  0
 22 10  1  0  0  0  0
 22 20  1  0  0  0  0
 22  9  1  0  0  0  0
 23 15  1  0  0  0  0
 23 14  1  0  0  0  0
 24 27  1  0  0  0  0
 25 18  1  0  0  0  0
 26 25  2  0  0  0  0
 26 19  1  0  0  0  0
 27  7  1  0  0  0  0
 27 12  1  0  0  0  0
 28 30  2  0  0  0  0
 30 29  1  0  0  0  0
M  END
>  <MODEL>
9

>  <REMARK>
 VINA RESULT:      -6.1      3.441      6.903
  Name = 
  1 active torsions:
  status: ('A' for Active; 'I' for Inactive)
    1  A    between atoms: C_11  and  C_28
                            x       y       z     vdW  Elec       q    Type
                         _______ _______ _______ _____ _____    ______ ____

>  <TORSDO>
F 1

$$$$
