=
 OpenBabel11122411063D

 31 35  0  0  1  0  0  0  0  0999 V2000
  184.6170  178.5930  144.8630 C   0  0  0  0  0  0  0  0  0  0  0  0
  188.3350  178.2070  143.9850 C   0  0  2  0  0  3  0  0  0  0  0  0
  188.9150  177.5660  145.2310 C   0  0  0  0  0  0  0  0  0  0  0  0
  187.3260  178.2710  138.6960 O   0  0  0  0  0  0  0  0  0  0  0  0
  188.5250  177.9270  138.8900 C   0  0  0  0  0  0  0  0  0  0  0  0
  189.0490  177.2520  147.6990 C   0  0  2  0  0  3  0  0  0  0  0  0
  186.8170  178.2660  143.8710 C   0  0  0  0  0  0  0  0  0  0  0  0
  184.0400  178.6290  143.5920 C   0  0  0  0  0  3  0  0  0  0  0  0
  188.4550  177.8530  146.4540 C   0  0  0  0  0  3  0  0  0  0  0  0
  188.2890  177.8900  141.4320 C   0  0  0  0  0  0  0  0  0  0  0  0
  183.8200  178.7310  145.9900 O   0  0  0  0  0  1  0  0  0  0  0  0
  190.6950  176.5770  143.9540 N   0  0  0  0  0  0  0  0  0  0  0  0
  189.0540  178.2710  148.8190 C   0  0  0  0  0  1  0  0  0  0  0  0
  187.0260  178.2000  141.4050 N   0  0  0  0  0  0  0  0  0  0  0  0
  188.9510  177.6360  142.7230 C   0  0  0  0  0  0  0  0  0  0  0  0
  189.0310  177.7300  140.2140 N   0  0  0  0  0  2  0  0  0  0  0  0
  185.9970  178.4290  145.0000 C   0  0  0  0  0  3  0  0  0  0  0  0
  190.4350  176.7000  147.4910 C   0  0  0  0  0  3  0  0  0  0  0  0
  186.2250  178.3250  142.5890 C   0  0  0  0  0  0  0  0  0  0  0  0
  184.8450  178.4990  142.4580 C   0  0  0  0  0  3  0  0  0  0  0  0
  190.0470  176.9340  142.7570 N   0  0  0  0  0  0  0  0  0  0  0  0
  190.1870  176.8290  145.1210 C   0  0  0  0  0  0  0  0  0  0  0  0
  190.9170  176.4860  146.3030 N   0  0  0  0  0  0  0  0  0  0  0  0
  190.6380  176.0120  135.6640 C   0  0  1  0  0  3  0  0  0  0  0  0
  190.4900  176.6650  138.0710 C   0  0  0  0  0  2  0  0  0  0  0  0
  187.7720  178.3480  136.1150 O   0  0  0  0  0  1  0  0  0  0  0  0
  191.5090  175.8170  134.5940 O   0  0  0  0  0  1  0  0  0  0  0  0
  191.4330  176.4430  136.8920 C   0  0  0  0  0  2  0  0  0  0  0  0
  188.6620  177.3300  136.4650 C   0  0  2  0  0  3  0  0  0  0  0  0
  189.4420  177.7240  137.7270 C   0  0  1  0  0  3  0  0  0  0  0  0
  189.6180  177.0850  135.3010 C   0  0  0  0  0  2  0  0  0  0  0  0
  1 17  1  0  0  0  0
  1 11  1  0  0  0  0
  2 15  1  6  0  0  0
  2  3  1  0  0  0  0
  3  9  2  0  0  0  0
  4  5  2  0  0  0  0
  5 16  1  0  0  0  0
  6 13  1  1  0  0  0
  7  2  1  0  0  0  0
  7 17  2  0  0  0  0
  8  1  2  0  0  0  0
  9  6  1  0  0  0  0
 10 15  1  0  0  0  0
 12 22  2  0  0  0  0
 14 10  2  0  0  0  0
 14 19  1  0  0  0  0
 15 21  2  0  0  0  0
 16 10  1  0  0  0  0
 18  6  1  0  0  0  0
 19  7  1  0  0  0  0
 20 19  2  0  0  0  0
 20  8  1  0  0  0  0
 21 12  1  0  0  0  0
 22  3  1  0  0  0  0
 22 23  1  0  0  0  0
 23 18  2  0  0  0  0
 24 27  1  6  0  0  0
 24 28  1  0  0  0  0
 28 25  1  0  0  0  0
 29 26  1  6  0  0  0
 29 30  1  0  0  0  0
 30 25  1  0  0  0  0
 30  5  1  1  0  0  0
 31 24  1  0  0  0  0
 31 29  1  0  0  0  0
M  END
>  <MODEL>
1

>  <REMARK>
 VINA RESULT:     -11.3      0.000      0.000
  Name = 
  1 active torsions:
  status: ('A' for Active; 'I' for Inactive)
    1  A    between atoms: C_5  and  C_30
                            x       y       z     vdW  Elec       q    Type
                         _______ _______ _______ _____ _____    ______ ____

>  <TORSDO>
F 1

$$$$
=
 OpenBabel11122411063D

 31 35  0  0  1  0  0  0  0  0999 V2000
  190.1280  177.5100  142.0390 C   0  0  0  0  0  0  0  0  0  0  0  0
  186.5430  177.9430  143.3450 C   0  0  2  0  0  3  0  0  0  0  0  0
  186.7500  178.2270  144.8210 C   0  0  0  0  0  0  0  0  0  0  0  0
  184.6790  179.2420  138.4630 O   0  0  0  0  0  0  0  0  0  0  0  0
  183.7890  179.4750  139.3270 C   0  0  0  0  0  0  0  0  0  0  0  0
  187.9330  177.9110  146.9900 C   0  0  2  0  0  3  0  0  0  0  0  0
  187.7730  177.9790  142.4480 C   0  0  0  0  0  0  0  0  0  0  0  0
  189.9630  177.8170  140.6880 C   0  0  0  0  0  3  0  0  0  0  0  0
  187.7430  177.6660  145.5180 C   0  0  0  0  0  3  0  0  0  0  0  0
  185.3000  178.8880  141.3000 C   0  0  0  0  0  0  0  0  0  0  0  0
  191.3740  177.1300  142.5180 O   0  0  0  0  0  1  0  0  0  0  0  0
  184.6690  179.4270  144.9320 N   0  0  0  0  0  0  0  0  0  0  0  0
  188.4080  176.6460  147.6730 C   0  0  0  0  0  1  0  0  0  0  0  0
  186.3340  178.6490  140.5470 N   0  0  0  0  0  0  0  0  0  0  0  0
  185.4240  178.7830  142.7640 C   0  0  0  0  0  0  0  0  0  0  0  0
  184.0570  179.3140  140.7240 N   0  0  0  0  0  2  0  0  0  0  0  0
  189.0370  177.5760  142.9090 C   0  0  0  0  0  3  0  0  0  0  0  0
  186.6960  178.4380  147.6700 C   0  0  0  0  0  3  0  0  0  0  0  0
  187.6130  178.2670  141.0730 C   0  0  0  0  0  0  0  0  0  0  0  0
  188.7070  178.1910  140.2060 C   0  0  0  0  0  3  0  0  0  0  0  0
  184.5730  179.4070  143.5270 N   0  0  0  0  0  0  0  0  0  0  0  0
  185.6780  178.9140  145.5650 C   0  0  0  0  0  0  0  0  0  0  0  0
  185.6960  178.9200  146.9960 N   0  0  0  0  0  0  0  0  0  0  0  0
  180.6180  181.1030  136.9120 C   0  0  1  0  0  3  0  0  0  0  0  0
  182.4500  181.4180  138.5810 C   0  0  0  0  0  2  0  0  0  0  0  0
  181.8360  177.7630  138.0240 O   0  0  0  0  0  1  0  0  0  0  0  0
  179.3540  181.5390  136.5190 O   0  0  0  0  0  1  0  0  0  0  0  0
  181.0690  181.8900  138.1370 C   0  0  0  0  0  2  0  0  0  0  0  0
  181.9340  179.1150  137.6900 C   0  0  2  0  0  3  0  0  0  0  0  0
  182.4290  179.9220  138.8980 C   0  0  1  0  0  3  0  0  0  0  0  0
  180.5630  179.6140  137.2390 C   0  0  0  0  0  2  0  0  0  0  0  0
  1 11  1  0  0  0  0
  1 17  1  0  0  0  0
  2  7  1  6  0  0  0
  2  3  1  0  0  0  0
  3  9  2  0  0  0  0
  3 22  1  0  0  0  0
  4  5  2  0  0  0  0
  5 16  1  0  0  0  0
  6 18  1  0  0  0  0
  6 13  1  1  0  0  0
  7 17  2  0  0  0  0
  8  1  2  0  0  0  0
  9  6  1  0  0  0  0
 10 15  1  0  0  0  0
 12 22  2  0  0  0  0
 14 19  1  0  0  0  0
 14 10  2  0  0  0  0
 15  2  1  0  0  0  0
 15 21  2  0  0  0  0
 16 10  1  0  0  0  0
 19  7  1  0  0  0  0
 20  8  1  0  0  0  0
 20 19  2  0  0  0  0
 21 12  1  0  0  0  0
 22 23  1  0  0  0  0
 23 18  2  0  0  0  0
 24 27  1  1  0  0  0
 24 31  1  0  0  0  0
 24 28  1  0  0  0  0
 25 30  1  0  0  0  0
 28 25  1  0  0  0  0
 29 26  1  1  0  0  0
 29 30  1  0  0  0  0
 30  5  1  6  0  0  0
 31 29  1  0  0  0  0
M  END
>  <MODEL>
2

>  <REMARK>
 VINA RESULT:     -10.9      3.966      6.305
  Name = 
  1 active torsions:
  status: ('A' for Active; 'I' for Inactive)
    1  A    between atoms: C_5  and  C_30
                            x       y       z     vdW  Elec       q    Type
                         _______ _______ _______ _____ _____    ______ ____

>  <TORSDO>
F 1

$$$$
=
 OpenBabel11122411063D

 31 35  0  0  1  0  0  0  0  0999 V2000
  191.3720  177.3750  140.8560 C   0  0  0  0  0  0  0  0  0  0  0  0
  188.7290  177.0340  143.6200 C   0  0  2  0  0  3  0  0  0  0  0  0
  189.5530  177.1060  144.8910 C   0  0  0  0  0  0  0  0  0  0  0  0
  184.7960  178.7940  140.3910 O   0  0  0  0  0  0  0  0  0  0  0  0
  184.3720  178.7450  141.5790 C   0  0  0  0  0  0  0  0  0  0  0  0
  191.6000  176.6330  146.2300 C   0  0  2  0  0  3  0  0  0  0  0  0
  189.4220  177.4030  142.3150 C   0  0  0  0  0  0  0  0  0  0  0  0
  190.6000  177.8650  139.8010 C   0  0  0  0  0  3  0  0  0  0  0  0
  190.7890  176.6010  144.9630 C   0  0  0  0  0  3  0  0  0  0  0  0
  186.6420  178.0900  142.5480 C   0  0  0  0  0  0  0  0  0  0  0  0
  192.7230  177.1200  140.6670 O   0  0  0  0  0  1  0  0  0  0  0  0
  187.6650  177.9360  146.1270 N   0  0  0  0  0  0  0  0  0  0  0  0
  192.4140  175.3640  146.3610 C   0  0  0  0  0  1  0  0  0  0  0  0
  187.2440  178.1380  141.3960 N   0  0  0  0  0  0  0  0  0  0  0  0
  187.4130  177.7720  143.7620 C   0  0  0  0  0  0  0  0  0  0  0  0
  185.2470  178.4060  142.6600 N   0  0  0  0  0  2  0  0  0  0  0  0
  190.7830  177.1310  142.0980 C   0  0  0  0  0  3  0  0  0  0  0  0
  190.7650  176.8470  147.4660 C   0  0  0  0  0  3  0  0  0  0  0  0
  188.6450  177.8790  141.2340 C   0  0  0  0  0  0  0  0  0  0  0  0
  189.2380  178.1120  139.9900 C   0  0  0  0  0  3  0  0  0  0  0  0
  186.9530  178.1270  144.9280 N   0  0  0  0  0  0  0  0  0  0  0  0
  188.8830  177.4910  146.1470 C   0  0  0  0  0  0  0  0  0  0  0  0
  189.5390  177.2700  147.4000 N   0  0  0  0  0  0  0  0  0  0  0  0
  180.2740  178.2020  142.7830 C   0  0  1  0  0  3  0  0  0  0  0  0
  182.0370  178.1500  141.0130 C   0  0  0  0  0  2  0  0  0  0  0  0
  183.3910  179.7340  144.1290 O   0  0  0  0  0  1  0  0  0  0  0  0
  178.9310  178.4710  143.0380 O   0  0  0  0  0  1  0  0  0  0  0  0
  180.5670  178.4370  141.3050 C   0  0  0  0  0  2  0  0  0  0  0  0
  182.6250  178.8520  143.3640 C   0  0  2  0  0  3  0  0  0  0  0  0
  182.9360  179.0400  141.8740 C   0  0  1  0  0  3  0  0  0  0  0  0
  181.1470  179.1150  143.6390 C   0  0  0  0  0  2  0  0  0  0  0  0
  1 17  1  0  0  0  0
  2  7  1  6  0  0  0
  2 15  1  0  0  0  0
  2  3  1  0  0  0  0
  3  9  2  0  0  0  0
  3 22  1  0  0  0  0
  4  5  2  0  0  0  0
  5 16  1  0  0  0  0
  6 13  1  1  0  0  0
  6 18  1  0  0  0  0
  8 20  1  0  0  0  0
  8  1  2  0  0  0  0
  9  6  1  0  0  0  0
 10 16  1  0  0  0  0
 10 15  1  0  0  0  0
 11  1  1  0  0  0  0
 12 22  2  0  0  0  0
 14 10  2  0  0  0  0
 15 21  2  0  0  0  0
 17  7  2  0  0  0  0
 19 14  1  0  0  0  0
 19  7  1  0  0  0  0
 20 19  2  0  0  0  0
 21 12  1  0  0  0  0
 22 23  1  0  0  0  0
 23 18  2  0  0  0  0
 24 27  1  6  0  0  0
 24 31  1  0  0  0  0
 25 28  1  0  0  0  0
 25 30  1  0  0  0  0
 28 24  1  0  0  0  0
 29 31  1  0  0  0  0
 29 26  1  1  0  0  0
 30  5  1  1  0  0  0
 30 29  1  0  0  0  0
M  END
>  <MODEL>
3

>  <REMARK>
 VINA RESULT:     -10.7      2.666      6.856
  Name = 
  1 active torsions:
  status: ('A' for Active; 'I' for Inactive)
    1  A    between atoms: C_5  and  C_30
                            x       y       z     vdW  Elec       q    Type
                         _______ _______ _______ _____ _____    ______ ____

>  <TORSDO>
F 1

$$$$
=
 OpenBabel11122411063D

 31 35  0  0  1  0  0  0  0  0999 V2000
  185.0300  178.5590  146.0840 C   0  0  0  0  0  0  0  0  0  0  0  0
  188.3160  178.1660  144.1370 C   0  0  2  0  0  3  0  0  0  0  0  0
  189.2080  177.4290  145.1180 C   0  0  0  0  0  0  0  0  0  0  0  0
  185.8220  178.6180  139.3870 O   0  0  0  0  0  0  0  0  0  0  0  0
  187.0110  178.2400  139.2010 C   0  0  0  0  0  0  0  0  0  0  0  0
  190.0400  176.9400  147.4160 C   0  0  2  0  0  3  0  0  0  0  0  0
  186.8340  178.2610  144.4750 C   0  0  0  0  0  0  0  0  0  0  0  0
  184.1120  178.6940  145.0410 C   0  0  0  0  0  3  0  0  0  0  0  0
  189.1330  177.6380  146.4370 C   0  0  0  0  0  3  0  0  0  0  0  0
  187.5210  178.0290  141.6940 C   0  0  0  0  0  0  0  0  0  0  0  0
  184.6000  178.6330  147.4010 O   0  0  0  0  0  1  0  0  0  0  0  0
  190.5030  176.4980  143.3200 N   0  0  0  0  0  0  0  0  0  0  0  0
  190.4070  177.8780  148.5450 C   0  0  0  0  0  1  0  0  0  0  0  0
  186.3170  178.3630  142.0560 N   0  0  0  0  0  0  0  0  0  0  0  0
  188.5180  177.6730  142.7180 C   0  0  0  0  0  0  0  0  0  0  0  0
  187.8710  177.9410  140.3060 N   0  0  0  0  0  2  0  0  0  0  0  0
  186.3830  178.3600  145.8020 C   0  0  0  0  0  3  0  0  0  0  0  0
  191.2830  176.3780  146.7790 C   0  0  0  0  0  3  0  0  0  0  0  0
  185.8990  178.4210  143.4270 C   0  0  0  0  0  0  0  0  0  0  0  0
  184.5470  178.6290  143.7160 C   0  0  0  0  0  3  0  0  0  0  0  0
  189.5490  176.9500  142.3880 N   0  0  0  0  0  0  0  0  0  0  0  0
  190.3640  176.6780  144.5970 C   0  0  0  0  0  0  0  0  0  0  0  0
  191.3920  176.2390  145.4920 N   0  0  0  0  0  0  0  0  0  0  0  0
  189.4370  176.9500  135.8860 C   0  0  1  0  0  3  0  0  0  0  0  0
  189.0100  178.5320  137.7710 C   0  0  0  0  0  2  0  0  0  0  0  0
  186.0300  176.3190  137.2540 O   0  0  0  0  0  1  0  0  0  0  0  0
  189.9470  176.8370  134.5940 O   0  0  0  0  0  1  0  0  0  0  0  0
  189.5700  178.3930  136.3590 C   0  0  0  0  0  2  0  0  0  0  0  0
  187.3820  176.6650  137.2940 C   0  0  2  0  0  3  0  0  0  0  0  0
  187.5430  178.1010  137.8110 C   0  0  1  0  0  3  0  0  0  0  0  0
  187.9700  176.5330  135.8920 C   0  0  0  0  0  2  0  0  0  0  0  0
  1 11  1  0  0  0  0
  2 15  1  6  0  0  0
  2  7  1  0  0  0  0
  2  3  1  0  0  0  0
  3  9  2  0  0  0  0
  5  4  2  0  0  0  0
  5 16  1  0  0  0  0
  6 13  1  1  0  0  0
  7 17  2  0  0  0  0
  8  1  2  0  0  0  0
  9  6  1  0  0  0  0
 10 14  2  0  0  0  0
 10 15  1  0  0  0  0
 12 22  2  0  0  0  0
 14 19  1  0  0  0  0
 16 10  1  0  0  0  0
 17  1  1  0  0  0  0
 18  6  1  0  0  0  0
 19 20  2  0  0  0  0
 19  7  1  0  0  0  0
 20  8  1  0  0  0  0
 21 15  2  0  0  0  0
 21 12  1  0  0  0  0
 22  3  1  0  0  0  0
 22 23  1  0  0  0  0
 23 18  2  0  0  0  0
 24 27  1  6  0  0  0
 24 31  1  0  0  0  0
 24 28  1  0  0  0  0
 25 30  1  0  0  0  0
 28 25  1  0  0  0  0
 29 26  1  6  0  0  0
 29 30  1  0  0  0  0
 30  5  1  1  0  0  0
 31 29  1  0  0  0  0
M  END
>  <MODEL>
4

>  <REMARK>
 VINA RESULT:     -10.7      1.252      1.431
  Name = 
  1 active torsions:
  status: ('A' for Active; 'I' for Inactive)
    1  A    between atoms: C_5  and  C_30
                            x       y       z     vdW  Elec       q    Type
                         _______ _______ _______ _____ _____    ______ ____

>  <TORSDO>
F 1

$$$$
=
 OpenBabel11122411063D

 31 35  0  0  1  0  0  0  0  0999 V2000
  185.6150  178.3330  146.2910 C   0  0  0  0  0  0  0  0  0  0  0  0
  184.8380  178.0090  142.5450 C   0  0  2  0  0  3  0  0  0  0  0  0
  183.4860  178.6830  142.4170 C   0  0  0  0  0  0  0  0  0  0  0  0
  190.0480  177.5150  141.2750 O   0  0  0  0  0  0  0  0  0  0  0  0
  189.3740  177.6780  140.2220 C   0  0  0  0  0  0  0  0  0  0  0  0
  181.2070  179.2470  143.2530 C   0  0  2  0  0  3  0  0  0  0  0  0
  185.5850  178.1850  143.8600 C   0  0  0  0  0  0  0  0  0  0  0  0
  187.0080  178.2490  146.2870 C   0  0  0  0  0  3  0  0  0  0  0  0
  182.5670  178.6150  143.3860 C   0  0  0  0  0  3  0  0  0  0  0  0
  187.1770  178.0400  141.4710 C   0  0  0  0  0  0  0  0  0  0  0  0
  184.9300  178.4550  147.4910 O   0  0  0  0  0  1  0  0  0  0  0  0
  183.9150  179.2200  140.1130 N   0  0  0  0  0  0  0  0  0  0  0  0
  180.1600  178.3740  143.9090 C   0  0  0  0  0  1  0  0  0  0  0  0
  187.7290  177.9380  142.6450 N   0  0  0  0  0  0  0  0  0  0  0  0
  185.7360  178.3260  141.3650 C   0  0  0  0  0  0  0  0  0  0  0  0
  187.9670  177.9390  140.2780 N   0  0  0  0  0  2  0  0  0  0  0  0
  184.9090  178.2860  145.0870 C   0  0  0  0  0  3  0  0  0  0  0  0
  180.8240  179.5400  141.8260 C   0  0  0  0  0  3  0  0  0  0  0  0
  186.9950  178.0790  143.8700 C   0  0  0  0  0  0  0  0  0  0  0  0
  187.6960  178.1180  145.0790 C   0  0  0  0  0  3  0  0  0  0  0  0
  185.2620  178.8400  140.2670 N   0  0  0  0  0  0  0  0  0  0  0  0
  183.0690  179.1860  141.0960 C   0  0  0  0  0  0  0  0  0  0  0  0
  181.7000  179.5370  140.8670 N   0  0  0  0  0  0  0  0  0  0  0  0
  190.2380  176.4970  136.1720 C   0  0  1  0  0  3  0  0  0  0  0  0
  190.5230  176.1680  138.6320 C   0  0  0  0  0  2  0  0  0  0  0  0
  188.7450  179.4000  137.9670 O   0  0  0  0  0  1  0  0  0  0  0  0
  190.8730  176.4060  134.9340 O   0  0  0  0  0  1  0  0  0  0  0  0
  191.2040  176.0680  137.2710 C   0  0  0  0  0  2  0  0  0  0  0  0
  189.1030  178.0650  137.7660 C   0  0  2  0  0  3  0  0  0  0  0  0
  190.0420  177.5980  138.8860 C   0  0  1  0  0  3  0  0  0  0  0  0
  189.7870  177.9350  136.4070 C   0  0  0  0  0  2  0  0  0  0  0  0
  1 11  1  0  0  0  0
  2 15  1  6  0  0  0
  2  7  1  0  0  0  0
  3  2  1  0  0  0  0
  3  9  2  0  0  0  0
  5 16  1  0  0  0  0
  5  4  2  0  0  0  0
  6  9  1  0  0  0  0
  6 13  1  6  0  0  0
  7 19  2  0  0  0  0
  7 17  1  0  0  0  0
  8  1  1  0  0  0  0
 10 14  2  0  0  0  0
 12 21  1  0  0  0  0
 12 22  2  0  0  0  0
 14 19  1  0  0  0  0
 15 10  1  0  0  0  0
 16 10  1  0  0  0  0
 17  1  2  0  0  0  0
 18  6  1  0  0  0  0
 19 20  1  0  0  0  0
 20  8  2  0  0  0  0
 21 15  2  0  0  0  0
 22  3  1  0  0  0  0
 23 22  1  0  0  0  0
 23 18  2  0  0  0  0
 24 27  1  6  0  0  0
 24 31  1  0  0  0  0
 24 28  1  0  0  0  0
 25 30  1  0  0  0  0
 28 25  1  0  0  0  0
 29 26  1  1  0  0  0
 29 30  1  0  0  0  0
 30  5  1  1  0  0  0
 31 29  1  0  0  0  0
M  END
>  <MODEL>
5

>  <REMARK>
 VINA RESULT:      -9.8      2.123      5.101
  Name = 
  1 active torsions:
  status: ('A' for Active; 'I' for Inactive)
    1  A    between atoms: C_5  and  C_30
                            x       y       z     vdW  Elec       q    Type
                         _______ _______ _______ _____ _____    ______ ____

>  <TORSDO>
F 1

$$$$
=
 OpenBabel11122411063D

 31 35  0  0  1  0  0  0  0  0999 V2000
  189.6700  177.4430  146.7490 C   0  0  0  0  0  0  0  0  0  0  0  0
  187.8190  177.4320  143.3850 C   0  0  2  0  0  3  0  0  0  0  0  0
  186.5760  178.2490  143.6770 C   0  0  0  0  0  0  0  0  0  0  0  0
  192.3510  176.4800  140.6370 O   0  0  0  0  0  0  0  0  0  0  0  0
  191.4270  176.7770  139.8310 C   0  0  0  0  0  0  0  0  0  0  0  0
  184.7150  178.9940  145.1580 C   0  0  2  0  0  3  0  0  0  0  0  0
  188.9270  177.4480  144.4300 C   0  0  0  0  0  0  0  0  0  0  0  0
  190.9840  177.2150  146.3370 C   0  0  0  0  0  3  0  0  0  0  0  0
  185.9710  178.2170  144.8690 C   0  0  0  0  0  3  0  0  0  0  0  0
  189.7390  177.2860  141.6770 C   0  0  0  0  0  0  0  0  0  0  0  0
  189.3770  177.5600  148.1000 O   0  0  0  0  0  1  0  0  0  0  0  0
  186.3860  178.8800  141.3650 N   0  0  0  0  0  0  0  0  0  0  0  0
  183.8040  178.1950  146.0650 C   0  0  0  0  0  1  0  0  0  0  0  0
  190.5880  177.0560  142.6360 N   0  0  0  0  0  0  0  0  0  0  0  0
  188.3710  177.7270  142.0050 C   0  0  0  0  0  0  0  0  0  0  0  0
  190.1360  177.1780  140.3030 N   0  0  0  0  0  2  0  0  0  0  0  0
  188.6480  177.5430  145.8030 C   0  0  0  0  0  3  0  0  0  0  0  0
  183.9760  179.4120  143.9140 C   0  0  0  0  0  3  0  0  0  0  0  0
  190.2580  177.1960  144.0250 C   0  0  0  0  0  0  0  0  0  0  0  0
  191.2750  177.0880  144.9770 C   0  0  0  0  0  3  0  0  0  0  0  0
  187.6660  178.3540  141.1080 N   0  0  0  0  0  0  0  0  0  0  0  0
  185.8590  178.8740  142.5500 C   0  0  0  0  0  0  0  0  0  0  0  0
  184.5330  179.3780  142.7410 N   0  0  0  0  0  0  0  0  0  0  0  0
  192.5810  175.2750  135.9640 C   0  0  1  0  0  3  0  0  0  0  0  0
  193.1540  176.4620  138.0870 C   0  0  0  0  0  2  0  0  0  0  0  0
  189.4520  175.9150  137.8820 O   0  0  0  0  0  1  0  0  0  0  0  0
  192.8270  175.2200  134.5940 O   0  0  0  0  0  1  0  0  0  0  0  0
  193.4180  176.3870  136.5860 C   0  0  0  0  0  2  0  0  0  0  0  0
  190.8060  175.6250  137.7000 C   0  0  2  0  0  3  0  0  0  0  0  0
  191.6700  176.7100  138.3570 C   0  0  1  0  0  3  0  0  0  0  0  0
  191.0990  175.5420  136.2040 C   0  0  0  0  0  2  0  0  0  0  0  0
  1 11  1  0  0  0  0
  2 15  1  6  0  0  0
  2  3  1  0  0  0  0
  2  7  1  0  0  0  0
  3  9  2  0  0  0  0
  5 16  1  0  0  0  0
  5  4  2  0  0  0  0
  6 13  1  1  0  0  0
  7 17  1  0  0  0  0
  8  1  1  0  0  0  0
  9  6  1  0  0  0  0
 10 15  1  0  0  0  0
 10 14  2  0  0  0  0
 12 22  2  0  0  0  0
 14 19  1  0  0  0  0
 16 10  1  0  0  0  0
 17  1  2  0  0  0  0
 18  6  1  0  0  0  0
 19  7  2  0  0  0  0
 19 20  1  0  0  0  0
 20  8  2  0  0  0  0
 21 12  1  0  0  0  0
 21 15  2  0  0  0  0
 22 23  1  0  0  0  0
 22  3  1  0  0  0  0
 23 18  2  0  0  0  0
 24 27  1  6  0  0  0
 24 31  1  0  0  0  0
 24 28  1  0  0  0  0
 25 30  1  0  0  0  0
 28 25  1  0  0  0  0
 29 26  1  6  0  0  0
 29 30  1  0  0  0  0
 30  5  1  1  0  0  0
 31 29  1  0  0  0  0
M  END
>  <MODEL>
6

>  <REMARK>
 VINA RESULT:      -9.8      2.041      4.391
  Name = 
  1 active torsions:
  status: ('A' for Active; 'I' for Inactive)
    1  A    between atoms: C_5  and  C_30
                            x       y       z     vdW  Elec       q    Type
                         _______ _______ _______ _____ _____    ______ ____

>  <TORSDO>
F 1

$$$$
=
 OpenBabel11122411063D

 31 35  0  0  1  0  0  0  0  0999 V2000
  186.0550  178.0620  145.3920 C   0  0  0  0  0  0  0  0  0  0  0  0
  186.9830  178.7840  141.7370 C   0  0  2  0  0  3  0  0  0  0  0  0
  188.3030  178.0560  141.5700 C   0  0  0  0  0  0  0  0  0  0  0  0
  181.8560  179.7140  140.3810 O   0  0  0  0  0  0  0  0  0  0  0  0
  182.5590  179.6390  139.3360 C   0  0  0  0  0  0  0  0  0  0  0  0
  190.5170  177.2700  142.4000 C   0  0  2  0  0  3  0  0  0  0  0  0
  186.1810  178.4950  142.9990 C   0  0  0  0  0  0  0  0  0  0  0  0
  184.6690  178.2230  145.3570 C   0  0  0  0  0  3  0  0  0  0  0  0
  189.1880  177.9570  142.5670 C   0  0  0  0  0  3  0  0  0  0  0  0
  184.6870  179.0110  140.5990 C   0  0  0  0  0  0  0  0  0  0  0  0
  186.6890  177.7610  146.5900 O   0  0  0  0  0  1  0  0  0  0  0  0
  187.9310  177.8200  139.2070 N   0  0  0  0  0  0  0  0  0  0  0  0
  191.5840  178.0000  143.1870 C   0  0  0  0  0  1  0  0  0  0  0  0
  184.0990  179.0030  141.7590 N   0  0  0  0  0  0  0  0  0  0  0  0
  186.1140  178.6590  140.5020 C   0  0  0  0  0  0  0  0  0  0  0  0
  183.9470  179.2960  139.4030 N   0  0  0  0  0  2  0  0  0  0  0  0
  186.8060  178.2120  144.2250 C   0  0  0  0  0  3  0  0  0  0  0  0
  190.9360  177.1280  140.9610 C   0  0  0  0  0  3  0  0  0  0  0  0
  184.7790  178.6780  142.9800 C   0  0  0  0  0  0  0  0  0  0  0  0
  184.0340  178.5350  144.1530 C   0  0  0  0  0  3  0  0  0  0  0  0
  186.6010  178.2530  139.3640 N   0  0  0  0  0  0  0  0  0  0  0  0
  188.7410  177.6890  140.2110 C   0  0  0  0  0  0  0  0  0  0  0  0
  190.0980  177.2930  139.9830 N   0  0  0  0  0  0  0  0  0  0  0  0
  179.5990  180.2510  136.2700 C   0  0  1  0  0  3  0  0  0  0  0  0
  181.0890  178.7230  137.5670 C   0  0  0  0  0  2  0  0  0  0  0  0
  181.9290  182.2940  138.3370 O   0  0  0  0  0  1  0  0  0  0  0  0
  179.0260  180.4870  135.0210 O   0  0  0  0  0  1  0  0  0  0  0  0
  180.4520  178.9900  136.2070 C   0  0  0  0  0  2  0  0  0  0  0  0
  181.1140  181.2040  138.0260 C   0  0  2  0  0  3  0  0  0  0  0  0
  181.9450  179.9140  138.0010 C   0  0  1  0  0  3  0  0  0  0  0  0
  180.4610  181.4450  136.6670 C   0  0  0  0  0  2  0  0  0  0  0  0
  1 11  1  0  0  0  0
  2 15  1  6  0  0  0
  2  7  1  0  0  0  0
  3  2  1  0  0  0  0
  3  9  2  0  0  0  0
  5 16  1  0  0  0  0
  5  4  2  0  0  0  0
  6  9  1  0  0  0  0
  6 13  1  1  0  0  0
  7 17  1  0  0  0  0
  8  1  1  0  0  0  0
 10 14  2  0  0  0  0
 12 21  1  0  0  0  0
 12 22  2  0  0  0  0
 14 19  1  0  0  0  0
 15 10  1  0  0  0  0
 16 10  1  0  0  0  0
 17  1  2  0  0  0  0
 18  6  1  0  0  0  0
 19  7  2  0  0  0  0
 19 20  1  0  0  0  0
 20  8  2  0  0  0  0
 21 15  2  0  0  0  0
 22  3  1  0  0  0  0
 23 22  1  0  0  0  0
 23 18  2  0  0  0  0
 24 27  1  6  0  0  0
 24 31  1  0  0  0  0
 25 30  1  0  0  0  0
 28 24  1  0  0  0  0
 28 25  1  0  0  0  0
 29 26  1  6  0  0  0
 30 29  1  0  0  0  0
 30  5  1  1  0  0  0
 31 29  1  0  0  0  0
M  END
>  <MODEL>
7

>  <REMARK>
 VINA RESULT:      -9.6      4.208      6.405
  Name = 
  1 active torsions:
  status: ('A' for Active; 'I' for Inactive)
    1  A    between atoms: C_5  and  C_30
                            x       y       z     vdW  Elec       q    Type
                         _______ _______ _______ _____ _____    ______ ____

>  <TORSDO>
F 1

$$$$
=
 OpenBabel11122411063D

 31 35  0  0  1  0  0  0  0  0999 V2000
  181.5940  179.0020  142.9010 C   0  0  0  0  0  0  0  0  0  0  0  0
  185.0480  177.9220  141.6170 C   0  0  2  0  0  3  0  0  0  0  0  0
  185.0120  178.3290  140.1570 C   0  0  0  0  0  0  0  0  0  0  0  0
  187.1890  178.0960  146.5550 O   0  0  0  0  0  0  0  0  0  0  0  0
  188.1100  177.9640  145.7040 C   0  0  0  0  0  0  0  0  0  0  0  0
  183.8510  178.6390  137.9740 C   0  0  2  0  0  3  0  0  0  0  0  0
  183.9330  178.4410  142.5150 C   0  0  0  0  0  0  0  0  0  0  0  0
  181.8470  179.1520  144.2650 C   0  0  0  0  0  3  0  0  0  0  0  0
  183.8890  178.2740  139.4340 C   0  0  0  0  0  3  0  0  0  0  0  0
  186.5340  178.1600  143.7050 C   0  0  0  0  0  0  0  0  0  0  0  0
  180.3150  179.2090  142.4050 O   0  0  0  0  0  1  0  0  0  0  0  0
  187.4070  178.5320  140.1030 N   0  0  0  0  0  0  0  0  0  0  0  0
  182.8970  177.7270  137.2330 C   0  0  0  0  0  1  0  0  0  0  0  0
  185.4810  178.3530  144.4450 N   0  0  0  0  0  0  0  0  0  0  0  0
  186.4070  178.1800  142.2380 C   0  0  0  0  0  0  0  0  0  0  0  0
  187.8280  177.9920  144.3000 N   0  0  0  0  0  2  0  0  0  0  0  0
  182.6270  178.6340  142.0360 C   0  0  0  0  0  3  0  0  0  0  0  0
  185.2070  178.6180  137.3210 C   0  0  0  0  0  3  0  0  0  0  0  0
  184.1720  178.5740  143.9020 C   0  0  0  0  0  0  0  0  0  0  0  0
  183.1320  178.9340  144.7640 C   0  0  0  0  0  3  0  0  0  0  0  0
  187.4570  178.4140  141.5050 N   0  0  0  0  0  0  0  0  0  0  0  0
  186.2890  178.5250  139.4460 C   0  0  0  0  0  0  0  0  0  0  0  0
  186.3040  178.5980  138.0160 N   0  0  0  0  0  0  0  0  0  0  0  0
  191.6720  176.0820  147.2250 C   0  0  1  0  0  3  0  0  0  0  0  0
  189.5450  177.3330  147.6190 C   0  0  0  0  0  2  0  0  0  0  0  0
  190.3020  177.2110  143.9510 O   0  0  0  0  0  1  0  0  0  0  0  0
  192.9830  175.9070  147.6650 O   0  0  0  0  0  1  0  0  0  0  0  0
  190.9810  177.1270  148.0930 C   0  0  0  0  0  2  0  0  0  0  0  0
  190.2550  176.7530  145.2690 C   0  0  2  0  0  3  0  0  0  0  0  0
  189.5230  177.7700  146.1540 C   0  0  1  0  0  3  0  0  0  0  0  0
  191.6800  176.5370  145.7690 C   0  0  0  0  0  2  0  0  0  0  0  0
  1  8  1  0  0  0  0
  2  3  1  6  0  0  0
  2 15  1  0  0  0  0
  2  7  1  0  0  0  0
  5  4  2  0  0  0  0
  6 13  1  6  0  0  0
  6  9  1  0  0  0  0
  7 19  2  0  0  0  0
  8 20  2  0  0  0  0
  9  3  2  0  0  0  0
 10 16  1  0  0  0  0
 10 14  2  0  0  0  0
 11  1  1  0  0  0  0
 12 21  1  0  0  0  0
 15 10  1  0  0  0  0
 16  5  1  0  0  0  0
 17  7  1  0  0  0  0
 17  1  2  0  0  0  0
 18  6  1  0  0  0  0
 18 23  2  0  0  0  0
 19 14  1  0  0  0  0
 19 20  1  0  0  0  0
 21 15  2  0  0  0  0
 22 12  2  0  0  0  0
 22  3  1  0  0  0  0
 23 22  1  0  0  0  0
 24 27  1  1  0  0  0
 24 28  1  0  0  0  0
 25 28  1  0  0  0  0
 29 26  1  6  0  0  0
 29 31  1  0  0  0  0
 29 30  1  0  0  0  0
 30  5  1  6  0  0  0
 30 25  1  0  0  0  0
 31 24  1  0  0  0  0
M  END
>  <MODEL>
8

>  <REMARK>
 VINA RESULT:      -9.4      3.728      7.719
  Name = 
  1 active torsions:
  status: ('A' for Active; 'I' for Inactive)
    1  A    between atoms: C_5  and  C_30
                            x       y       z     vdW  Elec       q    Type
                         _______ _______ _______ _____ _____    ______ ____

>  <TORSDO>
F 1

$$$$
=
 OpenBabel11122411063D

 31 35  0  0  1  0  0  0  0  0999 V2000
  187.0790  177.6550  144.6100 C   0  0  0  0  0  0  0  0  0  0  0  0
  187.0590  178.6040  140.8900 C   0  0  2  0  0  3  0  0  0  0  0  0
  188.2710  177.8740  140.3450 C   0  0  0  0  0  0  0  0  0  0  0  0
  181.7820  179.6750  140.9590 O   0  0  0  0  0  0  0  0  0  0  0  0
  182.1910  179.6610  139.7650 C   0  0  0  0  0  0  0  0  0  0  0  0
  190.6020  177.0130  140.5280 C   0  0  2  0  0  3  0  0  0  0  0  0
  186.5990  178.2420  142.2960 C   0  0  0  0  0  0  0  0  0  0  0  0
  185.7350  177.8330  144.9430 C   0  0  0  0  0  3  0  0  0  0  0  0
  189.3800  177.7020  141.0730 C   0  0  0  0  0  3  0  0  0  0  0  0
  184.5540  178.9290  140.3970 C   0  0  0  0  0  0  0  0  0  0  0  0
  187.9900  177.2710  145.5840 O   0  0  0  0  0  1  0  0  0  0  0  0
  187.3000  177.7970  138.1480 N   0  0  0  0  0  0  0  0  0  0  0  0
  191.8550  177.6790  141.0560 C   0  0  0  0  0  1  0  0  0  0  0  0
  184.2830  178.8520  141.6670 N   0  0  0  0  0  0  0  0  0  0  0  0
  185.8990  178.5690  139.9150 C   0  0  0  0  0  0  0  0  0  0  0  0
  183.5400  179.2990  139.4520 N   0  0  0  0  0  2  0  0  0  0  0  0
  187.5090  177.8740  143.3000 C   0  0  0  0  0  3  0  0  0  0  0  0
  190.6340  176.9610  139.0230 C   0  0  0  0  0  3  0  0  0  0  0  0
  185.2440  178.4410  142.6500 C   0  0  0  0  0  0  0  0  0  0  0  0
  184.8210  178.2290  143.9650 C   0  0  0  0  0  3  0  0  0  0  0  0
  186.0660  178.2330  138.6680 N   0  0  0  0  0  0  0  0  0  0  0  0
  188.3370  177.5930  138.9000 C   0  0  0  0  0  0  0  0  0  0  0  0
  189.5780  177.1980  138.3060 N   0  0  0  0  0  0  0  0  0  0  0  0
  180.7780  180.9100  135.8950 C   0  0  1  0  0  3  0  0  0  0  0  0
  181.5280  181.4690  138.2110 C   0  0  0  0  0  2  0  0  0  0  0  0
  181.0710  177.7650  137.8690 O   0  0  0  0  0  1  0  0  0  0  0  0
  179.9140  181.2730  134.8630 O   0  0  0  0  0  1  0  0  0  0  0  0
  180.5900  181.8600  137.0720 C   0  0  0  0  0  2  0  0  0  0  0  0
  181.4020  179.0610  137.4690 C   0  0  2  0  0  3  0  0  0  0  0  0
  181.2630  180.0290  138.6520 C   0  0  1  0  0  3  0  0  0  0  0  0
  180.4790  179.4780  136.3270 C   0  0  0  0  0  2  0  0  0  0  0  0
  1  8  1  0  0  0  0
  1 11  1  0  0  0  0
  2 15  1  6  0  0  0
  2  7  1  0  0  0  0
  3  2  1  0  0  0  0
  3  9  2  0  0  0  0
  5  4  2  0  0  0  0
  6 13  1  6  0  0  0
  6  9  1  0  0  0  0
  7 19  2  0  0  0  0
  7 17  1  0  0  0  0
 10 14  2  0  0  0  0
 12 21  1  0  0  0  0
 12 22  2  0  0  0  0
 14 19  1  0  0  0  0
 15 10  1  0  0  0  0
 16  5  1  0  0  0  0
 16 10  1  0  0  0  0
 17  1  2  0  0  0  0
 18  6  1  0  0  0  0
 19 20  1  0  0  0  0
 20  8  2  0  0  0  0
 21 15  2  0  0  0  0
 22  3  1  0  0  0  0
 23 22  1  0  0  0  0
 23 18  2  0  0  0  0
 24 27  1  6  0  0  0
 24 31  1  0  0  0  0
 24 28  1  0  0  0  0
 25 30  1  0  0  0  0
 28 25  1  0  0  0  0
 29 26  1  1  0  0  0
 29 30  1  0  0  0  0
 30  5  1  1  0  0  0
 31 29  1  0  0  0  0
M  END
>  <MODEL>
9

>  <REMARK>
 VINA RESULT:      -9.2      4.203      6.850
  Name = 
  1 active torsions:
  status: ('A' for Active; 'I' for Inactive)
    1  A    between atoms: C_5  and  C_30
                            x       y       z     vdW  Elec       q    Type
                         _______ _______ _______ _____ _____    ______ ____

>  <TORSDO>
F 1

$$$$
