=
 OpenBabel11122411203D

 31 35  0  0  1  0  0  0  0  0999 V2000
  191.2740  175.6680  143.8100 C   0  0  2  0  0  3  0  0  0  0  0  0
  187.8660  176.8530  144.1830 C   0  0  2  0  0  3  0  0  0  0  0  0
  187.2260  177.6590  145.2970 C   0  0  0  0  0  0  0  0  0  0  0  0
  187.1810  178.4130  147.6060 C   0  0  0  0  0  0  0  0  0  0  0  0
  189.4000  176.8490  144.2540 C   0  0  1  0  0  3  0  0  0  0  0  0
  192.0490  176.8510  143.2330 C   0  0  0  0  0  2  0  0  0  0  0  0
  187.7960  177.6920  146.5790 C   0  0  0  0  0  3  0  0  0  0  0  0
  187.9850  178.6120  142.3350 C   0  0  2  0  0  3  0  0  0  0  0  0
  191.7730  174.4920  143.2830 F   0  0  0  0  0  0  0  0  0  0  0  0
  185.3930  178.2650  143.8120 O   0  0  0  0  0  0  0  0  0  0  0  0
  187.9100  178.4620  149.1950 Cl  0  0  0  0  0  0  0  0  0  0  0  0
  189.5090  178.5340  142.3730 C   0  0  0  0  0  2  0  0  0  0  0  0
  187.3660  177.2790  142.7830 C   0  0  2  0  0  3  0  0  0  0  0  0
  189.9130  175.7870  143.4820 O   0  0  0  0  0  0  0  0  0  0  0  0
  185.9850  179.0950  147.3640 C   0  0  0  0  0  3  0  0  0  0  0  0
  189.9840  178.1980  143.7840 C   0  0  2  0  0  3  0  0  0  0  0  0
  191.5120  178.1460  143.8410 C   0  0  0  0  0  2  0  0  0  0  0  0
  185.8390  177.3630  142.7980 C   0  0  0  0  0  2  0  0  0  0  0  0
  186.0020  178.3170  145.0690 C   0  0  0  0  0  0  0  0  0  0  0  0
  185.3970  179.0460  146.0970 C   0  0  0  0  0  3  0  0  0  0  0  0
  188.5850  177.0830  140.0000 O   0  0  0  0  0  0  0  0  0  0  0  0
  187.8780  178.1170  139.8560 C   0  0  0  0  0  0  0  0  0  0  0  0
  187.5510  178.9340  140.9810 N   0  0  0  0  0  2  0  0  0  0  0  0
  187.0010  176.9970  135.9690 C   0  0  2  0  0  3  0  0  0  0  0  0
  186.1870  177.7430  138.1640 N   0  0  0  0  0  2  0  0  0  0  0  0
  189.7860  178.5630  137.9380 O   0  0  0  0  0  1  0  0  0  0  0  0
  187.0600  177.4620  134.5940 N   0  0  0  0  0  1  0  0  0  0  0  0
  185.9270  177.7860  136.7270 C   0  0  0  0  0  2  0  0  0  0  0  0
  188.5000  178.4200  137.4100 C   0  0  2  0  0  3  0  0  0  0  0  0
  187.3960  178.5170  138.4970 C   0  0  2  0  0  3  0  0  0  0  0  0
  188.3850  177.1220  136.6180 C   0  0  0  0  0  2  0  0  0  0  0  0
  1  9  1  6  0  0  0
  2  5  1  0  0  0  0
  2  3  1  1  0  0  0
  3  7  1  0  0  0  0
  4 11  1  0  0  0  0
  5 14  1  6  0  0  0
  6  1  1  0  0  0  0
  6 17  1  0  0  0  0
  7  4  2  0  0  0  0
  8 23  1  6  0  0  0
  8 12  1  0  0  0  0
  8 13  1  0  0  0  0
 10 19  1  0  0  0  0
 13 18  1  1  0  0  0
 13  2  1  0  0  0  0
 14  1  1  0  0  0  0
 15  4  1  0  0  0  0
 16 12  1  6  0  0  0
 16 17  1  0  0  0  0
 16  5  1  0  0  0  0
 18 10  1  0  0  0  0
 19  3  2  0  0  0  0
 19 20  1  0  0  0  0
 20 15  2  0  0  0  0
 22 21  2  0  0  0  0
 22 23  1  0  0  0  0
 24 27  1  6  0  0  0
 24 31  1  0  0  0  0
 24 28  1  0  0  0  0
 25 30  1  0  0  0  0
 28 25  1  0  0  0  0
 29 26  1  1  0  0  0
 29 30  1  0  0  0  0
 30 22  1  1  0  0  0
 31 29  1  0  0  0  0
M  END
>  <MODEL>
1

>  <REMARK>
 VINA RESULT:      -8.0      0.000      0.000
  Name = 
  2 active torsions:
  status: ('A' for Active; 'I' for Inactive)
    1  A    between atoms: C_5  and  C_30
    2  A    between atoms: C_10  and  N_16
                            x       y       z     vdW  Elec       q    Type
                         _______ _______ _______ _____ _____    ______ ____

>  <TORSDO>
F 2

$$$$
=
 OpenBabel11122411203D

 31 35  0  0  1  0  0  0  0  0999 V2000
  187.1250  179.0260  136.7390 C   0  0  2  0  0  3  0  0  0  0  0  0
  189.1480  178.1660  139.6270 C   0  0  2  0  0  3  0  0  0  0  0  0
  188.7320  177.7520  141.0240 C   0  0  0  0  0  0  0  0  0  0  0  0
  187.0950  177.7060  142.8190 C   0  0  0  0  0  0  0  0  0  0  0  0
  187.9900  178.1170  138.6190 C   0  0  1  0  0  3  0  0  0  0  0  0
  186.7520  177.6890  136.1000 C   0  0  0  0  0  2  0  0  0  0  0  0
  187.4560  178.0660  141.5180 C   0  0  0  0  0  3  0  0  0  0  0  0
  190.0030  175.9420  138.7080 C   0  0  2  0  0  3  0  0  0  0  0  0
  187.3130  179.9710  135.7500 F   0  0  0  0  0  0  0  0  0  0  0  0
  190.9520  176.8290  141.4160 O   0  0  0  0  0  0  0  0  0  0  0  0
  185.4950  178.0860  143.4170 Cl  0  0  0  0  0  0  0  0  0  0  0  0
  188.8860  175.9540  137.6670 C   0  0  0  0  0  2  0  0  0  0  0  0
  190.3750  177.3760  139.1160 C   0  0  2  0  0  3  0  0  0  0  0  0
  188.3110  178.8820  137.4800 O   0  0  0  0  0  0  0  0  0  0  0  0
  188.0090  177.0410  143.6410 C   0  0  0  0  0  3  0  0  0  0  0  0
  187.6550  176.6630  138.2240 C   0  0  2  0  0  3  0  0  0  0  0  0
  186.5180  176.6560  137.2010 C   0  0  0  0  0  2  0  0  0  0  0  0
  191.4570  177.3740  140.1960 C   0  0  0  0  0  2  0  0  0  0  0  0
  189.6620  177.1150  141.8700 C   0  0  0  0  0  0  0  0  0  0  0  0
  189.2910  176.7480  143.1670 C   0  0  0  0  0  3  0  0  0  0  0  0
  191.0960  176.3770  136.1070 O   0  0  0  0  0  0  0  0  0  0  0  0
  191.6710  175.5370  136.8490 C   0  0  0  0  0  0  0  0  0  0  0  0
  191.1690  175.2620  138.1580 N   0  0  0  0  0  2  0  0  0  0  0  0
  194.8980  173.0980  137.7290 C   0  0  2  0  0  3  0  0  0  0  0  0
  192.7070  173.3580  136.6470 N   0  0  0  0  0  2  0  0  0  0  0  0
  194.1130  176.7310  137.2130 O   0  0  0  0  0  1  0  0  0  0  0  0
  196.2840  172.8470  137.3760 N   0  0  0  0  0  1  0  0  0  0  0  0
  193.9910  172.6640  136.5710 C   0  0  0  0  0  2  0  0  0  0  0  0
  194.2080  175.3730  136.8960 C   0  0  2  0  0  3  0  0  0  0  0  0
  192.8730  174.7930  136.3570 C   0  0  2  0  0  3  0  0  0  0  0  0
  194.7150  174.5760  138.0940 C   0  0  0  0  0  2  0  0  0  0  0  0
  1  9  1  6  0  0  0
  1 14  1  0  0  0  0
  2  3  1  1  0  0  0
  3  7  2  0  0  0  0
  3 19  1  0  0  0  0
  4 11  1  0  0  0  0
  4 15  2  0  0  0  0
  5 14  1  6  0  0  0
  5  2  1  0  0  0  0
  6  1  1  0  0  0  0
  6 17  1  0  0  0  0
  7  4  1  0  0  0  0
  8 23  1  6  0  0  0
  8 13  1  0  0  0  0
 10 19  1  0  0  0  0
 12 16  1  0  0  0  0
 12  8  1  0  0  0  0
 13  2  1  0  0  0  0
 13 18  1  1  0  0  0
 16 17  1  6  0  0  0
 16  5  1  0  0  0  0
 18 10  1  0  0  0  0
 19 20  2  0  0  0  0
 20 15  1  0  0  0  0
 21 22  2  0  0  0  0
 22 23  1  0  0  0  0
 24 27  1  6  0  0  0
 24 31  1  0  0  0  0
 28 25  1  0  0  0  0
 28 24  1  0  0  0  0
 29 26  1  1  0  0  0
 29 31  1  0  0  0  0
 30 25  1  0  0  0  0
 30 22  1  1  0  0  0
 30 29  1  0  0  0  0
M  END
>  <MODEL>
2

>  <REMARK>
 VINA RESULT:      -8.0      4.581      6.767
  Name = 
  2 active torsions:
  status: ('A' for Active; 'I' for Inactive)
    1  A    between atoms: C_5  and  C_30
    2  A    between atoms: C_10  and  N_16
                            x       y       z     vdW  Elec       q    Type
                         _______ _______ _______ _____ _____    ______ ____

>  <TORSDO>
F 2

$$$$
=
 OpenBabel11122411203D

 31 35  0  0  1  0  0  0  0  0999 V2000
  191.9470  175.5810  135.2090 C   0  0  2  0  0  3  0  0  0  0  0  0
  189.3150  177.4150  136.9060 C   0  0  2  0  0  3  0  0  0  0  0  0
  187.8180  177.1770  136.9330 C   0  0  0  0  0  0  0  0  0  0  0  0
  185.8050  176.2460  135.9420 C   0  0  0  0  0  0  0  0  0  0  0  0
  190.0990  176.2200  136.3430 C   0  0  1  0  0  3  0  0  0  0  0  0
  192.2730  174.4060  136.1300 C   0  0  0  0  0  2  0  0  0  0  0  0
  187.1890  176.4320  135.9230 C   0  0  0  0  0  3  0  0  0  0  0  0
  189.9540  176.6850  139.2680 C   0  0  2  0  0  3  0  0  0  0  0  0
  193.1030  176.0170  134.5940 F   0  0  0  0  0  0  0  0  0  0  0  0
  187.6310  178.5590  138.9300 O   0  0  0  0  0  0  0  0  0  0  0  0
  185.0340  175.3000  134.6880 Cl  0  0  0  0  0  0  0  0  0  0  0  0
  190.7870  175.5490  138.6810 C   0  0  0  0  0  2  0  0  0  0  0  0
  189.8690  177.8580  138.2800 C   0  0  2  0  0  3  0  0  0  0  0  0
  191.3920  176.6320  135.9600 O   0  0  0  0  0  0  0  0  0  0  0  0
  185.0360  176.8140  136.9620 C   0  0  0  0  0  3  0  0  0  0  0  0
  190.1740  175.0690  137.3680 C   0  0  2  0  0  3  0  0  0  0  0  0
  190.9840  173.9110  136.7850 C   0  0  0  0  0  2  0  0  0  0  0  0
  188.9920  178.9810  138.8370 C   0  0  0  0  0  2  0  0  0  0  0  0
  187.0330  177.7780  137.9370 C   0  0  0  0  0  0  0  0  0  0  0  0
  185.6500  177.5790  137.9570 C   0  0  0  0  0  3  0  0  0  0  0  0
  189.1610  175.8340  141.8750 O   0  0  0  0  0  0  0  0  0  0  0  0
  190.1160  176.6520  141.7920 C   0  0  0  0  0  0  0  0  0  0  0  0
  190.5540  177.1290  140.5190 N   0  0  0  0  0  2  0  0  0  0  0  0
  190.3390  176.6230  145.9260 C   0  0  2  0  0  3  0  0  0  0  0  0
  191.3590  176.0230  143.7720 N   0  0  0  0  0  2  0  0  0  0  0  0
  188.8520  178.6700  143.1530 O   0  0  0  0  0  1  0  0  0  0  0  0
  190.5960  177.4760  147.0730 N   0  0  0  0  0  1  0  0  0  0  0  0
  191.6450  176.3990  145.1550 C   0  0  0  0  0  2  0  0  0  0  0  0
  189.8520  178.0440  143.9030 C   0  0  2  0  0  3  0  0  0  0  0  0
  190.7840  177.1590  143.0320 C   0  0  2  0  0  3  0  0  0  0  0  0
  189.2440  177.2460  145.0510 C   0  0  0  0  0  2  0  0  0  0  0  0
  1  9  1  1  0  0  0
  1 14  1  0  0  0  0
  1  6  1  0  0  0  0
  2  3  1  1  0  0  0
  2 13  1  0  0  0  0
  3 19  1  0  0  0  0
  4 15  2  0  0  0  0
  5 14  1  1  0  0  0
  5  2  1  0  0  0  0
  5 16  1  0  0  0  0
  6 17  1  0  0  0  0
  7  4  1  0  0  0  0
  7  3  2  0  0  0  0
  8 23  1  1  0  0  0
 11  4  1  0  0  0  0
 12  8  1  0  0  0  0
 13 18  1  1  0  0  0
 13  8  1  0  0  0  0
 15 20  1  0  0  0  0
 16 17  1  6  0  0  0
 16 12  1  0  0  0  0
 18 10  1  0  0  0  0
 19 20  2  0  0  0  0
 19 10  1  0  0  0  0
 22 21  2  0  0  0  0
 23 22  1  0  0  0  0
 24 27  1  1  0  0  0
 25 28  1  0  0  0  0
 28 24  1  0  0  0  0
 29 26  1  6  0  0  0
 29 31  1  0  0  0  0
 30 22  1  6  0  0  0
 30 25  1  0  0  0  0
 30 29  1  0  0  0  0
 31 24  1  0  0  0  0
M  END
>  <MODEL>
3

>  <REMARK>
 VINA RESULT:      -7.4      4.182      8.187
  Name = 
  2 active torsions:
  status: ('A' for Active; 'I' for Inactive)
    1  A    between atoms: C_5  and  C_30
    2  A    between atoms: C_10  and  N_16
                            x       y       z     vdW  Elec       q    Type
                         _______ _______ _______ _____ _____    ______ ____

>  <TORSDO>
F 2

$$$$
=
 OpenBabel11122411203D

 31 35  0  0  1  0  0  0  0  0999 V2000
  189.0890  177.5000  135.5240 C   0  0  2  0  0  3  0  0  0  0  0  0
  187.6630  178.5890  138.6770 C   0  0  2  0  0  3  0  0  0  0  0  0
  186.2790  178.3650  139.2540 C   0  0  0  0  0  0  0  0  0  0  0  0
  183.9180  177.8750  138.9610 C   0  0  0  0  0  0  0  0  0  0  0  0
  187.9620  177.6830  137.4740 C   0  0  1  0  0  3  0  0  0  0  0  0
  189.5570  176.0660  135.7700 C   0  0  0  0  0  2  0  0  0  0  0  0
  185.1940  178.0490  138.4210 C   0  0  0  0  0  3  0  0  0  0  0  0
  189.0490  177.0350  140.1550 C   0  0  2  0  0  3  0  0  0  0  0  0
  189.9660  178.1270  134.6610 F   0  0  0  0  0  0  0  0  0  0  0  0
  187.1130  178.9120  141.4770 O   0  0  0  0  0  0  0  0  0  0  0  0
  182.5770  177.4630  137.9160 Cl  0  0  0  0  0  0  0  0  0  0  0  0
  189.3930  176.1930  138.9290 C   0  0  0  0  0  2  0  0  0  0  0  0
  188.7740  178.4910  139.7490 C   0  0  2  0  0  3  0  0  0  0  0  0
  189.0490  178.2010  136.7410 O   0  0  0  0  0  0  0  0  0  0  0  0
  183.7110  178.0290  140.3350 C   0  0  0  0  0  3  0  0  0  0  0  0
  188.2470  176.2340  137.9230 C   0  0  2  0  0  3  0  0  0  0  0  0
  188.5670  175.3700  136.7030 C   0  0  0  0  0  2  0  0  0  0  0  0
  188.3770  179.3320  140.9630 C   0  0  0  0  0  2  0  0  0  0  0  0
  186.0570  178.5560  140.6330 C   0  0  0  0  0  0  0  0  0  0  0  0
  184.7790  178.3700  141.1680 C   0  0  0  0  0  3  0  0  0  0  0  0
  188.8610  176.1620  142.8660 O   0  0  0  0  0  0  0  0  0  0  0  0
  189.9940  176.5230  142.4450 C   0  0  0  0  0  0  0  0  0  0  0  0
  190.1550  176.9820  141.1030 N   0  0  0  0  0  2  0  0  0  0  0  0
  191.4740  175.9460  146.2680 C   0  0  2  0  0  3  0  0  0  0  0  0
  191.3140  175.1570  143.9460 N   0  0  0  0  0  2  0  0  0  0  0  0
  190.4080  178.7410  144.0030 O   0  0  0  0  0  1  0  0  0  0  0  0
  192.4700  176.4350  147.2040 N   0  0  0  0  0  1  0  0  0  0  0  0
  192.1720  175.1940  145.1280 C   0  0  0  0  0  2  0  0  0  0  0  0
  191.1430  177.6300  144.4240 C   0  0  2  0  0  3  0  0  0  0  0  0
  191.1790  176.5020  143.3590 C   0  0  2  0  0  3  0  0  0  0  0  0
  190.6210  177.1150  145.7610 C   0  0  0  0  0  2  0  0  0  0  0  0
  1  9  1  6  0  0  0
  1  6  1  0  0  0  0
  1 14  1  0  0  0  0
  2  3  1  1  0  0  0
  2 13  1  0  0  0  0
  3 19  1  0  0  0  0
  4 15  2  0  0  0  0
  5 14  1  1  0  0  0
  5 16  1  0  0  0  0
  5  2  1  0  0  0  0
  6 17  1  0  0  0  0
  7  4  1  0  0  0  0
  7  3  2  0  0  0  0
  8 23  1  1  0  0  0
 11  4  1  0  0  0  0
 12  8  1  0  0  0  0
 13  8  1  0  0  0  0
 13 18  1  1  0  0  0
 15 20  1  0  0  0  0
 16 17  1  6  0  0  0
 16 12  1  0  0  0  0
 18 10  1  0  0  0  0
 19 20  2  0  0  0  0
 19 10  1  0  0  0  0
 22 21  2  0  0  0  0
 23 22  1  0  0  0  0
 24 27  1  1  0  0  0
 25 28  1  0  0  0  0
 28 24  1  0  0  0  0
 29 26  1  6  0  0  0
 29 31  1  0  0  0  0
 30 22  1  1  0  0  0
 30 25  1  0  0  0  0
 30 29  1  0  0  0  0
 31 24  1  0  0  0  0
M  END
>  <MODEL>
4

>  <REMARK>
 VINA RESULT:      -6.9      4.049      7.503
  Name = 
  2 active torsions:
  status: ('A' for Active; 'I' for Inactive)
    1  A    between atoms: C_5  and  C_30
    2  A    between atoms: C_10  and  N_16
                            x       y       z     vdW  Elec       q    Type
                         _______ _______ _______ _____ _____    ______ ____

>  <TORSDO>
F 2

$$$$
=
 OpenBabel11122411203D

 31 35  0  0  1  0  0  0  0  0999 V2000
  191.4810  177.9650  142.9340 C   0  0  2  0  0  3  0  0  0  0  0  0
  190.8320  177.8780  139.3660 C   0  0  2  0  0  3  0  0  0  0  0  0
  191.1850  176.8260  138.3330 C   0  0  0  0  0  0  0  0  0  0  0  0
  192.5570  174.9620  137.5940 C   0  0  0  0  0  0  0  0  0  0  0  0
  190.9930  177.3760  140.8080 C   0  0  1  0  0  3  0  0  0  0  0  0
  190.3590  177.1440  143.5660 C   0  0  0  0  0  2  0  0  0  0  0  0
  192.2200  175.9070  138.5660 C   0  0  0  0  0  3  0  0  0  0  0  0
  188.3100  177.5270  139.5560 C   0  0  2  0  0  3  0  0  0  0  0  0
  191.8080  179.0150  143.7710 F   0  0  0  0  0  0  0  0  0  0  0  0
  189.5180  177.7510  136.8160 O   0  0  0  0  0  0  0  0  0  0  0  0
  193.8360  173.8090  137.9030 Cl  0  0  0  0  0  0  0  0  0  0  0  0
  188.4890  177.1030  141.0120 C   0  0  0  0  0  2  0  0  0  0  0  0
  189.4310  178.4890  139.1330 C   0  0  2  0  0  3  0  0  0  0  0  0
  191.0580  178.4710  141.6930 O   0  0  0  0  0  0  0  0  0  0  0  0
  191.8720  174.9360  136.3760 C   0  0  0  0  0  3  0  0  0  0  0  0
  189.8430  176.4250  141.2000 C   0  0  2  0  0  3  0  0  0  0  0  0
  190.0220  175.9690  142.6490 C   0  0  0  0  0  2  0  0  0  0  0  0
  189.2900  178.8790  137.6610 C   0  0  0  0  0  2  0  0  0  0  0  0
  190.5240  176.8190  137.0880 C   0  0  0  0  0  0  0  0  0  0  0  0
  190.8580  175.8640  136.1240 C   0  0  0  0  0  3  0  0  0  0  0  0
  186.4190  176.9490  137.4970 O   0  0  0  0  0  0  0  0  0  0  0  0
  186.1070  177.8250  138.3480 C   0  0  0  0  0  0  0  0  0  0  0  0
  187.0120  178.1710  139.3970 N   0  0  0  0  0  2  0  0  0  0  0  0
  182.6040  179.0030  140.2120 C   0  0  2  0  0  3  0  0  0  0  0  0
  184.7660  179.6370  139.2290 N   0  0  0  0  0  2  0  0  0  0  0  0
  183.8760  176.2760  137.9690 O   0  0  0  0  0  1  0  0  0  0  0  0
  181.1840  179.1970  139.9800 N   0  0  0  0  0  1  0  0  0  0  0  0
  183.3940  180.0840  139.4640 C   0  0  0  0  0  2  0  0  0  0  0  0
  183.5770  177.5800  138.3750 C   0  0  2  0  0  3  0  0  0  0  0  0
  184.7940  178.5360  138.2510 C   0  0  2  0  0  3  0  0  0  0  0  0
  183.0090  177.5850  139.7900 C   0  0  0  0  0  2  0  0  0  0  0  0
  1  6  1  0  0  0  0
  1  9  1  1  0  0  0
  2  3  1  6  0  0  0
  2  5  1  0  0  0  0
  3  7  1  0  0  0  0
  4 11  1  0  0  0  0
  4  7  2  0  0  0  0
  5 16  1  0  0  0  0
  5 14  1  1  0  0  0
  8 23  1  1  0  0  0
  8 12  1  0  0  0  0
 10 19  1  0  0  0  0
 10 18  1  0  0  0  0
 13 18  1  6  0  0  0
 13  2  1  0  0  0  0
 13  8  1  0  0  0  0
 14  1  1  0  0  0  0
 15  4  1  0  0  0  0
 16 12  1  1  0  0  0
 16 17  1  0  0  0  0
 17  6  1  0  0  0  0
 19  3  2  0  0  0  0
 20 15  2  0  0  0  0
 20 19  1  0  0  0  0
 21 22  2  0  0  0  0
 22 23  1  0  0  0  0
 24 27  1  6  0  0  0
 25 28  1  0  0  0  0
 28 24  1  0  0  0  0
 29 26  1  1  0  0  0
 29 31  1  0  0  0  0
 30 22  1  1  0  0  0
 30 29  1  0  0  0  0
 30 25  1  0  0  0  0
 31 24  1  0  0  0  0
M  END
>  <MODEL>
5

>  <REMARK>
 VINA RESULT:      -6.9      4.031      6.693
  Name = 
  2 active torsions:
  status: ('A' for Active; 'I' for Inactive)
    1  A    between atoms: C_5  and  C_30
    2  A    between atoms: C_10  and  N_16
                            x       y       z     vdW  Elec       q    Type
                         _______ _______ _______ _____ _____    ______ ____

>  <TORSDO>
F 2

$$$$
=
 OpenBabel11122411203D

 31 35  0  0  1  0  0  0  0  0999 V2000
  183.2640  178.9620  141.9390 C   0  0  2  0  0  3  0  0  0  0  0  0
  181.2200  179.0290  138.9420 C   0  0  2  0  0  3  0  0  0  0  0  0
  181.0540  180.1130  137.8950 C   0  0  0  0  0  0  0  0  0  0  0  0
  181.1800  182.4450  137.2240 C   0  0  0  0  0  0  0  0  0  0  0  0
  182.4260  179.2680  139.8630 C   0  0  1  0  0  3  0  0  0  0  0  0
  184.6560  178.5460  141.4650 C   0  0  0  0  0  2  0  0  0  0  0  0
  181.3670  181.4500  138.1870 C   0  0  0  0  0  3  0  0  0  0  0  0
  182.5930  177.3160  137.6370 C   0  0  2  0  0  3  0  0  0  0  0  0
  183.0250  178.4220  143.1880 F   0  0  0  0  0  0  0  0  0  0  0  0
  180.1460  178.4750  136.3380 O   0  0  0  0  0  0  0  0  0  0  0  0
  181.5910  184.1050  137.5940 Cl  0  0  0  0  0  0  0  0  0  0  0  0
  183.7500  177.5170  138.6110 C   0  0  0  0  0  2  0  0  0  0  0  0
  181.2510  177.6110  138.3260 C   0  0  2  0  0  3  0  0  0  0  0  0
  182.2960  178.4940  141.0340 O   0  0  0  0  0  0  0  0  0  0  0  0
  180.6690  182.1150  135.9660 C   0  0  0  0  0  3  0  0  0  0  0  0
  183.7520  178.9480  139.1410 C   0  0  2  0  0  3  0  0  0  0  0  0
  184.9250  179.1700  140.0960 C   0  0  0  0  0  2  0  0  0  0  0  0
  180.0880  177.4640  137.3440 C   0  0  0  0  0  2  0  0  0  0  0  0
  180.5040  179.7920  136.6380 C   0  0  0  0  0  0  0  0  0  0  0  0
  180.3300  180.7910  135.6750 C   0  0  0  0  0  3  0  0  0  0  0  0
  183.0470  176.5410  134.9270 O   0  0  0  0  0  0  0  0  0  0  0  0
  182.8540  175.6260  135.7730 C   0  0  0  0  0  0  0  0  0  0  0  0
  182.6090  175.9450  137.1430 N   0  0  0  0  0  2  0  0  0  0  0  0
  182.9070  171.6330  136.8630 C   0  0  2  0  0  3  0  0  0  0  0  0
  181.6640  173.5220  135.9010 N   0  0  0  0  0  2  0  0  0  0  0  0
  185.2700  174.3280  135.7480 O   0  0  0  0  0  1  0  0  0  0  0  0
  183.4300  170.3370  136.4680 N   0  0  0  0  0  1  0  0  0  0  0  0
  181.8270  172.0700  135.8670 C   0  0  0  0  0  2  0  0  0  0  0  0
  184.1780  173.4580  135.6780 C   0  0  2  0  0  3  0  0  0  0  0  0
  182.8520  174.1920  135.3440 C   0  0  2  0  0  3  0  0  0  0  0  0
  184.0540  172.6470  136.9640 C   0  0  0  0  0  2  0  0  0  0  0  0
  1  9  1  1  0  0  0
  2  3  1  6  0  0  0
  2  5  1  0  0  0  0
  3  7  1  0  0  0  0
  4 11  1  0  0  0  0
  4  7  2  0  0  0  0
  5 14  1  1  0  0  0
  6  1  1  0  0  0  0
  8 23  1  1  0  0  0
  8 13  1  0  0  0  0
  8 12  1  0  0  0  0
 10 19  1  0  0  0  0
 10 18  1  0  0  0  0
 13 18  1  6  0  0  0
 13  2  1  0  0  0  0
 14  1  1  0  0  0  0
 15  4  1  0  0  0  0
 16 12  1  1  0  0  0
 16  5  1  0  0  0  0
 16 17  1  0  0  0  0
 17  6  1  0  0  0  0
 19  3  2  0  0  0  0
 20 15  2  0  0  0  0
 20 19  1  0  0  0  0
 21 22  2  0  0  0  0
 22 23  1  0  0  0  0
 24 27  1  6  0  0  0
 24 31  1  0  0  0  0
 28 25  1  0  0  0  0
 28 24  1  0  0  0  0
 29 26  1  1  0  0  0
 29 31  1  0  0  0  0
 30 29  1  0  0  0  0
 30 22  1  1  0  0  0
 30 25  1  0  0  0  0
M  END
>  <MODEL>
6

>  <REMARK>
 VINA RESULT:      -6.5      6.232      8.825
  Name = 
  2 active torsions:
  status: ('A' for Active; 'I' for Inactive)
    1  A    between atoms: C_5  and  C_30
    2  A    between atoms: C_10  and  N_16
                            x       y       z     vdW  Elec       q    Type
                         _______ _______ _______ _____ _____    ______ ____

>  <TORSDO>
F 2

$$$$
=
 OpenBabel11122411203D

 31 35  0  0  1  0  0  0  0  0999 V2000
  191.7470  177.8740  143.2900 C   0  0  2  0  0  3  0  0  0  0  0  0
  190.8460  177.8840  139.7750 C   0  0  2  0  0  3  0  0  0  0  0  0
  191.1970  176.9040  138.6730 C   0  0  0  0  0  0  0  0  0  0  0  0
  192.6390  175.1780  137.7550 C   0  0  0  0  0  0  0  0  0  0  0  0
  191.1480  177.3370  141.1780 C   0  0  1  0  0  3  0  0  0  0  0  0
  190.7340  176.9470  143.9600 C   0  0  0  0  0  2  0  0  0  0  0  0
  192.3080  176.0550  138.7910 C   0  0  0  0  0  3  0  0  0  0  0  0
  188.3760  177.3400  140.1250 C   0  0  2  0  0  3  0  0  0  0  0  0
  192.0590  178.9100  144.1490 F   0  0  0  0  0  0  0  0  0  0  0  0
  189.3620  177.7640  137.3200 O   0  0  0  0  0  0  0  0  0  0  0  0
  194.0160  174.1120  137.9210 Cl  0  0  0  0  0  0  0  0  0  0  0  0
  188.6910  176.8720  141.5430 C   0  0  0  0  0  2  0  0  0  0  0  0
  189.3920  178.3990  139.6690 C   0  0  2  0  0  3  0  0  0  0  0  0
  191.1990  178.3970  142.1060 O   0  0  0  0  0  0  0  0  0  0  0  0
  191.8710  175.1510  136.5880 C   0  0  0  0  0  3  0  0  0  0  0  0
  190.0990  176.2880  141.6060 C   0  0  2  0  0  3  0  0  0  0  0  0
  190.4150  175.7880  143.0160 C   0  0  0  0  0  2  0  0  0  0  0  0
  189.1170  178.8370  138.2300 C   0  0  0  0  0  2  0  0  0  0  0  0
  190.4490  176.8990  137.4790 C   0  0  0  0  0  0  0  0  0  0  0  0
  190.7790  176.0110  136.4500 C   0  0  0  0  0  3  0  0  0  0  0  0
  187.1470  178.8450  142.2160 O   0  0  0  0  0  0  0  0  0  0  0  0
  186.4770  178.6490  141.1660 C   0  0  0  0  0  0  0  0  0  0  0  0
  187.0280  177.8930  140.0870 N   0  0  0  0  0  2  0  0  0  0  0  0
  182.4850  177.8970  140.3730 C   0  0  2  0  0  3  0  0  0  0  0  0
  184.2170  178.4830  142.0150 N   0  0  0  0  0  2  0  0  0  0  0  0
  185.5550  179.1860  138.6400 O   0  0  0  0  0  1  0  0  0  0  0  0
  181.3030  178.4750  139.7560 N   0  0  0  0  0  1  0  0  0  0  0  0
  182.8080  178.6570  141.6640 C   0  0  0  0  0  2  0  0  0  0  0  0
  184.5370  179.1360  139.5970 C   0  0  2  0  0  3  0  0  0  0  0  0
  185.0830  179.1810  141.0500 C   0  0  2  0  0  3  0  0  0  0  0  0
  183.6500  177.9150  139.3760 C   0  0  0  0  0  2  0  0  0  0  0  0
  1  6  1  0  0  0  0
  1  9  1  1  0  0  0
  2  3  1  6  0  0  0
  2  5  1  0  0  0  0
  3  7  1  0  0  0  0
  4 11  1  0  0  0  0
  4  7  2  0  0  0  0
  5 16  1  0  0  0  0
  5 14  1  1  0  0  0
  8 23  1  1  0  0  0
  8 12  1  0  0  0  0
 10 19  1  0  0  0  0
 10 18  1  0  0  0  0
 13 18  1  6  0  0  0
 13  2  1  0  0  0  0
 13  8  1  0  0  0  0
 14  1  1  0  0  0  0
 15  4  1  0  0  0  0
 16 12  1  1  0  0  0
 16 17  1  0  0  0  0
 17  6  1  0  0  0  0
 19  3  2  0  0  0  0
 20 15  2  0  0  0  0
 20 19  1  0  0  0  0
 22 21  2  0  0  0  0
 23 22  1  0  0  0  0
 24 27  1  6  0  0  0
 24 28  1  0  0  0  0
 28 25  1  0  0  0  0
 29 26  1  6  0  0  0
 29 30  1  0  0  0  0
 30 22  1  6  0  0  0
 30 25  1  0  0  0  0
 31 29  1  0  0  0  0
 31 24  1  0  0  0  0
M  END
>  <MODEL>
7

>  <REMARK>
 VINA RESULT:      -6.4      3.897      6.501
  Name = 
  2 active torsions:
  status: ('A' for Active; 'I' for Inactive)
    1  A    between atoms: C_5  and  C_30
    2  A    between atoms: C_10  and  N_16
                            x       y       z     vdW  Elec       q    Type
                         _______ _______ _______ _____ _____    ______ ____

>  <TORSDO>
F 2

$$$$
=
 OpenBabel11122411203D

 31 35  0  0  1  0  0  0  0  0999 V2000
  188.8260  178.4860  136.6830 C   0  0  2  0  0  3  0  0  0  0  0  0
  185.8110  178.4620  138.7020 C   0  0  2  0  0  3  0  0  0  0  0  0
  184.6540  177.4830  138.7210 C   0  0  0  0  0  0  0  0  0  0  0  0
  183.3070  175.7780  137.6360 C   0  0  0  0  0  0  0  0  0  0  0  0
  187.0330  177.9280  137.9420 C   0  0  1  0  0  3  0  0  0  0  0  0
  189.7940  177.5450  137.3990 C   0  0  0  0  0  2  0  0  0  0  0  0
  184.3950  176.6540  137.6190 C   0  0  0  0  0  3  0  0  0  0  0  0
  186.9630  177.8780  140.9050 C   0  0  2  0  0  3  0  0  0  0  0  0
  189.5330  179.5310  136.1220 F   0  0  0  0  0  0  0  0  0  0  0  0
  183.9900  178.3050  140.9170 O   0  0  0  0  0  0  0  0  0  0  0  0
  183.0040  174.7350  136.2640 Cl  0  0  0  0  0  0  0  0  0  0  0  0
  188.1950  177.4220  140.1280 C   0  0  0  0  0  2  0  0  0  0  0  0
  186.1960  178.9520  140.1180 C   0  0  2  0  0  3  0  0  0  0  0  0
  187.8920  178.9930  137.6030 O   0  0  0  0  0  0  0  0  0  0  0  0
  182.4620  175.7320  138.7480 C   0  0  0  0  0  3  0  0  0  0  0  0
  187.7840  176.8630  138.7690 C   0  0  2  0  0  3  0  0  0  0  0  0
  189.0090  176.3760  137.9930 C   0  0  0  0  0  2  0  0  0  0  0  0
  184.9300  179.3780  140.8640 C   0  0  0  0  0  2  0  0  0  0  0  0
  183.7770  177.4590  139.8240 C   0  0  0  0  0  0  0  0  0  0  0  0
  182.6970  176.5720  139.8400 C   0  0  0  0  0  3  0  0  0  0  0  0
  187.5560  176.3140  143.2190 O   0  0  0  0  0  0  0  0  0  0  0  0
  187.6690  177.5650  143.3150 C   0  0  0  0  0  0  0  0  0  0  0  0
  187.3760  178.4080  142.1990 N   0  0  0  0  0  2  0  0  0  0  0  0
  188.3040  177.1210  147.3810 C   0  0  2  0  0  3  0  0  0  0  0  0
  189.2540  177.4660  145.1410 N   0  0  0  0  0  2  0  0  0  0  0  0
  185.6690  178.3610  145.0140 O   0  0  0  0  0  1  0  0  0  0  0  0
  188.1800  177.8160  148.6500 N   0  0  0  0  0  1  0  0  0  0  0  0
  189.4360  177.7520  146.5630 C   0  0  0  0  0  2  0  0  0  0  0  0
  186.9200  178.2930  145.6320 C   0  0  2  0  0  3  0  0  0  0  0  0
  188.0840  178.1880  144.6110 C   0  0  2  0  0  3  0  0  0  0  0  0
  186.9610  177.1500  146.6400 C   0  0  0  0  0  2  0  0  0  0  0  0
  1  9  1  1  0  0  0
  1  6  1  0  0  0  0
  1 14  1  0  0  0  0
  2  3  1  1  0  0  0
  2 13  1  0  0  0  0
  3 19  1  0  0  0  0
  4 15  2  0  0  0  0
  5 14  1  1  0  0  0
  5  2  1  0  0  0  0
  5 16  1  0  0  0  0
  6 17  1  0  0  0  0
  7  4  1  0  0  0  0
  7  3  2  0  0  0  0
  8 23  1  1  0  0  0
 11  4  1  0  0  0  0
 12  8  1  0  0  0  0
 13 18  1  1  0  0  0
 13  8  1  0  0  0  0
 15 20  1  0  0  0  0
 16 17  1  6  0  0  0
 16 12  1  0  0  0  0
 18 10  1  0  0  0  0
 19 20  2  0  0  0  0
 19 10  1  0  0  0  0
 21 22  2  0  0  0  0
 23 22  1  0  0  0  0
 24 27  1  1  0  0  0
 25 28  1  0  0  0  0
 28 24  1  0  0  0  0
 29 26  1  6  0  0  0
 29 31  1  0  0  0  0
 30 22  1  6  0  0  0
 30 25  1  0  0  0  0
 30 29  1  0  0  0  0
 31 24  1  0  0  0  0
M  END
>  <MODEL>
8

>  <REMARK>
 VINA RESULT:      -6.3      4.024      7.809
  Name = 
  2 active torsions:
  status: ('A' for Active; 'I' for Inactive)
    1  A    between atoms: C_5  and  C_30
    2  A    between atoms: C_10  and  N_16
                            x       y       z     vdW  Elec       q    Type
                         _______ _______ _______ _____ _____    ______ ____

>  <TORSDO>
F 2

$$$$
=
 OpenBabel11122411203D

 31 35  0  0  1  0  0  0  0  0999 V2000
  179.5020  177.4660  137.4390 C   0  0  2  0  0  3  0  0  0  0  0  0
  182.1740  178.8080  139.4940 C   0  0  2  0  0  3  0  0  0  0  0  0
  182.3430  178.8100  141.0000 C   0  0  0  0  0  0  0  0  0  0  0  0
  181.4000  178.6900  143.2360 C   0  0  0  0  0  0  0  0  0  0  0  0
  181.0730  177.8500  139.0180 C   0  0  1  0  0  3  0  0  0  0  0  0
  179.8240  175.9800  137.2830 C   0  0  0  0  0  2  0  0  0  0  0  0
  181.2360  178.6550  141.8490 C   0  0  0  0  0  3  0  0  0  0  0  0
  183.9290  177.0780  138.8220 C   0  0  2  0  0  3  0  0  0  0  0  0
  178.9310  177.9370  136.2730 F   0  0  0  0  0  0  0  0  0  0  0  0
  184.7240  179.2520  140.7360 O   0  0  0  0  0  0  0  0  0  0  0  0
  180.0160  178.4760  144.2840 Cl  0  0  0  0  0  0  0  0  0  0  0  0
  182.8200  176.1760  138.2880 C   0  0  0  0  0  2  0  0  0  0  0  0
  183.5060  178.5530  138.7490 C   0  0  2  0  0  3  0  0  0  0  0  0
  180.6810  178.1820  137.7050 O   0  0  0  0  0  0  0  0  0  0  0  0
  182.6690  178.8930  143.7860 C   0  0  0  0  0  3  0  0  0  0  0  0
  181.5400  176.3810  139.0930 C   0  0  2  0  0  3  0  0  0  0  0  0
  180.4290  175.4600  138.5860 C   0  0  0  0  0  2  0  0  0  0  0  0
  184.5890  179.4630  139.3300 C   0  0  0  0  0  2  0  0  0  0  0  0
  183.6130  179.0520  141.5600 C   0  0  0  0  0  0  0  0  0  0  0  0
  183.7730  179.0750  142.9490 C   0  0  0  0  0  3  0  0  0  0  0  0
  184.1880  177.5350  136.0160 O   0  0  0  0  0  0  0  0  0  0  0  0
  185.2060  177.1280  136.6390 C   0  0  0  0  0  0  0  0  0  0  0  0
  185.1410  176.8670  138.0420 N   0  0  0  0  0  2  0  0  0  0  0  0
  189.1480  175.8750  136.7850 C   0  0  2  0  0  3  0  0  0  0  0  0
  186.8490  175.4600  136.0240 N   0  0  0  0  0  2  0  0  0  0  0  0
  187.1490  179.0510  136.8550 O   0  0  0  0  0  1  0  0  0  0  0  0
  190.4650  176.1450  136.2330 N   0  0  0  0  0  1  0  0  0  0  0  0
  188.2590  175.2560  135.7000 C   0  0  0  0  0  2  0  0  0  0  0  0
  187.6300  177.8380  136.3520 C   0  0  2  0  0  3  0  0  0  0  0  0
  186.4890  176.8840  135.9080 C   0  0  2  0  0  3  0  0  0  0  0  0
  188.5540  177.1660  137.3620 C   0  0  0  0  0  2  0  0  0  0  0  0
  1  9  1  6  0  0  0
  1 14  1  0  0  0  0
  2  3  1  1  0  0  0
  3 19  2  0  0  0  0
  3  7  1  0  0  0  0
  4 15  1  0  0  0  0
  4 11  1  0  0  0  0
  5 14  1  6  0  0  0
  5 16  1  0  0  0  0
  5  2  1  0  0  0  0
  6  1  1  0  0  0  0
  6 17  1  0  0  0  0
  7  4  2  0  0  0  0
  8 23  1  6  0  0  0
 10 19  1  0  0  0  0
 12  8  1  0  0  0  0
 13  8  1  0  0  0  0
 13 18  1  1  0  0  0
 13  2  1  0  0  0  0
 16 12  1  6  0  0  0
 17 16  1  0  0  0  0
 18 10  1  0  0  0  0
 19 20  1  0  0  0  0
 20 15  2  0  0  0  0
 21 22  2  0  0  0  0
 22 23  1  0  0  0  0
 24 27  1  6  0  0  0
 24 31  1  0  0  0  0
 28 25  1  0  0  0  0
 28 24  1  0  0  0  0
 29 26  1  1  0  0  0
 29 31  1  0  0  0  0
 30 25  1  0  0  0  0
 30 29  1  0  0  0  0
 30 22  1  1  0  0  0
M  END
>  <MODEL>
9

>  <REMARK>
 VINA RESULT:      -6.1      5.352      7.474
  Name = 
  2 active torsions:
  status: ('A' for Active; 'I' for Inactive)
    1  A    between atoms: C_5  and  C_30
    2  A    between atoms: C_10  and  N_16
                            x       y       z     vdW  Elec       q    Type
                         _______ _______ _______ _____ _____    ______ ____

>  <TORSDO>
F 2

$$$$
