=
 OpenBabel11122410253D

 30 36  0  0  1  0  0  0  0  0999 V2000
  189.1680  177.5570  143.3770 C   0  0  1  0  0  3  0  0  0  0  0  0
  191.2030  176.5810  144.5820 C   0  0  0  0  0  0  0  0  0  0  0  0
  187.1120  177.8770  147.1860 C   0  0  0  0  0  2  0  0  0  0  0  0
  187.8890  178.3910  143.6180 C   0  0  1  0  0  3  0  0  0  0  0  0
  189.9650  178.2040  142.4140 O   0  0  0  0  0  0  0  0  0  0  0  0
  187.3330  178.6880  140.0260 O   0  0  0  0  0  0  0  0  0  0  0  0
  184.7660  178.0180  142.8520 C   0  0  1  0  0  3  0  0  0  0  0  0
  187.8920  178.4350  141.1270 C   0  0  0  0  0  0  0  0  0  0  0  0
  184.6150  177.9610  144.3710 C   0  0  2  0  0  3  0  0  0  0  0  0
  185.8170  178.2530  146.5660 C   0  0  0  0  0  0  0  0  0  0  0  0
  189.3520  178.0360  141.1440 C   0  0  2  0  0  3  0  0  0  0  0  0
  187.1440  178.4930  142.3590 N   0  0  0  0  0  0  0  0  0  0  0  0
  191.8390  176.1780  145.7580 C   0  0  0  0  0  3  0  0  0  0  0  0
  183.4790  178.9120  144.6890 C   0  0  0  0  0  2  0  0  0  0  0  0
  183.3850  178.3610  142.3190 C   0  0  0  0  0  2  0  0  0  0  0  0
  191.8250  176.3490  143.3610 O   0  0  0  0  0  1  0  0  0  0  0  0
  188.0070  178.0330  145.9810 C   0  0  2  0  0  3  0  0  0  0  0  0
  191.2060  176.3730  146.9870 C   0  0  0  0  0  3  0  0  0  0  0  0
  189.9420  177.1990  144.6430 C   0  0  0  0  0  0  0  0  0  0  0  0
  187.1400  177.7310  144.7730 C   0  0  1  0  0  3  0  0  0  0  0  0
  184.7800  178.4790  147.2450 O   0  0  0  0  0  0  0  0  0  0  0  0
  185.8330  178.2680  145.1320 N   0  0  0  0  0  0  0  0  0  0  0  0
  182.5440  178.8150  143.5020 C   0  0  0  0  0  2  0  0  0  0  0  0
  185.7030  180.4300  142.9150 C   0  0  0  0  0  1  0  0  0  0  0  0
  189.9720  176.9380  147.0390 N   0  0  0  0  0  0  0  0  0  0  0  0
  189.3200  177.3210  145.9090 C   0  0  0  0  0  0  0  0  0  0  0  0
  185.7860  179.0290  142.3150 C   0  0  2  0  0  3  0  0  0  0  0  0
  189.5590  176.6260  140.5950 C   0  0  0  0  0  3  0  0  0  0  0  0
  190.9720  176.4900  140.0640 C   0  0  0  0  0  2  0  0  0  0  0  0
  189.8220  176.7030  139.1040 C   0  0  0  0  0  2  0  0  0  0  0  0
  1  5  1  6  0  0  0
  1  4  1  0  0  0  0
  1 19  1  0  0  0  0
  2 19  2  0  0  0  0
  2 13  1  0  0  0  0
  4 12  1  6  0  0  0
  4 20  1  0  0  0  0
  6  8  2  0  0  0  0
  7 15  1  6  0  0  0
  7  9  1  0  0  0  0
  8 11  1  0  0  0  0
  8 12  1  0  0  0  0
  9 14  1  1  0  0  0
  9 22  1  0  0  0  0
 10  3  1  0  0  0  0
 10 21  2  0  0  0  0
 11 28  1  1  0  0  0
 11  5  1  0  0  0  0
 13 18  2  0  0  0  0
 15 23  1  0  0  0  0
 16  2  1  0  0  0  0
 17  3  1  1  0  0  0
 18 25  1  0  0  0  0
 19 26  1  0  0  0  0
 20 22  1  1  0  0  0
 20 17  1  0  0  0  0
 22 10  1  0  0  0  0
 23 14  1  0  0  0  0
 26 17  1  0  0  0  0
 26 25  2  0  0  0  0
 27 12  1  0  0  0  0
 27  7  1  0  0  0  0
 27 24  1  1  0  0  0
 29 28  1  0  0  0  0
 30 29  1  0  0  0  0
 30 28  1  0  0  0  0
M  END
>  <MODEL>
1

>  <REMARK>
 VINA RESULT:      -9.3      0.000      0.000
  Name = 
  1 active torsions:
  status: ('A' for Active; 'I' for Inactive)
    1  A    between atoms: C_11  and  C_28
                            x       y       z     vdW  Elec       q    Type
                         _______ _______ _______ _____ _____    ______ ____

>  <TORSDO>
F 1

$$$$
=
 OpenBabel11122410253D

 30 36  0  0  1  0  0  0  0  0999 V2000
  186.2020  178.3820  142.6070 C   0  0  1  0  0  3  0  0  0  0  0  0
  186.7970  178.2210  145.0900 C   0  0  0  0  0  0  0  0  0  0  0  0
  182.0220  178.8510  143.6790 C   0  0  0  0  0  2  0  0  0  0  0  0
  185.0980  178.8780  141.6450 C   0  0  1  0  0  3  0  0  0  0  0  0
  187.4120  179.0260  142.2900 O   0  0  0  0  0  0  0  0  0  0  0  0
  187.2780  178.3430  138.7710 O   0  0  0  0  0  0  0  0  0  0  0  0
  183.5020  177.5560  139.1580 C   0  0  1  0  0  3  0  0  0  0  0  0
  186.8870  178.4560  139.9640 C   0  0  0  0  0  0  0  0  0  0  0  0
  182.3090  177.7450  140.0920 C   0  0  2  0  0  3  0  0  0  0  0  0
  181.5500  178.7490  142.2750 C   0  0  0  0  0  0  0  0  0  0  0  0
  187.9090  178.4680  141.0820 C   0  0  2  0  0  3  0  0  0  0  0  0
  185.4800  178.5420  140.2700 N   0  0  0  0  0  0  0  0  0  0  0  0
  186.4140  178.2280  146.4330 C   0  0  0  0  0  3  0  0  0  0  0  0
  181.2430  178.4040  139.2400 C   0  0  0  0  0  2  0  0  0  0  0  0
  182.9100  177.4160  137.7660 C   0  0  0  0  0  2  0  0  0  0  0  0
  188.1190  177.9390  144.7630 O   0  0  0  0  0  1  0  0  0  0  0  0
  183.5000  179.0110  143.4210 C   0  0  2  0  0  3  0  0  0  0  0  0
  185.0820  178.4730  146.7700 C   0  0  0  0  0  3  0  0  0  0  0  0
  185.8460  178.4840  144.0880 C   0  0  0  0  0  0  0  0  0  0  0  0
  183.7830  178.2700  142.1280 C   0  0  1  0  0  3  0  0  0  0  0  0
  180.3310  178.8140  141.9630 O   0  0  0  0  0  0  0  0  0  0  0  0
  182.5910  178.5000  141.3200 N   0  0  0  0  0  0  0  0  0  0  0  0
  181.4530  177.8440  137.8500 C   0  0  0  0  0  2  0  0  0  0  0  0
  183.9810  180.0980  139.0580 C   0  0  0  0  0  1  0  0  0  0  0  0
  184.1600  178.6920  145.7970 N   0  0  0  0  0  0  0  0  0  0  0  0
  184.4990  178.6710  144.4800 C   0  0  0  0  0  0  0  0  0  0  0  0
  184.5430  178.6820  139.1600 C   0  0  2  0  0  3  0  0  0  0  0  0
  188.5210  177.0870  141.3030 C   0  0  0  0  0  3  0  0  0  0  0  0
  189.7900  177.2180  142.1210 C   0  0  0  0  0  2  0  0  0  0  0  0
  189.8740  177.0240  140.6230 C   0  0  0  0  0  2  0  0  0  0  0  0
  1  5  1  1  0  0  0
  1 19  1  0  0  0  0
  2 13  1  0  0  0  0
  4 12  1  6  0  0  0
  4 20  1  0  0  0  0
  4  1  1  0  0  0  0
  6  8  2  0  0  0  0
  7 15  1  6  0  0  0
  7 27  1  0  0  0  0
  7  9  1  0  0  0  0
  8 12  1  0  0  0  0
  8 11  1  0  0  0  0
  9 14  1  6  0  0  0
  9 22  1  0  0  0  0
 10  3  1  0  0  0  0
 11 28  1  1  0  0  0
 11  5  1  0  0  0  0
 13 18  2  0  0  0  0
 15 23  1  0  0  0  0
 16  2  1  0  0  0  0
 17  3  1  1  0  0  0
 17 26  1  0  0  0  0
 19 26  1  0  0  0  0
 19  2  2  0  0  0  0
 20 22  1  6  0  0  0
 20 17  1  0  0  0  0
 21 10  2  0  0  0  0
 22 10  1  0  0  0  0
 23 14  1  0  0  0  0
 25 18  1  0  0  0  0
 26 25  2  0  0  0  0
 27 24  1  1  0  0  0
 27 12  1  0  0  0  0
 28 29  1  0  0  0  0
 30 28  1  0  0  0  0
 30 29  1  0  0  0  0
M  END
>  <MODEL>
2

>  <REMARK>
 VINA RESULT:      -9.1      2.671      4.505
  Name = 
  1 active torsions:
  status: ('A' for Active; 'I' for Inactive)
    1  A    between atoms: C_11  and  C_28
                            x       y       z     vdW  Elec       q    Type
                         _______ _______ _______ _____ _____    ______ ____

>  <TORSDO>
F 1

$$$$
=
 OpenBabel11122410253D

 30 36  0  0  1  0  0  0  0  0999 V2000
  187.1670  178.1810  140.5130 C   0  0  1  0  0  3  0  0  0  0  0  0
  184.8510  178.9930  139.7930 C   0  0  0  0  0  0  0  0  0  0  0  0
  185.8280  178.1450  144.6420 C   0  0  0  0  0  2  0  0  0  0  0  0
  187.9080  177.4740  141.6720 C   0  0  1  0  0  3  0  0  0  0  0  0
  187.3480  177.4390  139.3310 O   0  0  0  0  0  0  0  0  0  0  0  0
  190.9110  177.1420  139.6280 O   0  0  0  0  0  0  0  0  0  0  0  0
  190.5900  178.1160  143.3660 C   0  0  1  0  0  3  0  0  0  0  0  0
  189.7160  177.3700  139.9610 C   0  0  0  0  0  0  0  0  0  0  0  0
  189.5900  178.2240  144.5150 C   0  0  2  0  0  3  0  0  0  0  0  0
  187.1850  177.8760  145.1810 C   0  0  0  0  0  0  0  0  0  0  0  0
  188.6830  177.6320  138.8850 C   0  0  2  0  0  3  0  0  0  0  0  0
  189.3380  177.4120  141.3520 N   0  0  0  0  0  0  0  0  0  0  0  0
  183.5420  179.3640  140.1080 C   0  0  0  0  0  3  0  0  0  0  0  0
  190.1820  177.3900  145.6320 C   0  0  0  0  0  2  0  0  0  0  0  0
  191.9410  177.8890  144.0250 C   0  0  0  0  0  2  0  0  0  0  0  0
  185.2990  179.1370  138.4840 O   0  0  0  0  0  1  0  0  0  0  0  0
  186.0960  177.8780  143.1820 C   0  0  2  0  0  3  0  0  0  0  0  0
  183.0940  179.2590  141.4260 C   0  0  0  0  0  3  0  0  0  0  0  0
  185.7000  178.4960  140.7960 C   0  0  0  0  0  0  0  0  0  0  0  0
  187.5530  178.2290  142.9500 C   0  0  1  0  0  3  0  0  0  0  0  0
  187.4140  177.7630  146.4150 O   0  0  0  0  0  0  0  0  0  0  0  0
  188.2150  177.8240  144.1850 N   0  0  0  0  0  0  0  0  0  0  0  0
  191.6810  177.5440  145.4830 C   0  0  0  0  0  2  0  0  0  0  0  0
  190.0120  175.6300  142.9360 C   0  0  0  0  0  1  0  0  0  0  0  0
  183.9290  178.8120  142.3990 N   0  0  0  0  0  0  0  0  0  0  0  0
  185.2150  178.4630  142.1250 C   0  0  0  0  0  0  0  0  0  0  0  0
  190.3260  177.0020  142.3460 C   0  0  2  0  0  3  0  0  0  0  0  0
  188.8750  179.0030  138.2410 C   0  0  0  0  0  3  0  0  0  0  0  0
  187.9620  179.1300  137.0380 C   0  0  0  0  0  2  0  0  0  0  0  0
  189.4310  178.8240  136.8410 C   0  0  0  0  0  2  0  0  0  0  0  0
  1  5  1  6  0  0  0
  1 19  1  0  0  0  0
  1  4  1  0  0  0  0
  2 13  2  0  0  0  0
  2 19  1  0  0  0  0
  3 10  1  0  0  0  0
  4 12  1  6  0  0  0
  4 20  1  0  0  0  0
  6  8  2  0  0  0  0
  7 15  1  1  0  0  0
  7  9  1  0  0  0  0
  8 12  1  0  0  0  0
  9 14  1  1  0  0  0
 10 21  2  0  0  0  0
 11 28  1  1  0  0  0
 11  5  1  0  0  0  0
 11  8  1  0  0  0  0
 12 27  1  0  0  0  0
 13 18  1  0  0  0  0
 15 23  1  0  0  0  0
 16  2  1  0  0  0  0
 17  3  1  1  0  0  0
 18 25  2  0  0  0  0
 19 26  2  0  0  0  0
 20 17  1  0  0  0  0
 20 22  1  1  0  0  0
 22  9  1  0  0  0  0
 22 10  1  0  0  0  0
 23 14  1  0  0  0  0
 26 25  1  0  0  0  0
 26 17  1  0  0  0  0
 27 24  1  1  0  0  0
 27  7  1  0  0  0  0
 29 28  1  0  0  0  0
 30 29  1  0  0  0  0
 30 28  1  0  0  0  0
M  END
>  <MODEL>
3

>  <REMARK>
 VINA RESULT:      -8.6      2.028      5.726
  Name = 
  1 active torsions:
  status: ('A' for Active; 'I' for Inactive)
    1  A    between atoms: C_11  and  C_28
                            x       y       z     vdW  Elec       q    Type
                         _______ _______ _______ _____ _____    ______ ____

>  <TORSDO>
F 1

$$$$
=
 OpenBabel11122410253D

 30 36  0  0  1  0  0  0  0  0999 V2000
  187.9780  177.8830  142.3150 C   0  0  1  0  0  3  0  0  0  0  0  0
  186.7190  178.0650  144.5340 C   0  0  0  0  0  0  0  0  0  0  0  0
  184.3290  178.9080  140.2020 C   0  0  0  0  0  2  0  0  0  0  0  0
  187.9140  178.3210  140.8340 C   0  0  1  0  0  3  0  0  0  0  0  0
  189.1790  178.3510  142.8810 O   0  0  0  0  0  0  0  0  0  0  0  0
  191.3150  177.1300  140.2710 O   0  0  0  0  0  0  0  0  0  0  0  0
  188.1910  176.7740  138.0040 C   0  0  1  0  0  3  0  0  0  0  0  0
  190.2550  177.4690  140.8630 C   0  0  0  0  0  0  0  0  0  0  0  0
  186.7390  177.2220  137.8530 C   0  0  2  0  0  3  0  0  0  0  0  0
  184.9090  178.6280  138.8640 C   0  0  0  0  0  0  0  0  0  0  0  0
  190.2470  177.5630  142.3750 C   0  0  2  0  0  3  0  0  0  0  0  0
  189.0510  177.7350  140.1150 N   0  0  0  0  0  0  0  0  0  0  0  0
  185.5450  178.3220  145.2460 C   0  0  0  0  0  3  0  0  0  0  0  0
  186.6570  177.8340  136.4690 C   0  0  0  0  0  2  0  0  0  0  0  0
  188.6710  176.4710  136.5940 C   0  0  0  0  0  2  0  0  0  0  0  0
  187.8410  177.6110  145.2180 O   0  0  0  0  0  1  0  0  0  0  0  0
  185.5960  178.8850  141.0200 C   0  0  2  0  0  3  0  0  0  0  0  0
  184.4020  178.7420  144.5640 C   0  0  0  0  0  3  0  0  0  0  0  0
  186.7490  178.2530  143.1410 C   0  0  0  0  0  0  0  0  0  0  0  0
  186.5340  177.9240  140.3140 C   0  0  1  0  0  3  0  0  0  0  0  0
  184.2500  178.7580  137.7980 O   0  0  0  0  0  0  0  0  0  0  0  0
  186.2550  178.1330  138.8980 N   0  0  0  0  0  0  0  0  0  0  0  0
  187.6390  177.0410  135.6330 C   0  0  0  0  0  2  0  0  0  0  0  0
  189.0560  179.2120  138.1260 C   0  0  0  0  0  1  0  0  0  0  0  0
  184.4260  178.8890  143.2140 N   0  0  0  0  0  0  0  0  0  0  0  0
  185.5490  178.6260  142.4920 C   0  0  0  0  0  0  0  0  0  0  0  0
  189.1420  177.7830  138.6590 C   0  0  2  0  0  3  0  0  0  0  0  0
  190.2940  176.1830  143.0270 C   0  0  0  0  0  3  0  0  0  0  0  0
  190.5450  176.3320  144.5140 C   0  0  0  0  0  2  0  0  0  0  0  0
  191.6810  175.9450  143.5920 C   0  0  0  0  0  2  0  0  0  0  0  0
  1  5  1  1  0  0  0
  1 19  1  0  0  0  0
  2 16  1  0  0  0  0
  2 13  1  0  0  0  0
  4 12  1  6  0  0  0
  4  1  1  0  0  0  0
  6  8  2  0  0  0  0
  7 15  1  6  0  0  0
  7 27  1  0  0  0  0
  8 11  1  0  0  0  0
  9 14  1  6  0  0  0
  9  7  1  0  0  0  0
  9 22  1  0  0  0  0
 10 22  1  0  0  0  0
 10  3  1  0  0  0  0
 11  5  1  0  0  0  0
 11 28  1  1  0  0  0
 12  8  1  0  0  0  0
 17  3  1  6  0  0  0
 17 26  1  0  0  0  0
 18 13  2  0  0  0  0
 19  2  2  0  0  0  0
 20 22  1  6  0  0  0
 20  4  1  0  0  0  0
 20 17  1  0  0  0  0
 21 10  2  0  0  0  0
 23 14  1  0  0  0  0
 23 15  1  0  0  0  0
 25 18  1  0  0  0  0
 26 19  1  0  0  0  0
 26 25  2  0  0  0  0
 27 24  1  6  0  0  0
 27 12  1  0  0  0  0
 28 30  1  0  0  0  0
 28 29  1  0  0  0  0
 30 29  1  0  0  0  0
M  END
>  <MODEL>
4

>  <REMARK>
 VINA RESULT:      -8.3      2.378      5.811
  Name = 
  1 active torsions:
  status: ('A' for Active; 'I' for Inactive)
    1  A    between atoms: C_11  and  C_28
                            x       y       z     vdW  Elec       q    Type
                         _______ _______ _______ _____ _____    ______ ____

>  <TORSDO>
F 1

$$$$
=
 OpenBabel11122410253D

 30 36  0  0  1  0  0  0  0  0999 V2000
  187.0330  177.9790  140.0190 C   0  0  1  0  0  3  0  0  0  0  0  0
  188.8340  177.1100  138.4230 C   0  0  0  0  0  0  0  0  0  0  0  0
  189.8360  177.6280  143.3140 C   0  0  0  0  0  2  0  0  0  0  0  0
  186.8420  178.6290  141.4090 C   0  0  1  0  0  3  0  0  0  0  0  0
  186.4730  178.8170  139.0380 O   0  0  0  0  0  0  0  0  0  0  0  0
  183.3230  179.2670  140.6940 O   0  0  0  0  0  0  0  0  0  0  0  0
  184.9630  177.9920  143.9670 C   0  0  1  0  0  3  0  0  0  0  0  0
  184.5340  178.9550  140.5310 C   0  0  0  0  0  0  0  0  0  0  0  0
  186.3140  177.7460  144.6360 C   0  0  2  0  0  3  0  0  0  0  0  0
  188.8110  177.9220  144.3460 C   0  0  0  0  0  0  0  0  0  0  0  0
  185.0580  178.7260  139.1290 C   0  0  2  0  0  3  0  0  0  0  0  0
  185.4070  178.7870  141.6660 N   0  0  0  0  0  0  0  0  0  0  0  0
  190.1320  176.6520  138.1930 C   0  0  0  0  0  3  0  0  0  0  0  0
  186.2550  178.5190  145.9370 C   0  0  0  0  0  2  0  0  0  0  0  0
  183.9850  178.2340  145.1040 C   0  0  0  0  0  2  0  0  0  0  0  0
  187.9130  177.0910  137.3820 O   0  0  0  0  0  1  0  0  0  0  0  0
  189.0560  178.0210  142.0840 C   0  0  2  0  0  3  0  0  0  0  0  0
  191.0540  176.6320  139.2410 C   0  0  0  0  0  3  0  0  0  0  0  0
  188.4690  177.5700  139.7010 C   0  0  0  0  0  0  0  0  0  0  0  0
  187.5970  177.7610  142.4120 C   0  0  1  0  0  3  0  0  0  0  0  0
  189.0760  177.9500  145.5770 O   0  0  0  0  0  0  0  0  0  0  0  0
  187.4860  178.1020  143.8250 N   0  0  0  0  0  0  0  0  0  0  0  0
  184.8050  178.4520  146.3660 C   0  0  0  0  0  2  0  0  0  0  0  0
  185.5210  180.4720  143.4790 C   0  0  0  0  0  1  0  0  0  0  0  0
  190.6870  177.0440  140.4820 N   0  0  0  0  0  0  0  0  0  0  0  0
  189.4230  177.4760  140.7410 C   0  0  0  0  0  0  0  0  0  0  0  0
  184.9040  179.1670  142.9830 C   0  0  2  0  0  3  0  0  0  0  0  0
  184.5330  177.4210  138.5360 C   0  0  0  0  0  3  0  0  0  0  0  0
  184.7620  177.4150  137.0380 C   0  0  0  0  0  2  0  0  0  0  0  0
  183.3880  177.7250  137.5900 C   0  0  0  0  0  2  0  0  0  0  0  0
  1  5  1  6  0  0  0
  1  4  1  0  0  0  0
  2 19  1  0  0  0  0
  3 10  1  0  0  0  0
  4 12  1  1  0  0  0
  4 20  1  0  0  0  0
  5 11  1  0  0  0  0
  7  9  1  0  0  0  0
  7 15  1  1  0  0  0
  8  6  2  0  0  0  0
  8 12  1  0  0  0  0
  9 14  1  1  0  0  0
 10 21  2  0  0  0  0
 11 28  1  1  0  0  0
 11  8  1  0  0  0  0
 12 27  1  0  0  0  0
 13  2  2  0  0  0  0
 13 18  1  0  0  0  0
 14 23  1  0  0  0  0
 15 23  1  0  0  0  0
 16  2  1  0  0  0  0
 17 20  1  0  0  0  0
 17  3  1  1  0  0  0
 18 25  2  0  0  0  0
 19  1  1  0  0  0  0
 19 26  2  0  0  0  0
 20 22  1  1  0  0  0
 22 10  1  0  0  0  0
 22  9  1  0  0  0  0
 25 26  1  0  0  0  0
 26 17  1  0  0  0  0
 27 24  1  1  0  0  0
 27  7  1  0  0  0  0
 29 30  1  0  0  0  0
 29 28  1  0  0  0  0
 30 28  1  0  0  0  0
M  END
>  <MODEL>
5

>  <REMARK>
 VINA RESULT:      -8.0      2.350      4.687
  Name = 
  1 active torsions:
  status: ('A' for Active; 'I' for Inactive)
    1  A    between atoms: C_11  and  C_28
                            x       y       z     vdW  Elec       q    Type
                         _______ _______ _______ _____ _____    ______ ____

>  <TORSDO>
F 1

$$$$
=
 OpenBabel11122410253D

 30 36  0  0  1  0  0  0  0  0999 V2000
  187.6870  178.0780  140.6160 C   0  0  1  0  0  3  0  0  0  0  0  0
  189.5640  177.7300  142.3200 C   0  0  0  0  0  0  0  0  0  0  0  0
  184.8750  178.6050  143.8790 C   0  0  0  0  0  2  0  0  0  0  0  0
  186.2680  178.6730  140.4660 C   0  0  1  0  0  3  0  0  0  0  0  0
  188.5480  178.7030  139.6950 O   0  0  0  0  0  0  0  0  0  0  0  0
  186.4150  178.2660  136.8450 O   0  0  0  0  0  0  0  0  0  0  0  0
  183.4690  177.5740  139.2680 C   0  0  1  0  0  3  0  0  0  0  0  0
  186.7710  178.3100  138.0540 C   0  0  0  0  0  0  0  0  0  0  0  0
  183.0230  177.7370  140.7190 C   0  0  2  0  0  3  0  0  0  0  0  0
  183.6890  178.6130  142.9850 C   0  0  0  0  0  0  0  0  0  0  0  0
  188.2430  178.2130  138.3970 C   0  0  2  0  0  3  0  0  0  0  0  0
  185.7890  178.4190  139.1030 N   0  0  0  0  0  0  0  0  0  0  0  0
  190.0040  177.6570  143.6430 C   0  0  0  0  0  3  0  0  0  0  0  0
  181.7080  178.4860  140.6450 C   0  0  0  0  0  2  0  0  0  0  0  0
  182.1890  177.5480  138.4500 C   0  0  0  0  0  2  0  0  0  0  0  0
  190.4520  177.4290  141.2920 O   0  0  0  0  0  1  0  0  0  0  0  0
  185.9580  178.7350  142.8380 C   0  0  2  0  0  3  0  0  0  0  0  0
  189.1110  177.9210  144.6830 C   0  0  0  0  0  3  0  0  0  0  0  0
  188.2340  178.0900  142.0420 C   0  0  0  0  0  0  0  0  0  0  0  0
  185.4170  178.0760  141.5840 C   0  0  1  0  0  3  0  0  0  0  0  0
  182.5130  178.7390  143.4200 O   0  0  0  0  0  0  0  0  0  0  0  0
  183.9940  178.3970  141.6010 N   0  0  0  0  0  0  0  0  0  0  0  0
  181.0620  178.0150  139.3590 C   0  0  0  0  0  2  0  0  0  0  0  0
  183.9710  180.1010  139.0130 C   0  0  0  0  0  1  0  0  0  0  0  0
  187.8180  178.2350  144.4110 N   0  0  0  0  0  0  0  0  0  0  0  0
  187.3560  178.2920  143.1330 C   0  0  0  0  0  0  0  0  0  0  0  0
  184.4000  178.6640  138.7240 C   0  0  2  0  0  3  0  0  0  0  0  0
  188.7820  176.8010  138.1810 C   0  0  0  0  0  3  0  0  0  0  0  0
  190.2710  176.8630  137.9060 C   0  0  0  0  0  2  0  0  0  0  0  0
  189.2990  176.6750  136.7620 C   0  0  0  0  0  2  0  0  0  0  0  0
  1  5  1  6  0  0  0
  1 19  1  0  0  0  0
  2 13  1  0  0  0  0
  4 12  1  6  0  0  0
  4  1  1  0  0  0  0
  4 20  1  0  0  0  0
  6  8  2  0  0  0  0
  7 15  1  6  0  0  0
  7  9  1  0  0  0  0
  8 11  1  0  0  0  0
  8 12  1  0  0  0  0
  9 14  1  6  0  0  0
  9 22  1  0  0  0  0
 10 21  2  0  0  0  0
 10  3  1  0  0  0  0
 11 28  1  1  0  0  0
 11  5  1  0  0  0  0
 13 18  2  0  0  0  0
 15 23  1  0  0  0  0
 16  2  1  0  0  0  0
 17 26  1  0  0  0  0
 17  3  1  1  0  0  0
 19  2  2  0  0  0  0
 19 26  1  0  0  0  0
 20 22  1  6  0  0  0
 20 17  1  0  0  0  0
 22 10  1  0  0  0  0
 23 14  1  0  0  0  0
 25 18  1  0  0  0  0
 26 25  2  0  0  0  0
 27 24  1  1  0  0  0
 27 12  1  0  0  0  0
 27  7  1  0  0  0  0
 29 28  1  0  0  0  0
 30 29  1  0  0  0  0
 30 28  1  0  0  0  0
M  END
>  <MODEL>
6

>  <REMARK>
 VINA RESULT:      -7.6      2.432      3.587
  Name = 
  1 active torsions:
  status: ('A' for Active; 'I' for Inactive)
    1  A    between atoms: C_11  and  C_28
                            x       y       z     vdW  Elec       q    Type
                         _______ _______ _______ _____ _____    ______ ____

>  <TORSDO>
F 1

$$$$
=
 OpenBabel11122410253D

 30 36  0  0  1  0  0  0  0  0999 V2000
  185.9600  178.4030  140.2640 C   0  0  1  0  0  3  0  0  0  0  0  0
  187.2840  177.8930  138.1350 C   0  0  0  0  0  0  0  0  0  0  0  0
  189.6350  178.1700  142.5610 C   0  0  0  0  0  2  0  0  0  0  0  0
  186.1260  178.9190  141.7120 C   0  0  1  0  0  3  0  0  0  0  0  0
  185.0530  179.2340  139.5810 O   0  0  0  0  0  0  0  0  0  0  0  0
  182.5080  179.1540  142.1070 O   0  0  0  0  0  0  0  0  0  0  0  0
  185.1640  177.8590  144.6150 C   0  0  1  0  0  3  0  0  0  0  0  0
  183.6400  179.0130  141.5720 C   0  0  0  0  0  0  0  0  0  0  0  0
  186.6700  177.7390  144.8400 C   0  0  2  0  0  3  0  0  0  0  0  0
  188.9370  178.2530  143.8690 C   0  0  0  0  0  0  0  0  0  0  0  0
  183.7450  178.9570  140.0620 C   0  0  2  0  0  3  0  0  0  0  0  0
  184.8230  178.8730  142.3850 N   0  0  0  0  0  0  0  0  0  0  0  0
  188.4940  177.6220  137.4950 C   0  0  0  0  0  3  0  0  0  0  0  0
  186.9220  178.4000  146.1800 C   0  0  0  0  0  2  0  0  0  0  0  0
  184.5480  177.8900  146.0040 C   0  0  0  0  0  2  0  0  0  0  0  0
  186.1020  177.8330  137.4050 O   0  0  0  0  0  1  0  0  0  0  0  0
  188.4890  178.5500  141.6560 C   0  0  2  0  0  3  0  0  0  0  0  0
  189.6820  177.6420  138.2270 C   0  0  0  0  0  3  0  0  0  0  0  0
  187.2700  178.2060  139.5060 C   0  0  0  0  0  0  0  0  0  0  0  0
  187.2280  178.0820  142.3570 C   0  0  1  0  0  3  0  0  0  0  0  0
  189.5520  178.2230  144.9680 O   0  0  0  0  0  0  0  0  0  0  0  0
  187.5070  178.3000  143.7720 N   0  0  0  0  0  0  0  0  0  0  0  0
  185.6790  178.1160  146.9950 C   0  0  0  0  0  2  0  0  0  0  0  0
  185.3000  180.4200  144.2600 C   0  0  0  0  0  1  0  0  0  0  0  0
  189.6610  177.9110  139.5580 N   0  0  0  0  0  0  0  0  0  0  0  0
  188.4940  178.1570  140.2130 C   0  0  0  0  0  0  0  0  0  0  0  0
  184.6980  179.0870  143.8230 C   0  0  2  0  0  3  0  0  0  0  0  0
  183.2020  177.6430  139.5060 C   0  0  0  0  0  3  0  0  0  0  0  0
  182.8740  177.8100  138.0360 C   0  0  0  0  0  2  0  0  0  0  0  0
  181.7650  177.8420  139.0650 C   0  0  0  0  0  2  0  0  0  0  0  0
  1 19  1  6  0  0  0
  1  4  1  0  0  0  0
  2 19  1  0  0  0  0
  3 10  1  0  0  0  0
  4 20  1  0  0  0  0
  4 12  1  1  0  0  0
  5 11  1  0  0  0  0
  5  1  1  0  0  0  0
  7  9  1  0  0  0  0
  7 15  1  1  0  0  0
  8  6  2  0  0  0  0
  8 12  1  0  0  0  0
  9 14  1  1  0  0  0
 10 21  2  0  0  0  0
 11 28  1  1  0  0  0
 11  8  1  0  0  0  0
 12 27  1  0  0  0  0
 13  2  2  0  0  0  0
 13 18  1  0  0  0  0
 14 23  1  0  0  0  0
 15 23  1  0  0  0  0
 16  2  1  0  0  0  0
 17 20  1  0  0  0  0
 17  3  1  1  0  0  0
 18 25  2  0  0  0  0
 19 26  2  0  0  0  0
 20 22  1  1  0  0  0
 22 10  1  0  0  0  0
 22  9  1  0  0  0  0
 25 26  1  0  0  0  0
 26 17  1  0  0  0  0
 27 24  1  1  0  0  0
 27  7  1  0  0  0  0
 29 30  1  0  0  0  0
 29 28  1  0  0  0  0
 30 28  1  0  0  0  0
M  END
>  <MODEL>
7

>  <REMARK>
 VINA RESULT:      -7.5      2.308      5.511
  Name = 
  1 active torsions:
  status: ('A' for Active; 'I' for Inactive)
    1  A    between atoms: C_11  and  C_28
                            x       y       z     vdW  Elec       q    Type
                         _______ _______ _______ _____ _____    ______ ____

>  <TORSDO>
F 1

$$$$
=
 OpenBabel11122410253D

 30 36  0  0  1  0  0  0  0  0999 V2000
  185.8590  178.3340  141.1680 C   0  0  1  0  0  3  0  0  0  0  0  0
  184.3480  178.7230  143.1950 C   0  0  0  0  0  0  0  0  0  0  0  0
  182.3560  178.3250  138.6060 C   0  0  0  0  0  2  0  0  0  0  0  0
  185.8960  178.4660  139.6280 C   0  0  1  0  0  3  0  0  0  0  0  0
  186.9080  179.0920  141.7200 O   0  0  0  0  0  0  0  0  0  0  0  0
  189.4750  177.7680  139.5930 O   0  0  0  0  0  0  0  0  0  0  0  0
  186.7070  176.4790  137.2050 C   0  0  1  0  0  3  0  0  0  0  0  0
  188.3180  178.0330  140.0170 C   0  0  0  0  0  0  0  0  0  0  0  0
  185.2310  176.6440  136.8510 C   0  0  2  0  0  3  0  0  0  0  0  0
  183.1150  177.8950  137.4050 C   0  0  0  0  0  0  0  0  0  0  0  0
  188.1290  178.4090  141.4720 C   0  0  2  0  0  3  0  0  0  0  0  0
  187.1780  177.9500  139.1380 N   0  0  0  0  0  0  0  0  0  0  0  0
  183.0780  178.9130  143.7440 C   0  0  0  0  0  3  0  0  0  0  0  0
  185.2150  176.9600  135.3700 C   0  0  0  0  0  2  0  0  0  0  0  0
  187.3790  175.9970  135.9310 C   0  0  0  0  0  2  0  0  0  0  0  0
  185.4420  178.5980  144.0450 O   0  0  0  0  0  1  0  0  0  0  0  0
  183.5140  178.6660  139.5100 C   0  0  2  0  0  3  0  0  0  0  0  0
  181.9690  179.0030  142.9010 C   0  0  0  0  0  3  0  0  0  0  0  0
  184.5050  178.6460  141.8010 C   0  0  0  0  0  0  0  0  0  0  0  0
  184.6550  177.7570  139.0930 C   0  0  1  0  0  3  0  0  0  0  0  0
  182.5670  177.7100  136.2860 O   0  0  0  0  0  0  0  0  0  0  0  0
  184.5070  177.6440  137.6460 N   0  0  0  0  0  0  0  0  0  0  0  0
  186.3880  176.1970  134.7940 C   0  0  0  0  0  2  0  0  0  0  0  0
  187.1880  179.0040  136.8950 C   0  0  0  0  0  1  0  0  0  0  0  0
  182.1210  178.8930  141.5560 N   0  0  0  0  0  0  0  0  0  0  0  0
  183.3420  178.6860  140.9950 C   0  0  0  0  0  0  0  0  0  0  0  0
  187.4220  177.7370  137.7140 C   0  0  2  0  0  3  0  0  0  0  0  0
  188.3050  177.2050  142.3940 C   0  0  0  0  0  3  0  0  0  0  0  0
  188.5200  177.6820  143.8170 C   0  0  0  0  0  2  0  0  0  0  0  0
  189.7000  177.2280  142.9860 C   0  0  0  0  0  2  0  0  0  0  0  0
  1  5  1  1  0  0  0
  1 19  1  0  0  0  0
  2 13  1  0  0  0  0
  2 16  1  0  0  0  0
  4 12  1  6  0  0  0
  4  1  1  0  0  0  0
  6  8  2  0  0  0  0
  7 15  1  6  0  0  0
  7 27  1  0  0  0  0
  8 11  1  0  0  0  0
  9 14  1  6  0  0  0
  9  7  1  0  0  0  0
  9 22  1  0  0  0  0
 10 22  1  0  0  0  0
 10  3  1  0  0  0  0
 11  5  1  0  0  0  0
 11 28  1  1  0  0  0
 12  8  1  0  0  0  0
 17  3  1  6  0  0  0
 17 26  1  0  0  0  0
 18 13  2  0  0  0  0
 19  2  2  0  0  0  0
 20 22  1  6  0  0  0
 20 17  1  0  0  0  0
 20  4  1  0  0  0  0
 21 10  2  0  0  0  0
 23 14  1  0  0  0  0
 23 15  1  0  0  0  0
 25 18  1  0  0  0  0
 26 25  2  0  0  0  0
 26 19  1  0  0  0  0
 27 24  1  6  0  0  0
 27 12  1  0  0  0  0
 28 30  1  0  0  0  0
 28 29  1  0  0  0  0
 30 29  1  0  0  0  0
M  END
>  <MODEL>
8

>  <REMARK>
 VINA RESULT:      -7.4      3.412      7.050
  Name = 
  1 active torsions:
  status: ('A' for Active; 'I' for Inactive)
    1  A    between atoms: C_11  and  C_28
                            x       y       z     vdW  Elec       q    Type
                         _______ _______ _______ _____ _____    ______ ____

>  <TORSDO>
F 1

$$$$
=
 OpenBabel11122410253D

 30 36  0  0  1  0  0  0  0  0999 V2000
  186.1800  178.5930  141.7440 C   0  0  1  0  0  3  0  0  0  0  0  0
  184.6670  178.8320  139.6960 C   0  0  0  0  0  0  0  0  0  0  0  0
  189.4560  177.4380  139.1430 C   0  0  0  0  0  2  0  0  0  0  0  0
  187.6670  178.5540  142.1670 C   0  0  1  0  0  3  0  0  0  0  0  0
  185.5350  179.6420  142.4260 O   0  0  0  0  0  0  0  0  0  0  0  0
  186.7330  178.7490  145.6870 O   0  0  0  0  0  0  0  0  0  0  0  0
  189.4470  176.5610  143.9940 C   0  0  1  0  0  3  0  0  0  0  0  0
  186.6470  178.7710  144.4300 C   0  0  0  0  0  0  0  0  0  0  0  0
  190.1630  176.3200  142.6670 C   0  0  2  0  0  3  0  0  0  0  0  0
  190.3510  177.0720  140.2700 C   0  0  0  0  0  0  0  0  0  0  0  0
  185.3660  179.2540  143.7820 C   0  0  2  0  0  3  0  0  0  0  0  0
  187.7430  178.3130  143.6120 N   0  0  0  0  0  0  0  0  0  0  0  0
  184.4750  178.7680  138.3140 C   0  0  0  0  0  3  0  0  0  0  0  0
  191.6380  176.4510  142.9860 C   0  0  0  0  0  2  0  0  0  0  0  0
  190.4230  176.1140  145.0690 C   0  0  0  0  0  2  0  0  0  0  0  0
  183.5740  179.0750  140.5210 O   0  0  0  0  0  1  0  0  0  0  0  0
  188.3770  178.1520  139.9180 C   0  0  2  0  0  3  0  0  0  0  0  0
  185.5590  178.4880  137.4800 C   0  0  0  0  0  3  0  0  0  0  0  0
  185.9500  178.6370  140.2360 C   0  0  0  0  0  0  0  0  0  0  0  0
  188.3490  177.5070  141.2910 C   0  0  1  0  0  3  0  0  0  0  0  0
  191.5180  176.6320  140.0940 O   0  0  0  0  0  0  0  0  0  0  0  0
  189.7480  177.1970  141.5650 N   0  0  0  0  0  0  0  0  0  0  0  0
  191.7790  175.9350  144.4020 C   0  0  0  0  0  2  0  0  0  0  0  0
  190.0670  179.0740  144.0100 C   0  0  0  0  0  1  0  0  0  0  0  0
  186.7890  178.2650  138.0080 N   0  0  0  0  0  0  0  0  0  0  0  0
  187.0010  178.3000  139.3510 C   0  0  0  0  0  0  0  0  0  0  0  0
  189.0090  178.0040  144.2700 C   0  0  2  0  0  3  0  0  0  0  0  0
  184.2340  178.2420  143.9460 C   0  0  0  0  0  3  0  0  0  0  0  0
  182.9090  178.9070  143.6300 C   0  0  0  0  0  2  0  0  0  0  0  0
  183.3210  178.6910  145.0700 C   0  0  0  0  0  2  0  0  0  0  0  0
  1 19  1  6  0  0  0
  1  4  1  0  0  0  0
  1  5  1  0  0  0  0
  2 19  1  0  0  0  0
  2 16  1  0  0  0  0
  3 10  1  0  0  0  0
  4 12  1  1  0  0  0
  5 11  1  0  0  0  0
  7 27  1  0  0  0  0
  7 15  1  1  0  0  0
  8  6  2  0  0  0  0
  9 14  1  1  0  0  0
  9  7  1  0  0  0  0
 10 22  1  0  0  0  0
 11 28  1  6  0  0  0
 11  8  1  0  0  0  0
 12 27  1  0  0  0  0
 12  8  1  0  0  0  0
 13  2  2  0  0  0  0
 14 23  1  0  0  0  0
 17  3  1  6  0  0  0
 17 20  1  0  0  0  0
 18 25  2  0  0  0  0
 18 13  1  0  0  0  0
 20 22  1  1  0  0  0
 20  4  1  0  0  0  0
 21 10  2  0  0  0  0
 22  9  1  0  0  0  0
 23 15  1  0  0  0  0
 25 26  1  0  0  0  0
 26 17  1  0  0  0  0
 26 19  2  0  0  0  0
 27 24  1  6  0  0  0
 28 30  1  0  0  0  0
 29 28  1  0  0  0  0
 29 30  1  0  0  0  0
M  END
>  <MODEL>
9

>  <REMARK>
 VINA RESULT:      -7.4      2.219      7.157
  Name = 
  1 active torsions:
  status: ('A' for Active; 'I' for Inactive)
    1  A    between atoms: C_11  and  C_28
                            x       y       z     vdW  Elec       q    Type
                         _______ _______ _______ _____ _____    ______ ____

>  <TORSDO>
F 1

$$$$
