=
 OpenBabel11122410393D

 32 37  0  0  1  0  0  0  0  0999 V2000
  181.8110  180.0680  139.3960 C   0  0  0  0  0  2  0  0  0  0  0  0
  186.1330  178.0170  142.0990 C   0  0  1  0  0  3  0  0  0  0  0  0
  185.2670  178.7190  146.9670 C   0  0  0  0  0  3  0  0  0  0  0  0
  186.5350  178.2080  147.2490 C   0  0  0  0  0  3  0  0  0  0  0  0
  188.6240  177.7960  141.4390 C   0  0  0  0  0  0  0  0  0  0  0  0
  189.8600  177.0380  141.8800 C   0  0  1  0  0  3  0  0  0  0  0  0
  184.2900  178.2030  140.4200 C   0  0  1  0  0  3  0  0  0  0  0  0
  183.7850  178.2770  142.9080 C   0  0  0  0  0  2  0  0  0  0  0  0
  191.2220  176.5780  143.7230 C   0  0  2  0  0  3  0  0  0  0  0  0
  181.8720  178.3760  141.3170 C   0  0  0  0  0  2  0  0  0  0  0  0
  184.8450  178.8480  145.6420 C   0  0  0  0  0  3  0  0  0  0  0  0
  185.2350  178.6890  143.1540 C   0  0  1  0  0  3  0  0  0  0  0  0
  185.6790  178.4530  144.5850 C   0  0  0  0  0  0  0  0  0  0  0  0
  187.8660  177.5020  143.7580 C   0  0  2  0  0  3  0  0  0  0  0  0
  192.0860  177.2260  142.6530 C   0  0  0  0  0  2  0  0  0  0  0  0
  183.2920  180.0700  138.9750 C   0  0  0  0  0  2  0  0  0  0  0  0
  183.3440  178.7440  141.5220 C   0  0  2  0  0  3  0  0  0  0  0  0
  191.1210  177.8380  141.6710 C   0  0  0  0  0  2  0  0  0  0  0  0
  183.9470  178.6850  139.0030 C   0  0  0  0  0  2  0  0  0  0  0  0
  181.3100  178.7200  139.9340 C   0  0  1  0  0  3  0  0  0  0  0  0
  187.3870  177.8350  146.2070 C   0  0  0  0  0  3  0  0  0  0  0  0
  186.9810  177.9840  144.8730 C   0  0  0  0  0  0  0  0  0  0  0  0
  189.2310  177.5910  144.0600 O   0  0  0  0  0  0  0  0  0  0  0  0
  185.7420  178.5680  140.7310 C   0  0  0  0  0  2  0  0  0  0  0  0
  188.4990  178.0950  140.2620 O   0  0  0  0  0  0  0  0  0  0  0  0
  191.6490  175.1380  143.9240 C   0  0  0  0  0  1  0  0  0  0  0  0
  187.6040  178.2540  142.4600 C   0  0  2  0  0  3  0  0  0  0  0  0
  189.8250  176.6270  143.2970 N   0  0  1  0  0  0  0  0  0  0  0  0
  179.7920  178.7000  139.9950 C   0  0  0  0  0  2  0  0  0  0  0  0
  179.2860  177.3040  140.1390 C   0  0  0  0  0  0  0  0  0  0  0  0
  178.9310  176.8210  141.3910 O   0  0  0  0  0  1  0  0  0  0  0  0
  179.1520  176.5760  139.1220 O   0  0  0  0  0  0  0  0  0  0  0  0
  1 20  1  0  0  0  0
  2 24  1  6  0  0  0
  2 27  1  0  0  0  0
  2 12  1  0  0  0  0
  3  4  1  0  0  0  0
  5  6  1  0  0  0  0
  6 18  1  1  0  0  0
  6 28  1  0  0  0  0
  7 19  1  6  0  0  0
  7 24  1  0  0  0  0
  7 17  1  0  0  0  0
  9 26  1  6  0  0  0
 11  3  2  0  0  0  0
 12  8  1  1  0  0  0
 12 13  1  0  0  0  0
 13 22  2  0  0  0  0
 13 11  1  0  0  0  0
 14 23  1  1  0  0  0
 14 22  1  0  0  0  0
 15  9  1  0  0  0  0
 16 19  1  0  0  0  0
 16  1  1  0  0  0  0
 17 10  1  6  0  0  0
 17  8  1  0  0  0  0
 18 15  1  0  0  0  0
 20 29  1  1  0  0  0
 20 10  1  0  0  0  0
 21  4  2  0  0  0  0
 22 21  1  0  0  0  0
 25  5  2  0  0  0  0
 27  5  1  6  0  0  0
 27 14  1  0  0  0  0
 28  9  1  0  0  0  0
 28 23  1  1  0  0  0
 29 30  1  0  0  0  0
 30 31  1  0  0  0  0
 32 30  2  0  0  0  0
M  END
>  <MODEL>
1

>  <REMARK>
 VINA RESULT:     -10.1      0.000      0.000
  Name = 
  2 active torsions:
  status: ('A' for Active; 'I' for Inactive)
    1  A    between atoms: C_20  and  C_29
    2  A    between atoms: C_29  and  C_30
                            x       y       z     vdW  Elec       q    Type
                         _______ _______ _______ _____ _____    ______ ____

>  <TORSDO>
F 2

$$$$
=
 OpenBabel11122410393D

 32 37  0  0  1  0  0  0  0  0999 V2000
  189.3900  178.3050  147.7850 C   0  0  0  0  0  2  0  0  0  0  0  0
  185.4270  178.1320  143.9820 C   0  0  1  0  0  3  0  0  0  0  0  0
  187.6730  178.4400  139.5320 C   0  0  0  0  0  3  0  0  0  0  0  0
  186.4180  178.4720  138.9200 C   0  0  0  0  0  3  0  0  0  0  0  0
  182.9620  178.9120  144.0340 C   0  0  0  0  0  0  0  0  0  0  0  0
  181.6820  178.7050  143.2510 C   0  0  1  0  0  3  0  0  0  0  0  0
  186.7240  177.5720  146.0450 C   0  0  1  0  0  3  0  0  0  0  0  0
  187.8180  177.4440  143.7570 C   0  0  0  0  0  2  0  0  0  0  0  0
  180.7490  178.8220  141.1120 C   0  0  2  0  0  3  0  0  0  0  0  0
  189.1640  176.7770  145.7430 C   0  0  0  0  0  2  0  0  0  0  0  0
  187.7690  178.3900  140.9240 C   0  0  0  0  0  3  0  0  0  0  0  0
  186.7460  178.3960  143.2300 C   0  0  1  0  0  3  0  0  0  0  0  0
  186.6150  178.3560  141.7200 C   0  0  0  0  0  0  0  0  0  0  0  0
  184.0990  178.3450  141.9300 C   0  0  2  0  0  3  0  0  0  0  0  0
  179.9630  179.7580  142.0160 C   0  0  0  0  0  2  0  0  0  0  0  0
  187.9690  178.8910  147.8570 C   0  0  0  0  0  2  0  0  0  0  0  0
  188.0460  177.6970  145.2460 C   0  0  2  0  0  3  0  0  0  0  0  0
  180.8130  179.9370  143.2460 C   0  0  0  0  0  2  0  0  0  0  0  0
  186.8630  177.8780  147.5440 C   0  0  0  0  0  2  0  0  0  0  0  0
  189.4540  176.8690  147.2440 C   0  0  1  0  0  3  0  0  0  0  0  0
  185.2590  178.4650  139.6990 C   0  0  0  0  0  3  0  0  0  0  0  0
  185.3470  178.4400  141.0980 C   0  0  0  0  0  0  0  0  0  0  0  0
  182.9930  178.9670  141.3370 O   0  0  0  0  0  0  0  0  0  0  0  0
  185.6480  178.4820  145.4510 C   0  0  0  0  0  2  0  0  0  0  0  0
  182.8970  179.1360  145.2320 O   0  0  0  0  0  0  0  0  0  0  0  0
  179.8680  177.6680  140.6770 C   0  0  0  0  0  1  0  0  0  0  0  0
  184.2990  178.9310  143.3220 C   0  0  2  0  0  3  0  0  0  0  0  0
  181.9060  178.3150  141.8450 N   0  0  1  0  0  0  0  0  0  0  0  0
  190.8130  176.2510  147.5280 C   0  0  0  0  0  2  0  0  0  0  0  0
  191.6870  176.3200  146.3210 C   0  0  0  0  0  0  0  0  0  0  0  0
  191.9130  177.5380  145.6950 O   0  0  0  0  0  0  0  0  0  0  0  0
  192.2460  175.2780  145.8890 O   0  0  0  0  0  1  0  0  0  0  0  0
  1 16  1  0  0  0  0
  2 24  1  1  0  0  0
  3 11  1  0  0  0  0
  4  3  2  0  0  0  0
  4 21  1  0  0  0  0
  5 25  2  0  0  0  0
  6 18  1  6  0  0  0
  6  5  1  0  0  0  0
  7 24  1  6  0  0  0
  7 19  1  0  0  0  0
  9 26  1  1  0  0  0
  9 28  1  0  0  0  0
  9 15  1  0  0  0  0
 10 20  1  0  0  0  0
 11 13  2  0  0  0  0
 12  8  1  1  0  0  0
 12  2  1  0  0  0  0
 13 12  1  0  0  0  0
 14 22  1  6  0  0  0
 14 27  1  0  0  0  0
 15 18  1  0  0  0  0
 17  8  1  6  0  0  0
 17 10  1  0  0  0  0
 17  7  1  0  0  0  0
 19 16  1  0  0  0  0
 20 29  1  6  0  0  0
 20  1  1  0  0  0  0
 21 22  2  0  0  0  0
 22 13  1  0  0  0  0
 23 14  1  0  0  0  0
 27  2  1  0  0  0  0
 27  5  1  1  0  0  0
 28 23  1  6  0  0  0
 28  6  1  0  0  0  0
 30 29  1  0  0  0  0
 31 30  2  0  0  0  0
 32 30  1  0  0  0  0
M  END
>  <MODEL>
2

>  <REMARK>
 VINA RESULT:     -10.1      2.729      8.862
  Name = 
  2 active torsions:
  status: ('A' for Active; 'I' for Inactive)
    1  A    between atoms: C_20  and  C_29
    2  A    between atoms: C_29  and  C_30
                            x       y       z     vdW  Elec       q    Type
                         _______ _______ _______ _____ _____    ______ ____

>  <TORSDO>
F 2

$$$$
=
 OpenBabel11122410393D

 32 37  0  0  1  0  0  0  0  0999 V2000
  186.8910  178.7820  147.2910 C   0  0  0  0  0  2  0  0  0  0  0  0
  185.0200  178.2280  142.1540 C   0  0  1  0  0  3  0  0  0  0  0  0
  188.9960  178.3820  139.1360 C   0  0  0  0  0  3  0  0  0  0  0  0
  188.1400  178.3260  138.0340 C   0  0  0  0  0  3  0  0  0  0  0  0
  182.7750  178.9050  141.0630 C   0  0  0  0  0  0  0  0  0  0  0  0
  181.9750  178.6000  139.8120 C   0  0  1  0  0  3  0  0  0  0  0  0
  185.2790  177.8400  144.6110 C   0  0  1  0  0  3  0  0  0  0  0  0
  187.2730  177.6310  143.0520 C   0  0  0  0  0  2  0  0  0  0  0  0
  182.0830  178.5580  137.4780 C   0  0  2  0  0  3  0  0  0  0  0  0
  187.6120  177.1340  145.4680 C   0  0  0  0  0  2  0  0  0  0  0  0
  188.4680  178.4140  140.4290 C   0  0  0  0  0  3  0  0  0  0  0  0
  186.5310  178.5050  142.0430 C   0  0  1  0  0  3  0  0  0  0  0  0
  187.0810  178.3760  140.6360 C   0  0  0  0  0  0  0  0  0  0  0  0
  184.7320  178.2700  139.7180 C   0  0  2  0  0  3  0  0  0  0  0  0
  180.9650  179.5080  137.8780 C   0  0  0  0  0  2  0  0  0  0  0  0
  185.5770  179.3110  146.6890 C   0  0  0  0  0  2  0  0  0  0  0  0
  186.8150  177.9770  144.4680 C   0  0  2  0  0  3  0  0  0  0  0  0
  181.1820  179.7930  139.3410 C   0  0  0  0  0  2  0  0  0  0  0  0
  184.7370  178.2350  145.9920 C   0  0  0  0  0  2  0  0  0  0  0  0
  187.2060  177.3220  146.9340 C   0  0  1  0  0  3  0  0  0  0  0  0
  186.7570  178.3140  138.2230 C   0  0  0  0  0  3  0  0  0  0  0  0
  186.2170  178.3710  139.5160 C   0  0  0  0  0  0  0  0  0  0  0  0
  183.9940  178.8100  138.6570 O   0  0  0  0  0  0  0  0  0  0  0  0
  184.5640  178.6690  143.5430 C   0  0  0  0  0  2  0  0  0  0  0  0
  182.1840  179.1930  142.0910 O   0  0  0  0  0  0  0  0  0  0  0  0
  181.5000  177.3450  136.7810 C   0  0  0  0  0  1  0  0  0  0  0  0
  184.2880  178.9410  141.0110 C   0  0  2  0  0  3  0  0  0  0  0  0
  182.8030  178.1420  138.6790 N   0  0  1  0  0  0  0  0  0  0  0  0
  188.3090  176.7790  147.8280 C   0  0  0  0  0  2  0  0  0  0  0  0
  189.5270  177.6350  147.7450 C   0  0  0  0  0  0  0  0  0  0  0  0
  190.4480  177.4340  146.7260 O   0  0  0  0  0  0  0  0  0  0  0  0
  189.7050  178.5590  148.5800 O   0  0  0  0  0  1  0  0  0  0  0  0
  2 24  1  1  0  0  0
  3 11  1  0  0  0  0
  4 21  1  0  0  0  0
  4  3  2  0  0  0  0
  5 25  2  0  0  0  0
  6 18  1  6  0  0  0
  6  5  1  0  0  0  0
  7 24  1  6  0  0  0
  7 19  1  0  0  0  0
  9 26  1  1  0  0  0
  9 15  1  0  0  0  0
  9 28  1  0  0  0  0
 10 20  1  0  0  0  0
 11 13  2  0  0  0  0
 12  2  1  0  0  0  0
 12  8  1  1  0  0  0
 13 12  1  0  0  0  0
 14 23  1  6  0  0  0
 14 27  1  0  0  0  0
 15 18  1  0  0  0  0
 16  1  1  0  0  0  0
 17  8  1  6  0  0  0
 17  7  1  0  0  0  0
 17 10  1  0  0  0  0
 19 16  1  0  0  0  0
 20  1  1  0  0  0  0
 20 29  1  1  0  0  0
 21 22  2  0  0  0  0
 22 14  1  0  0  0  0
 22 13  1  0  0  0  0
 27  5  1  1  0  0  0
 27  2  1  0  0  0  0
 28 23  1  1  0  0  0
 28  6  1  0  0  0  0
 30 29  1  0  0  0  0
 30 32  1  0  0  0  0
 31 30  2  0  0  0  0
M  END
>  <MODEL>
3

>  <REMARK>
 VINA RESULT:      -9.2      2.805      8.395
  Name = 
  2 active torsions:
  status: ('A' for Active; 'I' for Inactive)
    1  A    between atoms: C_20  and  C_29
    2  A    between atoms: C_29  and  C_30
                            x       y       z     vdW  Elec       q    Type
                         _______ _______ _______ _____ _____    ______ ____

>  <TORSDO>
F 2

$$$$
=
 OpenBabel11122410393D

 32 37  0  0  1  0  0  0  0  0999 V2000
  188.6680  178.3680  147.2060 C   0  0  0  0  0  2  0  0  0  0  0  0
  185.8020  177.9300  142.5380 C   0  0  1  0  0  3  0  0  0  0  0  0
  189.0570  178.4300  138.7840 C   0  0  0  0  0  3  0  0  0  0  0  0
  187.9950  178.3740  137.8790 C   0  0  0  0  0  3  0  0  0  0  0  0
  183.3520  178.5270  141.9660 C   0  0  0  0  0  0  0  0  0  0  0  0
  182.3250  178.2320  140.8910 C   0  0  1  0  0  3  0  0  0  0  0  0
  186.5810  177.4530  144.8660 C   0  0  1  0  0  3  0  0  0  0  0  0
  188.2170  177.4200  142.9240 C   0  0  0  0  0  2  0  0  0  0  0  0
  181.9500  178.2950  138.5850 C   0  0  2  0  0  3  0  0  0  0  0  0
  189.0700  176.8400  145.1900 C   0  0  0  0  0  2  0  0  0  0  0  0
  188.8070  178.3780  140.1570 C   0  0  0  0  0  3  0  0  0  0  0  0
  187.2430  178.2940  142.1350 C   0  0  1  0  0  3  0  0  0  0  0  0
  187.4960  178.2540  140.6400 C   0  0  0  0  0  0  0  0  0  0  0  0
  185.0150  178.0580  140.2180 C   0  0  2  0  0  3  0  0  0  0  0  0
  180.8980  179.1640  139.2540 C   0  0  0  0  0  2  0  0  0  0  0  0
  187.2350  178.8480  146.9150 C   0  0  0  0  0  2  0  0  0  0  0  0
  188.0470  177.6800  144.4200 C   0  0  2  0  0  3  0  0  0  0  0  0
  181.3990  179.3980  140.6550 C   0  0  0  0  0  2  0  0  0  0  0  0
  186.3190  177.7580  146.3480 C   0  0  0  0  0  2  0  0  0  0  0  0
  188.9680  176.9440  146.7150 C   0  0  1  0  0  3  0  0  0  0  0  0
  186.6830  178.2770  138.3450 C   0  0  0  0  0  3  0  0  0  0  0  0
  186.4210  178.2490  139.7220 C   0  0  0  0  0  0  0  0  0  0  0  0
  184.0500  178.6020  139.3600 O   0  0  0  0  0  0  0  0  0  0  0  0
  185.6240  178.2850  144.0120 C   0  0  0  0  0  2  0  0  0  0  0  0
  182.9730  178.7390  143.1060 O   0  0  0  0  0  0  0  0  0  0  0  0
  181.2910  177.0820  137.9590 C   0  0  0  0  0  1  0  0  0  0  0  0
  184.8180  178.6490  141.6080 C   0  0  2  0  0  3  0  0  0  0  0  0
  182.9210  177.8680  139.5900 N   0  0  1  0  0  0  0  0  0  0  0  0
  190.2550  176.4250  147.3360 C   0  0  0  0  0  2  0  0  0  0  0  0
  191.3950  176.5620  146.3840 C   0  0  0  0  0  0  0  0  0  0  0  0
  192.1260  175.4430  146.0110 O   0  0  0  0  0  1  0  0  0  0  0  0
  191.6740  177.6870  145.8940 O   0  0  0  0  0  0  0  0  0  0  0  0
  2 24  1  1  0  0  0
  3 11  1  0  0  0  0
  4 21  1  0  0  0  0
  4  3  2  0  0  0  0
  5 25  2  0  0  0  0
  6 18  1  6  0  0  0
  6  5  1  0  0  0  0
  7 24  1  6  0  0  0
  7 19  1  0  0  0  0
  9 26  1  1  0  0  0
  9 15  1  0  0  0  0
  9 28  1  0  0  0  0
 10 20  1  0  0  0  0
 11 13  2  0  0  0  0
 12  2  1  0  0  0  0
 12  8  1  1  0  0  0
 13 12  1  0  0  0  0
 14 23  1  6  0  0  0
 14 27  1  0  0  0  0
 15 18  1  0  0  0  0
 16  1  1  0  0  0  0
 17  8  1  6  0  0  0
 17  7  1  0  0  0  0
 17 10  1  0  0  0  0
 19 16  1  0  0  0  0
 20  1  1  0  0  0  0
 20 29  1  1  0  0  0
 21 22  2  0  0  0  0
 22 14  1  0  0  0  0
 22 13  1  0  0  0  0
 27  5  1  1  0  0  0
 27  2  1  0  0  0  0
 28 23  1  6  0  0  0
 28  6  1  0  0  0  0
 30 29  1  0  0  0  0
 31 30  1  0  0  0  0
 32 30  2  0  0  0  0
M  END
>  <MODEL>
4

>  <REMARK>
 VINA RESULT:      -9.1      2.634      8.613
  Name = 
  2 active torsions:
  status: ('A' for Active; 'I' for Inactive)
    1  A    between atoms: C_20  and  C_29
    2  A    between atoms: C_29  and  C_30
                            x       y       z     vdW  Elec       q    Type
                         _______ _______ _______ _____ _____    ______ ____

>  <TORSDO>
F 2

$$$$
=
 OpenBabel11122410393D

 32 37  0  0  1  0  0  0  0  0999 V2000
  190.9790  175.6910  137.9750 C   0  0  0  0  0  2  0  0  0  0  0  0
  189.1710  177.3890  142.8780 C   0  0  1  0  0  3  0  0  0  0  0  0
  192.3300  175.5780  146.2960 C   0  0  0  0  0  3  0  0  0  0  0  0
  191.5140  176.1000  147.3010 C   0  0  0  0  0  3  0  0  0  0  0  0
  186.7920  177.9200  143.7410 C   0  0  0  0  0  0  0  0  0  0  0  0
  186.1310  178.6440  144.8960 C   0  0  1  0  0  3  0  0  0  0  0  0
  189.7880  177.4510  140.4550 C   0  0  1  0  0  3  0  0  0  0  0  0
  191.5040  176.7980  142.2100 C   0  0  0  0  0  2  0  0  0  0  0  0
  186.0490  178.7810  147.2270 C   0  0  2  0  0  3  0  0  0  0  0  0
  192.2400  176.9200  139.8340 C   0  0  0  0  0  2  0  0  0  0  0  0
  191.9610  175.7150  144.9560 C   0  0  0  0  0  3  0  0  0  0  0  0
  190.3550  176.4420  143.1510 C   0  0  1  0  0  3  0  0  0  0  0  0
  190.7810  176.3880  144.6050 C   0  0  0  0  0  0  0  0  0  0  0  0
  188.6950  177.6440  145.2710 C   0  0  2  0  0  3  0  0  0  0  0  0
  184.6530  178.4440  146.7290 C   0  0  0  0  0  2  0  0  0  0  0  0
  189.5260  175.8830  138.4440 C   0  0  0  0  0  2  0  0  0  0  0  0
  191.0580  176.6170  140.7600 C   0  0  2  0  0  3  0  0  0  0  0  0
  184.8300  177.9980  145.3020 C   0  0  0  0  0  2  0  0  0  0  0  0
  189.2420  177.2690  139.0320 C   0  0  0  0  0  2  0  0  0  0  0  0
  191.9180  176.8510  138.3380 C   0  0  1  0  0  3  0  0  0  0  0  0
  190.3240  176.7500  146.9700 C   0  0  0  0  0  3  0  0  0  0  0  0
  189.9320  176.8700  145.6290 C   0  0  0  0  0  0  0  0  0  0  0  0
  187.7030  177.5840  146.2580 O   0  0  0  0  0  0  0  0  0  0  0  0
  188.6790  177.1260  141.4570 C   0  0  0  0  0  2  0  0  0  0  0  0
  186.2230  177.8780  142.6620 O   0  0  0  0  0  0  0  0  0  0  0  0
  186.0550  180.1670  147.8390 C   0  0  0  0  0  1  0  0  0  0  0  0
  188.0960  177.1790  143.9500 C   0  0  2  0  0  3  0  0  0  0  0  0
  186.9780  178.7310  146.1010 N   0  0  1  0  0  0  0  0  0  0  0  0
  193.2160  176.7530  137.5540 C   0  0  0  0  0  2  0  0  0  0  0  0
  193.8680  175.4290  137.7730 C   0  0  0  0  0  0  0  0  0  0  0  0
  193.5240  174.3460  136.9760 O   0  0  0  0  0  0  0  0  0  0  0  0
  194.7520  175.3030  138.6590 O   0  0  0  0  0  1  0  0  0  0  0  0
  1 20  1  0  0  0  0
  1 16  1  0  0  0  0
  2 24  1  6  0  0  0
  2 12  1  0  0  0  0
  2 27  1  0  0  0  0
  3  4  1  0  0  0  0
  5  6  1  0  0  0  0
  6 18  1  1  0  0  0
  6 28  1  0  0  0  0
  7 19  1  6  0  0  0
  7 17  1  0  0  0  0
  7 24  1  0  0  0  0
  9 26  1  6  0  0  0
 11  3  2  0  0  0  0
 12  8  1  6  0  0  0
 12 13  1  0  0  0  0
 13 11  1  0  0  0  0
 13 22  2  0  0  0  0
 14 22  1  1  0  0  0
 14 23  1  0  0  0  0
 15  9  1  0  0  0  0
 16 19  1  0  0  0  0
 17 10  1  6  0  0  0
 17  8  1  0  0  0  0
 18 15  1  0  0  0  0
 20 29  1  6  0  0  0
 20 10  1  0  0  0  0
 21  4  2  0  0  0  0
 22 21  1  0  0  0  0
 25  5  2  0  0  0  0
 27  5  1  6  0  0  0
 27 14  1  0  0  0  0
 28 23  1  1  0  0  0
 28  9  1  0  0  0  0
 29 30  1  0  0  0  0
 30 32  1  0  0  0  0
 31 30  2  0  0  0  0
M  END
>  <MODEL>
5

>  <REMARK>
 VINA RESULT:      -8.8      4.065      8.006
  Name = 
  2 active torsions:
  status: ('A' for Active; 'I' for Inactive)
    1  A    between atoms: C_20  and  C_29
    2  A    between atoms: C_29  and  C_30
                            x       y       z     vdW  Elec       q    Type
                         _______ _______ _______ _____ _____    ______ ____

>  <TORSDO>
F 2

$$$$
=
 OpenBabel11122410393D

 32 37  0  0  1  0  0  0  0  0999 V2000
  187.7110  176.7550  145.1230 C   0  0  0  0  0  2  0  0  0  0  0  0
  183.8610  178.7120  141.7260 C   0  0  1  0  0  3  0  0  0  0  0  0
  179.5980  178.9020  144.3200 C   0  0  0  0  0  3  0  0  0  0  0  0
  178.9310  179.3060  143.1620 C   0  0  0  0  0  3  0  0  0  0  0  0
  183.5880  178.5430  139.1600 C   0  0  0  0  0  0  0  0  0  0  0  0
  182.8130  179.2170  138.0460 C   0  0  1  0  0  3  0  0  0  0  0  0
  186.0640  178.4680  142.8820 C   0  0  1  0  0  3  0  0  0  0  0  0
  183.9400  178.8510  144.2190 C   0  0  0  0  0  2  0  0  0  0  0  0
  180.6630  179.8110  137.3480 C   0  0  2  0  0  3  0  0  0  0  0  0
  186.0970  178.7150  145.4540 C   0  0  0  0  0  2  0  0  0  0  0  0
  180.9630  178.6110  144.2740 C   0  0  0  0  0  3  0  0  0  0  0  0
  183.1380  178.3240  143.0300 C   0  0  1  0  0  3  0  0  0  0  0  0
  181.6790  178.7340  143.0750 C   0  0  0  0  0  0  0  0  0  0  0  0
  181.7510  179.2880  140.6130 C   0  0  2  0  0  3  0  0  0  0  0  0
  181.2670  178.9060  136.2860 C   0  0  0  0  0  2  0  0  0  0  0  0
  187.5610  176.5180  143.6090 C   0  0  0  0  0  2  0  0  0  0  0  0
  185.3310  178.2210  144.2240 C   0  0  2  0  0  3  0  0  0  0  0  0
  182.4590  178.2570  136.9390 C   0  0  0  0  0  2  0  0  0  0  0  0
  187.4470  177.8070  142.7890 C   0  0  0  0  0  2  0  0  0  0  0  0
  187.5430  178.2190  145.5520 C   0  0  1  0  0  3  0  0  0  0  0  0
  179.6250  179.4080  141.9550 C   0  0  0  0  0  3  0  0  0  0  0  0
  180.9900  179.0940  141.8940 C   0  0  0  0  0  0  0  0  0  0  0  0
  180.9650  179.0950  139.4700 O   0  0  0  0  0  0  0  0  0  0  0  0
  185.2080  177.9960  141.7060 C   0  0  0  0  0  2  0  0  0  0  0  0
  184.6890  178.0740  138.9180 O   0  0  0  0  0  0  0  0  0  0  0  0
  180.4790  181.2070  136.7890 C   0  0  0  0  0  1  0  0  0  0  0  0
  182.9650  178.3720  140.5300 C   0  0  2  0  0  3  0  0  0  0  0  0
  181.5590  179.8520  138.5000 N   0  0  1  0  0  0  0  0  0  0  0  0
  188.0420  178.4190  146.9740 C   0  0  0  0  0  2  0  0  0  0  0  0
  188.8490  177.2470  147.4220 C   0  0  0  0  0  0  0  0  0  0  0  0
  190.1780  177.1320  147.0380 O   0  0  0  0  0  0  0  0  0  0  0  0
  188.3330  176.3790  148.1720 O   0  0  0  0  0  1  0  0  0  0  0  0
  1 20  1  0  0  0  0
  2 24  1  6  0  0  0
  2 12  1  0  0  0  0
  4  3  2  0  0  0  0
  6 18  1  6  0  0  0
  6 28  1  0  0  0  0
  6  5  1  0  0  0  0
  7 24  1  6  0  0  0
  7 17  1  0  0  0  0
  9 26  1  6  0  0  0
  9 28  1  0  0  0  0
 10 20  1  0  0  0  0
 11  3  1  0  0  0  0
 12 13  1  0  0  0  0
 12  8  1  1  0  0  0
 13 11  2  0  0  0  0
 14 23  1  6  0  0  0
 14 22  1  0  0  0  0
 15 18  1  0  0  0  0
 15  9  1  0  0  0  0
 16  1  1  0  0  0  0
 17  8  1  6  0  0  0
 17 10  1  0  0  0  0
 19  7  1  0  0  0  0
 19 16  1  0  0  0  0
 20 29  1  1  0  0  0
 21  4  1  0  0  0  0
 22 21  2  0  0  0  0
 22 13  1  0  0  0  0
 25  5  2  0  0  0  0
 27  5  1  6  0  0  0
 27 14  1  0  0  0  0
 27  2  1  0  0  0  0
 28 23  1  1  0  0  0
 29 30  1  0  0  0  0
 30 32  1  0  0  0  0
 31 30  2  0  0  0  0
M  END
>  <MODEL>
6

>  <REMARK>
 VINA RESULT:      -8.6      2.875      8.255
  Name = 
  2 active torsions:
  status: ('A' for Active; 'I' for Inactive)
    1  A    between atoms: C_20  and  C_29
    2  A    between atoms: C_29  and  C_30
                            x       y       z     vdW  Elec       q    Type
                         _______ _______ _______ _____ _____    ______ ____

>  <TORSDO>
F 2

$$$$
=
 OpenBabel11122410393D

 32 37  0  0  1  0  0  0  0  0999 V2000
  180.3330  178.4550  140.0400 C   0  0  0  0  0  2  0  0  0  0  0  0
  185.7000  178.6150  141.2070 C   0  0  1  0  0  3  0  0  0  0  0  0
  188.1410  178.1730  136.8720 C   0  0  0  0  0  3  0  0  0  0  0  0
  189.3480  178.1500  137.5740 C   0  0  0  0  0  3  0  0  0  0  0  0
  187.0240  177.8780  143.3020 C   0  0  0  0  0  0  0  0  0  0  0  0
  188.3900  178.0900  143.9240 C   0  0  1  0  0  3  0  0  0  0  0  0
  183.2690  179.1960  141.2650 C   0  0  1  0  0  3  0  0  0  0  0  0
  184.5600  179.2570  139.0790 C   0  0  0  0  0  2  0  0  0  0  0  0
  190.6850  177.9430  143.5090 C   0  0  2  0  0  3  0  0  0  0  0  0
  182.1670  179.9430  139.0500 C   0  0  0  0  0  2  0  0  0  0  0  0
  186.9310  178.2520  137.5660 C   0  0  0  0  0  3  0  0  0  0  0  0
  185.5880  178.3120  139.7000 C   0  0  1  0  0  3  0  0  0  0  0  0
  186.9150  178.3220  138.9670 C   0  0  0  0  0  0  0  0  0  0  0  0
  188.1420  178.3800  141.1720 C   0  0  2  0  0  3  0  0  0  0  0  0
  190.3650  177.0410  144.6890 C   0  0  0  0  0  2  0  0  0  0  0  0
  181.0610  177.8940  141.2750 C   0  0  0  0  0  2  0  0  0  0  0  0
  183.1950  179.0310  139.7260 C   0  0  2  0  0  3  0  0  0  0  0  0
  188.8680  176.8720  144.6740 C   0  0  0  0  0  2  0  0  0  0  0  0
  181.9450  178.9200  141.9920 C   0  0  0  0  0  2  0  0  0  0  0  0
  180.7580  179.8770  139.6490 C   0  0  1  0  0  3  0  0  0  0  0  0
  189.3470  178.1930  138.9690 C   0  0  0  0  0  3  0  0  0  0  0  0
  188.1370  178.2470  139.6750 C   0  0  0  0  0  0  0  0  0  0  0  0
  189.2460  177.7650  141.7760 O   0  0  0  0  0  0  0  0  0  0  0  0
  184.3550  178.2920  141.8510 C   0  0  0  0  0  2  0  0  0  0  0  0
  186.0650  177.6800  144.0300 O   0  0  0  0  0  0  0  0  0  0  0  0
  191.5460  179.1020  143.9680 C   0  0  0  0  0  1  0  0  0  0  0  0
  186.8710  177.8210  141.7970 C   0  0  2  0  0  3  0  0  0  0  0  0
  189.4350  178.4460  142.9440 N   0  0  1  0  0  0  0  0  0  0  0  0
  179.7700  180.4780  138.6630 C   0  0  0  0  0  2  0  0  0  0  0  0
  179.6440  181.9500  138.8690 C   0  0  0  0  0  0  0  0  0  0  0  0
  180.2860  182.8290  138.0080 O   0  0  0  0  0  0  0  0  0  0  0  0
  178.9310  182.3950  139.8060 O   0  0  0  0  0  1  0  0  0  0  0  0
  1 16  1  0  0  0  0
  2 27  1  0  0  0  0
  2 24  1  1  0  0  0
  3 11  2  0  0  0  0
  3  4  1  0  0  0  0
  4 21  2  0  0  0  0
  5  6  1  0  0  0  0
  5 25  2  0  0  0  0
  6 18  1  6  0  0  0
  7 24  1  1  0  0  0
  7 19  1  0  0  0  0
  8 17  1  0  0  0  0
  9 26  1  1  0  0  0
  9 15  1  0  0  0  0
 10 20  1  0  0  0  0
 11 13  1  0  0  0  0
 12  8  1  6  0  0  0
 12  2  1  0  0  0  0
 13 22  2  0  0  0  0
 13 12  1  0  0  0  0
 14 22  1  6  0  0  0
 14 23  1  0  0  0  0
 14 27  1  0  0  0  0
 16 19  1  0  0  0  0
 17 10  1  6  0  0  0
 17  7  1  0  0  0  0
 18 15  1  0  0  0  0
 20 29  1  6  0  0  0
 20  1  1  0  0  0  0
 21 22  1  0  0  0  0
 27  5  1  1  0  0  0
 28 23  1  6  0  0  0
 28  9  1  0  0  0  0
 28  6  1  0  0  0  0
 29 30  1  0  0  0  0
 30 32  1  0  0  0  0
 31 30  2  0  0  0  0
M  END
>  <MODEL>
7

>  <REMARK>
 VINA RESULT:      -8.4      2.442      4.626
  Name = 
  2 active torsions:
  status: ('A' for Active; 'I' for Inactive)
    1  A    between atoms: C_20  and  C_29
    2  A    between atoms: C_29  and  C_30
                            x       y       z     vdW  Elec       q    Type
                         _______ _______ _______ _____ _____    ______ ____

>  <TORSDO>
F 2

$$$$
=
 OpenBabel11122410393D

 32 37  0  0  1  0  0  0  0  0999 V2000
  187.8100  179.0270  136.4690 C   0  0  0  0  0  2  0  0  0  0  0  0
  188.1340  177.7330  141.8000 C   0  0  1  0  0  3  0  0  0  0  0  0
  183.9430  179.3890  143.9520 C   0  0  0  0  0  3  0  0  0  0  0  0
  184.4450  178.9920  145.1940 C   0  0  0  0  0  3  0  0  0  0  0  0
  190.1620  177.4710  143.3820 C   0  0  0  0  0  0  0  0  0  0  0  0
  190.4870  176.8650  144.7330 C   0  0  1  0  0  3  0  0  0  0  0  0
  188.3050  177.5030  139.3160 C   0  0  1  0  0  3  0  0  0  0  0  0
  186.0850  178.0690  140.4110 C   0  0  0  0  0  2  0  0  0  0  0  0
  189.8520  176.8430  146.9820 C   0  0  2  0  0  3  0  0  0  0  0  0
  186.1330  177.7690  137.9400 C   0  0  0  0  0  2  0  0  0  0  0  0
  184.7190  179.2270  142.8020 C   0  0  0  0  0  3  0  0  0  0  0  0
  186.8550  178.5750  141.6300 C   0  0  1  0  0  3  0  0  0  0  0  0
  185.9970  178.6540  142.8770 C   0  0  0  0  0  0  0  0  0  0  0  0
  187.8630  177.6330  144.2360 C   0  0  2  0  0  3  0  0  0  0  0  0
  191.3040  177.2880  146.9100 C   0  0  0  0  0  2  0  0  0  0  0  0
  189.0560  178.9960  137.3720 C   0  0  0  0  0  2  0  0  0  0  0  0
  186.9430  178.2250  139.1570 C   0  0  2  0  0  3  0  0  0  0  0  0
  191.5440  177.6500  145.4680 C   0  0  0  0  0  2  0  0  0  0  0  0
  189.2490  177.6710  138.1170 C   0  0  0  0  0  2  0  0  0  0  0  0
  186.8970  177.8010  136.6120 C   0  0  1  0  0  3  0  0  0  0  0  0
  185.7250  178.4450  145.2880 C   0  0  0  0  0  3  0  0  0  0  0  0
  186.5210  178.3020  144.1430 C   0  0  0  0  0  0  0  0  0  0  0  0
  188.4930  177.8320  145.4720 O   0  0  0  0  0  0  0  0  0  0  0  0
  189.0200  177.9770  140.5810 C   0  0  0  0  0  2  0  0  0  0  0  0
  191.0320  177.5170  142.5280 O   0  0  0  0  0  0  0  0  0  0  0  0
  189.7620  175.4910  147.6620 C   0  0  0  0  0  1  0  0  0  0  0  0
  188.8050  178.0920  143.1300 C   0  0  2  0  0  3  0  0  0  0  0  0
  189.3160  176.7530  145.6260 N   0  0  1  0  0  0  0  0  0  0  0  0
  185.9020  177.7400  135.4650 C   0  0  0  0  0  2  0  0  0  0  0  0
  185.1550  176.4490  135.4810 C   0  0  0  0  0  0  0  0  0  0  0  0
  185.8460  175.2460  135.4300 O   0  0  0  0  0  0  0  0  0  0  0  0
  183.9000  176.4490  135.5720 O   0  0  0  0  0  1  0  0  0  0  0  0
  1 20  1  0  0  0  0
  1 16  1  0  0  0  0
  2 24  1  6  0  0  0
  2 27  1  0  0  0  0
  3  4  1  0  0  0  0
  4 21  2  0  0  0  0
  5  6  1  0  0  0  0
  6 18  1  1  0  0  0
  6 28  1  0  0  0  0
  7 19  1  6  0  0  0
  7 24  1  0  0  0  0
  9 26  1  6  0  0  0
 11 13  1  0  0  0  0
 11  3  2  0  0  0  0
 12  8  1  6  0  0  0
 12  2  1  0  0  0  0
 12 13  1  0  0  0  0
 13 22  2  0  0  0  0
 14 22  1  1  0  0  0
 14 23  1  0  0  0  0
 15  9  1  0  0  0  0
 16 19  1  0  0  0  0
 17 10  1  6  0  0  0
 17  7  1  0  0  0  0
 17  8  1  0  0  0  0
 18 15  1  0  0  0  0
 20 29  1  6  0  0  0
 20 10  1  0  0  0  0
 22 21  1  0  0  0  0
 25  5  2  0  0  0  0
 27  5  1  1  0  0  0
 27 14  1  0  0  0  0
 28 23  1  6  0  0  0
 28  9  1  0  0  0  0
 29 30  1  0  0  0  0
 30 32  1  0  0  0  0
 31 30  2  0  0  0  0
M  END
>  <MODEL>
8

>  <REMARK>
 VINA RESULT:      -8.1      3.075      4.430
  Name = 
  2 active torsions:
  status: ('A' for Active; 'I' for Inactive)
    1  A    between atoms: C_20  and  C_29
    2  A    between atoms: C_29  and  C_30
                            x       y       z     vdW  Elec       q    Type
                         _______ _______ _______ _____ _____    ______ ____

>  <TORSDO>
F 2

$$$$
=
 OpenBabel11122410393D

 32 37  0  0  1  0  0  0  0  0999 V2000
  185.6210  179.4660  145.7460 C   0  0  0  0  0  2  0  0  0  0  0  0
  184.8780  178.0690  140.4840 C   0  0  1  0  0  3  0  0  0  0  0  0
  189.3400  178.3630  138.2610 C   0  0  0  0  0  3  0  0  0  0  0  0
  188.7320  178.0680  137.0390 C   0  0  0  0  0  3  0  0  0  0  0  0
  182.8400  178.3190  138.9130 C   0  0  0  0  0  0  0  0  0  0  0  0
  182.3410  177.7680  137.5920 C   0  0  1  0  0  3  0  0  0  0  0  0
  184.6790  178.0140  142.9760 C   0  0  1  0  0  3  0  0  0  0  0  0
  186.9550  177.8740  141.8580 C   0  0  0  0  0  2  0  0  0  0  0  0
  182.9160  177.4600  135.3480 C   0  0  2  0  0  3  0  0  0  0  0  0
  186.8540  177.7170  144.3410 C   0  0  0  0  0  2  0  0  0  0  0  0
  188.5640  178.4830  139.4160 C   0  0  0  0  0  3  0  0  0  0  0  0
  186.3450  178.5200  140.6150 C   0  0  1  0  0  3  0  0  0  0  0  0
  187.1750  178.2930  139.3670 C   0  0  0  0  0  0  0  0  0  0  0  0
  185.0800  177.7810  138.0560 C   0  0  2  0  0  3  0  0  0  0  0  0
  181.6510  178.3020  135.3960 C   0  0  0  0  0  2  0  0  0  0  0  0
  184.4060  179.7480  144.8440 C   0  0  0  0  0  2  0  0  0  0  0  0
  186.1910  178.3260  143.1020 C   0  0  2  0  0  3  0  0  0  0  0  0
  181.5410  178.7850  136.8180 C   0  0  0  0  0  2  0  0  0  0  0  0
  183.8360  178.4990  144.1640 C   0  0  0  0  0  2  0  0  0  0  0  0
  186.1470  178.0260  145.6640 C   0  0  1  0  0  3  0  0  0  0  0  0
  187.3470  177.9020  136.9690 C   0  0  0  0  0  3  0  0  0  0  0  0
  186.5580  178.0450  138.1190 C   0  0  0  0  0  0  0  0  0  0  0  0
  184.5170  178.0920  136.8110 O   0  0  0  0  0  0  0  0  0  0  0  0
  184.1120  178.6110  141.6880 C   0  0  0  0  0  2  0  0  0  0  0  0
  182.0290  178.6510  139.7620 O   0  0  0  0  0  0  0  0  0  0  0  0
  182.6100  176.1090  134.7350 C   0  0  0  0  0  1  0  0  0  0  0  0
  184.3210  178.5410  139.1370 C   0  0  2  0  0  3  0  0  0  0  0  0
  183.4200  177.2860  136.7080 N   0  0  1  0  0  0  0  0  0  0  0  0
  187.0970  177.7390  146.8150 C   0  0  0  0  0  2  0  0  0  0  0  0
  188.4990  177.6060  146.3220 C   0  0  0  0  0  0  0  0  0  0  0  0
  189.3240  176.6150  146.8370 O   0  0  0  0  0  1  0  0  0  0  0  0
  188.9240  178.3710  145.4190 O   0  0  0  0  0  0  0  0  0  0  0  0
  2 12  1  0  0  0  0
  2 24  1  1  0  0  0
  3 11  1  0  0  0  0
  4  3  2  0  0  0  0
  5 25  2  0  0  0  0
  6 18  1  6  0  0  0
  6  5  1  0  0  0  0
  7 24  1  6  0  0  0
  7 17  1  0  0  0  0
  7 19  1  0  0  0  0
  9 26  1  1  0  0  0
  9 15  1  0  0  0  0
  9 28  1  0  0  0  0
 10 20  1  0  0  0  0
 12  8  1  1  0  0  0
 13 11  2  0  0  0  0
 13 12  1  0  0  0  0
 14 23  1  6  0  0  0
 14 22  1  0  0  0  0
 14 27  1  0  0  0  0
 15 18  1  0  0  0  0
 16  1  1  0  0  0  0
 17  8  1  6  0  0  0
 17 10  1  0  0  0  0
 19 16  1  0  0  0  0
 20  1  1  0  0  0  0
 20 29  1  1  0  0  0
 21  4  1  0  0  0  0
 21 22  2  0  0  0  0
 22 13  1  0  0  0  0
 27  5  1  1  0  0  0
 27  2  1  0  0  0  0
 28 23  1  6  0  0  0
 28  6  1  0  0  0  0
 30 29  1  0  0  0  0
 30 31  1  0  0  0  0
 32 30  2  0  0  0  0
M  END
>  <MODEL>
9

>  <REMARK>
 VINA RESULT:      -7.4      3.015      8.167
  Name = 
  2 active torsions:
  status: ('A' for Active; 'I' for Inactive)
    1  A    between atoms: C_20  and  C_29
    2  A    between atoms: C_29  and  C_30
                            x       y       z     vdW  Elec       q    Type
                         _______ _______ _______ _____ _____    ______ ____

>  <TORSDO>
F 2

$$$$
