=
 OpenBabel11122411403D

 37 44  0  0  1  0  0  0  0  0999 V2000
  187.5900  177.6200  139.7630 C   0  0  0  0  0  2  0  0  0  0  0  0
  190.5410  177.9150  143.5960 C   0  0  0  0  0  0  0  0  0  0  0  0
  186.1960  177.4060  144.0170 C   0  0  1  0  0  3  0  0  0  0  0  0
  187.7350  177.9100  138.2720 C   0  0  1  0  0  0  0  0  0  0  0  0
  183.8590  178.3180  141.0570 C   0  0  0  0  0  2  0  0  0  0  0  0
  188.5060  177.6170  145.0790 C   0  0  1  0  0  3  0  0  0  0  0  0
  185.8000  178.0330  142.6730 C   0  0  1  0  0  3  0  0  0  0  0  0
  185.2690  177.5220  137.5670 C   0  0  2  0  0  3  0  0  0  0  0  0
  187.7080  177.1570  143.8640 C   0  0  2  0  0  3  0  0  0  0  0  0
  184.4490  178.7320  142.4170 C   0  0  2  0  0  3  0  0  0  0  0  0
  187.9360  177.0040  146.2650 N   0  0  0  0  0  2  0  0  0  0  0  0
  186.5620  178.3300  137.3750 C   0  0  0  0  0  2  0  0  0  0  0  0
  188.1920  177.8580  142.5870 C   0  0  2  0  0  3  0  0  0  0  0  0
  191.1550  176.8240  142.7410 C   0  0  0  0  0  1  0  0  0  0  0  0
  184.8390  178.9010  145.6190 C   0  0  0  0  0  3  0  0  0  0  0  0
  186.7020  177.7310  146.5840 C   0  0  0  0  0  2  0  0  0  0  0  0
  189.4810  178.6770  142.7720 C   0  0  0  0  0  2  0  0  0  0  0  0
  184.3000  178.1420  138.5780 C   0  0  0  0  0  2  0  0  0  0  0  0
  184.9130  178.2360  139.9650 C   0  0  1  0  0  3  0  0  0  0  0  0
  185.8610  178.0730  145.3650 C   0  0  0  0  0  0  0  0  0  0  0  0
  187.0350  178.7070  142.0830 C   0  0  1  0  0  3  0  0  0  0  0  0
  189.9780  177.2800  144.8860 C   0  0  0  0  0  2  0  0  0  0  0  0
  183.4540  178.5530  143.5670 C   0  0  1  0  0  3  0  0  0  0  0  0
  191.6350  178.8900  143.9790 C   0  0  0  0  0  1  0  0  0  0  0  0
  185.8050  179.3210  140.0330 O   0  0  0  0  0  0  0  0  0  0  0  0
  185.5230  176.1800  137.8630 O   0  0  0  0  0  1  0  0  0  0  0  0
  187.0340  178.8350  140.5380 C   0  0  2  0  0  3  0  0  0  0  0  0
  183.8730  179.5070  144.6580 C   0  0  0  0  0  2  0  0  0  0  0  0
  189.0480  178.3560  137.8390 C   0  0  0  0  0  2  0  0  0  0  0  0
  188.6310  176.9590  137.6060 N   0  0  0  0  0  2  0  0  0  0  0  0
  181.0110  178.5640  144.1090 C   0  0  0  0  0  3  0  0  0  0  0  0
  182.0260  178.8400  143.1890 C   0  0  0  0  0  0  0  0  0  0  0  0
  181.6910  179.3740  141.9360 C   0  0  0  0  0  3  0  0  0  0  0  0
  179.9980  180.1570  140.3620 N   0  0  0  0  0  1  0  0  0  0  0  0
  179.3820  179.3380  142.5440 N   0  0  0  0  0  0  0  0  0  0  0  0
  180.3510  179.6170  141.6300 C   0  0  0  0  0  0  0  0  0  0  0  0
  179.6830  178.8220  143.7650 C   0  0  0  0  0  3  0  0  0  0  0  0
  1 27  1  0  0  0  0
  2 24  1  0  0  0  0
  2 22  1  0  0  0  0
  3 20  1  1  0  0  0
  4 12  1  6  0  0  0
  4  1  1  0  0  0  0
  5 10  1  0  0  0  0
  6 22  1  6  0  0  0
  6 11  1  0  0  0  0
  7  3  1  0  0  0  0
  8 26  1  0  0  0  0
  8 18  1  0  0  0  0
  9  3  1  0  0  0  0
  9  6  1  0  0  0  0
 10  7  1  0  0  0  0
 10 23  1  0  0  0  0
 11 16  1  0  0  0  0
 12  8  1  0  0  0  0
 13 17  1  0  0  0  0
 13  9  1  0  0  0  0
 14  2  1  0  0  0  0
 17  2  1  0  0  0  0
 18 19  1  0  0  0  0
 19 25  1  0  0  0  0
 19  5  1  0  0  0  0
 20 15  2  0  0  0  0
 20 16  1  0  0  0  0
 21 13  1  0  0  0  0
 21  7  1  0  0  0  0
 23 28  1  0  0  0  0
 25 27  1  0  0  0  0
 27 21  1  0  0  0  0
 28 15  1  0  0  0  0
 29  4  1  0  0  0  0
 30 29  1  0  0  0  0
 30  4  1  0  0  0  0
 32 23  1  0  0  0  0
 32 31  2  0  0  0  0
 33 32  1  0  0  0  0
 34 36  1  0  0  0  0
 35 37  2  0  0  0  0
 36 33  2  0  0  0  0
 36 35  1  0  0  0  0
 37 31  1  0  0  0  0
M  END
>  <MODEL>
1

>  <REMARK>
 VINA RESULT:     -12.0      0.000      0.000
  Name = 
  1 active torsions:
  status: ('A' for Active; 'I' for Inactive)
    1  A    between atoms: C_23  and  C_30
                            x       y       z     vdW  Elec       q    Type
                         _______ _______ _______ _____ _____    ______ ____

>  <TORSDO>
F 1

$$$$
=
 OpenBabel11122411403D

 37 44  0  0  1  0  0  0  0  0999 V2000
  187.9630  177.5480  139.7930 C   0  0  0  0  0  2  0  0  0  0  0  0
  190.8780  177.8740  143.6500 C   0  0  0  0  0  0  0  0  0  0  0  0
  186.5350  177.3300  144.0360 C   0  0  1  0  0  3  0  0  0  0  0  0
  188.1180  177.8360  138.3030 C   0  0  1  0  0  0  0  0  0  0  0  0
  184.2140  178.2170  141.0540 C   0  0  0  0  0  2  0  0  0  0  0  0
  188.8330  177.5610  145.1170 C   0  0  1  0  0  3  0  0  0  0  0  0
  186.1440  177.9510  142.6870 C   0  0  1  0  0  3  0  0  0  0  0  0
  185.6610  177.4260  137.5780 C   0  0  2  0  0  3  0  0  0  0  0  0
  188.0500  177.0920  143.8960 C   0  0  2  0  0  3  0  0  0  0  0  0
  184.7900  178.6380  142.4190 C   0  0  2  0  0  3  0  0  0  0  0  0
  188.2580  176.9460  146.2990 N   0  0  0  0  0  2  0  0  0  0  0  0
  186.9490  178.2450  137.3950 C   0  0  0  0  0  2  0  0  0  0  0  0
  188.5390  177.7960  142.6210 C   0  0  2  0  0  3  0  0  0  0  0  0
  191.5090  176.7860  142.8030 C   0  0  0  0  0  1  0  0  0  0  0  0
  185.1510  178.8160  145.6230 C   0  0  0  0  0  3  0  0  0  0  0  0
  187.0150  177.6630  146.6060 C   0  0  0  0  0  2  0  0  0  0  0  0
  189.8190  178.6260  142.8160 C   0  0  0  0  0  2  0  0  0  0  0  0
  184.6780  178.0400  138.5800 C   0  0  0  0  0  2  0  0  0  0  0  0
  185.2790  178.1420  139.9710 C   0  0  1  0  0  3  0  0  0  0  0  0
  186.1820  177.9960  145.3800 C   0  0  0  0  0  0  0  0  0  0  0  0
  187.3790  178.6340  142.1060 C   0  0  1  0  0  3  0  0  0  0  0  0
  190.3100  177.2360  144.9370 C   0  0  0  0  0  2  0  0  0  0  0  0
  183.7860  178.4530  143.5600 C   0  0  1  0  0  3  0  0  0  0  0  0
  191.9610  178.8590  144.0420 C   0  0  0  0  0  1  0  0  0  0  0  0
  186.1610  179.2340  140.0450 O   0  0  0  0  0  0  0  0  0  0  0  0
  185.9240  176.0880  137.8780 O   0  0  0  0  0  1  0  0  0  0  0  0
  187.3900  178.7600  140.5610 C   0  0  2  0  0  3  0  0  0  0  0  0
  184.1880  179.4120  144.6540 C   0  0  0  0  0  2  0  0  0  0  0  0
  189.4310  178.2920  137.8800 C   0  0  0  0  0  2  0  0  0  0  0  0
  189.0280  176.8920  137.6460 N   0  0  0  0  0  2  0  0  0  0  0  0
  182.0750  179.1080  141.8560 C   0  0  0  0  0  3  0  0  0  0  0  0
  182.3590  178.7270  143.1700 C   0  0  0  0  0  0  0  0  0  0  0  0
  181.3110  178.6130  144.0950 C   0  0  0  0  0  3  0  0  0  0  0  0
  178.9320  178.7740  144.6150 N   0  0  0  0  0  1  0  0  0  0  0  0
  179.7550  179.2550  142.4010 N   0  0  0  0  0  0  0  0  0  0  0  0
  180.0040  178.8850  143.6860 C   0  0  0  0  0  0  0  0  0  0  0  0
  180.7550  179.3710  141.4870 C   0  0  0  0  0  3  0  0  0  0  0  0
  1 27  1  0  0  0  0
  2 24  1  0  0  0  0
  2 22  1  0  0  0  0
  3 20  1  1  0  0  0
  4 12  1  6  0  0  0
  4  1  1  0  0  0  0
  5 10  1  0  0  0  0
  6 22  1  6  0  0  0
  6 11  1  0  0  0  0
  7  3  1  0  0  0  0
  8 26  1  0  0  0  0
  8 18  1  0  0  0  0
  9  3  1  0  0  0  0
  9  6  1  0  0  0  0
 10  7  1  0  0  0  0
 10 23  1  0  0  0  0
 11 16  1  0  0  0  0
 12  8  1  0  0  0  0
 13 17  1  0  0  0  0
 13  9  1  0  0  0  0
 14  2  1  0  0  0  0
 17  2  1  0  0  0  0
 18 19  1  0  0  0  0
 19 25  1  0  0  0  0
 19  5  1  0  0  0  0
 20 15  2  0  0  0  0
 20 16  1  0  0  0  0
 21 13  1  0  0  0  0
 21  7  1  0  0  0  0
 23 28  1  0  0  0  0
 25 27  1  0  0  0  0
 27 21  1  0  0  0  0
 28 15  1  0  0  0  0
 29  4  1  0  0  0  0
 30 29  1  0  0  0  0
 30  4  1  0  0  0  0
 31 32  1  0  0  0  0
 32 23  1  0  0  0  0
 32 33  2  0  0  0  0
 35 36  2  0  0  0  0
 36 33  1  0  0  0  0
 36 34  1  0  0  0  0
 37 31  2  0  0  0  0
 37 35  1  0  0  0  0
M  END
>  <MODEL>
2

>  <REMARK>
 VINA RESULT:     -11.8      0.517      1.148
  Name = 
  1 active torsions:
  status: ('A' for Active; 'I' for Inactive)
    1  A    between atoms: C_23  and  C_30
                            x       y       z     vdW  Elec       q    Type
                         _______ _______ _______ _____ _____    ______ ____

>  <TORSDO>
F 1

$$$$
=
 OpenBabel11122411403D

 37 44  0  0  1  0  0  0  0  0999 V2000
  188.8050  176.9350  139.6610 C   0  0  0  0  0  2  0  0  0  0  0  0
  190.5420  177.6430  144.1300 C   0  0  0  0  0  0  0  0  0  0  0  0
  186.2320  177.4420  143.2970 C   0  0  1  0  0  3  0  0  0  0  0  0
  189.4000  176.9890  138.2580 C   0  0  1  0  0  0  0  0  0  0  0  0
  184.9450  178.0240  139.6820 C   0  0  0  0  0  2  0  0  0  0  0  0
  188.1470  177.6830  144.9630 C   0  0  1  0  0  3  0  0  0  0  0  0
  186.3010  177.8800  141.8270 C   0  0  1  0  0  3  0  0  0  0  0  0
  187.2150  176.6340  136.9050 C   0  0  2  0  0  3  0  0  0  0  0  0
  187.6920  177.0900  143.6350 C   0  0  2  0  0  3  0  0  0  0  0  0
  185.1560  178.6050  141.0920 C   0  0  2  0  0  3  0  0  0  0  0  0
  187.2040  177.2890  145.9930 N   0  0  0  0  0  2  0  0  0  0  0  0
  188.5800  177.3320  137.0050 C   0  0  0  0  0  2  0  0  0  0  0  0
  188.5890  177.5630  142.4810 C   0  0  2  0  0  3  0  0  0  0  0  0
  191.2680  176.4030  143.6450 C   0  0  0  0  0  1  0  0  0  0  0  0
  184.6220  179.2340  144.2140 C   0  0  0  0  0  3  0  0  0  0  0  0
  186.0070  178.1220  145.8330 C   0  0  0  0  0  2  0  0  0  0  0  0
  189.8430  178.3290  142.9370 C   0  0  0  0  0  2  0  0  0  0  0  0
  186.0610  177.4520  137.4920 C   0  0  0  0  0  2  0  0  0  0  0  0
  186.2550  177.7200  138.9740 C   0  0  1  0  0  3  0  0  0  0  0  0
  185.5890  178.3220  144.3860 C   0  0  0  0  0  0  0  0  0  0  0  0
  187.7140  178.3890  141.5510 C   0  0  1  0  0  3  0  0  0  0  0  0
  189.5730  177.2410  145.2630 C   0  0  0  0  0  2  0  0  0  0  0  0
  183.8590  178.6560  141.9050 C   0  0  1  0  0  3  0  0  0  0  0  0
  191.5680  178.6040  144.6950 C   0  0  0  0  0  1  0  0  0  0  0  0
  187.1910  178.7530  139.1670 O   0  0  0  0  0  0  0  0  0  0  0  0
  187.2420  175.3410  137.4320 O   0  0  0  0  0  1  0  0  0  0  0  0
  188.1690  178.2820  140.0730 C   0  0  2  0  0  3  0  0  0  0  0  0
  184.0370  179.7390  142.9400 C   0  0  0  0  0  2  0  0  0  0  0  0
  190.8190  177.2910  138.1830 C   0  0  0  0  0  2  0  0  0  0  0  0
  190.3530  175.9000  138.0170 N   0  0  0  0  0  2  0  0  0  0  0  0
  181.4240  178.3490  141.4190 C   0  0  0  0  0  3  0  0  0  0  0  0
  182.6350  178.9610  141.0850 C   0  0  0  0  0  0  0  0  0  0  0  0
  182.6830  179.8400  139.9920 C   0  0  0  0  0  3  0  0  0  0  0  0
  181.5580  180.9740  138.1480 N   0  0  0  0  0  1  0  0  0  0  0  0
  180.3560  179.4770  139.6040 N   0  0  0  0  0  0  0  0  0  0  0  0
  181.5220  180.0850  139.2590 C   0  0  0  0  0  0  0  0  0  0  0  0
  180.2840  178.6210  140.6600 C   0  0  0  0  0  3  0  0  0  0  0  0
  1 27  1  0  0  0  0
  2 24  1  0  0  0  0
  2 22  1  0  0  0  0
  3  9  1  0  0  0  0
  3 20  1  1  0  0  0
  4 12  1  6  0  0  0
  4  1  1  0  0  0  0
  5 10  1  0  0  0  0
  6 22  1  1  0  0  0
  6 11  1  0  0  0  0
  7  3  1  0  0  0  0
  8 12  1  0  0  0  0
  8 26  1  0  0  0  0
  8 18  1  0  0  0  0
  9  6  1  0  0  0  0
 10  7  1  0  0  0  0
 10 23  1  0  0  0  0
 13 17  1  0  0  0  0
 13  9  1  0  0  0  0
 14  2  1  0  0  0  0
 15 20  2  0  0  0  0
 16 11  1  0  0  0  0
 17  2  1  0  0  0  0
 18 19  1  0  0  0  0
 19 25  1  0  0  0  0
 19  5  1  0  0  0  0
 20 16  1  0  0  0  0
 21  7  1  0  0  0  0
 21 13  1  0  0  0  0
 23 28  1  0  0  0  0
 25 27  1  0  0  0  0
 27 21  1  0  0  0  0
 28 15  1  0  0  0  0
 29  4  1  0  0  0  0
 30 29  1  0  0  0  0
 30  4  1  0  0  0  0
 32 31  1  0  0  0  0
 32 23  1  0  0  0  0
 33 32  2  0  0  0  0
 34 36  1  0  0  0  0
 35 37  1  0  0  0  0
 36 35  2  0  0  0  0
 36 33  1  0  0  0  0
 37 31  2  0  0  0  0
M  END
>  <MODEL>
3

>  <REMARK>
 VINA RESULT:     -10.2      1.372      1.762
  Name = 
  1 active torsions:
  status: ('A' for Active; 'I' for Inactive)
    1  A    between atoms: C_23  and  C_30
                            x       y       z     vdW  Elec       q    Type
                         _______ _______ _______ _____ _____    ______ ____

>  <TORSDO>
F 1

$$$$
