=
 OpenBabel11122410333D

 30 35  0  0  1  0  0  0  0  0999 V2000
  189.2650  176.7100  143.3970 C   0  0  0  0  0  0  0  0  0  0  0  0
  191.2730  176.3280  144.7420 C   0  0  0  0  0  0  0  0  0  0  0  0
  187.1000  177.9040  146.8240 N   0  0  0  0  0  0  0  0  0  0  0  0
  187.8170  177.1390  143.2130 C   0  0  0  0  0  0  0  0  0  0  0  0
  189.9110  176.2270  142.1320 C   0  0  0  0  0  2  0  0  0  0  0  0
  188.2660  178.6160  139.8850 O   0  0  0  0  0  0  0  0  0  0  0  0
  185.1210  177.9400  142.4110 C   0  0  1  0  0  3  0  0  0  0  0  0
  188.5400  178.0200  140.9630 C   0  0  0  0  0  0  0  0  0  0  0  0
  184.9610  178.1520  143.8420 N   0  0  0  0  0  0  0  0  0  0  0  0
  185.9540  178.1570  146.2650 C   0  0  1  0  0  3  0  0  0  0  0  0
  189.6980  177.1630  141.0270 N   0  0  0  0  0  0  0  0  0  0  0  0
  187.7290  178.3030  142.2080 C   0  0  1  0  0  3  0  0  0  0  0  0
  191.9040  176.3430  145.9890 C   0  0  0  0  0  3  0  0  0  0  0  0
  183.6680  178.6550  144.1150 C   0  0  0  0  0  3  0  0  0  0  0  0
  183.7870  178.3990  141.8120 C   0  0  0  0  0  2  0  0  0  0  0  0
  192.0220  175.9430  143.6790 F   0  0  0  0  0  0  0  0  0  0  0  0
  187.9390  177.4800  145.7510 C   0  0  0  0  0  0  0  0  0  0  0  0
  191.2160  176.7360  147.1320 C   0  0  0  0  0  3  0  0  0  0  0  0
  189.9100  176.7150  144.6140 C   0  0  0  0  0  0  0  0  0  0  0  0
  187.2100  177.5040  144.5240 C   0  0  0  0  0  0  0  0  0  0  0  0
  184.7780  178.6380  147.0390 C   0  0  0  0  0  1  0  0  0  0  0  0
  185.9890  177.9100  144.8130 C   0  0  0  0  0  0  0  0  0  0  0  0
  182.9740  178.8040  143.0020 C   0  0  0  0  0  3  0  0  0  0  0  0
  186.1220  179.7870  141.3060 O   0  0  0  0  0  0  0  0  0  0  0  0
  189.8820  177.1190  147.0410 C   0  0  0  0  0  3  0  0  0  0  0  0
  189.2220  177.1160  145.8070 C   0  0  0  0  0  0  0  0  0  0  0  0
  186.3040  178.7320  141.8960 C   0  0  0  0  0  0  0  0  0  0  0  0
  190.6130  177.0950  139.8950 C   0  0  0  0  0  2  0  0  0  0  0  0
  193.0260  177.0250  139.2660 C   0  0  0  0  0  1  0  0  0  0  0  0
  192.0280  177.4470  140.3280 C   0  0  0  0  0  2  0  0  0  0  0  0
  1 19  1  0  0  0  0
  2 13  1  0  0  0  0
  4  1  2  0  0  0  0
  4 20  1  0  0  0  0
  5  1  1  0  0  0  0
  6  8  2  0  0  0  0
  7 15  1  6  0  0  0
  7  9  1  0  0  0  0
  8 11  1  0  0  0  0
  9 14  1  0  0  0  0
  9 22  1  0  0  0  0
 10  3  1  0  0  0  0
 10 21  1  6  0  0  0
 11  5  1  0  0  0  0
 12  8  1  6  0  0  0
 12  4  1  0  0  0  0
 13 18  2  0  0  0  0
 15 23  1  0  0  0  0
 16  2  1  0  0  0  0
 17 26  1  0  0  0  0
 17  3  2  0  0  0  0
 19  2  2  0  0  0  0
 19 26  1  0  0  0  0
 20 22  2  0  0  0  0
 20 17  1  0  0  0  0
 22 10  1  0  0  0  0
 23 14  2  0  0  0  0
 24 27  2  0  0  0  0
 25 18  1  0  0  0  0
 26 25  2  0  0  0  0
 27 12  1  0  0  0  0
 27  7  1  0  0  0  0
 28 30  1  0  0  0  0
 28 11  1  0  0  0  0
 29 30  1  0  0  0  0
M  END
>  <MODEL>
1

>  <REMARK>
 VINA RESULT:     -12.0      0.000      0.000
  Name = 
  2 active torsions:
  status: ('A' for Active; 'I' for Inactive)
    1  A    between atoms: N_11  and  C_28
    2  A    between atoms: C_28  and  C_30
                            x       y       z     vdW  Elec       q    Type
                         _______ _______ _______ _____ _____    ______ ____

>  <TORSDO>
F 2

$$$$
=
 OpenBabel11122410333D

 30 35  0  0  1  0  0  0  0  0999 V2000
  186.9550  177.5600  143.5920 C   0  0  0  0  0  0  0  0  0  0  0  0
  188.0870  177.6810  145.7580 C   0  0  0  0  0  0  0  0  0  0  0  0
  183.3670  179.0020  145.2970 N   0  0  0  0  0  0  0  0  0  0  0  0
  185.7560  177.7530  142.6750 C   0  0  0  0  0  0  0  0  0  0  0  0
  188.1470  176.9660  142.9010 C   0  0  0  0  0  2  0  0  0  0  0  0
  187.6840  178.7060  139.7030 O   0  0  0  0  0  0  0  0  0  0  0  0
  183.7440  178.0390  140.5730 C   0  0  1  0  0  3  0  0  0  0  0  0
  187.4330  178.3390  140.8850 C   0  0  0  0  0  0  0  0  0  0  0  0
  182.9090  178.4610  141.6870 N   0  0  0  0  0  0  0  0  0  0  0  0
  182.6200  179.0010  144.2330 C   0  0  0  0  0  0  0  0  0  0  0  0
  188.4510  177.6690  141.6540 N   0  0  0  0  0  0  0  0  0  0  0  0
  186.1130  178.7120  141.5230 C   0  0  1  0  0  3  0  0  0  0  0  0
  188.0430  177.9880  147.1210 C   0  0  0  0  0  3  0  0  0  0  0  0
  181.6250  178.8230  141.2200 C   0  0  0  0  0  3  0  0  0  0  0  0
  182.8430  178.2070  139.3440 C   0  0  0  0  0  2  0  0  0  0  0  0
  189.2690  177.2300  145.2680 F   0  0  0  0  0  0  0  0  0  0  0  0
  184.6340  178.5230  144.8480 C   0  0  1  0  0  3  0  0  0  0  0  0
  186.8750  178.4680  147.7060 C   0  0  0  0  0  3  0  0  0  0  0  0
  186.9380  177.8540  144.9370 C   0  0  0  0  0  0  0  0  0  0  0  0
  184.5810  178.2440  143.4490 C   0  0  0  0  0  0  0  0  0  0  0  0
  181.1980  179.4400  144.2580 C   0  0  0  0  0  1  0  0  0  0  0  0
  183.3560  178.5240  143.0490 C   0  0  0  0  0  0  0  0  0  0  0  0
  181.5440  178.6910  139.9100 C   0  0  0  0  0  3  0  0  0  0  0  0
  185.0770  179.7950  139.6940 O   0  0  0  0  0  0  0  0  0  0  0  0
  185.7340  178.6470  146.9320 C   0  0  0  0  0  3  0  0  0  0  0  0
  185.7460  178.3500  145.5650 C   0  0  0  0  0  0  0  0  0  0  0  0
  184.9960  178.8870  140.5080 C   0  0  0  0  0  0  0  0  0  0  0  0
  189.7990  177.5390  141.1140 C   0  0  0  0  0  2  0  0  0  0  0  0
  191.5110  177.9440  142.8820 C   0  0  0  0  0  1  0  0  0  0  0  0
  190.7230  176.8880  142.1320 C   0  0  0  0  0  2  0  0  0  0  0  0
  1 19  1  0  0  0  0
  2 13  1  0  0  0  0
  4 20  1  0  0  0  0
  4  1  2  0  0  0  0
  5  1  1  0  0  0  0
  6  8  2  0  0  0  0
  7 15  1  6  0  0  0
  7  9  1  0  0  0  0
  8 12  1  0  0  0  0
  8 11  1  0  0  0  0
  9 22  1  0  0  0  0
 10 21  1  0  0  0  0
 10  3  2  0  0  0  0
 11  5  1  0  0  0  0
 12 27  1  6  0  0  0
 12  4  1  0  0  0  0
 13 18  2  0  0  0  0
 14  9  1  0  0  0  0
 15 23  1  0  0  0  0
 16  2  1  0  0  0  0
 17 20  1  6  0  0  0
 17  3  1  0  0  0  0
 17 26  1  0  0  0  0
 19 26  1  0  0  0  0
 19  2  2  0  0  0  0
 22 20  2  0  0  0  0
 22 10  1  0  0  0  0
 23 14  2  0  0  0  0
 24 27  2  0  0  0  0
 25 18  1  0  0  0  0
 26 25  2  0  0  0  0
 27  7  1  0  0  0  0
 28 11  1  0  0  0  0
 28 30  1  0  0  0  0
 30 29  1  0  0  0  0
M  END
>  <MODEL>
2

>  <REMARK>
 VINA RESULT:     -11.2      1.967      3.135
  Name = 
  2 active torsions:
  status: ('A' for Active; 'I' for Inactive)
    1  A    between atoms: N_11  and  C_28
    2  A    between atoms: C_28  and  C_30
                            x       y       z     vdW  Elec       q    Type
                         _______ _______ _______ _____ _____    ______ ____

>  <TORSDO>
F 2

$$$$
=
 OpenBabel11122410333D

 30 35  0  0  1  0  0  0  0  0999 V2000
  187.2680  178.3500  142.1960 C   0  0  0  0  0  0  0  0  0  0  0  0
  184.9550  178.8030  141.5370 C   0  0  0  0  0  0  0  0  0  0  0  0
  186.0970  177.7960  146.2190 N   0  0  0  0  0  0  0  0  0  0  0  0
  188.3440  177.9860  143.2090 C   0  0  2  0  0  3  0  0  0  0  0  0
  187.8060  178.6050  140.8190 C   0  0  0  0  0  2  0  0  0  0  0  0
  190.4070  176.0180  140.9000 O   0  0  0  0  0  0  0  0  0  0  0  0
  190.6850  177.2390  144.7940 C   0  0  1  0  0  3  0  0  0  0  0  0
  189.4650  176.7470  141.3200 C   0  0  0  0  0  0  0  0  0  0  0  0
  189.7180  177.2460  145.8820 N   0  0  0  0  0  0  0  0  0  0  0  0
  187.2600  177.5330  146.7370 C   0  0  0  0  0  0  0  0  0  0  0  0
  188.7020  177.5330  140.3840 N   0  0  0  0  0  0  0  0  0  0  0  0
  189.0670  176.6950  142.7790 C   0  0  1  0  0  3  0  0  0  0  0  0
  183.6090  178.9300  141.8900 C   0  0  0  0  0  3  0  0  0  0  0  0
  190.3470  176.8660  147.0900 C   0  0  0  0  0  3  0  0  0  0  0  0
  191.9900  176.7780  145.4540 C   0  0  0  0  0  2  0  0  0  0  0  0
  185.2680  178.9840  140.2300 F   0  0  0  0  0  0  0  0  0  0  0  0
  186.3590  178.0090  144.8330 C   0  0  0  0  0  0  0  0  0  0  0  0
  183.1970  178.7490  143.2060 C   0  0  0  0  0  3  0  0  0  0  0  0
  185.9360  178.4820  142.5170 C   0  0  0  0  0  0  0  0  0  0  0  0
  187.7540  177.8520  144.5710 C   0  0  0  0  0  0  0  0  0  0  0  0
  187.4400  177.2400  148.1840 C   0  0  0  0  0  1  0  0  0  0  0  0
  188.3290  177.5650  145.7230 C   0  0  0  0  0  0  0  0  0  0  0  0
  191.6240  176.5980  146.8950 C   0  0  0  0  0  3  0  0  0  0  0  0
  190.7070  175.1950  143.5870 O   0  0  0  0  0  0  0  0  0  0  0  0
  184.1300  178.4370  144.1890 C   0  0  0  0  0  3  0  0  0  0  0  0
  185.4850  178.3010  143.8680 C   0  0  0  0  0  0  0  0  0  0  0  0
  190.2210  176.3110  143.6910 C   0  0  0  0  0  0  0  0  0  0  0  0
  188.9330  177.3820  138.9530 C   0  0  0  0  0  2  0  0  0  0  0  0
  188.7450  178.6580  136.8180 C   0  0  0  0  0  1  0  0  0  0  0  0
  189.0990  178.7410  138.2900 C   0  0  0  0  0  2  0  0  0  0  0  0
  1 19  2  0  0  0  0
  2 13  2  0  0  0  0
  2 19  1  0  0  0  0
  3 10  2  0  0  0  0
  4  1  1  6  0  0  0
  4 20  1  0  0  0  0
  5  1  1  0  0  0  0
  6  8  2  0  0  0  0
  7 15  1  1  0  0  0
  7  9  1  0  0  0  0
  9 14  1  0  0  0  0
 10 21  1  0  0  0  0
 11  5  1  0  0  0  0
 11  8  1  0  0  0  0
 12  8  1  6  0  0  0
 12  4  1  0  0  0  0
 12 27  1  0  0  0  0
 13 18  1  0  0  0  0
 15 23  1  0  0  0  0
 16  2  1  0  0  0  0
 17  3  1  0  0  0  0
 18 25  2  0  0  0  0
 19 26  1  0  0  0  0
 20 17  1  0  0  0  0
 20 22  2  0  0  0  0
 22  9  1  0  0  0  0
 22 10  1  0  0  0  0
 23 14  2  0  0  0  0
 24 27  2  0  0  0  0
 26 25  1  0  0  0  0
 26 17  2  0  0  0  0
 27  7  1  0  0  0  0
 28 11  1  0  0  0  0
 29 30  1  0  0  0  0
 30 28  1  0  0  0  0
M  END
>  <MODEL>
3

>  <REMARK>
 VINA RESULT:     -10.7      2.386      5.378
  Name = 
  2 active torsions:
  status: ('A' for Active; 'I' for Inactive)
    1  A    between atoms: N_11  and  C_28
    2  A    between atoms: C_28  and  C_30
                            x       y       z     vdW  Elec       q    Type
                         _______ _______ _______ _____ _____    ______ ____

>  <TORSDO>
F 2

$$$$
=
 OpenBabel11122410333D

 30 35  0  0  1  0  0  0  0  0999 V2000
  187.4250  177.5140  144.6530 C   0  0  0  0  0  0  0  0  0  0  0  0
  185.3060  178.2410  145.6370 C   0  0  0  0  0  0  0  0  0  0  0  0
  186.1510  178.7330  140.8120 N   0  0  0  0  0  0  0  0  0  0  0  0
  188.3910  177.3360  143.4910 C   0  0  0  0  0  0  0  0  0  0  0  0
  187.9460  176.9720  145.9510 C   0  0  0  0  0  2  0  0  0  0  0  0
  191.4490  177.9300  145.4290 O   0  0  0  0  0  0  0  0  0  0  0  0
  190.5560  176.8870  141.5770 C   0  0  1  0  0  3  0  0  0  0  0  0
  190.2230  177.7810  145.1660 C   0  0  0  0  0  0  0  0  0  0  0  0
  189.5760  177.4020  140.6330 N   0  0  0  0  0  0  0  0  0  0  0  0
  187.2090  178.4050  140.1320 C   0  0  0  0  0  0  0  0  0  0  0  0
  189.3050  177.4400  146.2240 N   0  0  0  0  0  0  0  0  0  0  0  0
  189.7100  178.0810  143.7750 C   0  0  1  0  0  3  0  0  0  0  0  0
  184.0400  178.8110  145.4760 C   0  0  0  0  0  3  0  0  0  0  0  0
  190.1410  177.4680  139.3380 C   0  0  0  0  0  3  0  0  0  0  0  0
  191.8140  176.6650  140.7300 C   0  0  0  0  0  2  0  0  0  0  0  0
  185.6610  177.8780  146.8950 F   0  0  0  0  0  0  0  0  0  0  0  0
  186.4580  178.3640  142.1560 C   0  0  1  0  0  3  0  0  0  0  0  0
  183.5990  179.2250  144.2240 C   0  0  0  0  0  3  0  0  0  0  0  0
  186.1730  178.0720  144.5220 C   0  0  0  0  0  0  0  0  0  0  0  0
  187.7680  177.7990  142.2190 C   0  0  0  0  0  0  0  0  0  0  0  0
  187.3140  178.6270  138.6640 C   0  0  0  0  0  1  0  0  0  0  0  0
  188.2480  177.8080  140.9910 C   0  0  0  0  0  0  0  0  0  0  0  0
  191.3950  177.0590  139.3470 C   0  0  0  0  0  3  0  0  0  0  0  0
  191.7520  178.6010  142.7010 O   0  0  0  0  0  0  0  0  0  0  0  0
  184.4210  179.0720  143.1130 C   0  0  0  0  0  3  0  0  0  0  0  0
  185.6940  178.5060  143.2410 C   0  0  0  0  0  0  0  0  0  0  0  0
  190.7670  177.8780  142.7020 C   0  0  0  0  0  0  0  0  0  0  0  0
  189.7710  177.4010  147.6040 C   0  0  0  0  0  2  0  0  0  0  0  0
  187.9300  177.8780  149.2180 C   0  0  0  0  0  1  0  0  0  0  0  0
  189.0830  178.4740  148.4340 C   0  0  0  0  0  2  0  0  0  0  0  0
  1  5  1  0  0  0  0
  2 16  1  0  0  0  0
  4 12  1  0  0  0  0
  4  1  2  0  0  0  0
  5 11  1  0  0  0  0
  7 15  1  6  0  0  0
  7 27  1  0  0  0  0
  8  6  2  0  0  0  0
  8 11  1  0  0  0  0
  9 22  1  0  0  0  0
  9  7  1  0  0  0  0
 10  3  2  0  0  0  0
 10 22  1  0  0  0  0
 11 28  1  0  0  0  0
 12 27  1  6  0  0  0
 12  8  1  0  0  0  0
 13  2  1  0  0  0  0
 14 23  2  0  0  0  0
 14  9  1  0  0  0  0
 17  3  1  1  0  0  0
 17 20  1  0  0  0  0
 17 26  1  0  0  0  0
 18 13  2  0  0  0  0
 19  1  1  0  0  0  0
 19  2  2  0  0  0  0
 20  4  1  0  0  0  0
 21 10  1  0  0  0  0
 22 20  2  0  0  0  0
 23 15  1  0  0  0  0
 24 27  2  0  0  0  0
 25 26  2  0  0  0  0
 25 18  1  0  0  0  0
 26 19  1  0  0  0  0
 28 30  1  0  0  0  0
 30 29  1  0  0  0  0
M  END
>  <MODEL>
4

>  <REMARK>
 VINA RESULT:     -10.0      2.417      6.430
  Name = 
  2 active torsions:
  status: ('A' for Active; 'I' for Inactive)
    1  A    between atoms: N_11  and  C_28
    2  A    between atoms: C_28  and  C_30
                            x       y       z     vdW  Elec       q    Type
                         _______ _______ _______ _____ _____    ______ ____

>  <TORSDO>
F 2

$$$$
=
 OpenBabel11122410333D

 30 35  0  0  1  0  0  0  0  0999 V2000
  187.9470  177.3320  143.5220 C   0  0  0  0  0  0  0  0  0  0  0  0
  186.0210  178.1820  144.7690 C   0  0  0  0  0  0  0  0  0  0  0  0
  186.2630  178.6410  139.8740 N   0  0  0  0  0  0  0  0  0  0  0  0
  188.7420  177.1020  142.2450 C   0  0  0  0  0  0  0  0  0  0  0  0
  188.5980  176.7550  144.7440 C   0  0  0  0  0  2  0  0  0  0  0  0
  192.0550  177.5030  143.7690 O   0  0  0  0  0  0  0  0  0  0  0  0
  190.6100  176.5310  140.0690 C   0  0  1  0  0  3  0  0  0  0  0  0
  190.7990  177.4290  143.6680 C   0  0  0  0  0  0  0  0  0  0  0  0
  189.5490  177.1080  139.2570 N   0  0  0  0  0  0  0  0  0  0  0  0
  187.2020  178.2530  139.0630 C   0  0  0  0  0  0  0  0  0  0  0  0
  190.0070  177.1400  144.8370 N   0  0  0  0  0  0  0  0  0  0  0  0
  190.1300  177.7650  142.3530 C   0  0  1  0  0  3  0  0  0  0  0  0
  184.7810  178.8280  144.7710 C   0  0  0  0  0  3  0  0  0  0  0  0
  189.9440  177.1450  137.9000 C   0  0  0  0  0  3  0  0  0  0  0  0
  191.7330  176.2380  139.0670 C   0  0  0  0  0  2  0  0  0  0  0  0
  186.5130  177.7930  145.9710 F   0  0  0  0  0  0  0  0  0  0  0  0
  186.7180  178.2490  141.1670 C   0  0  1  0  0  3  0  0  0  0  0  0
  184.2070  179.2720  143.5840 C   0  0  0  0  0  3  0  0  0  0  0  0
  186.7240  177.9650  143.5510 C   0  0  0  0  0  0  0  0  0  0  0  0
  187.9890  177.6060  141.0620 C   0  0  0  0  0  0  0  0  0  0  0  0
  187.1290  178.4740  137.5930 C   0  0  0  0  0  1  0  0  0  0  0  0
  188.3050  177.5910  139.7820 C   0  0  0  0  0  0  0  0  0  0  0  0
  191.1630  176.6620  137.7490 C   0  0  0  0  0  3  0  0  0  0  0  0
  192.0430  178.1660  141.0220 O   0  0  0  0  0  0  0  0  0  0  0  0
  184.8680  179.0740  142.3770 C   0  0  0  0  0  3  0  0  0  0  0  0
  186.1100  178.4320  142.3410 C   0  0  0  0  0  0  0  0  0  0  0  0
  191.0240  177.5030  141.1530 C   0  0  0  0  0  0  0  0  0  0  0  0
  190.6450  177.0670  146.1450 C   0  0  0  0  0  2  0  0  0  0  0  0
  189.3710  177.9740  148.0880 C   0  0  0  0  0  1  0  0  0  0  0  0
  189.6200  176.7530  147.2240 C   0  0  0  0  0  2  0  0  0  0  0  0
  1 19  1  0  0  0  0
  1  5  1  0  0  0  0
  2 13  1  0  0  0  0
  2 16  1  0  0  0  0
  4 12  1  0  0  0  0
  4  1  2  0  0  0  0
  5 11  1  0  0  0  0
  7 15  1  6  0  0  0
  7 27  1  0  0  0  0
  8  6  2  0  0  0  0
  8 11  1  0  0  0  0
  9 22  1  0  0  0  0
  9  7  1  0  0  0  0
 10 22  1  0  0  0  0
 10  3  2  0  0  0  0
 11 28  1  0  0  0  0
 12 27  1  6  0  0  0
 12  8  1  0  0  0  0
 14  9  1  0  0  0  0
 17  3  1  1  0  0  0
 17 26  1  0  0  0  0
 18 13  2  0  0  0  0
 19  2  2  0  0  0  0
 20 17  1  0  0  0  0
 20  4  1  0  0  0  0
 21 10  1  0  0  0  0
 22 20  2  0  0  0  0
 23 14  2  0  0  0  0
 23 15  1  0  0  0  0
 24 27  2  0  0  0  0
 25 18  1  0  0  0  0
 26 25  2  0  0  0  0
 26 19  1  0  0  0  0
 28 30  1  0  0  0  0
 30 29  1  0  0  0  0
M  END
>  <MODEL>
5

>  <REMARK>
 VINA RESULT:      -9.9      2.385      6.344
  Name = 
  2 active torsions:
  status: ('A' for Active; 'I' for Inactive)
    1  A    between atoms: N_11  and  C_28
    2  A    between atoms: C_28  and  C_30
                            x       y       z     vdW  Elec       q    Type
                         _______ _______ _______ _____ _____    ______ ____

>  <TORSDO>
F 2

$$$$
=
 OpenBabel11122410333D

 30 35  0  0  1  0  0  0  0  0999 V2000
  187.5780  177.3130  143.1860 C   0  0  0  0  0  0  0  0  0  0  0  0
  186.7190  177.7610  145.4340 C   0  0  0  0  0  0  0  0  0  0  0  0
  184.3080  179.3490  141.4460 N   0  0  0  0  0  0  0  0  0  0  0  0
  187.5300  177.4210  141.6690 C   0  0  0  0  0  0  0  0  0  0  0  0
  188.7330  176.5000  143.6920 C   0  0  0  0  0  2  0  0  0  0  0  0
  191.1600  177.6140  141.1750 O   0  0  0  0  0  0  0  0  0  0  0  0
  187.8600  177.4550  138.7640 C   0  0  1  0  0  3  0  0  0  0  0  0
  190.0480  177.5070  141.7640 C   0  0  0  0  0  0  0  0  0  0  0  0
  186.5840  178.1540  138.8150 N   0  0  0  0  0  0  0  0  0  0  0  0
  184.6190  179.2020  140.1920 C   0  0  0  0  0  0  0  0  0  0  0  0
  189.9950  176.9190  143.0790 N   0  0  0  0  0  0  0  0  0  0  0  0
  188.8060  178.1050  141.1420 C   0  0  1  0  0  3  0  0  0  0  0  0
  185.7420  178.3300  146.2550 C   0  0  0  0  0  3  0  0  0  0  0  0
  186.1820  178.5220  137.5100 C   0  0  0  0  0  3  0  0  0  0  0  0
  188.2290  177.4540  137.2760 C   0  0  0  0  0  2  0  0  0  0  0  0
  187.7480  177.1280  146.0510 F   0  0  0  0  0  0  0  0  0  0  0  0
  185.3560  178.6900  142.1570 C   0  0  1  0  0  3  0  0  0  0  0  0
  184.6580  179.0090  145.7070 C   0  0  0  0  0  3  0  0  0  0  0  0
  186.6280  177.8640  144.0180 C   0  0  0  0  0  0  0  0  0  0  0  0
  186.3030  178.1490  141.2360 C   0  0  0  0  0  0  0  0  0  0  0  0
  183.7810  179.7530  139.0940 C   0  0  0  0  0  1  0  0  0  0  0  0
  185.8730  178.4450  140.0260 C   0  0  0  0  0  0  0  0  0  0  0  0
  187.0750  178.1440  136.6160 C   0  0  0  0  0  3  0  0  0  0  0  0
  189.7190  178.8910  139.1070 O   0  0  0  0  0  0  0  0  0  0  0  0
  184.5380  179.1270  144.3270 C   0  0  0  0  0  3  0  0  0  0  0  0
  185.5000  178.5690  143.4780 C   0  0  0  0  0  0  0  0  0  0  0  0
  188.8800  178.1690  139.6260 C   0  0  0  0  0  0  0  0  0  0  0  0
  191.2300  176.5760  143.7710 C   0  0  0  0  0  2  0  0  0  0  0  0
  191.6800  176.3780  146.2170 C   0  0  0  0  0  1  0  0  0  0  0  0
  191.3350  177.3300  145.0880 C   0  0  0  0  0  2  0  0  0  0  0  0
  1  5  1  0  0  0  0
  1 19  1  0  0  0  0
  2 16  1  0  0  0  0
  2 13  1  0  0  0  0
  3 17  1  0  0  0  0
  4  1  2  0  0  0  0
  6  8  2  0  0  0  0
  7 15  1  6  0  0  0
  7  9  1  0  0  0  0
  7 27  1  0  0  0  0
  8 11  1  0  0  0  0
  9 22  1  0  0  0  0
 10  3  2  0  0  0  0
 11  5  1  0  0  0  0
 11 28  1  0  0  0  0
 12 27  1  6  0  0  0
 12  4  1  0  0  0  0
 12  8  1  0  0  0  0
 14  9  1  0  0  0  0
 17 20  1  1  0  0  0
 17 26  1  0  0  0  0
 18 13  2  0  0  0  0
 19  2  2  0  0  0  0
 20  4  1  0  0  0  0
 21 10  1  0  0  0  0
 22 10  1  0  0  0  0
 22 20  2  0  0  0  0
 23 15  1  0  0  0  0
 23 14  2  0  0  0  0
 24 27  2  0  0  0  0
 25 18  1  0  0  0  0
 26 19  1  0  0  0  0
 26 25  2  0  0  0  0
 28 30  1  0  0  0  0
 30 29  1  0  0  0  0
M  END
>  <MODEL>
6

>  <REMARK>
 VINA RESULT:      -9.7      2.282      5.045
  Name = 
  2 active torsions:
  status: ('A' for Active; 'I' for Inactive)
    1  A    between atoms: N_11  and  C_28
    2  A    between atoms: C_28  and  C_30
                            x       y       z     vdW  Elec       q    Type
                         _______ _______ _______ _____ _____    ______ ____

>  <TORSDO>
F 2

$$$$
=
 OpenBabel11122410333D

 30 35  0  0  1  0  0  0  0  0999 V2000
  187.1560  178.4810  140.7790 C   0  0  0  0  0  0  0  0  0  0  0  0
  185.1360  178.7770  139.4290 C   0  0  0  0  0  0  0  0  0  0  0  0
  184.8550  178.2550  144.3160 N   0  0  0  0  0  0  0  0  0  0  0  0
  187.8880  178.2570  142.0940 C   0  0  2  0  0  3  0  0  0  0  0  0
  188.0730  178.6290  139.6010 C   0  0  0  0  0  2  0  0  0  0  0  0
  190.5640  176.1680  140.7000 O   0  0  0  0  0  0  0  0  0  0  0  0
  189.6650  177.7550  144.3610 C   0  0  1  0  0  3  0  0  0  0  0  0
  189.5320  176.8940  140.7510 C   0  0  0  0  0  0  0  0  0  0  0  0
  188.4200  177.8240  145.1120 N   0  0  0  0  0  0  0  0  0  0  0  0
  185.8160  178.0890  145.1760 C   0  0  0  0  0  0  0  0  0  0  0  0
  189.0710  177.5590  139.5570 N   0  0  0  0  0  0  0  0  0  0  0  0
  188.7210  176.9620  142.0260 C   0  0  1  0  0  3  0  0  0  0  0  0
  183.7450  178.8820  139.3570 C   0  0  0  0  0  3  0  0  0  0  0  0
  188.6680  177.5830  146.4830 C   0  0  0  0  0  3  0  0  0  0  0  0
  190.7220  177.4110  145.4170 C   0  0  0  0  0  2  0  0  0  0  0  0
  185.8190  178.8480  138.2590 F   0  0  0  0  0  0  0  0  0  0  0  0
  185.5120  178.3500  143.0540 C   0  0  0  0  0  0  0  0  0  0  0  0
  182.9640  178.8060  140.5060 C   0  0  0  0  0  3  0  0  0  0  0  0
  185.7860  178.5890  140.6800 C   0  0  0  0  0  0  0  0  0  0  0  0
  186.9240  178.2250  143.2290 C   0  0  0  0  0  0  0  0  0  0  0  0
  185.5640  177.9390  146.6340 C   0  0  0  0  0  1  0  0  0  0  0  0
  187.1360  178.0700  144.5210 C   0  0  0  0  0  0  0  0  0  0  0  0
  189.9490  177.3510  146.6980 C   0  0  0  0  0  3  0  0  0  0  0  0
  190.0670  175.6110  143.4250 O   0  0  0  0  0  0  0  0  0  0  0  0
  183.5680  178.6250  141.7450 C   0  0  0  0  0  3  0  0  0  0  0  0
  184.9590  178.5150  141.8500 C   0  0  0  0  0  0  0  0  0  0  0  0
  189.5580  176.7110  143.2700 C   0  0  0  0  0  0  0  0  0  0  0  0
  189.7160  177.2850  138.2800 C   0  0  0  0  0  2  0  0  0  0  0  0
  188.6340  176.0400  136.4080 C   0  0  0  0  0  1  0  0  0  0  0  0
  188.7080  177.3650  137.1430 C   0  0  0  0  0  2  0  0  0  0  0  0
  2 19  1  0  0  0  0
  3 10  2  0  0  0  0
  4  1  1  6  0  0  0
  4 20  1  0  0  0  0
  5  1  1  0  0  0  0
  6  8  2  0  0  0  0
  7  9  1  0  0  0  0
  7 15  1  1  0  0  0
  9 14  1  0  0  0  0
 10 21  1  0  0  0  0
 11  5  1  0  0  0  0
 11  8  1  0  0  0  0
 12  8  1  6  0  0  0
 12  4  1  0  0  0  0
 12 27  1  0  0  0  0
 13  2  2  0  0  0  0
 13 18  1  0  0  0  0
 14 23  2  0  0  0  0
 15 23  1  0  0  0  0
 16  2  1  0  0  0  0
 17 20  1  0  0  0  0
 17  3  1  0  0  0  0
 18 25  2  0  0  0  0
 19  1  2  0  0  0  0
 19 26  1  0  0  0  0
 20 22  2  0  0  0  0
 22  9  1  0  0  0  0
 22 10  1  0  0  0  0
 25 26  1  0  0  0  0
 26 17  2  0  0  0  0
 27 24  2  0  0  0  0
 27  7  1  0  0  0  0
 28 11  1  0  0  0  0
 29 30  1  0  0  0  0
 30 28  1  0  0  0  0
M  END
>  <MODEL>
7

>  <REMARK>
 VINA RESULT:      -9.3      2.499      5.510
  Name = 
  2 active torsions:
  status: ('A' for Active; 'I' for Inactive)
    1  A    between atoms: N_11  and  C_28
    2  A    between atoms: C_28  and  C_30
                            x       y       z     vdW  Elec       q    Type
                         _______ _______ _______ _____ _____    ______ ____

>  <TORSDO>
F 2

$$$$
=
 OpenBabel11122410333D

 30 35  0  0  1  0  0  0  0  0999 V2000
  189.5350  178.1630  143.4580 C   0  0  0  0  0  0  0  0  0  0  0  0
  191.4570  177.5340  142.0790 C   0  0  0  0  0  0  0  0  0  0  0  0
  187.0130  178.2010  140.0670 N   0  0  0  0  0  0  0  0  0  0  0  0
  188.0640  178.4900  143.6660 C   0  0  2  0  0  3  0  0  0  0  0  0
  190.3530  178.2600  144.7120 C   0  0  0  0  0  2  0  0  0  0  0  0
  187.7880  176.9510  146.9850 O   0  0  0  0  0  0  0  0  0  0  0  0
  185.3310  179.0910  144.5140 C   0  0  1  0  0  3  0  0  0  0  0  0
  188.3020  177.3480  145.9030 C   0  0  0  0  0  0  0  0  0  0  0  0
  185.0670  178.9960  143.0860 N   0  0  0  0  0  0  0  0  0  0  0  0
  185.8970  178.5320  140.6460 C   0  0  0  0  0  0  0  0  0  0  0  0
  189.7280  177.5350  145.8190 N   0  0  0  0  0  0  0  0  0  0  0  0
  187.4360  177.5050  144.6720 C   0  0  1  0  0  3  0  0  0  0  0  0
  191.9830  177.2250  140.8210 C   0  0  0  0  0  3  0  0  0  0  0  0
  183.6880  179.1870  142.8350 C   0  0  0  0  0  3  0  0  0  0  0  0
  183.9510  179.3320  145.1350 C   0  0  0  0  0  2  0  0  0  0  0  0
  192.3140  177.4970  143.1290 F   0  0  0  0  0  0  0  0  0  0  0  0
  187.9680  178.1550  141.1260 C   0  0  0  0  0  0  0  0  0  0  0  0
  191.1730  177.2260  139.6900 C   0  0  0  0  0  3  0  0  0  0  0  0
  190.0790  177.8560  142.2300 C   0  0  0  0  0  0  0  0  0  0  0  0
  187.3370  178.4770  142.3650 C   0  0  0  0  0  0  0  0  0  0  0  0
  184.6240  178.6890  139.8910 C   0  0  0  0  0  1  0  0  0  0  0  0
  186.0690  178.7170  142.0980 C   0  0  0  0  0  0  0  0  0  0  0  0
  183.0260  179.3830  143.9590 C   0  0  0  0  0  3  0  0  0  0  0  0
  185.3250  176.9800  145.6000 O   0  0  0  0  0  0  0  0  0  0  0  0
  189.8230  177.5390  139.8030 C   0  0  0  0  0  3  0  0  0  0  0  0
  189.2660  177.8510  141.0480 C   0  0  0  0  0  0  0  0  0  0  0  0
  185.9880  177.8190  145.0070 C   0  0  0  0  0  0  0  0  0  0  0  0
  190.5780  177.1400  146.9360 C   0  0  0  0  0  2  0  0  0  0  0  0
  192.4280  175.6010  147.5920 C   0  0  0  0  0  1  0  0  0  0  0  0
  191.7770  176.3450  146.4420 C   0  0  0  0  0  2  0  0  0  0  0  0
  1  4  1  0  0  0  0
  1  5  1  0  0  0  0
  2 19  1  0  0  0  0
  2 16  1  0  0  0  0
  3 10  2  0  0  0  0
  3 17  1  0  0  0  0
  4 20  1  6  0  0  0
  4 12  1  0  0  0  0
  5 11  1  0  0  0  0
  7 27  1  0  0  0  0
  7 15  1  1  0  0  0
  8  6  2  0  0  0  0
  9  7  1  0  0  0  0
 10 22  1  0  0  0  0
 11  8  1  0  0  0  0
 11 28  1  0  0  0  0
 12 27  1  1  0  0  0
 12  8  1  0  0  0  0
 13  2  2  0  0  0  0
 14  9  1  0  0  0  0
 14 23  2  0  0  0  0
 17 20  1  0  0  0  0
 18 25  2  0  0  0  0
 18 13  1  0  0  0  0
 19  1  2  0  0  0  0
 21 10  1  0  0  0  0
 22 20  2  0  0  0  0
 22  9  1  0  0  0  0
 23 15  1  0  0  0  0
 25 26  1  0  0  0  0
 26 17  2  0  0  0  0
 26 19  1  0  0  0  0
 27 24  2  0  0  0  0
 30 28  1  0  0  0  0
 30 29  1  0  0  0  0
M  END
>  <MODEL>
8

>  <REMARK>
 VINA RESULT:      -9.1      2.032      4.777
  Name = 
  2 active torsions:
  status: ('A' for Active; 'I' for Inactive)
    1  A    between atoms: N_11  and  C_28
    2  A    between atoms: C_28  and  C_30
                            x       y       z     vdW  Elec       q    Type
                         _______ _______ _______ _____ _____    ______ ____

>  <TORSDO>
F 2

$$$$
=
 OpenBabel11122410333D

 30 35  0  0  1  0  0  0  0  0999 V2000
  184.1500  178.8840  143.0840 C   0  0  0  0  0  0  0  0  0  0  0  0
  184.3450  178.6490  145.5120 C   0  0  0  0  0  0  0  0  0  0  0  0
  188.1860  177.7410  142.5700 N   0  0  0  0  0  0  0  0  0  0  0  0
  184.6930  178.8030  141.6650 C   0  0  0  0  0  0  0  0  0  0  0  0
  182.7360  179.3800  143.1560 C   0  0  0  0  0  2  0  0  0  0  0  0
  181.5560  177.7130  140.1070 O   0  0  0  0  0  0  0  0  0  0  0  0
  185.3040  178.7080  138.8070 C   0  0  1  0  0  3  0  0  0  0  0  0
  182.3680  178.0910  140.9970 C   0  0  0  0  0  0  0  0  0  0  0  0
  186.6280  178.3490  139.2930 N   0  0  0  0  0  0  0  0  0  0  0  0
  188.2560  177.8140  141.2740 C   0  0  0  0  0  0  0  0  0  0  0  0
  181.8670  178.6640  142.2200 N   0  0  0  0  0  0  0  0  0  0  0  0
  183.8470  177.8260  140.8260 C   0  0  1  0  0  3  0  0  0  0  0  0
  185.1230  178.3360  146.6300 C   0  0  0  0  0  3  0  0  0  0  0  0
  187.4930  178.1020  138.2020 C   0  0  0  0  0  3  0  0  0  0  0  0
  185.4290  178.6270  137.2820 C   0  0  0  0  0  2  0  0  0  0  0  0
  183.0550  179.0010  145.7410 F   0  0  0  0  0  0  0  0  0  0  0  0
  186.8440  178.1130  142.8800 C   0  0  1  0  0  3  0  0  0  0  0  0
  186.4530  177.9520  146.4870 C   0  0  0  0  0  3  0  0  0  0  0  0
  184.8950  178.5820  144.2020 C   0  0  0  0  0  0  0  0  0  0  0  0
  186.1300  178.4070  141.6790 C   0  0  0  0  0  0  0  0  0  0  0  0
  189.5010  177.4980  140.5240 C   0  0  0  0  0  1  0  0  0  0  0  0
  186.9740  178.2360  140.6800 C   0  0  0  0  0  0  0  0  0  0  0  0
  186.8610  178.2520  137.0540 C   0  0  0  0  0  3  0  0  0  0  0  0
  183.8310  176.8510  138.6710 O   0  0  0  0  0  0  0  0  0  0  0  0
  187.0220  177.8780  145.2210 C   0  0  0  0  0  3  0  0  0  0  0  0
  186.2690  178.1840  144.0820 C   0  0  0  0  0  0  0  0  0  0  0  0
  184.2680  177.7560  139.3670 C   0  0  0  0  0  0  0  0  0  0  0  0
  180.4330  178.6830  142.4780 C   0  0  0  0  0  2  0  0  0  0  0  0
  178.9310  179.3780  144.3450 C   0  0  0  0  0  1  0  0  0  0  0  0
  180.1540  178.5630  143.9680 C   0  0  0  0  0  2  0  0  0  0  0  0
  1  5  1  0  0  0  0
  1 19  1  0  0  0  0
  2 16  1  0  0  0  0
  2 13  1  0  0  0  0
  3 17  1  0  0  0  0
  4 20  1  0  0  0  0
  4  1  2  0  0  0  0
  6  8  2  0  0  0  0
  7 15  1  6  0  0  0
  7  9  1  0  0  0  0
  7 27  1  0  0  0  0
  8 11  1  0  0  0  0
  9 22  1  0  0  0  0
 10  3  2  0  0  0  0
 11 28  1  0  0  0  0
 11  5  1  0  0  0  0
 12 27  1  6  0  0  0
 12  8  1  0  0  0  0
 12  4  1  0  0  0  0
 14  9  1  0  0  0  0
 17 20  1  6  0  0  0
 17 26  1  0  0  0  0
 18 13  2  0  0  0  0
 19  2  2  0  0  0  0
 21 10  1  0  0  0  0
 22 10  1  0  0  0  0
 22 20  2  0  0  0  0
 23 15  1  0  0  0  0
 23 14  2  0  0  0  0
 24 27  2  0  0  0  0
 25 18  1  0  0  0  0
 26 19  1  0  0  0  0
 26 25  2  0  0  0  0
 28 30  1  0  0  0  0
 30 29  1  0  0  0  0
M  END
>  <MODEL>
9

>  <REMARK>
 VINA RESULT:      -9.1      3.257      6.823
  Name = 
  2 active torsions:
  status: ('A' for Active; 'I' for Inactive)
    1  A    between atoms: N_11  and  C_28
    2  A    between atoms: C_28  and  C_30
                            x       y       z     vdW  Elec       q    Type
                         _______ _______ _______ _____ _____    ______ ____

>  <TORSDO>
F 2

$$$$
