=
 OpenBabel11122411203D

 31 35  0  0  1  0  0  0  0  0999 V2000
  187.4380  178.6250  137.0280 C   0  0  2  0  0  3  0  0  0  0  0  0
  189.9170  178.0000  139.9340 C   0  0  2  0  0  3  0  0  0  0  0  0
  189.7240  177.4430  141.3310 C   0  0  0  0  0  0  0  0  0  0  0  0
  188.3130  177.0090  143.2600 C   0  0  0  0  0  0  0  0  0  0  0  0
  188.6830  177.8030  139.0400 C   0  0  1  0  0  3  0  0  0  0  0  0
  187.3850  177.2060  136.4720 C   0  0  0  0  0  2  0  0  0  0  0  0
  188.4720  177.4970  141.9620 C   0  0  0  0  0  3  0  0  0  0  0  0
  191.0420  176.0180  138.7860 C   0  0  2  0  0  3  0  0  0  0  0  0
  187.4620  179.5380  135.9750 O   0  0  0  0  0  1  0  0  0  0  0  0
  192.1000  176.9100  141.4520 O   0  0  0  0  0  0  0  0  0  0  0  0
  186.9790  177.0580  143.9140 C   0  0  0  0  0  1  0  0  0  0  0  0
  189.8510  175.8970  137.8390 C   0  0  0  0  0  2  0  0  0  0  0  0
  191.2050  177.4700  139.2600 C   0  0  2  0  0  3  0  0  0  0  0  0
  188.6860  178.8070  137.8860 C   0  0  0  0  0  2  0  0  0  0  0  0
  189.4070  176.4750  143.9460 C   0  0  0  0  0  3  0  0  0  0  0  0
  188.5700  176.3520  138.5360 C   0  0  2  0  0  3  0  0  0  0  0  0
  187.3600  176.1890  137.6130 C   0  0  0  0  0  2  0  0  0  0  0  0
  192.3750  177.6010  140.2340 C   0  0  0  0  0  2  0  0  0  0  0  0
  190.8310  176.9360  142.0410 C   0  0  0  0  0  0  0  0  0  0  0  0
  190.6640  176.4400  143.3380 C   0  0  0  0  0  3  0  0  0  0  0  0
  191.3490  173.5370  137.4110 O   0  0  0  0  0  0  0  0  0  0  0  0
  192.3340  174.3250  137.4200 C   0  0  0  0  0  0  0  0  0  0  0  0
  192.2500  175.5780  138.1000 N   0  0  0  0  0  2  0  0  0  0  0  0
  195.6570  174.3300  138.6310 C   0  0  0  0  0  0  0  0  0  0  0  0
  194.2840  172.7580  137.4140 C   0  0  0  0  0  2  0  0  0  0  0  0
  194.3960  176.1440  135.5980 C   0  0  0  0  0  1  0  0  0  0  0  0
  196.4980  174.6790  139.8050 C   0  0  0  0  0  1  0  0  0  0  0  0
  195.0630  173.1740  138.5830 N   0  0  0  0  0  0  0  0  0  0  0  0
  194.5560  175.1250  136.6690 C   0  0  0  0  0  0  0  0  0  0  0  0
  193.6110  173.9540  136.7320 C   0  0  2  0  0  3  0  0  0  0  0  0
  195.4670  175.2880  137.5800 N   0  0  0  0  0  0  0  0  0  0  0  0
  1  9  1  6  0  0  0
  1 14  1  0  0  0  0
  2  3  1  1  0  0  0
  3  7  2  0  0  0  0
  3 19  1  0  0  0  0
  4 11  1  0  0  0  0
  4 15  2  0  0  0  0
  5 14  1  6  0  0  0
  5  2  1  0  0  0  0
  6  1  1  0  0  0  0
  6 17  1  0  0  0  0
  7  4  1  0  0  0  0
  8 23  1  6  0  0  0
  8 13  1  0  0  0  0
 10 19  1  0  0  0  0
 12 16  1  0  0  0  0
 12  8  1  0  0  0  0
 13  2  1  0  0  0  0
 13 18  1  1  0  0  0
 16 17  1  6  0  0  0
 16  5  1  0  0  0  0
 18 10  1  0  0  0  0
 19 20  2  0  0  0  0
 20 15  1  0  0  0  0
 21 22  2  0  0  0  0
 22 23  1  0  0  0  0
 24 27  1  0  0  0  0
 25 28  1  0  0  0  0
 26 29  1  0  0  0  0
 28 24  2  0  0  0  0
 29 30  1  0  0  0  0
 29 31  2  0  0  0  0
 30 25  1  0  0  0  0
 30 22  1  1  0  0  0
 31 24  1  0  0  0  0
M  END
>  <MODEL>
1

>  <REMARK>
 VINA RESULT:      -7.5      0.000      0.000
  Name = 
  2 active torsions:
  status: ('A' for Active; 'I' for Inactive)
    1  A    between atoms: C_5  and  C_30
    2  A    between atoms: C_10  and  N_16
                            x       y       z     vdW  Elec       q    Type
                         _______ _______ _______ _____ _____    ______ ____

>  <TORSDO>
F 2

$$$$
=
 OpenBabel11122411203D

 31 35  0  0  1  0  0  0  0  0999 V2000
  193.7630  176.0670  136.1010 C   0  0  2  0  0  3  0  0  0  0  0  0
  189.9400  176.4150  136.5940 C   0  0  2  0  0  3  0  0  0  0  0  0
  188.8060  175.4170  136.4670 C   0  0  0  0  0  0  0  0  0  0  0  0
  187.8770  173.3750  135.5350 C   0  0  0  0  0  0  0  0  0  0  0  0
  191.3240  175.7470  136.5690 C   0  0  1  0  0  3  0  0  0  0  0  0
  194.1100  175.4760  137.4620 C   0  0  0  0  0  2  0  0  0  0  0  0
  188.9400  174.2700  135.6690 C   0  0  0  0  0  3  0  0  0  0  0  0
  190.1060  176.6220  139.1320 C   0  0  2  0  0  3  0  0  0  0  0  0
  194.7350  176.9970  135.7350 O   0  0  0  0  0  1  0  0  0  0  0  0
  187.3950  176.8370  137.8580 O   0  0  0  0  0  0  0  0  0  0  0  0
  188.0350  172.1560  134.6990 C   0  0  0  0  0  1  0  0  0  0  0  0
  191.5190  176.0480  139.0810 C   0  0  0  0  0  2  0  0  0  0  0  0
  189.7740  177.3450  137.8180 C   0  0  2  0  0  3  0  0  0  0  0  0
  192.4020  176.7510  136.1560 C   0  0  0  0  0  2  0  0  0  0  0  0
  186.6660  173.6230  136.1860 C   0  0  0  0  0  3  0  0  0  0  0  0
  191.6560  175.0720  137.9140 C   0  0  2  0  0  3  0  0  0  0  0  0
  193.0550  174.4530  137.8820 C   0  0  0  0  0  2  0  0  0  0  0  0
  188.3490  177.8990  137.8410 C   0  0  0  0  0  2  0  0  0  0  0  0
  187.5700  175.6800  137.0910 C   0  0  0  0  0  0  0  0  0  0  0  0
  186.5120  174.7750  136.9610 C   0  0  0  0  0  3  0  0  0  0  0  0
  189.9250  175.8750  141.8800 O   0  0  0  0  0  0  0  0  0  0  0  0
  189.9240  177.1070  141.6080 C   0  0  0  0  0  0  0  0  0  0  0  0
  190.0010  177.5480  140.2520 N   0  0  0  0  0  2  0  0  0  0  0  0
  191.1240  176.9990  144.9330 C   0  0  0  0  0  0  0  0  0  0  0  0
  191.2150  178.6110  143.1350 C   0  0  0  0  0  2  0  0  0  0  0  0
  187.5770  177.6090  143.8710 C   0  0  0  0  0  1  0  0  0  0  0  0
  191.8010  176.1290  145.9290 C   0  0  0  0  0  1  0  0  0  0  0  0
  191.8340  177.6840  144.0860 N   0  0  0  0  0  0  0  0  0  0  0  0
  189.0640  177.5870  143.8810 C   0  0  0  0  0  0  0  0  0  0  0  0
  189.8270  178.1260  142.7010 C   0  0  2  0  0  3  0  0  0  0  0  0
  189.6910  177.0420  144.8810 N   0  0  0  0  0  0  0  0  0  0  0  0
  1  9  1  1  0  0  0
  1 14  1  0  0  0  0
  1  6  1  0  0  0  0
  2  3  1  1  0  0  0
  2 13  1  0  0  0  0
  3 19  1  0  0  0  0
  4  7  1  0  0  0  0
  4 15  2  0  0  0  0
  5 14  1  1  0  0  0
  5  2  1  0  0  0  0
  5 16  1  0  0  0  0
  6 17  1  0  0  0  0
  7  3  2  0  0  0  0
  8 23  1  1  0  0  0
 11  4  1  0  0  0  0
 12  8  1  0  0  0  0
 13 18  1  1  0  0  0
 13  8  1  0  0  0  0
 15 20  1  0  0  0  0
 16 17  1  6  0  0  0
 16 12  1  0  0  0  0
 18 10  1  0  0  0  0
 19 10  1  0  0  0  0
 20 19  2  0  0  0  0
 22 21  2  0  0  0  0
 23 22  1  0  0  0  0
 24 27  1  0  0  0  0
 25 28  1  0  0  0  0
 26 29  1  0  0  0  0
 28 24  2  0  0  0  0
 29 31  2  0  0  0  0
 30 22  1  6  0  0  0
 30 25  1  0  0  0  0
 30 29  1  0  0  0  0
 31 24  1  0  0  0  0
M  END
>  <MODEL>
2

>  <REMARK>
 VINA RESULT:      -7.5      2.852      6.859
  Name = 
  2 active torsions:
  status: ('A' for Active; 'I' for Inactive)
    1  A    between atoms: C_5  and  C_30
    2  A    between atoms: C_10  and  N_16
                            x       y       z     vdW  Elec       q    Type
                         _______ _______ _______ _____ _____    ______ ____

>  <TORSDO>
F 2

$$$$
=
 OpenBabel11122411203D

 31 35  0  0  1  0  0  0  0  0999 V2000
  191.1930  176.0310  144.2930 C   0  0  2  0  0  3  0  0  0  0  0  0
  187.6640  177.0840  143.1020 C   0  0  2  0  0  3  0  0  0  0  0  0
  186.5710  177.8990  143.7640 C   0  0  0  0  0  0  0  0  0  0  0  0
  185.4750  178.7440  145.7610 C   0  0  0  0  0  0  0  0  0  0  0  0
  189.0020  177.1610  143.8540 C   0  0  1  0  0  3  0  0  0  0  0  0
  191.9340  177.3210  143.9620 C   0  0  0  0  0  2  0  0  0  0  0  0
  186.5040  178.0160  145.1620 C   0  0  0  0  0  3  0  0  0  0  0  0
  188.5460  178.7690  141.4000 C   0  0  2  0  0  3  0  0  0  0  0  0
  191.9910  174.9370  143.9610 O   0  0  0  0  0  1  0  0  0  0  0  0
  185.5780  178.3470  141.5840 O   0  0  0  0  0  0  0  0  0  0  0  0
  185.4220  178.8730  147.2400 C   0  0  0  0  0  1  0  0  0  0  0  0
  189.9010  178.7590  142.1010 C   0  0  0  0  0  2  0  0  0  0  0  0
  187.8290  177.4250  141.6020 C   0  0  2  0  0  3  0  0  0  0  0  0
  189.8850  175.9600  143.5120 C   0  0  0  0  0  2  0  0  0  0  0  0
  184.4950  179.3510  144.9720 C   0  0  0  0  0  3  0  0  0  0  0  0
  189.7250  178.4970  143.5960 C   0  0  2  0  0  3  0  0  0  0  0  0
  191.0740  178.5340  144.3180 C   0  0  0  0  0  2  0  0  0  0  0  0
  186.4550  177.4290  140.9320 C   0  0  0  0  0  2  0  0  0  0  0  0
  185.5590  178.4830  142.9760 C   0  0  0  0  0  0  0  0  0  0  0  0
  184.5360  179.2200  143.5810 C   0  0  0  0  0  3  0  0  0  0  0  0
  189.8490  177.0070  139.5730 O   0  0  0  0  0  0  0  0  0  0  0  0
  189.3930  178.0910  139.1150 C   0  0  0  0  0  0  0  0  0  0  0  0
  188.7400  179.0220  139.9790 N   0  0  0  0  0  2  0  0  0  0  0  0
  187.1220  177.6720  136.4360 C   0  0  0  0  0  0  0  0  0  0  0  0
  188.5190  179.4780  137.2250 C   0  0  0  0  0  2  0  0  0  0  0  0
  190.6150  176.3130  136.6200 C   0  0  0  0  0  1  0  0  0  0  0  0
  185.7870  177.1270  136.0800 C   0  0  0  0  0  1  0  0  0  0  0  0
  187.2190  178.8720  136.9270 N   0  0  0  0  0  0  0  0  0  0  0  0
  189.4300  177.1930  136.8060 C   0  0  0  0  0  0  0  0  0  0  0  0
  189.5430  178.4250  137.6630 C   0  0  2  0  0  3  0  0  0  0  0  0
  188.2900  176.8540  136.2830 N   0  0  0  0  0  0  0  0  0  0  0  0
  1  9  1  6  0  0  0
  2  3  1  1  0  0  0
  2  5  1  0  0  0  0
  3  7  1  0  0  0  0
  4 11  1  0  0  0  0
  5 14  1  6  0  0  0
  6  1  1  0  0  0  0
  6 17  1  0  0  0  0
  7  4  2  0  0  0  0
  8 23  1  6  0  0  0
  8 13  1  0  0  0  0
  8 12  1  0  0  0  0
 10 19  1  0  0  0  0
 13 18  1  1  0  0  0
 13  2  1  0  0  0  0
 14  1  1  0  0  0  0
 15  4  1  0  0  0  0
 16 12  1  6  0  0  0
 16  5  1  0  0  0  0
 16 17  1  0  0  0  0
 18 10  1  0  0  0  0
 19 20  1  0  0  0  0
 19  3  2  0  0  0  0
 20 15  2  0  0  0  0
 22 21  2  0  0  0  0
 22 23  1  0  0  0  0
 24 28  2  0  0  0  0
 25 30  1  0  0  0  0
 26 29  1  0  0  0  0
 27 24  1  0  0  0  0
 28 25  1  0  0  0  0
 29 30  1  0  0  0  0
 30 22  1  1  0  0  0
 31 24  1  0  0  0  0
 31 29  2  0  0  0  0
M  END
>  <MODEL>
3

>  <REMARK>
 VINA RESULT:      -7.2      3.574      6.626
  Name = 
  2 active torsions:
  status: ('A' for Active; 'I' for Inactive)
    1  A    between atoms: C_5  and  C_30
    2  A    between atoms: C_10  and  N_16
                            x       y       z     vdW  Elec       q    Type
                         _______ _______ _______ _____ _____    ______ ____

>  <TORSDO>
F 2

$$$$
=
 OpenBabel11122411203D

 31 35  0  0  1  0  0  0  0  0999 V2000
  191.5110  175.9540  143.8570 C   0  0  2  0  0  3  0  0  0  0  0  0
  187.7720  176.9340  144.0480 C   0  0  2  0  0  3  0  0  0  0  0  0
  186.9810  177.7250  145.0710 C   0  0  0  0  0  0  0  0  0  0  0  0
  186.6750  178.5420  147.3380 C   0  0  0  0  0  0  0  0  0  0  0  0
  189.2900  177.0380  144.2600 C   0  0  1  0  0  3  0  0  0  0  0  0
  192.0560  177.2600  143.2910 C   0  0  0  0  0  2  0  0  0  0  0  0
  187.4270  177.8370  146.3970 C   0  0  0  0  0  3  0  0  0  0  0  0
  187.9390  178.6410  142.1570 C   0  0  2  0  0  3  0  0  0  0  0  0
  192.1530  174.8780  143.2450 O   0  0  0  0  0  1  0  0  0  0  0  0
  185.2520  178.1560  143.4080 O   0  0  0  0  0  0  0  0  0  0  0  0
  187.1640  178.6670  148.7360 C   0  0  0  0  0  1  0  0  0  0  0  0
  189.4570  178.6590  142.3150 C   0  0  0  0  0  2  0  0  0  0  0  0
  187.3710  177.2820  142.5940 C   0  0  2  0  0  3  0  0  0  0  0  0
  190.0100  175.8570  143.6070 C   0  0  0  0  0  2  0  0  0  0  0  0
  185.4630  179.1300  146.9670 C   0  0  0  0  0  3  0  0  0  0  0  0
  189.8440  178.3890  143.7680 C   0  0  2  0  0  3  0  0  0  0  0  0
  191.3620  178.4530  143.9480 C   0  0  0  0  0  2  0  0  0  0  0  0
  185.8470  177.2590  142.4720 C   0  0  0  0  0  2  0  0  0  0  0  0
  185.7400  178.2900  144.7120 C   0  0  0  0  0  0  0  0  0  0  0  0
  184.9960  179.0030  145.6570 C   0  0  0  0  0  3  0  0  0  0  0  0
  188.8200  177.0990  139.9240 O   0  0  0  0  0  0  0  0  0  0  0  0
  188.0620  178.0820  139.6930 C   0  0  0  0  0  0  0  0  0  0  0  0
  187.5950  178.9010  140.7660 N   0  0  0  0  0  2  0  0  0  0  0  0
  186.5540  176.0530  137.2200 C   0  0  0  0  0  0  0  0  0  0  0  0
  186.1410  178.2640  138.1010 C   0  0  0  0  0  2  0  0  0  0  0  0
  189.7700  177.9550  136.8740 C   0  0  0  0  0  1  0  0  0  0  0  0
  186.1010  174.6690  136.9270 C   0  0  0  0  0  1  0  0  0  0  0  0
  185.7660  176.8700  137.8550 N   0  0  0  0  0  0  0  0  0  0  0  0
  188.3970  177.5670  137.2930 C   0  0  0  0  0  0  0  0  0  0  0  0
  187.6540  178.4140  138.2920 C   0  0  2  0  0  3  0  0  0  0  0  0
  187.8750  176.4650  136.8440 N   0  0  0  0  0  0  0  0  0  0  0  0
  1  9  1  6  0  0  0
  2  5  1  0  0  0  0
  2  3  1  1  0  0  0
  3  7  1  0  0  0  0
  4 11  1  0  0  0  0
  5 14  1  6  0  0  0
  6  1  1  0  0  0  0
  6 17  1  0  0  0  0
  7  4  2  0  0  0  0
  8 23  1  6  0  0  0
  8 12  1  0  0  0  0
  8 13  1  0  0  0  0
 10 19  1  0  0  0  0
 13 18  1  1  0  0  0
 13  2  1  0  0  0  0
 14  1  1  0  0  0  0
 15  4  1  0  0  0  0
 16 12  1  6  0  0  0
 16 17  1  0  0  0  0
 16  5  1  0  0  0  0
 18 10  1  0  0  0  0
 19  3  2  0  0  0  0
 19 20  1  0  0  0  0
 20 15  2  0  0  0  0
 22 21  2  0  0  0  0
 22 23  1  0  0  0  0
 24 28  2  0  0  0  0
 25 30  1  0  0  0  0
 26 29  1  0  0  0  0
 27 24  1  0  0  0  0
 28 25  1  0  0  0  0
 29 30  1  0  0  0  0
 30 22  1  1  0  0  0
 31 24  1  0  0  0  0
 31 29  2  0  0  0  0
M  END
>  <MODEL>
4

>  <REMARK>
 VINA RESULT:      -6.9      3.997      6.953
  Name = 
  2 active torsions:
  status: ('A' for Active; 'I' for Inactive)
    1  A    between atoms: C_5  and  C_30
    2  A    between atoms: C_10  and  N_16
                            x       y       z     vdW  Elec       q    Type
                         _______ _______ _______ _____ _____    ______ ____

>  <TORSDO>
F 2

$$$$
=
 OpenBabel11122411203D

 31 35  0  0  1  0  0  0  0  0999 V2000
  191.4630  177.9570  143.0810 C   0  0  2  0  0  3  0  0  0  0  0  0
  190.8160  177.8780  139.2660 C   0  0  2  0  0  3  0  0  0  0  0  0
  191.1500  176.8520  138.2020 C   0  0  0  0  0  0  0  0  0  0  0  0
  192.5170  175.0180  137.3830 C   0  0  0  0  0  0  0  0  0  0  0  0
  191.0290  177.3460  140.6920 C   0  0  1  0  0  3  0  0  0  0  0  0
  190.2890  177.0930  143.5240 C   0  0  0  0  0  2  0  0  0  0  0  0
  192.1990  175.9380  138.3840 C   0  0  0  0  0  3  0  0  0  0  0  0
  188.3050  177.4970  139.5200 C   0  0  2  0  0  3  0  0  0  0  0  0
  191.6200  179.0210  143.9680 O   0  0  0  0  0  1  0  0  0  0  0  0
  189.4310  177.7910  136.7510 O   0  0  0  0  0  0  0  0  0  0  0  0
  193.6210  174.0460  137.5940 C   0  0  0  0  0  1  0  0  0  0  0  0
  188.5230  177.0650  140.9670 C   0  0  0  0  0  2  0  0  0  0  0  0
  189.4030  178.4800  139.0840 C   0  0  2  0  0  3  0  0  0  0  0  0
  191.2170  178.5000  141.6780 C   0  0  0  0  0  2  0  0  0  0  0  0
  191.7990  175.0100  136.1850 C   0  0  0  0  0  3  0  0  0  0  0  0
  189.8900  176.4030  141.1250 C   0  0  2  0  0  3  0  0  0  0  0  0
  190.1000  175.9200  142.5620 C   0  0  0  0  0  2  0  0  0  0  0  0
  189.2170  178.8980  137.6250 C   0  0  0  0  0  2  0  0  0  0  0  0
  190.4530  176.8630  136.9760 C   0  0  0  0  0  0  0  0  0  0  0  0
  190.7700  175.9330  135.9810 C   0  0  0  0  0  3  0  0  0  0  0  0
  186.3190  176.7990  137.5930 O   0  0  0  0  0  0  0  0  0  0  0  0
  186.0410  177.7190  138.4120 C   0  0  0  0  0  0  0  0  0  0  0  0
  186.9960  178.1230  139.3940 N   0  0  0  0  0  2  0  0  0  0  0  0
  183.8390  178.6280  141.0260 C   0  0  0  0  0  0  0  0  0  0  0  0
  184.7540  179.7530  139.0930 C   0  0  0  0  0  2  0  0  0  0  0  0
  183.0000  176.4940  138.0550 C   0  0  0  0  0  1  0  0  0  0  0  0
  183.6290  178.5360  142.4930 C   0  0  0  0  0  1  0  0  0  0  0  0
  184.5780  179.5790  140.5370 N   0  0  0  0  0  0  0  0  0  0  0  0
  183.6230  177.5350  138.9150 C   0  0  0  0  0  0  0  0  0  0  0  0
  184.7150  178.4090  138.3570 C   0  0  2  0  0  3  0  0  0  0  0  0
  183.2660  177.6380  140.1600 N   0  0  0  0  0  0  0  0  0  0  0  0
  1  6  1  0  0  0  0
  1  9  1  1  0  0  0
  2  3  1  6  0  0  0
  2  5  1  0  0  0  0
  3  7  1  0  0  0  0
  4 11  1  0  0  0  0
  4  7  2  0  0  0  0
  5 16  1  0  0  0  0
  5 14  1  1  0  0  0
  8 23  1  1  0  0  0
  8 12  1  0  0  0  0
 10 19  1  0  0  0  0
 10 18  1  0  0  0  0
 13 18  1  6  0  0  0
 13  2  1  0  0  0  0
 13  8  1  0  0  0  0
 14  1  1  0  0  0  0
 15  4  1  0  0  0  0
 16 12  1  1  0  0  0
 16 17  1  0  0  0  0
 17  6  1  0  0  0  0
 19  3  2  0  0  0  0
 20 15  2  0  0  0  0
 20 19  1  0  0  0  0
 21 22  2  0  0  0  0
 22 23  1  0  0  0  0
 24 27  1  0  0  0  0
 25 28  1  0  0  0  0
 26 29  1  0  0  0  0
 28 24  2  0  0  0  0
 29 31  2  0  0  0  0
 30 22  1  1  0  0  0
 30 29  1  0  0  0  0
 30 25  1  0  0  0  0
 31 24  1  0  0  0  0
M  END
>  <MODEL>
5

>  <REMARK>
 VINA RESULT:      -6.3      3.414      7.993
  Name = 
  2 active torsions:
  status: ('A' for Active; 'I' for Inactive)
    1  A    between atoms: C_5  and  C_30
    2  A    between atoms: C_10  and  N_16
                            x       y       z     vdW  Elec       q    Type
                         _______ _______ _______ _____ _____    ______ ____

>  <TORSDO>
F 2

$$$$
=
 OpenBabel11122411203D

 31 35  0  0  1  0  0  0  0  0999 V2000
  182.0550  179.0080  143.0790 C   0  0  2  0  0  3  0  0  0  0  0  0
  180.7240  178.5310  139.4750 C   0  0  2  0  0  3  0  0  0  0  0  0
  180.7550  179.4300  138.2560 C   0  0  0  0  0  0  0  0  0  0  0  0
  180.8750  181.6410  137.2570 C   0  0  0  0  0  0  0  0  0  0  0  0
  181.6250  179.0400  140.6120 C   0  0  1  0  0  3  0  0  0  0  0  0
  183.5130  178.6430  142.8280 C   0  0  0  0  0  2  0  0  0  0  0  0
  180.8790  180.8220  138.3880 C   0  0  0  0  0  3  0  0  0  0  0  0
  182.5140  176.8220  138.8500 C   0  0  2  0  0  3  0  0  0  0  0  0
  181.6410  178.4650  144.2940 O   0  0  0  0  0  1  0  0  0  0  0  0
  180.4090  177.4940  136.8150 O   0  0  0  0  0  0  0  0  0  0  0  0
  181.0200  183.1130  137.4080 C   0  0  0  0  0  1  0  0  0  0  0  0
  183.3530  177.2720  140.0430 C   0  0  0  0  0  2  0  0  0  0  0  0
  181.0200  177.0530  139.1280 C   0  0  2  0  0  3  0  0  0  0  0  0
  181.1760  178.4660  141.9570 C   0  0  0  0  0  2  0  0  0  0  0  0
  180.7340  181.0810  135.9860 C   0  0  0  0  0  3  0  0  0  0  0  0
  183.1120  178.7520  140.3340 C   0  0  2  0  0  3  0  0  0  0  0  0
  183.9850  179.2280  141.4970 C   0  0  0  0  0  2  0  0  0  0  0  0
  180.1680  176.6360  137.9300 C   0  0  0  0  0  2  0  0  0  0  0  0
  180.5770  178.8730  136.9720 C   0  0  0  0  0  0  0  0  0  0  0  0
  180.5840  179.6990  135.8430 C   0  0  0  0  0  3  0  0  0  0  0  0
  183.9590  175.7800  136.6220 O   0  0  0  0  0  0  0  0  0  0  0  0
  183.5020  174.9540  137.4600 C   0  0  0  0  0  0  0  0  0  0  0  0
  182.7600  175.4100  138.5920 N   0  0  0  0  0  2  0  0  0  0  0  0
  185.9810  173.2340  135.6150 C   0  0  0  0  0  0  0  0  0  0  0  0
  185.0700  173.0430  137.8450 C   0  0  0  0  0  2  0  0  0  0  0  0
  182.2670  172.8720  135.2200 C   0  0  0  0  0  1  0  0  0  0  0  0
  187.1340  173.4270  134.6980 C   0  0  0  0  0  1  0  0  0  0  0  0
  186.1610  173.2990  136.9010 N   0  0  0  0  0  0  0  0  0  0  0  0
  183.6080  173.0980  135.8230 C   0  0  0  0  0  0  0  0  0  0  0  0
  183.7180  173.4850  137.2740 C   0  0  2  0  0  3  0  0  0  0  0  0
  184.6690  173.0240  135.0760 N   0  0  0  0  0  0  0  0  0  0  0  0
  1  9  1  1  0  0  0
  2  3  1  6  0  0  0
  2  5  1  0  0  0  0
  3  7  1  0  0  0  0
  4 11  1  0  0  0  0
  4  7  2  0  0  0  0
  5 14  1  1  0  0  0
  6  1  1  0  0  0  0
  8 23  1  1  0  0  0
  8 13  1  0  0  0  0
  8 12  1  0  0  0  0
 10 19  1  0  0  0  0
 10 18  1  0  0  0  0
 13 18  1  6  0  0  0
 13  2  1  0  0  0  0
 14  1  1  0  0  0  0
 15  4  1  0  0  0  0
 16 12  1  1  0  0  0
 16  5  1  0  0  0  0
 16 17  1  0  0  0  0
 17  6  1  0  0  0  0
 19  3  2  0  0  0  0
 20 15  2  0  0  0  0
 20 19  1  0  0  0  0
 21 22  2  0  0  0  0
 22 23  1  0  0  0  0
 24 28  2  0  0  0  0
 26 29  1  0  0  0  0
 27 24  1  0  0  0  0
 28 25  1  0  0  0  0
 29 30  1  0  0  0  0
 30 22  1  6  0  0  0
 30 25  1  0  0  0  0
 31 24  1  0  0  0  0
 31 29  2  0  0  0  0
M  END
>  <MODEL>
6

>  <REMARK>
 VINA RESULT:      -6.0      6.934      9.909
  Name = 
  2 active torsions:
  status: ('A' for Active; 'I' for Inactive)
    1  A    between atoms: C_5  and  C_30
    2  A    between atoms: C_10  and  N_16
                            x       y       z     vdW  Elec       q    Type
                         _______ _______ _______ _____ _____    ______ ____

>  <TORSDO>
F 2

$$$$
=
 OpenBabel11122411203D

 31 35  0  0  1  0  0  0  0  0999 V2000
  183.3480  178.9750  142.2990 C   0  0  2  0  0  3  0  0  0  0  0  0
  181.2970  179.0700  139.0180 C   0  0  2  0  0  3  0  0  0  0  0  0
  181.1320  180.1370  137.9560 C   0  0  0  0  0  0  0  0  0  0  0  0
  181.1700  182.4680  137.2720 C   0  0  0  0  0  0  0  0  0  0  0  0
  182.4340  179.3830  140.0040 C   0  0  1  0  0  3  0  0  0  0  0  0
  184.7040  178.6150  141.7040 C   0  0  0  0  0  2  0  0  0  0  0  0
  181.3550  181.4910  138.2520 C   0  0  0  0  0  3  0  0  0  0  0  0
  182.8270  177.4270  137.8050 C   0  0  2  0  0  3  0  0  0  0  0  0
  183.1580  178.2700  143.4870 O   0  0  0  0  0  1  0  0  0  0  0  0
  180.3970  178.4450  136.3630 O   0  0  0  0  0  0  0  0  0  0  0  0
  181.4240  183.8970  137.5940 C   0  0  0  0  0  1  0  0  0  0  0  0
  183.9120  177.6750  138.8490 C   0  0  0  0  0  2  0  0  0  0  0  0
  181.4360  177.6520  138.4150 C   0  0  2  0  0  3  0  0  0  0  0  0
  182.2330  178.6270  141.3190 C   0  0  0  0  0  2  0  0  0  0  0  0
  180.7460  182.1050  135.9920 C   0  0  0  0  0  3  0  0  0  0  0  0
  183.8170  179.1010  139.3870 C   0  0  2  0  0  3  0  0  0  0  0  0
  184.9310  179.3780  140.3990 C   0  0  0  0  0  2  0  0  0  0  0  0
  180.3380  177.4380  137.3720 C   0  0  0  0  0  2  0  0  0  0  0  0
  180.6690  179.7810  136.6720 C   0  0  0  0  0  0  0  0  0  0  0  0
  180.4940  180.7640  135.6930 C   0  0  0  0  0  3  0  0  0  0  0  0
  184.0810  176.6600  135.3600 O   0  0  0  0  0  0  0  0  0  0  0  0
  183.5900  175.7440  136.0770 C   0  0  0  0  0  0  0  0  0  0  0  0
  182.9390  176.0620  137.3070 N   0  0  0  0  0  2  0  0  0  0  0  0
  181.2780  173.1030  136.5060 C   0  0  0  0  0  0  0  0  0  0  0  0
  182.5550  173.9710  134.6480 C   0  0  0  0  0  2  0  0  0  0  0  0
  184.8690  173.1100  137.5930 C   0  0  0  0  0  1  0  0  0  0  0  0
  179.9790  172.7460  137.1330 C   0  0  0  0  0  1  0  0  0  0  0  0
  181.2970  173.6680  135.3350 N   0  0  0  0  0  0  0  0  0  0  0  0
  183.6260  173.3830  136.8240 C   0  0  0  0  0  0  0  0  0  0  0  0
  183.6700  174.3140  135.6420 C   0  0  2  0  0  3  0  0  0  0  0  0
  182.5000  172.8680  137.2180 N   0  0  0  0  0  0  0  0  0  0  0  0
  1  9  1  1  0  0  0
  2  3  1  6  0  0  0
  2  5  1  0  0  0  0
  3  7  1  0  0  0  0
  4 11  1  0  0  0  0
  4  7  2  0  0  0  0
  5 14  1  1  0  0  0
  6  1  1  0  0  0  0
  8 23  1  1  0  0  0
  8 13  1  0  0  0  0
  8 12  1  0  0  0  0
 10 19  1  0  0  0  0
 10 18  1  0  0  0  0
 13 18  1  6  0  0  0
 13  2  1  0  0  0  0
 14  1  1  0  0  0  0
 15  4  1  0  0  0  0
 16 12  1  1  0  0  0
 16  5  1  0  0  0  0
 16 17  1  0  0  0  0
 17  6  1  0  0  0  0
 19  3  2  0  0  0  0
 20 15  2  0  0  0  0
 20 19  1  0  0  0  0
 21 22  2  0  0  0  0
 22 23  1  0  0  0  0
 24 27  1  0  0  0  0
 24 31  1  0  0  0  0
 25 28  1  0  0  0  0
 25 30  1  0  0  0  0
 28 24  2  0  0  0  0
 29 31  2  0  0  0  0
 29 26  1  0  0  0  0
 30 22  1  1  0  0  0
 30 29  1  0  0  0  0
M  END
>  <MODEL>
7

>  <REMARK>
 VINA RESULT:      -5.9      7.563     10.451
  Name = 
  2 active torsions:
  status: ('A' for Active; 'I' for Inactive)
    1  A    between atoms: C_5  and  C_30
    2  A    between atoms: C_10  and  N_16
                            x       y       z     vdW  Elec       q    Type
                         _______ _______ _______ _____ _____    ______ ____

>  <TORSDO>
F 2

$$$$
=
 OpenBabel11122411203D

 31 35  0  0  1  0  0  0  0  0999 V2000
  191.5450  176.2050  143.3570 C   0  0  2  0  0  3  0  0  0  0  0  0
  187.8470  176.8800  144.2800 C   0  0  2  0  0  3  0  0  0  0  0  0
  187.2100  177.6500  145.4190 C   0  0  0  0  0  0  0  0  0  0  0  0
  187.2930  178.5490  147.6740 C   0  0  0  0  0  0  0  0  0  0  0  0
  189.3610  177.1200  144.1730 C   0  0  1  0  0  3  0  0  0  0  0  0
  191.8430  177.5230  142.6520 C   0  0  0  0  0  2  0  0  0  0  0  0
  187.9020  177.8640  146.6210 C   0  0  0  0  0  3  0  0  0  0  0  0
  187.4740  178.5000  142.3440 C   0  0  2  0  0  3  0  0  0  0  0  0
  192.1460  175.1580  142.6610 O   0  0  0  0  0  1  0  0  0  0  0  0
  185.1490  177.8550  144.1330 O   0  0  0  0  0  0  0  0  0  0  0  0
  188.0400  178.7820  148.9380 C   0  0  0  0  0  1  0  0  0  0  0  0
  188.9840  178.6520  142.1860 C   0  0  0  0  0  2  0  0  0  0  0  0
  187.1320  177.1210  142.9300 C   0  0  2  0  0  3  0  0  0  0  0  0
  190.0400  175.9720  143.4230 C   0  0  0  0  0  2  0  0  0  0  0  0
  185.9820  179.0160  147.5420 C   0  0  0  0  0  3  0  0  0  0  0  0
  189.6790  178.4860  143.5370 C   0  0  2  0  0  3  0  0  0  0  0  0
  191.1900  178.6850  143.4000 C   0  0  0  0  0  2  0  0  0  0  0  0
  185.6230  176.9650  143.1230 C   0  0  0  0  0  2  0  0  0  0  0  0
  185.8760  178.0920  145.3040 C   0  0  0  0  0  0  0  0  0  0  0  0
  185.2750  178.7860  146.3590 C   0  0  0  0  0  3  0  0  0  0  0  0
  184.9020  179.6540  141.9030 O   0  0  0  0  0  0  0  0  0  0  0  0
  185.5460  179.2590  140.8920 C   0  0  0  0  0  0  0  0  0  0  0  0
  186.8340  178.6620  141.0450 N   0  0  0  0  0  2  0  0  0  0  0  0
  183.2670  177.1760  139.1670 C   0  0  0  0  0  0  0  0  0  0  0  0
  183.4400  179.5510  139.5730 C   0  0  0  0  0  2  0  0  0  0  0  0
  186.6700  178.2150  137.9720 C   0  0  0  0  0  1  0  0  0  0  0  0
  182.5180  175.8960  139.2570 C   0  0  0  0  0  1  0  0  0  0  0  0
  182.7730  178.2540  139.7000 N   0  0  0  0  0  0  0  0  0  0  0  0
  185.3450  178.2300  138.6480 C   0  0  0  0  0  0  0  0  0  0  0  0
  184.9640  179.3960  139.5200 C   0  0  2  0  0  3  0  0  0  0  0  0
  184.5540  177.2050  138.5330 N   0  0  0  0  0  0  0  0  0  0  0  0
  1  9  1  6  0  0  0
  1 14  1  0  0  0  0
  2  3  1  1  0  0  0
  3  7  1  0  0  0  0
  4 11  1  0  0  0  0
  5 14  1  6  0  0  0
  5  2  1  0  0  0  0
  6  1  1  0  0  0  0
  6 17  1  0  0  0  0
  7  4  2  0  0  0  0
  8 23  1  6  0  0  0
  8 13  1  0  0  0  0
 10 19  1  0  0  0  0
 12  8  1  0  0  0  0
 13 18  1  1  0  0  0
 13  2  1  0  0  0  0
 15  4  1  0  0  0  0
 16 12  1  6  0  0  0
 16  5  1  0  0  0  0
 17 16  1  0  0  0  0
 18 10  1  0  0  0  0
 19  3  2  0  0  0  0
 19 20  1  0  0  0  0
 20 15  2  0  0  0  0
 22 23  1  0  0  0  0
 22 21  2  0  0  0  0
 24 27  1  0  0  0  0
 24 28  2  0  0  0  0
 25 28  1  0  0  0  0
 26 29  1  0  0  0  0
 29 30  1  0  0  0  0
 30 25  1  0  0  0  0
 30 22  1  1  0  0  0
 31 29  2  0  0  0  0
 31 24  1  0  0  0  0
M  END
>  <MODEL>
8

>  <REMARK>
 VINA RESULT:      -5.4      4.919      8.292
  Name = 
  2 active torsions:
  status: ('A' for Active; 'I' for Inactive)
    1  A    between atoms: C_5  and  C_30
    2  A    between atoms: C_10  and  N_16
                            x       y       z     vdW  Elec       q    Type
                         _______ _______ _______ _____ _____    ______ ____

>  <TORSDO>
F 2

$$$$
=
 OpenBabel11122411203D

 31 35  0  0  1  0  0  0  0  0999 V2000
  182.7950  172.9740  136.4420 C   0  0  2  0  0  3  0  0  0  0  0  0
  184.7040  176.1180  137.6470 C   0  0  2  0  0  3  0  0  0  0  0  0
  185.9000  176.8570  137.0820 C   0  0  0  0  0  0  0  0  0  0  0  0
  187.9310  176.8920  135.7500 C   0  0  0  0  0  0  0  0  0  0  0  0
  184.1300  175.0800  136.6690 C   0  0  1  0  0  3  0  0  0  0  0  0
  181.9090  173.6380  135.3950 C   0  0  0  0  0  2  0  0  0  0  0  0
  186.8170  176.2090  136.2390 C   0  0  0  0  0  3  0  0  0  0  0  0
  182.8180  177.7200  137.0220 C   0  0  2  0  0  3  0  0  0  0  0  0
  182.0570  172.0190  137.1390 O   0  0  0  0  0  1  0  0  0  0  0  0
  185.2700  178.8470  138.3410 O   0  0  0  0  0  0  0  0  0  0  0  0
  188.8880  176.2000  134.8470 C   0  0  0  0  0  1  0  0  0  0  0  0
  182.2060  176.6440  136.1300 C   0  0  0  0  0  2  0  0  0  0  0  0
  183.6090  177.0780  138.1710 C   0  0  2  0  0  3  0  0  0  0  0  0
  183.3270  174.0160  137.4190 C   0  0  0  0  0  2  0  0  0  0  0  0
  188.1490  178.2250  136.1080 C   0  0  0  0  0  3  0  0  0  0  0  0
  183.2990  175.7450  135.5550 C   0  0  2  0  0  3  0  0  0  0  0  0
  182.7020  174.6910  134.6200 C   0  0  0  0  0  2  0  0  0  0  0  0
  184.2560  178.1440  139.0560 C   0  0  0  0  0  2  0  0  0  0  0  0
  186.1450  178.1910  137.4680 C   0  0  0  0  0  0  0  0  0  0  0  0
  187.2580  178.8730  136.9670 C   0  0  0  0  0  3  0  0  0  0  0  0
  181.3160  179.6300  135.5260 O   0  0  0  0  0  0  0  0  0  0  0  0
  181.0360  179.4950  136.7500 C   0  0  0  0  0  0  0  0  0  0  0  0
  181.7580  178.5640  137.5570 N   0  0  0  0  0  2  0  0  0  0  0  0
  180.8310  182.9910  137.2400 C   0  0  0  0  0  0  0  0  0  0  0  0
  179.3440  181.2980  136.3690 C   0  0  0  0  0  2  0  0  0  0  0  0
  180.5470  180.3560  139.8960 C   0  0  0  0  0  1  0  0  0  0  0  0
  181.5820  184.2640  137.0810 C   0  0  0  0  0  1  0  0  0  0  0  0
  180.1570  182.5090  136.2370 N   0  0  0  0  0  0  0  0  0  0  0  0
  180.4640  181.0560  138.5860 C   0  0  0  0  0  0  0  0  0  0  0  0
  179.9540  180.3180  137.3770 C   0  0  2  0  0  3  0  0  0  0  0  0
  180.8930  182.2780  138.4830 N   0  0  0  0  0  0  0  0  0  0  0  0
  1  9  1  1  0  0  0
  1 14  1  0  0  0  0
  2  3  1  6  0  0  0
  2 13  1  0  0  0  0
  3 19  1  0  0  0  0
  4 15  2  0  0  0  0
  4  7  1  0  0  0  0
  5 14  1  1  0  0  0
  5  2  1  0  0  0  0
  6  1  1  0  0  0  0
  7  3  2  0  0  0  0
  8 23  1  1  0  0  0
  8 13  1  0  0  0  0
 10 18  1  0  0  0  0
 11  4  1  0  0  0  0
 12  8  1  0  0  0  0
 13 18  1  6  0  0  0
 15 20  1  0  0  0  0
 16 17  1  1  0  0  0
 16 12  1  0  0  0  0
 16  5  1  0  0  0  0
 17  6  1  0  0  0  0
 19 10  1  0  0  0  0
 20 19  2  0  0  0  0
 21 22  2  0  0  0  0
 22 23  1  0  0  0  0
 24 31  1  0  0  0  0
 25 30  1  0  0  0  0
 27 24  1  0  0  0  0
 28 25  1  0  0  0  0
 28 24  2  0  0  0  0
 29 26  1  0  0  0  0
 30 22  1  6  0  0  0
 30 29  1  0  0  0  0
 31 29  2  0  0  0  0
M  END
>  <MODEL>
9

>  <REMARK>
 VINA RESULT:      -5.3      6.660     10.898
  Name = 
  2 active torsions:
  status: ('A' for Active; 'I' for Inactive)
    1  A    between atoms: C_5  and  C_30
    2  A    between atoms: C_10  and  N_16
                            x       y       z     vdW  Elec       q    Type
                         _______ _______ _______ _____ _____    ______ ____

>  <TORSDO>
F 2

$$$$
