=
 OpenBabel11122410533D

 32 37  0  0  1  0  0  0  0  0999 V2000
  188.0530  177.8270  145.2550 C   0  0  0  0  0  2  0  0  0  0  0  0
  183.9280  178.5550  142.1080 C   0  0  2  0  0  3  0  0  0  0  0  0
  179.5500  178.7840  144.3570 C   0  0  0  0  0  3  0  0  0  0  0  0
  178.9310  179.0620  143.1390 C   0  0  0  0  0  3  0  0  0  0  0  0
  183.9050  178.9570  139.6180 C   0  0  0  0  0  0  0  0  0  0  0  0
  183.1810  179.2890  138.3480 C   0  0  1  0  0  3  0  0  0  0  0  0
  185.9480  178.7650  143.5790 C   0  0  1  0  0  3  0  0  0  0  0  0
  183.6980  178.4220  144.6120 N   0  0  0  0  0  2  0  0  0  0  0  0
  181.0520  179.7470  137.3270 C   0  0  2  0  0  3  0  0  0  0  0  0
  185.6340  178.1690  146.0860 C   0  0  0  0  0  2  0  0  0  0  0  0
  180.9340  178.6250  144.4140 C   0  0  0  0  0  3  0  0  0  0  0  0
  183.0580  178.5920  143.3390 C   0  0  0  0  0  0  0  0  0  0  0  0
  181.7220  178.7300  143.2540 C   0  0  0  0  0  0  0  0  0  0  0  0
  181.8090  179.1990  140.8940 C   0  0  0  0  0  0  0  0  0  0  0  0
  181.6360  178.4890  136.6960 C   0  0  0  0  0  2  0  0  0  0  0  0
  187.3720  176.7630  144.3900 C   0  0  0  0  0  2  0  0  0  0  0  0
  185.0690  178.8680  144.8480 C   0  0  1  0  0  3  0  0  0  0  0  0
  182.8030  178.0550  137.5640 C   0  0  0  0  0  2  0  0  0  0  0  0
  186.4950  177.3600  143.2800 C   0  0  0  0  0  2  0  0  0  0  0  0
  187.1230  178.4490  146.3180 C   0  0  1  0  0  3  0  0  0  0  0  0
  179.6960  179.1860  141.9810 C   0  0  0  0  0  3  0  0  0  0  0  0
  181.0930  179.0270  142.0180 C   0  0  0  0  0  0  0  0  0  0  0  0
  181.1660  179.5450  139.7020 O   0  0  0  0  0  0  0  0  0  0  0  0
  185.2150  179.3380  142.3660 C   0  0  0  0  0  2  0  0  0  0  0  0
  185.1150  178.6060  139.5460 O   0  0  0  0  0  0  0  0  0  0  0  0
  181.1660  180.9020  136.3510 C   0  0  0  0  0  1  0  0  0  0  0  0
  183.2340  179.0060  140.8920 N   0  0  0  0  0  0  0  0  0  0  0  0
  181.8750  180.0400  138.5680 C   0  0  1  0  0  3  0  0  0  0  0  0
  187.5060  177.9460  147.7000 C   0  0  0  0  0  2  0  0  0  0  0  0
  188.9810  177.7550  147.8060 C   0  0  0  0  0  0  0  0  0  0  0  0
  189.6950  178.6460  148.3310 O   0  0  0  0  0  1  0  0  0  0  0  0
  189.5620  176.5790  147.3510 O   0  0  0  0  0  0  0  0  0  0  0  0
  1 20  1  0  0  0  0
  2 24  1  1  0  0  0
  2 12  1  0  0  0  0
  3 11  2  0  0  0  0
  4  3  1  0  0  0  0
  5 27  1  0  0  0  0
  6 18  1  1  0  0  0
  6 28  1  0  0  0  0
  6  5  1  0  0  0  0
  7 24  1  6  0  0  0
  7 17  1  0  0  0  0
  8 17  1  0  0  0  0
  9 26  1  6  0  0  0
  9 28  1  0  0  0  0
 10 20  1  0  0  0  0
 12  8  1  0  0  0  0
 13 12  2  0  0  0  0
 13 11  1  0  0  0  0
 14 22  2  0  0  0  0
 15  9  1  0  0  0  0
 15 18  1  0  0  0  0
 16  1  1  0  0  0  0
 17 10  1  1  0  0  0
 19  7  1  0  0  0  0
 19 16  1  0  0  0  0
 20 29  1  1  0  0  0
 21 22  1  0  0  0  0
 21  4  2  0  0  0  0
 22 13  1  0  0  0  0
 23 14  1  0  0  0  0
 25  5  2  0  0  0  0
 27 14  1  0  0  0  0
 27  2  1  0  0  0  0
 28 23  1  1  0  0  0
 29 30  1  0  0  0  0
 30 31  1  0  0  0  0
 32 30  2  0  0  0  0
M  END
>  <MODEL>
1

>  <REMARK>
 VINA RESULT:      -9.3      0.000      0.000
  Name = 
  2 active torsions:
  status: ('A' for Active; 'I' for Inactive)
    1  A    between atoms: C_20  and  C_29
    2  A    between atoms: C_29  and  C_30
                            x       y       z     vdW  Elec       q    Type
                         _______ _______ _______ _____ _____    ______ ____

>  <TORSDO>
F 2

$$$$
=
 OpenBabel11122410533D

 32 37  0  0  1  0  0  0  0  0999 V2000
  188.0810  177.8270  148.3500 C   0  0  0  0  0  2  0  0  0  0  0  0
  185.1370  178.4700  144.0650 C   0  0  2  0  0  3  0  0  0  0  0  0
  187.5790  178.4740  139.7850 C   0  0  0  0  0  3  0  0  0  0  0  0
  186.3750  178.5690  139.0890 C   0  0  0  0  0  3  0  0  0  0  0  0
  182.6250  178.6210  143.8950 C   0  0  0  0  0  0  0  0  0  0  0  0
  181.3650  178.6920  143.0840 C   0  0  1  0  0  3  0  0  0  0  0  0
  186.3940  177.6240  146.0640 C   0  0  1  0  0  3  0  0  0  0  0  0
  187.6240  178.0970  143.9390 N   0  0  0  0  0  2  0  0  0  0  0  0
  180.4180  178.8150  140.8770 C   0  0  2  0  0  3  0  0  0  0  0  0
  188.9840  177.7100  145.9360 C   0  0  0  0  0  2  0  0  0  0  0  0
  187.5740  178.3910  141.1780 C   0  0  0  0  0  3  0  0  0  0  0  0
  186.3900  178.3100  143.2410 C   0  0  0  0  0  0  0  0  0  0  0  0
  186.3670  178.4120  141.8990 C   0  0  0  0  0  0  0  0  0  0  0  0
  183.9610  178.4540  141.8300 C   0  0  0  0  0  0  0  0  0  0  0  0
  180.0220  180.0680  141.6490 C   0  0  0  0  0  2  0  0  0  0  0  0
  187.5030  179.1480  147.8360 C   0  0  0  0  0  2  0  0  0  0  0  0
  187.6700  177.3950  145.2200 C   0  0  1  0  0  3  0  0  0  0  0  0
  180.8810  180.1110  142.9000 C   0  0  0  0  0  2  0  0  0  0  0  0
  186.3550  178.9530  146.8350 C   0  0  0  0  0  2  0  0  0  0  0  0
  189.0530  177.1490  147.3610 C   0  0  1  0  0  3  0  0  0  0  0  0
  185.1670  178.5740  139.7860 C   0  0  0  0  0  3  0  0  0  0  0  0
  185.1420  178.4940  141.1890 C   0  0  0  0  0  0  0  0  0  0  0  0
  182.7690  178.4800  141.0990 O   0  0  0  0  0  0  0  0  0  0  0  0
  185.1400  177.4520  145.2050 C   0  0  0  0  0  2  0  0  0  0  0  0
  182.5460  178.7790  145.1440 O   0  0  0  0  0  0  0  0  0  0  0  0
  179.2180  177.8940  140.7600 C   0  0  0  0  0  1  0  0  0  0  0  0
  183.9030  178.4090  143.2650 N   0  0  0  0  0  0  0  0  0  0  0  0
  181.5130  178.1330  141.6760 C   0  0  1  0  0  3  0  0  0  0  0  0
  190.4800  177.2750  147.8680 C   0  0  0  0  0  2  0  0  0  0  0  0
  191.3950  176.3780  147.1050 C   0  0  0  0  0  0  0  0  0  0  0  0
  191.5910  175.1990  147.4960 O   0  0  0  0  0  1  0  0  0  0  0  0
  192.0090  176.8360  145.9460 O   0  0  0  0  0  0  0  0  0  0  0  0
  2 24  1  1  0  0  0
  3 11  2  0  0  0  0
  4  3  1  0  0  0  0
  4 21  2  0  0  0  0
  5 25  2  0  0  0  0
  6 18  1  6  0  0  0
  6  5  1  0  0  0  0
  7 24  1  6  0  0  0
  7 19  1  0  0  0  0
  8 17  1  0  0  0  0
  9 26  1  1  0  0  0
  9 15  1  0  0  0  0
  9 28  1  0  0  0  0
 10 20  1  0  0  0  0
 11 13  1  0  0  0  0
 12  8  1  0  0  0  0
 12  2  1  0  0  0  0
 13 12  2  0  0  0  0
 14 27  1  0  0  0  0
 15 18  1  0  0  0  0
 16  1  1  0  0  0  0
 17 10  1  1  0  0  0
 17  7  1  0  0  0  0
 19 16  1  0  0  0  0
 20 29  1  1  0  0  0
 20  1  1  0  0  0  0
 21 22  1  0  0  0  0
 22 14  2  0  0  0  0
 22 13  1  0  0  0  0
 23 14  1  0  0  0  0
 27  5  1  0  0  0  0
 27  2  1  0  0  0  0
 28 23  1  6  0  0  0
 28  6  1  0  0  0  0
 30 31  1  0  0  0  0
 30 29  1  0  0  0  0
 32 30  2  0  0  0  0
M  END
>  <MODEL>
2

>  <REMARK>
 VINA RESULT:      -8.9      2.192      4.606
  Name = 
  2 active torsions:
  status: ('A' for Active; 'I' for Inactive)
    1  A    between atoms: C_20  and  C_29
    2  A    between atoms: C_29  and  C_30
                            x       y       z     vdW  Elec       q    Type
                         _______ _______ _______ _____ _____    ______ ____

>  <TORSDO>
F 2

$$$$
=
 OpenBabel11122410533D

 32 37  0  0  1  0  0  0  0  0999 V2000
  181.9060  179.4090  138.3080 C   0  0  0  0  0  2  0  0  0  0  0  0
  185.6520  178.4900  141.8530 C   0  0  2  0  0  3  0  0  0  0  0  0
  184.2210  178.6920  146.5640 C   0  0  0  0  0  3  0  0  0  0  0  0
  185.4940  178.3020  146.9750 C   0  0  0  0  0  3  0  0  0  0  0  0
  188.0490  177.8080  141.4620 C   0  0  0  0  0  0  0  0  0  0  0  0
  189.3870  177.3620  141.9710 C   0  0  1  0  0  3  0  0  0  0  0  0
  183.8260  178.3700  140.1380 C   0  0  1  0  0  3  0  0  0  0  0  0
  183.2600  178.9170  142.5100 N   0  0  0  0  0  2  0  0  0  0  0  0
  190.7220  176.8750  143.9120 C   0  0  2  0  0  3  0  0  0  0  0  0
  181.4950  179.2590  140.8510 C   0  0  0  0  0  2  0  0  0  0  0  0
  183.9320  178.8020  145.2030 C   0  0  0  0  0  3  0  0  0  0  0  0
  184.6020  178.6290  142.9260 C   0  0  0  0  0  0  0  0  0  0  0  0
  184.9130  178.5340  144.2320 C   0  0  0  0  0  0  0  0  0  0  0  0
  187.1560  177.7970  143.7600 C   0  0  0  0  0  0  0  0  0  0  0  0
  191.3660  178.0290  143.1520 C   0  0  0  0  0  2  0  0  0  0  0  0
  182.9870  180.3940  138.7620 C   0  0  0  0  0  2  0  0  0  0  0  0
  182.7340  178.4470  141.2300 C   0  0  1  0  0  3  0  0  0  0  0  0
  190.3520  178.5130  142.1320 C   0  0  0  0  0  2  0  0  0  0  0  0
  184.1680  179.7090  139.4650 C   0  0  0  0  0  2  0  0  0  0  0  0
  180.9690  178.9490  139.4450 C   0  0  1  0  0  3  0  0  0  0  0  0
  186.4750  178.0160  146.0260 C   0  0  0  0  0  3  0  0  0  0  0  0
  186.2040  178.1240  144.6510 C   0  0  0  0  0  0  0  0  0  0  0  0
  188.4010  177.3420  144.2040 O   0  0  0  0  0  0  0  0  0  0  0  0
  185.0850  177.6920  140.6790 C   0  0  0  0  0  2  0  0  0  0  0  0
  187.9380  178.1000  140.2400 O   0  0  0  0  0  0  0  0  0  0  0  0
  191.5350  175.6130  143.6970 C   0  0  0  0  0  1  0  0  0  0  0  0
  186.9200  177.9310  142.3490 N   0  0  0  0  0  0  0  0  0  0  0  0
  189.3290  176.6940  143.3380 C   0  0  1  0  0  3  0  0  0  0  0  0
  179.6010  179.5910  139.2810 C   0  0  0  0  0  2  0  0  0  0  0  0
  179.5760  180.9500  139.8930 C   0  0  0  0  0  0  0  0  0  0  0  0
  179.9370  181.9500  139.2200 O   0  0  0  0  0  0  0  0  0  0  0  0
  179.1280  181.1170  141.1960 O   0  0  0  0  0  1  0  0  0  0  0  0
  1 16  1  0  0  0  0
  1 20  1  0  0  0  0
  2 24  1  6  0  0  0
  2 27  1  0  0  0  0
  2 12  1  0  0  0  0
  3  4  1  0  0  0  0
  5  6  1  0  0  0  0
  5 27  1  0  0  0  0
  6 18  1  1  0  0  0
  6 28  1  0  0  0  0
  7 19  1  1  0  0  0
  7 24  1  0  0  0  0
  7 17  1  0  0  0  0
  8 12  1  0  0  0  0
  9 26  1  6  0  0  0
 11  3  2  0  0  0  0
 12 13  2  0  0  0  0
 13 22  1  0  0  0  0
 13 11  1  0  0  0  0
 14 23  1  0  0  0  0
 14 22  2  0  0  0  0
 15  9  1  0  0  0  0
 16 19  1  0  0  0  0
 17 10  1  6  0  0  0
 17  8  1  0  0  0  0
 18 15  1  0  0  0  0
 20 29  1  6  0  0  0
 20 10  1  0  0  0  0
 21  4  2  0  0  0  0
 22 21  1  0  0  0  0
 25  5  2  0  0  0  0
 27 14  1  0  0  0  0
 28  9  1  0  0  0  0
 28 23  1  1  0  0  0
 29 30  1  0  0  0  0
 30 32  1  0  0  0  0
 31 30  2  0  0  0  0
M  END
>  <MODEL>
3

>  <REMARK>
 VINA RESULT:      -8.7      2.318      8.054
  Name = 
  2 active torsions:
  status: ('A' for Active; 'I' for Inactive)
    1  A    between atoms: C_20  and  C_29
    2  A    between atoms: C_29  and  C_30
                            x       y       z     vdW  Elec       q    Type
                         _______ _______ _______ _____ _____    ______ ____

>  <TORSDO>
F 2

$$$$
=
 OpenBabel11122410533D

 32 37  0  0  1  0  0  0  0  0999 V2000
  186.7200  178.1640  147.2270 C   0  0  0  0  0  2  0  0  0  0  0  0
  185.4460  178.5040  142.1570 C   0  0  2  0  0  3  0  0  0  0  0  0
  189.2290  178.4020  139.0010 C   0  0  0  0  0  3  0  0  0  0  0  0
  188.3430  178.4220  137.9260 C   0  0  0  0  0  3  0  0  0  0  0  0
  183.1500  178.5560  141.1160 C   0  0  0  0  0  0  0  0  0  0  0  0
  182.2520  178.5440  139.9150 C   0  0  1  0  0  3  0  0  0  0  0  0
  185.9410  177.7960  144.5120 C   0  0  1  0  0  3  0  0  0  0  0  0
  187.8270  178.2160  142.9260 N   0  0  0  0  0  2  0  0  0  0  0  0
  182.1330  178.5320  137.5130 C   0  0  2  0  0  3  0  0  0  0  0  0
  188.4110  177.9700  145.2890 C   0  0  0  0  0  2  0  0  0  0  0  0
  188.7400  178.3820  140.3080 C   0  0  0  0  0  3  0  0  0  0  0  0
  186.9110  178.3530  141.8310 C   0  0  0  0  0  0  0  0  0  0  0  0
  187.3570  178.3920  140.5620 C   0  0  0  0  0  0  0  0  0  0  0  0
  185.1260  178.3440  139.6570 C   0  0  0  0  0  0  0  0  0  0  0  0
  181.4700  179.8040  138.0290 C   0  0  0  0  0  2  0  0  0  0  0  0
  186.3330  179.4380  146.4720 C   0  0  0  0  0  2  0  0  0  0  0  0
  187.4350  177.5750  144.1790 C   0  0  1  0  0  3  0  0  0  0  0  0
  181.8360  179.9340  139.4960 C   0  0  0  0  0  2  0  0  0  0  0  0
  185.6110  179.1570  145.1470 C   0  0  0  0  0  2  0  0  0  0  0  0
  187.9870  177.4770  146.6770 C   0  0  1  0  0  3  0  0  0  0  0  0
  186.9680  178.4140  138.1570 C   0  0  0  0  0  3  0  0  0  0  0  0
  186.4560  178.3970  139.4660 C   0  0  0  0  0  0  0  0  0  0  0  0
  184.2640  178.2940  138.5570 O   0  0  0  0  0  0  0  0  0  0  0  0
  185.0700  177.5400  143.2820 C   0  0  0  0  0  2  0  0  0  0  0  0
  182.6360  178.7680  142.2480 O   0  0  0  0  0  0  0  0  0  0  0  0
  181.0670  177.5640  137.0370 C   0  0  0  0  0  1  0  0  0  0  0  0
  184.5710  178.3620  140.9830 N   0  0  0  0  0  0  0  0  0  0  0  0
  182.8920  177.9280  138.6790 C   0  0  1  0  0  3  0  0  0  0  0  0
  189.1460  177.6780  147.6420 C   0  0  0  0  0  2  0  0  0  0  0  0
  190.2890  176.7880  147.2900 C   0  0  0  0  0  0  0  0  0  0  0  0
  190.1930  175.5450  147.4560 O   0  0  0  0  0  1  0  0  0  0  0  0
  191.4490  177.3280  146.7510 O   0  0  0  0  0  0  0  0  0  0  0  0
  2 24  1  1  0  0  0
  3 11  2  0  0  0  0
  4 21  2  0  0  0  0
  4  3  1  0  0  0  0
  5 25  2  0  0  0  0
  6 18  1  6  0  0  0
  6  5  1  0  0  0  0
  7 24  1  6  0  0  0
  7 19  1  0  0  0  0
  8 17  1  0  0  0  0
  9 26  1  1  0  0  0
  9 15  1  0  0  0  0
  9 28  1  0  0  0  0
 10 20  1  0  0  0  0
 11 13  1  0  0  0  0
 12  2  1  0  0  0  0
 12  8  1  0  0  0  0
 13 12  2  0  0  0  0
 14 27  1  0  0  0  0
 15 18  1  0  0  0  0
 16  1  1  0  0  0  0
 17  7  1  0  0  0  0
 17 10  1  1  0  0  0
 19 16  1  0  0  0  0
 20  1  1  0  0  0  0
 20 29  1  1  0  0  0
 21 22  1  0  0  0  0
 22 14  2  0  0  0  0
 22 13  1  0  0  0  0
 23 14  1  0  0  0  0
 27  5  1  0  0  0  0
 27  2  1  0  0  0  0
 28 23  1  6  0  0  0
 28  6  1  0  0  0  0
 30 31  1  0  0  0  0
 30 29  1  0  0  0  0
 32 30  2  0  0  0  0
M  END
>  <MODEL>
4

>  <REMARK>
 VINA RESULT:      -8.6      2.216      4.504
  Name = 
  2 active torsions:
  status: ('A' for Active; 'I' for Inactive)
    1  A    between atoms: C_20  and  C_29
    2  A    between atoms: C_29  and  C_30
                            x       y       z     vdW  Elec       q    Type
                         _______ _______ _______ _____ _____    ______ ____

>  <TORSDO>
F 2

$$$$
=
 OpenBabel11122410533D

 32 37  0  0  1  0  0  0  0  0999 V2000
  191.4120  177.5100  142.2960 C   0  0  0  0  0  2  0  0  0  0  0  0
  186.3140  178.1560  141.2770 C   0  0  2  0  0  3  0  0  0  0  0  0
  183.4090  178.7160  145.2180 C   0  0  0  0  0  3  0  0  0  0  0  0
  182.3100  178.9250  144.3870 C   0  0  0  0  0  3  0  0  0  0  0  0
  185.1760  178.3720  139.0360 C   0  0  0  0  0  0  0  0  0  0  0  0
  183.9590  178.6350  138.2010 C   0  0  1  0  0  3  0  0  0  0  0  0
  188.7790  178.3990  141.6670 C   0  0  1  0  0  3  0  0  0  0  0  0
  187.2310  178.2180  143.6210 N   0  0  0  0  0  2  0  0  0  0  0  0
  181.5980  179.0950  138.2060 C   0  0  2  0  0  3  0  0  0  0  0  0
  189.6230  178.0040  144.0890 C   0  0  0  0  0  2  0  0  0  0  0  0
  184.6730  178.5100  144.6630 C   0  0  0  0  0  3  0  0  0  0  0  0
  186.0890  178.3170  142.7590 C   0  0  0  0  0  0  0  0  0  0  0  0
  184.8560  178.4980  143.2690 C   0  0  0  0  0  0  0  0  0  0  0  0
  183.8750  178.7860  141.0890 C   0  0  0  0  0  0  0  0  0  0  0  0
  181.8370  177.7720  137.4880 C   0  0  0  0  0  2  0  0  0  0  0  0
  190.4150  176.4110  141.9190 C   0  0  0  0  0  2  0  0  0  0  0  0
  188.5630  178.6290  143.1810 C   0  0  1  0  0  3  0  0  0  0  0  0
  183.2690  177.3610  137.7750 C   0  0  0  0  0  2  0  0  0  0  0  0
  189.1340  176.9560  141.2730 C   0  0  0  0  0  2  0  0  0  0  0  0
  191.0580  178.2450  143.6060 C   0  0  1  0  0  3  0  0  0  0  0  0
  182.4750  178.9340  143.0030 C   0  0  0  0  0  3  0  0  0  0  0  0
  183.7390  178.7250  142.4250 C   0  0  0  0  0  0  0  0  0  0  0  0
  182.7650  179.0670  140.2860 O   0  0  0  0  0  0  0  0  0  0  0  0
  187.5800  178.9070  140.8660 C   0  0  0  0  0  2  0  0  0  0  0  0
  186.2250  177.9720  138.4600 O   0  0  0  0  0  0  0  0  0  0  0  0
  181.2620  180.1690  137.1890 C   0  0  0  0  0  1  0  0  0  0  0  0
  185.1470  178.5410  140.4670 N   0  0  0  0  0  0  0  0  0  0  0  0
  182.8900  179.4490  138.9180 C   0  0  1  0  0  3  0  0  0  0  0  0
  192.0200  177.8320  144.7090 C   0  0  0  0  0  2  0  0  0  0  0  0
  191.5720  176.5670  145.3580 C   0  0  0  0  0  0  0  0  0  0  0  0
  191.8810  175.4580  144.8540 O   0  0  0  0  0  0  0  0  0  0  0  0
  190.8370  176.6140  146.5350 O   0  0  0  0  0  1  0  0  0  0  0  0
  1 20  1  0  0  0  0
  2 24  1  6  0  0  0
  2 12  1  0  0  0  0
  4  3  1  0  0  0  0
  5 27  1  0  0  0  0
  6 18  1  1  0  0  0
  6 28  1  0  0  0  0
  6  5  1  0  0  0  0
  7 24  1  6  0  0  0
  7 17  1  0  0  0  0
  9 26  1  6  0  0  0
  9 28  1  0  0  0  0
 11  3  2  0  0  0  0
 12 13  2  0  0  0  0
 12  8  1  0  0  0  0
 13 11  1  0  0  0  0
 14 22  2  0  0  0  0
 15 18  1  0  0  0  0
 15  9  1  0  0  0  0
 16  1  1  0  0  0  0
 17  8  1  0  0  0  0
 17 10  1  1  0  0  0
 19  7  1  0  0  0  0
 19 16  1  0  0  0  0
 20 10  1  0  0  0  0
 20 29  1  1  0  0  0
 21  4  2  0  0  0  0
 22 21  1  0  0  0  0
 22 13  1  0  0  0  0
 23 14  1  0  0  0  0
 25  5  2  0  0  0  0
 27 14  1  0  0  0  0
 27  2  1  0  0  0  0
 28 23  1  1  0  0  0
 29 30  1  0  0  0  0
 30 32  1  0  0  0  0
 31 30  2  0  0  0  0
M  END
>  <MODEL>
5

>  <REMARK>
 VINA RESULT:      -8.6      2.326      3.160
  Name = 
  2 active torsions:
  status: ('A' for Active; 'I' for Inactive)
    1  A    between atoms: C_20  and  C_29
    2  A    between atoms: C_29  and  C_30
                            x       y       z     vdW  Elec       q    Type
                         _______ _______ _______ _____ _____    ______ ____

>  <TORSDO>
F 2

$$$$
=
 OpenBabel11122410533D

 32 37  0  0  1  0  0  0  0  0999 V2000
  192.5870  176.3960  138.7020 C   0  0  0  0  0  2  0  0  0  0  0  0
  189.4530  177.4640  142.7620 C   0  0  2  0  0  3  0  0  0  0  0  0
  184.9350  179.0560  141.6020 C   0  0  0  0  0  3  0  0  0  0  0  0
  184.5850  179.0680  142.9510 C   0  0  0  0  0  3  0  0  0  0  0  0
  189.8980  177.1250  145.2210 C   0  0  0  0  0  0  0  0  0  0  0  0
  189.4470  177.1320  146.6510 C   0  0  1  0  0  3  0  0  0  0  0  0
  190.7790  176.4260  140.9040 C   0  0  1  0  0  3  0  0  0  0  0  0
  188.6720  177.6640  140.3760 N   0  0  0  0  0  2  0  0  0  0  0  0
  187.6440  177.6050  148.1710 C   0  0  2  0  0  3  0  0  0  0  0  0
  190.1090  177.0810  138.4830 C   0  0  0  0  0  2  0  0  0  0  0  0
  186.2050  178.6260  141.2160 C   0  0  0  0  0  3  0  0  0  0  0  0
  188.3610  177.7830  141.7710 C   0  0  0  0  0  0  0  0  0  0  0  0
  187.1500  178.2120  142.1710 C   0  0  0  0  0  0  0  0  0  0  0  0
  187.6330  177.7660  144.4880 C   0  0  0  0  0  0  0  0  0  0  0  0
  188.8210  178.5130  148.5110 C   0  0  0  0  0  2  0  0  0  0  0  0
  192.6300  177.6520  139.5760 C   0  0  0  0  0  2  0  0  0  0  0  0
  189.6440  176.6880  139.8870 C   0  0  1  0  0  3  0  0  0  0  0  0
  189.8040  178.4180  147.3590 C   0  0  0  0  0  2  0  0  0  0  0  0
  191.8980  177.4800  140.9140 C   0  0  0  0  0  2  0  0  0  0  0  0
  191.2510  176.2070  137.9530 C   0  0  1  0  0  3  0  0  0  0  0  0
  185.5020  178.6450  143.9120 C   0  0  0  0  0  3  0  0  0  0  0  0
  186.7870  178.2110  143.5430 C   0  0  0  0  0  0  0  0  0  0  0  0
  187.2270  177.7250  145.8250 O   0  0  0  0  0  0  0  0  0  0  0  0
  190.2090  176.2170  142.3070 C   0  0  0  0  0  2  0  0  0  0  0  0
  191.1230  176.9440  144.9780 O   0  0  0  0  0  0  0  0  0  0  0  0
  187.5290  176.5140  149.2180 C   0  0  0  0  0  1  0  0  0  0  0  0
  188.9660  177.3510  144.1460 N   0  0  0  0  0  0  0  0  0  0  0  0
  187.9400  176.9890  146.8160 C   0  0  1  0  0  3  0  0  0  0  0  0
  191.4420  176.4970  136.4730 C   0  0  0  0  0  2  0  0  0  0  0  0
  190.2110  176.1570  135.7030 C   0  0  0  0  0  0  0  0  0  0  0  0
  189.7820  174.9750  135.6920 O   0  0  0  0  0  1  0  0  0  0  0  0
  189.5220  177.1510  135.0210 O   0  0  0  0  0  0  0  0  0  0  0  0
  1 16  1  0  0  0  0
  2 24  1  6  0  0  0
  2 27  1  0  0  0  0
  3  4  1  0  0  0  0
  4 21  2  0  0  0  0
  5  6  1  0  0  0  0
  6 28  1  0  0  0  0
  6 18  1  6  0  0  0
  7 19  1  1  0  0  0
  7 24  1  0  0  0  0
  8 12  1  0  0  0  0
  9 15  1  0  0  0  0
  9 26  1  1  0  0  0
 11  3  2  0  0  0  0
 11 13  1  0  0  0  0
 12 13  2  0  0  0  0
 12  2  1  0  0  0  0
 13 22  1  0  0  0  0
 14 23  1  0  0  0  0
 16 19  1  0  0  0  0
 17 10  1  6  0  0  0
 17  8  1  0  0  0  0
 17  7  1  0  0  0  0
 18 15  1  0  0  0  0
 20 29  1  6  0  0  0
 20 10  1  0  0  0  0
 20  1  1  0  0  0  0
 22 21  1  0  0  0  0
 22 14  2  0  0  0  0
 25  5  2  0  0  0  0
 27 14  1  0  0  0  0
 27  5  1  0  0  0  0
 28 23  1  6  0  0  0
 28  9  1  0  0  0  0
 30 29  1  0  0  0  0
 31 30  1  0  0  0  0
 32 30  2  0  0  0  0
M  END
>  <MODEL>
6

>  <REMARK>
 VINA RESULT:      -8.4      4.440      9.095
  Name = 
  2 active torsions:
  status: ('A' for Active; 'I' for Inactive)
    1  A    between atoms: C_20  and  C_29
    2  A    between atoms: C_29  and  C_30
                            x       y       z     vdW  Elec       q    Type
                         _______ _______ _______ _____ _____    ______ ____

>  <TORSDO>
F 2

$$$$
=
 OpenBabel11122410533D

 32 37  0  0  1  0  0  0  0  0999 V2000
  180.8430  179.3470  140.2340 C   0  0  0  0  0  2  0  0  0  0  0  0
  185.9510  178.2530  140.6330 C   0  0  2  0  0  3  0  0  0  0  0  0
  188.4410  178.1380  136.3830 C   0  0  0  0  0  3  0  0  0  0  0  0
  189.6310  177.9240  137.0770 C   0  0  0  0  0  3  0  0  0  0  0  0
  187.3280  177.9320  142.7210 C   0  0  0  0  0  0  0  0  0  0  0  0
  188.6470  177.7300  143.4070 C   0  0  1  0  0  3  0  0  0  0  0  0
  183.6720  179.2990  140.5610 C   0  0  1  0  0  3  0  0  0  0  0  0
  184.8590  178.7750  138.4250 N   0  0  0  0  0  2  0  0  0  0  0  0
  191.0140  177.4110  143.1240 C   0  0  2  0  0  3  0  0  0  0  0  0
  182.4930  179.3710  138.2510 C   0  0  0  0  0  2  0  0  0  0  0  0
  187.2470  178.3070  137.0830 C   0  0  0  0  0  3  0  0  0  0  0  0
  186.0560  178.4400  139.1410 C   0  0  0  0  0  0  0  0  0  0  0  0
  187.2190  178.2550  138.4880 C   0  0  0  0  0  0  0  0  0  0  0  0
  188.4670  178.0550  140.5380 C   0  0  0  0  0  0  0  0  0  0  0  0
  190.4340  176.1850  143.8220 C   0  0  0  0  0  2  0  0  0  0  0  0
  181.4610  177.9630  140.4470 C   0  0  0  0  0  2  0  0  0  0  0  0
  183.7900  179.5570  139.0410 C   0  0  1  0  0  3  0  0  0  0  0  0
  188.9240  176.2750  143.7010 C   0  0  0  0  0  2  0  0  0  0  0  0
  182.9110  178.0210  140.9470 C   0  0  0  0  0  2  0  0  0  0  0  0
  181.2750  180.0230  138.9160 C   0  0  1  0  0  3  0  0  0  0  0  0
  189.6260  177.8860  138.4710 C   0  0  0  0  0  3  0  0  0  0  0  0
  188.4320  178.0510  139.1940 C   0  0  0  0  0  0  0  0  0  0  0  0
  189.6860  177.9070  141.2060 O   0  0  0  0  0  0  0  0  0  0  0  0
  185.0500  179.3380  141.2240 C   0  0  0  0  0  2  0  0  0  0  0  0
  186.2740  177.8470  143.4090 O   0  0  0  0  0  0  0  0  0  0  0  0
  191.7880  178.2440  144.1280 C   0  0  0  0  0  1  0  0  0  0  0  0
  187.2580  178.1850  141.3050 N   0  0  0  0  0  0  0  0  0  0  0  0
  189.8390  178.2090  142.5900 C   0  0  1  0  0  3  0  0  0  0  0  0
  180.1190  180.0200  137.9280 C   0  0  0  0  0  2  0  0  0  0  0  0
  180.3910  180.9440  136.7900 C   0  0  0  0  0  0  0  0  0  0  0  0
  180.2570  180.5400  135.6070 O   0  0  0  0  0  0  0  0  0  0  0  0
  180.7650  182.2580  137.0370 O   0  0  0  0  0  1  0  0  0  0  0  0
  1 16  1  0  0  0  0
  2 24  1  1  0  0  0
  2 27  1  0  0  0  0
  3  4  1  0  0  0  0
  3 11  2  0  0  0  0
  4 21  2  0  0  0  0
  5  6  1  0  0  0  0
  5 25  2  0  0  0  0
  6 18  1  6  0  0  0
  7 19  1  6  0  0  0
  7 24  1  0  0  0  0
  8 17  1  0  0  0  0
  8 12  1  0  0  0  0
  9 15  1  0  0  0  0
  9 26  1  1  0  0  0
 10 20  1  0  0  0  0
 11 13  1  0  0  0  0
 12  2  1  0  0  0  0
 13 12  2  0  0  0  0
 13 22  1  0  0  0  0
 14 23  1  0  0  0  0
 14 27  1  0  0  0  0
 16 19  1  0  0  0  0
 17 10  1  6  0  0  0
 17  7  1  0  0  0  0
 18 15  1  0  0  0  0
 20 29  1  6  0  0  0
 20  1  1  0  0  0  0
 21 22  1  0  0  0  0
 22 14  2  0  0  0  0
 27  5  1  0  0  0  0
 28 23  1  6  0  0  0
 28  9  1  0  0  0  0
 28  6  1  0  0  0  0
 30 32  1  0  0  0  0
 30 29  1  0  0  0  0
 31 30  2  0  0  0  0
M  END
>  <MODEL>
7

>  <REMARK>
 VINA RESULT:      -8.3      3.298      9.250
  Name = 
  2 active torsions:
  status: ('A' for Active; 'I' for Inactive)
    1  A    between atoms: C_20  and  C_29
    2  A    between atoms: C_29  and  C_30
                            x       y       z     vdW  Elec       q    Type
                         _______ _______ _______ _____ _____    ______ ____

>  <TORSDO>
F 2

$$$$
=
 OpenBabel11122410533D

 32 37  0  0  1  0  0  0  0  0999 V2000
  181.6720  179.3400  140.2670 C   0  0  0  0  0  2  0  0  0  0  0  0
  186.1060  178.1930  142.8110 C   0  0  2  0  0  3  0  0  0  0  0  0
  190.0770  177.5240  139.9710 C   0  0  0  0  0  3  0  0  0  0  0  0
  190.8710  177.3680  141.1060 C   0  0  0  0  0  3  0  0  0  0  0  0
  186.5060  178.0920  145.2990 C   0  0  0  0  0  0  0  0  0  0  0  0
  187.4230  177.9450  146.4770 C   0  0  1  0  0  3  0  0  0  0  0  0
  184.1230  179.2710  141.7170 C   0  0  1  0  0  3  0  0  0  0  0  0
  186.0280  178.4730  140.3090 N   0  0  0  0  0  2  0  0  0  0  0  0
  189.6770  177.5450  147.2120 C   0  0  2  0  0  3  0  0  0  0  0  0
  183.9760  179.0940  139.1320 C   0  0  0  0  0  2  0  0  0  0  0  0
  188.7160  177.8000  140.1060 C   0  0  0  0  0  3  0  0  0  0  0  0
  186.8130  178.2000  141.4790 C   0  0  0  0  0  0  0  0  0  0  0  0
  188.1240  177.9140  141.3760 C   0  0  0  0  0  0  0  0  0  0  0  0
  188.4300  177.9320  143.7650 C   0  0  0  0  0  0  0  0  0  0  0  0
  188.7860  176.4220  147.7330 C   0  0  0  0  0  2  0  0  0  0  0  0
  182.0580  177.9770  140.8490 C   0  0  0  0  0  2  0  0  0  0  0  0
  184.8570  179.3450  140.3570 C   0  0  1  0  0  3  0  0  0  0  0  0
  187.4610  176.5300  147.0010 C   0  0  0  0  0  2  0  0  0  0  0  0
  183.1870  178.0640  141.8850 C   0  0  0  0  0  2  0  0  0  0  0  0
  182.6400  179.8450  139.1770 C   0  0  1  0  0  3  0  0  0  0  0  0
  190.3060  177.4950  142.3740 C   0  0  0  0  0  3  0  0  0  0  0  0
  188.9360  177.7700  142.5300 C   0  0  0  0  0  0  0  0  0  0  0  0
  189.2670  177.8390  144.8810 O   0  0  0  0  0  0  0  0  0  0  0  0
  185.1190  179.3590  142.8740 C   0  0  0  0  0  2  0  0  0  0  0  0
  185.2620  178.1110  145.5040 O   0  0  0  0  0  0  0  0  0  0  0  0
  190.0390  178.4740  148.3550 C   0  0  0  0  0  1  0  0  0  0  0  0
  187.0270  178.1770  143.9580 N   0  0  0  0  0  0  0  0  0  0  0  0
  188.8720  178.2990  146.1710 C   0  0  1  0  0  3  0  0  0  0  0  0
  181.9790  179.7500  137.8110 C   0  0  0  0  0  2  0  0  0  0  0  0
  181.1940  180.9820  137.5150 C   0  0  0  0  0  0  0  0  0  0  0  0
  180.2260  180.9330  136.7140 O   0  0  0  0  0  0  0  0  0  0  0  0
  181.5120  182.1770  138.1460 O   0  0  0  0  0  1  0  0  0  0  0  0
  1 16  1  0  0  0  0
  2 24  1  1  0  0  0
  2 27  1  0  0  0  0
  3 11  2  0  0  0  0
  3  4  1  0  0  0  0
  4 21  2  0  0  0  0
  5 25  2  0  0  0  0
  5  6  1  0  0  0  0
  6 18  1  6  0  0  0
  7 19  1  6  0  0  0
  7 24  1  0  0  0  0
  8 17  1  0  0  0  0
  8 12  1  0  0  0  0
  9 15  1  0  0  0  0
  9 26  1  1  0  0  0
 10 20  1  0  0  0  0
 11 13  1  0  0  0  0
 12  2  1  0  0  0  0
 13 12  2  0  0  0  0
 13 22  1  0  0  0  0
 14 27  1  0  0  0  0
 14 23  1  0  0  0  0
 16 19  1  0  0  0  0
 17 10  1  6  0  0  0
 17  7  1  0  0  0  0
 18 15  1  0  0  0  0
 20 29  1  6  0  0  0
 20  1  1  0  0  0  0
 21 22  1  0  0  0  0
 22 14  2  0  0  0  0
 27  5  1  0  0  0  0
 28 23  1  6  0  0  0
 28  6  1  0  0  0  0
 28  9  1  0  0  0  0
 30 29  1  0  0  0  0
 30 32  1  0  0  0  0
 31 30  2  0  0  0  0
M  END
>  <MODEL>
8

>  <REMARK>
 VINA RESULT:      -8.0      2.429      9.301
  Name = 
  2 active torsions:
  status: ('A' for Active; 'I' for Inactive)
    1  A    between atoms: C_20  and  C_29
    2  A    between atoms: C_29  and  C_30
                            x       y       z     vdW  Elec       q    Type
                         _______ _______ _______ _____ _____    ______ ____

>  <TORSDO>
F 2

$$$$
=
 OpenBabel11122410533D

 32 37  0  0  1  0  0  0  0  0999 V2000
  193.1490  174.7850  135.0880 C   0  0  0  0  0  2  0  0  0  0  0  0
  189.2670  176.6970  138.0400 C   0  0  2  0  0  3  0  0  0  0  0  0
  190.4370  177.6700  142.7270 C   0  0  0  0  0  3  0  0  0  0  0  0
  189.1630  178.1910  142.9440 C   0  0  0  0  0  3  0  0  0  0  0  0
  186.9270  177.3280  137.3400 C   0  0  0  0  0  0  0  0  0  0  0  0
  185.5860  177.9300  137.6340 C   0  0  1  0  0  3  0  0  0  0  0  0
  191.1840  176.3170  136.4690 C   0  0  1  0  0  3  0  0  0  0  0  0
  191.6000  176.3810  138.9330 N   0  0  0  0  0  2  0  0  0  0  0  0
  184.1740  178.9390  139.2990 C   0  0  2  0  0  3  0  0  0  0  0  0
  193.4330  175.5710  137.5290 C   0  0  0  0  0  2  0  0  0  0  0  0
  190.7930  177.2060  141.4600 C   0  0  0  0  0  3  0  0  0  0  0  0
  190.2520  176.8070  139.1760 C   0  0  0  0  0  0  0  0  0  0  0  0
  189.8780  177.2440  140.3930 C   0  0  0  0  0  0  0  0  0  0  0  0
  187.6980  177.9030  139.6100 C   0  0  0  0  0  0  0  0  0  0  0  0
  183.5190  177.6480  138.8200 C   0  0  0  0  0  2  0  0  0  0  0  0
  192.0030  173.9830  135.7100 C   0  0  0  0  0  2  0  0  0  0  0  0
  192.2130  176.4910  137.6110 C   0  0  1  0  0  3  0  0  0  0  0  0
  184.5630  176.8880  138.0220 C   0  0  0  0  0  2  0  0  0  0  0  0
  190.8190  174.8610  136.1390 C   0  0  0  0  0  2  0  0  0  0  0  0
  194.0450  175.4940  136.1260 C   0  0  1  0  0  3  0  0  0  0  0  0
  188.2470  178.2530  141.8950 C   0  0  0  0  0  3  0  0  0  0  0  0
  188.5860  177.7870  140.6130 C   0  0  0  0  0  0  0  0  0  0  0  0
  186.4530  178.4940  139.8450 O   0  0  0  0  0  0  0  0  0  0  0  0
  189.9300  177.1490  136.7400 C   0  0  0  0  0  2  0  0  0  0  0  0
  187.0890  176.7280  136.2420 O   0  0  0  0  0  0  0  0  0  0  0  0
  183.4310  180.1280  138.7180 C   0  0  0  0  0  1  0  0  0  0  0  0
  188.0010  177.4030  138.2970 N   0  0  0  0  0  0  0  0  0  0  0  0
  185.6020  178.9250  138.7850 C   0  0  1  0  0  3  0  0  0  0  0  0
  195.3890  174.7900  136.2170 C   0  0  0  0  0  2  0  0  0  0  0  0
  196.5090  175.7660  136.0920 C   0  0  0  0  0  0  0  0  0  0  0  0
  196.3860  176.7710  135.3460 O   0  0  0  0  0  0  0  0  0  0  0  0
  197.6760  175.5810  136.8210 O   0  0  0  0  0  1  0  0  0  0  0  0
  1 16  1  0  0  0  0
  1 20  1  0  0  0  0
  2 24  1  6  0  0  0
  2 27  1  0  0  0  0
  2 12  1  0  0  0  0
  3  4  1  0  0  0  0
  5  6  1  0  0  0  0
  5 27  1  0  0  0  0
  6 18  1  1  0  0  0
  6 28  1  0  0  0  0
  7 19  1  1  0  0  0
  7 24  1  0  0  0  0
  7 17  1  0  0  0  0
  8 12  1  0  0  0  0
  9 26  1  6  0  0  0
 11  3  2  0  0  0  0
 12 13  2  0  0  0  0
 13 22  1  0  0  0  0
 13 11  1  0  0  0  0
 14 23  1  0  0  0  0
 14 22  2  0  0  0  0
 15  9  1  0  0  0  0
 16 19  1  0  0  0  0
 17 10  1  6  0  0  0
 17  8  1  0  0  0  0
 18 15  1  0  0  0  0
 20 29  1  1  0  0  0
 20 10  1  0  0  0  0
 21  4  2  0  0  0  0
 22 21  1  0  0  0  0
 25  5  2  0  0  0  0
 27 14  1  0  0  0  0
 28  9  1  0  0  0  0
 28 23  1  1  0  0  0
 30 29  1  0  0  0  0
 30 32  1  0  0  0  0
 31 30  2  0  0  0  0
M  END
>  <MODEL>
9

>  <REMARK>
 VINA RESULT:      -8.0      7.094      9.068
  Name = 
  2 active torsions:
  status: ('A' for Active; 'I' for Inactive)
    1  A    between atoms: C_20  and  C_29
    2  A    between atoms: C_29  and  C_30
                            x       y       z     vdW  Elec       q    Type
                         _______ _______ _______ _____ _____    ______ ____

>  <TORSDO>
F 2

$$$$
