=
 OpenBabel11122412163D

 34 40  0  0  1  0  0  0  0  0999 V2000
  184.2790  178.6410  144.0160 C   0  0  0  0  0  0  0  0  0  0  0  0
  181.8370  178.8400  143.2440 C   0  0  0  0  0  2  0  0  0  0  0  0
  191.2390  178.1580  143.3460 O   0  0  0  0  0  0  0  0  0  0  0  0
  186.5680  178.0200  144.6170 C   0  0  0  0  0  0  0  0  0  0  0  0
  188.3950  177.9540  142.7870 C   0  0  1  0  0  3  0  0  0  0  0  0
  190.3000  177.0680  141.4290 C   0  0  0  0  0  2  0  0  0  0  0  0
  191.4120  177.0800  142.4720 C   0  0  0  0  0  2  0  0  0  0  0  0
  190.1880  177.0290  145.2170 C   0  0  0  0  0  2  0  0  0  0  0  0
  183.5350  178.3260  141.6880 C   0  0  2  0  0  3  0  0  0  0  0  0
  183.6500  179.9190  139.0030 C   0  0  0  0  0  2  0  0  0  0  0  0
  187.3430  178.6690  141.9350 C   0  0  0  0  0  2  0  0  0  0  0  0
  189.0280  178.0140  145.2180 C   0  0  0  0  0  2  0  0  0  0  0  0
  184.9380  178.6370  141.1700 C   0  0  1  0  0  3  0  0  0  0  0  0
  181.1880  178.8100  141.8610 C   0  0  0  0  0  2  0  0  0  0  0  0
  187.9610  177.5670  144.2200 C   0  0  1  0  0  3  0  0  0  0  0  0
  191.4570  177.6490  144.6320 C   0  0  0  0  0  2  0  0  0  0  0  0
  182.4360  179.9020  139.9530 C   0  0  2  0  0  3  0  0  0  0  0  0
  185.5920  178.2730  143.6310 C   0  0  0  0  0  0  0  0  0  0  0  0
  188.9520  176.7400  142.0590 C   0  0  0  0  0  2  0  0  0  0  0  0
  185.9630  178.0740  142.1710 C   0  0  2  0  0  3  0  0  0  0  0  0
  184.9180  178.4710  146.3480 C   0  0  0  0  0  3  0  0  0  0  0  0
  184.2050  178.5280  138.7020 C   0  0  0  0  0  2  0  0  0  0  0  0
  186.2080  178.0950  145.9710 C   0  0  0  0  0  3  0  0  0  0  0  0
  185.1890  178.0470  139.7760 C   0  0  0  0  0  2  0  0  0  0  0  0
  182.3100  178.6340  140.8300 C   0  0  1  0  0  3  0  0  0  0  0  0
  183.9620  178.7610  145.3750 C   0  0  0  0  0  3  0  0  0  0  0  0
  183.3020  179.0800  142.9620 C   0  0  2  0  0  3  0  0  0  0  0  0
  181.1660  180.0940  139.1360 C   0  0  0  0  0  2  0  0  0  0  0  0
  181.4990  180.6430  137.7590 C   0  0  0  0  0  2  0  0  0  0  0  0
  181.1070  183.7600  136.5860 C   0  0  0  0  0  3  0  0  0  0  0  0
  180.3480  181.7180  135.8160 C   0  0  0  0  0  2  0  0  0  0  0  0
  180.4680  181.6760  137.3400 C   0  0  2  0  0  3  0  0  0  0  0  0
  180.7590  183.0270  135.4680 O   0  0  0  0  0  0  0  0  0  0  0  0
  180.9620  183.0420  137.6820 C   0  0  0  0  0  3  0  0  0  0  0  0
  1 26  1  0  0  0  0
  3 16  1  0  0  0  0
  4 23  2  0  0  0  0
  5 11  1  6  0  0  0
  5 15  1  0  0  0  0
  6 19  1  0  0  0  0
  6  7  1  0  0  0  0
  7  3  1  0  0  0  0
  8 12  1  0  0  0  0
  9 27  1  0  0  0  0
 10 17  1  0  0  0  0
 11 20  1  0  0  0  0
 13  9  1  0  0  0  0
 13 20  1  0  0  0  0
 14  2  1  0  0  0  0
 15  4  1  0  0  0  0
 15 12  1  0  0  0  0
 16  8  1  0  0  0  0
 17 25  1  0  0  0  0
 18  1  2  0  0  0  0
 18  4  1  0  0  0  0
 19  5  1  0  0  0  0
 20 18  1  0  0  0  0
 22 10  1  0  0  0  0
 22 24  1  0  0  0  0
 23 21  1  0  0  0  0
 24 13  1  0  0  0  0
 25  9  1  0  0  0  0
 25 14  1  0  0  0  0
 26 21  2  0  0  0  0
 27  2  1  0  0  0  0
 27  1  1  0  0  0  0
 28 17  1  0  0  0  0
 29 28  1  0  0  0  0
 30 34  2  0  0  0  0
 31 32  1  0  0  0  0
 32 34  1  0  0  0  0
 32 29  1  0  0  0  0
 33 31  1  0  0  0  0
 33 30  1  0  0  0  0
M  END
>  <MODEL>
1

>  <REMARK>
 VINA RESULT:     -11.2      0.000      0.000
  Name = 
  3 active torsions:
  status: ('A' for Active; 'I' for Inactive)
    1  A    between atoms: C_17  and  C_28
    2  A    between atoms: C_28  and  C_29
    3  A    between atoms: C_29  and  C_32
                            x       y       z     vdW  Elec       q    Type
                         _______ _______ _______ _____ _____    ______ ____

>  <TORSDO>
F 3

$$$$
=
 OpenBabel11122412163D

 34 40  0  0  1  0  0  0  0  0999 V2000
  184.3620  178.6160  144.0710 C   0  0  0  0  0  0  0  0  0  0  0  0
  181.9280  178.8110  143.2750 C   0  0  0  0  0  2  0  0  0  0  0  0
  191.3280  178.1410  143.4670 O   0  0  0  0  0  0  0  0  0  0  0  0
  186.6460  177.9990  144.6940 C   0  0  0  0  0  0  0  0  0  0  0  0
  188.4910  177.9320  142.8820 C   0  0  1  0  0  3  0  0  0  0  0  0
  190.4090  177.0480  141.5430 C   0  0  0  0  0  2  0  0  0  0  0  0
  191.5110  177.0620  142.5960 C   0  0  0  0  0  2  0  0  0  0  0  0
  190.2620  177.0130  145.3290 C   0  0  0  0  0  2  0  0  0  0  0  0
  183.6410  178.2970  141.7360 C   0  0  2  0  0  3  0  0  0  0  0  0
  183.7800  179.8890  139.0510 C   0  0  0  0  0  2  0  0  0  0  0  0
  187.4450  178.6450  142.0190 C   0  0  0  0  0  2  0  0  0  0  0  0
  189.1010  177.9960  145.3190 C   0  0  0  0  0  2  0  0  0  0  0  0
  185.0480  178.6100  141.2310 C   0  0  1  0  0  3  0  0  0  0  0  0
  181.2910  178.7790  141.8860 C   0  0  0  0  0  2  0  0  0  0  0  0
  188.0430  177.5470  144.3110 C   0  0  1  0  0  3  0  0  0  0  0  0
  191.5350  177.6330  144.7570 C   0  0  0  0  0  2  0  0  0  0  0  0
  182.5560  179.8710  139.9890 C   0  0  2  0  0  3  0  0  0  0  0  0
  185.6790  178.2490  143.6990 C   0  0  0  0  0  0  0  0  0  0  0  0
  189.0560  176.7190  142.1600 C   0  0  0  0  0  2  0  0  0  0  0  0
  186.0640  178.0490  142.2430 C   0  0  2  0  0  3  0  0  0  0  0  0
  184.9790  178.4480  146.4090 C   0  0  0  0  0  3  0  0  0  0  0  0
  184.3390  178.4980  138.7570 C   0  0  0  0  0  2  0  0  0  0  0  0
  186.2730  178.0740  146.0440 C   0  0  0  0  0  3  0  0  0  0  0  0
  185.3130  178.0190  139.8400 C   0  0  0  0  0  2  0  0  0  0  0  0
  182.4240  178.6040  140.8660 C   0  0  1  0  0  3  0  0  0  0  0  0
  184.0320  178.7360  145.4260 C   0  0  0  0  0  3  0  0  0  0  0  0
  183.3950  179.0530  143.0070 C   0  0  2  0  0  3  0  0  0  0  0  0
  181.2940  180.0600  139.1600 C   0  0  0  0  0  2  0  0  0  0  0  0
  181.4790  179.4750  137.7700 C   0  0  0  0  0  2  0  0  0  0  0  0
  180.5180  176.3800  138.6310 C   0  0  0  0  0  3  0  0  0  0  0  0
  179.3880  178.3960  138.6180 C   0  0  0  0  0  2  0  0  0  0  0  0
  180.4430  178.3950  137.5110 C   0  0  2  0  0  3  0  0  0  0  0  0
  179.5220  177.1260  139.2300 O   0  0  0  0  0  0  0  0  0  0  0  0
  181.0790  177.0520  137.6460 C   0  0  0  0  0  3  0  0  0  0  0  0
  1 26  1  0  0  0  0
  3 16  1  0  0  0  0
  4 23  2  0  0  0  0
  5 11  1  6  0  0  0
  5 15  1  0  0  0  0
  6 19  1  0  0  0  0
  6  7  1  0  0  0  0
  7  3  1  0  0  0  0
  9 27  1  0  0  0  0
 10 17  1  0  0  0  0
 11 20  1  0  0  0  0
 12  8  1  0  0  0  0
 13  9  1  0  0  0  0
 13 20  1  0  0  0  0
 14  2  1  0  0  0  0
 15  4  1  0  0  0  0
 15 12  1  0  0  0  0
 16  8  1  0  0  0  0
 17 25  1  0  0  0  0
 18  1  2  0  0  0  0
 18  4  1  0  0  0  0
 19  5  1  0  0  0  0
 20 18  1  0  0  0  0
 22 10  1  0  0  0  0
 22 24  1  0  0  0  0
 23 21  1  0  0  0  0
 24 13  1  0  0  0  0
 25  9  1  0  0  0  0
 25 14  1  0  0  0  0
 26 21  2  0  0  0  0
 27  2  1  0  0  0  0
 27  1  1  0  0  0  0
 28 17  1  0  0  0  0
 29 28  1  0  0  0  0
 30 33  1  0  0  0  0
 31 33  1  0  0  0  0
 32 34  1  0  0  0  0
 32 29  1  0  0  0  0
 32 31  1  0  0  0  0
 34 30  2  0  0  0  0
M  END
>  <MODEL>
2

>  <REMARK>
 VINA RESULT:     -10.8      1.711      2.287
  Name = 
  3 active torsions:
  status: ('A' for Active; 'I' for Inactive)
    1  A    between atoms: C_17  and  C_28
    2  A    between atoms: C_28  and  C_29
    3  A    between atoms: C_29  and  C_32
                            x       y       z     vdW  Elec       q    Type
                         _______ _______ _______ _____ _____    ______ ____

>  <TORSDO>
F 3

$$$$
=
 OpenBabel11122412163D

 34 40  0  0  1  0  0  0  0  0999 V2000
  182.3090  178.6000  143.6230 C   0  0  0  0  0  0  0  0  0  0  0  0
  183.7940  179.0030  145.6800 C   0  0  0  0  0  2  0  0  0  0  0  0
  180.8090  177.1330  136.9360 O   0  0  0  0  0  0  0  0  0  0  0  0
  181.0320  178.6280  141.5360 C   0  0  0  0  0  0  0  0  0  0  0  0
  182.2130  178.0490  139.3090 C   0  0  1  0  0  3  0  0  0  0  0  0
  182.9170  178.2720  136.9190 C   0  0  0  0  0  2  0  0  0  0  0  0
  181.5840  178.0480  136.2160 C   0  0  0  0  0  2  0  0  0  0  0  0
  179.3460  178.6530  138.1300 C   0  0  0  0  0  2  0  0  0  0  0  0
  184.7520  178.9100  143.5250 C   0  0  2  0  0  3  0  0  0  0  0  0
  187.2780  177.1280  143.0750 C   0  0  0  0  0  2  0  0  0  0  0  0
  183.3490  177.5750  140.2190 C   0  0  0  0  0  2  0  0  0  0  0  0
  179.7050  178.0210  139.4660 C   0  0  0  0  0  2  0  0  0  0  0  0
  184.8150  178.1910  142.1790 C   0  0  1  0  0  3  0  0  0  0  0  0
  185.3100  179.0920  145.8550 C   0  0  0  0  0  2  0  0  0  0  0  0
  180.9810  178.6550  140.0200 C   0  0  1  0  0  3  0  0  0  0  0  0
  179.5150  177.6680  136.9730 C   0  0  0  0  0  2  0  0  0  0  0  0
  186.7470  177.5500  144.4600 C   0  0  2  0  0  3  0  0  0  0  0  0
  182.2710  178.5670  142.2070 C   0  0  0  0  0  0  0  0  0  0  0  0
  182.7300  179.0030  138.2430 C   0  0  0  0  0  2  0  0  0  0  0  0
  183.5460  178.5370  141.3810 C   0  0  2  0  0  3  0  0  0  0  0  0
  179.8930  178.7840  143.6810 C   0  0  0  0  0  3  0  0  0  0  0  0
  187.3880  178.2880  142.0880 C   0  0  0  0  0  2  0  0  0  0  0  0
  179.8550  178.7650  142.2860 C   0  0  0  0  0  3  0  0  0  0  0  0
  186.0630  178.5730  141.3720 C   0  0  0  0  0  2  0  0  0  0  0  0
  185.9450  178.8730  144.4770 C   0  0  1  0  0  3  0  0  0  0  0  0
  181.1140  178.6830  144.3480 C   0  0  0  0  0  3  0  0  0  0  0  0
  183.6140  178.3540  144.3270 C   0  0  2  0  0  3  0  0  0  0  0  0
  187.9150  177.6400  145.4320 C   0  0  0  0  0  2  0  0  0  0  0  0
  189.1660  177.0390  144.8150 C   0  0  0  0  0  2  0  0  0  0  0  0
  191.2390  176.2910  147.3430 C   0  0  0  0  0  3  0  0  0  0  0  0
  191.6290  176.7180  145.1060 C   0  0  0  0  0  2  0  0  0  0  0  0
  190.4010  177.5020  145.5680 C   0  0  2  0  0  3  0  0  0  0  0  0
  192.0560  176.0220  146.2620 O   0  0  0  0  0  0  0  0  0  0  0  0
  190.2770  177.1280  147.0070 C   0  0  0  0  0  3  0  0  0  0  0  0
  1 27  1  0  0  0  0
  1 26  1  0  0  0  0
  2 14  1  0  0  0  0
  3 16  1  0  0  0  0
  4 18  1  0  0  0  0
  4 23  2  0  0  0  0
  5 19  1  6  0  0  0
  5 15  1  0  0  0  0
  5 11  1  0  0  0  0
  6 19  1  0  0  0  0
  7  6  1  0  0  0  0
  7  3  1  0  0  0  0
  8 12  1  0  0  0  0
  9 27  1  0  0  0  0
  9 25  1  0  0  0  0
 10 17  1  0  0  0  0
 11 20  1  0  0  0  0
 12 15  1  0  0  0  0
 13  9  1  0  0  0  0
 15  4  1  0  0  0  0
 16  8  1  0  0  0  0
 17 25  1  0  0  0  0
 17 28  1  0  0  0  0
 18  1  2  0  0  0  0
 20 13  1  0  0  0  0
 20 18  1  0  0  0  0
 21 26  2  0  0  0  0
 22 10  1  0  0  0  0
 23 21  1  0  0  0  0
 24 22  1  0  0  0  0
 24 13  1  0  0  0  0
 25 14  1  0  0  0  0
 27  2  1  0  0  0  0
 29 28  1  0  0  0  0
 29 32  1  0  0  0  0
 31 32  1  0  0  0  0
 31 33  1  0  0  0  0
 32 34  1  0  0  0  0
 33 30  1  0  0  0  0
 34 30  2  0  0  0  0
M  END
>  <MODEL>
3

>  <REMARK>
 VINA RESULT:     -10.4      2.317      9.089
  Name = 
  3 active torsions:
  status: ('A' for Active; 'I' for Inactive)
    1  A    between atoms: C_17  and  C_28
    2  A    between atoms: C_28  and  C_29
    3  A    between atoms: C_29  and  C_32
                            x       y       z     vdW  Elec       q    Type
                         _______ _______ _______ _____ _____    ______ ____

>  <TORSDO>
F 3

$$$$
=
 OpenBabel11122412163D

 34 40  0  0  1  0  0  0  0  0999 V2000
  187.6910  178.0050  140.6500 C   0  0  0  0  0  0  0  0  0  0  0  0
  185.9580  178.8350  138.9460 C   0  0  0  0  0  2  0  0  0  0  0  0
  190.1600  176.0520  146.9120 O   0  0  0  0  0  0  0  0  0  0  0  0
  189.3510  177.6450  142.4110 C   0  0  0  0  0  0  0  0  0  0  0  0
  188.5720  177.3600  144.8610 C   0  0  1  0  0  3  0  0  0  0  0  0
  188.4900  177.7160  147.3350 C   0  0  0  0  0  2  0  0  0  0  0  0
  189.8350  177.1270  147.7450 C   0  0  0  0  0  2  0  0  0  0  0  0
  191.6810  177.1460  145.3730 C   0  0  0  0  0  2  0  0  0  0  0  0
  185.5020  178.9590  141.2580 C   0  0  2  0  0  3  0  0  0  0  0  0
  182.7520  177.9150  142.3100 C   0  0  0  0  0  2  0  0  0  0  0  0
  187.1810  177.2290  144.2350 C   0  0  0  0  0  2  0  0  0  0  0  0
  190.8850  176.6610  144.1700 C   0  0  0  0  0  2  0  0  0  0  0  0
  185.5430  178.2560  142.6140 C   0  0  1  0  0  3  0  0  0  0  0  0
  184.5210  179.3320  139.0960 C   0  0  0  0  0  2  0  0  0  0  0  0
  189.7360  177.6260  143.8790 C   0  0  1  0  0  3  0  0  0  0  0  0
  191.5100  176.2190  146.5760 C   0  0  0  0  0  2  0  0  0  0  0  0
  183.0630  178.2070  140.8280 C   0  0  2  0  0  3  0  0  0  0  0  0
  188.0260  177.9340  142.0250 C   0  0  0  0  0  0  0  0  0  0  0  0
  188.5730  178.3960  145.9750 C   0  0  0  0  0  2  0  0  0  0  0  0
  187.0010  178.2320  143.1060 C   0  0  2  0  0  3  0  0  0  0  0  0
  189.9960  177.5320  140.0680 C   0  0  0  0  0  3  0  0  0  0  0  0
  183.1730  179.0420  143.2510 C   0  0  0  0  0  2  0  0  0  0  0  0
  190.3300  177.4750  141.4210 C   0  0  0  0  0  3  0  0  0  0  0  0
  184.6490  178.9440  143.6540 C   0  0  0  0  0  2  0  0  0  0  0  0
  184.1650  179.2650  140.5870 C   0  0  1  0  0  3  0  0  0  0  0  0
  188.6780  177.7770  139.6830 C   0  0  0  0  0  3  0  0  0  0  0  0
  186.2480  178.1340  140.2530 C   0  0  2  0  0  3  0  0  0  0  0  0
  181.7790  178.6280  140.1260 C   0  0  0  0  0  2  0  0  0  0  0  0
  180.5820  177.9220  140.7410 C   0  0  0  0  0  2  0  0  0  0  0  0
  179.5060  179.9490  143.1860 C   0  0  0  0  0  3  0  0  0  0  0  0
  180.0520  180.3550  140.9780 C   0  0  0  0  0  2  0  0  0  0  0  0
  179.5110  178.9310  141.1170 C   0  0  2  0  0  3  0  0  0  0  0  0
  180.0020  180.8780  142.2920 O   0  0  0  0  0  0  0  0  0  0  0  0
  179.2100  178.8200  142.5740 C   0  0  0  0  0  3  0  0  0  0  0  0
  1 18  1  0  0  0  0
  2 14  1  0  0  0  0
  2 27  1  0  0  0  0
  3  7  1  0  0  0  0
  4 15  1  0  0  0  0
  5 11  1  6  0  0  0
  5 19  1  0  0  0  0
  6  7  1  0  0  0  0
  8 16  1  0  0  0  0
  9 13  1  0  0  0  0
 10 22  1  0  0  0  0
 12  8  1  0  0  0  0
 13 20  1  0  0  0  0
 13 24  1  0  0  0  0
 14 25  1  0  0  0  0
 15 12  1  0  0  0  0
 15  5  1  0  0  0  0
 16  3  1  0  0  0  0
 17 10  1  0  0  0  0
 18  4  2  0  0  0  0
 18 20  1  0  0  0  0
 19  6  1  0  0  0  0
 20 11  1  0  0  0  0
 21 23  2  0  0  0  0
 22 24  1  0  0  0  0
 23  4  1  0  0  0  0
 25 17  1  0  0  0  0
 25  9  1  0  0  0  0
 26 21  1  0  0  0  0
 26  1  2  0  0  0  0
 27  1  1  0  0  0  0
 27  9  1  0  0  0  0
 28 29  1  0  0  0  0
 28 17  1  0  0  0  0
 29 32  1  0  0  0  0
 31 32  1  0  0  0  0
 31 33  1  0  0  0  0
 32 34  1  0  0  0  0
 33 30  1  0  0  0  0
 34 30  2  0  0  0  0
M  END
>  <MODEL>
4

>  <REMARK>
 VINA RESULT:      -9.8      2.533      4.574
  Name = 
  3 active torsions:
  status: ('A' for Active; 'I' for Inactive)
    1  A    between atoms: C_17  and  C_28
    2  A    between atoms: C_28  and  C_29
    3  A    between atoms: C_29  and  C_32
                            x       y       z     vdW  Elec       q    Type
                         _______ _______ _______ _____ _____    ______ ____

>  <TORSDO>
F 3

$$$$
=
 OpenBabel11122412163D

 34 40  0  0  1  0  0  0  0  0999 V2000
  186.0010  178.4270  141.9330 C   0  0  0  0  0  0  0  0  0  0  0  0
  184.9280  178.5510  139.6020 C   0  0  0  0  0  2  0  0  0  0  0  0
  191.1270  177.5940  146.6390 O   0  0  0  0  0  0  0  0  0  0  0  0
  187.0230  177.8600  144.0820 C   0  0  0  0  0  0  0  0  0  0  0  0
  189.5620  177.3780  144.2010 C   0  0  1  0  0  3  0  0  0  0  0  0
  191.6810  176.1830  144.7830 C   0  0  0  0  0  2  0  0  0  0  0  0
  191.6920  176.3610  146.2970 C   0  0  0  0  0  2  0  0  0  0  0  0
  188.8890  176.8870  147.2470 C   0  0  0  0  0  2  0  0  0  0  0  0
  187.1090  177.6880  139.8590 C   0  0  2  0  0  3  0  0  0  0  0  0
  189.3710  178.7240  137.9680 C   0  0  0  0  0  2  0  0  0  0  0  0
  189.5740  177.9480  142.7800 C   0  0  0  0  0  2  0  0  0  0  0  0
  188.2630  177.8910  146.2910 C   0  0  0  0  0  2  0  0  0  0  0  0
  188.4840  177.8470  140.5070 C   0  0  1  0  0  3  0  0  0  0  0  0
  185.4720  178.2740  138.2010 C   0  0  0  0  0  2  0  0  0  0  0  0
  188.1780  177.2930  144.8860 C   0  0  1  0  0  3  0  0  0  0  0  0
  190.2710  177.3390  147.7190 C   0  0  0  0  0  2  0  0  0  0  0  0
  187.8640  178.9320  137.7170 C   0  0  2  0  0  3  0  0  0  0  0  0
  187.1070  177.9480  142.6770 C   0  0  0  0  0  0  0  0  0  0  0  0
  190.2610  176.0290  144.2530 C   0  0  0  0  0  2  0  0  0  0  0  0
  188.3710  177.4560  141.9910 C   0  0  2  0  0  3  0  0  0  0  0  0
  184.7390  178.6930  143.9840 C   0  0  0  0  0  3  0  0  0  0  0  0
  189.7330  177.2830  138.3250 C   0  0  0  0  0  2  0  0  0  0  0  0
  185.8220  178.2090  144.7180 C   0  0  0  0  0  3  0  0  0  0  0  0
  189.5540  176.9890  139.8190 C   0  0  0  0  0  2  0  0  0  0  0  0
  186.9420  177.8640  138.3520 C   0  0  1  0  0  3  0  0  0  0  0  0
  184.8330  178.8190  142.5990 C   0  0  0  0  0  3  0  0  0  0  0  0
  186.1640  178.6840  140.4610 C   0  0  2  0  0  3  0  0  0  0  0  0
  187.6180  179.0030  136.2170 C   0  0  0  0  0  2  0  0  0  0  0  0
  188.5220  178.0260  135.4840 C   0  0  0  0  0  2  0  0  0  0  0  0
  186.3760  175.4550  135.6520 C   0  0  0  0  0  3  0  0  0  0  0  0
  186.2330  177.5150  134.6160 C   0  0  0  0  0  2  0  0  0  0  0  0
  187.6940  177.0630  134.6530 C   0  0  2  0  0  3  0  0  0  0  0  0
  185.5250  176.4640  135.2460 O   0  0  0  0  0  0  0  0  0  0  0  0
  187.6250  175.7410  135.3420 C   0  0  0  0  0  3  0  0  0  0  0  0
  1 26  2  0  0  0  0
  1 18  1  0  0  0  0
  2 27  1  0  0  0  0
  3 16  1  0  0  0  0
  4 23  1  0  0  0  0
  4 15  1  0  0  0  0
  5 11  1  6  0  0  0
  5 19  1  0  0  0  0
  5 15  1  0  0  0  0
  6  7  1  0  0  0  0
  7  3  1  0  0  0  0
  8 16  1  0  0  0  0
  9 27  1  0  0  0  0
  9 13  1  0  0  0  0
 10 22  1  0  0  0  0
 12  8  1  0  0  0  0
 13 20  1  0  0  0  0
 14 25  1  0  0  0  0
 14  2  1  0  0  0  0
 15 12  1  0  0  0  0
 17 10  1  0  0  0  0
 17 25  1  0  0  0  0
 18  4  2  0  0  0  0
 19  6  1  0  0  0  0
 20 18  1  0  0  0  0
 20 11  1  0  0  0  0
 21 23  2  0  0  0  0
 22 24  1  0  0  0  0
 24 13  1  0  0  0  0
 25  9  1  0  0  0  0
 26 21  1  0  0  0  0
 27  1  1  0  0  0  0
 28 17  1  0  0  0  0
 29 28  1  0  0  0  0
 31 32  1  0  0  0  0
 31 33  1  0  0  0  0
 32 34  1  0  0  0  0
 32 29  1  0  0  0  0
 33 30  1  0  0  0  0
 34 30  2  0  0  0  0
M  END
>  <MODEL>
5

>  <REMARK>
 VINA RESULT:      -9.7      3.253      5.071
  Name = 
  3 active torsions:
  status: ('A' for Active; 'I' for Inactive)
    1  A    between atoms: C_17  and  C_28
    2  A    between atoms: C_28  and  C_29
    3  A    between atoms: C_29  and  C_32
                            x       y       z     vdW  Elec       q    Type
                         _______ _______ _______ _____ _____    ______ ____

>  <TORSDO>
F 3

$$$$
=
 OpenBabel11122412163D

 34 40  0  0  1  0  0  0  0  0999 V2000
  190.5990  177.1790  143.0780 C   0  0  0  0  0  0  0  0  0  0  0  0
  192.4100  177.0140  141.2650 C   0  0  0  0  0  2  0  0  0  0  0  0
  184.1340  177.8780  145.6940 O   0  0  0  0  0  0  0  0  0  0  0  0
  188.8740  177.7780  144.7070 C   0  0  0  0  0  0  0  0  0  0  0  0
  186.4270  178.0820  143.9230 C   0  0  1  0  0  3  0  0  0  0  0  0
  184.1810  179.1500  143.6650 C   0  0  0  0  0  2  0  0  0  0  0  0
  183.6600  179.0480  145.0930 C   0  0  0  0  0  2  0  0  0  0  0  0
  185.9890  178.7730  146.9730 C   0  0  0  0  0  2  0  0  0  0  0  0
  190.2330  177.7310  140.7040 C   0  0  2  0  0  3  0  0  0  0  0  0
  188.8120  176.4420  138.2380 C   0  0  0  0  0  2  0  0  0  0  0  0
  186.9320  177.4420  142.6260 C   0  0  0  0  0  2  0  0  0  0  0  0
  186.9550  177.7700  146.3600 C   0  0  0  0  0  2  0  0  0  0  0  0
  188.7300  177.5070  140.8570 C   0  0  1  0  0  3  0  0  0  0  0  0
  192.3670  177.1810  139.7470 C   0  0  0  0  0  2  0  0  0  0  0  0
  187.4860  178.3010  145.0290 C   0  0  1  0  0  3  0  0  0  0  0  0
  184.5540  178.2480  146.9790 C   0  0  0  0  0  2  0  0  0  0  0  0
  190.3220  176.3300  138.5280 C   0  0  2  0  0  3  0  0  0  0  0  0
  189.2810  177.6140  143.3670 C   0  0  0  0  0  0  0  0  0  0  0  0
  185.6870  179.3790  143.6380 C   0  0  0  0  0  2  0  0  0  0  0  0
  188.3070  177.9790  142.2600 C   0  0  2  0  0  3  0  0  0  0  0  0
  191.0920  177.1070  145.4500 C   0  0  0  0  0  3  0  0  0  0  0  0
  188.2780  177.8700  138.3460 C   0  0  0  0  0  2  0  0  0  0  0  0
  189.7990  177.5480  145.7360 C   0  0  0  0  0  3  0  0  0  0  0  0
  187.9190  178.2510  139.7880 C   0  0  0  0  0  2  0  0  0  0  0  0
  190.9160  177.4920  139.3600 C   0  0  1  0  0  3  0  0  0  0  0  0
  191.4840  176.9050  144.1270 C   0  0  0  0  0  3  0  0  0  0  0  0
  190.9630  176.8370  141.6610 C   0  0  2  0  0  3  0  0  0  0  0  0
  191.0720  176.2020  137.2100 C   0  0  0  0  0  2  0  0  0  0  0  0
  191.3470  174.7410  136.8960 C   0  0  0  0  0  2  0  0  0  0  0  0
  194.2170  176.3600  136.2740 C   0  0  0  0  0  3  0  0  0  0  0  0
  193.7470  174.4960  137.5550 C   0  0  0  0  0  2  0  0  0  0  0  0
  192.7670  174.5710  136.3840 C   0  0  2  0  0  3  0  0  0  0  0  0
  194.5800  175.6280  137.3870 O   0  0  0  0  0  0  0  0  0  0  0  0
  193.1890  175.8060  135.6620 C   0  0  0  0  0  3  0  0  0  0  0  0
  1 18  2  0  0  0  0
  1 26  1  0  0  0  0
  2 27  1  0  0  0  0
  3 16  1  0  0  0  0
  4 15  1  0  0  0  0
  4 23  2  0  0  0  0
  5 11  1  6  0  0  0
  5 15  1  0  0  0  0
  6  7  1  0  0  0  0
  7  3  1  0  0  0  0
  8 16  1  0  0  0  0
  9 13  1  0  0  0  0
  9 27  1  0  0  0  0
 10 22  1  0  0  0  0
 10 17  1  0  0  0  0
 12  8  1  0  0  0  0
 13 20  1  0  0  0  0
 14  2  1  0  0  0  0
 15 12  1  0  0  0  0
 17 25  1  0  0  0  0
 18  4  1  0  0  0  0
 19  6  1  0  0  0  0
 19  5  1  0  0  0  0
 20 11  1  0  0  0  0
 20 18  1  0  0  0  0
 21 23  1  0  0  0  0
 22 24  1  0  0  0  0
 24 13  1  0  0  0  0
 25 14  1  0  0  0  0
 25  9  1  0  0  0  0
 26 21  2  0  0  0  0
 27  1  1  0  0  0  0
 28 17  1  0  0  0  0
 29 28  1  0  0  0  0
 30 33  1  0  0  0  0
 32 29  1  0  0  0  0
 32 31  1  0  0  0  0
 33 31  1  0  0  0  0
 34 30  2  0  0  0  0
 34 32  1  0  0  0  0
M  END
>  <MODEL>
6

>  <REMARK>
 VINA RESULT:      -9.5      4.450      8.463
  Name = 
  3 active torsions:
  status: ('A' for Active; 'I' for Inactive)
    1  A    between atoms: C_17  and  C_28
    2  A    between atoms: C_28  and  C_29
    3  A    between atoms: C_29  and  C_32
                            x       y       z     vdW  Elec       q    Type
                         _______ _______ _______ _____ _____    ______ ____

>  <TORSDO>
F 3

$$$$
=
 OpenBabel11122412163D

 34 40  0  0  1  0  0  0  0  0999 V2000
  186.8550  178.2520  140.9000 C   0  0  0  0  0  0  0  0  0  0  0  0
  185.2270  179.0020  139.0610 C   0  0  0  0  0  2  0  0  0  0  0  0
  188.8990  176.3770  147.3370 O   0  0  0  0  0  0  0  0  0  0  0  0
  188.3800  177.9670  142.7920 C   0  0  0  0  0  0  0  0  0  0  0  0
  187.4170  177.6160  145.1670 C   0  0  1  0  0  3  0  0  0  0  0  0
  187.1100  177.9450  147.6280 C   0  0  0  0  0  2  0  0  0  0  0  0
  188.4470  177.4250  148.1450 C   0  0  0  0  0  2  0  0  0  0  0  0
  190.4800  177.5670  145.9360 C   0  0  0  0  0  2  0  0  0  0  0  0
  184.5740  179.0800  141.3280 C   0  0  2  0  0  3  0  0  0  0  0  0
  181.8070  177.8780  142.1410 C   0  0  0  0  0  2  0  0  0  0  0  0
  186.0920  177.4160  144.4270 C   0  0  0  0  0  2  0  0  0  0  0  0
  189.8140  177.0500  144.6680 C   0  0  0  0  0  2  0  0  0  0  0  0
  184.5400  178.3680  142.6790 C   0  0  1  0  0  3  0  0  0  0  0  0
  183.7570  179.4190  139.0940 C   0  0  0  0  0  2  0  0  0  0  0  0
  188.6420  177.9550  144.2870 C   0  0  1  0  0  3  0  0  0  0  0  0
  190.2610  176.6210  147.1160 C   0  0  0  0  0  2  0  0  0  0  0  0
  182.2240  178.2000  140.6920 C   0  0  2  0  0  3  0  0  0  0  0  0
  187.0780  178.1860  142.2980 C   0  0  0  0  0  0  0  0  0  0  0  0
  187.2690  178.6410  146.2820 C   0  0  0  0  0  2  0  0  0  0  0  0
  185.9510  178.4180  143.2910 C   0  0  2  0  0  3  0  0  0  0  0  0
  189.2230  177.9110  140.5100 C   0  0  0  0  0  3  0  0  0  0  0  0
  182.0870  179.0180  143.1190 C   0  0  0  0  0  2  0  0  0  0  0  0
  189.4460  177.8590  141.8860 C   0  0  0  0  0  3  0  0  0  0  0  0
  183.5270  178.9960  143.6440 C   0  0  0  0  0  2  0  0  0  0  0  0
  183.2830  179.3190  140.5490 C   0  0  1  0  0  3  0  0  0  0  0  0
  187.9300  178.0870  140.0180 C   0  0  0  0  0  3  0  0  0  0  0  0
  185.4450  178.3060  140.3850 C   0  0  2  0  0  3  0  0  0  0  0  0
  180.9820  178.5580  139.8880 C   0  0  0  0  0  2  0  0  0  0  0  0
  180.5220  179.9670  140.2200 C   0  0  0  0  0  2  0  0  0  0  0  0
  181.1800  181.9410  137.5900 C   0  0  0  0  0  3  0  0  0  0  0  0
  180.2570  179.8270  137.7370 C   0  0  0  0  0  2  0  0  0  0  0  0
  179.9100  180.6240  138.9950 C   0  0  2  0  0  3  0  0  0  0  0  0
  181.0260  180.7230  136.9560 O   0  0  0  0  0  0  0  0  0  0  0  0
  180.5660  181.9430  138.7570 C   0  0  0  0  0  3  0  0  0  0  0  0
  1 18  1  0  0  0  0
  2 14  1  0  0  0  0
  2 27  1  0  0  0  0
  3  7  1  0  0  0  0
  4 15  1  0  0  0  0
  5 11  1  6  0  0  0
  5 19  1  0  0  0  0
  6  7  1  0  0  0  0
  8 16  1  0  0  0  0
  9 13  1  0  0  0  0
 10 22  1  0  0  0  0
 12  8  1  0  0  0  0
 13 20  1  0  0  0  0
 13 24  1  0  0  0  0
 14 25  1  0  0  0  0
 15 12  1  0  0  0  0
 15  5  1  0  0  0  0
 16  3  1  0  0  0  0
 17 10  1  0  0  0  0
 18  4  2  0  0  0  0
 18 20  1  0  0  0  0
 19  6  1  0  0  0  0
 20 11  1  0  0  0  0
 21 23  2  0  0  0  0
 22 24  1  0  0  0  0
 23  4  1  0  0  0  0
 25 17  1  0  0  0  0
 25  9  1  0  0  0  0
 26 21  1  0  0  0  0
 26  1  2  0  0  0  0
 27  1  1  0  0  0  0
 27  9  1  0  0  0  0
 28 29  1  0  0  0  0
 28 17  1  0  0  0  0
 30 34  2  0  0  0  0
 31 32  1  0  0  0  0
 32 29  1  0  0  0  0
 33 30  1  0  0  0  0
 33 31  1  0  0  0  0
 34 32  1  0  0  0  0
M  END
>  <MODEL>
7

>  <REMARK>
 VINA RESULT:      -9.3      1.572      3.766
  Name = 
  3 active torsions:
  status: ('A' for Active; 'I' for Inactive)
    1  A    between atoms: C_17  and  C_28
    2  A    between atoms: C_28  and  C_29
    3  A    between atoms: C_29  and  C_32
                            x       y       z     vdW  Elec       q    Type
                         _______ _______ _______ _____ _____    ______ ____

>  <TORSDO>
F 3

$$$$
=
 OpenBabel11122412163D

 34 40  0  0  1  0  0  0  0  0999 V2000
  185.4940  178.6320  142.0220 C   0  0  0  0  0  0  0  0  0  0  0  0
  184.7930  178.5790  139.5520 C   0  0  0  0  0  2  0  0  0  0  0  0
  189.8450  178.2530  147.5040 O   0  0  0  0  0  0  0  0  0  0  0  0
  186.1830  178.2310  144.3350 C   0  0  0  0  0  0  0  0  0  0  0  0
  188.6820  177.8380  144.8740 C   0  0  1  0  0  3  0  0  0  0  0  0
  190.7100  176.7490  145.8510 C   0  0  0  0  0  2  0  0  0  0  0  0
  190.4830  177.0200  147.3340 C   0  0  0  0  0  2  0  0  0  0  0  0
  187.5560  177.5130  147.8070 C   0  0  0  0  0  2  0  0  0  0  0  0
  186.9260  177.8030  140.1960 C   0  0  2  0  0  3  0  0  0  0  0  0
  189.4310  178.7920  138.6110 C   0  0  0  0  0  2  0  0  0  0  0  0
  188.9020  178.3200  143.4370 C   0  0  0  0  0  2  0  0  0  0  0  0
  187.0640  178.4360  146.7010 C   0  0  0  0  0  2  0  0  0  0  0  0
  188.1800  178.0440  141.0350 C   0  0  1  0  0  3  0  0  0  0  0  0
  185.5530  178.2340  138.2720 C   0  0  0  0  0  2  0  0  0  0  0  0
  187.2110  177.7510  145.3430 C   0  0  1  0  0  3  0  0  0  0  0  0
  188.8380  178.0370  148.4540 C   0  0  0  0  0  2  0  0  0  0  0  0
  187.9770  178.9360  138.1190 C   0  0  2  0  0  3  0  0  0  0  0  0
  186.4820  178.2350  142.9570 C   0  0  0  0  0  0  0  0  0  0  0  0
  189.3940  176.5170  145.1210 C   0  0  0  0  0  2  0  0  0  0  0  0
  187.8470  177.7430  142.5070 C   0  0  2  0  0  3  0  0  0  0  0  0
  183.9230  178.9830  143.8340 C   0  0  0  0  0  3  0  0  0  0  0  0
  189.7650  177.3880  139.1130 C   0  0  0  0  0  2  0  0  0  0  0  0
  184.8900  178.5800  144.7560 C   0  0  0  0  0  3  0  0  0  0  0  0
  189.3630  177.1810  140.5780 C   0  0  0  0  0  2  0  0  0  0  0  0
  186.9910  177.8810  138.6730 C   0  0  1  0  0  3  0  0  0  0  0  0
  184.2290  179.0270  142.4740 C   0  0  0  0  0  3  0  0  0  0  0  0
  185.8780  178.8030  140.5800 C   0  0  2  0  0  3  0  0  0  0  0  0
  187.9650  178.9070  136.5970 C   0  0  0  0  0  2  0  0  0  0  0  0
  187.5020  177.5490  136.0950 C   0  0  0  0  0  2  0  0  0  0  0  0
  190.3320  175.9160  135.3430 C   0  0  0  0  0  3  0  0  0  0  0  0
  188.1450  175.5980  134.6710 C   0  0  0  0  0  2  0  0  0  0  0  0
  188.3820  177.0820  134.9500 C   0  0  2  0  0  3  0  0  0  0  0  0
  189.3930  174.9870  134.9400 O   0  0  0  0  0  0  0  0  0  0  0  0
  189.8130  177.1270  135.3690 C   0  0  0  0  0  3  0  0  0  0  0  0
  1 26  2  0  0  0  0
  1 18  1  0  0  0  0
  2 27  1  0  0  0  0
  3 16  1  0  0  0  0
  4 23  1  0  0  0  0
  4 15  1  0  0  0  0
  5 11  1  6  0  0  0
  5 19  1  0  0  0  0
  5 15  1  0  0  0  0
  6  7  1  0  0  0  0
  7  3  1  0  0  0  0
  8 16  1  0  0  0  0
  9 27  1  0  0  0  0
  9 13  1  0  0  0  0
 10 22  1  0  0  0  0
 12  8  1  0  0  0  0
 13 20  1  0  0  0  0
 14 25  1  0  0  0  0
 14  2  1  0  0  0  0
 15 12  1  0  0  0  0
 17 10  1  0  0  0  0
 17 25  1  0  0  0  0
 18  4  2  0  0  0  0
 19  6  1  0  0  0  0
 20 18  1  0  0  0  0
 20 11  1  0  0  0  0
 21 23  2  0  0  0  0
 22 24  1  0  0  0  0
 24 13  1  0  0  0  0
 25  9  1  0  0  0  0
 26 21  1  0  0  0  0
 27  1  1  0  0  0  0
 28 17  1  0  0  0  0
 29 28  1  0  0  0  0
 30 34  2  0  0  0  0
 31 33  1  0  0  0  0
 31 32  1  0  0  0  0
 32 34  1  0  0  0  0
 32 29  1  0  0  0  0
 33 30  1  0  0  0  0
M  END
>  <MODEL>
8

>  <REMARK>
 VINA RESULT:      -9.2      3.513      5.673
  Name = 
  3 active torsions:
  status: ('A' for Active; 'I' for Inactive)
    1  A    between atoms: C_17  and  C_28
    2  A    between atoms: C_28  and  C_29
    3  A    between atoms: C_29  and  C_32
                            x       y       z     vdW  Elec       q    Type
                         _______ _______ _______ _____ _____    ______ ____

>  <TORSDO>
F 3

$$$$
=
 OpenBabel11122412163D

 34 40  0  0  1  0  0  0  0  0999 V2000
  187.4340  178.0610  140.7660 C   0  0  0  0  0  0  0  0  0  0  0  0
  185.6080  178.9110  139.1720 C   0  0  0  0  0  2  0  0  0  0  0  0
  190.2490  176.0280  146.8540 O   0  0  0  0  0  0  0  0  0  0  0  0
  189.1890  177.6810  142.4280 C   0  0  0  0  0  0  0  0  0  0  0  0
  188.5480  177.3610  144.9130 C   0  0  1  0  0  3  0  0  0  0  0  0
  188.6030  177.6840  147.3930 C   0  0  0  0  0  2  0  0  0  0  0  0
  189.9690  177.0910  147.7190 C   0  0  0  0  0  2  0  0  0  0  0  0
  191.6810  177.1460  145.2480 C   0  0  0  0  0  2  0  0  0  0  0  0
  185.2810  179.0030  141.5080 C   0  0  2  0  0  3  0  0  0  0  0  0
  182.5940  177.9390  142.6960 C   0  0  0  0  0  2  0  0  0  0  0  0
  187.1240  177.2360  144.3640 C   0  0  0  0  0  2  0  0  0  0  0  0
  190.8190  176.6750  144.0850 C   0  0  0  0  0  2  0  0  0  0  0  0
  185.3980  178.2820  142.8490 C   0  0  1  0  0  3  0  0  0  0  0  0
  184.1810  179.4030  139.4090 C   0  0  0  0  0  2  0  0  0  0  0  0
  189.6550  177.6420  143.8710 C   0  0  1  0  0  3  0  0  0  0  0  0
  191.5780  176.2030  146.4470 C   0  0  0  0  0  2  0  0  0  0  0  0
  182.8220  178.2520  141.2030 C   0  0  2  0  0  3  0  0  0  0  0  0
  187.8440  177.9720  142.1190 C   0  0  0  0  0  0  0  0  0  0  0  0
  188.6100  178.3820  146.0390 C   0  0  0  0  0  2  0  0  0  0  0  0
  186.8810  178.2530  143.2600 C   0  0  2  0  0  3  0  0  0  0  0  0
  189.7030  177.6010  140.0510 C   0  0  0  0  0  3  0  0  0  0  0  0
  183.0660  179.0540  143.6270 C   0  0  0  0  0  2  0  0  0  0  0  0
  190.1120  177.5260  141.3820 C   0  0  0  0  0  3  0  0  0  0  0  0
  184.5630  178.9540  143.9470 C   0  0  0  0  0  2  0  0  0  0  0  0
  183.9080  179.3150  140.9160 C   0  0  1  0  0  3  0  0  0  0  0  0
  188.3660  177.8480  139.7430 C   0  0  0  0  0  3  0  0  0  0  0  0
  185.9710  178.1930  140.4520 C   0  0  2  0  0  3  0  0  0  0  0  0
  181.5010  178.6800  140.5800 C   0  0  0  0  0  2  0  0  0  0  0  0
  181.1590  177.7900  139.3970 C   0  0  0  0  0  2  0  0  0  0  0  0
  180.4310  174.5640  138.8410 C   0  0  0  0  0  3  0  0  0  0  0  0
  182.3360  175.8060  138.4320 C   0  0  0  0  0  2  0  0  0  0  0  0
  181.6160  176.3660  139.6590 C   0  0  2  0  0  3  0  0  0  0  0  0
  181.5310  174.7180  138.0200 O   0  0  0  0  0  0  0  0  0  0  0  0
  180.4260  175.4760  139.7930 C   0  0  0  0  0  3  0  0  0  0  0  0
  1 18  1  0  0  0  0
  2 14  1  0  0  0  0
  2 27  1  0  0  0  0
  3  7  1  0  0  0  0
  4 15  1  0  0  0  0
  5 11  1  6  0  0  0
  5 19  1  0  0  0  0
  6  7  1  0  0  0  0
  8 16  1  0  0  0  0
  9 13  1  0  0  0  0
 10 22  1  0  0  0  0
 12  8  1  0  0  0  0
 13 20  1  0  0  0  0
 13 24  1  0  0  0  0
 14 25  1  0  0  0  0
 15 12  1  0  0  0  0
 15  5  1  0  0  0  0
 16  3  1  0  0  0  0
 17 10  1  0  0  0  0
 18  4  2  0  0  0  0
 18 20  1  0  0  0  0
 19  6  1  0  0  0  0
 20 11  1  0  0  0  0
 21 23  2  0  0  0  0
 22 24  1  0  0  0  0
 23  4  1  0  0  0  0
 25 17  1  0  0  0  0
 25  9  1  0  0  0  0
 26 21  1  0  0  0  0
 26  1  2  0  0  0  0
 27  1  1  0  0  0  0
 27  9  1  0  0  0  0
 28 17  1  0  0  0  0
 29 32  1  0  0  0  0
 29 28  1  0  0  0  0
 30 34  2  0  0  0  0
 31 32  1  0  0  0  0
 32 34  1  0  0  0  0
 33 31  1  0  0  0  0
 33 30  1  0  0  0  0
M  END
>  <MODEL>
9

>  <REMARK>
 VINA RESULT:      -9.2      2.753      4.821
  Name = 
  3 active torsions:
  status: ('A' for Active; 'I' for Inactive)
    1  A    between atoms: C_17  and  C_28
    2  A    between atoms: C_28  and  C_29
    3  A    between atoms: C_29  and  C_32
                            x       y       z     vdW  Elec       q    Type
                         _______ _______ _______ _____ _____    ______ ____

>  <TORSDO>
F 3

$$$$
