=
 OpenBabel11122410573D

 31 35  0  0  1  0  0  0  0  0999 V2000
  188.6340  178.1370  140.0040 C   0  0  0  0  0  0  0  0  0  0  0  0
  185.9120  178.7350  142.5150 N   0  0  0  0  0  0  0  0  0  0  0  0
  184.6260  178.7350  141.8500 C   0  0  0  0  0  0  0  0  0  0  0  0
  183.2610  178.5870  139.8400 C   0  0  0  0  0  0  0  0  0  0  0  0
  187.0920  178.2300  141.8590 C   0  0  0  0  0  0  0  0  0  0  0  0
  189.3810  177.2200  140.6770 N   0  0  0  0  0  0  0  0  0  0  0  0
  184.5150  178.6620  140.4510 C   0  0  0  0  0  3  0  0  0  0  0  0
  186.3220  177.3140  144.4570 C   0  0  2  0  0  3  0  0  0  0  0  0
  189.1240  178.6620  138.4090 Cl  0  0  0  0  0  0  0  0  0  0  0  0
  183.5390  178.8050  144.0110 O   0  0  0  0  0  0  0  0  0  0  0  0
  183.1450  178.5000  138.0950 Cl  0  0  0  0  0  0  0  0  0  0  0  0
  187.5310  176.8730  143.8270 O   0  0  0  0  0  0  0  0  0  0  0  0
  185.9810  178.7310  143.9870 C   0  0  2  0  0  3  0  0  0  0  0  0
  187.4770  178.6630  140.5850 C   0  0  0  0  0  3  0  0  0  0  0  0
  182.1030  178.5650  140.6190 C   0  0  0  0  0  3  0  0  0  0  0  0
  187.8860  177.2880  142.5360 C   0  0  0  0  0  0  0  0  0  0  0  0
  189.0350  176.7900  141.9200 C   0  0  0  0  0  3  0  0  0  0  0  0
  184.7140  179.3020  144.6380 C   0  0  0  0  0  2  0  0  0  0  0  0
  183.4510  178.7310  142.6230 C   0  0  0  0  0  0  0  0  0  0  0  0
  182.1980  178.6350  142.0100 C   0  0  0  0  0  3  0  0  0  0  0  0
  186.4780  177.2420  145.9680 C   0  0  0  0  0  2  0  0  0  0  0  0
  187.2220  178.8600  147.7220 C   0  0  0  0  0  1  0  0  0  0  0  0
  187.5970  178.1710  146.4230 C   0  0  1  0  0  3  0  0  0  0  0  0
  191.3940  176.5560  147.3590 N   0  0  0  0  0  0  0  0  0  0  0  0
  188.9780  176.5310  147.6970 C   0  0  0  0  0  2  0  0  0  0  0  0
  189.9610  178.6350  144.8490 O   0  0  0  0  0  0  0  0  0  0  0  0
  192.5790  175.7220  147.4410 C   0  0  0  0  0  1  0  0  0  0  0  0
  190.2500  175.6880  147.6140 C   0  0  0  0  0  2  0  0  0  0  0  0
  190.0250  177.7710  145.7640 C   0  0  0  0  0  0  0  0  0  0  0  0
  188.8650  177.4500  146.5620 N   0  0  0  0  0  0  0  0  0  0  0  0
  191.3050  177.0260  145.9800 C   0  0  0  0  0  2  0  0  0  0  0  0
  1 14  2  0  0  0  0
  1  6  1  0  0  0  0
  2 13  1  0  0  0  0
  3  2  1  0  0  0  0
  3 19  1  0  0  0  0
  4  7  1  0  0  0  0
  4 15  2  0  0  0  0
  5  2  1  0  0  0  0
  5 16  2  0  0  0  0
  6 17  2  0  0  0  0
  7  3  2  0  0  0  0
  8 21  1  1  0  0  0
  9  1  1  0  0  0  0
 10 18  1  0  0  0  0
 11  4  1  0  0  0  0
 12  8  1  0  0  0  0
 13  8  1  0  0  0  0
 13 18  1  1  0  0  0
 14  5  1  0  0  0  0
 15 20  1  0  0  0  0
 16 12  1  0  0  0  0
 17 16  1  0  0  0  0
 19 10  1  0  0  0  0
 20 19  2  0  0  0  0
 21 23  1  0  0  0  0
 23 30  1  0  0  0  0
 23 22  1  1  0  0  0
 24 27  1  0  0  0  0
 24 28  1  0  0  0  0
 26 29  2  0  0  0  0
 28 25  1  0  0  0  0
 29 31  1  0  0  0  0
 29 30  1  0  0  0  0
 30 25  1  0  0  0  0
 31 24  1  0  0  0  0
M  END
>  <MODEL>
1

>  <REMARK>
 VINA RESULT:      -8.4      0.000      0.000
  Name = 
  3 active torsions:
  status: ('A' for Active; 'I' for Inactive)
    1  A    between atoms: C_5  and  C_16
    2  A    between atoms: C_5  and  N_30
    3  A    between atoms: C_10  and  C_16
                            x       y       z     vdW  Elec       q    Type
                         _______ _______ _______ _____ _____    ______ ____

>  <TORSDO>
F 3

$$$$
=
 OpenBabel11122410573D

 31 35  0  0  1  0  0  0  0  0999 V2000
  188.6880  177.2470  141.4070 C   0  0  0  0  0  0  0  0  0  0  0  0
  186.4570  177.7170  144.3850 N   0  0  0  0  0  0  0  0  0  0  0  0
  187.2570  177.7710  145.5920 C   0  0  0  0  0  0  0  0  0  0  0  0
  189.4020  177.6610  146.7380 C   0  0  0  0  0  0  0  0  0  0  0  0
  187.0600  177.8510  143.0830 C   0  0  0  0  0  0  0  0  0  0  0  0
  188.1470  178.1620  140.5580 N   0  0  0  0  0  0  0  0  0  0  0  0
  188.6410  177.5280  145.5740 C   0  0  0  0  0  3  0  0  0  0  0  0
  184.8370  179.4690  143.8730 C   0  0  2  0  0  3  0  0  0  0  0  0
  190.0590  176.2870  140.8980 Cl  0  0  0  0  0  0  0  0  0  0  0  0
  185.2820  178.3930  146.8420 O   0  0  0  0  0  0  0  0  0  0  0  0
  191.1240  177.3510  146.6950 Cl  0  0  0  0  0  0  0  0  0  0  0  0
  185.3970  179.5440  142.5560 O   0  0  0  0  0  0  0  0  0  0  0  0
  185.0240  178.0570  144.4360 C   0  0  2  0  0  3  0  0  0  0  0  0
  188.1520  177.0720  142.6850 C   0  0  0  0  0  3  0  0  0  0  0  0
  188.7920  178.0570  147.9310 C   0  0  0  0  0  3  0  0  0  0  0  0
  186.5130  178.7830  142.1840 C   0  0  0  0  0  0  0  0  0  0  0  0
  187.0790  178.9250  140.9150 C   0  0  0  0  0  3  0  0  0  0  0  0
  184.4230  177.8730  145.8360 C   0  0  0  0  0  2  0  0  0  0  0  0
  186.6520  178.1510  146.8030 C   0  0  0  0  0  0  0  0  0  0  0  0
  187.4180  178.3040  147.9620 C   0  0  0  0  0  3  0  0  0  0  0  0
  183.3710  179.8700  143.8290 C   0  0  0  0  0  2  0  0  0  0  0  0
  181.3580  178.4550  144.2680 C   0  0  0  0  0  1  0  0  0  0  0  0
  182.5250  178.7040  143.3310 C   0  0  1  0  0  3  0  0  0  0  0  0
  180.6770  178.8550  139.5280 N   0  0  0  0  0  0  0  0  0  0  0  0
  180.8170  179.7010  141.8120 C   0  0  0  0  0  2  0  0  0  0  0  0
  183.6500  177.5210  140.9620 O   0  0  0  0  0  0  0  0  0  0  0  0
  180.2650  179.2200  138.1850 C   0  0  0  0  0  1  0  0  0  0  0  0
  180.5480  180.0530  140.3490 C   0  0  0  0  0  2  0  0  0  0  0  0
  182.6440  178.2660  140.8250 C   0  0  0  0  0  0  0  0  0  0  0  0
  182.0550  178.9320  141.9630 N   0  0  0  0  0  0  0  0  0  0  0  0
  182.0930  178.5090  139.4540 C   0  0  0  0  0  2  0  0  0  0  0  0
  1 14  1  0  0  0  0
  2 13  1  0  0  0  0
  2  3  1  0  0  0  0
  3 19  1  0  0  0  0
  4 15  2  0  0  0  0
  5  2  1  0  0  0  0
  6 17  1  0  0  0  0
  6  1  2  0  0  0  0
  7  3  2  0  0  0  0
  7  4  1  0  0  0  0
  8 21  1  6  0  0  0
  8 13  1  0  0  0  0
  9  1  1  0  0  0  0
 11  4  1  0  0  0  0
 12  8  1  0  0  0  0
 13 18  1  1  0  0  0
 14  5  2  0  0  0  0
 15 20  1  0  0  0  0
 16 12  1  0  0  0  0
 16  5  1  0  0  0  0
 17 16  2  0  0  0  0
 18 10  1  0  0  0  0
 19 10  1  0  0  0  0
 19 20  2  0  0  0  0
 23 21  1  0  0  0  0
 23 22  1  1  0  0  0
 24 28  1  0  0  0  0
 25 30  1  0  0  0  0
 27 24  1  0  0  0  0
 28 25  1  0  0  0  0
 29 26  2  0  0  0  0
 29 30  1  0  0  0  0
 30 23  1  0  0  0  0
 31 24  1  0  0  0  0
 31 29  1  0  0  0  0
M  END
>  <MODEL>
2

>  <REMARK>
 VINA RESULT:      -7.9      2.682      7.425
  Name = 
  3 active torsions:
  status: ('A' for Active; 'I' for Inactive)
    1  A    between atoms: C_5  and  C_16
    2  A    between atoms: C_5  and  N_30
    3  A    between atoms: C_10  and  C_16
                            x       y       z     vdW  Elec       q    Type
                         _______ _______ _______ _____ _____    ______ ____

>  <TORSDO>
F 3

$$$$
=
 OpenBabel11122410573D

 31 35  0  0  1  0  0  0  0  0999 V2000
  189.9220  176.0650  142.7620 C   0  0  0  0  0  0  0  0  0  0  0  0
  186.5600  177.5220  143.5650 N   0  0  0  0  0  0  0  0  0  0  0  0
  186.5240  177.9300  144.9540 C   0  0  0  0  0  0  0  0  0  0  0  0
  187.5540  178.1230  147.1500 C   0  0  0  0  0  0  0  0  0  0  0  0
  187.8060  177.2180  142.9080 C   0  0  0  0  0  0  0  0  0  0  0  0
  190.1700  176.6810  141.5740 N   0  0  0  0  0  0  0  0  0  0  0  0
  187.5810  177.6510  145.8360 C   0  0  0  0  0  3  0  0  0  0  0  0
  185.9400  179.0710  141.7830 C   0  0  2  0  0  3  0  0  0  0  0  0
  191.0940  174.9510  143.4300 Cl  0  0  0  0  0  0  0  0  0  0  0  0
  184.3780  178.9770  144.5620 O   0  0  0  0  0  0  0  0  0  0  0  0
  188.8810  177.7620  148.2340 Cl  0  0  0  0  0  0  0  0  0  0  0  0
  187.1480  178.7080  141.1030 O   0  0  0  0  0  0  0  0  0  0  0  0
  185.4660  177.9050  142.6550 C   0  0  2  0  0  3  0  0  0  0  0  0
  188.7330  176.3200  143.4490 C   0  0  0  0  0  3  0  0  0  0  0  0
  186.4790  178.8940  147.5950 C   0  0  0  0  0  3  0  0  0  0  0  0
  188.0830  177.8340  141.6750 C   0  0  0  0  0  0  0  0  0  0  0  0
  189.2830  177.5500  141.0190 C   0  0  0  0  0  3  0  0  0  0  0  0
  184.1540  178.1910  143.3980 C   0  0  0  0  0  2  0  0  0  0  0  0
  185.4370  178.6920  145.4190 C   0  0  0  0  0  0  0  0  0  0  0  0
  185.4220  179.1810  146.7290 C   0  0  0  0  0  3  0  0  0  0  0  0
  184.8860  179.4820  140.7680 C   0  0  0  0  0  2  0  0  0  0  0  0
  182.5120  178.7490  140.4920 C   0  0  0  0  0  1  0  0  0  0  0  0
  183.9640  178.3070  140.4660 C   0  0  1  0  0  3  0  0  0  0  0  0
  184.4650  176.9880  136.4770 N   0  0  0  0  0  0  0  0  0  0  0  0
  185.1980  178.4310  138.3030 C   0  0  0  0  0  2  0  0  0  0  0  0
  182.7640  175.9130  139.4140 O   0  0  0  0  0  0  0  0  0  0  0  0
  184.9260  176.3340  135.2660 C   0  0  0  0  0  1  0  0  0  0  0  0
  185.6360  177.5910  137.1020 C   0  0  0  0  0  2  0  0  0  0  0  0
  183.6170  176.5040  138.7010 C   0  0  0  0  0  0  0  0  0  0  0  0
  184.2960  177.6840  139.1820 N   0  0  0  0  0  0  0  0  0  0  0  0
  183.9730  175.9370  137.3620 C   0  0  0  0  0  2  0  0  0  0  0  0
  1  9  1  0  0  0  0
  1 14  1  0  0  0  0
  2  3  1  0  0  0  0
  3 19  2  0  0  0  0
  3  7  1  0  0  0  0
  4 15  1  0  0  0  0
  4 11  1  0  0  0  0
  5 14  2  0  0  0  0
  5  2  1  0  0  0  0
  6  1  2  0  0  0  0
  7  4  2  0  0  0  0
  8 21  1  6  0  0  0
  8 13  1  0  0  0  0
 10 19  1  0  0  0  0
 12 16  1  0  0  0  0
 12  8  1  0  0  0  0
 13 18  1  1  0  0  0
 13  2  1  0  0  0  0
 16  5  1  0  0  0  0
 17  6  1  0  0  0  0
 17 16  2  0  0  0  0
 18 10  1  0  0  0  0
 19 20  1  0  0  0  0
 20 15  2  0  0  0  0
 23 22  1  6  0  0  0
 23 21  1  0  0  0  0
 24 28  1  0  0  0  0
 24 31  1  0  0  0  0
 25 30  1  0  0  0  0
 27 24  1  0  0  0  0
 28 25  1  0  0  0  0
 29 30  1  0  0  0  0
 29 26  2  0  0  0  0
 30 23  1  0  0  0  0
 31 29  1  0  0  0  0
M  END
>  <MODEL>
3

>  <REMARK>
 VINA RESULT:      -7.8      3.276      7.280
  Name = 
  3 active torsions:
  status: ('A' for Active; 'I' for Inactive)
    1  A    between atoms: C_5  and  C_16
    2  A    between atoms: C_5  and  N_30
    3  A    between atoms: C_10  and  C_16
                            x       y       z     vdW  Elec       q    Type
                         _______ _______ _______ _____ _____    ______ ____

>  <TORSDO>
F 3

$$$$
=
 OpenBabel11122410573D

 31 35  0  0  1  0  0  0  0  0999 V2000
  179.7650  178.7730  143.1360 C   0  0  0  0  0  0  0  0  0  0  0  0
  183.1060  178.9340  141.4390 N   0  0  0  0  0  0  0  0  0  0  0  0
  184.1590  178.7330  142.4130 C   0  0  0  0  0  0  0  0  0  0  0  0
  184.9120  178.3740  144.7000 C   0  0  0  0  0  0  0  0  0  0  0  0
  181.7330  178.6210  141.7480 C   0  0  0  0  0  0  0  0  0  0  0  0
  179.0900  177.9830  142.2570 N   0  0  0  0  0  0  0  0  0  0  0  0
  183.8880  178.6450  143.7890 C   0  0  0  0  0  3  0  0  0  0  0  0
  183.0070  177.5940  139.4010 C   0  0  2  0  0  3  0  0  0  0  0  0
  178.9610  179.3690  144.5710 Cl  0  0  0  0  0  0  0  0  0  0  0  0
  185.7700  178.6300  140.6100 O   0  0  0  0  0  0  0  0  0  0  0  0
  184.5540  178.2710  146.4100 Cl  0  0  0  0  0  0  0  0  0  0  0  0
  181.6230  177.3480  139.6790 O   0  0  0  0  0  0  0  0  0  0  0  0
  183.4250  178.9400  140.0000 C   0  0  2  0  0  3  0  0  0  0  0  0
  181.0990  179.1100  142.8950 C   0  0  0  0  0  3  0  0  0  0  0  0
  186.2170  178.1700  144.2450 C   0  0  0  0  0  3  0  0  0  0  0  0
  181.0110  177.8140  140.8510 C   0  0  0  0  0  0  0  0  0  0  0  0
  179.6780  177.5040  141.1290 C   0  0  0  0  0  3  0  0  0  0  0  0
  184.8890  179.3050  139.7210 C   0  0  0  0  0  2  0  0  0  0  0  0
  185.4800  178.5440  141.9700 C   0  0  0  0  0  0  0  0  0  0  0  0
  186.5000  178.2530  142.8810 C   0  0  0  0  0  3  0  0  0  0  0  0
  183.2430  177.5460  137.9000 C   0  0  0  0  0  2  0  0  0  0  0  0
  182.9360  175.6400  136.3120 C   0  0  0  0  0  1  0  0  0  0  0  0
  183.7350  176.1630  137.4920 C   0  0  1  0  0  3  0  0  0  0  0  0
  187.6650  176.1390  135.9250 N   0  0  0  0  0  0  0  0  0  0  0  0
  185.7140  177.4180  136.6400 C   0  0  0  0  0  2  0  0  0  0  0  0
  185.4800  173.8770  137.5930 O   0  0  0  0  0  0  0  0  0  0  0  0
  189.1030  176.2290  135.7500 C   0  0  0  0  0  1  0  0  0  0  0  0
  187.2400  177.3780  136.5660 C   0  0  0  0  0  2  0  0  0  0  0  0
  185.9710  174.9740  137.2180 C   0  0  0  0  0  0  0  0  0  0  0  0
  185.1680  176.1740  137.1880 N   0  0  0  0  0  0  0  0  0  0  0  0
  187.4220  175.0430  136.8580 C   0  0  0  0  0  2  0  0  0  0  0  0
  1  9  1  0  0  0  0
  2  5  1  0  0  0  0
  2  3  1  0  0  0  0
  3  7  1  0  0  0  0
  4 11  1  0  0  0  0
  5 14  2  0  0  0  0
  6  1  2  0  0  0  0
  7  4  2  0  0  0  0
  8 21  1  6  0  0  0
  8 12  1  0  0  0  0
  8 13  1  0  0  0  0
 10 19  1  0  0  0  0
 12 16  1  0  0  0  0
 13 18  1  1  0  0  0
 13  2  1  0  0  0  0
 14  1  1  0  0  0  0
 15  4  1  0  0  0  0
 16 17  2  0  0  0  0
 16  5  1  0  0  0  0
 17  6  1  0  0  0  0
 18 10  1  0  0  0  0
 19  3  2  0  0  0  0
 19 20  1  0  0  0  0
 20 15  2  0  0  0  0
 23 22  1  6  0  0  0
 23 21  1  0  0  0  0
 24 28  1  0  0  0  0
 24 31  1  0  0  0  0
 25 30  1  0  0  0  0
 27 24  1  0  0  0  0
 28 25  1  0  0  0  0
 29 26  2  0  0  0  0
 30 29  1  0  0  0  0
 30 23  1  0  0  0  0
 31 29  1  0  0  0  0
M  END
>  <MODEL>
4

>  <REMARK>
 VINA RESULT:      -7.4      4.556      8.370
  Name = 
  3 active torsions:
  status: ('A' for Active; 'I' for Inactive)
    1  A    between atoms: C_5  and  C_16
    2  A    between atoms: C_5  and  N_30
    3  A    between atoms: C_10  and  C_16
                            x       y       z     vdW  Elec       q    Type
                         _______ _______ _______ _____ _____    ______ ____

>  <TORSDO>
F 3

$$$$
=
 OpenBabel11122410573D

 31 35  0  0  1  0  0  0  0  0999 V2000
  185.2470  178.5740  144.2880 C   0  0  0  0  0  0  0  0  0  0  0  0
  188.9710  178.3080  143.9390 N   0  0  0  0  0  0  0  0  0  0  0  0
  189.5310  177.6970  145.1270 C   0  0  0  0  0  0  0  0  0  0  0  0
  189.2920  176.7540  147.3580 C   0  0  0  0  0  0  0  0  0  0  0  0
  187.5570  178.2550  143.6680 C   0  0  0  0  0  0  0  0  0  0  0  0
  184.8610  178.1350  143.0590 N   0  0  0  0  0  0  0  0  0  0  0  0
  188.7430  177.4120  146.2550 C   0  0  0  0  0  3  0  0  0  0  0  0
  189.4820  177.4340  141.7170 C   0  0  2  0  0  3  0  0  0  0  0  0
  184.0420  179.0500  145.4640 Cl  0  0  0  0  0  0  0  0  0  0  0  0
  191.6810  177.5830  144.0220 O   0  0  0  0  0  0  0  0  0  0  0  0
  188.2930  176.4110  148.7540 Cl  0  0  0  0  0  0  0  0  0  0  0  0
  188.0780  177.4540  141.4320 O   0  0  0  0  0  0  0  0  0  0  0  0
  189.8160  178.5160  142.7490 C   0  0  2  0  0  3  0  0  0  0  0  0
  186.6030  178.6460  144.6140 C   0  0  0  0  0  3  0  0  0  0  0  0
  190.6300  176.3560  147.3410 C   0  0  0  0  0  3  0  0  0  0  0  0
  187.1320  177.8140  142.4020 C   0  0  0  0  0  0  0  0  0  0  0  0
  185.7670  177.7590  142.1170 C   0  0  0  0  0  3  0  0  0  0  0  0
  191.3100  178.5930  143.0920 C   0  0  0  0  0  2  0  0  0  0  0  0
  190.8830  177.3070  145.1290 C   0  0  0  0  0  0  0  0  0  0  0  0
  191.4240  176.6300  146.2260 C   0  0  0  0  0  3  0  0  0  0  0  0
  190.2680  177.6210  140.4290 C   0  0  0  0  0  2  0  0  0  0  0  0
  189.1770  178.6350  138.4220 C   0  0  0  0  0  1  0  0  0  0  0  0
  189.3680  177.3630  139.2260 C   0  0  1  0  0  3  0  0  0  0  0  0
  191.0600  174.7860  136.3280 N   0  0  0  0  0  0  0  0  0  0  0  0
  191.3560  176.1580  138.3240 C   0  0  0  0  0  2  0  0  0  0  0  0
  187.8130  175.7030  137.4640 O   0  0  0  0  0  0  0  0  0  0  0  0
  191.6100  173.6440  135.6210 C   0  0  0  0  0  1  0  0  0  0  0  0
  191.7780  174.8830  137.5940 C   0  0  0  0  0  2  0  0  0  0  0  0
  189.0600  175.5250  137.4900 C   0  0  0  0  0  0  0  0  0  0  0  0
  189.8990  176.2880  138.3840 N   0  0  0  0  0  0  0  0  0  0  0  0
  189.6670  174.4660  136.6240 C   0  0  0  0  0  2  0  0  0  0  0  0
  1 14  1  0  0  0  0
  1  9  1  0  0  0  0
  2  3  1  0  0  0  0
  3 19  2  0  0  0  0
  3  7  1  0  0  0  0
  4 11  1  0  0  0  0
  5  2  1  0  0  0  0
  5 14  2  0  0  0  0
  6  1  2  0  0  0  0
  7  4  2  0  0  0  0
  8 21  1  6  0  0  0
  8 13  1  0  0  0  0
 10 19  1  0  0  0  0
 12  8  1  0  0  0  0
 12 16  1  0  0  0  0
 13 18  1  1  0  0  0
 13  2  1  0  0  0  0
 15  4  1  0  0  0  0
 16  5  1  0  0  0  0
 17 16  2  0  0  0  0
 17  6  1  0  0  0  0
 18 10  1  0  0  0  0
 19 20  1  0  0  0  0
 20 15  2  0  0  0  0
 23 22  1  6  0  0  0
 23 21  1  0  0  0  0
 24 31  1  0  0  0  0
 24 28  1  0  0  0  0
 25 30  1  0  0  0  0
 26 29  2  0  0  0  0
 27 24  1  0  0  0  0
 28 25  1  0  0  0  0
 29 30  1  0  0  0  0
 30 23  1  0  0  0  0
 31 29  1  0  0  0  0
M  END
>  <MODEL>
5

>  <REMARK>
 VINA RESULT:      -7.4      3.707      7.872
  Name = 
  3 active torsions:
  status: ('A' for Active; 'I' for Inactive)
    1  A    between atoms: C_5  and  C_16
    2  A    between atoms: C_5  and  N_30
    3  A    between atoms: C_10  and  C_16
                            x       y       z     vdW  Elec       q    Type
                         _______ _______ _______ _____ _____    ______ ____

>  <TORSDO>
F 3

$$$$
=
 OpenBabel11122410573D

 31 35  0  0  1  0  0  0  0  0999 V2000
  187.7970  177.7340  136.4000 C   0  0  0  0  0  0  0  0  0  0  0  0
  186.4800  178.6280  139.7960 N   0  0  0  0  0  0  0  0  0  0  0  0
  185.0750  178.2880  139.8800 C   0  0  0  0  0  0  0  0  0  0  0  0
  183.0210  177.4390  138.8880 C   0  0  0  0  0  0  0  0  0  0  0  0
  187.3090  178.1210  138.7310 C   0  0  0  0  0  0  0  0  0  0  0  0
  188.9660  177.1310  136.7490 N   0  0  0  0  0  0  0  0  0  0  0  0
  184.3550  177.8320  138.7630 C   0  0  0  0  0  3  0  0  0  0  0  0
  188.0660  177.8390  141.4750 C   0  0  2  0  0  3  0  0  0  0  0  0
  187.3560  177.8720  134.7120 Cl  0  0  0  0  0  0  0  0  0  0  0  0
  185.1220  178.7920  142.2460 O   0  0  0  0  0  0  0  0  0  0  0  0
  182.1410  176.8760  137.4830 Cl  0  0  0  0  0  0  0  0  0  0  0  0
  188.9170  177.4030  140.4080 O   0  0  0  0  0  0  0  0  0  0  0  0
  187.2160  179.0250  141.0090 C   0  0  2  0  0  3  0  0  0  0  0  0
  186.9480  178.2440  137.3850 C   0  0  0  0  0  3  0  0  0  0  0  0
  182.3940  177.4790  140.1360 C   0  0  0  0  0  3  0  0  0  0  0  0
  188.5260  177.5010  139.0650 C   0  0  0  0  0  0  0  0  0  0  0  0
  189.3460  177.0070  138.0490 C   0  0  0  0  0  3  0  0  0  0  0  0
  186.2950  179.5840  142.1020 C   0  0  0  0  0  2  0  0  0  0  0  0
  184.4270  178.3410  141.1270 C   0  0  0  0  0  0  0  0  0  0  0  0
  183.0980  177.9270  141.2550 C   0  0  0  0  0  3  0  0  0  0  0  0
  188.9110  178.1920  142.6890 C   0  0  0  0  0  2  0  0  0  0  0  0
  187.5740  176.2830  143.5920 C   0  0  0  0  0  1  0  0  0  0  0  0
  188.3160  177.5600  143.9420 C   0  0  1  0  0  3  0  0  0  0  0  0
  191.1250  176.1270  146.7630 N   0  0  0  0  0  0  0  0  0  0  0  0
  190.6280  176.7910  144.4680 C   0  0  0  0  0  2  0  0  0  0  0  0
  187.9270  177.6930  146.7900 O   0  0  0  0  0  0  0  0  0  0  0  0
  192.2090  176.0030  147.7190 C   0  0  0  0  0  1  0  0  0  0  0  0
  191.6800  176.7690  145.5770 C   0  0  0  0  0  2  0  0  0  0  0  0
  189.0620  177.3480  146.3680 C   0  0  0  0  0  0  0  0  0  0  0  0
  189.3450  177.3050  144.9520 N   0  0  0  0  0  0  0  0  0  0  0  0
  190.1470  177.0380  147.3510 C   0  0  0  0  0  2  0  0  0  0  0  0
  1  6  2  0  0  0  0
  1 14  1  0  0  0  0
  2  3  1  0  0  0  0
  2 13  1  0  0  0  0
  3 19  1  0  0  0  0
  4 15  2  0  0  0  0
  5 16  1  0  0  0  0
  5  2  1  0  0  0  0
  6 17  1  0  0  0  0
  7  4  1  0  0  0  0
  7  3  2  0  0  0  0
  8 21  1  1  0  0  0
  9  1  1  0  0  0  0
 11  4  1  0  0  0  0
 12  8  1  0  0  0  0
 13  8  1  0  0  0  0
 13 18  1  1  0  0  0
 14  5  2  0  0  0  0
 15 20  1  0  0  0  0
 16 12  1  0  0  0  0
 17 16  2  0  0  0  0
 18 10  1  0  0  0  0
 19 20  2  0  0  0  0
 19 10  1  0  0  0  0
 21 23  1  0  0  0  0
 23 22  1  6  0  0  0
 23 30  1  0  0  0  0
 24 31  1  0  0  0  0
 24 27  1  0  0  0  0
 25 30  1  0  0  0  0
 25 28  1  0  0  0  0
 28 24  1  0  0  0  0
 29 26  2  0  0  0  0
 29 31  1  0  0  0  0
 30 29  1  0  0  0  0
M  END
>  <MODEL>
6

>  <REMARK>
 VINA RESULT:      -7.3      2.105      2.902
  Name = 
  3 active torsions:
  status: ('A' for Active; 'I' for Inactive)
    1  A    between atoms: C_5  and  C_16
    2  A    between atoms: C_5  and  N_30
    3  A    between atoms: C_10  and  C_16
                            x       y       z     vdW  Elec       q    Type
                         _______ _______ _______ _____ _____    ______ ____

>  <TORSDO>
F 3

$$$$
=
 OpenBabel11122410573D

 31 35  0  0  1  0  0  0  0  0999 V2000
  189.7460  176.6210  142.4210 C   0  0  0  0  0  0  0  0  0  0  0  0
  186.1440  177.6070  142.7710 N   0  0  0  0  0  0  0  0  0  0  0  0
  185.8690  177.9720  144.1450 C   0  0  0  0  0  0  0  0  0  0  0  0
  186.5630  178.2430  146.4620 C   0  0  0  0  0  0  0  0  0  0  0  0
  187.4960  177.4840  142.2870 C   0  0  0  0  0  0  0  0  0  0  0  0
  190.0660  177.2920  141.2810 N   0  0  0  0  0  0  0  0  0  0  0  0
  186.8270  177.8120  145.1600 C   0  0  0  0  0  3  0  0  0  0  0  0
  185.5670  179.1050  140.9330 C   0  0  2  0  0  3  0  0  0  0  0  0
  190.9550  175.6530  143.2340 Cl  0  0  0  0  0  0  0  0  0  0  0  0
  183.6750  178.7400  143.4730 O   0  0  0  0  0  0  0  0  0  0  0  0
  187.7690  178.0310  147.7130 Cl  0  0  0  0  0  0  0  0  0  0  0  0
  186.8920  178.9200  140.4200 O   0  0  0  0  0  0  0  0  0  0  0  0
  185.1390  177.8660  141.7240 C   0  0  2  0  0  3  0  0  0  0  0  0
  188.4520  176.7010  142.9420 C   0  0  0  0  0  3  0  0  0  0  0  0
  185.3450  178.8560  146.7630 C   0  0  0  0  0  3  0  0  0  0  0  0
  187.8500  178.1610  141.1070 C   0  0  0  0  0  0  0  0  0  0  0  0
  189.1530  178.0520  140.6180 C   0  0  0  0  0  3  0  0  0  0  0  0
  183.7140  177.9610  142.2850 C   0  0  0  0  0  2  0  0  0  0  0  0
  184.6390  178.5750  144.4650 C   0  0  0  0  0  0  0  0  0  0  0  0
  184.3840  179.0240  145.7630 C   0  0  0  0  0  3  0  0  0  0  0  0
  184.6130  179.4010  139.7870 C   0  0  0  0  0  2  0  0  0  0  0  0
  182.8210  178.2100  138.5130 C   0  0  0  0  0  1  0  0  0  0  0  0
  184.2240  178.1060  139.0830 C   0  0  1  0  0  3  0  0  0  0  0  0
  186.5620  177.4590  135.6160 N   0  0  0  0  0  0  0  0  0  0  0  0
  186.0740  178.8290  137.5750 C   0  0  0  0  0  2  0  0  0  0  0  0
  184.3100  175.6070  137.6590 O   0  0  0  0  0  0  0  0  0  0  0  0
  187.6210  177.1100  134.6870 C   0  0  0  0  0  1  0  0  0  0  0  0
  187.1650  178.2960  136.6470 C   0  0  0  0  0  2  0  0  0  0  0  0
  185.1390  176.4970  137.3340 C   0  0  0  0  0  0  0  0  0  0  0  0
  185.1870  177.7580  138.0360 N   0  0  0  0  0  0  0  0  0  0  0  0
  186.1270  176.2150  136.2450 C   0  0  0  0  0  2  0  0  0  0  0  0
  1 14  1  0  0  0  0
  1  9  1  0  0  0  0
  2  3  1  0  0  0  0
  3 19  2  0  0  0  0
  3  7  1  0  0  0  0
  4 15  1  0  0  0  0
  4 11  1  0  0  0  0
  5  2  1  0  0  0  0
  5 14  2  0  0  0  0
  6  1  2  0  0  0  0
  7  4  2  0  0  0  0
  8 21  1  6  0  0  0
  8 13  1  0  0  0  0
 10 19  1  0  0  0  0
 12  8  1  0  0  0  0
 12 16  1  0  0  0  0
 13 18  1  1  0  0  0
 13  2  1  0  0  0  0
 16  5  1  0  0  0  0
 17 16  2  0  0  0  0
 17  6  1  0  0  0  0
 18 10  1  0  0  0  0
 19 20  1  0  0  0  0
 20 15  2  0  0  0  0
 23 22  1  6  0  0  0
 23 21  1  0  0  0  0
 24 31  1  0  0  0  0
 24 28  1  0  0  0  0
 25 30  1  0  0  0  0
 27 24  1  0  0  0  0
 28 25  1  0  0  0  0
 29 26  2  0  0  0  0
 29 30  1  0  0  0  0
 30 23  1  0  0  0  0
 31 29  1  0  0  0  0
M  END
>  <MODEL>
7

>  <REMARK>
 VINA RESULT:      -7.3      3.416      7.200
  Name = 
  3 active torsions:
  status: ('A' for Active; 'I' for Inactive)
    1  A    between atoms: C_5  and  C_16
    2  A    between atoms: C_5  and  N_30
    3  A    between atoms: C_10  and  C_16
                            x       y       z     vdW  Elec       q    Type
                         _______ _______ _______ _____ _____    ______ ____

>  <TORSDO>
F 3

$$$$
=
 OpenBabel11122410573D

 31 35  0  0  1  0  0  0  0  0999 V2000
  189.6360  176.7570  136.3380 C   0  0  0  0  0  0  0  0  0  0  0  0
  188.0400  178.2650  139.3780 N   0  0  0  0  0  0  0  0  0  0  0  0
  186.5980  178.2360  139.2380 C   0  0  0  0  0  0  0  0  0  0  0  0
  184.5860  177.7310  137.9640 C   0  0  0  0  0  0  0  0  0  0  0  0
  188.8900  177.4860  138.5140 C   0  0  0  0  0  0  0  0  0  0  0  0
  190.5720  175.9650  136.9290 N   0  0  0  0  0  0  0  0  0  0  0  0
  185.9780  177.8220  138.0470 C   0  0  0  0  0  3  0  0  0  0  0  0
  189.1280  177.3500  141.3610 C   0  0  2  0  0  3  0  0  0  0  0  0
  189.5050  176.8020  134.5940 Cl  0  0  0  0  0  0  0  0  0  0  0  0
  186.3880  178.9710  141.5340 O   0  0  0  0  0  0  0  0  0  0  0  0
  183.8330  177.2150  136.4700 Cl  0  0  0  0  0  0  0  0  0  0  0  0
  190.0150  176.6350  140.4930 O   0  0  0  0  0  0  0  0  0  0  0  0
  188.6470  178.6290  140.6700 C   0  0  2  0  0  3  0  0  0  0  0  0
  188.7800  177.5350  137.1200 C   0  0  0  0  0  3  0  0  0  0  0  0
  183.7980  178.0340  139.0760 C   0  0  0  0  0  3  0  0  0  0  0  0
  189.8710  176.6660  139.0990 C   0  0  0  0  0  0  0  0  0  0  0  0
  190.7080  175.9060  138.2810 C   0  0  0  0  0  3  0  0  0  0  0  0
  187.7150  179.4810  141.5420 C   0  0  0  0  0  2  0  0  0  0  0  0
  185.7920  178.5560  140.3450 C   0  0  0  0  0  0  0  0  0  0  0  0
  184.4010  178.4440  140.2670 C   0  0  0  0  0  3  0  0  0  0  0  0
  189.8300  177.6480  142.6760 C   0  0  0  0  0  2  0  0  0  0  0  0
  190.8990  175.6750  143.7760 C   0  0  0  0  0  1  0  0  0  0  0  0
  189.6280  176.4940  143.6510 C   0  0  1  0  0  3  0  0  0  0  0  0
  188.3630  177.1820  147.6290 N   0  0  0  0  0  0  0  0  0  0  0  0
  190.1930  177.0050  146.0250 C   0  0  0  0  0  2  0  0  0  0  0  0
  186.9070  177.0790  144.3810 O   0  0  0  0  0  0  0  0  0  0  0  0
  187.9930  177.7860  148.8950 C   0  0  0  0  0  1  0  0  0  0  0  0
  189.6710  177.7180  147.2730 C   0  0  0  0  0  2  0  0  0  0  0  0
  187.7930  177.2030  145.2680 C   0  0  0  0  0  0  0  0  0  0  0  0
  189.1850  176.9730  144.9620 N   0  0  0  0  0  0  0  0  0  0  0  0
  187.3990  177.6550  146.6400 C   0  0  0  0  0  2  0  0  0  0  0  0
  1  6  2  0  0  0  0
  1 14  1  0  0  0  0
  2 13  1  0  0  0  0
  3  2  1  0  0  0  0
  3 19  1  0  0  0  0
  4  7  1  0  0  0  0
  4 15  2  0  0  0  0
  5 16  1  0  0  0  0
  5  2  1  0  0  0  0
  6 17  1  0  0  0  0
  7  3  2  0  0  0  0
  8 21  1  1  0  0  0
  9  1  1  0  0  0  0
 10 18  1  0  0  0  0
 11  4  1  0  0  0  0
 12  8  1  0  0  0  0
 13  8  1  0  0  0  0
 13 18  1  1  0  0  0
 14  5  2  0  0  0  0
 15 20  1  0  0  0  0
 16 12  1  0  0  0  0
 17 16  2  0  0  0  0
 19 10  1  0  0  0  0
 20 19  2  0  0  0  0
 21 23  1  0  0  0  0
 23 22  1  1  0  0  0
 23 30  1  0  0  0  0
 24 27  1  0  0  0  0
 25 28  1  0  0  0  0
 26 29  2  0  0  0  0
 28 24  1  0  0  0  0
 29 31  1  0  0  0  0
 30 29  1  0  0  0  0
 30 25  1  0  0  0  0
 31 24  1  0  0  0  0
M  END
>  <MODEL>
8

>  <REMARK>
 VINA RESULT:      -7.3      2.317      3.716
  Name = 
  3 active torsions:
  status: ('A' for Active; 'I' for Inactive)
    1  A    between atoms: C_5  and  C_16
    2  A    between atoms: C_5  and  N_30
    3  A    between atoms: C_10  and  C_16
                            x       y       z     vdW  Elec       q    Type
                         _______ _______ _______ _____ _____    ______ ____

>  <TORSDO>
F 3

$$$$
=
 OpenBabel11122410573D

 31 35  0  0  1  0  0  0  0  0999 V2000
  186.5580  177.9390  138.6660 C   0  0  0  0  0  0  0  0  0  0  0  0
  190.0390  177.6020  140.0210 N   0  0  0  0  0  0  0  0  0  0  0  0
  189.9850  177.3150  141.4400 C   0  0  0  0  0  0  0  0  0  0  0  0
  188.7400  176.9690  143.5030 C   0  0  0  0  0  0  0  0  0  0  0  0
  188.8690  177.4790  139.1890 C   0  0  0  0  0  0  0  0  0  0  0  0
  186.6740  177.2020  137.5280 N   0  0  0  0  0  0  0  0  0  0  0  0
  188.7740  177.3240  142.1520 C   0  0  0  0  0  3  0  0  0  0  0  0
  191.3310  176.1940  138.5030 C   0  0  2  0  0  3  0  0  0  0  0  0
  185.0320  178.6960  139.0650 Cl  0  0  0  0  0  0  0  0  0  0  0  0
  192.3740  176.9290  141.4250 O   0  0  0  0  0  0  0  0  0  0  0  0
  187.2210  176.9900  144.3720 Cl  0  0  0  0  0  0  0  0  0  0  0  0
  190.1840  176.1370  137.6460 O   0  0  0  0  0  0  0  0  0  0  0  0
  191.3190  177.5030  139.2980 C   0  0  2  0  0  3  0  0  0  0  0  0
  187.6560  178.0950  139.5160 C   0  0  0  0  0  3  0  0  0  0  0  0
  189.9130  176.5830  144.1540 C   0  0  0  0  0  3  0  0  0  0  0  0
  188.9640  176.7290  138.0040 C   0  0  0  0  0  0  0  0  0  0  0  0
  187.8440  176.6010  137.1810 C   0  0  0  0  0  3  0  0  0  0  0  0
  192.5340  177.6680  140.2210 C   0  0  0  0  0  2  0  0  0  0  0  0
  191.1630  176.9420  142.1120 C   0  0  0  0  0  0  0  0  0  0  0  0
  191.1240  176.5670  143.4580 C   0  0  0  0  0  3  0  0  0  0  0  0
  192.5960  176.0490  137.6720 C   0  0  0  0  0  2  0  0  0  0  0  0
  192.2920  173.7100  136.8450 C   0  0  0  0  0  1  0  0  0  0  0  0
  193.1090  174.6160  137.7470 C   0  0  1  0  0  3  0  0  0  0  0  0
  197.0140  173.9220  136.2730 N   0  0  0  0  0  0  0  0  0  0  0  0
  194.9590  175.2350  136.1940 C   0  0  0  0  0  2  0  0  0  0  0  0
  195.0560  172.9790  139.0940 O   0  0  0  0  0  0  0  0  0  0  0  0
  198.4360  173.9860  135.9930 C   0  0  0  0  0  1  0  0  0  0  0  0
  196.4820  175.2640  136.0680 C   0  0  0  0  0  2  0  0  0  0  0  0
  195.4420  173.6590  138.1060 C   0  0  0  0  0  0  0  0  0  0  0  0
  194.5320  174.5390  137.4110 N   0  0  0  0  0  0  0  0  0  0  0  0
  196.8780  173.5960  137.6900 C   0  0  0  0  0  2  0  0  0  0  0  0
  1  9  1  0  0  0  0
  1 14  1  0  0  0  0
  2  3  1  0  0  0  0
  3 19  2  0  0  0  0
  3  7  1  0  0  0  0
  4 15  1  0  0  0  0
  4 11  1  0  0  0  0
  5 14  2  0  0  0  0
  5  2  1  0  0  0  0
  6  1  2  0  0  0  0
  7  4  2  0  0  0  0
  8 21  1  6  0  0  0
  8 13  1  0  0  0  0
 10 19  1  0  0  0  0
 12 16  1  0  0  0  0
 12  8  1  0  0  0  0
 13  2  1  0  0  0  0
 13 18  1  1  0  0  0
 16  5  1  0  0  0  0
 17  6  1  0  0  0  0
 17 16  2  0  0  0  0
 18 10  1  0  0  0  0
 19 20  1  0  0  0  0
 20 15  2  0  0  0  0
 21 23  1  0  0  0  0
 23 22  1  6  0  0  0
 24 31  1  0  0  0  0
 25 30  1  0  0  0  0
 27 24  1  0  0  0  0
 28 25  1  0  0  0  0
 28 24  1  0  0  0  0
 29 26  2  0  0  0  0
 30 23  1  0  0  0  0
 30 29  1  0  0  0  0
 31 29  1  0  0  0  0
M  END
>  <MODEL>
9

>  <REMARK>
 VINA RESULT:      -7.2      5.605      8.687
  Name = 
  3 active torsions:
  status: ('A' for Active; 'I' for Inactive)
    1  A    between atoms: C_5  and  C_16
    2  A    between atoms: C_5  and  N_30
    3  A    between atoms: C_10  and  C_16
                            x       y       z     vdW  Elec       q    Type
                         _______ _______ _______ _____ _____    ______ ____

>  <TORSDO>
F 3

$$$$
