8u7h
 OpenBabel11072415333D

 31 33  0  0  0  0  0  0  0  0999 V2000
  161.5770  208.0120  149.9760 C   0  0  0  0  0  0  0  0  0  0  0  0
  161.1290  207.4820  151.1800 C   0  0  0  0  0  3  0  0  0  0  0  0
  161.0680  208.2820  152.3150 C   0  0  0  0  0  0  0  0  0  0  0  0
  161.4310  209.6170  152.2430 C   0  0  0  0  0  0  0  0  0  0  0  0
  161.8660  210.1470  151.0410 C   0  0  0  0  0  3  0  0  0  0  0  0
  161.9170  209.3520  149.9070 C   0  0  0  0  0  0  0  0  0  0  0  0
  160.6430  207.7540  153.5030 F   0  0  0  0  0  0  0  0  0  0  0  0
  161.3690  210.5340  153.4860 C   0  0  0  0  0  0  0  0  0  0  0  0
  162.2870  210.5240  154.2330 O   0  0  0  0  0  0  0  0  0  0  0  0
  160.2070  211.3690  153.8050 N   0  0  0  0  0  0  0  0  0  0  0  0
  159.0140  211.4870  153.0050 C   0  0  0  0  0  2  0  0  0  0  0  0
  158.9090  212.9750  152.6470 C   0  0  0  0  0  2  0  0  0  0  0  0
  158.6980  213.7830  153.8070 O   0  0  0  0  0  0  0  0  0  0  0  0
  158.8320  213.0610  155.0260 C   0  0  0  0  0  2  0  0  0  0  0  0
  160.1270  212.2290  154.9750 C   0  0  0  0  0  2  0  0  0  0  0  0
  160.8730  203.6880  149.2280 C   0  0  0  0  0  0  0  0  0  0  0  0
  161.1930  203.1770  147.9770 C   0  0  0  0  0  0  0  0  0  0  0  0
  161.6480  204.0700  147.0250 C   0  0  0  0  0  3  0  0  0  0  0  0
  161.7780  205.3490  147.3280 N   0  0  0  0  0  0  0  0  0  0  0  0
  161.4570  205.8040  148.5260 C   0  0  0  0  0  0  0  0  0  0  0  0
  161.0180  204.9830  149.4620 N   0  0  0  0  0  4  0  0  0  0  0  0
  161.6430  207.2380  148.7380 N   0  0  0  0  0  2  0  0  0  0  0  0
  161.0460  201.6970  147.6480 C   0  0  0  0  0  0  0  0  0  0  0  0
  159.7790  201.3090  147.9470 F   0  0  0  0  0  0  0  0  0  0  0  0
  161.2650  201.5150  146.3160 F   0  0  0  0  0  0  0  0  0  0  0  0
  161.9220  200.9410  148.3580 F   0  0  0  0  0  0  0  0  0  0  0  0
  160.3860  202.7970  150.2670 N   0  0  0  0  0  2  0  0  0  0  0  0
  160.8730  203.6960  152.4800 C   0  0  0  0  0  1  0  0  0  0  0  0
  161.1640  202.5850  151.4730 C   0  0  0  0  0  2  0  0  0  0  0  0
  162.3550  209.8760  148.6840 O   0  0  0  0  0  0  0  0  0  0  0  0
  162.1230  211.2430  148.4880 C   0  0  0  0  0  1  0  0  0  0  0  0
  1  2  1  0  0  0  0
  2  3  2  0  0  0  0
  3  7  1  0  0  0  0
  4  3  1  0  0  0  0
  4  8  1  0  0  0  0
  5  4  2  0  0  0  0
  6  1  2  0  0  0  0
  6  5  1  0  0  0  0
  8 10  1  0  0  0  0
  8  9  2  0  0  0  0
 10 15  1  0  0  0  0
 11 10  1  0  0  0  0
 12 11  1  0  0  0  0
 12 13  1  0  0  0  0
 13 14  1  0  0  0  0
 15 14  1  0  0  0  0
 16 21  2  0  0  0  0
 16 27  1  0  0  0  0
 17 16  1  0  0  0  0
 18 19  1  0  0  0  0
 18 17  2  0  0  0  0
 19 20  2  0  0  0  0
 20 22  1  0  0  0  0
 20 21  2  0  0  0  0
 22  1  1  0  0  0  0
 23 24  1  0  0  0  0
 23 17  1  0  0  0  0
 23 26  1  0  0  0  0
 25 23  1  0  0  0  0
 27 29  1  0  0  0  0
 29 28  1  0  0  0  0
 30  6  1  0  0  0  0
 31 30  1  0  0  0  0
M  END
>  <MODEL>
1

>  <REMARK>
 VINA RESULT:      -9.1      0.000      0.000
  Name = 8u7h
  6 active torsions:
  status: ('A' for Active; 'I' for Inactive)
    1  A    between atoms: C_2  and  N_3
    2  A    between atoms: N_3  and  C_4
    3  A    between atoms: C_5  and  C_27
    4  A    between atoms: N_10  and  C_11
    5  A    between atoms: C_14  and  C_19
    6  A    between atoms: C_16  and  O_17
                            x       y       z     vdW  Elec       q    Type
                         _______ _______ _______ _____ _____    ______ ____

>  <TORSDO>
F 6

$$$$
8u7h
 OpenBabel11072415333D

 31 33  0  0  0  0  0  0  0  0999 V2000
  160.9810  207.1650  153.7090 C   0  0  0  0  0  0  0  0  0  0  0  0
  161.2420  208.1180  152.7320 C   0  0  0  0  0  3  0  0  0  0  0  0
  161.0140  209.4650  152.9920 C   0  0  0  0  0  0  0  0  0  0  0  0
  160.5480  209.8620  154.2340 C   0  0  0  0  0  0  0  0  0  0  0  0
  160.2990  208.9130  155.2110 C   0  0  0  0  0  3  0  0  0  0  0  0
  160.5360  207.5720  154.9550 C   0  0  0  0  0  0  0  0  0  0  0  0
  161.2550  210.3990  152.0230 F   0  0  0  0  0  0  0  0  0  0  0  0
  160.2900  211.3520  154.5550 C   0  0  0  0  0  0  0  0  0  0  0  0
  160.9530  211.8650  155.3910 O   0  0  0  0  0  0  0  0  0  0  0  0
  159.2330  212.1360  153.9110 N   0  0  0  0  0  0  0  0  0  0  0  0
  158.3410  211.6590  152.8850 C   0  0  0  0  0  2  0  0  0  0  0  0
  158.5750  212.5800  151.6810 C   0  0  0  0  0  2  0  0  0  0  0  0
  158.1820  213.9250  151.9620 O   0  0  0  0  0  0  0  0  0  0  0  0
  157.8600  214.1420  153.3310 C   0  0  0  0  0  2  0  0  0  0  0  0
  158.9700  213.5360  154.2080 C   0  0  0  0  0  2  0  0  0  0  0  0
  160.8630  204.6850  150.0230 C   0  0  0  0  0  0  0  0  0  0  0  0
  160.9450  203.3050  150.1560 C   0  0  0  0  0  0  0  0  0  0  0  0
  161.1270  202.8010  151.4310 C   0  0  0  0  0  3  0  0  0  0  0  0
  161.2000  203.6230  152.4610 N   0  0  0  0  0  0  0  0  0  0  0  0
  161.1260  204.9320  152.2990 C   0  0  0  0  0  0  0  0  0  0  0  0
  160.9530  205.4520  151.0980 N   0  0  0  0  0  4  0  0  0  0  0  0
  161.2210  205.7360  153.5160 N   0  0  0  0  0  2  0  0  0  0  0  0
  160.8510  202.3710  148.9570 C   0  0  0  0  0  0  0  0  0  0  0  0
  161.5380  201.2330  149.2360 F   0  0  0  0  0  0  0  0  0  0  0  0
  159.5430  202.0590  148.7390 F   0  0  0  0  0  0  0  0  0  0  0  0
  161.3720  202.9420  147.8410 F   0  0  0  0  0  0  0  0  0  0  0  0
  160.6760  205.2710  148.7070 N   0  0  0  0  0  2  0  0  0  0  0  0
  162.2470  206.9450  147.8880 C   0  0  0  0  0  1  0  0  0  0  0  0
  160.8730  206.6940  148.5050 C   0  0  0  0  0  2  0  0  0  0  0  0
  160.2900  206.6020  155.9350 O   0  0  0  0  0  0  0  0  0  0  0  0
  160.3200  207.0520  157.2610 C   0  0  0  0  0  1  0  0  0  0  0  0
  1  6  1  0  0  0  0
  2  3  1  0  0  0  0
  2  1  2  0  0  0  0
  3  4  2  0  0  0  0
  4  8  1  0  0  0  0
  4  5  1  0  0  0  0
  6  5  2  0  0  0  0
  6 30  1  0  0  0  0
  7  3  1  0  0  0  0
  8  9  2  0  0  0  0
 10 15  1  0  0  0  0
 10  8  1  0  0  0  0
 11 10  1  0  0  0  0
 12 13  1  0  0  0  0
 12 11  1  0  0  0  0
 13 14  1  0  0  0  0
 14 15  1  0  0  0  0
 16 17  1  0  0  0  0
 16 21  2  0  0  0  0
 17 18  2  0  0  0  0
 18 19  1  0  0  0  0
 20 19  2  0  0  0  0
 20 22  1  0  0  0  0
 21 20  2  0  0  0  0
 22  1  1  0  0  0  0
 23 24  1  0  0  0  0
 23 17  1  0  0  0  0
 25 23  1  0  0  0  0
 26 23  1  0  0  0  0
 27 16  1  0  0  0  0
 28 29  1  0  0  0  0
 29 27  1  0  0  0  0
 30 31  1  0  0  0  0
M  END
>  <MODEL>
2

>  <REMARK>
 VINA RESULT:      -8.5      2.184      3.869
  Name = 8u7h
  6 active torsions:
  status: ('A' for Active; 'I' for Inactive)
    1  A    between atoms: C_2  and  N_3
    2  A    between atoms: N_3  and  C_4
    3  A    between atoms: C_5  and  C_27
    4  A    between atoms: N_10  and  C_11
    5  A    between atoms: C_14  and  C_19
    6  A    between atoms: C_16  and  O_17
                            x       y       z     vdW  Elec       q    Type
                         _______ _______ _______ _____ _____    ______ ____

>  <TORSDO>
F 6

$$$$
8u7h
 OpenBabel11072415333D

 31 33  0  0  0  0  0  0  0  0999 V2000
  161.0940  206.0900  149.9230 C   0  0  0  0  0  0  0  0  0  0  0  0
  160.9600  205.1470  150.9350 C   0  0  0  0  0  3  0  0  0  0  0  0
  160.9060  203.7930  150.6260 C   0  0  0  0  0  0  0  0  0  0  0  0
  161.0100  203.3780  149.3080 C   0  0  0  0  0  0  0  0  0  0  0  0
  161.1560  204.3170  148.3020 C   0  0  0  0  0  3  0  0  0  0  0  0
  161.2200  205.6660  148.6120 C   0  0  0  0  0  0  0  0  0  0  0  0
  160.7560  202.8680  151.6220 F   0  0  0  0  0  0  0  0  0  0  0  0
  160.9590  201.8790  148.9330 C   0  0  0  0  0  0  0  0  0  0  0  0
  160.8290  201.0900  149.8050 O   0  0  0  0  0  0  0  0  0  0  0  0
  161.1180  201.3950  147.5590 N   0  0  0  0  0  0  0  0  0  0  0  0
  161.2920  202.2230  146.3920 C   0  0  0  0  0  2  0  0  0  0  0  0
  160.1170  201.8760  145.4680 C   0  0  0  0  0  2  0  0  0  0  0  0
  160.1840  200.5220  145.0150 O   0  0  0  0  0  0  0  0  0  0  0  0
  161.1920  199.7600  145.6700 C   0  0  0  0  0  2  0  0  0  0  0  0
  161.0830  199.9880  147.1890 C   0  0  0  0  0  2  0  0  0  0  0  0
  161.1890  208.3510  153.7480 C   0  0  0  0  0  0  0  0  0  0  0  0
  161.0830  209.7360  153.6960 C   0  0  0  0  0  0  0  0  0  0  0  0
  161.0250  210.3190  152.4440 C   0  0  0  0  0  3  0  0  0  0  0  0
  161.0540  209.5650  151.3610 N   0  0  0  0  0  0  0  0  0  0  0  0
  161.1620  208.2510  151.4460 C   0  0  0  0  0  0  0  0  0  0  0  0
  161.2210  207.6550  152.6230 N   0  0  0  0  0  4  0  0  0  0  0  0
  161.1840  207.5260  150.1760 N   0  0  0  0  0  2  0  0  0  0  0  0
  161.0440  210.5900  154.9560 C   0  0  0  0  0  0  0  0  0  0  0  0
  162.1990  210.4030  155.6460 F   0  0  0  0  0  0  0  0  0  0  0  0
  160.9440  211.9010  154.6000 F   0  0  0  0  0  0  0  0  0  0  0  0
  159.9930  210.2560  155.7490 F   0  0  0  0  0  0  0  0  0  0  0  0
  161.2580  207.6830  155.0360 N   0  0  0  0  0  2  0  0  0  0  0  0
  160.1260  207.1160  157.1180 C   0  0  0  0  0  1  0  0  0  0  0  0
  160.0790  207.0460  155.5940 C   0  0  0  0  0  2  0  0  0  0  0  0
  161.3680  206.6260  147.6030 O   0  0  0  0  0  0  0  0  0  0  0  0
  160.8350  206.2860  146.3530 C   0  0  0  0  0  1  0  0  0  0  0  0
  1 22  1  0  0  0  0
  1  2  1  0  0  0  0
  3  2  2  0  0  0  0
  3  7  1  0  0  0  0
  4  3  1  0  0  0  0
  5  6  1  0  0  0  0
  5  4  2  0  0  0  0
  6  1  2  0  0  0  0
  8  4  1  0  0  0  0
  8  9  2  0  0  0  0
 10  8  1  0  0  0  0
 11 10  1  0  0  0  0
 12 11  1  0  0  0  0
 13 12  1  0  0  0  0
 13 14  1  0  0  0  0
 14 15  1  0  0  0  0
 15 10  1  0  0  0  0
 16 27  1  0  0  0  0
 17 16  1  0  0  0  0
 17 23  1  0  0  0  0
 18 17  2  0  0  0  0
 19 20  2  0  0  0  0
 19 18  1  0  0  0  0
 20 21  2  0  0  0  0
 21 16  2  0  0  0  0
 22 20  1  0  0  0  0
 23 24  1  0  0  0  0
 23 26  1  0  0  0  0
 25 23  1  0  0  0  0
 27 29  1  0  0  0  0
 29 28  1  0  0  0  0
 30  6  1  0  0  0  0
 31 30  1  0  0  0  0
M  END
>  <MODEL>
3

>  <REMARK>
 VINA RESULT:      -7.7      3.563      9.121
  Name = 8u7h
  6 active torsions:
  status: ('A' for Active; 'I' for Inactive)
    1  A    between atoms: C_2  and  N_3
    2  A    between atoms: N_3  and  C_4
    3  A    between atoms: C_5  and  C_27
    4  A    between atoms: N_10  and  C_11
    5  A    between atoms: C_14  and  C_19
    6  A    between atoms: C_16  and  O_17
                            x       y       z     vdW  Elec       q    Type
                         _______ _______ _______ _____ _____    ______ ____

>  <TORSDO>
F 6

$$$$
8u7h
 OpenBabel11072415333D

 31 33  0  0  0  0  0  0  0  0999 V2000
  161.3350  205.1210  152.2590 C   0  0  0  0  0  0  0  0  0  0  0  0
  160.7400  203.8940  151.9950 C   0  0  0  0  0  3  0  0  0  0  0  0
  160.7160  203.3940  150.6970 C   0  0  0  0  0  0  0  0  0  0  0  0
  161.3080  204.1090  149.6690 C   0  0  0  0  0  0  0  0  0  0  0  0
  161.9120  205.3250  149.9360 C   0  0  0  0  0  3  0  0  0  0  0  0
  161.9440  205.8180  151.2300 C   0  0  0  0  0  0  0  0  0  0  0  0
  160.1140  202.1940  150.4370 F   0  0  0  0  0  0  0  0  0  0  0  0
  161.3040  203.5770  148.2170 C   0  0  0  0  0  0  0  0  0  0  0  0
  161.2120  202.4080  148.0520 O   0  0  0  0  0  0  0  0  0  0  0  0
  161.4610  204.4460  147.0480 N   0  0  0  0  0  0  0  0  0  0  0  0
  161.5890  205.8820  147.0810 C   0  0  0  0  0  2  0  0  0  0  0  0
  160.4140  206.4150  146.2510 C   0  0  0  0  0  2  0  0  0  0  0  0
  160.5220  206.0330  144.8780 O   0  0  0  0  0  0  0  0  0  0  0  0
  161.5640  205.0940  144.6360 C   0  0  0  0  0  2  0  0  0  0  0  0
  161.4690  203.9630  145.6760 C   0  0  0  0  0  2  0  0  0  0  0  0
  160.3320  209.1930  153.7300 C   0  0  0  0  0  0  0  0  0  0  0  0
  160.6930  209.5300  155.0290 C   0  0  0  0  0  0  0  0  0  0  0  0
  161.2830  208.5450  155.7980 C   0  0  0  0  0  3  0  0  0  0  0  0
  161.4950  207.3460  155.2870 N   0  0  0  0  0  0  0  0  0  0  0  0
  161.1320  207.0560  154.0510 C   0  0  0  0  0  0  0  0  0  0  0  0
  160.5670  207.9690  153.2840 N   0  0  0  0  0  4  0  0  0  0  0  0
  161.4200  205.6950  153.6010 N   0  0  0  0  0  2  0  0  0  0  0  0
  160.4480  210.9210  155.5990 C   0  0  0  0  0  0  0  0  0  0  0  0
  159.1360  211.2330  155.4360 F   0  0  0  0  0  0  0  0  0  0  0  0
  160.7430  210.9130  156.9290 F   0  0  0  0  0  0  0  0  0  0  0  0
  161.2090  211.8560  154.9730 F   0  0  0  0  0  0  0  0  0  0  0  0
  159.7050  210.1870  152.8760 N   0  0  0  0  0  2  0  0  0  0  0  0
  159.9250  212.4250  151.9380 C   0  0  0  0  0  1  0  0  0  0  0  0
  160.5150  211.0190  152.0060 C   0  0  0  0  0  2  0  0  0  0  0  0
  162.5520  207.0470  151.5130 O   0  0  0  0  0  0  0  0  0  0  0  0
  162.5180  207.9970  150.4850 C   0  0  0  0  0  1  0  0  0  0  0  0
  1 22  1  0  0  0  0
  2  1  1  0  0  0  0
  3  2  2  0  0  0  0
  4  5  2  0  0  0  0
  4  3  1  0  0  0  0
  5  6  1  0  0  0  0
  6 30  1  0  0  0  0
  6  1  2  0  0  0  0
  7  3  1  0  0  0  0
  8  4  1  0  0  0  0
  9  8  2  0  0  0  0
 10 11  1  0  0  0  0
 10  8  1  0  0  0  0
 12 11  1  0  0  0  0
 13 12  1  0  0  0  0
 14 13  1  0  0  0  0
 14 15  1  0  0  0  0
 15 10  1  0  0  0  0
 16 17  1  0  0  0  0
 17 23  1  0  0  0  0
 17 18  2  0  0  0  0
 19 18  1  0  0  0  0
 20 19  2  0  0  0  0
 21 16  2  0  0  0  0
 21 20  2  0  0  0  0
 22 20  1  0  0  0  0
 23 25  1  0  0  0  0
 24 23  1  0  0  0  0
 26 23  1  0  0  0  0
 27 16  1  0  0  0  0
 28 29  1  0  0  0  0
 29 27  1  0  0  0  0
 31 30  1  0  0  0  0
M  END
>  <MODEL>
4

>  <REMARK>
 VINA RESULT:      -7.4      3.018      8.767
  Name = 8u7h
  6 active torsions:
  status: ('A' for Active; 'I' for Inactive)
    1  A    between atoms: C_2  and  N_3
    2  A    between atoms: N_3  and  C_4
    3  A    between atoms: C_5  and  C_27
    4  A    between atoms: N_10  and  C_11
    5  A    between atoms: C_14  and  C_19
    6  A    between atoms: C_16  and  O_17
                            x       y       z     vdW  Elec       q    Type
                         _______ _______ _______ _____ _____    ______ ____

>  <TORSDO>
F 6

$$$$
8u7h
 OpenBabel11072415333D

 31 33  0  0  0  0  0  0  0  0999 V2000
  161.1910  207.0210  153.8780 C   0  0  0  0  0  0  0  0  0  0  0  0
  160.4510  207.3270  155.0130 C   0  0  0  0  0  3  0  0  0  0  0  0
  160.1360  208.6490  155.3070 C   0  0  0  0  0  0  0  0  0  0  0  0
  160.5410  209.6630  154.4540 C   0  0  0  0  0  0  0  0  0  0  0  0
  161.2690  209.3570  153.3180 C   0  0  0  0  0  3  0  0  0  0  0  0
  161.5730  208.0380  153.0200 C   0  0  0  0  0  0  0  0  0  0  0  0
  159.4230  208.9490  156.4340 F   0  0  0  0  0  0  0  0  0  0  0  0
  160.2020  211.1420  154.7510 C   0  0  0  0  0  0  0  0  0  0  0  0
  160.6940  211.6470  155.7020 O   0  0  0  0  0  0  0  0  0  0  0  0
  159.2650  211.9250  153.9400 N   0  0  0  0  0  0  0  0  0  0  0  0
  158.5820  211.4560  152.7600 C   0  0  0  0  0  2  0  0  0  0  0  0
  159.0140  212.4060  151.6350 C   0  0  0  0  0  2  0  0  0  0  0  0
  158.5520  213.7380  151.8650 O   0  0  0  0  0  0  0  0  0  0  0  0
  157.9830  213.9220  153.1570 C   0  0  0  0  0  2  0  0  0  0  0  0
  158.9270  213.3130  154.2100 C   0  0  0  0  0  2  0  0  0  0  0  0
  160.7810  204.9270  149.9790 C   0  0  0  0  0  0  0  0  0  0  0  0
  161.0110  203.5580  149.9410 C   0  0  0  0  0  0  0  0  0  0  0  0
  161.4200  202.9520  151.1140 C   0  0  0  0  0  3  0  0  0  0  0  0
  161.5620  203.6690  152.2130 N   0  0  0  0  0  0  0  0  0  0  0  0
  161.3430  204.9710  152.2140 C   0  0  0  0  0  0  0  0  0  0  0  0
  160.9510  205.5880  151.1140 N   0  0  0  0  0  4  0  0  0  0  0  0
  161.5350  205.6540  153.4920 N   0  0  0  0  0  2  0  0  0  0  0  0
  160.8340  202.7450  148.6660 C   0  0  0  0  0  0  0  0  0  0  0  0
  161.2770  203.4820  147.6140 F   0  0  0  0  0  0  0  0  0  0  0  0
  161.5770  201.6070  148.7580 F   0  0  0  0  0  0  0  0  0  0  0  0
  159.5310  202.4190  148.4610 F   0  0  0  0  0  0  0  0  0  0  0  0
  160.3530  205.6190  148.7750 N   0  0  0  0  0  2  0  0  0  0  0  0
  162.2060  206.5740  147.5110 C   0  0  0  0  0  1  0  0  0  0  0  0
  160.9870  206.8650  148.3830 C   0  0  0  0  0  2  0  0  0  0  0  0
  162.3070  207.7150  151.8720 O   0  0  0  0  0  0  0  0  0  0  0  0
  162.3480  208.6980  150.8760 C   0  0  0  0  0  1  0  0  0  0  0  0
  1  2  1  0  0  0  0
  2  3  2  0  0  0  0
  3  7  1  0  0  0  0
  4  8  1  0  0  0  0
  4  3  1  0  0  0  0
  5  4  2  0  0  0  0
  6  5  1  0  0  0  0
  6  1  2  0  0  0  0
  8  9  2  0  0  0  0
 10 15  1  0  0  0  0
 10  8  1  0  0  0  0
 11 10  1  0  0  0  0
 12 13  1  0  0  0  0
 12 11  1  0  0  0  0
 13 14  1  0  0  0  0
 14 15  1  0  0  0  0
 16 21  2  0  0  0  0
 17 16  1  0  0  0  0
 17 18  2  0  0  0  0
 18 19  1  0  0  0  0
 19 20  2  0  0  0  0
 20 22  1  0  0  0  0
 21 20  2  0  0  0  0
 22  1  1  0  0  0  0
 23 25  1  0  0  0  0
 23 17  1  0  0  0  0
 24 23  1  0  0  0  0
 26 23  1  0  0  0  0
 27 16  1  0  0  0  0
 28 29  1  0  0  0  0
 29 27  1  0  0  0  0
 30  6  1  0  0  0  0
 31 30  1  0  0  0  0
M  END
>  <MODEL>
5

>  <REMARK>
 VINA RESULT:      -7.1      1.908      3.198
  Name = 8u7h
  6 active torsions:
  status: ('A' for Active; 'I' for Inactive)
    1  A    between atoms: C_2  and  N_3
    2  A    between atoms: N_3  and  C_4
    3  A    between atoms: C_5  and  C_27
    4  A    between atoms: N_10  and  C_11
    5  A    between atoms: C_14  and  C_19
    6  A    between atoms: C_16  and  O_17
                            x       y       z     vdW  Elec       q    Type
                         _______ _______ _______ _____ _____    ______ ____

>  <TORSDO>
F 6

$$$$
8u7h
 OpenBabel11072415333D

 31 33  0  0  0  0  0  0  0  0999 V2000
  160.6230  208.0450  154.3430 C   0  0  0  0  0  0  0  0  0  0  0  0
  160.9320  209.1850  153.6120 C   0  0  0  0  0  3  0  0  0  0  0  0
  160.6000  210.4420  154.1050 C   0  0  0  0  0  0  0  0  0  0  0  0
  159.9800  210.5610  155.3390 C   0  0  0  0  0  0  0  0  0  0  0  0
  159.6840  209.4250  156.0720 C   0  0  0  0  0  3  0  0  0  0  0  0
  160.0250  208.1740  155.5850 C   0  0  0  0  0  0  0  0  0  0  0  0
  160.8890  211.5620  153.3760 F   0  0  0  0  0  0  0  0  0  0  0  0
  159.6040  211.9450  155.9170 C   0  0  0  0  0  0  0  0  0  0  0  0
  160.4690  212.6130  156.3700 O   0  0  0  0  0  0  0  0  0  0  0  0
  158.2250  212.4380  155.9740 N   0  0  0  0  0  0  0  0  0  0  0  0
  157.0640  211.7450  155.4720 C   0  0  0  0  0  2  0  0  0  0  0  0
  156.4500  212.6840  154.4260 C   0  0  0  0  0  2  0  0  0  0  0  0
  155.9720  213.8930  155.0190 O   0  0  0  0  0  0  0  0  0  0  0  0
  156.3480  214.0370  156.3840 C   0  0  0  0  0  2  0  0  0  0  0  0
  157.8510  213.7320  156.5230 C   0  0  0  0  0  2  0  0  0  0  0  0
  160.9790  206.3480  150.2510 C   0  0  0  0  0  0  0  0  0  0  0  0
  161.1320  204.9730  150.1210 C   0  0  0  0  0  0  0  0  0  0  0  0
  161.2320  204.2340  151.2850 C   0  0  0  0  0  3  0  0  0  0  0  0
  161.1650  204.8360  152.4570 N   0  0  0  0  0  0  0  0  0  0  0  0
  161.0260  206.1460  152.5460 C   0  0  0  0  0  0  0  0  0  0  0  0
  160.9280  206.8880  151.4580 N   0  0  0  0  0  4  0  0  0  0  0  0
  160.9660  206.6950  153.9010 N   0  0  0  0  0  2  0  0  0  0  0  0
  161.2000  204.2940  148.7590 C   0  0  0  0  0  0  0  0  0  0  0  0
  160.8040  203.0020  148.8970 F   0  0  0  0  0  0  0  0  0  0  0  0
  160.3530  204.9310  147.9030 F   0  0  0  0  0  0  0  0  0  0  0  0
  162.4600  204.3210  148.2530 F   0  0  0  0  0  0  0  0  0  0  0  0
  160.8730  207.1760  149.0630 N   0  0  0  0  0  2  0  0  0  0  0  0
  161.9560  209.3270  148.6890 C   0  0  0  0  0  1  0  0  0  0  0  0
  162.0520  207.8140  148.5080 C   0  0  0  0  0  2  0  0  0  0  0  0
  159.7310  207.0160  156.3170 O   0  0  0  0  0  0  0  0  0  0  0  0
  160.6910  206.6310  157.2610 C   0  0  0  0  0  1  0  0  0  0  0  0
  1  6  1  0  0  0  0
  2  3  1  0  0  0  0
  2  1  2  0  0  0  0
  3  4  2  0  0  0  0
  4  8  1  0  0  0  0
  4  5  1  0  0  0  0
  6  5  2  0  0  0  0
  6 30  1  0  0  0  0
  7  3  1  0  0  0  0
  8 10  1  0  0  0  0
  8  9  2  0  0  0  0
 10 15  1  0  0  0  0
 11 10  1  0  0  0  0
 12 13  1  0  0  0  0
 12 11  1  0  0  0  0
 13 14  1  0  0  0  0
 14 15  1  0  0  0  0
 16 21  2  0  0  0  0
 17 16  1  0  0  0  0
 17 18  2  0  0  0  0
 18 19  1  0  0  0  0
 19 20  2  0  0  0  0
 20 22  1  0  0  0  0
 21 20  2  0  0  0  0
 22  1  1  0  0  0  0
 23 24  1  0  0  0  0
 23 17  1  0  0  0  0
 25 23  1  0  0  0  0
 26 23  1  0  0  0  0
 27 16  1  0  0  0  0
 29 28  1  0  0  0  0
 29 27  1  0  0  0  0
 30 31  1  0  0  0  0
M  END
>  <MODEL>
6

>  <REMARK>
 VINA RESULT:      -7.1      2.758      4.554
  Name = 8u7h
  6 active torsions:
  status: ('A' for Active; 'I' for Inactive)
    1  A    between atoms: C_2  and  N_3
    2  A    between atoms: N_3  and  C_4
    3  A    between atoms: C_5  and  C_27
    4  A    between atoms: N_10  and  C_11
    5  A    between atoms: C_14  and  C_19
    6  A    between atoms: C_16  and  O_17
                            x       y       z     vdW  Elec       q    Type
                         _______ _______ _______ _____ _____    ______ ____

>  <TORSDO>
F 6

$$$$
8u7h
 OpenBabel11072415333D

 31 33  0  0  0  0  0  0  0  0999 V2000
  161.5000  206.0020  151.5820 C   0  0  0  0  0  0  0  0  0  0  0  0
  161.8180  206.9110  150.5820 C   0  0  0  0  0  3  0  0  0  0  0  0
  161.8580  206.5020  149.2530 C   0  0  0  0  0  0  0  0  0  0  0  0
  161.5560  205.1920  148.9220 C   0  0  0  0  0  0  0  0  0  0  0  0
  161.2280  204.2890  149.9190 C   0  0  0  0  0  3  0  0  0  0  0  0
  161.1780  204.6990  151.2410 C   0  0  0  0  0  0  0  0  0  0  0  0
  162.1890  207.3950  148.2720 F   0  0  0  0  0  0  0  0  0  0  0  0
  161.5860  204.7080  147.4540 C   0  0  0  0  0  0  0  0  0  0  0  0
  162.0470  205.4310  146.6380 O   0  0  0  0  0  0  0  0  0  0  0  0
  161.0240  203.4240  147.0240 N   0  0  0  0  0  0  0  0  0  0  0  0
  160.4260  202.4390  147.8900 C   0  0  0  0  0  2  0  0  0  0  0  0
  161.2590  201.1660  147.6950 C   0  0  0  0  0  2  0  0  0  0  0  0
  161.1420  200.6570  146.3640 O   0  0  0  0  0  0  0  0  0  0  0  0
  160.4570  201.5400  145.4840 C   0  0  0  0  0  2  0  0  0  0  0  0
  161.0350  202.9580  145.6470 C   0  0  0  0  0  2  0  0  0  0  0  0
  160.1250  209.7580  153.5190 C   0  0  0  0  0  0  0  0  0  0  0  0
  160.3290  209.9060  154.8860 C   0  0  0  0  0  0  0  0  0  0  0  0
  160.8890  208.8380  155.5610 C   0  0  0  0  0  3  0  0  0  0  0  0
  161.2200  207.7410  154.9050 N   0  0  0  0  0  0  0  0  0  0  0  0
  161.0050  207.6300  153.6070 C   0  0  0  0  0  0  0  0  0  0  0  0
  160.4720  208.6270  152.9250 N   0  0  0  0  0  4  0  0  0  0  0  0
  161.4130  206.3660  152.9950 N   0  0  0  0  0  2  0  0  0  0  0  0
  159.9490  211.1820  155.6250 C   0  0  0  0  0  0  0  0  0  0  0  0
  160.2210  211.0170  156.9460 F   0  0  0  0  0  0  0  0  0  0  0  0
  160.6950  212.2140  155.1410 F   0  0  0  0  0  0  0  0  0  0  0  0
  158.6300  211.4680  155.4750 F   0  0  0  0  0  0  0  0  0  0  0  0
  159.5360  210.8450  152.7580 N   0  0  0  0  0  2  0  0  0  0  0  0
  159.7040  213.0810  151.8020 C   0  0  0  0  0  1  0  0  0  0  0  0
  160.3770  211.7200  151.9620 C   0  0  0  0  0  2  0  0  0  0  0  0
  160.8460  203.7960  152.2590 O   0  0  0  0  0  0  0  0  0  0  0  0
  161.1590  202.4540  152.0110 C   0  0  0  0  0  1  0  0  0  0  0  0
  1 22  1  0  0  0  0
  2  1  2  0  0  0  0
  3  2  1  0  0  0  0
  4  3  2  0  0  0  0
  4  5  1  0  0  0  0
  5  6  2  0  0  0  0
  6  1  1  0  0  0  0
  6 30  1  0  0  0  0
  7  3  1  0  0  0  0
  8  4  1  0  0  0  0
  9  8  2  0  0  0  0
 10  8  1  0  0  0  0
 10 11  1  0  0  0  0
 12 11  1  0  0  0  0
 13 12  1  0  0  0  0
 14 15  1  0  0  0  0
 14 13  1  0  0  0  0
 15 10  1  0  0  0  0
 16 17  1  0  0  0  0
 17 18  2  0  0  0  0
 17 23  1  0  0  0  0
 19 18  1  0  0  0  0
 20 19  2  0  0  0  0
 21 16  2  0  0  0  0
 21 20  2  0  0  0  0
 22 20  1  0  0  0  0
 23 24  1  0  0  0  0
 25 23  1  0  0  0  0
 26 23  1  0  0  0  0
 27 16  1  0  0  0  0
 28 29  1  0  0  0  0
 29 27  1  0  0  0  0
 31 30  1  0  0  0  0
M  END
>  <MODEL>
7

>  <REMARK>
 VINA RESULT:      -6.8      3.707      9.479
  Name = 8u7h
  6 active torsions:
  status: ('A' for Active; 'I' for Inactive)
    1  A    between atoms: C_2  and  N_3
    2  A    between atoms: N_3  and  C_4
    3  A    between atoms: C_5  and  C_27
    4  A    between atoms: N_10  and  C_11
    5  A    between atoms: C_14  and  C_19
    6  A    between atoms: C_16  and  O_17
                            x       y       z     vdW  Elec       q    Type
                         _______ _______ _______ _____ _____    ______ ____

>  <TORSDO>
F 6

$$$$
8u7h
 OpenBabel11072415333D

 31 33  0  0  0  0  0  0  0  0999 V2000
  161.5160  206.7960  153.4030 C   0  0  0  0  0  0  0  0  0  0  0  0
  161.1530  205.4590  153.5040 C   0  0  0  0  0  3  0  0  0  0  0  0
  161.0340  204.6780  152.3590 C   0  0  0  0  0  0  0  0  0  0  0  0
  161.3020  205.2270  151.1160 C   0  0  0  0  0  0  0  0  0  0  0  0
  161.6760  206.5560  151.0170 C   0  0  0  0  0  3  0  0  0  0  0  0
  161.8040  207.3300  152.1590 C   0  0  0  0  0  0  0  0  0  0  0  0
  160.6590  203.3670  152.4610 F   0  0  0  0  0  0  0  0  0  0  0  0
  161.1850  204.3830  149.8250 C   0  0  0  0  0  0  0  0  0  0  0  0
  160.8460  203.2540  149.9270 O   0  0  0  0  0  0  0  0  0  0  0  0
  161.5240  204.9040  148.4980 N   0  0  0  0  0  0  0  0  0  0  0  0
  161.9560  206.2490  148.2090 C   0  0  0  0  0  2  0  0  0  0  0  0
  160.9210  206.8050  147.2220 C   0  0  0  0  0  2  0  0  0  0  0  0
  160.9460  206.0990  145.9800 O   0  0  0  0  0  0  0  0  0  0  0  0
  161.7630  204.9350  146.0110 C   0  0  0  0  0  2  0  0  0  0  0  0
  161.4290  204.1220  147.2750 C   0  0  0  0  0  2  0  0  0  0  0  0
  159.5500  210.6440  154.4380 C   0  0  0  0  0  0  0  0  0  0  0  0
  160.0430  211.3640  155.5190 C   0  0  0  0  0  0  0  0  0  0  0  0
  161.0750  210.7950  156.2420 C   0  0  0  0  0  3  0  0  0  0  0  0
  161.5610  209.6200  155.8860 N   0  0  0  0  0  0  0  0  0  0  0  0
  161.0640  208.9580  154.8570 C   0  0  0  0  0  0  0  0  0  0  0  0
  160.0790  209.4680  154.1410 N   0  0  0  0  0  4  0  0  0  0  0  0
  161.6860  207.6680  154.5630 N   0  0  0  0  0  2  0  0  0  0  0  0
  159.4760  212.7220  155.9110 C   0  0  0  0  0  0  0  0  0  0  0  0
  160.1120  213.1530  157.0320 F   0  0  0  0  0  0  0  0  0  0  0  0
  159.7040  213.6070  154.9010 F   0  0  0  0  0  0  0  0  0  0  0  0
  158.1420  212.6500  156.1570 F   0  0  0  0  0  0  0  0  0  0  0  0
  158.4640  211.1920  153.6440 N   0  0  0  0  0  2  0  0  0  0  0  0
  157.8910  213.1200  152.2670 C   0  0  0  0  0  1  0  0  0  0  0  0
  158.7420  211.8570  152.3850 C   0  0  0  0  0  2  0  0  0  0  0  0
  162.1820  208.6760  152.0720 O   0  0  0  0  0  0  0  0  0  0  0  0
  161.9580  209.2950  150.8360 C   0  0  0  0  0  1  0  0  0  0  0  0
  1  2  1  0  0  0  0
  1 22  1  0  0  0  0
  3  7  1  0  0  0  0
  3  2  2  0  0  0  0
  4  3  1  0  0  0  0
  5  4  2  0  0  0  0
  5  6  1  0  0  0  0
  6  1  2  0  0  0  0
  8  9  2  0  0  0  0
  8  4  1  0  0  0  0
 10  8  1  0  0  0  0
 11 10  1  0  0  0  0
 12 11  1  0  0  0  0
 13 14  1  0  0  0  0
 13 12  1  0  0  0  0
 14 15  1  0  0  0  0
 15 10  1  0  0  0  0
 16 17  1  0  0  0  0
 17 23  1  0  0  0  0
 17 18  2  0  0  0  0
 19 18  1  0  0  0  0
 20 19  2  0  0  0  0
 21 16  2  0  0  0  0
 21 20  2  0  0  0  0
 22 20  1  0  0  0  0
 23 26  1  0  0  0  0
 23 24  1  0  0  0  0
 25 23  1  0  0  0  0
 27 16  1  0  0  0  0
 28 29  1  0  0  0  0
 29 27  1  0  0  0  0
 30  6  1  0  0  0  0
 31 30  1  0  0  0  0
M  END
>  <MODEL>
8

>  <REMARK>
 VINA RESULT:      -6.6      3.053      9.040
  Name = 8u7h
  6 active torsions:
  status: ('A' for Active; 'I' for Inactive)
    1  A    between atoms: C_2  and  N_3
    2  A    between atoms: N_3  and  C_4
    3  A    between atoms: C_5  and  C_27
    4  A    between atoms: N_10  and  C_11
    5  A    between atoms: C_14  and  C_19
    6  A    between atoms: C_16  and  O_17
                            x       y       z     vdW  Elec       q    Type
                         _______ _______ _______ _____ _____    ______ ____

>  <TORSDO>
F 6

$$$$
8u7h
 OpenBabel11072415333D

 31 33  0  0  0  0  0  0  0  0999 V2000
  161.3400  212.7260  146.6020 C   0  0  0  0  0  0  0  0  0  0  0  0
  162.3620  212.9250  145.6820 C   0  0  0  0  0  3  0  0  0  0  0  0
  162.0630  213.1420  144.3420 C   0  0  0  0  0  0  0  0  0  0  0  0
  160.7430  213.1830  143.9240 C   0  0  0  0  0  0  0  0  0  0  0  0
  159.7250  212.9970  144.8430 C   0  0  0  0  0  3  0  0  0  0  0  0
  160.0230  212.7920  146.1810 C   0  0  0  0  0  0  0  0  0  0  0  0
  163.0720  213.3190  143.4360 F   0  0  0  0  0  0  0  0  0  0  0  0
  160.3780  213.4280  142.4420 C   0  0  0  0  0  0  0  0  0  0  0  0
  159.8530  214.4510  142.1590 O   0  0  0  0  0  0  0  0  0  0  0  0
  160.6050  212.4340  141.3890 N   0  0  0  0  0  0  0  0  0  0  0  0
  161.2250  211.1460  141.5710 C   0  0  0  0  0  2  0  0  0  0  0  0
  162.4490  211.1480  140.6450 C   0  0  0  0  0  2  0  0  0  0  0  0
  162.0690  211.2210  139.2700 O   0  0  0  0  0  0  0  0  0  0  0  0
  160.6810  211.4750  139.0830 C   0  0  0  0  0  2  0  0  0  0  0  0
  160.2600  212.6440  139.9920 C   0  0  0  0  0  2  0  0  0  0  0  0
  161.9930  208.9860  148.9130 C   0  0  0  0  0  0  0  0  0  0  0  0
  162.0040  209.0640  150.3000 C   0  0  0  0  0  0  0  0  0  0  0  0
  161.8770  210.3190  150.8640 C   0  0  0  0  0  3  0  0  0  0  0  0
  161.7380  211.3800  150.0920 N   0  0  0  0  0  0  0  0  0  0  0  0
  161.7390  211.2720  148.7750 C   0  0  0  0  0  0  0  0  0  0  0  0
  161.8580  210.0910  148.1970 N   0  0  0  0  0  4  0  0  0  0  0  0
  161.5780  212.5200  148.0290 N   0  0  0  0  0  2  0  0  0  0  0  0
  162.1580  207.8280  151.1760 C   0  0  0  0  0  0  0  0  0  0  0  0
  162.2850  208.2240  152.4690 F   0  0  0  0  0  0  0  0  0  0  0  0
  161.0420  207.0560  151.0540 F   0  0  0  0  0  0  0  0  0  0  0  0
  163.2500  207.1020  150.8240 F   0  0  0  0  0  0  0  0  0  0  0  0
  162.1260  207.6940  148.2630 N   0  0  0  0  0  2  0  0  0  0  0  0
  161.0970  205.4910  148.0860 C   0  0  0  0  0  1  0  0  0  0  0  0
  160.9480  206.9830  147.7990 C   0  0  0  0  0  2  0  0  0  0  0  0
  159.0030  212.6030  147.1210 O   0  0  0  0  0  0  0  0  0  0  0  0
  157.7100  212.4670  146.6000 C   0  0  0  0  0  1  0  0  0  0  0  0
  1 22  1  0  0  0  0
  2  1  2  0  0  0  0
  3  2  1  0  0  0  0
  4  3  2  0  0  0  0
  4  5  1  0  0  0  0
  5  6  2  0  0  0  0
  6  1  1  0  0  0  0
  6 30  1  0  0  0  0
  7  3  1  0  0  0  0
  8  4  1  0  0  0  0
  9  8  2  0  0  0  0
 10 11  1  0  0  0  0
 10  8  1  0  0  0  0
 12 11  1  0  0  0  0
 13 12  1  0  0  0  0
 14 13  1  0  0  0  0
 14 15  1  0  0  0  0
 15 10  1  0  0  0  0
 16 17  1  0  0  0  0
 17 18  2  0  0  0  0
 17 23  1  0  0  0  0
 19 18  1  0  0  0  0
 20 19  2  0  0  0  0
 21 20  2  0  0  0  0
 21 16  2  0  0  0  0
 22 20  1  0  0  0  0
 23 24  1  0  0  0  0
 25 23  1  0  0  0  0
 26 23  1  0  0  0  0
 27 16  1  0  0  0  0
 29 28  1  0  0  0  0
 29 27  1  0  0  0  0
 31 30  1  0  0  0  0
M  END
>  <MODEL>
9

>  <REMARK>
 VINA RESULT:      -6.6      5.483      9.087
  Name = 8u7h
  6 active torsions:
  status: ('A' for Active; 'I' for Inactive)
    1  A    between atoms: C_2  and  N_3
    2  A    between atoms: N_3  and  C_4
    3  A    between atoms: C_5  and  C_27
    4  A    between atoms: N_10  and  C_11
    5  A    between atoms: C_14  and  C_19
    6  A    between atoms: C_16  and  O_17
                            x       y       z     vdW  Elec       q    Type
                         _______ _______ _______ _____ _____    ______ ____

>  <TORSDO>
F 6

$$$$
