7li3
 OpenBabel11072415333D

 31 33  0  0  1  0  0  0  0  0999 V2000
  161.7810  207.2760  152.1000 C   0  0  1  0  0  3  0  0  0  0  0  0
  162.3140  206.2400  151.2840 O   0  0  0  0  0  0  0  0  0  0  0  0
  161.0270  208.2250  151.1910 C   0  0  1  0  0  3  0  0  0  0  0  0
  161.6510  209.5050  151.2670 O   0  0  0  0  0  1  0  0  0  0  0  0
  161.1980  207.6900  149.7890 C   0  0  1  0  0  3  0  0  0  0  0  0
  161.7010  208.7220  148.9410 O   0  0  0  0  0  1  0  0  0  0  0  0
  162.2240  206.5820  149.9080 C   0  0  2  0  0  3  0  0  0  0  0  0
  161.8900  204.3380  145.2170 N   0  0  0  0  0  0  0  0  0  0  0  0
  162.3970  205.5300  145.5770 C   0  0  0  0  0  3  0  0  0  0  0  0
  162.4140  205.9820  146.8400 N   0  0  0  0  0  0  0  0  0  0  0  0
  161.9050  205.2340  147.8400 C   0  0  0  0  0  0  0  0  0  0  0  0
  161.3360  203.9200  147.5330 C   0  0  0  0  0  0  0  0  0  0  0  0
  161.3510  203.4930  146.1200 C   0  0  0  0  0  0  0  0  0  0  0  0
  160.8430  202.2940  145.7530 N   0  0  0  0  0  1  0  0  0  0  0  0
  160.9120  203.4000  148.6970 N   0  0  0  0  0  0  0  0  0  0  0  0
  161.1880  204.3060  149.6670 C   0  0  0  0  0  3  0  0  0  0  0  0
  161.7800  205.3940  149.1510 N   0  0  0  0  0  0  0  0  0  0  0  0
  160.8950  206.6750  153.1780 C   0  0  0  0  0  2  0  0  0  0  0  0
  161.5090  206.8970  154.4390 O   0  0  0  0  0  0  0  0  0  0  0  0
  160.8070  207.8930  155.4800 P   0  0  1  0  0  0  0  0  0  0  0  0
  159.5570  207.2420  156.0150 O   0  0  0  0  0  0  0  0  0  0  0  0
  161.8630  208.4330  156.4100 O   0  0  0  0  0  1  0  0  0  0  0  0
  160.4050  209.0910  154.4890 O   0  0  0  0  0  0  0  0  0  0  0  0
  160.0040  210.5300  155.0780 P   0  0  1  0  0  0  0  0  0  0  0  0
  159.1240  210.3070  156.2840 O   0  0  0  0  0  1  0  0  0  0  0  0
  161.2510  211.3680  155.1960 O   0  0  0  0  0  0  0  0  0  0  0  0
  159.0830  211.1130  153.8960 O   0  0  0  0  0  0  0  0  0  0  0  0
  157.9920  212.2530  154.2010 P   0  0  0  0  0  0  0  0  0  0  0  0
  157.7850  212.9230  152.8650 O   0  0  0  0  0  0  0  0  0  0  0  0
  158.6630  213.1230  155.2360 O   0  0  0  0  0  1  0  0  0  0  0  0
  156.7930  211.4850  154.7020 O   0  0  0  0  0  1  0  0  0  0  0  0
  1 18  1  1  0  0  0
  2  1  1  0  0  0  0
  3  4  1  6  0  0  0
  3  1  1  0  0  0  0
  5  6  1  6  0  0  0
  5  7  1  0  0  0  0
  5  3  1  0  0  0  0
  7 17  1  6  0  0  0
  7  2  1  0  0  0  0
  8  9  2  0  0  0  0
  8 13  1  0  0  0  0
  9 10  1  0  0  0  0
 10 11  2  0  0  0  0
 11 17  1  0  0  0  0
 12 11  1  0  0  0  0
 12 15  1  0  0  0  0
 13 12  2  0  0  0  0
 14 13  1  0  0  0  0
 15 16  2  0  0  0  0
 17 16  1  0  0  0  0
 18 19  1  0  0  0  0
 19 20  1  0  0  0  0
 20 21  2  1  0  0  0
 20 22  1  0  0  0  0
 23 24  1  0  0  0  0
 23 20  1  0  0  0  0
 24 26  2  1  0  0  0
 24 25  1  0  0  0  0
 27 28  1  0  0  0  0
 27 24  1  0  0  0  0
 28 31  1  0  0  0  0
 28 30  1  0  0  0  0
 29 28  2  0  0  0  0
M  END
>  <MODEL>
1

>  <REMARK>
 VINA RESULT:      -7.0      0.000      0.000
  Name = 7li3
  8 active torsions:
  status: ('A' for Active; 'I' for Inactive)
    1  A    between atoms: P_1  and  O_5
    2  A    between atoms: P_1  and  O_22
    3  A    between atoms: P_2  and  O_22
    4  A    between atoms: P_2  and  O_23
    5  A    between atoms: P_3  and  O_23
    6  A    between atoms: C_4  and  O_5
    7  A    between atoms: C_4  and  C_6
    8  A    between atoms: C_12  and  N_31
                            x       y       z     vdW  Elec       q    Type
                         _______ _______ _______ _____ _____    ______ ____

>  <TORSDO>
F 8

$$$$
7li3
 OpenBabel11072415333D

 31 33  0  0  1  0  0  0  0  0999 V2000
  161.1610  207.6590  152.2220 C   0  0  1  0  0  3  0  0  0  0  0  0
  160.6070  207.3350  150.9530 O   0  0  0  0  0  0  0  0  0  0  0  0
  161.9870  206.4700  152.6720 C   0  0  1  0  0  3  0  0  0  0  0  0
  161.4200  205.9650  153.8790 O   0  0  0  0  0  1  0  0  0  0  0  0
  161.8360  205.4220  151.5950 C   0  0  1  0  0  3  0  0  0  0  0  0
  161.4080  204.1920  152.1810 O   0  0  0  0  0  1  0  0  0  0  0  0
  160.7570  205.9490  150.6730 C   0  0  2  0  0  3  0  0  0  0  0  0
  161.3470  202.6270  146.7030 N   0  0  0  0  0  0  0  0  0  0  0  0
  160.9100  202.4160  147.9570 C   0  0  0  0  0  3  0  0  0  0  0  0
  160.8110  203.3800  148.8840 N   0  0  0  0  0  0  0  0  0  0  0  0
  161.1580  204.6500  148.5890 C   0  0  0  0  0  0  0  0  0  0  0  0
  161.6410  204.9660  147.2430 C   0  0  0  0  0  0  0  0  0  0  0  0
  161.7240  203.8510  146.2780 C   0  0  0  0  0  0  0  0  0  0  0  0
  162.1630  204.0590  145.0160 N   0  0  0  0  0  1  0  0  0  0  0  0
  161.9060  206.2820  147.2260 N   0  0  0  0  0  0  0  0  0  0  0  0
  161.6160  206.7670  148.4580 C   0  0  0  0  0  3  0  0  0  0  0  0
  161.1700  205.7920  149.2640 N   0  0  0  0  0  0  0  0  0  0  0  0
  161.9830  208.9320  152.1140 C   0  0  0  0  0  2  0  0  0  0  0  0
  161.1480  210.0350  152.4330 O   0  0  0  0  0  0  0  0  0  0  0  0
  160.9780  210.4610  153.9690 P   0  0  1  0  0  0  0  0  0  0  0  0
  160.0230  209.5060  154.6400 O   0  0  0  0  0  1  0  0  0  0  0  0
  162.3450  210.7260  154.5440 O   0  0  0  0  0  0  0  0  0  0  0  0
  160.2670  211.8880  153.7820 O   0  0  0  0  0  0  0  0  0  0  0  0
  159.1940  212.4050  154.8600 P   0  0  1  0  0  0  0  0  0  0  0  0
  159.6270  211.9110  156.2180 O   0  0  0  0  0  1  0  0  0  0  0  0
  158.9500  213.8750  154.6320 O   0  0  0  0  0  0  0  0  0  0  0  0
  157.8850  211.5780  154.4280 O   0  0  0  0  0  0  0  0  0  0  0  0
  156.4350  212.0030  154.9760 P   0  0  0  0  0  0  0  0  0  0  0  0
  156.7110  212.5240  156.3650 O   0  0  0  0  0  1  0  0  0  0  0  0
  155.6470  210.7150  154.9390 O   0  0  0  0  0  1  0  0  0  0  0  0
  155.9700  213.0550  153.9990 O   0  0  0  0  0  0  0  0  0  0  0  0
  1 18  1  6  0  0  0
  1  3  1  0  0  0  0
  2  1  1  0  0  0  0
  3  4  1  1  0  0  0
  5  6  1  1  0  0  0
  5  3  1  0  0  0  0
  7 17  1  6  0  0  0
  7  2  1  0  0  0  0
  7  5  1  0  0  0  0
  8  9  1  0  0  0  0
  9 10  2  0  0  0  0
 11 10  1  0  0  0  0
 11 17  1  0  0  0  0
 12 11  2  0  0  0  0
 13  8  2  0  0  0  0
 13 12  1  0  0  0  0
 14 13  1  0  0  0  0
 15 12  1  0  0  0  0
 15 16  2  0  0  0  0
 16 17  1  0  0  0  0
 18 19  1  0  0  0  0
 19 20  1  0  0  0  0
 20 22  2  1  0  0  0
 20 21  1  0  0  0  0
 23 20  1  0  0  0  0
 23 24  1  0  0  0  0
 24 26  2  6  0  0  0
 24 25  1  0  0  0  0
 27 24  1  0  0  0  0
 27 28  1  0  0  0  0
 28 29  1  0  0  0  0
 30 28  1  0  0  0  0
 31 28  2  0  0  0  0
M  END
>  <MODEL>
2

>  <REMARK>
 VINA RESULT:      -6.7      1.549      2.835
  Name = 7li3
  8 active torsions:
  status: ('A' for Active; 'I' for Inactive)
    1  A    between atoms: P_1  and  O_5
    2  A    between atoms: P_1  and  O_22
    3  A    between atoms: P_2  and  O_22
    4  A    between atoms: P_2  and  O_23
    5  A    between atoms: P_3  and  O_23
    6  A    between atoms: C_4  and  O_5
    7  A    between atoms: C_4  and  C_6
    8  A    between atoms: C_12  and  N_31
                            x       y       z     vdW  Elec       q    Type
                         _______ _______ _______ _____ _____    ______ ____

>  <TORSDO>
F 8

$$$$
7li3
 OpenBabel11072415333D

 31 33  0  0  1  0  0  0  0  0999 V2000
  161.7820  207.8180  152.8200 C   0  0  1  0  0  3  0  0  0  0  0  0
  162.2510  206.7420  152.0170 O   0  0  0  0  0  0  0  0  0  0  0  0
  161.1470  208.8330  151.8900 C   0  0  1  0  0  3  0  0  0  0  0  0
  161.8780  210.0530  151.9960 O   0  0  0  0  0  1  0  0  0  0  0  0
  161.3210  208.2880  150.4920 C   0  0  1  0  0  3  0  0  0  0  0  0
  161.9430  209.2740  149.6680 O   0  0  0  0  0  1  0  0  0  0  0  0
  162.2410  207.0940  150.6410 C   0  0  2  0  0  3  0  0  0  0  0  0
  160.8270  202.0810  150.7680 N   0  0  0  0  0  0  0  0  0  0  0  0
  161.2940  202.8790  151.7450 C   0  0  0  0  0  3  0  0  0  0  0  0
  161.6220  204.1660  151.5620 N   0  0  0  0  0  0  0  0  0  0  0  0
  161.4940  204.7390  150.3480 C   0  0  0  0  0  0  0  0  0  0  0  0
  160.9880  203.9400  149.2300 C   0  0  0  0  0  0  0  0  0  0  0  0
  160.6510  202.5290  149.5080 C   0  0  0  0  0  0  0  0  0  0  0  0
  160.1800  201.7240  148.5290 N   0  0  0  0  0  1  0  0  0  0  0  0
  160.9590  204.7480  148.1580 N   0  0  0  0  0  0  0  0  0  0  0  0
  161.4080  205.9630  148.5580 C   0  0  0  0  0  3  0  0  0  0  0  0
  161.7230  205.9520  149.8620 N   0  0  0  0  0  0  0  0  0  0  0  0
  160.8080  207.2950  153.8620 C   0  0  0  0  0  2  0  0  0  0  0  0
  161.4350  207.3620  155.1350 O   0  0  0  0  0  0  0  0  0  0  0  0
  160.6090  207.9480  156.3770 P   0  0  1  0  0  0  0  0  0  0  0  0
  159.7820  206.8420  156.9830 O   0  0  0  0  0  0  0  0  0  0  0  0
  161.5430  208.7740  157.2230 O   0  0  0  0  0  1  0  0  0  0  0  0
  159.6460  208.9770  155.6070 O   0  0  0  0  0  0  0  0  0  0  0  0
  159.9290  210.5560  155.6750 P   0  0  1  0  0  0  0  0  0  0  0  0
  159.5210  211.0410  157.0440 O   0  0  0  0  0  1  0  0  0  0  0  0
  161.3230  210.8180  155.1630 O   0  0  0  0  0  0  0  0  0  0  0  0
  158.8610  211.1170  154.6130 O   0  0  0  0  0  0  0  0  0  0  0  0
  158.9630  212.6290  154.0770 P   0  0  0  0  0  0  0  0  0  0  0  0
  159.5020  213.3970  155.2580 O   0  0  0  0  0  1  0  0  0  0  0  0
  157.5400  212.9730  153.7080 O   0  0  0  0  0  1  0  0  0  0  0  0
  159.9130  212.5390  152.9080 O   0  0  0  0  0  0  0  0  0  0  0  0
  1 18  1  1  0  0  0
  2  1  1  0  0  0  0
  3  4  1  6  0  0  0
  3  1  1  0  0  0  0
  5  6  1  6  0  0  0
  5  7  1  0  0  0  0
  5  3  1  0  0  0  0
  7 17  1  6  0  0  0
  7  2  1  0  0  0  0
  8  9  1  0  0  0  0
 10  9  2  0  0  0  0
 11 10  1  0  0  0  0
 12 13  1  0  0  0  0
 12 11  2  0  0  0  0
 13  8  2  0  0  0  0
 14 13  1  0  0  0  0
 15 16  2  0  0  0  0
 15 12  1  0  0  0  0
 16 17  1  0  0  0  0
 17 11  1  0  0  0  0
 18 19  1  0  0  0  0
 19 20  1  0  0  0  0
 20 21  2  1  0  0  0
 20 22  1  0  0  0  0
 23 24  1  0  0  0  0
 23 20  1  0  0  0  0
 24 26  2  6  0  0  0
 24 25  1  0  0  0  0
 27 24  1  0  0  0  0
 28 27  1  0  0  0  0
 28 29  1  0  0  0  0
 30 28  1  0  0  0  0
 31 28  2  0  0  0  0
M  END
>  <MODEL>
3

>  <REMARK>
 VINA RESULT:      -6.6      1.524      2.476
  Name = 7li3
  8 active torsions:
  status: ('A' for Active; 'I' for Inactive)
    1  A    between atoms: P_1  and  O_5
    2  A    between atoms: P_1  and  O_22
    3  A    between atoms: P_2  and  O_22
    4  A    between atoms: P_2  and  O_23
    5  A    between atoms: P_3  and  O_23
    6  A    between atoms: C_4  and  O_5
    7  A    between atoms: C_4  and  C_6
    8  A    between atoms: C_12  and  N_31
                            x       y       z     vdW  Elec       q    Type
                         _______ _______ _______ _____ _____    ______ ____

>  <TORSDO>
F 8

$$$$
7li3
 OpenBabel11072415333D

 31 33  0  0  1  0  0  0  0  0999 V2000
  161.6510  208.0040  152.8920 C   0  0  1  0  0  3  0  0  0  0  0  0
  162.1130  206.7100  152.5220 O   0  0  0  0  0  0  0  0  0  0  0  0
  160.9270  208.5860  151.6950 C   0  0  1  0  0  3  0  0  0  0  0  0
  161.6170  209.7650  151.2870 O   0  0  0  0  0  1  0  0  0  0  0  0
  161.0400  207.5570  150.5950 C   0  0  1  0  0  3  0  0  0  0  0  0
  161.5770  208.1690  149.4220 O   0  0  0  0  0  1  0  0  0  0  0  0
  162.0110  206.5190  151.1180 C   0  0  2  0  0  3  0  0  0  0  0  0
  161.1300  202.8530  147.5210 N   0  0  0  0  0  0  0  0  0  0  0  0
  161.6650  204.0810  147.4000 C   0  0  0  0  0  3  0  0  0  0  0  0
  161.8300  204.9260  148.4270 N   0  0  0  0  0  0  0  0  0  0  0  0
  161.4560  204.5700  149.6730 C   0  0  0  0  0  0  0  0  0  0  0  0
  160.8680  203.2470  149.8930 C   0  0  0  0  0  0  0  0  0  0  0  0
  160.7150  202.3730  148.7130 C   0  0  0  0  0  0  0  0  0  0  0  0
  160.1790  201.1370  148.8310 N   0  0  0  0  0  1  0  0  0  0  0  0
  160.5960  203.1570  151.2050 N   0  0  0  0  0  0  0  0  0  0  0  0
  160.9780  204.3250  151.7760 C   0  0  0  0  0  3  0  0  0  0  0  0
  161.4910  205.1610  150.8600 N   0  0  0  0  0  0  0  0  0  0  0  0
  160.7590  207.8980  154.1180 C   0  0  0  0  0  2  0  0  0  0  0  0
  161.4890  208.3600  155.2460 O   0  0  0  0  0  0  0  0  0  0  0  0
  161.4140  209.9120  155.6370 P   0  0  1  0  0  0  0  0  0  0  0  0
  161.2810  210.0350  157.1340 O   0  0  0  0  0  1  0  0  0  0  0  0
  162.4990  210.6440  154.8890 O   0  0  0  0  0  0  0  0  0  0  0  0
  160.0220  210.3060  154.9400 O   0  0  0  0  0  0  0  0  0  0  0  0
  159.7030  211.8370  154.5780 P   0  0  1  0  0  0  0  0  0  0  0  0
  160.1910  212.6940  155.7200 O   0  0  0  0  0  1  0  0  0  0  0  0
  160.1760  212.1090  153.1720 O   0  0  0  0  0  0  0  0  0  0  0  0
  158.0960  211.8440  154.6060 O   0  0  0  0  0  0  0  0  0  0  0  0
  157.2900  213.2260  154.7550 P   0  0  0  0  0  0  0  0  0  0  0  0
  157.2200  213.4470  156.2460 O   0  0  0  0  0  1  0  0  0  0  0  0
  155.9580  212.9350  154.1060 O   0  0  0  0  0  1  0  0  0  0  0  0
  158.1450  214.2290  154.0190 O   0  0  0  0  0  0  0  0  0  0  0  0
  1 18  1  1  0  0  0
  2  1  1  0  0  0  0
  3  4  1  6  0  0  0
  3  1  1  0  0  0  0
  5  6  1  6  0  0  0
  5  7  1  0  0  0  0
  5  3  1  0  0  0  0
  7 17  1  1  0  0  0
  7  2  1  0  0  0  0
  8 13  1  0  0  0  0
  9  8  2  0  0  0  0
  9 10  1  0  0  0  0
 10 11  2  0  0  0  0
 11 12  1  0  0  0  0
 11 17  1  0  0  0  0
 12 15  1  0  0  0  0
 13 14  1  0  0  0  0
 13 12  2  0  0  0  0
 15 16  2  0  0  0  0
 17 16  1  0  0  0  0
 18 19  1  0  0  0  0
 19 20  1  0  0  0  0
 20 22  2  6  0  0  0
 20 21  1  0  0  0  0
 23 20  1  0  0  0  0
 24 26  2  6  0  0  0
 24 27  1  0  0  0  0
 24 23  1  0  0  0  0
 24 25  1  0  0  0  0
 27 28  1  0  0  0  0
 28 29  1  0  0  0  0
 30 28  1  0  0  0  0
 31 28  2  0  0  0  0
M  END
>  <MODEL>
4

>  <REMARK>
 VINA RESULT:      -6.6      1.510      2.188
  Name = 7li3
  8 active torsions:
  status: ('A' for Active; 'I' for Inactive)
    1  A    between atoms: P_1  and  O_5
    2  A    between atoms: P_1  and  O_22
    3  A    between atoms: P_2  and  O_22
    4  A    between atoms: P_2  and  O_23
    5  A    between atoms: P_3  and  O_23
    6  A    between atoms: C_4  and  O_5
    7  A    between atoms: C_4  and  C_6
    8  A    between atoms: C_12  and  N_31
                            x       y       z     vdW  Elec       q    Type
                         _______ _______ _______ _____ _____    ______ ____

>  <TORSDO>
F 8

$$$$
7li3
 OpenBabel11072415333D

 31 33  0  0  1  0  0  0  0  0999 V2000
  161.2580  206.6730  151.7500 C   0  0  1  0  0  3  0  0  0  0  0  0
  160.6330  206.1590  150.5800 O   0  0  0  0  0  0  0  0  0  0  0  0
  161.8460  205.4970  152.5040 C   0  0  1  0  0  3  0  0  0  0  0  0
  161.2100  205.4220  153.7780 O   0  0  0  0  0  1  0  0  0  0  0  0
  161.4800  204.2650  151.7110 C   0  0  1  0  0  3  0  0  0  0  0  0
  160.8310  203.3220  152.5650 O   0  0  0  0  0  1  0  0  0  0  0  0
  160.5090  204.7450  150.6530 C   0  0  2  0  0  3  0  0  0  0  0  0
  162.1780  205.7460  145.8190 N   0  0  0  0  0  0  0  0  0  0  0  0
  161.9470  206.5780  146.8500 C   0  0  0  0  0  3  0  0  0  0  0  0
  161.5120  206.1730  148.0520 N   0  0  0  0  0  0  0  0  0  0  0  0
  161.2790  204.8650  148.2890 C   0  0  0  0  0  0  0  0  0  0  0  0
  161.5100  203.8920  147.2200 C   0  0  0  0  0  0  0  0  0  0  0  0
  161.9860  204.4150  145.9240 C   0  0  0  0  0  0  0  0  0  0  0  0
  162.2210  203.5810  144.8850 N   0  0  0  0  0  1  0  0  0  0  0  0
  161.2060  202.6840  147.7240 N   0  0  0  0  0  0  0  0  0  0  0  0
  160.8150  202.8710  149.0080 C   0  0  0  0  0  3  0  0  0  0  0  0
  160.8620  204.1700  149.3390 N   0  0  0  0  0  0  0  0  0  0  0  0
  162.3090  207.6990  151.3620 C   0  0  0  0  0  2  0  0  0  0  0  0
  161.6690  208.7530  150.6580 O   0  0  0  0  0  0  0  0  0  0  0  0
  161.7190  210.2360  151.2650 P   0  0  1  0  0  0  0  0  0  0  0  0
  162.8260  210.3110  152.2860 O   0  0  0  0  0  1  0  0  0  0  0  0
  161.6420  211.2200  150.1260 O   0  0  0  0  0  0  0  0  0  0  0  0
  160.2980  210.2760  152.0120 O   0  0  0  0  0  0  0  0  0  0  0  0
  159.9230  211.5070  152.9730 P   0  0  1  0  0  0  0  0  0  0  0  0
  160.8310  211.4460  154.1770 O   0  0  0  0  0  1  0  0  0  0  0  0
  159.8510  212.7630  152.1430 O   0  0  0  0  0  0  0  0  0  0  0  0
  158.4430  211.1000  153.4490 O   0  0  0  0  0  0  0  0  0  0  0  0
  157.8260  211.7090  154.8030 P   0  0  0  0  0  0  0  0  0  0  0  0
  158.2870  213.1460  154.7970 O   0  0  0  0  0  1  0  0  0  0  0  0
  158.4440  210.8620  155.8890 O   0  0  0  0  0  1  0  0  0  0  0  0
  156.3370  211.5340  154.6360 O   0  0  0  0  0  0  0  0  0  0  0  0
  1 18  1  6  0  0  0
  1  3  1  0  0  0  0
  2  7  1  0  0  0  0
  2  1  1  0  0  0  0
  3  4  1  1  0  0  0
  5  3  1  0  0  0  0
  5  6  1  1  0  0  0
  7 17  1  6  0  0  0
  7  5  1  0  0  0  0
  8 13  2  0  0  0  0
  8  9  1  0  0  0  0
  9 10  2  0  0  0  0
 10 11  1  0  0  0  0
 11 17  1  0  0  0  0
 12 15  1  0  0  0  0
 12 11  2  0  0  0  0
 13 12  1  0  0  0  0
 14 13  1  0  0  0  0
 15 16  2  0  0  0  0
 16 17  1  0  0  0  0
 19 20  1  0  0  0  0
 19 18  1  0  0  0  0
 20 22  2  6  0  0  0
 20 23  1  0  0  0  0
 20 21  1  0  0  0  0
 23 24  1  0  0  0  0
 24 26  2  6  0  0  0
 24 27  1  0  0  0  0
 24 25  1  0  0  0  0
 27 28  1  0  0  0  0
 28 30  1  0  0  0  0
 29 28  1  0  0  0  0
 31 28  2  0  0  0  0
M  END
>  <MODEL>
5

>  <REMARK>
 VINA RESULT:      -6.4      1.812      3.104
  Name = 7li3
  8 active torsions:
  status: ('A' for Active; 'I' for Inactive)
    1  A    between atoms: P_1  and  O_5
    2  A    between atoms: P_1  and  O_22
    3  A    between atoms: P_2  and  O_22
    4  A    between atoms: P_2  and  O_23
    5  A    between atoms: P_3  and  O_23
    6  A    between atoms: C_4  and  O_5
    7  A    between atoms: C_4  and  C_6
    8  A    between atoms: C_12  and  N_31
                            x       y       z     vdW  Elec       q    Type
                         _______ _______ _______ _____ _____    ______ ____

>  <TORSDO>
F 8

$$$$
7li3
 OpenBabel11072415333D

 31 33  0  0  1  0  0  0  0  0999 V2000
  160.8630  208.4180  152.8940 C   0  0  1  0  0  3  0  0  0  0  0  0
  160.4970  208.1570  151.5450 O   0  0  0  0  0  0  0  0  0  0  0  0
  161.6710  207.2320  153.3820 C   0  0  1  0  0  3  0  0  0  0  0  0
  160.9700  206.6320  154.4700 O   0  0  0  0  0  1  0  0  0  0  0  0
  161.7100  206.2500  152.2360 C   0  0  1  0  0  3  0  0  0  0  0  0
  161.2600  204.9720  152.6850 O   0  0  0  0  0  1  0  0  0  0  0  0
  160.7420  206.7980  151.2080 C   0  0  2  0  0  3  0  0  0  0  0  0
  161.7610  203.8160  147.0580 N   0  0  0  0  0  0  0  0  0  0  0  0
  161.1410  203.5170  148.2140 C   0  0  0  0  0  3  0  0  0  0  0  0
  160.9490  204.3990  149.2060 N   0  0  0  0  0  0  0  0  0  0  0  0
  161.3850  205.6700  149.0850 C   0  0  0  0  0  0  0  0  0  0  0  0
  162.0680  206.0780  147.8560 C   0  0  0  0  0  0  0  0  0  0  0  0
  162.2440  205.0510  146.8090 C   0  0  0  0  0  0  0  0  0  0  0  0
  162.8670  205.3470  145.6460 N   0  0  0  0  0  1  0  0  0  0  0  0
  162.3860  207.3750  148.0020 N   0  0  0  0  0  0  0  0  0  0  0  0
  161.9420  207.7630  149.2220 C   0  0  0  0  0  3  0  0  0  0  0  0
  161.3460  206.7450  149.8610 N   0  0  0  0  0  0  0  0  0  0  0  0
  161.6370  209.7230  152.9740 C   0  0  0  0  0  2  0  0  0  0  0  0
  162.0920  209.8950  154.3080 O   0  0  0  0  0  0  0  0  0  0  0  0
  161.1510  210.6610  155.3560 P   0  0  1  0  0  0  0  0  0  0  0  0
  160.0610  209.7240  155.8120 O   0  0  0  0  0  0  0  0  0  0  0  0
  162.0290  211.3760  156.3500 O   0  0  0  0  0  1  0  0  0  0  0  0
  160.5240  211.7840  154.3950 O   0  0  0  0  0  0  0  0  0  0  0  0
  159.3160  212.7080  154.9100 P   0  0  1  0  0  0  0  0  0  0  0  0
  158.1370  211.8100  155.1950 O   0  0  0  0  0  0  0  0  0  0  0  0
  159.8380  213.6340  155.9790 O   0  0  0  0  0  1  0  0  0  0  0  0
  158.9800  213.5600  153.5890 O   0  0  0  0  0  0  0  0  0  0  0  0
  158.7530  212.8230  152.1790 P   0  0  0  0  0  0  0  0  0  0  0  0
  157.5420  213.5120  151.6010 O   0  0  0  0  0  1  0  0  0  0  0  0
  158.5250  211.3810  152.5630 O   0  0  0  0  0  1  0  0  0  0  0  0
  160.0340  213.0800  151.4230 O   0  0  0  0  0  0  0  0  0  0  0  0
  1 18  1  6  0  0  0
  1  3  1  0  0  0  0
  2  1  1  0  0  0  0
  3  4  1  1  0  0  0
  5  6  1  1  0  0  0
  5  3  1  0  0  0  0
  7 17  1  6  0  0  0
  7  2  1  0  0  0  0
  7  5  1  0  0  0  0
  8  9  1  0  0  0  0
  9 10  2  0  0  0  0
 11 10  1  0  0  0  0
 11 17  1  0  0  0  0
 12 15  1  0  0  0  0
 12 11  2  0  0  0  0
 13  8  2  0  0  0  0
 13 12  1  0  0  0  0
 14 13  1  0  0  0  0
 15 16  2  0  0  0  0
 16 17  1  0  0  0  0
 18 19  1  0  0  0  0
 19 20  1  0  0  0  0
 20 21  2  1  0  0  0
 20 22  1  0  0  0  0
 23 24  1  0  0  0  0
 23 20  1  0  0  0  0
 24 25  2  1  0  0  0
 24 26  1  0  0  0  0
 27 24  1  0  0  0  0
 28 30  1  0  0  0  0
 28 27  1  0  0  0  0
 29 28  1  0  0  0  0
 31 28  2  0  0  0  0
M  END
>  <MODEL>
6

>  <REMARK>
 VINA RESULT:      -6.3      1.606      2.974
  Name = 7li3
  8 active torsions:
  status: ('A' for Active; 'I' for Inactive)
    1  A    between atoms: P_1  and  O_5
    2  A    between atoms: P_1  and  O_22
    3  A    between atoms: P_2  and  O_22
    4  A    between atoms: P_2  and  O_23
    5  A    between atoms: P_3  and  O_23
    6  A    between atoms: C_4  and  O_5
    7  A    between atoms: C_4  and  C_6
    8  A    between atoms: C_12  and  N_31
                            x       y       z     vdW  Elec       q    Type
                         _______ _______ _______ _____ _____    ______ ____

>  <TORSDO>
F 8

$$$$
7li3
 OpenBabel11072415333D

 31 33  0  0  1  0  0  0  0  0999 V2000
  162.3030  208.4580  149.3770 C   0  0  1  0  0  3  0  0  0  0  0  0
  162.5420  208.9360  150.6950 O   0  0  0  0  0  0  0  0  0  0  0  0
  161.1890  207.4340  149.4620 C   0  0  1  0  0  3  0  0  0  0  0  0
  161.7030  206.1780  149.0230 O   0  0  0  0  0  1  0  0  0  0  0  0
  160.8310  207.3220  150.9250 C   0  0  1  0  0  3  0  0  0  0  0  0
  160.8880  205.9540  151.3280 O   0  0  0  0  0  1  0  0  0  0  0  0
  161.8950  208.1130  151.6570 C   0  0  2  0  0  3  0  0  0  0  0  0
  159.9440  208.3660  156.4820 N   0  0  0  0  0  0  0  0  0  0  0  0
  160.4750  207.3280  155.8110 C   0  0  0  0  0  3  0  0  0  0  0  0
  160.9410  207.4130  154.5570 N   0  0  0  0  0  0  0  0  0  0  0  0
  160.8990  208.5840  153.8890 C   0  0  0  0  0  0  0  0  0  0  0  0
  160.3400  209.7650  154.5500 C   0  0  0  0  0  0  0  0  0  0  0  0
  159.8440  209.5930  155.9300 C   0  0  0  0  0  0  0  0  0  0  0  0
  159.3110  210.6340  156.6090 N   0  0  0  0  0  1  0  0  0  0  0  0
  160.4240  210.7770  153.6710 N   0  0  0  0  0  0  0  0  0  0  0  0
  160.9900  210.2840  152.5420 C   0  0  0  0  0  3  0  0  0  0  0  0
  161.2720  208.9790  152.6790 N   0  0  0  0  0  0  0  0  0  0  0  0
  161.9560  209.6220  148.4640 C   0  0  0  0  0  2  0  0  0  0  0  0
  162.0580  210.8250  149.2120 O   0  0  0  0  0  0  0  0  0  0  0  0
  161.9560  212.2280  148.4440 P   0  0  1  0  0  0  0  0  0  0  0  0
  161.2050  213.2080  149.3090 O   0  0  0  0  0  1  0  0  0  0  0  0
  163.3150  212.5640  147.8860 O   0  0  0  0  0  0  0  0  0  0  0  0
  161.0360  211.7960  147.2010 O   0  0  0  0  0  0  0  0  0  0  0  0
  160.2750  212.9110  146.3310 P   0  0  1  0  0  0  0  0  0  0  0  0
  158.8190  212.8910  146.7280 O   0  0  0  0  0  1  0  0  0  0  0  0
  161.0600  214.1960  146.3990 O   0  0  0  0  0  0  0  0  0  0  0  0
  160.3920  212.2960  144.8510 O   0  0  0  0  0  0  0  0  0  0  0  0
  161.3860  212.9530  143.7720 P   0  0  0  0  0  0  0  0  0  0  0  0
  161.3040  212.0210  142.5890 O   0  0  0  0  0  0  0  0  0  0  0  0
  162.7240  212.9540  144.4730 O   0  0  0  0  0  1  0  0  0  0  0  0
  160.8020  214.3230  143.5250 O   0  0  0  0  0  1  0  0  0  0  0  0
  1 18  1  6  0  0  0
  1  3  1  0  0  0  0
  1  2  1  0  0  0  0
  2  7  1  0  0  0  0
  3  4  1  1  0  0  0
  3  5  1  0  0  0  0
  5  6  1  1  0  0  0
  5  7  1  0  0  0  0
  7 17  1  1  0  0  0
  9  8  2  0  0  0  0
 10  9  1  0  0  0  0
 11 12  1  0  0  0  0
 11 10  2  0  0  0  0
 12 13  2  0  0  0  0
 13  8  1  0  0  0  0
 13 14  1  0  0  0  0
 15 12  1  0  0  0  0
 16 17  1  0  0  0  0
 16 15  2  0  0  0  0
 17 11  1  0  0  0  0
 18 19  1  0  0  0  0
 20 22  2  6  0  0  0
 20 19  1  0  0  0  0
 20 21  1  0  0  0  0
 23 20  1  0  0  0  0
 24 26  2  1  0  0  0
 24 25  1  0  0  0  0
 24 23  1  0  0  0  0
 27 24  1  0  0  0  0
 28 30  1  0  0  0  0
 28 27  1  0  0  0  0
 29 28  2  0  0  0  0
 31 28  1  0  0  0  0
M  END
>  <MODEL>
7

>  <REMARK>
 VINA RESULT:      -6.2      5.307      8.500
  Name = 7li3
  8 active torsions:
  status: ('A' for Active; 'I' for Inactive)
    1  A    between atoms: P_1  and  O_5
    2  A    between atoms: P_1  and  O_22
    3  A    between atoms: P_2  and  O_22
    4  A    between atoms: P_2  and  O_23
    5  A    between atoms: P_3  and  O_23
    6  A    between atoms: C_4  and  O_5
    7  A    between atoms: C_4  and  C_6
    8  A    between atoms: C_12  and  N_31
                            x       y       z     vdW  Elec       q    Type
                         _______ _______ _______ _____ _____    ______ ____

>  <TORSDO>
F 8

$$$$
7li3
 OpenBabel11072415333D

 31 33  0  0  1  0  0  0  0  0999 V2000
  161.2000  207.0870  151.8880 C   0  0  1  0  0  3  0  0  0  0  0  0
  160.4320  208.0790  152.5580 O   0  0  0  0  0  0  0  0  0  0  0  0
  162.3840  207.7850  151.2490 C   0  0  1  0  0  3  0  0  0  0  0  0
  162.2970  207.6080  149.8370 O   0  0  0  0  0  1  0  0  0  0  0  0
  162.2230  209.2550  151.5600 C   0  0  1  0  0  3  0  0  0  0  0  0
  162.2840  210.0090  150.3490 O   0  0  0  0  0  1  0  0  0  0  0  0
  160.8440  209.3840  152.1720 C   0  0  2  0  0  3  0  0  0  0  0  0
  158.6760  213.3780  154.7230 N   0  0  0  0  0  0  0  0  0  0  0  0
  158.3430  212.8100  153.5500 C   0  0  0  0  0  3  0  0  0  0  0  0
  159.0030  211.7750  153.0090 N   0  0  0  0  0  0  0  0  0  0  0  0
  160.0670  211.2370  153.6400 C   0  0  0  0  0  0  0  0  0  0  0  0
  160.4940  211.7940  154.9250 C   0  0  0  0  0  0  0  0  0  0  0  0
  159.7200  212.9350  155.4550 C   0  0  0  0  0  0  0  0  0  0  0  0
  160.0510  213.5080  156.6350 N   0  0  0  0  0  1  0  0  0  0  0  0
  161.5570  211.0780  155.3240 N   0  0  0  0  0  0  0  0  0  0  0  0
  161.7900  210.1410  154.3730 C   0  0  0  0  0  3  0  0  0  0  0  0
  160.8990  210.2390  153.3750 N   0  0  0  0  0  0  0  0  0  0  0  0
  161.6220  206.0120  152.8750 C   0  0  0  0  0  2  0  0  0  0  0  0
  162.2610  204.9670  152.1560 O   0  0  0  0  0  0  0  0  0  0  0  0
  161.3670  203.9700  151.2760 P   0  0  1  0  0  0  0  0  0  0  0  0
  161.5970  202.5570  151.7490 O   0  0  0  0  0  1  0  0  0  0  0  0
  159.9760  204.5410  151.1750 O   0  0  0  0  0  0  0  0  0  0  0  0
  162.0580  204.1750  149.8400 O   0  0  0  0  0  0  0  0  0  0  0  0
  161.1800  204.0830  148.4990 P   0  0  1  0  0  0  0  0  0  0  0  0
  160.4250  202.7760  148.5290 O   0  0  0  0  0  1  0  0  0  0  0  0
  160.4370  205.3820  148.3180 O   0  0  0  0  0  0  0  0  0  0  0  0
  162.3240  203.9660  147.3760 O   0  0  0  0  0  0  0  0  0  0  0  0
  162.2830  204.9020  146.0700 P   0  0  0  0  0  0  0  0  0  0  0  0
  160.9770  204.5400  145.4070 O   0  0  0  0  0  1  0  0  0  0  0  0
  163.5100  204.4890  145.2950 O   0  0  0  0  0  0  0  0  0  0  0  0
  162.3290  206.3050  146.6250 O   0  0  0  0  0  1  0  0  0  0  0  0
  1  2  1  0  0  0  0
  1 18  1  1  0  0  0
  3  4  1  6  0  0  0
  3  5  1  0  0  0  0
  3  1  1  0  0  0  0
  5  6  1  6  0  0  0
  5  7  1  0  0  0  0
  7  2  1  0  0  0  0
  7 17  1  1  0  0  0
  8 13  1  0  0  0  0
  9  8  2  0  0  0  0
 10  9  1  0  0  0  0
 10 11  2  0  0  0  0
 11 12  1  0  0  0  0
 12 15  1  0  0  0  0
 12 13  2  0  0  0  0
 13 14  1  0  0  0  0
 16 15  2  0  0  0  0
 17 11  1  0  0  0  0
 17 16  1  0  0  0  0
 19 18  1  0  0  0  0
 20 22  2  6  0  0  0
 20 21  1  0  0  0  0
 20 19  1  0  0  0  0
 23 20  1  0  0  0  0
 24 26  2  6  0  0  0
 24 25  1  0  0  0  0
 24 23  1  0  0  0  0
 27 24  1  0  0  0  0
 28 31  1  0  0  0  0
 28 27  1  0  0  0  0
 29 28  1  0  0  0  0
 30 28  2  0  0  0  0
M  END
>  <MODEL>
8

>  <REMARK>
 VINA RESULT:      -6.1      5.468      8.848
  Name = 7li3
  8 active torsions:
  status: ('A' for Active; 'I' for Inactive)
    1  A    between atoms: P_1  and  O_5
    2  A    between atoms: P_1  and  O_22
    3  A    between atoms: P_2  and  O_22
    4  A    between atoms: P_2  and  O_23
    5  A    between atoms: P_3  and  O_23
    6  A    between atoms: C_4  and  O_5
    7  A    between atoms: C_4  and  C_6
    8  A    between atoms: C_12  and  N_31
                            x       y       z     vdW  Elec       q    Type
                         _______ _______ _______ _____ _____    ______ ____

>  <TORSDO>
F 8

$$$$
7li3
 OpenBabel11072415333D

 31 33  0  0  1  0  0  0  0  0999 V2000
  162.1350  207.5920  150.3140 C   0  0  1  0  0  3  0  0  0  0  0  0
  162.3380  208.7400  151.1290 O   0  0  0  0  0  0  0  0  0  0  0  0
  161.2000  206.6640  151.0630 C   0  0  1  0  0  3  0  0  0  0  0  0
  161.8930  205.4430  151.3160 O   0  0  0  0  0  1  0  0  0  0  0  0
  160.9120  207.3350  152.3850 C   0  0  1  0  0  3  0  0  0  0  0  0
  161.1970  206.4310  153.4530 O   0  0  0  0  0  1  0  0  0  0  0  0
  161.8590  208.5140  152.4490 C   0  0  2  0  0  3  0  0  0  0  0  0
  159.7120  210.9710  156.5110 N   0  0  0  0  0  0  0  0  0  0  0  0
  160.3370  209.7820  156.4440 C   0  0  0  0  0  3  0  0  0  0  0  0
  160.8450  209.2700  155.3140 N   0  0  0  0  0  0  0  0  0  0  0  0
  160.7490  209.9490  154.1520 C   0  0  0  0  0  0  0  0  0  0  0  0
  160.0850  211.2550  154.1390 C   0  0  0  0  0  0  0  0  0  0  0  0
  159.5490  211.7510  155.4220 C   0  0  0  0  0  0  0  0  0  0  0  0
  158.9210  212.9460  155.4940 N   0  0  0  0  0  1  0  0  0  0  0  0
  160.1340  211.7010  152.8730 N   0  0  0  0  0  0  0  0  0  0  0  0
  160.7760  210.7600  152.1390 C   0  0  0  0  0  3  0  0  0  0  0  0
  161.1410  209.7210  152.9050 N   0  0  0  0  0  0  0  0  0  0  0  0
  161.5800  208.0130  148.9640 C   0  0  0  0  0  2  0  0  0  0  0  0
  160.7610  206.9640  148.4680 O   0  0  0  0  0  0  0  0  0  0  0  0
  161.2080  206.1940  147.1360 P   0  0  1  0  0  0  0  0  0  0  0  0
  160.2790  206.5780  146.0120 O   0  0  0  0  0  0  0  0  0  0  0  0
  162.7020  206.3240  146.9890 O   0  0  0  0  0  1  0  0  0  0  0  0
  160.9150  204.6790  147.5800 O   0  0  0  0  0  0  0  0  0  0  0  0
  161.4890  203.4560  146.7130 P   0  0  1  0  0  0  0  0  0  0  0  0
  161.1740  203.7290  145.2630 O   0  0  0  0  0  0  0  0  0  0  0  0
  162.9090  203.1840  147.1410 O   0  0  0  0  0  1  0  0  0  0  0  0
  160.5480  202.2480  147.2030 O   0  0  0  0  0  0  0  0  0  0  0  0
  160.6190  201.7250  148.7210 P   0  0  0  0  0  0  0  0  0  0  0  0
  161.5660  200.5520  148.6570 O   0  0  0  0  0  0  0  0  0  0  0  0
  159.1900  201.3550  149.0380 O   0  0  0  0  0  1  0  0  0  0  0  0
  161.1490  202.9100  149.4910 O   0  0  0  0  0  1  0  0  0  0  0  0
  1 18  1  6  0  0  0
  1  3  1  0  0  0  0
  1  2  1  0  0  0  0
  2  7  1  0  0  0  0
  3  4  1  1  0  0  0
  3  5  1  0  0  0  0
  5  7  1  0  0  0  0
  5  6  1  1  0  0  0
  7 17  1  6  0  0  0
  9  8  1  0  0  0  0
 10  9  2  0  0  0  0
 11 10  1  0  0  0  0
 12 11  2  0  0  0  0
 12 13  1  0  0  0  0
 13 14  1  0  0  0  0
 13  8  2  0  0  0  0
 15 12  1  0  0  0  0
 16 15  2  0  0  0  0
 16 17  1  0  0  0  0
 17 11  1  0  0  0  0
 19 18  1  0  0  0  0
 20 21  2  6  0  0  0
 20 23  1  0  0  0  0
 20 19  1  0  0  0  0
 22 20  1  0  0  0  0
 24 25  2  6  0  0  0
 24 26  1  0  0  0  0
 24 27  1  0  0  0  0
 24 23  1  0  0  0  0
 27 28  1  0  0  0  0
 28 30  1  0  0  0  0
 28 31  1  0  0  0  0
 29 28  2  0  0  0  0
M  END
>  <MODEL>
9

>  <REMARK>
 VINA RESULT:      -5.9      5.495      9.412
  Name = 7li3
  8 active torsions:
  status: ('A' for Active; 'I' for Inactive)
    1  A    between atoms: P_1  and  O_5
    2  A    between atoms: P_1  and  O_22
    3  A    between atoms: P_2  and  O_22
    4  A    between atoms: P_2  and  O_23
    5  A    between atoms: P_3  and  O_23
    6  A    between atoms: C_4  and  O_5
    7  A    between atoms: C_4  and  C_6
    8  A    between atoms: C_12  and  N_31
                            x       y       z     vdW  Elec       q    Type
                         _______ _______ _______ _____ _____    ______ ____

>  <TORSDO>
F 8

$$$$
