8u8b
 OpenBabel11072415323D

 41 45  0  0  0  0  0  0  0  0999 V2000
  160.9490  210.9790  152.3880 N   0  0  0  0  0  2  0  0  0  0  0  0
  160.6130  209.5490  152.4170 C   0  0  0  0  0  0  0  0  0  0  0  0
  161.4370  208.6300  151.6250 N   0  0  0  0  0  2  0  0  0  0  0  0
  159.6980  209.1610  153.0660 O   0  0  0  0  0  0  0  0  0  0  0  0
  161.4490  206.2840  152.5550 C   0  0  0  0  0  3  0  0  0  0  0  0
  161.2760  204.9230  152.3490 C   0  0  0  0  0  3  0  0  0  0  0  0
  160.9420  204.4390  151.0970 C   0  0  0  0  0  0  0  0  0  0  0  0
  160.7580  205.3290  150.0520 C   0  0  0  0  0  3  0  0  0  0  0  0
  160.9350  206.6850  150.2640 C   0  0  0  0  0  0  0  0  0  0  0  0
  161.2870  207.1740  151.5000 C   0  0  0  0  0  0  0  0  0  0  0  0
  160.7670  207.5640  149.2400 F   0  0  0  0  0  0  0  0  0  0  0  0
  160.7350  203.0640  150.8810 O   0  0  0  0  0  0  0  0  0  0  0  0
  160.8670  200.9460  147.8250 C   0  0  0  0  0  3  0  0  0  0  0  0
  161.2100  201.8570  146.9280 N   0  0  0  0  0  0  0  0  0  0  0  0
  161.3990  203.1160  147.2660 C   0  0  0  0  0  0  0  0  0  0  0  0
  161.2460  203.5260  148.5780 C   0  0  0  0  0  3  0  0  0  0  0  0
  160.8740  202.6130  149.5550 C   0  0  0  0  0  0  0  0  0  0  0  0
  160.6930  201.2960  149.1600 C   0  0  0  0  0  3  0  0  0  0  0  0
  161.7970  204.1590  146.2250 C   0  0  0  0  0  0  0  0  0  0  0  0
  162.8150  204.7510  146.3520 O   0  0  0  0  0  0  0  0  0  0  0  0
  160.9500  204.4390  145.0840 N   0  0  0  0  0  2  0  0  0  0  0  0
  161.3770  205.4420  144.1260 C   0  0  0  0  0  1  0  0  0  0  0  0
  159.2850  213.1330  154.8320 C   0  0  0  0  0  0  0  0  0  0  0  0
  160.1180  212.0630  154.5220 C   0  0  0  0  0  3  0  0  0  0  0  0
  160.1830  211.9700  153.1510 C   0  0  0  0  0  0  0  0  0  0  0  0
  159.4320  212.9400  152.6620 N   0  0  0  0  0  0  0  0  0  0  0  0
  158.8700  213.6730  153.6810 N   0  0  0  0  0  0  0  0  0  0  0  0
  159.2120  213.2290  151.2450 C   0  0  0  0  0  0  0  0  0  0  0  0
  157.9040  213.2960  150.7610 C   0  0  0  0  0  3  0  0  0  0  0  0
  157.6730  213.5610  149.4120 C   0  0  0  0  0  3  0  0  0  0  0  0
  158.7720  213.7610  148.5230 C   0  0  0  0  0  0  0  0  0  0  0  0
  160.0490  213.6940  148.9950 C   0  0  0  0  0  0  0  0  0  0  0  0
  160.2890  213.4180  150.3790 C   0  0  0  0  0  3  0  0  0  0  0  0
  159.5620  214.2220  146.3270 C   0  0  0  0  0  3  0  0  0  0  0  0
  158.5280  214.0290  147.1820 N   0  0  0  0  0  0  0  0  0  0  0  0
  161.1150  213.8920  148.1130 C   0  0  0  0  0  3  0  0  0  0  0  0
  160.8740  214.1530  146.7950 C   0  0  0  0  0  3  0  0  0  0  0  0
  158.9180  213.6140  156.2380 C   0  0  0  0  0  0  0  0  0  0  0  0
  157.6430  214.4530  156.1740 C   0  0  0  0  0  1  0  0  0  0  0  0
  160.0650  214.4530  156.7970 C   0  0  0  0  0  1  0  0  0  0  0  0
  158.6870  212.4030  157.1240 C   0  0  0  0  0  1  0  0  0  0  0  0
  1  2  1  0  0  0  0
  1 25  1  0  0  0  0
  2  4  2  0  0  0  0
  3  2  1  0  0  0  0
  6  5  1  0  0  0  0
  7  6  2  0  0  0  0
  8  9  2  0  0  0  0
  8  7  1  0  0  0  0
  9 10  1  0  0  0  0
 10  3  1  0  0  0  0
 10  5  2  0  0  0  0
 11  9  1  0  0  0  0
 12  7  1  0  0  0  0
 13 18  1  0  0  0  0
 14 15  1  0  0  0  0
 14 13  2  0  0  0  0
 15 16  2  0  0  0  0
 16 17  1  0  0  0  0
 17 12  1  0  0  0  0
 18 17  2  0  0  0  0
 19 20  2  0  0  0  0
 19 15  1  0  0  0  0
 21 19  1  0  0  0  0
 22 21  1  0  0  0  0
 23 38  1  0  0  0  0
 24 23  1  0  0  0  0
 25 24  2  0  0  0  0
 26 25  1  0  0  0  0
 26 27  1  0  0  0  0
 27 23  2  0  0  0  0
 28 26  1  0  0  0  0
 29 28  1  0  0  0  0
 30 29  2  0  0  0  0
 31 32  1  0  0  0  0
 31 30  1  0  0  0  0
 32 33  1  0  0  0  0
 33 28  2  0  0  0  0
 34 37  2  0  0  0  0
 34 35  1  0  0  0  0
 35 31  2  0  0  0  0
 36 32  2  0  0  0  0
 37 36  1  0  0  0  0
 38 40  1  0  0  0  0
 38 41  1  0  0  0  0
 39 38  1  0  0  0  0
M  END
>  <MODEL>
1

>  <REMARK>
 VINA RESULT:      -9.4      0.000      0.000
  Name = 8u8b
  7 active torsions:
  status: ('A' for Active; 'I' for Inactive)
    1  A    between atoms: C_1  and  N_26
    2  A    between atoms: C_13  and  C_33
    3  A    between atoms: C_15  and  O_32
    4  A    between atoms: C_19  and  O_32
    5  A    between atoms: C_22  and  N_30
    6  A    between atoms: C_23  and  C_37
    7  A    between atoms: C_25  and  N_28
                            x       y       z     vdW  Elec       q    Type
                         _______ _______ _______ _____ _____    ______ ____

>  <TORSDO>
F 7

$$$$
8u8b
 OpenBabel11072415323D

 41 45  0  0  0  0  0  0  0  0999 V2000
  161.5400  209.2210  151.5700 N   0  0  0  0  0  2  0  0  0  0  0  0
  161.3000  207.9580  150.8570 C   0  0  0  0  0  0  0  0  0  0  0  0
  161.4730  206.7040  151.5970 N   0  0  0  0  0  2  0  0  0  0  0  0
  160.9770  207.9670  149.7150 O   0  0  0  0  0  0  0  0  0  0  0  0
  161.2500  205.0030  149.7450 C   0  0  0  0  0  3  0  0  0  0  0  0
  161.0880  203.6810  149.3600 C   0  0  0  0  0  3  0  0  0  0  0  0
  160.9670  202.6820  150.3100 C   0  0  0  0  0  0  0  0  0  0  0  0
  161.0330  203.0120  151.6530 C   0  0  0  0  0  3  0  0  0  0  0  0
  161.1920  204.3330  152.0310 C   0  0  0  0  0  0  0  0  0  0  0  0
  161.2930  205.3360  151.0940 C   0  0  0  0  0  0  0  0  0  0  0  0
  161.2460  204.6660  153.3480 F   0  0  0  0  0  0  0  0  0  0  0  0
  160.8330  201.3330  149.9330 O   0  0  0  0  0  0  0  0  0  0  0  0
  161.5450  199.6520  146.6920 C   0  0  0  0  0  3  0  0  0  0  0  0
  161.2650  200.6380  145.8540 N   0  0  0  0  0  0  0  0  0  0  0  0
  160.8590  201.8130  146.2890 C   0  0  0  0  0  0  0  0  0  0  0  0
  160.7150  202.0540  147.6430 C   0  0  0  0  0  3  0  0  0  0  0  0
  160.9830  201.0500  148.5620 C   0  0  0  0  0  0  0  0  0  0  0  0
  161.4160  199.8300  148.0650 C   0  0  0  0  0  3  0  0  0  0  0  0
  160.5410  202.9460  145.3160 C   0  0  0  0  0  0  0  0  0  0  0  0
  159.6840  202.8000  144.5120 O   0  0  0  0  0  0  0  0  0  0  0  0
  161.2710  204.1970  145.3590 N   0  0  0  0  0  2  0  0  0  0  0  0
  160.9270  205.2390  144.4100 C   0  0  0  0  0  1  0  0  0  0  0  0
  161.5110  212.1840  149.4250 C   0  0  0  0  0  0  0  0  0  0  0  0
  161.8700  210.8620  149.6680 C   0  0  0  0  0  3  0  0  0  0  0  0
  161.3890  210.5230  150.9110 C   0  0  0  0  0  0  0  0  0  0  0  0
  160.7670  211.5850  151.3880 N   0  0  0  0  0  0  0  0  0  0  0  0
  160.8270  212.6230  150.4880 N   0  0  0  0  0  0  0  0  0  0  0  0
  160.0920  211.6800  152.6830 C   0  0  0  0  0  0  0  0  0  0  0  0
  160.8230  211.4390  153.8490 C   0  0  0  0  0  3  0  0  0  0  0  0
  160.1970  211.5150  155.0920 C   0  0  0  0  0  3  0  0  0  0  0  0
  158.8070  211.8360  155.1750 C   0  0  0  0  0  0  0  0  0  0  0  0
  158.0940  212.0690  154.0370 C   0  0  0  0  0  0  0  0  0  0  0  0
  158.7340  211.9870  152.7600 C   0  0  0  0  0  3  0  0  0  0  0  0
  156.8790  212.2170  156.5150 C   0  0  0  0  0  3  0  0  0  0  0  0
  158.1970  211.9130  156.4210 N   0  0  0  0  0  0  0  0  0  0  0  0
  156.7350  212.3800  154.1360 C   0  0  0  0  0  3  0  0  0  0  0  0
  156.1350  212.4540  155.3590 C   0  0  0  0  0  3  0  0  0  0  0  0
  161.8330  212.9900  148.1640 C   0  0  0  0  0  0  0  0  0  0  0  0
  161.4490  214.4530  148.3820 C   0  0  0  0  0  1  0  0  0  0  0  0
  161.0460  212.4150  146.9880 C   0  0  0  0  0  1  0  0  0  0  0  0
  163.3220  212.8890  147.8860 C   0  0  0  0  0  1  0  0  0  0  0  0
  2  1  1  0  0  0  0
  2  3  1  0  0  0  0
  4  2  2  0  0  0  0
  5 10  1  0  0  0  0
  6  5  2  0  0  0  0
  6  7  1  0  0  0  0
  7  8  2  0  0  0  0
  8  9  1  0  0  0  0
  9 11  1  0  0  0  0
 10  3  1  0  0  0  0
 10  9  2  0  0  0  0
 12  7  1  0  0  0  0
 13 18  1  0  0  0  0
 14 15  1  0  0  0  0
 14 13  2  0  0  0  0
 15 16  2  0  0  0  0
 16 17  1  0  0  0  0
 17 12  1  0  0  0  0
 18 17  2  0  0  0  0
 19 21  1  0  0  0  0
 19 15  1  0  0  0  0
 20 19  2  0  0  0  0
 22 21  1  0  0  0  0
 23 24  1  0  0  0  0
 23 27  2  0  0  0  0
 24 25  2  0  0  0  0
 25 26  1  0  0  0  0
 25  1  1  0  0  0  0
 26 28  1  0  0  0  0
 27 26  1  0  0  0  0
 28 33  2  0  0  0  0
 28 29  1  0  0  0  0
 29 30  2  0  0  0  0
 30 31  1  0  0  0  0
 31 35  1  0  0  0  0
 32 36  1  0  0  0  0
 32 31  2  0  0  0  0
 33 32  1  0  0  0  0
 35 34  2  0  0  0  0
 36 37  2  0  0  0  0
 37 34  1  0  0  0  0
 38 39  1  0  0  0  0
 38 23  1  0  0  0  0
 40 38  1  0  0  0  0
 41 38  1  0  0  0  0
M  END
>  <MODEL>
2

>  <REMARK>
 VINA RESULT:      -8.2      2.191      5.210
  Name = 8u8b
  7 active torsions:
  status: ('A' for Active; 'I' for Inactive)
    1  A    between atoms: C_1  and  N_26
    2  A    between atoms: C_13  and  C_33
    3  A    between atoms: C_15  and  O_32
    4  A    between atoms: C_19  and  O_32
    5  A    between atoms: C_22  and  N_30
    6  A    between atoms: C_23  and  C_37
    7  A    between atoms: C_25  and  N_28
                            x       y       z     vdW  Elec       q    Type
                         _______ _______ _______ _____ _____    ______ ____

>  <TORSDO>
F 7

$$$$
8u8b
 OpenBabel11072415323D

 41 45  0  0  0  0  0  0  0  0999 V2000
  162.4900  206.6110  148.6600 N   0  0  0  0  0  2  0  0  0  0  0  0
  161.6800  207.8360  148.6000 C   0  0  0  0  0  0  0  0  0  0  0  0
  162.3730  209.1120  148.3920 N   0  0  0  0  0  2  0  0  0  0  0  0
  160.5010  207.7810  148.7180 O   0  0  0  0  0  0  0  0  0  0  0  0
  161.1910  210.9640  147.1500 C   0  0  0  0  0  3  0  0  0  0  0  0
  160.6380  212.2360  147.1590 C   0  0  0  0  0  3  0  0  0  0  0  0
  160.6630  213.0050  148.3080 C   0  0  0  0  0  0  0  0  0  0  0  0
  161.2250  212.4830  149.4620 C   0  0  0  0  0  3  0  0  0  0  0  0
  161.7770  211.2150  149.4450 C   0  0  0  0  0  0  0  0  0  0  0  0
  161.7750  210.4510  148.3020 C   0  0  0  0  0  0  0  0  0  0  0  0
  162.3400  210.7000  150.5710 F   0  0  0  0  0  0  0  0  0  0  0  0
  160.0810  214.2850  148.3390 O   0  0  0  0  0  0  0  0  0  0  0  0
  156.4060  214.4530  147.7820 C   0  0  0  0  0  3  0  0  0  0  0  0
  155.9820  214.4510  149.0360 N   0  0  0  0  0  0  0  0  0  0  0  0
  156.8270  214.3970  150.0460 C   0  0  0  0  0  0  0  0  0  0  0  0
  158.1910  214.3450  149.8240 C   0  0  0  0  0  3  0  0  0  0  0  0
  158.6860  214.3320  148.5280 C   0  0  0  0  0  0  0  0  0  0  0  0
  157.7650  214.3980  147.4930 C   0  0  0  0  0  3  0  0  0  0  0  0
  156.3300  214.3970  151.4890 C   0  0  0  0  0  0  0  0  0  0  0  0
  157.1140  214.3810  152.3760 O   0  0  0  0  0  0  0  0  0  0  0  0
  154.9130  214.4140  151.7920 N   0  0  0  0  0  2  0  0  0  0  0  0
  154.4960  214.4120  153.1820 C   0  0  0  0  0  1  0  0  0  0  0  0
  161.1290  203.2190  148.5140 C   0  0  0  0  0  0  0  0  0  0  0  0
  161.7600  204.3030  147.9120 C   0  0  0  0  0  3  0  0  0  0  0  0
  161.8840  205.2910  148.8620 C   0  0  0  0  0  0  0  0  0  0  0  0
  161.3590  204.8210  149.9790 N   0  0  0  0  0  0  0  0  0  0  0  0
  160.8890  203.5430  149.7900 N   0  0  0  0  0  0  0  0  0  0  0  0
  161.2790  205.5280  151.2570 C   0  0  0  0  0  0  0  0  0  0  0  0
  161.3990  204.8000  152.4440 C   0  0  0  0  0  3  0  0  0  0  0  0
  161.3160  205.4520  153.6730 C   0  0  0  0  0  3  0  0  0  0  0  0
  161.1050  206.8640  153.7220 C   0  0  0  0  0  0  0  0  0  0  0  0
  160.9870  207.5740  152.5640 C   0  0  0  0  0  0  0  0  0  0  0  0
  161.0670  206.9050  151.3010 C   0  0  0  0  0  3  0  0  0  0  0  0
  160.8310  208.8420  155.0140 C   0  0  0  0  0  3  0  0  0  0  0  0
  161.0300  207.5020  154.9530 N   0  0  0  0  0  0  0  0  0  0  0  0
  160.7800  208.9540  152.6280 C   0  0  0  0  0  3  0  0  0  0  0  0
  160.7040  209.5810  153.8380 C   0  0  0  0  0  3  0  0  0  0  0  0
  160.7800  201.8890  147.8410 C   0  0  0  0  0  0  0  0  0  0  0  0
  161.8260  200.8400  148.2120 C   0  0  0  0  0  1  0  0  0  0  0  0
  160.7540  202.0860  146.3270 C   0  0  0  0  0  1  0  0  0  0  0  0
  159.4130  201.4400  148.3250 C   0  0  0  0  0  1  0  0  0  0  0  0
  1 25  1  0  0  0  0
  2  1  1  0  0  0  0
  2  4  2  0  0  0  0
  3  2  1  0  0  0  0
  5  6  2  0  0  0  0
  5 10  1  0  0  0  0
  6  7  1  0  0  0  0
  7 12  1  0  0  0  0
  7  8  2  0  0  0  0
  9  8  1  0  0  0  0
  9 11  1  0  0  0  0
 10  3  1  0  0  0  0
 10  9  2  0  0  0  0
 12 17  1  0  0  0  0
 13 14  1  0  0  0  0
 14 15  2  0  0  0  0
 15 19  1  0  0  0  0
 16 15  1  0  0  0  0
 17 16  2  0  0  0  0
 18 13  2  0  0  0  0
 18 17  1  0  0  0  0
 19 21  1  0  0  0  0
 19 20  2  0  0  0  0
 21 22  1  0  0  0  0
 23 27  2  0  0  0  0
 24 23  1  0  0  0  0
 24 25  2  0  0  0  0
 25 26  1  0  0  0  0
 26 28  1  0  0  0  0
 27 26  1  0  0  0  0
 28 33  2  0  0  0  0
 28 29  1  0  0  0  0
 29 30  2  0  0  0  0
 30 31  1  0  0  0  0
 31 35  1  0  0  0  0
 32 36  1  0  0  0  0
 32 31  2  0  0  0  0
 33 32  1  0  0  0  0
 35 34  2  0  0  0  0
 36 37  2  0  0  0  0
 37 34  1  0  0  0  0
 38 39  1  0  0  0  0
 38 41  1  0  0  0  0
 38 23  1  0  0  0  0
 40 38  1  0  0  0  0
M  END
>  <MODEL>
3

>  <REMARK>
 VINA RESULT:      -7.7      3.034     10.435
  Name = 8u8b
  7 active torsions:
  status: ('A' for Active; 'I' for Inactive)
    1  A    between atoms: C_1  and  N_26
    2  A    between atoms: C_13  and  C_33
    3  A    between atoms: C_15  and  O_32
    4  A    between atoms: C_19  and  O_32
    5  A    between atoms: C_22  and  N_30
    6  A    between atoms: C_23  and  C_37
    7  A    between atoms: C_25  and  N_28
                            x       y       z     vdW  Elec       q    Type
                         _______ _______ _______ _____ _____    ______ ____

>  <TORSDO>
F 7

$$$$
8u8b
 OpenBabel11072415323D

 41 45  0  0  0  0  0  0  0  0999 V2000
  160.0750  211.7590  142.4600 N   0  0  0  0  0  2  0  0  0  0  0  0
  160.4280  212.4320  143.7190 C   0  0  0  0  0  0  0  0  0  0  0  0
  159.7780  211.9750  144.9510 N   0  0  0  0  0  2  0  0  0  0  0  0
  161.2180  213.3170  143.7230 O   0  0  0  0  0  0  0  0  0  0  0  0
  161.1980  212.5220  146.9650 C   0  0  0  0  0  3  0  0  0  0  0  0
  161.2900  213.0440  148.2460 C   0  0  0  0  0  3  0  0  0  0  0  0
  160.1690  213.5420  148.8860 C   0  0  0  0  0  0  0  0  0  0  0  0
  158.9520  213.5360  148.2230 C   0  0  0  0  0  3  0  0  0  0  0  0
  158.8660  213.0110  146.9470 C   0  0  0  0  0  0  0  0  0  0  0  0
  159.9720  212.4960  146.3110 C   0  0  0  0  0  0  0  0  0  0  0  0
  157.6730  212.9920  146.2950 F   0  0  0  0  0  0  0  0  0  0  0  0
  160.2540  214.1010  150.1730 O   0  0  0  0  0  0  0  0  0  0  0  0
  157.8730  213.1080  152.8540 C   0  0  0  0  0  3  0  0  0  0  0  0
  158.4090  211.9560  153.2240 N   0  0  0  0  0  0  0  0  0  0  0  0
  159.4980  211.4900  152.6480 C   0  0  0  0  0  0  0  0  0  0  0  0
  160.1200  212.1980  151.6350 C   0  0  0  0  0  3  0  0  0  0  0  0
  159.5910  213.4050  151.2010 C   0  0  0  0  0  0  0  0  0  0  0  0
  158.4480  213.8650  151.8390 C   0  0  0  0  0  3  0  0  0  0  0  0
  160.1110  210.1610  153.0810 C   0  0  0  0  0  0  0  0  0  0  0  0
  160.1390  209.8790  154.2310 O   0  0  0  0  0  0  0  0  0  0  0  0
  160.6600  209.2380  152.1090 N   0  0  0  0  0  2  0  0  0  0  0  0
  161.2310  207.9880  152.5770 C   0  0  0  0  0  1  0  0  0  0  0  0
  162.1510  212.7590  139.6180 C   0  0  0  0  0  0  0  0  0  0  0  0
  162.0040  212.4410  140.9650 C   0  0  0  0  0  3  0  0  0  0  0  0
  160.6770  212.1460  141.1790 C   0  0  0  0  0  0  0  0  0  0  0  0
  160.0600  212.2750  140.0200 N   0  0  0  0  0  0  0  0  0  0  0  0
  160.9490  212.6490  139.0400 N   0  0  0  0  0  0  0  0  0  0  0  0
  158.6360  212.0500  139.7710 C   0  0  0  0  0  0  0  0  0  0  0  0
  157.7250  213.0620  140.0820 C   0  0  0  0  0  3  0  0  0  0  0  0
  156.3620  212.8650  139.8630 C   0  0  0  0  0  3  0  0  0  0  0  0
  155.8960  211.6270  139.3230 C   0  0  0  0  0  0  0  0  0  0  0  0
  156.7850  210.6390  139.0210 C   0  0  0  0  0  0  0  0  0  0  0  0
  158.1840  210.8380  139.2500 C   0  0  0  0  0  3  0  0  0  0  0  0
  154.0800  210.2770  138.5920 C   0  0  0  0  0  3  0  0  0  0  0  0
  154.5360  211.4460  139.1040 N   0  0  0  0  0  0  0  0  0  0  0  0
  156.3130  209.4340  138.4950 C   0  0  0  0  0  3  0  0  0  0  0  0
  154.9770  209.2550  138.2820 C   0  0  0  0  0  3  0  0  0  0  0  0
  163.4550  213.1540  138.9210 C   0  0  0  0  0  0  0  0  0  0  0  0
  163.1470  213.6650  137.5150 C   0  0  0  0  0  1  0  0  0  0  0  0
  164.3700  211.9340  138.8420 C   0  0  0  0  0  1  0  0  0  0  0  0
  164.1270  214.2510  139.7270 C   0  0  0  0  0  1  0  0  0  0  0  0
  1  2  1  0  0  0  0
  2  4  2  0  0  0  0
  2  3  1  0  0  0  0
  3 10  1  0  0  0  0
  5  6  1  0  0  0  0
  6  7  2  0  0  0  0
  7 12  1  0  0  0  0
  8  7  1  0  0  0  0
  9  8  2  0  0  0  0
 10  9  1  0  0  0  0
 10  5  2  0  0  0  0
 11  9  1  0  0  0  0
 12 17  1  0  0  0  0
 13 14  1  0  0  0  0
 15 19  1  0  0  0  0
 15 14  2  0  0  0  0
 16 15  1  0  0  0  0
 17 16  2  0  0  0  0
 17 18  1  0  0  0  0
 18 13  2  0  0  0  0
 19 20  2  0  0  0  0
 21 22  1  0  0  0  0
 21 19  1  0  0  0  0
 23 24  1  0  0  0  0
 24 25  2  0  0  0  0
 25  1  1  0  0  0  0
 26 25  1  0  0  0  0
 27 23  2  0  0  0  0
 27 26  1  0  0  0  0
 28 26  1  0  0  0  0
 28 29  1  0  0  0  0
 30 29  2  0  0  0  0
 31 30  1  0  0  0  0
 32 33  1  0  0  0  0
 32 31  2  0  0  0  0
 33 28  2  0  0  0  0
 34 35  2  0  0  0  0
 35 31  1  0  0  0  0
 36 32  1  0  0  0  0
 37 36  2  0  0  0  0
 37 34  1  0  0  0  0
 38 23  1  0  0  0  0
 38 41  1  0  0  0  0
 39 38  1  0  0  0  0
 40 38  1  0  0  0  0
M  END
>  <MODEL>
4

>  <REMARK>
 VINA RESULT:      -7.5      6.059     11.663
  Name = 8u8b
  7 active torsions:
  status: ('A' for Active; 'I' for Inactive)
    1  A    between atoms: C_1  and  N_26
    2  A    between atoms: C_13  and  C_33
    3  A    between atoms: C_15  and  O_32
    4  A    between atoms: C_19  and  O_32
    5  A    between atoms: C_22  and  N_30
    6  A    between atoms: C_23  and  C_37
    7  A    between atoms: C_25  and  N_28
                            x       y       z     vdW  Elec       q    Type
                         _______ _______ _______ _____ _____    ______ ____

>  <TORSDO>
F 7

$$$$
8u8b
 OpenBabel11072415323D

 41 45  0  0  0  0  0  0  0  0999 V2000
  162.1170  205.3830  152.4550 N   0  0  0  0  0  2  0  0  0  0  0  0
  161.3120  206.4530  153.0630 C   0  0  0  0  0  0  0  0  0  0  0  0
  161.8760  207.1770  154.2060 N   0  0  0  0  0  2  0  0  0  0  0  0
  160.2370  206.7130  152.6310 O   0  0  0  0  0  0  0  0  0  0  0  0
  161.5390  209.6160  154.7630 C   0  0  0  0  0  3  0  0  0  0  0  0
  160.8970  210.5830  155.5210 C   0  0  0  0  0  3  0  0  0  0  0  0
  159.9730  210.2230  156.4850 C   0  0  0  0  0  0  0  0  0  0  0  0
  159.6750  208.8830  156.6720 C   0  0  0  0  0  3  0  0  0  0  0  0
  160.3220  207.9220  155.9140 C   0  0  0  0  0  0  0  0  0  0  0  0
  161.2560  208.2700  154.9670 C   0  0  0  0  0  0  0  0  0  0  0  0
  160.0430  206.6050  156.1000 F   0  0  0  0  0  0  0  0  0  0  0  0
  159.2930  211.1950  157.2400 O   0  0  0  0  0  0  0  0  0  0  0  0
  155.8380  212.4080  156.5820 C   0  0  0  0  0  3  0  0  0  0  0  0
  155.9850  212.8690  155.3500 N   0  0  0  0  0  0  0  0  0  0  0  0
  157.1460  212.8060  154.7290 C   0  0  0  0  0  0  0  0  0  0  0  0
  158.2500  212.2490  155.3480 C   0  0  0  0  0  3  0  0  0  0  0  0
  158.1510  211.7620  156.6440 C   0  0  0  0  0  0  0  0  0  0  0  0
  156.9100  211.8390  157.2610 C   0  0  0  0  0  3  0  0  0  0  0  0
  157.3070  213.3390  153.3080 C   0  0  0  0  0  0  0  0  0  0  0  0
  156.6030  214.2110  152.9280 O   0  0  0  0  0  0  0  0  0  0  0  0
  158.3090  212.7940  152.4140 N   0  0  0  0  0  2  0  0  0  0  0  0
  158.4190  213.3370  151.0730 C   0  0  0  0  0  1  0  0  0  0  0  0
  160.9140  202.9320  150.0210 C   0  0  0  0  0  0  0  0  0  0  0  0
  161.3300  203.2670  151.3060 C   0  0  0  0  0  3  0  0  0  0  0  0
  161.6350  204.6080  151.3070 C   0  0  0  0  0  0  0  0  0  0  0  0
  161.4070  205.0580  150.0860 N   0  0  0  0  0  0  0  0  0  0  0  0
  160.9590  204.0420  149.2760 N   0  0  0  0  0  0  0  0  0  0  0  0
  161.5870  206.4350  149.6270 C   0  0  0  0  0  0  0  0  0  0  0  0
  161.7630  206.6790  148.2630 C   0  0  0  0  0  3  0  0  0  0  0  0
  161.9450  207.9830  147.8060 C   0  0  0  0  0  3  0  0  0  0  0  0
  161.9560  209.0710  148.7310 C   0  0  0  0  0  0  0  0  0  0  0  0
  161.7850  208.8330  150.0620 C   0  0  0  0  0  0  0  0  0  0  0  0
  161.6020  207.4950  150.5340 C   0  0  0  0  0  3  0  0  0  0  0  0
  162.1440  211.4090  149.1270 C   0  0  0  0  0  3  0  0  0  0  0  0
  162.1330  210.3660  148.2600 N   0  0  0  0  0  0  0  0  0  0  0  0
  161.7990  209.9090  150.9540 C   0  0  0  0  0  3  0  0  0  0  0  0
  161.9750  211.1810  150.4930 C   0  0  0  0  0  3  0  0  0  0  0  0
  160.4740  201.5450  149.5470 C   0  0  0  0  0  0  0  0  0  0  0  0
  158.9650  201.5430  149.3060 C   0  0  0  0  0  1  0  0  0  0  0  0
  160.8320  200.5130  150.6150 C   0  0  0  0  0  1  0  0  0  0  0  0
  161.1980  201.2180  148.2530 C   0  0  0  0  0  1  0  0  0  0  0  0
  1  2  1  0  0  0  0
  2  3  1  0  0  0  0
  3 10  1  0  0  0  0
  4  2  2  0  0  0  0
  5 10  2  0  0  0  0
  5  6  1  0  0  0  0
  6  7  2  0  0  0  0
  7  8  1  0  0  0  0
  7 12  1  0  0  0  0
  9 11  1  0  0  0  0
  9  8  2  0  0  0  0
 10  9  1  0  0  0  0
 13 18  1  0  0  0  0
 14 13  2  0  0  0  0
 15 16  2  0  0  0  0
 15 14  1  0  0  0  0
 16 17  1  0  0  0  0
 17 12  1  0  0  0  0
 17 18  2  0  0  0  0
 19 15  1  0  0  0  0
 20 19  2  0  0  0  0
 21 19  1  0  0  0  0
 22 21  1  0  0  0  0
 23 24  1  0  0  0  0
 24 25  2  0  0  0  0
 25  1  1  0  0  0  0
 26 25  1  0  0  0  0
 27 23  2  0  0  0  0
 27 26  1  0  0  0  0
 28 26  1  0  0  0  0
 28 33  1  0  0  0  0
 29 28  2  0  0  0  0
 30 29  1  0  0  0  0
 30 31  2  0  0  0  0
 31 32  1  0  0  0  0
 32 33  2  0  0  0  0
 32 36  1  0  0  0  0
 34 37  1  0  0  0  0
 35 31  1  0  0  0  0
 35 34  2  0  0  0  0
 37 36  2  0  0  0  0
 38 23  1  0  0  0  0
 38 40  1  0  0  0  0
 39 38  1  0  0  0  0
 41 38  1  0  0  0  0
M  END
>  <MODEL>
5

>  <REMARK>
 VINA RESULT:      -7.1      2.916      9.611
  Name = 8u8b
  7 active torsions:
  status: ('A' for Active; 'I' for Inactive)
    1  A    between atoms: C_1  and  N_26
    2  A    between atoms: C_13  and  C_33
    3  A    between atoms: C_15  and  O_32
    4  A    between atoms: C_19  and  O_32
    5  A    between atoms: C_22  and  N_30
    6  A    between atoms: C_23  and  C_37
    7  A    between atoms: C_25  and  N_28
                            x       y       z     vdW  Elec       q    Type
                         _______ _______ _______ _____ _____    ______ ____

>  <TORSDO>
F 7

$$$$
8u8b
 OpenBabel11072415323D

 41 45  0  0  0  0  0  0  0  0999 V2000
  162.4900  206.2070  148.3280 N   0  0  0  0  0  2  0  0  0  0  0  0
  161.7220  207.4520  148.4730 C   0  0  0  0  0  0  0  0  0  0  0  0
  162.4250  208.7230  148.2750 N   0  0  0  0  0  2  0  0  0  0  0  0
  160.5670  207.4150  148.7430 O   0  0  0  0  0  0  0  0  0  0  0  0
  161.2130  210.7250  147.3300 C   0  0  0  0  0  3  0  0  0  0  0  0
  160.7070  212.0030  147.5130 C   0  0  0  0  0  3  0  0  0  0  0  0
  160.8480  212.6470  148.7300 C   0  0  0  0  0  0  0  0  0  0  0  0
  161.4810  211.9930  149.7740 C   0  0  0  0  0  3  0  0  0  0  0  0
  161.9860  210.7190  149.5830 C   0  0  0  0  0  0  0  0  0  0  0  0
  161.8680  210.0790  148.3720 C   0  0  0  0  0  0  0  0  0  0  0  0
  162.6180  210.0760  150.6000 F   0  0  0  0  0  0  0  0  0  0  0  0
  160.3130  213.9310  148.9390 O   0  0  0  0  0  0  0  0  0  0  0  0
  156.8150  214.4530  150.0920 C   0  0  0  0  0  3  0  0  0  0  0  0
  156.9410  214.1230  151.3680 N   0  0  0  0  0  0  0  0  0  0  0  0
  158.0990  213.7420  151.8670 C   0  0  0  0  0  0  0  0  0  0  0  0
  159.2260  213.6780  151.0670 C   0  0  0  0  0  3  0  0  0  0  0  0
  159.1450  214.0010  149.7210 C   0  0  0  0  0  0  0  0  0  0  0  0
  157.9100  214.4050  149.2350 C   0  0  0  0  0  3  0  0  0  0  0  0
  158.2360  213.3650  153.3400 C   0  0  0  0  0  0  0  0  0  0  0  0
  159.3070  213.3670  153.8450 O   0  0  0  0  0  0  0  0  0  0  0  0
  157.0770  213.0040  154.1310 N   0  0  0  0  0  2  0  0  0  0  0  0
  157.2660  212.6540  155.5260 C   0  0  0  0  0  1  0  0  0  0  0  0
  161.0880  202.8350  148.1160 C   0  0  0  0  0  0  0  0  0  0  0  0
  161.7280  203.9240  147.5340 C   0  0  0  0  0  3  0  0  0  0  0  0
  161.8690  204.8890  148.5050 C   0  0  0  0  0  0  0  0  0  0  0  0
  161.3460  204.4010  149.6140 N   0  0  0  0  0  0  0  0  0  0  0  0
  160.8600  203.1330  149.4000 N   0  0  0  0  0  0  0  0  0  0  0  0
  161.2820  205.0800  150.9090 C   0  0  0  0  0  0  0  0  0  0  0  0
  161.4010  204.3250  152.0780 C   0  0  0  0  0  3  0  0  0  0  0  0
  161.3340  204.9510  153.3220 C   0  0  0  0  0  3  0  0  0  0  0  0
  161.1400  206.3630  153.4030 C   0  0  0  0  0  0  0  0  0  0  0  0
  161.0220  207.1000  152.2620 C   0  0  0  0  0  0  0  0  0  0  0  0
  161.0870  206.4590  150.9840 C   0  0  0  0  0  3  0  0  0  0  0  0
  160.8960  208.3150  154.7400 C   0  0  0  0  0  3  0  0  0  0  0  0
  161.0800  206.9750  154.6490 N   0  0  0  0  0  0  0  0  0  0  0  0
  160.8310  208.4810  152.3580 C   0  0  0  0  0  3  0  0  0  0  0  0
  160.7700  209.0820  153.5820 C   0  0  0  0  0  3  0  0  0  0  0  0
  160.7200  201.5240  147.4160 C   0  0  0  0  0  0  0  0  0  0  0  0
  160.9310  201.6730  145.9100 C   0  0  0  0  0  1  0  0  0  0  0  0
  159.2570  201.1950  147.7060 C   0  0  0  0  0  1  0  0  0  0  0  0
  161.6130  200.4170  147.9490 C   0  0  0  0  0  1  0  0  0  0  0  0
  1  2  1  0  0  0  0
  1 25  1  0  0  0  0
  2  4  2  0  0  0  0
  3 10  1  0  0  0  0
  3  2  1  0  0  0  0
  5  6  2  0  0  0  0
  5 10  1  0  0  0  0
  6  7  1  0  0  0  0
  7 12  1  0  0  0  0
  7  8  2  0  0  0  0
  9  8  1  0  0  0  0
  9 11  1  0  0  0  0
 10  9  2  0  0  0  0
 12 17  1  0  0  0  0
 13 14  1  0  0  0  0
 14 15  2  0  0  0  0
 15 19  1  0  0  0  0
 16 15  1  0  0  0  0
 17 16  2  0  0  0  0
 18 17  1  0  0  0  0
 18 13  2  0  0  0  0
 19 20  2  0  0  0  0
 19 21  1  0  0  0  0
 21 22  1  0  0  0  0
 23 27  2  0  0  0  0
 24 23  1  0  0  0  0
 24 25  2  0  0  0  0
 25 26  1  0  0  0  0
 26 28  1  0  0  0  0
 27 26  1  0  0  0  0
 28 33  2  0  0  0  0
 28 29  1  0  0  0  0
 29 30  2  0  0  0  0
 30 31  1  0  0  0  0
 31 35  1  0  0  0  0
 32 36  1  0  0  0  0
 32 31  2  0  0  0  0
 33 32  1  0  0  0  0
 35 34  2  0  0  0  0
 36 37  2  0  0  0  0
 37 34  1  0  0  0  0
 38 40  1  0  0  0  0
 38 41  1  0  0  0  0
 38 23  1  0  0  0  0
 39 38  1  0  0  0  0
M  END
>  <MODEL>
6

>  <REMARK>
 VINA RESULT:      -6.7      2.483     10.468
  Name = 8u8b
  7 active torsions:
  status: ('A' for Active; 'I' for Inactive)
    1  A    between atoms: C_1  and  N_26
    2  A    between atoms: C_13  and  C_33
    3  A    between atoms: C_15  and  O_32
    4  A    between atoms: C_19  and  O_32
    5  A    between atoms: C_22  and  N_30
    6  A    between atoms: C_23  and  C_37
    7  A    between atoms: C_25  and  N_28
                            x       y       z     vdW  Elec       q    Type
                         _______ _______ _______ _____ _____    ______ ____

>  <TORSDO>
F 7

$$$$
