8fo7
 OpenBabel11072415323D

 42 47  0  0  1  0  0  0  0  0999 V2000
  160.1320  208.4720  155.1100 C   0  0  0  0  0  3  0  0  0  0  0  0
  160.4000  207.1090  154.9400 C   0  0  0  0  0  3  0  0  0  0  0  0
  161.2130  208.9640  153.0240 C   0  0  0  0  0  3  0  0  0  0  0  0
  160.5390  209.4290  154.1460 C   0  0  0  0  0  0  0  0  0  0  0  0
  161.0780  206.6640  153.7970 C   0  0  0  0  0  0  0  0  0  0  0  0
  161.4800  207.6040  152.8470 C   0  0  0  0  0  0  0  0  0  0  0  0
  160.5970  200.6730  149.4030 C   0  0  0  0  0  1  0  0  0  0  0  0
  159.5350  206.0700  149.0820 C   0  0  0  0  0  1  0  0  0  0  0  0
  163.0670  204.9040  145.6750 C   0  0  0  0  0  3  0  0  0  0  0  0
  162.6330  206.1040  146.2320 C   0  0  0  0  0  3  0  0  0  0  0  0
  162.6180  203.6920  146.1960 C   0  0  0  0  0  3  0  0  0  0  0  0
  161.7520  206.1130  147.3150 C   0  0  0  0  0  3  0  0  0  0  0  0
  161.4210  205.3760  153.4810 N   0  0  0  0  0  2  0  0  0  0  0  0
  161.1950  201.4700  146.9120 O   0  0  0  0  0  0  0  0  0  0  0  0
  161.3040  202.3710  147.7780 C   0  0  0  0  0  0  0  0  0  0  0  0
  161.7320  203.6800  147.2890 C   0  0  0  0  0  0  0  0  0  0  0  0
  161.2780  204.8940  147.8630 C   0  0  0  0  0  0  0  0  0  0  0  0
  161.0000  202.0240  149.1120 N   0  0  0  0  0  0  0  0  0  0  0  0
  160.4070  204.9320  148.9360 N   0  0  0  0  0  0  0  0  0  0  0  0
  161.5770  203.3200  152.5060 N   0  0  0  0  0  0  0  0  0  0  0  0
  161.3000  204.6270  152.3770 C   0  0  0  0  0  0  0  0  0  0  0  0
  160.9140  205.1480  151.2000 N   0  0  0  0  0  0  0  0  0  0  0  0
  160.7990  204.3580  150.1130 C   0  0  2  0  0  3  0  0  0  0  0  0
  161.0920  202.9650  150.1930 C   0  0  0  0  0  0  0  0  0  0  0  0
  161.4840  202.5040  151.4780 C   0  0  0  0  0  3  0  0  0  0  0  0
  159.2350  213.9520  152.3740 C   0  0  0  0  0  2  0  0  0  0  0  0
  160.2590  212.0020  150.9340 C   0  0  0  0  0  2  0  0  0  0  0  0
  159.5890  213.0820  153.5960 C   0  0  0  0  0  2  0  0  0  0  0  0
  159.5260  211.1770  151.9930 C   0  0  0  0  0  2  0  0  0  0  0  0
  160.5180  211.3160  155.4320 O   0  0  0  0  0  0  0  0  0  0  0  0
  160.2870  210.8310  154.2870 C   0  0  0  0  0  0  0  0  0  0  0  0
  159.8960  213.5040  151.0380 C   0  0  1  0  0  3  0  0  0  0  0  0
  159.8170  211.6800  153.3230 N   0  0  0  0  0  0  0  0  0  0  0  0
  157.1910  212.7500  146.9570 C   0  0  0  0  0  1  0  0  0  0  0  0
  158.9520  214.4530  147.3910 C   0  0  0  0  0  2  0  0  0  0  0  0
  156.9150  214.3650  148.7910 C   0  0  0  0  0  2  0  0  0  0  0  0
  159.7040  213.6330  148.4640 C   0  0  0  0  0  2  0  0  0  0  0  0
  157.6720  213.5310  149.8390 C   0  0  0  0  0  2  0  0  0  0  0  0
  157.4980  214.1170  147.4420 N   0  0  0  0  0  0  0  0  0  0  0  0
  159.1130  213.8860  149.8220 N   0  0  0  0  0  0  0  0  0  0  0  0
  162.3850  207.9370  150.6380 C   0  0  0  0  0  1  0  0  0  0  0  0
  162.1420  207.0850  151.7700 O   0  0  0  0  0  0  0  0  0  0  0  0
  2  1  1  0  0  0  0
  3  4  1  0  0  0  0
  4 31  1  0  0  0  0
  4  1  2  0  0  0  0
  5  2  2  0  0  0  0
  6  3  2  0  0  0  0
  6  5  1  0  0  0  0
  9 11  2  0  0  0  0
  9 10  1  0  0  0  0
 10 12  2  0  0  0  0
 11 16  1  0  0  0  0
 12 17  1  0  0  0  0
 13  5  1  0  0  0  0
 14 15  2  0  0  0  0
 15 18  1  0  0  0  0
 16 15  1  0  0  0  0
 16 17  2  0  0  0  0
 17 19  1  0  0  0  0
 18  7  1  0  0  0  0
 18 24  1  0  0  0  0
 19  8  1  0  0  0  0
 19 23  1  0  0  0  0
 21 20  2  0  0  0  0
 21 13  1  0  0  0  0
 22 21  2  0  0  0  0
 23 24  1  6  0  0  0
 23 22  1  0  0  0  0
 24 25  2  0  0  0  0
 25 20  1  0  0  0  0
 26 28  1  0  0  0  0
 27 32  1  0  0  0  0
 27 29  1  0  0  0  0
 29 33  1  0  0  0  0
 31 30  2  0  0  0  0
 32 40  1  6  0  0  0
 32 26  1  0  0  0  0
 33 28  1  0  0  0  0
 33 31  1  0  0  0  0
 34 39  1  0  0  0  0
 35 39  1  0  0  0  0
 35 37  1  0  0  0  0
 36 38  1  0  0  0  0
 37 40  1  0  0  0  0
 39 36  1  0  0  0  0
 40 38  1  0  0  0  0
 41 42  1  0  0  0  0
 42  6  1  0  0  0  0
M  END
>  <MODEL>
1

>  <REMARK>
 VINA RESULT:      -7.7      0.000      0.000
  Name = 8fo7
  4 active torsions:
  status: ('A' for Active; 'I' for Inactive)
    1  A    between atoms: N_20  and  C_26
    2  A    between atoms: O_23  and  C_27
    3  A    between atoms: C_24  and  C_25
    4  A    between atoms: C_31  and  N_34
                            x       y       z     vdW  Elec       q    Type
                         _______ _______ _______ _____ _____    ______ ____

>  <TORSDO>
F 4

$$$$
