8smc
 OpenBabel11072415323D

 24 25  0  0  0  0  0  0  0  0999 V2000
  161.9510  204.4880  147.3520 C   0  0  0  0  0  1  0  0  0  0  0  0
  160.8370  204.3490  148.2680 N   0  0  0  0  0  2  0  0  0  0  0  0
  161.0750  204.1650  149.6830 C   0  0  0  0  0  0  0  0  0  0  0  0
  161.4090  205.1830  150.4530 N   0  0  0  0  0  4  0  0  0  0  0  0
  161.6190  205.0290  151.7400 C   0  0  0  0  0  0  0  0  0  0  0  0
  162.0030  206.1350  152.6050 N   0  0  0  0  0  2  0  0  0  0  0  0
  161.5110  203.8360  152.2940 N   0  0  0  0  0  0  0  0  0  0  0  0
  161.1790  202.7710  151.5980 C   0  0  0  0  0  3  0  0  0  0  0  0
  160.9460  202.9090  150.2410 C   0  0  0  0  0  0  0  0  0  0  0  0
  161.5090  207.5030  152.5920 C   0  0  0  0  0  0  0  0  0  0  0  0
  160.6750  209.3430  153.3720 N   0  0  0  0  0  0  0  0  0  0  0  0
  161.0070  208.1270  153.7070 C   0  0  0  0  0  3  0  0  0  0  0  0
  160.9650  209.5620  152.0590 N   0  0  0  0  0  0  0  0  0  0  0  0
  161.4940  208.4440  151.5610 C   0  0  0  0  0  0  0  0  0  0  0  0
  161.9460  208.2930  150.1100 C   0  0  0  0  0  1  0  0  0  0  0  0
  160.0920  210.3290  154.2590 C   0  0  0  0  0  0  0  0  0  0  0  0
  161.1960  211.2130  154.8390 C   0  0  0  0  0  1  0  0  0  0  0  0
  159.3700  209.6110  155.3960 C   0  0  0  0  0  1  0  0  0  0  0  0
  158.3430  211.8250  152.9180 N   0  0  0  0  0  0  0  0  0  0  0  0
  159.0880  211.1860  153.4910 C   0  0  0  0  0  0  0  0  0  0  0  0
  160.5670  201.7240  149.3720 C   0  0  0  0  0  0  0  0  0  0  0  0
  161.4620  201.6190  148.3510 F   0  0  0  0  0  0  0  0  0  0  0  0
  160.6100  200.5910  150.1270 F   0  0  0  0  0  0  0  0  0  0  0  0
  159.3110  201.8910  148.8720 F   0  0  0  0  0  0  0  0  0  0  0  0
  1  2  1  0  0  0  0
  2  3  1  0  0  0  0
  3  9  1  0  0  0  0
  3  4  2  0  0  0  0
  4  5  2  0  0  0  0
  5  7  2  0  0  0  0
  5  6  1  0  0  0  0
  8  7  1  0  0  0  0
  9  8  2  0  0  0  0
 10  6  1  0  0  0  0
 10 12  2  0  0  0  0
 11 12  1  0  0  0  0
 11 16  1  0  0  0  0
 13 11  1  0  0  0  0
 14 13  2  0  0  0  0
 14 10  1  0  0  0  0
 15 14  1  0  0  0  0
 16 17  1  0  0  0  0
 16 18  1  0  0  0  0
 19 20  3  0  0  0  0
 20 16  1  0  0  0  0
 21 23  1  0  0  0  0
 21  9  1  0  0  0  0
 22 21  1  0  0  0  0
 24 21  1  0  0  0  0
M  END
>  <MODEL>
1

>  <REMARK>
 VINA RESULT:      -7.7      0.000      0.000
  Name = 8smc
  4 active torsions:
  status: ('A' for Active; 'I' for Inactive)
    1  A    between atoms: N_6  and  C_7
    2  A    between atoms: N_8  and  C_15
    3  A    between atoms: C_15  and  C_18
    4  A    between atoms: C_20  and  C_21
                            x       y       z     vdW  Elec       q    Type
                         _______ _______ _______ _____ _____    ______ ____

>  <TORSDO>
F 4

$$$$
8smc
 OpenBabel11072415323D

 24 25  0  0  0  0  0  0  0  0999 V2000
  162.3200  208.3390  148.7010 C   0  0  0  0  0  1  0  0  0  0  0  0
  161.1300  207.6740  149.1930 N   0  0  0  0  0  2  0  0  0  0  0  0
  161.2170  206.7580  150.3100 C   0  0  0  0  0  0  0  0  0  0  0  0
  161.3180  207.2040  151.5470 N   0  0  0  0  0  4  0  0  0  0  0  0
  161.3870  206.3820  152.5690 C   0  0  0  0  0  0  0  0  0  0  0  0
  161.5150  206.8520  153.9410 N   0  0  0  0  0  2  0  0  0  0  0  0
  161.3710  205.0770  152.3750 N   0  0  0  0  0  0  0  0  0  0  0  0
  161.2700  204.5510  151.1740 C   0  0  0  0  0  3  0  0  0  0  0  0
  161.1870  205.3970  150.0830 C   0  0  0  0  0  0  0  0  0  0  0  0
  160.8510  207.9820  154.5710 C   0  0  0  0  0  0  0  0  0  0  0  0
  160.0470  209.9830  154.7680 N   0  0  0  0  0  0  0  0  0  0  0  0
  160.6990  209.2000  153.9550 C   0  0  0  0  0  3  0  0  0  0  0  0
  159.7330  209.3130  155.9120 N   0  0  0  0  0  0  0  0  0  0  0  0
  160.2070  208.0720  155.8070 C   0  0  0  0  0  0  0  0  0  0  0  0
  160.0580  207.0120  156.8960 C   0  0  0  0  0  1  0  0  0  0  0  0
  159.6930  211.3630  154.5020 C   0  0  0  0  0  0  0  0  0  0  0  0
  160.2890  211.7960  153.1630 C   0  0  0  0  0  1  0  0  0  0  0  0
  160.2550  212.2440  155.6140 C   0  0  0  0  0  1  0  0  0  0  0  0
  157.0420  211.6170  154.4450 N   0  0  0  0  0  0  0  0  0  0  0  0
  158.1730  211.5090  154.4670 C   0  0  0  0  0  0  0  0  0  0  0  0
  161.0760  204.8630  148.6660 C   0  0  0  0  0  0  0  0  0  0  0  0
  160.6910  203.5580  148.7130 F   0  0  0  0  0  0  0  0  0  0  0  0
  160.1360  205.5860  147.9940 F   0  0  0  0  0  0  0  0  0  0  0  0
  162.2750  204.9700  148.0290 F   0  0  0  0  0  0  0  0  0  0  0  0
  1  2  1  0  0  0  0
  2  3  1  0  0  0  0
  3  4  2  0  0  0  0
  4  5  2  0  0  0  0
  5  6  1  0  0  0  0
  6 10  1  0  0  0  0
  7  5  2  0  0  0  0
  8  7  1  0  0  0  0
  9  3  1  0  0  0  0
  9  8  2  0  0  0  0
 10 14  1  0  0  0  0
 11 13  1  0  0  0  0
 12 10  2  0  0  0  0
 12 11  1  0  0  0  0
 14 13  2  0  0  0  0
 14 15  1  0  0  0  0
 16 11  1  0  0  0  0
 16 18  1  0  0  0  0
 17 16  1  0  0  0  0
 19 20  3  0  0  0  0
 20 16  1  0  0  0  0
 21 22  1  0  0  0  0
 21  9  1  0  0  0  0
 23 21  1  0  0  0  0
 24 21  1  0  0  0  0
M  END
>  <MODEL>
2

>  <REMARK>
 VINA RESULT:      -7.4      1.970      3.139
  Name = 8smc
  4 active torsions:
  status: ('A' for Active; 'I' for Inactive)
    1  A    between atoms: N_6  and  C_7
    2  A    between atoms: N_8  and  C_15
    3  A    between atoms: C_15  and  C_18
    4  A    between atoms: C_20  and  C_21
                            x       y       z     vdW  Elec       q    Type
                         _______ _______ _______ _____ _____    ______ ____

>  <TORSDO>
F 4

$$$$
8smc
 OpenBabel11072415323D

 24 25  0  0  0  0  0  0  0  0999 V2000
  159.5480  210.6690  152.7480 C   0  0  0  0  0  1  0  0  0  0  0  0
  160.8480  210.0380  152.8530 N   0  0  0  0  0  2  0  0  0  0  0  0
  160.9530  208.5980  152.9490 C   0  0  0  0  0  0  0  0  0  0  0  0
  160.8160  207.8350  151.8820 N   0  0  0  0  0  4  0  0  0  0  0  0
  160.9190  206.5280  151.9560 C   0  0  0  0  0  0  0  0  0  0  0  0
  160.7550  205.6660  150.7950 N   0  0  0  0  0  2  0  0  0  0  0  0
  161.1510  205.9440  153.1160 N   0  0  0  0  0  0  0  0  0  0  0  0
  161.3040  206.6320  154.2260 C   0  0  0  0  0  3  0  0  0  0  0  0
  161.2080  208.0110  154.1720 C   0  0  0  0  0  0  0  0  0  0  0  0
  161.2360  205.8800  149.4390 C   0  0  0  0  0  0  0  0  0  0  0  0
  161.6780  205.4170  147.3700 N   0  0  0  0  0  0  0  0  0  0  0  0
  161.2020  204.9060  148.4710 C   0  0  0  0  0  3  0  0  0  0  0  0
  162.0130  206.7240  147.5660 N   0  0  0  0  0  0  0  0  0  0  0  0
  161.7350  207.0340  148.8330 C   0  0  0  0  0  0  0  0  0  0  0  0
  161.9770  208.4140  149.4400 C   0  0  0  0  0  1  0  0  0  0  0  0
  161.8270  204.7130  146.1130 C   0  0  0  0  0  0  0  0  0  0  0  0
  163.2980  204.7050  145.6990 C   0  0  0  0  0  1  0  0  0  0  0  0
  161.0050  205.4270  145.0420 C   0  0  0  0  0  1  0  0  0  0  0  0
  160.9380  202.2150  146.3680 N   0  0  0  0  0  0  0  0  0  0  0  0
  161.3190  203.2800  146.2590 C   0  0  0  0  0  0  0  0  0  0  0  0
  161.3640  208.8710  155.4130 C   0  0  0  0  0  0  0  0  0  0  0  0
  160.1410  209.3400  155.7840 F   0  0  0  0  0  0  0  0  0  0  0  0
  161.8780  208.1080  156.4180 F   0  0  0  0  0  0  0  0  0  0  0  0
  162.2030  209.9140  155.1580 F   0  0  0  0  0  0  0  0  0  0  0  0
  1  2  1  0  0  0  0
  2  3  1  0  0  0  0
  3  9  1  0  0  0  0
  4  5  2  0  0  0  0
  4  3  2  0  0  0  0
  5  7  2  0  0  0  0
  6  5  1  0  0  0  0
  7  8  1  0  0  0  0
  9  8  2  0  0  0  0
  9 21  1  0  0  0  0
 10  6  1  0  0  0  0
 11 13  1  0  0  0  0
 11 12  1  0  0  0  0
 12 10  2  0  0  0  0
 13 14  2  0  0  0  0
 14 10  1  0  0  0  0
 14 15  1  0  0  0  0
 16 20  1  0  0  0  0
 16 11  1  0  0  0  0
 17 16  1  0  0  0  0
 18 16  1  0  0  0  0
 20 19  3  0  0  0  0
 21 22  1  0  0  0  0
 21 23  1  0  0  0  0
 24 21  1  0  0  0  0
M  END
>  <MODEL>
3

>  <REMARK>
 VINA RESULT:      -7.0      4.010      7.692
  Name = 8smc
  4 active torsions:
  status: ('A' for Active; 'I' for Inactive)
    1  A    between atoms: N_6  and  C_7
    2  A    between atoms: N_8  and  C_15
    3  A    between atoms: C_15  and  C_18
    4  A    between atoms: C_20  and  C_21
                            x       y       z     vdW  Elec       q    Type
                         _______ _______ _______ _____ _____    ______ ____

>  <TORSDO>
F 4

$$$$
8smc
 OpenBabel11072415323D

 24 25  0  0  0  0  0  0  0  0999 V2000
  160.4610  202.7870  148.4740 C   0  0  0  0  0  1  0  0  0  0  0  0
  161.6710  203.5660  148.6440 N   0  0  0  0  0  2  0  0  0  0  0  0
  161.6150  205.0120  148.6280 C   0  0  0  0  0  0  0  0  0  0  0  0
  161.1920  205.6860  149.6800 N   0  0  0  0  0  4  0  0  0  0  0  0
  161.1460  206.9990  149.6800 C   0  0  0  0  0  0  0  0  0  0  0  0
  160.6670  207.7610  150.8240 N   0  0  0  0  0  2  0  0  0  0  0  0
  161.5140  207.6770  148.6100 N   0  0  0  0  0  0  0  0  0  0  0  0
  161.9510  207.0820  147.5220 C   0  0  0  0  0  3  0  0  0  0  0  0
  162.0160  205.7000  147.5010 C   0  0  0  0  0  0  0  0  0  0  0  0
  160.9130  207.5180  152.2360 C   0  0  0  0  0  0  0  0  0  0  0  0
  161.0800  207.9600  154.3500 N   0  0  0  0  0  0  0  0  0  0  0  0
  160.8290  208.5020  153.1910 C   0  0  0  0  0  3  0  0  0  0  0  0
  161.3090  206.6250  154.2030 N   0  0  0  0  0  0  0  0  0  0  0  0
  161.1970  206.3280  152.9080 C   0  0  0  0  0  0  0  0  0  0  0  0
  161.3910  204.9230  152.3410 C   0  0  0  0  0  1  0  0  0  0  0  0
  161.1050  208.6620  155.6170 C   0  0  0  0  0  0  0  0  0  0  0  0
  161.5270  207.7000  156.7280 C   0  0  0  0  0  1  0  0  0  0  0  0
  159.7070  209.1970  155.9170 C   0  0  0  0  0  1  0  0  0  0  0  0
  162.8100  210.7030  155.4820 N   0  0  0  0  0  0  0  0  0  0  0  0
  162.0830  209.8320  155.5410 C   0  0  0  0  0  0  0  0  0  0  0  0
  162.5020  204.9430  146.2780 C   0  0  0  0  0  0  0  0  0  0  0  0
  162.7020  205.8260  145.2620 F   0  0  0  0  0  0  0  0  0  0  0  0
  163.6800  204.3270  146.5800 F   0  0  0  0  0  0  0  0  0  0  0  0
  161.5820  204.0100  145.9080 F   0  0  0  0  0  0  0  0  0  0  0  0
  1  2  1  0  0  0  0
  3  2  1  0  0  0  0
  3  4  2  0  0  0  0
  5  4  2  0  0  0  0
  5  6  1  0  0  0  0
  6 10  1  0  0  0  0
  7  5  2  0  0  0  0
  8  7  1  0  0  0  0
  9  8  2  0  0  0  0
  9  3  1  0  0  0  0
 10 14  1  0  0  0  0
 10 12  2  0  0  0  0
 11 16  1  0  0  0  0
 12 11  1  0  0  0  0
 13 11  1  0  0  0  0
 14 13  2  0  0  0  0
 15 14  1  0  0  0  0
 16 18  1  0  0  0  0
 16 17  1  0  0  0  0
 19 20  3  0  0  0  0
 20 16  1  0  0  0  0
 21 23  1  0  0  0  0
 21  9  1  0  0  0  0
 22 21  1  0  0  0  0
 24 21  1  0  0  0  0
M  END
>  <MODEL>
4

>  <REMARK>
 VINA RESULT:      -6.7      2.473      3.649
  Name = 8smc
  4 active torsions:
  status: ('A' for Active; 'I' for Inactive)
    1  A    between atoms: N_6  and  C_7
    2  A    between atoms: N_8  and  C_15
    3  A    between atoms: C_15  and  C_18
    4  A    between atoms: C_20  and  C_21
                            x       y       z     vdW  Elec       q    Type
                         _______ _______ _______ _____ _____    ______ ____

>  <TORSDO>
F 4

$$$$
8smc
 OpenBabel11072415323D

 24 25  0  0  0  0  0  0  0  0999 V2000
  161.3390  207.2730  154.6730 C   0  0  0  0  0  1  0  0  0  0  0  0
  160.4580  207.8800  153.6950 N   0  0  0  0  0  2  0  0  0  0  0  0
  161.0090  208.5790  152.5530 C   0  0  0  0  0  0  0  0  0  0  0  0
  161.4850  207.9150  151.5180 N   0  0  0  0  0  4  0  0  0  0  0  0
  161.9790  208.5390  150.4720 C   0  0  0  0  0  0  0  0  0  0  0  0
  162.5240  207.8270  149.3250 N   0  0  0  0  0  2  0  0  0  0  0  0
  162.0200  209.8570  150.4430 N   0  0  0  0  0  0  0  0  0  0  0  0
  161.5630  210.5930  151.4320 C   0  0  0  0  0  3  0  0  0  0  0  0
  161.0320  209.9580  152.5410 C   0  0  0  0  0  0  0  0  0  0  0  0
  162.0130  206.6260  148.6840 C   0  0  0  0  0  0  0  0  0  0  0  0
  161.6700  205.1870  147.1030 N   0  0  0  0  0  0  0  0  0  0  0  0
  162.2340  206.3340  147.3600 C   0  0  0  0  0  3  0  0  0  0  0  0
  161.0930  204.6840  148.2310 N   0  0  0  0  0  0  0  0  0  0  0  0
  161.3050  205.5500  149.2220 C   0  0  0  0  0  0  0  0  0  0  0  0
  160.8050  205.3430  150.6500 C   0  0  0  0  0  1  0  0  0  0  0  0
  161.6600  204.5260  145.8130 C   0  0  0  0  0  0  0  0  0  0  0  0
  163.0690  204.5330  145.2220 C   0  0  0  0  0  1  0  0  0  0  0  0
  160.7160  205.2770  144.8780 C   0  0  0  0  0  1  0  0  0  0  0  0
  160.8060  202.0180  146.0910 N   0  0  0  0  0  0  0  0  0  0  0  0
  161.1690  203.0890  145.9720 C   0  0  0  0  0  0  0  0  0  0  0  0
  160.4920  210.7400  153.7250 C   0  0  0  0  0  0  0  0  0  0  0  0
  161.2920  210.5180  154.8040 F   0  0  0  0  0  0  0  0  0  0  0  0
  160.5050  212.0680  153.4200 F   0  0  0  0  0  0  0  0  0  0  0  0
  159.2180  210.3490  154.0050 F   0  0  0  0  0  0  0  0  0  0  0  0
  2  1  1  0  0  0  0
  3  2  1  0  0  0  0
  4  3  2  0  0  0  0
  5  4  2  0  0  0  0
  6  5  1  0  0  0  0
  7  5  2  0  0  0  0
  7  8  1  0  0  0  0
  8  9  2  0  0  0  0
  9  3  1  0  0  0  0
  9 21  1  0  0  0  0
 10 14  1  0  0  0  0
 10  6  1  0  0  0  0
 11 12  1  0  0  0  0
 11 13  1  0  0  0  0
 12 10  2  0  0  0  0
 13 14  2  0  0  0  0
 14 15  1  0  0  0  0
 16 20  1  0  0  0  0
 16 11  1  0  0  0  0
 17 16  1  0  0  0  0
 18 16  1  0  0  0  0
 20 19  3  0  0  0  0
 21 24  1  0  0  0  0
 21 22  1  0  0  0  0
 23 21  1  0  0  0  0
M  END
>  <MODEL>
5

>  <REMARK>
 VINA RESULT:      -6.7      4.210      8.221
  Name = 8smc
  4 active torsions:
  status: ('A' for Active; 'I' for Inactive)
    1  A    between atoms: N_6  and  C_7
    2  A    between atoms: N_8  and  C_15
    3  A    between atoms: C_15  and  C_18
    4  A    between atoms: C_20  and  C_21
                            x       y       z     vdW  Elec       q    Type
                         _______ _______ _______ _____ _____    ______ ____

>  <TORSDO>
F 4

$$$$
8smc
 OpenBabel11072415323D

 24 25  0  0  0  0  0  0  0  0999 V2000
  162.2170  206.2810  152.9940 C   0  0  0  0  0  1  0  0  0  0  0  0
  161.2000  206.7570  152.0790 N   0  0  0  0  0  2  0  0  0  0  0  0
  161.5710  207.2570  150.7720 C   0  0  0  0  0  0  0  0  0  0  0  0
  161.8780  206.4290  149.7920 N   0  0  0  0  0  4  0  0  0  0  0  0
  162.2080  206.8710  148.5990 C   0  0  0  0  0  0  0  0  0  0  0  0
  162.5660  205.9770  147.5080 N   0  0  0  0  0  2  0  0  0  0  0  0
  162.2510  208.1680  148.3600 N   0  0  0  0  0  0  0  0  0  0  0  0
  161.9560  209.0590  149.2810 C   0  0  0  0  0  3  0  0  0  0  0  0
  161.5990  208.6170  150.5420 C   0  0  0  0  0  0  0  0  0  0  0  0
  161.9550  204.7070  147.1470 C   0  0  0  0  0  0  0  0  0  0  0  0
  161.1860  202.7010  147.4170 N   0  0  0  0  0  0  0  0  0  0  0  0
  161.7750  203.6810  148.0420 C   0  0  0  0  0  3  0  0  0  0  0  0
  160.9400  203.0510  146.1230 N   0  0  0  0  0  0  0  0  0  0  0  0
  161.3940  204.2900  145.9380 C   0  0  0  0  0  0  0  0  0  0  0  0
  161.3070  205.0360  144.6080 C   0  0  0  0  0  1  0  0  0  0  0  0
  160.8280  201.4250  148.0030 C   0  0  0  0  0  0  0  0  0  0  0  0
  159.3240  201.3870  148.2710 C   0  0  0  0  0  1  0  0  0  0  0  0
  161.5800  201.2550  149.3210 C   0  0  0  0  0  1  0  0  0  0  0  0
  161.5080  199.4530  146.3470 N   0  0  0  0  0  0  0  0  0  0  0  0
  161.2180  200.2930  147.0550 C   0  0  0  0  0  0  0  0  0  0  0  0
  161.2530  209.5860  151.6580 C   0  0  0  0  0  0  0  0  0  0  0  0
  162.2570  209.5790  152.5770 F   0  0  0  0  0  0  0  0  0  0  0  0
  161.1290  210.8380  151.1340 F   0  0  0  0  0  0  0  0  0  0  0  0
  160.0810  209.2220  152.2500 F   0  0  0  0  0  0  0  0  0  0  0  0
  2  1  1  0  0  0  0
  3  2  1  0  0  0  0
  4  3  2  0  0  0  0
  5  4  2  0  0  0  0
  6  5  1  0  0  0  0
  7  5  2  0  0  0  0
  7  8  1  0  0  0  0
  8  9  2  0  0  0  0
  9  3  1  0  0  0  0
  9 21  1  0  0  0  0
 10  6  1  0  0  0  0
 10 12  2  0  0  0  0
 11 16  1  0  0  0  0
 11 12  1  0  0  0  0
 13 11  1  0  0  0  0
 14 13  2  0  0  0  0
 14 10  1  0  0  0  0
 15 14  1  0  0  0  0
 16 17  1  0  0  0  0
 16 18  1  0  0  0  0
 19 20  3  0  0  0  0
 20 16  1  0  0  0  0
 21 24  1  0  0  0  0
 21 22  1  0  0  0  0
 23 21  1  0  0  0  0
M  END
>  <MODEL>
6

>  <REMARK>
 VINA RESULT:      -6.6      3.901      8.231
  Name = 8smc
  4 active torsions:
  status: ('A' for Active; 'I' for Inactive)
    1  A    between atoms: N_6  and  C_7
    2  A    between atoms: N_8  and  C_15
    3  A    between atoms: C_15  and  C_18
    4  A    between atoms: C_20  and  C_21
                            x       y       z     vdW  Elec       q    Type
                         _______ _______ _______ _____ _____    ______ ____

>  <TORSDO>
F 4

$$$$
8smc
 OpenBabel11072415323D

 24 25  0  0  0  0  0  0  0  0999 V2000
  161.8130  206.0580  147.1160 C   0  0  0  0  0  1  0  0  0  0  0  0
  160.8670  206.5900  148.0760 N   0  0  0  0  0  2  0  0  0  0  0  0
  161.3180  207.4670  149.1350 C   0  0  0  0  0  0  0  0  0  0  0  0
  161.5850  208.7370  148.8950 N   0  0  0  0  0  4  0  0  0  0  0  0
  161.9870  209.5450  149.8500 C   0  0  0  0  0  0  0  0  0  0  0  0
  162.3020  210.9440  149.6050 N   0  0  0  0  0  2  0  0  0  0  0  0
  162.1450  209.0940  151.0800 N   0  0  0  0  0  0  0  0  0  0  0  0
  161.8970  207.8440  151.4030 C   0  0  0  0  0  3  0  0  0  0  0  0
  161.4660  206.9760  150.4150 C   0  0  0  0  0  0  0  0  0  0  0  0
  161.6000  211.8910  148.7520 C   0  0  0  0  0  0  0  0  0  0  0  0
  160.9280  212.8230  146.9170 N   0  0  0  0  0  0  0  0  0  0  0  0
  161.6870  211.8710  147.3820 C   0  0  0  0  0  3  0  0  0  0  0  0
  160.3100  213.4730  147.9430 N   0  0  0  0  0  0  0  0  0  0  0  0
  160.6990  212.9040  149.0850 C   0  0  0  0  0  0  0  0  0  0  0  0
  160.2250  213.3590  150.4630 C   0  0  0  0  0  1  0  0  0  0  0  0
  160.7510  213.1480  145.5160 C   0  0  0  0  0  0  0  0  0  0  0  0
  159.9660  214.4530  145.3870 C   0  0  0  0  0  1  0  0  0  0  0  0
  159.9740  212.0220  144.8390 C   0  0  0  0  0  1  0  0  0  0  0  0
  163.1270  213.3960  144.3380 N   0  0  0  0  0  0  0  0  0  0  0  0
  162.1140  213.2910  144.8420 C   0  0  0  0  0  0  0  0  0  0  0  0
  161.1680  205.5170  150.7110 C   0  0  0  0  0  0  0  0  0  0  0  0
  162.1530  204.7460  150.1730 F   0  0  0  0  0  0  0  0  0  0  0  0
  161.1410  205.3360  152.0610 F   0  0  0  0  0  0  0  0  0  0  0  0
  159.9630  205.1670  150.1800 F   0  0  0  0  0  0  0  0  0  0  0  0
  1  2  1  0  0  0  0
  2  3  1  0  0  0  0
  3  9  1  0  0  0  0
  4  3  2  0  0  0  0
  4  5  2  0  0  0  0
  5  7  2  0  0  0  0
  6  5  1  0  0  0  0
  7  8  1  0  0  0  0
  9 21  1  0  0  0  0
  9  8  2  0  0  0  0
 10 14  1  0  0  0  0
 10  6  1  0  0  0  0
 11 12  1  0  0  0  0
 11 13  1  0  0  0  0
 12 10  2  0  0  0  0
 13 14  2  0  0  0  0
 14 15  1  0  0  0  0
 16 11  1  0  0  0  0
 17 16  1  0  0  0  0
 18 16  1  0  0  0  0
 19 20  3  0  0  0  0
 20 16  1  0  0  0  0
 21 23  1  0  0  0  0
 22 21  1  0  0  0  0
 24 21  1  0  0  0  0
M  END
>  <MODEL>
7

>  <REMARK>
 VINA RESULT:      -6.6      4.659      6.305
  Name = 8smc
  4 active torsions:
  status: ('A' for Active; 'I' for Inactive)
    1  A    between atoms: N_6  and  C_7
    2  A    between atoms: N_8  and  C_15
    3  A    between atoms: C_15  and  C_18
    4  A    between atoms: C_20  and  C_21
                            x       y       z     vdW  Elec       q    Type
                         _______ _______ _______ _____ _____    ______ ____

>  <TORSDO>
F 4

$$$$
8smc
 OpenBabel11072415323D

 24 25  0  0  0  0  0  0  0  0999 V2000
  161.4630  207.7550  155.7970 C   0  0  0  0  0  1  0  0  0  0  0  0
  160.4150  208.1460  154.8760 N   0  0  0  0  0  2  0  0  0  0  0  0
  160.7350  208.9160  153.6930 C   0  0  0  0  0  0  0  0  0  0  0  0
  161.2690  208.3410  152.6330 N   0  0  0  0  0  4  0  0  0  0  0  0
  161.5550  209.0280  151.5510 C   0  0  0  0  0  0  0  0  0  0  0  0
  162.1590  208.4160  150.3760 N   0  0  0  0  0  2  0  0  0  0  0  0
  161.3230  210.3260  151.5070 N   0  0  0  0  0  0  0  0  0  0  0  0
  160.7900  210.9750  152.5180 C   0  0  0  0  0  3  0  0  0  0  0  0
  160.4730  210.2710  153.6670 C   0  0  0  0  0  0  0  0  0  0  0  0
  161.8650  207.1220  149.7820 C   0  0  0  0  0  0  0  0  0  0  0  0
  161.6970  205.6150  148.2360 N   0  0  0  0  0  0  0  0  0  0  0  0
  162.0170  206.8610  148.4420 C   0  0  0  0  0  3  0  0  0  0  0  0
  161.3530  205.0180  149.4120 N   0  0  0  0  0  0  0  0  0  0  0  0
  161.4630  205.9260  150.3820 C   0  0  0  0  0  0  0  0  0  0  0  0
  161.1580  205.6400  151.8510 C   0  0  0  0  0  1  0  0  0  0  0  0
  161.7090  204.9460  146.9510 C   0  0  0  0  0  0  0  0  0  0  0  0
  161.2280  203.5050  147.1180 C   0  0  0  0  0  1  0  0  0  0  0  0
  163.1350  204.9430  146.4060 C   0  0  0  0  0  1  0  0  0  0  0  0
  160.1270  206.2440  145.2460 N   0  0  0  0  0  0  0  0  0  0  0  0
  160.8010  205.6880  145.9730 C   0  0  0  0  0  0  0  0  0  0  0  0
  159.8630  210.9530  154.8780 C   0  0  0  0  0  0  0  0  0  0  0  0
  160.7630  210.9300  155.8990 F   0  0  0  0  0  0  0  0  0  0  0  0
  159.5760  212.2460  154.5590 F   0  0  0  0  0  0  0  0  0  0  0  0
  158.7210  210.3120  155.2520 F   0  0  0  0  0  0  0  0  0  0  0  0
  2  1  1  0  0  0  0
  3  2  1  0  0  0  0
  4  3  2  0  0  0  0
  5  4  2  0  0  0  0
  6  5  1  0  0  0  0
  7  5  2  0  0  0  0
  7  8  1  0  0  0  0
  8  9  2  0  0  0  0
  9  3  1  0  0  0  0
  9 21  1  0  0  0  0
 10  6  1  0  0  0  0
 10 14  1  0  0  0  0
 11 12  1  0  0  0  0
 11 13  1  0  0  0  0
 12 10  2  0  0  0  0
 13 14  2  0  0  0  0
 14 15  1  0  0  0  0
 16 17  1  0  0  0  0
 16 11  1  0  0  0  0
 18 16  1  0  0  0  0
 19 20  3  0  0  0  0
 20 16  1  0  0  0  0
 21 24  1  0  0  0  0
 21 22  1  0  0  0  0
 23 21  1  0  0  0  0
M  END
>  <MODEL>
8

>  <REMARK>
 VINA RESULT:      -6.6      4.309      8.052
  Name = 8smc
  4 active torsions:
  status: ('A' for Active; 'I' for Inactive)
    1  A    between atoms: N_6  and  C_7
    2  A    between atoms: N_8  and  C_15
    3  A    between atoms: C_15  and  C_18
    4  A    between atoms: C_20  and  C_21
                            x       y       z     vdW  Elec       q    Type
                         _______ _______ _______ _____ _____    ______ ____

>  <TORSDO>
F 4

$$$$
8smc
 OpenBabel11072415323D

 24 25  0  0  0  0  0  0  0  0999 V2000
  161.8420  206.0330  147.9580 C   0  0  0  0  0  1  0  0  0  0  0  0
  160.7690  205.7860  148.8990 N   0  0  0  0  0  2  0  0  0  0  0  0
  161.0530  205.6640  150.3130 C   0  0  0  0  0  0  0  0  0  0  0  0
  161.2790  206.7320  151.0540 N   0  0  0  0  0  4  0  0  0  0  0  0
  161.5280  206.6340  152.3400 C   0  0  0  0  0  0  0  0  0  0  0  0
  161.7960  207.7970  153.1720 N   0  0  0  0  0  2  0  0  0  0  0  0
  161.5710  205.4500  152.9200 N   0  0  0  0  0  0  0  0  0  0  0  0
  161.3540  204.3370  152.2540 C   0  0  0  0  0  3  0  0  0  0  0  0
  161.0820  204.4160  150.9000 C   0  0  0  0  0  0  0  0  0  0  0  0
  161.1450  209.0970  153.1410 C   0  0  0  0  0  0  0  0  0  0  0  0
  159.9480  210.7590  153.8430 N   0  0  0  0  0  0  0  0  0  0  0  0
  160.3580  209.5640  154.1650 C   0  0  0  0  0  3  0  0  0  0  0  0
  160.4600  211.1200  152.6330 N   0  0  0  0  0  0  0  0  0  0  0  0
  161.2140  210.1150  152.1880 C   0  0  0  0  0  0  0  0  0  0  0  0
  161.9580  210.1390  150.8550 C   0  0  0  0  0  1  0  0  0  0  0  0
  159.0810  211.5950  154.6490 C   0  0  0  0  0  0  0  0  0  0  0  0
  159.9280  212.5000  155.5430 C   0  0  0  0  0  1  0  0  0  0  0  0
  158.2010  210.7040  155.5210 C   0  0  0  0  0  1  0  0  0  0  0  0
  157.5270  213.0740  153.0700 N   0  0  0  0  0  0  0  0  0  0  0  0
  158.1910  212.4430  153.7420 C   0  0  0  0  0  0  0  0  0  0  0  0
  160.8290  203.1740  150.0640 C   0  0  0  0  0  0  0  0  0  0  0  0
  159.5060  203.1170  149.7450 F   0  0  0  0  0  0  0  0  0  0  0  0
  161.5650  203.2540  148.9200 F   0  0  0  0  0  0  0  0  0  0  0  0
  161.1870  202.0590  150.7590 F   0  0  0  0  0  0  0  0  0  0  0  0
  1  2  1  0  0  0  0
  2  3  1  0  0  0  0
  3  9  1  0  0  0  0
  3  4  2  0  0  0  0
  4  5  2  0  0  0  0
  5  7  2  0  0  0  0
  5  6  1  0  0  0  0
  8  7  1  0  0  0  0
  9  8  2  0  0  0  0
 10  6  1  0  0  0  0
 10 12  2  0  0  0  0
 11 12  1  0  0  0  0
 11 16  1  0  0  0  0
 13 11  1  0  0  0  0
 14 13  2  0  0  0  0
 14 10  1  0  0  0  0
 15 14  1  0  0  0  0
 16 18  1  0  0  0  0
 16 17  1  0  0  0  0
 19 20  3  0  0  0  0
 20 16  1  0  0  0  0
 21 24  1  0  0  0  0
 21  9  1  0  0  0  0
 22 21  1  0  0  0  0
 23 21  1  0  0  0  0
M  END
>  <MODEL>
9

>  <REMARK>
 VINA RESULT:      -6.5      1.485      1.883
  Name = 8smc
  4 active torsions:
  status: ('A' for Active; 'I' for Inactive)
    1  A    between atoms: N_6  and  C_7
    2  A    between atoms: N_8  and  C_15
    3  A    between atoms: C_15  and  C_18
    4  A    between atoms: C_20  and  C_21
                            x       y       z     vdW  Elec       q    Type
                         _______ _______ _______ _____ _____    ______ ____

>  <TORSDO>
F 4

$$$$
