8u8a
 OpenBabel11072415323D

 39 43  0  0  0  0  0  0  0  0999 V2000
  160.9490  211.5630  151.1750 O   0  0  0  0  0  0  0  0  0  0  0  0
  161.5670  210.2910  149.4040 N   0  0  0  0  0  2  0  0  0  0  0  0
  161.2270  210.4670  150.6900 C   0  0  0  0  0  0  0  0  0  0  0  0
  161.1550  206.8170  151.6430 C   0  0  0  0  0  0  0  0  0  0  0  0
  161.1830  206.8360  153.0960 C   0  0  0  0  0  0  0  0  0  0  0  0
  161.2180  208.1020  153.7640 C   0  0  0  0  0  3  0  0  0  0  0  0
  161.2390  209.3170  153.0180 C   0  0  0  0  0  3  0  0  0  0  0  0
  161.2220  209.2700  151.5780 C   0  0  0  0  0  0  0  0  0  0  0  0
  161.1720  208.0230  150.9210 C   0  0  0  0  0  3  0  0  0  0  0  0
  161.1580  205.5540  153.9220 C   0  0  0  0  0  1  0  0  0  0  0  0
  161.1330  205.5890  150.8680 C   0  0  0  0  0  0  0  0  0  0  0  0
  161.0930  204.5020  150.3300 C   0  0  0  0  0  0  0  0  0  0  0  0
  160.7190  202.1080  150.2650 C   0  0  0  0  0  3  0  0  0  0  0  0
  160.6470  201.1110  149.3240 N   0  0  0  0  0  0  0  0  0  0  0  0
  160.9310  203.2900  149.6650 C   0  0  0  0  0  0  0  0  0  0  0  0
  160.8720  201.2340  146.8270 C   0  0  0  0  0  3  0  0  0  0  0  0
  161.2550  204.0270  147.3810 N   0  0  0  0  0  0  0  0  0  0  0  0
  161.0920  202.1440  145.8200 C   0  0  0  0  0  3  0  0  0  0  0  0
  161.0330  203.0790  148.3350 N   0  0  0  0  0  0  0  0  0  0  0  0
  161.2730  203.5090  146.1580 C   0  0  0  0  0  3  0  0  0  0  0  0
  160.8300  201.7000  148.1690 C   0  0  0  0  0  0  0  0  0  0  0  0
  161.6370  211.3000  148.4120 C   0  0  0  0  0  0  0  0  0  0  0  0
  162.8970  211.8540  148.0940 C   0  0  0  0  0  3  0  0  0  0  0  0
  163.0040  212.8710  147.0920 C   0  0  0  0  0  3  0  0  0  0  0  0
  161.8440  213.3560  146.3800 C   0  0  0  0  0  0  0  0  0  0  0  0
  160.5440  212.7840  146.7160 C   0  0  0  0  0  0  0  0  0  0  0  0
  160.4810  211.7800  147.7160 C   0  0  0  0  0  3  0  0  0  0  0  0
  159.2110  213.1680  146.0660 C   0  0  0  0  0  0  0  0  0  0  0  0
  158.2420  213.0890  146.9430 F   0  0  0  0  0  0  0  0  0  0  0  0
  159.2140  214.4050  145.5990 F   0  0  0  0  0  0  0  0  0  0  0  0
  158.9510  212.3610  145.0420 F   0  0  0  0  0  0  0  0  0  0  0  0
  162.0630  214.4530  145.3150 C   0  0  0  0  0  2  0  0  0  0  0  0
  161.9080  213.9790  143.9380 N   0  0  0  0  0  0  0  0  0  0  0  0
  162.5610  212.5810  141.4560 N   0  0  0  0  0  0  0  0  0  0  0  0
  163.0510  214.3720  143.0750 C   0  0  0  0  0  2  0  0  0  0  0  0
  162.7440  214.0330  141.6030 C   0  0  0  0  0  2  0  0  0  0  0  0
  161.5010  212.0730  142.3770 C   0  0  0  0  0  2  0  0  0  0  0  0
  161.7450  212.5180  143.8500 C   0  0  0  0  0  2  0  0  0  0  0  0
  162.3180  212.2250  140.0680 C   0  0  0  0  0  1  0  0  0  0  0  0
  2  3  1  0  0  0  0
  3  1  2  0  0  0  0
  3  8  1  0  0  0  0
  4  5  1  0  0  0  0
  5  6  2  0  0  0  0
  5 10  1  0  0  0  0
  7  6  1  0  0  0  0
  8  7  2  0  0  0  0
  9  8  1  0  0  0  0
  9  4  2  0  0  0  0
 11  4  1  0  0  0  0
 12 11  3  0  0  0  0
 14 13  1  0  0  0  0
 15 13  2  0  0  0  0
 15 12  1  0  0  0  0
 16 21  1  0  0  0  0
 17 19  1  0  0  0  0
 18 20  1  0  0  0  0
 18 16  2  0  0  0  0
 19 15  1  0  0  0  0
 20 17  2  0  0  0  0
 21 19  1  0  0  0  0
 21 14  2  0  0  0  0
 22  2  1  0  0  0  0
 23 22  1  0  0  0  0
 24 23  2  0  0  0  0
 25 26  2  0  0  0  0
 25 24  1  0  0  0  0
 26 27  1  0  0  0  0
 27 22  2  0  0  0  0
 28 26  1  0  0  0  0
 28 29  1  0  0  0  0
 30 28  1  0  0  0  0
 31 28  1  0  0  0  0
 32 25  1  0  0  0  0
 33 32  1  0  0  0  0
 34 36  1  0  0  0  0
 34 37  1  0  0  0  0
 35 33  1  0  0  0  0
 36 35  1  0  0  0  0
 37 38  1  0  0  0  0
 38 33  1  0  0  0  0
 39 34  1  0  0  0  0
M  END
>  <MODEL>
1

>  <REMARK>
 VINA RESULT:      -8.0      0.000      0.000
  Name = 8u8a
  8 active torsions:
  status: ('A' for Active; 'I' for Inactive)
    1  A    between atoms: C_4  and  C_6
    2  A    between atoms: N_5  and  C_18
    3  A    between atoms: C_6  and  C_8
    4  A    between atoms: N_7  and  C_25
    5  A    between atoms: C_8  and  C_10
    6  A    between atoms: C_14  and  C_17
    7  A    between atoms: C_21  and  C_25
    8  A    between atoms: C_22  and  C_24
                            x       y       z     vdW  Elec       q    Type
                         _______ _______ _______ _____ _____    ______ ____

>  <TORSDO>
F 8

$$$$
8u8a
 OpenBabel11072415323D

 39 43  0  0  0  0  0  0  0  0999 V2000
  161.3640  204.7660  153.1510 O   0  0  0  0  0  0  0  0  0  0  0  0
  160.9360  206.1640  151.4190 N   0  0  0  0  0  2  0  0  0  0  0  0
  161.1190  205.8930  152.7200 C   0  0  0  0  0  0  0  0  0  0  0  0
  160.5650  209.4230  153.9300 C   0  0  0  0  0  0  0  0  0  0  0  0
  160.7030  209.3220  155.3740 C   0  0  0  0  0  0  0  0  0  0  0  0
  160.9960  208.0410  155.9460 C   0  0  0  0  0  3  0  0  0  0  0  0
  161.1360  206.8910  155.1170 C   0  0  0  0  0  3  0  0  0  0  0  0
  160.9830  207.0160  153.6900 C   0  0  0  0  0  0  0  0  0  0  0  0
  160.7100  208.2790  153.1260 C   0  0  0  0  0  3  0  0  0  0  0  0
  160.5630  210.5350  156.2870 C   0  0  0  0  0  1  0  0  0  0  0  0
  160.2550  210.6680  153.2510 C   0  0  0  0  0  0  0  0  0  0  0  0
  159.9750  211.6380  152.5780 C   0  0  0  0  0  0  0  0  0  0  0  0
  158.7200  213.6030  151.9120 C   0  0  0  0  0  3  0  0  0  0  0  0
  158.6480  214.4520  150.8370 N   0  0  0  0  0  0  0  0  0  0  0  0
  159.6680  212.6760  151.7020 C   0  0  0  0  0  0  0  0  0  0  0  0
  159.9590  214.4530  148.6950 C   0  0  0  0  0  3  0  0  0  0  0  0
  161.1920  212.1520  149.8940 N   0  0  0  0  0  0  0  0  0  0  0  0
  160.9540  213.7540  148.0540 C   0  0  0  0  0  3  0  0  0  0  0  0
  160.2030  212.8850  150.4790 N   0  0  0  0  0  0  0  0  0  0  0  0
  161.5230  212.6270  148.6980 C   0  0  0  0  0  3  0  0  0  0  0  0
  159.5440  214.0200  149.9840 C   0  0  0  0  0  0  0  0  0  0  0  0
  161.0160  205.2350  150.3520 C   0  0  0  0  0  0  0  0  0  0  0  0
  161.3810  205.7030  149.0690 C   0  0  0  0  0  3  0  0  0  0  0  0
  161.4770  204.7900  147.9700 C   0  0  0  0  0  3  0  0  0  0  0  0
  161.2090  203.3790  148.1330 C   0  0  0  0  0  0  0  0  0  0  0  0
  160.8260  202.9020  149.4590 C   0  0  0  0  0  0  0  0  0  0  0  0
  160.7420  203.8390  150.5200 C   0  0  0  0  0  3  0  0  0  0  0  0
  160.5120  201.4480  149.8230 C   0  0  0  0  0  0  0  0  0  0  0  0
  159.3320  201.1130  149.3640 F   0  0  0  0  0  0  0  0  0  0  0  0
  161.3850  200.5990  149.3080 F   0  0  0  0  0  0  0  0  0  0  0  0
  160.5390  201.2890  151.1420 F   0  0  0  0  0  0  0  0  0  0  0  0
  161.3410  202.4750  146.8890 C   0  0  0  0  0  2  0  0  0  0  0  0
  161.4910  203.2160  145.6340 N   0  0  0  0  0  0  0  0  0  0  0  0
  161.4890  205.4990  143.8090 N   0  0  0  0  0  0  0  0  0  0  0  0
  160.2480  203.9330  145.2490 C   0  0  0  0  0  2  0  0  0  0  0  0
  160.3920  204.5180  143.8310 C   0  0  0  0  0  2  0  0  0  0  0  0
  162.7650  204.8940  144.2930 C   0  0  0  0  0  2  0  0  0  0  0  0
  162.5920  204.1930  145.6750 C   0  0  0  0  0  2  0  0  0  0  0  0
  161.6170  206.1060  142.4950 C   0  0  0  0  0  1  0  0  0  0  0  0
  2  3  1  0  0  0  0
  3  1  2  0  0  0  0
  3  8  1  0  0  0  0
  4  5  1  0  0  0  0
  5  6  2  0  0  0  0
  5 10  1  0  0  0  0
  7  6  1  0  0  0  0
  8  7  2  0  0  0  0
  9  8  1  0  0  0  0
  9  4  2  0  0  0  0
 11  4  1  0  0  0  0
 12 11  3  0  0  0  0
 14 13  1  0  0  0  0
 15 13  2  0  0  0  0
 15 12  1  0  0  0  0
 16 21  1  0  0  0  0
 17 19  1  0  0  0  0
 18 16  2  0  0  0  0
 18 20  1  0  0  0  0
 19 15  1  0  0  0  0
 20 17  2  0  0  0  0
 21 19  1  0  0  0  0
 21 14  2  0  0  0  0
 22 27  1  0  0  0  0
 22  2  1  0  0  0  0
 23 22  2  0  0  0  0
 24 25  2  0  0  0  0
 24 23  1  0  0  0  0
 25 26  1  0  0  0  0
 26 28  1  0  0  0  0
 26 27  2  0  0  0  0
 28 31  1  0  0  0  0
 29 28  1  0  0  0  0
 30 28  1  0  0  0  0
 32 25  1  0  0  0  0
 33 38  1  0  0  0  0
 33 32  1  0  0  0  0
 34 36  1  0  0  0  0
 34 37  1  0  0  0  0
 35 33  1  0  0  0  0
 36 35  1  0  0  0  0
 37 38  1  0  0  0  0
 39 34  1  0  0  0  0
M  END
>  <MODEL>
2

>  <REMARK>
 VINA RESULT:      -6.6      4.821      9.129
  Name = 8u8a
  8 active torsions:
  status: ('A' for Active; 'I' for Inactive)
    1  A    between atoms: C_4  and  C_6
    2  A    between atoms: N_5  and  C_18
    3  A    between atoms: C_6  and  C_8
    4  A    between atoms: N_7  and  C_25
    5  A    between atoms: C_8  and  C_10
    6  A    between atoms: C_14  and  C_17
    7  A    between atoms: C_21  and  C_25
    8  A    between atoms: C_22  and  C_24
                            x       y       z     vdW  Elec       q    Type
                         _______ _______ _______ _____ _____    ______ ____

>  <TORSDO>
F 8

$$$$
8u8a
 OpenBabel11072415323D

 39 43  0  0  0  0  0  0  0  0999 V2000
  162.6590  210.8140  147.9790 O   0  0  0  0  0  0  0  0  0  0  0  0
  160.6250  211.7690  148.2770 N   0  0  0  0  0  2  0  0  0  0  0  0
  161.6750  211.0380  148.6830 C   0  0  0  0  0  0  0  0  0  0  0  0
  161.5340  208.3460  151.3220 C   0  0  0  0  0  0  0  0  0  0  0  0
  161.4940  209.0860  152.5730 C   0  0  0  0  0  0  0  0  0  0  0  0
  161.5080  210.5170  152.5220 C   0  0  0  0  0  3  0  0  0  0  0  0
  161.5710  211.2000  151.2730 C   0  0  0  0  0  3  0  0  0  0  0  0
  161.6210  210.4420  150.0480 C   0  0  0  0  0  0  0  0  0  0  0  0
  161.5920  209.0330  150.0970 C   0  0  0  0  0  3  0  0  0  0  0  0
  161.4220  208.3850  153.9250 C   0  0  0  0  0  1  0  0  0  0  0  0
  161.5390  206.8950  151.2610 C   0  0  0  0  0  0  0  0  0  0  0  0
  161.4180  205.6900  151.1930 C   0  0  0  0  0  0  0  0  0  0  0  0
  161.0060  203.4490  152.0200 C   0  0  0  0  0  3  0  0  0  0  0  0
  160.8510  202.1850  151.5100 N   0  0  0  0  0  0  0  0  0  0  0  0
  161.1900  204.3270  151.0220 C   0  0  0  0  0  0  0  0  0  0  0  0
  160.8940  201.3930  149.1270 C   0  0  0  0  0  3  0  0  0  0  0  0
  161.3560  204.1810  148.6110 N   0  0  0  0  0  0  0  0  0  0  0  0
  161.0520  201.8720  147.8480 C   0  0  0  0  0  3  0  0  0  0  0  0
  161.1910  203.6480  149.8540 N   0  0  0  0  0  0  0  0  0  0  0  0
  161.2770  203.2580  147.6580 C   0  0  0  0  0  3  0  0  0  0  0  0
  160.9570  202.3120  150.2100 C   0  0  0  0  0  0  0  0  0  0  0  0
  160.4860  212.4070  147.0200 C   0  0  0  0  0  0  0  0  0  0  0  0
  159.2110  212.8810  146.6350 C   0  0  0  0  0  3  0  0  0  0  0  0
  159.0370  213.5360  145.3750 C   0  0  0  0  0  3  0  0  0  0  0  0
  160.1430  213.7340  144.4660 C   0  0  0  0  0  0  0  0  0  0  0  0
  161.4570  213.2370  144.8650 C   0  0  0  0  0  0  0  0  0  0  0  0
  161.5860  212.5920  146.1220 C   0  0  0  0  0  3  0  0  0  0  0  0
  162.7410  213.3600  144.0390 C   0  0  0  0  0  0  0  0  0  0  0  0
  163.7610  213.6020  144.8240 F   0  0  0  0  0  0  0  0  0  0  0  0
  163.0190  212.2540  143.3700 F   0  0  0  0  0  0  0  0  0  0  0  0
  162.6210  214.3390  143.1490 F   0  0  0  0  0  0  0  0  0  0  0  0
  159.8550  214.4530  143.1300 C   0  0  0  0  0  2  0  0  0  0  0  0
  159.3050  213.5760  142.0940 N   0  0  0  0  0  0  0  0  0  0  0  0
  158.7590  212.5480  139.4130 N   0  0  0  0  0  0  0  0  0  0  0  0
  158.4850  214.3190  141.1030 C   0  0  0  0  0  2  0  0  0  0  0  0
  157.7650  213.3310  140.1640 C   0  0  0  0  0  2  0  0  0  0  0  0
  159.7070  211.8520  140.3320 C   0  0  0  0  0  2  0  0  0  0  0  0
  160.3450  212.8300  141.3640 C   0  0  0  0  0  2  0  0  0  0  0  0
  158.1100  211.6410  138.4810 C   0  0  0  0  0  1  0  0  0  0  0  0
  1  3  2  0  0  0  0
  2  3  1  0  0  0  0
  3  8  1  0  0  0  0
  4  5  1  0  0  0  0
  5 10  1  0  0  0  0
  6  5  2  0  0  0  0
  7  6  1  0  0  0  0
  8  9  1  0  0  0  0
  8  7  2  0  0  0  0
  9  4  2  0  0  0  0
 11  4  1  0  0  0  0
 12 11  3  0  0  0  0
 14 13  1  0  0  0  0
 15 12  1  0  0  0  0
 15 13  2  0  0  0  0
 16 21  1  0  0  0  0
 17 19  1  0  0  0  0
 18 16  2  0  0  0  0
 19 21  1  0  0  0  0
 19 15  1  0  0  0  0
 20 18  1  0  0  0  0
 20 17  2  0  0  0  0
 21 14  2  0  0  0  0
 22  2  1  0  0  0  0
 23 22  1  0  0  0  0
 24 23  2  0  0  0  0
 25 26  2  0  0  0  0
 25 24  1  0  0  0  0
 26 27  1  0  0  0  0
 27 22  2  0  0  0  0
 28 29  1  0  0  0  0
 28 26  1  0  0  0  0
 30 28  1  0  0  0  0
 31 28  1  0  0  0  0
 32 25  1  0  0  0  0
 33 32  1  0  0  0  0
 34 36  1  0  0  0  0
 34 37  1  0  0  0  0
 35 33  1  0  0  0  0
 36 35  1  0  0  0  0
 37 38  1  0  0  0  0
 38 33  1  0  0  0  0
 39 34  1  0  0  0  0
M  END
>  <MODEL>
3

>  <REMARK>
 VINA RESULT:      -6.3      2.345      3.110
  Name = 8u8a
  8 active torsions:
  status: ('A' for Active; 'I' for Inactive)
    1  A    between atoms: C_4  and  C_6
    2  A    between atoms: N_5  and  C_18
    3  A    between atoms: C_6  and  C_8
    4  A    between atoms: N_7  and  C_25
    5  A    between atoms: C_8  and  C_10
    6  A    between atoms: C_14  and  C_17
    7  A    between atoms: C_21  and  C_25
    8  A    between atoms: C_22  and  C_24
                            x       y       z     vdW  Elec       q    Type
                         _______ _______ _______ _____ _____    ______ ____

>  <TORSDO>
F 8

$$$$
8u8a
 OpenBabel11072415323D

 39 43  0  0  0  0  0  0  0  0999 V2000
  161.2460  209.4430  152.0640 O   0  0  0  0  0  0  0  0  0  0  0  0
  161.7700  208.9780  149.9080 N   0  0  0  0  0  2  0  0  0  0  0  0
  161.4620  208.6290  151.1660 C   0  0  0  0  0  0  0  0  0  0  0  0
  161.2560  204.9110  150.5600 C   0  0  0  0  0  0  0  0  0  0  0  0
  161.2930  204.3380  151.8960 C   0  0  0  0  0  0  0  0  0  0  0  0
  161.3810  205.2220  153.0180 C   0  0  0  0  0  3  0  0  0  0  0  0
  161.4440  206.6330  152.8280 C   0  0  0  0  0  3  0  0  0  0  0  0
  161.4170  207.1750  151.4930 C   0  0  0  0  0  0  0  0  0  0  0  0
  161.3150  206.3050  150.3890 C   0  0  0  0  0  3  0  0  0  0  0  0
  161.2230  202.8330  152.1320 C   0  0  0  0  0  1  0  0  0  0  0  0
  161.1820  204.1040  149.3550 C   0  0  0  0  0  0  0  0  0  0  0  0
  161.1140  203.5400  148.2830 C   0  0  0  0  0  0  0  0  0  0  0  0
  160.4860  203.5320  145.9410 C   0  0  0  0  0  3  0  0  0  0  0  0
  160.3470  202.6210  144.9250 N   0  0  0  0  0  0  0  0  0  0  0  0
  160.9070  202.9150  147.0560 C   0  0  0  0  0  0  0  0  0  0  0  0
  160.7350  200.1400  144.9220 C   0  0  0  0  0  3  0  0  0  0  0  0
  161.4120  200.6280  147.6710 N   0  0  0  0  0  0  0  0  0  0  0  0
  161.1270  199.1220  145.7570 C   0  0  0  0  0  3  0  0  0  0  0  0
  161.0170  201.5940  146.7950 N   0  0  0  0  0  0  0  0  0  0  0  0
  161.4480  199.4260  147.1040 C   0  0  0  0  0  3  0  0  0  0  0  0
  160.6730  201.4620  145.4410 C   0  0  0  0  0  0  0  0  0  0  0  0
  161.8700  210.3000  149.4080 C   0  0  0  0  0  0  0  0  0  0  0  0
  162.8430  210.5820  148.4220 C   0  0  0  0  0  3  0  0  0  0  0  0
  162.9660  211.9050  147.8910 C   0  0  0  0  0  3  0  0  0  0  0  0
  162.1110  212.9820  148.3360 C   0  0  0  0  0  0  0  0  0  0  0  0
  161.1110  212.6860  149.3580 C   0  0  0  0  0  0  0  0  0  0  0  0
  161.0230  211.3630  149.8590 C   0  0  0  0  0  3  0  0  0  0  0  0
  160.1170  213.6940  149.9450 C   0  0  0  0  0  0  0  0  0  0  0  0
  159.6290  214.4510  148.9950 F   0  0  0  0  0  0  0  0  0  0  0  0
  159.0930  213.1050  150.5390 F   0  0  0  0  0  0  0  0  0  0  0  0
  160.7180  214.4530  150.8550 F   0  0  0  0  0  0  0  0  0  0  0  0
  162.3200  214.3740  147.7010 C   0  0  0  0  0  2  0  0  0  0  0  0
  162.0050  214.4240  146.2710 N   0  0  0  0  0  0  0  0  0  0  0  0
  161.2050  213.4640  143.6290 N   0  0  0  0  0  0  0  0  0  0  0  0
  162.8340  213.4800  145.4770 C   0  0  0  0  0  2  0  0  0  0  0  0
  162.6130  213.7210  143.9710 C   0  0  0  0  0  2  0  0  0  0  0  0
  160.2860  214.2910  144.4650 C   0  0  0  0  0  2  0  0  0  0  0  0
  160.5880  214.1440  145.9870 C   0  0  0  0  0  2  0  0  0  0  0  0
  160.9770  213.6350  142.2040 C   0  0  0  0  0  1  0  0  0  0  0  0
  2  3  1  0  0  0  0
  3  8  1  0  0  0  0
  3  1  2  0  0  0  0
  4  5  1  0  0  0  0
  5 10  1  0  0  0  0
  5  6  2  0  0  0  0
  7  6  1  0  0  0  0
  8  7  2  0  0  0  0
  9  4  2  0  0  0  0
  9  8  1  0  0  0  0
 11  4  1  0  0  0  0
 12 11  3  0  0  0  0
 13 15  2  0  0  0  0
 14 21  2  0  0  0  0
 14 13  1  0  0  0  0
 15 12  1  0  0  0  0
 16 21  1  0  0  0  0
 16 18  2  0  0  0  0
 18 20  1  0  0  0  0
 19 15  1  0  0  0  0
 19 17  1  0  0  0  0
 20 17  2  0  0  0  0
 21 19  1  0  0  0  0
 22 27  1  0  0  0  0
 22  2  1  0  0  0  0
 23 22  2  0  0  0  0
 24 25  2  0  0  0  0
 24 23  1  0  0  0  0
 25 26  1  0  0  0  0
 26 27  2  0  0  0  0
 26 28  1  0  0  0  0
 28 30  1  0  0  0  0
 28 31  1  0  0  0  0
 29 28  1  0  0  0  0
 32 25  1  0  0  0  0
 33 32  1  0  0  0  0
 34 36  1  0  0  0  0
 34 37  1  0  0  0  0
 35 33  1  0  0  0  0
 36 35  1  0  0  0  0
 37 38  1  0  0  0  0
 38 33  1  0  0  0  0
 39 34  1  0  0  0  0
M  END
>  <MODEL>
4

>  <REMARK>
 VINA RESULT:      -6.2      1.891      2.972
  Name = 8u8a
  8 active torsions:
  status: ('A' for Active; 'I' for Inactive)
    1  A    between atoms: C_4  and  C_6
    2  A    between atoms: N_5  and  C_18
    3  A    between atoms: C_6  and  C_8
    4  A    between atoms: N_7  and  C_25
    5  A    between atoms: C_8  and  C_10
    6  A    between atoms: C_14  and  C_17
    7  A    between atoms: C_21  and  C_25
    8  A    between atoms: C_22  and  C_24
                            x       y       z     vdW  Elec       q    Type
                         _______ _______ _______ _____ _____    ______ ____

>  <TORSDO>
F 8

$$$$
8u8a
 OpenBabel11072415323D

 39 43  0  0  0  0  0  0  0  0999 V2000
  162.9800  206.1290  152.1390 O   0  0  0  0  0  0  0  0  0  0  0  0
  160.7830  205.8330  151.6690 N   0  0  0  0  0  2  0  0  0  0  0  0
  161.7940  206.3650  152.3710 C   0  0  0  0  0  0  0  0  0  0  0  0
  160.3750  209.3650  154.1650 C   0  0  0  0  0  0  0  0  0  0  0  0
  160.7160  209.1310  155.5580 C   0  0  0  0  0  0  0  0  0  0  0  0
  161.4440  207.9440  155.8950 C   0  0  0  0  0  3  0  0  0  0  0  0
  161.8140  207.0080  154.8870 C   0  0  0  0  0  3  0  0  0  0  0  0
  161.4540  207.2580  153.5140 C   0  0  0  0  0  0  0  0  0  0  0  0
  160.7500  208.4340  153.1810 C   0  0  0  0  0  3  0  0  0  0  0  0
  160.3370  210.1160  156.6600 C   0  0  0  0  0  1  0  0  0  0  0  0
  159.6270  210.5260  153.7170 C   0  0  0  0  0  0  0  0  0  0  0  0
  158.8990  211.4400  153.3920 C   0  0  0  0  0  0  0  0  0  0  0  0
  157.9970  213.1890  151.9750 C   0  0  0  0  0  3  0  0  0  0  0  0
  156.9600  214.0870  151.9970 N   0  0  0  0  0  0  0  0  0  0  0  0
  157.9670  212.4270  153.0800 C   0  0  0  0  0  0  0  0  0  0  0  0
  155.1820  214.4530  153.7320 C   0  0  0  0  0  3  0  0  0  0  0  0
  156.5740  212.3190  155.0580 N   0  0  0  0  0  0  0  0  0  0  0  0
  154.7680  213.9720  154.9510 C   0  0  0  0  0  3  0  0  0  0  0  0
  156.9360  212.8370  153.8510 N   0  0  0  0  0  0  0  0  0  0  0  0
  155.4970  212.9170  155.5550 C   0  0  0  0  0  3  0  0  0  0  0  0
  156.3240  213.8680  153.1210 C   0  0  0  0  0  0  0  0  0  0  0  0
  160.9020  204.9590  150.5600 C   0  0  0  0  0  0  0  0  0  0  0  0
  161.2630  205.5000  149.3040 C   0  0  0  0  0  3  0  0  0  0  0  0
  161.3990  204.6440  148.1650 C   0  0  0  0  0  3  0  0  0  0  0  0
  161.1770  203.2190  148.2580 C   0  0  0  0  0  0  0  0  0  0  0  0
  160.7990  202.6670  149.5560 C   0  0  0  0  0  0  0  0  0  0  0  0
  160.6740  203.5490  150.6590 C   0  0  0  0  0  3  0  0  0  0  0  0
  160.5300  201.1870  149.8460 C   0  0  0  0  0  0  0  0  0  0  0  0
  159.3210  200.8640  149.4610 F   0  0  0  0  0  0  0  0  0  0  0  0
  161.3680  200.3870  149.2090 F   0  0  0  0  0  0  0  0  0  0  0  0
  160.6640  200.9440  151.1460 F   0  0  0  0  0  0  0  0  0  0  0  0
  161.3500  202.3810  146.9730 C   0  0  0  0  0  2  0  0  0  0  0  0
  161.5030  203.1850  145.7590 N   0  0  0  0  0  0  0  0  0  0  0  0
  161.4410  205.5470  144.0380 N   0  0  0  0  0  0  0  0  0  0  0  0
  160.2370  203.8530  145.3610 C   0  0  0  0  0  2  0  0  0  0  0  0
  160.3980  204.5100  143.9760 C   0  0  0  0  0  2  0  0  0  0  0  0
  162.7300  204.9880  144.5410 C   0  0  0  0  0  2  0  0  0  0  0  0
  162.5480  204.2160  145.8830 C   0  0  0  0  0  2  0  0  0  0  0  0
  161.5810  206.2190  142.7570 C   0  0  0  0  0  1  0  0  0  0  0  0
  1  3  2  0  0  0  0
  2  3  1  0  0  0  0
  3  8  1  0  0  0  0
  4  5  1  0  0  0  0
  5  6  2  0  0  0  0
  5 10  1  0  0  0  0
  7  6  1  0  0  0  0
  8  7  2  0  0  0  0
  9  8  1  0  0  0  0
  9  4  2  0  0  0  0
 11  4  1  0  0  0  0
 12 11  3  0  0  0  0
 13 14  1  0  0  0  0
 13 15  2  0  0  0  0
 14 21  2  0  0  0  0
 15 12  1  0  0  0  0
 15 19  1  0  0  0  0
 16 18  2  0  0  0  0
 17 20  2  0  0  0  0
 18 20  1  0  0  0  0
 19 17  1  0  0  0  0
 21 16  1  0  0  0  0
 21 19  1  0  0  0  0
 22 27  1  0  0  0  0
 22  2  1  0  0  0  0
 23 22  2  0  0  0  0
 24 25  2  0  0  0  0
 24 23  1  0  0  0  0
 25 26  1  0  0  0  0
 26 28  1  0  0  0  0
 26 27  2  0  0  0  0
 28 31  1  0  0  0  0
 29 28  1  0  0  0  0
 30 28  1  0  0  0  0
 32 25  1  0  0  0  0
 33 38  1  0  0  0  0
 33 32  1  0  0  0  0
 34 37  1  0  0  0  0
 35 33  1  0  0  0  0
 36 34  1  0  0  0  0
 36 35  1  0  0  0  0
 37 38  1  0  0  0  0
 39 34  1  0  0  0  0
M  END
>  <MODEL>
5

>  <REMARK>
 VINA RESULT:      -6.0      5.852      9.845
  Name = 8u8a
  8 active torsions:
  status: ('A' for Active; 'I' for Inactive)
    1  A    between atoms: C_4  and  C_6
    2  A    between atoms: N_5  and  C_18
    3  A    between atoms: C_6  and  C_8
    4  A    between atoms: N_7  and  C_25
    5  A    between atoms: C_8  and  C_10
    6  A    between atoms: C_14  and  C_17
    7  A    between atoms: C_21  and  C_25
    8  A    between atoms: C_22  and  C_24
                            x       y       z     vdW  Elec       q    Type
                         _______ _______ _______ _____ _____    ______ ____

>  <TORSDO>
F 8

$$$$
8u8a
 OpenBabel11072415323D

 39 43  0  0  0  0  0  0  0  0999 V2000
  158.2140  212.1430  146.9610 O   0  0  0  0  0  0  0  0  0  0  0  0
  158.4870  214.3470  146.5130 N   0  0  0  0  0  2  0  0  0  0  0  0
  158.0620  213.3240  147.2700 C   0  0  0  0  0  0  0  0  0  0  0  0
  157.4630  213.6210  150.9830 C   0  0  0  0  0  0  0  0  0  0  0  0
  156.1200  214.1710  151.0760 C   0  0  0  0  0  0  0  0  0  0  0  0
  155.4040  214.4370  149.8650 C   0  0  0  0  0  3  0  0  0  0  0  0
  156.0010  214.1810  148.5960 C   0  0  0  0  0  3  0  0  0  0  0  0
  157.3370  213.6470  148.5310 C   0  0  0  0  0  0  0  0  0  0  0  0
  158.0370  213.3700  149.7240 C   0  0  0  0  0  3  0  0  0  0  0  0
  155.4530  214.4520  152.4180 C   0  0  0  0  0  1  0  0  0  0  0  0
  158.2810  213.3280  152.1460 C   0  0  0  0  0  0  0  0  0  0  0  0
  158.8550  213.0530  153.1790 C   0  0  0  0  0  0  0  0  0  0  0  0
  159.2600  213.5840  155.5090 C   0  0  0  0  0  3  0  0  0  0  0  0
  159.9940  213.0870  156.5570 N   0  0  0  0  0  0  0  0  0  0  0  0
  159.4280  212.8110  154.4250 C   0  0  0  0  0  0  0  0  0  0  0  0
  161.5030  211.0820  156.6590 C   0  0  0  0  0  3  0  0  0  0  0  0
  160.7270  210.8350  153.9040 N   0  0  0  0  0  0  0  0  0  0  0  0
  161.9740  210.0620  155.8670 C   0  0  0  0  0  3  0  0  0  0  0  0
  160.2940  211.8230  154.7370 N   0  0  0  0  0  0  0  0  0  0  0  0
  161.5540  209.9940  154.5150 C   0  0  0  0  0  3  0  0  0  0  0  0
  160.6060  212.0270  156.0900 C   0  0  0  0  0  0  0  0  0  0  0  0
  159.1840  214.2450  145.2830 C   0  0  0  0  0  0  0  0  0  0  0  0
  158.4700  214.4440  144.0790 C   0  0  0  0  0  3  0  0  0  0  0  0
  159.1440  214.3550  142.8200 C   0  0  0  0  0  3  0  0  0  0  0  0
  160.5580  214.0640  142.7370 C   0  0  0  0  0  0  0  0  0  0  0  0
  161.2890  213.8540  143.9840 C   0  0  0  0  0  0  0  0  0  0  0  0
  160.5830  213.9510  145.2100 C   0  0  0  0  0  3  0  0  0  0  0  0
  162.7850  213.5450  144.0930 C   0  0  0  0  0  0  0  0  0  0  0  0
  163.0500  212.3920  143.5300 F   0  0  0  0  0  0  0  0  0  0  0  0
  163.5340  214.4530  143.4920 F   0  0  0  0  0  0  0  0  0  0  0  0
  163.1540  213.5120  145.3700 F   0  0  0  0  0  0  0  0  0  0  0  0
  161.1940  213.9910  141.3330 C   0  0  0  0  0  2  0  0  0  0  0  0
  161.0020  212.7010  140.6640 N   0  0  0  0  0  0  0  0  0  0  0  0
  161.2340  210.6540  138.5910 N   0  0  0  0  0  0  0  0  0  0  0  0
  160.3860  212.8480  139.3210 C   0  0  0  0  0  2  0  0  0  0  0  0
  160.0160  211.4640  138.7540 C   0  0  0  0  0  2  0  0  0  0  0  0
  161.9870  210.5460  139.8760 C   0  0  0  0  0  2  0  0  0  0  0  0
  162.2550  211.9420  140.5150 C   0  0  0  0  0  2  0  0  0  0  0  0
  160.9230  209.3590  138.0100 C   0  0  0  0  0  1  0  0  0  0  0  0
  1  3  2  0  0  0  0
  2  3  1  0  0  0  0
  3  8  1  0  0  0  0
  4  5  1  0  0  0  0
  4 11  1  0  0  0  0
  5 10  1  0  0  0  0
  6  5  2  0  0  0  0
  7  6  1  0  0  0  0
  8  7  2  0  0  0  0
  8  9  1  0  0  0  0
  9  4  2  0  0  0  0
 11 12  3  0  0  0  0
 12 15  1  0  0  0  0
 13 14  1  0  0  0  0
 15 19  1  0  0  0  0
 15 13  2  0  0  0  0
 17 20  2  0  0  0  0
 17 19  1  0  0  0  0
 18 16  2  0  0  0  0
 19 21  1  0  0  0  0
 20 18  1  0  0  0  0
 21 14  2  0  0  0  0
 21 16  1  0  0  0  0
 22  2  1  0  0  0  0
 23 22  2  0  0  0  0
 24 23  1  0  0  0  0
 25 24  2  0  0  0  0
 25 26  1  0  0  0  0
 26 28  1  0  0  0  0
 26 27  2  0  0  0  0
 27 22  1  0  0  0  0
 28 31  1  0  0  0  0
 29 28  1  0  0  0  0
 30 28  1  0  0  0  0
 32 25  1  0  0  0  0
 33 32  1  0  0  0  0
 34 36  1  0  0  0  0
 34 37  1  0  0  0  0
 35 33  1  0  0  0  0
 36 35  1  0  0  0  0
 37 38  1  0  0  0  0
 38 33  1  0  0  0  0
 39 34  1  0  0  0  0
M  END
>  <MODEL>
6

>  <REMARK>
 VINA RESULT:      -5.8      5.704      7.882
  Name = 8u8a
  8 active torsions:
  status: ('A' for Active; 'I' for Inactive)
    1  A    between atoms: C_4  and  C_6
    2  A    between atoms: N_5  and  C_18
    3  A    between atoms: C_6  and  C_8
    4  A    between atoms: N_7  and  C_25
    5  A    between atoms: C_8  and  C_10
    6  A    between atoms: C_14  and  C_17
    7  A    between atoms: C_21  and  C_25
    8  A    between atoms: C_22  and  C_24
                            x       y       z     vdW  Elec       q    Type
                         _______ _______ _______ _____ _____    ______ ____

>  <TORSDO>
F 8

$$$$
