8tyq
 OpenBabel11072415333D

 39 43  0  0  1  0  0  0  0  0999 V2000
  157.9060  213.3760  146.0970 C   0  0  0  0  0  0  0  0  0  0  0  0
  157.9530  212.2560  145.8090 O   0  0  0  0  0  0  0  0  0  0  0  0
  158.4490  214.4410  145.2500 N   0  0  0  0  0  2  0  0  0  0  0  0
  155.6490  214.2780  151.3320 C   0  0  0  0  0  1  0  0  0  0  0  0
  156.2060  214.0590  149.9420 C   0  0  0  0  0  0  0  0  0  0  0  0
  157.4290  213.4640  149.7860 C   0  0  0  0  0  0  0  0  0  0  0  0
  157.9670  213.2410  148.5510 C   0  0  0  0  0  3  0  0  0  0  0  0
  157.2530  213.6290  147.4500 C   0  0  0  0  0  0  0  0  0  0  0  0
  156.0290  214.2410  147.5770 C   0  0  0  0  0  3  0  0  0  0  0  0
  155.4990  214.4530  148.8360 C   0  0  0  0  0  3  0  0  0  0  0  0
  158.1890  213.0400  151.0180 C   0  0  0  0  0  0  0  0  0  0  0  0
  158.7720  212.7190  151.9880 C   0  0  0  0  0  0  0  0  0  0  0  0
  159.5190  212.3270  153.2440 C   0  0  2  0  0  3  0  0  0  0  0  0
  160.5240  211.4030  153.2360 C   0  0  0  0  0  3  0  0  0  0  0  0
  161.0880  211.1510  154.4050 C   0  0  0  0  0  0  0  0  0  0  0  0
  160.6930  211.7870  155.5860 C   0  0  0  0  0  0  0  0  0  0  0  0
  161.5810  211.1900  156.5120 N   0  0  0  0  0  0  0  0  0  0  0  0
  162.4610  210.3070  156.1570 N   0  0  0  0  0  0  0  0  0  0  0  0
  162.1240  210.3280  154.9470 C   0  0  0  0  0  3  0  0  0  0  0  0
  159.7320  212.6710  155.6260 N   0  0  0  0  0  0  0  0  0  0  0  0
  159.1240  212.9620  154.4430 C   0  0  0  0  0  3  0  0  0  0  0  0
  159.0920  214.1610  143.9410 C   0  0  0  0  0  0  0  0  0  0  0  0
  160.3990  213.7410  143.8860 C   0  0  0  0  0  3  0  0  0  0  0  0
  161.0540  213.4750  142.6890 C   0  0  0  0  0  0  0  0  0  0  0  0
  160.3680  213.6210  141.4590 C   0  0  0  0  0  0  0  0  0  0  0  0
  159.0300  214.0160  141.5330 C   0  0  0  0  0  3  0  0  0  0  0  0
  158.4040  214.2990  142.7530 C   0  0  0  0  0  3  0  0  0  0  0  0
  162.4980  213.0330  142.7690 C   0  0  0  0  0  0  0  0  0  0  0  0
  163.2880  213.8770  142.0750 F   0  0  0  0  0  0  0  0  0  0  0  0
  162.8870  213.0430  144.0520 F   0  0  0  0  0  0  0  0  0  0  0  0
  162.5780  211.7740  142.3030 F   0  0  0  0  0  0  0  0  0  0  0  0
  161.0950  213.2730  140.1010 C   0  0  0  0  0  2  0  0  0  0  0  0
  160.8440  212.1200  139.4600 N   0  0  0  0  0  0  0  0  0  0  0  0
  161.9530  211.6070  139.0140 C   0  0  0  0  0  2  0  0  0  0  0  0
  161.7980  210.2460  138.3190 C   0  0  0  0  0  2  0  0  0  0  0  0
  161.1280  209.4330  139.0970 N   0  0  0  0  0  0  0  0  0  0  0  0
  159.9940  210.0190  139.2710 C   0  0  0  0  0  2  0  0  0  0  0  0
  160.1840  211.2530  140.1270 C   0  0  0  0  0  2  0  0  0  0  0  0
  160.9180  208.3020  138.4990 C   0  0  0  0  0  1  0  0  0  0  0  0
  1  8  1  0  0  0  0
  2  1  2  0  0  0  0
  3  1  1  0  0  0  0
  5  4  1  0  0  0  0
  6  5  1  0  0  0  0
  6 11  1  0  0  0  0
  7  6  2  0  0  0  0
  8  9  2  0  0  0  0
  8  7  1  0  0  0  0
  9 10  1  0  0  0  0
 10  5  2  0  0  0  0
 11 12  3  0  0  0  0
 13 12  1  1  0  0  0
 13 21  1  0  0  0  0
 14 13  1  0  0  0  0
 14 15  2  0  0  0  0
 15 19  1  0  0  0  0
 15 16  1  0  0  0  0
 16 20  1  0  0  0  0
 16 17  2  0  0  0  0
 18 17  1  0  0  0  0
 19 18  2  0  0  0  0
 21 20  2  0  0  0  0
 22  3  1  0  0  0  0
 23 22  1  0  0  0  0
 24 28  1  0  0  0  0
 24 23  2  0  0  0  0
 25 26  2  0  0  0  0
 25 24  1  0  0  0  0
 26 27  1  0  0  0  0
 27 22  2  0  0  0  0
 28 30  1  0  0  0  0
 29 28  1  0  0  0  0
 31 28  1  0  0  0  0
 32 25  1  0  0  0  0
 33 32  1  0  0  0  0
 33 38  1  0  0  0  0
 34 33  1  0  0  0  0
 35 34  1  0  0  0  0
 35 36  1  0  0  0  0
 36 37  1  0  0  0  0
 37 38  1  0  0  0  0
 39 36  1  0  0  0  0
M  END
>  <MODEL>
1

>  <REMARK>
 VINA RESULT:      -5.9      0.000      0.000
  Name = 8tyq
  8 active torsions:
  status: ('A' for Active; 'I' for Inactive)
    1  A    between atoms: C_3  and  C_26
    2  A    between atoms: C_5  and  C_8
    3  A    between atoms: N_10  and  C_11
    4  A    between atoms: C_13  and  C_25
    5  A    between atoms: C_14  and  C_17
    6  A    between atoms: C_17  and  N_18
    7  A    between atoms: C_26  and  C_27
    8  A    between atoms: C_27  and  C_28
                            x       y       z     vdW  Elec       q    Type
                         _______ _______ _______ _____ _____    ______ ____

>  <TORSDO>
F 8

$$$$
8tyq
 OpenBabel11072415333D

 39 43  0  0  1  0  0  0  0  0999 V2000
  162.1190  211.8680  147.6030 C   0  0  0  0  0  0  0  0  0  0  0  0
  163.2040  212.2470  147.4670 O   0  0  0  0  0  0  0  0  0  0  0  0
  161.0950  211.9940  146.5630 N   0  0  0  0  0  2  0  0  0  0  0  0
  161.1700  209.3230  152.6940 C   0  0  0  0  0  1  0  0  0  0  0  0
  161.4180  210.0280  151.3790 C   0  0  0  0  0  0  0  0  0  0  0  0
  161.5420  209.2970  150.2290 C   0  0  0  0  0  0  0  0  0  0  0  0
  161.7600  209.8910  149.0190 C   0  0  0  0  0  3  0  0  0  0  0  0
  161.8560  211.2550  148.9720 C   0  0  0  0  0  0  0  0  0  0  0  0
  161.7480  212.0140  150.1130 C   0  0  0  0  0  3  0  0  0  0  0  0
  161.5220  211.3940  151.3270 C   0  0  0  0  0  3  0  0  0  0  0  0
  161.4260  207.7950  150.3110 C   0  0  0  0  0  0  0  0  0  0  0  0
  161.3280  206.6240  150.3610 C   0  0  0  0  0  0  0  0  0  0  0  0
  161.2120  205.1170  150.4450 C   0  0  2  0  0  3  0  0  0  0  0  0
  161.0430  204.3370  149.3370 C   0  0  0  0  0  3  0  0  0  0  0  0
  160.9520  203.0350  149.5560 C   0  0  0  0  0  0  0  0  0  0  0  0
  161.0270  202.4780  150.8350 C   0  0  0  0  0  0  0  0  0  0  0  0
  160.8870  201.1030  150.5290 N   0  0  0  0  0  0  0  0  0  0  0  0
  160.7410  200.6770  149.3130 N   0  0  0  0  0  0  0  0  0  0  0  0
  160.7830  201.8270  148.8100 C   0  0  0  0  0  3  0  0  0  0  0  0
  161.1830  203.1990  151.9140 N   0  0  0  0  0  0  0  0  0  0  0  0
  161.2830  204.5450  151.7340 C   0  0  0  0  0  3  0  0  0  0  0  0
  161.3800  212.6080  145.2410 C   0  0  0  0  0  0  0  0  0  0  0  0
  160.3930  212.6900  144.2880 C   0  0  0  0  0  3  0  0  0  0  0  0
  160.6060  213.2440  143.0320 C   0  0  0  0  0  0  0  0  0  0  0  0
  161.8780  213.7670  142.6930 C   0  0  0  0  0  0  0  0  0  0  0  0
  162.8610  213.7060  143.6850 C   0  0  0  0  0  3  0  0  0  0  0  0
  162.6230  213.1210  144.9340 C   0  0  0  0  0  3  0  0  0  0  0  0
  159.4390  213.2600  142.0700 C   0  0  0  0  0  0  0  0  0  0  0  0
  159.4530  214.3860  141.3290 F   0  0  0  0  0  0  0  0  0  0  0  0
  159.5390  212.2060  141.2470 F   0  0  0  0  0  0  0  0  0  0  0  0
  158.3050  213.1440  142.7840 F   0  0  0  0  0  0  0  0  0  0  0  0
  162.1100  214.4400  141.2840 C   0  0  0  0  0  2  0  0  0  0  0  0
  162.5860  213.7280  140.2500 N   0  0  0  0  0  0  0  0  0  0  0  0
  162.6350  212.4660  140.5610 C   0  0  0  0  0  2  0  0  0  0  0  0
  163.1030  211.5420  139.4270 C   0  0  0  0  0  2  0  0  0  0  0  0
  162.4000  211.7830  138.3490 N   0  0  0  0  0  0  0  0  0  0  0  0
  162.6290  213.0230  138.0880 C   0  0  0  0  0  2  0  0  0  0  0  0
  161.9770  213.8950  139.1400 C   0  0  0  0  0  2  0  0  0  0  0  0
  162.8290  211.0680  137.3570 C   0  0  0  0  0  1  0  0  0  0  0  0
  1  8  1  0  0  0  0
  2  1  2  0  0  0  0
  3  1  1  0  0  0  0
  5  4  1  0  0  0  0
  6 11  1  0  0  0  0
  6  5  2  0  0  0  0
  7  6  1  0  0  0  0
  8  7  2  0  0  0  0
  8  9  1  0  0  0  0
  9 10  2  0  0  0  0
 10  5  1  0  0  0  0
 11 12  3  0  0  0  0
 13 12  1  1  0  0  0
 13 21  1  0  0  0  0
 14 15  2  0  0  0  0
 14 13  1  0  0  0  0
 15 16  1  0  0  0  0
 16 20  1  0  0  0  0
 17 16  2  0  0  0  0
 18 17  1  0  0  0  0
 19 18  2  0  0  0  0
 19 15  1  0  0  0  0
 21 20  2  0  0  0  0
 22  3  1  0  0  0  0
 23 22  2  0  0  0  0
 24 23  1  0  0  0  0
 25 24  2  0  0  0  0
 25 26  1  0  0  0  0
 26 27  2  0  0  0  0
 27 22  1  0  0  0  0
 28 31  1  0  0  0  0
 28 24  1  0  0  0  0
 29 28  1  0  0  0  0
 30 28  1  0  0  0  0
 32 25  1  0  0  0  0
 33 34  1  0  0  0  0
 33 32  1  0  0  0  0
 35 34  1  0  0  0  0
 36 35  1  0  0  0  0
 37 36  1  0  0  0  0
 37 38  1  0  0  0  0
 38 33  1  0  0  0  0
 39 36  1  0  0  0  0
M  END
>  <MODEL>
2

>  <REMARK>
 VINA RESULT:      -5.5      5.195      6.280
  Name = 8tyq
  8 active torsions:
  status: ('A' for Active; 'I' for Inactive)
    1  A    between atoms: C_3  and  C_26
    2  A    between atoms: C_5  and  C_8
    3  A    between atoms: N_10  and  C_11
    4  A    between atoms: C_13  and  C_25
    5  A    between atoms: C_14  and  C_17
    6  A    between atoms: C_17  and  N_18
    7  A    between atoms: C_26  and  C_27
    8  A    between atoms: C_27  and  C_28
                            x       y       z     vdW  Elec       q    Type
                         _______ _______ _______ _____ _____    ______ ____

>  <TORSDO>
F 8

$$$$
8tyq
 OpenBabel11072415333D

 39 43  0  0  1  0  0  0  0  0999 V2000
  160.9250  212.6420  147.0180 C   0  0  0  0  0  0  0  0  0  0  0  0
  159.8070  212.3390  147.0250 O   0  0  0  0  0  0  0  0  0  0  0  0
  161.7230  212.7720  148.2390 N   0  0  0  0  0  2  0  0  0  0  0  0
  162.7690  213.6450  141.6430 C   0  0  0  0  0  1  0  0  0  0  0  0
  162.3220  213.3970  143.0660 C   0  0  0  0  0  0  0  0  0  0  0  0
  161.0870  212.8610  143.3070 C   0  0  0  0  0  0  0  0  0  0  0  0
  160.6450  212.6140  144.5760 C   0  0  0  0  0  3  0  0  0  0  0  0
  161.4710  212.9170  145.6230 C   0  0  0  0  0  0  0  0  0  0  0  0
  162.7120  213.4690  145.4120 C   0  0  0  0  0  3  0  0  0  0  0  0
  163.1440  213.7060  144.1200 C   0  0  0  0  0  3  0  0  0  0  0  0
  160.2000  212.5300  142.1320 C   0  0  0  0  0  0  0  0  0  0  0  0
  159.4970  212.2720  141.2260 C   0  0  0  0  0  0  0  0  0  0  0  0
  158.5960  211.9180  140.0620 C   0  0  2  0  0  3  0  0  0  0  0  0
  157.4160  212.5660  139.8310 C   0  0  0  0  0  3  0  0  0  0  0  0
  156.7250  212.1520  138.7820 C   0  0  0  0  0  0  0  0  0  0  0  0
  157.1650  211.1190  137.9490 C   0  0  0  0  0  0  0  0  0  0  0  0
  156.1060  211.0730  137.0110 N   0  0  0  0  0  0  0  0  0  0  0  0
  155.0860  211.8700  137.0790 N   0  0  0  0  0  0  0  0  0  0  0  0
  155.5000  212.4560  138.1110 C   0  0  0  0  0  3  0  0  0  0  0  0
  158.2860  210.4770  138.1480 N   0  0  0  0  0  0  0  0  0  0  0  0
  159.0300  210.8720  139.2170 C   0  0  0  0  0  3  0  0  0  0  0  0
  161.1570  212.5080  149.5870 C   0  0  0  0  0  0  0  0  0  0  0  0
  161.5190  211.3790  150.2820 C   0  0  0  0  0  3  0  0  0  0  0  0
  161.0130  211.0770  151.5400 C   0  0  0  0  0  0  0  0  0  0  0  0
  160.0940  211.9550  152.1650 C   0  0  0  0  0  0  0  0  0  0  0  0
  159.7620  213.1150  151.4600 C   0  0  0  0  0  3  0  0  0  0  0  0
  160.2700  213.3820  150.1830 C   0  0  0  0  0  3  0  0  0  0  0  0
  161.4830  209.7950  152.1900 C   0  0  0  0  0  0  0  0  0  0  0  0
  160.4700  208.9100  152.2760 F   0  0  0  0  0  0  0  0  0  0  0  0
  162.4570  209.2570  151.4400 F   0  0  0  0  0  0  0  0  0  0  0  0
  161.9880  210.0970  153.3990 F   0  0  0  0  0  0  0  0  0  0  0  0
  159.5550  211.6370  153.6140 C   0  0  0  0  0  2  0  0  0  0  0  0
  158.5970  212.3930  154.1740 N   0  0  0  0  0  0  0  0  0  0  0  0
  157.4590  211.7630  154.1510 C   0  0  0  0  0  2  0  0  0  0  0  0
  156.2980  212.5070  154.8280 C   0  0  0  0  0  2  0  0  0  0  0  0
  156.6590  212.8780  156.0300 N   0  0  0  0  0  0  0  0  0  0  0  0
  157.6760  213.6440  155.8360 C   0  0  0  0  0  2  0  0  0  0  0  0
  158.8500  212.8210  155.3510 C   0  0  0  0  0  2  0  0  0  0  0  0
  155.7210  213.5750  156.5920 C   0  0  0  0  0  1  0  0  0  0  0  0
  1  2  2  0  0  0  0
  1  3  1  0  0  0  0
  3 22  1  0  0  0  0
  4  5  1  0  0  0  0
  5  6  2  0  0  0  0
  5 10  1  0  0  0  0
  6  7  1  0  0  0  0
  7  8  2  0  0  0  0
  8  1  1  0  0  0  0
  9  8  1  0  0  0  0
 10  9  2  0  0  0  0
 11  6  1  0  0  0  0
 12 11  3  0  0  0  0
 13 12  1  1  0  0  0
 14 13  1  0  0  0  0
 15 14  2  0  0  0  0
 16 20  1  0  0  0  0
 16 15  1  0  0  0  0
 17 18  1  0  0  0  0
 17 16  2  0  0  0  0
 18 19  2  0  0  0  0
 19 15  1  0  0  0  0
 20 21  2  0  0  0  0
 21 13  1  0  0  0  0
 22 27  2  0  0  0  0
 22 23  1  0  0  0  0
 23 24  2  0  0  0  0
 24 25  1  0  0  0  0
 24 28  1  0  0  0  0
 25 32  1  0  0  0  0
 26 25  2  0  0  0  0
 27 26  1  0  0  0  0
 28 29  1  0  0  0  0
 28 31  1  0  0  0  0
 30 28  1  0  0  0  0
 32 33  1  0  0  0  0
 33 38  1  0  0  0  0
 34 33  1  0  0  0  0
 34 35  1  0  0  0  0
 35 36  1  0  0  0  0
 36 39  1  0  0  0  0
 37 36  1  0  0  0  0
 38 37  1  0  0  0  0
M  END
>  <MODEL>
3

>  <REMARK>
 VINA RESULT:      -5.2      3.801     12.851
  Name = 8tyq
  8 active torsions:
  status: ('A' for Active; 'I' for Inactive)
    1  A    between atoms: C_3  and  C_26
    2  A    between atoms: C_5  and  C_8
    3  A    between atoms: N_10  and  C_11
    4  A    between atoms: C_13  and  C_25
    5  A    between atoms: C_14  and  C_17
    6  A    between atoms: C_17  and  N_18
    7  A    between atoms: C_26  and  C_27
    8  A    between atoms: C_27  and  C_28
                            x       y       z     vdW  Elec       q    Type
                         _______ _______ _______ _____ _____    ______ ____

>  <TORSDO>
F 8

$$$$
8tyq
 OpenBabel11072415333D

 39 43  0  0  1  0  0  0  0  0999 V2000
  160.2360  212.6890  143.6440 C   0  0  0  0  0  0  0  0  0  0  0  0
  159.1470  212.2970  143.6260 O   0  0  0  0  0  0  0  0  0  0  0  0
  161.1010  212.6940  142.4610 N   0  0  0  0  0  2  0  0  0  0  0  0
  161.7240  214.4460  148.9350 C   0  0  0  0  0  1  0  0  0  0  0  0
  161.3750  213.9880  147.5360 C   0  0  0  0  0  0  0  0  0  0  0  0
  160.0760  213.6930  147.2220 C   0  0  0  0  0  0  0  0  0  0  0  0
  159.7140  213.2830  145.9710 C   0  0  0  0  0  3  0  0  0  0  0  0
  160.6880  213.1680  145.0170 C   0  0  0  0  0  0  0  0  0  0  0  0
  162.0030  213.4450  145.3070 C   0  0  0  0  0  3  0  0  0  0  0  0
  162.3480  213.8640  146.5780 C   0  0  0  0  0  3  0  0  0  0  0  0
  159.0230  213.8360  148.2940 C   0  0  0  0  0  0  0  0  0  0  0  0
  158.2110  213.9370  149.1380 C   0  0  0  0  0  0  0  0  0  0  0  0
  157.1660  214.0450  150.2270 C   0  0  2  0  0  3  0  0  0  0  0  0
  157.4770  213.9200  151.5500 C   0  0  0  0  0  3  0  0  0  0  0  0
  156.4650  214.0310  152.3950 C   0  0  0  0  0  0  0  0  0  0  0  0
  155.1530  214.2680  151.9750 C   0  0  0  0  0  0  0  0  0  0  0  0
  154.4840  214.3070  153.2210 N   0  0  0  0  0  0  0  0  0  0  0  0
  155.1060  214.1470  154.3460 N   0  0  0  0  0  0  0  0  0  0  0  0
  156.2300  213.9910  153.8050 C   0  0  0  0  0  3  0  0  0  0  0  0
  154.8240  214.3870  150.7150 N   0  0  0  0  0  0  0  0  0  0  0  0
  155.8360  214.2800  149.8110 C   0  0  0  0  0  3  0  0  0  0  0  0
  160.6350  212.2070  141.1370 C   0  0  0  0  0  0  0  0  0  0  0  0
  161.0990  211.0150  140.6350 C   0  0  0  0  0  3  0  0  0  0  0  0
  160.7060  210.5170  139.3980 C   0  0  0  0  0  0  0  0  0  0  0  0
  159.7800  211.2380  138.6050 C   0  0  0  0  0  0  0  0  0  0  0  0
  159.2920  212.4310  139.1460 C   0  0  0  0  0  3  0  0  0  0  0  0
  159.7240  212.9190  140.3840 C   0  0  0  0  0  3  0  0  0  0  0  0
  161.3030  209.2000  138.9560 C   0  0  0  0  0  0  0  0  0  0  0  0
  161.8160  209.3070  137.7140 F   0  0  0  0  0  0  0  0  0  0  0  0
  162.2910  208.8650  139.7980 F   0  0  0  0  0  0  0  0  0  0  0  0
  160.3430  208.2600  139.0220 F   0  0  0  0  0  0  0  0  0  0  0  0
  159.2950  210.6510  137.2220 C   0  0  0  0  0  2  0  0  0  0  0  0
  158.0050  210.3380  137.0200 N   0  0  0  0  0  0  0  0  0  0  0  0
  157.7030  209.2500  137.6660 C   0  0  0  0  0  2  0  0  0  0  0  0
  156.2300  208.8300  137.5640 C   0  0  0  0  0  2  0  0  0  0  0  0
  155.4630  209.8450  137.8740 N   0  0  0  0  0  0  0  0  0  0  0  0
  155.7680  210.7510  137.0110 C   0  0  0  0  0  2  0  0  0  0  0  0
  157.1660  211.2650  137.2830 C   0  0  0  0  0  2  0  0  0  0  0  0
  154.2140  209.5350  137.7200 C   0  0  0  0  0  1  0  0  0  0  0  0
  1  8  1  0  0  0  0
  2  1  2  0  0  0  0
  3  1  1  0  0  0  0
  5  4  1  0  0  0  0
  6  5  1  0  0  0  0
  6 11  1  0  0  0  0
  7  6  2  0  0  0  0
  8  9  2  0  0  0  0
  8  7  1  0  0  0  0
  9 10  1  0  0  0  0
 10  5  2  0  0  0  0
 11 12  3  0  0  0  0
 13 12  1  6  0  0  0
 13 14  1  0  0  0  0
 14 15  2  0  0  0  0
 15 19  1  0  0  0  0
 16 15  1  0  0  0  0
 16 17  2  0  0  0  0
 17 18  1  0  0  0  0
 19 18  2  0  0  0  0
 20 16  1  0  0  0  0
 21 13  1  0  0  0  0
 21 20  2  0  0  0  0
 22  3  1  0  0  0  0
 23 22  1  0  0  0  0
 24 23  2  0  0  0  0
 25 26  2  0  0  0  0
 25 24  1  0  0  0  0
 26 27  1  0  0  0  0
 27 22  2  0  0  0  0
 28 31  1  0  0  0  0
 28 24  1  0  0  0  0
 28 30  1  0  0  0  0
 29 28  1  0  0  0  0
 32 25  1  0  0  0  0
 33 32  1  0  0  0  0
 33 38  1  0  0  0  0
 33 34  1  0  0  0  0
 35 34  1  0  0  0  0
 35 36  1  0  0  0  0
 37 38  1  0  0  0  0
 37 36  1  0  0  0  0
 39 36  1  0  0  0  0
M  END
>  <MODEL>
4

>  <REMARK>
 VINA RESULT:      -5.2      3.504      5.309
  Name = 8tyq
  8 active torsions:
  status: ('A' for Active; 'I' for Inactive)
    1  A    between atoms: C_3  and  C_26
    2  A    between atoms: C_5  and  C_8
    3  A    between atoms: N_10  and  C_11
    4  A    between atoms: C_13  and  C_25
    5  A    between atoms: C_14  and  C_17
    6  A    between atoms: C_17  and  N_18
    7  A    between atoms: C_26  and  C_27
    8  A    between atoms: C_27  and  C_28
                            x       y       z     vdW  Elec       q    Type
                         _______ _______ _______ _____ _____    ______ ____

>  <TORSDO>
F 8

$$$$
8tyq
 OpenBabel11072415333D

 39 43  0  0  1  0  0  0  0  0999 V2000
  159.8920  213.0490  144.0680 C   0  0  0  0  0  0  0  0  0  0  0  0
  158.8810  212.5680  144.3630 O   0  0  0  0  0  0  0  0  0  0  0  0
  160.2320  213.4060  142.6890 N   0  0  0  0  0  2  0  0  0  0  0  0
  163.4360  213.5590  148.5930 C   0  0  0  0  0  1  0  0  0  0  0  0
  162.5210  213.4630  147.3930 C   0  0  0  0  0  0  0  0  0  0  0  0
  161.7020  212.3760  147.2480 C   0  0  0  0  0  0  0  0  0  0  0  0
  160.8550  212.2500  146.1840 C   0  0  0  0  0  3  0  0  0  0  0  0
  160.8390  213.2460  145.2450 C   0  0  0  0  0  0  0  0  0  0  0  0
  161.6600  214.3420  145.3570 C   0  0  0  0  0  3  0  0  0  0  0  0
  162.5060  214.4530  146.4450 C   0  0  0  0  0  3  0  0  0  0  0  0
  161.7380  211.2980  148.3040 C   0  0  0  0  0  0  0  0  0  0  0  0
  161.7570  210.4490  149.1160 C   0  0  0  0  0  0  0  0  0  0  0  0
  161.7730  209.3700  150.1780 C   0  0  2  0  0  3  0  0  0  0  0  0
  161.3490  209.5990  151.4550 C   0  0  0  0  0  3  0  0  0  0  0  0
  161.4220  208.5690  152.2820 C   0  0  0  0  0  0  0  0  0  0  0  0
  161.8980  207.3160  151.8850 C   0  0  0  0  0  0  0  0  0  0  0  0
  161.7680  206.5930  153.0960 N   0  0  0  0  0  0  0  0  0  0  0  0
  161.3030  207.1340  154.1780 N   0  0  0  0  0  0  0  0  0  0  0  0
  161.1280  208.2600  153.6470 C   0  0  0  0  0  3  0  0  0  0  0  0
  162.3160  207.0690  150.6720 N   0  0  0  0  0  0  0  0  0  0  0  0
  162.2570  208.1010  149.7880 C   0  0  0  0  0  3  0  0  0  0  0  0
  159.2910  213.1900  141.5600 C   0  0  0  0  0  0  0  0  0  0  0  0
  159.3720  212.0470  140.8010 C   0  0  0  0  0  3  0  0  0  0  0  0
  158.5250  211.7970  139.7270 C   0  0  0  0  0  0  0  0  0  0  0  0
  157.5200  212.7340  139.3840 C   0  0  0  0  0  0  0  0  0  0  0  0
  157.4310  213.8750  140.1860 C   0  0  0  0  0  3  0  0  0  0  0  0
  158.3120  214.1100  141.2470 C   0  0  0  0  0  3  0  0  0  0  0  0
  158.7280  210.5070  138.9650 C   0  0  0  0  0  0  0  0  0  0  0  0
  159.8580  209.8930  139.3690 F   0  0  0  0  0  0  0  0  0  0  0  0
  157.6910  209.6910  139.2050 F   0  0  0  0  0  0  0  0  0  0  0  0
  158.7560  210.7940  137.6520 F   0  0  0  0  0  0  0  0  0  0  0  0
  156.5270  212.4310  138.1940 C   0  0  0  0  0  2  0  0  0  0  0  0
  155.2660  212.0350  138.4330 N   0  0  0  0  0  0  0  0  0  0  0  0
  155.0120  210.9370  137.7830 C   0  0  0  0  0  2  0  0  0  0  0  0
  153.6150  210.3500  138.0340 C   0  0  0  0  0  2  0  0  0  0  0  0
  153.4090  210.2480  139.3230 N   0  0  0  0  0  0  0  0  0  0  0  0
  153.5120  211.4550  139.7600 C   0  0  0  0  0  2  0  0  0  0  0  0
  154.9520  211.9110  139.6650 C   0  0  0  0  0  2  0  0  0  0  0  0
  152.2060  209.8270  139.5590 C   0  0  0  0  0  1  0  0  0  0  0  0
  1  2  2  0  0  0  0
  1  8  1  0  0  0  0
  3  1  1  0  0  0  0
  5  4  1  0  0  0  0
  6  5  1  0  0  0  0
  6 11  1  0  0  0  0
  7  6  2  0  0  0  0
  8  9  2  0  0  0  0
  8  7  1  0  0  0  0
  9 10  1  0  0  0  0
 10  5  2  0  0  0  0
 11 12  3  0  0  0  0
 13 12  1  1  0  0  0
 13 14  1  0  0  0  0
 14 15  2  0  0  0  0
 15 19  1  0  0  0  0
 16 15  1  0  0  0  0
 16 17  2  0  0  0  0
 17 18  1  0  0  0  0
 19 18  2  0  0  0  0
 20 16  1  0  0  0  0
 21 13  1  0  0  0  0
 21 20  2  0  0  0  0
 22  3  1  0  0  0  0
 23 22  2  0  0  0  0
 24 23  1  0  0  0  0
 25 24  2  0  0  0  0
 25 26  1  0  0  0  0
 26 27  2  0  0  0  0
 27 22  1  0  0  0  0
 28 30  1  0  0  0  0
 28 29  1  0  0  0  0
 28 24  1  0  0  0  0
 31 28  1  0  0  0  0
 32 33  1  0  0  0  0
 32 25  1  0  0  0  0
 33 38  1  0  0  0  0
 34 35  1  0  0  0  0
 34 33  1  0  0  0  0
 35 36  1  0  0  0  0
 36 39  1  0  0  0  0
 36 37  1  0  0  0  0
 38 37  1  0  0  0  0
M  END
>  <MODEL>
5

>  <REMARK>
 VINA RESULT:      -5.2      4.306      5.538
  Name = 8tyq
  8 active torsions:
  status: ('A' for Active; 'I' for Inactive)
    1  A    between atoms: C_3  and  C_26
    2  A    between atoms: C_5  and  C_8
    3  A    between atoms: N_10  and  C_11
    4  A    between atoms: C_13  and  C_25
    5  A    between atoms: C_14  and  C_17
    6  A    between atoms: C_17  and  N_18
    7  A    between atoms: C_26  and  C_27
    8  A    between atoms: C_27  and  C_28
                            x       y       z     vdW  Elec       q    Type
                         _______ _______ _______ _____ _____    ______ ____

>  <TORSDO>
F 8

$$$$
8tyq
 OpenBabel11072415333D

 39 43  0  0  1  0  0  0  0  0999 V2000
  159.9470  212.8440  143.7050 C   0  0  0  0  0  0  0  0  0  0  0  0
  159.0400  212.2040  144.0340 O   0  0  0  0  0  0  0  0  0  0  0  0
  160.2330  213.1610  142.3040 N   0  0  0  0  0  2  0  0  0  0  0  0
  163.1120  214.4530  148.2550 C   0  0  0  0  0  1  0  0  0  0  0  0
  162.3140  214.0420  147.0370 C   0  0  0  0  0  0  0  0  0  0  0  0
  161.0500  213.5410  147.1900 C   0  0  0  0  0  0  0  0  0  0  0  0
  160.2920  213.1640  146.1190 C   0  0  0  0  0  3  0  0  0  0  0  0
  160.8250  213.2960  144.8650 C   0  0  0  0  0  0  0  0  0  0  0  0
  162.0960  213.7850  144.6820 C   0  0  0  0  0  3  0  0  0  0  0  0
  162.8460  214.1660  145.7790 C   0  0  0  0  0  3  0  0  0  0  0  0
  160.4870  213.4120  148.5840 C   0  0  0  0  0  0  0  0  0  0  0  0
  160.0620  213.3180  149.6760 C   0  0  0  0  0  0  0  0  0  0  0  0
  159.5360  213.1920  151.0890 C   0  0  2  0  0  3  0  0  0  0  0  0
  160.0710  212.3170  151.9900 C   0  0  0  0  0  3  0  0  0  0  0  0
  159.5120  212.3060  153.1880 C   0  0  0  0  0  0  0  0  0  0  0  0
  158.4400  213.1370  153.5280 C   0  0  0  0  0  0  0  0  0  0  0  0
  158.2300  212.7530  154.8740 N   0  0  0  0  0  0  0  0  0  0  0  0
  158.9530  211.8500  155.4570 N   0  0  0  0  0  0  0  0  0  0  0  0
  159.6610  211.6340  154.4420 C   0  0  0  0  0  3  0  0  0  0  0  0
  157.9030  213.9800  152.6860 N   0  0  0  0  0  0  0  0  0  0  0  0
  158.4500  214.0240  151.4400 C   0  0  0  0  0  3  0  0  0  0  0  0
  159.3630  212.6930  141.1930 C   0  0  0  0  0  0  0  0  0  0  0  0
  159.7580  211.6430  140.4000 C   0  0  0  0  0  3  0  0  0  0  0  0
  158.9910  211.1720  139.3410 C   0  0  0  0  0  0  0  0  0  0  0  0
  157.7400  211.7690  139.0510 C   0  0  0  0  0  0  0  0  0  0  0  0
  157.3380  212.8130  139.8880 C   0  0  0  0  0  3  0  0  0  0  0  0
  158.1430  213.2820  140.9330 C   0  0  0  0  0  3  0  0  0  0  0  0
  159.5470  210.0180  138.5370 C   0  0  0  0  0  0  0  0  0  0  0  0
  159.5400  210.3120  137.2220 F   0  0  0  0  0  0  0  0  0  0  0  0
  160.8140  209.7940  138.9160 F   0  0  0  0  0  0  0  0  0  0  0  0
  158.8150  208.9240  138.8100 F   0  0  0  0  0  0  0  0  0  0  0  0
  156.8450  211.2040  137.8800 C   0  0  0  0  0  2  0  0  0  0  0  0
  155.6600  210.6260  138.1340 N   0  0  0  0  0  0  0  0  0  0  0  0
  155.7460  209.8790  139.1960 C   0  0  0  0  0  2  0  0  0  0  0  0
  154.4290  209.2170  139.6250 C   0  0  0  0  0  2  0  0  0  0  0  0
  153.4890  210.1260  139.7070 N   0  0  0  0  0  0  0  0  0  0  0  0
  153.4180  210.6200  138.5190 C   0  0  0  0  0  2  0  0  0  0  0  0
  154.6670  211.4240  138.2250 C   0  0  0  0  0  2  0  0  0  0  0  0
  152.3500  209.5780  139.9930 C   0  0  0  0  0  1  0  0  0  0  0  0
  1  2  2  0  0  0  0
  1  8  1  0  0  0  0
  3  1  1  0  0  0  0
  5  6  1  0  0  0  0
  5  4  1  0  0  0  0
  6 11  1  0  0  0  0
  7  6  2  0  0  0  0
  8  7  1  0  0  0  0
  9  8  2  0  0  0  0
  9 10  1  0  0  0  0
 10  5  2  0  0  0  0
 11 12  3  0  0  0  0
 13 12  1  6  0  0  0
 13 21  1  0  0  0  0
 13 14  1  0  0  0  0
 14 15  2  0  0  0  0
 15 16  1  0  0  0  0
 15 19  1  0  0  0  0
 16 17  2  0  0  0  0
 17 18  1  0  0  0  0
 19 18  2  0  0  0  0
 20 16  1  0  0  0  0
 21 20  2  0  0  0  0
 22  3  1  0  0  0  0
 23 22  2  0  0  0  0
 24 23  1  0  0  0  0
 25 24  2  0  0  0  0
 25 26  1  0  0  0  0
 26 27  2  0  0  0  0
 27 22  1  0  0  0  0
 28 31  1  0  0  0  0
 28 30  1  0  0  0  0
 28 24  1  0  0  0  0
 29 28  1  0  0  0  0
 32 33  1  0  0  0  0
 32 25  1  0  0  0  0
 33 38  1  0  0  0  0
 33 34  1  0  0  0  0
 34 35  1  0  0  0  0
 35 36  1  0  0  0  0
 36 39  1  0  0  0  0
 37 36  1  0  0  0  0
 38 37  1  0  0  0  0
M  END
>  <MODEL>
6

>  <REMARK>
 VINA RESULT:      -4.8      3.660      5.098
  Name = 8tyq
  8 active torsions:
  status: ('A' for Active; 'I' for Inactive)
    1  A    between atoms: C_3  and  C_26
    2  A    between atoms: C_5  and  C_8
    3  A    between atoms: N_10  and  C_11
    4  A    between atoms: C_13  and  C_25
    5  A    between atoms: C_14  and  C_17
    6  A    between atoms: C_17  and  N_18
    7  A    between atoms: C_26  and  C_27
    8  A    between atoms: C_27  and  C_28
                            x       y       z     vdW  Elec       q    Type
                         _______ _______ _______ _____ _____    ______ ____

>  <TORSDO>
F 8

$$$$
8tyq
 OpenBabel11072415333D

 39 43  0  0  1  0  0  0  0  0999 V2000
  161.4350  206.8970  148.8070 C   0  0  0  0  0  0  0  0  0  0  0  0
  161.5720  207.9720  148.3980 O   0  0  0  0  0  0  0  0  0  0  0  0
  161.3790  206.5910  150.2380 N   0  0  0  0  0  2  0  0  0  0  0  0
  161.1800  203.0530  144.5110 C   0  0  0  0  0  1  0  0  0  0  0  0
  161.2420  204.0290  145.6650 C   0  0  0  0  0  0  0  0  0  0  0  0
  161.3920  205.3660  145.4160 C   0  0  0  0  0  0  0  0  0  0  0  0
  161.4470  206.2830  146.4260 C   0  0  0  0  0  3  0  0  0  0  0  0
  161.3490  205.8370  147.7160 C   0  0  0  0  0  0  0  0  0  0  0  0
  161.2110  204.4990  147.9960 C   0  0  0  0  0  3  0  0  0  0  0  0
  161.1520  203.5870  146.9600 C   0  0  0  0  0  3  0  0  0  0  0  0
  161.4910  205.8280  143.9830 C   0  0  0  0  0  0  0  0  0  0  0  0
  161.5810  206.1970  142.8710 C   0  0  0  0  0  0  0  0  0  0  0  0
  161.7120  206.6870  141.4450 C   0  0  2  0  0  3  0  0  0  0  0  0
  161.2560  207.9120  141.0500 C   0  0  0  0  0  3  0  0  0  0  0  0
  161.4310  208.2100  139.7740 C   0  0  0  0  0  0  0  0  0  0  0  0
  162.0480  207.3390  138.8730 C   0  0  0  0  0  0  0  0  0  0  0  0
  161.9950  208.1090  137.6870 N   0  0  0  0  0  0  0  0  0  0  0  0
  161.4710  209.2940  137.6550 N   0  0  0  0  0  0  0  0  0  0  0  0
  161.1670  209.2900  138.8740 C   0  0  0  0  0  3  0  0  0  0  0  0
  162.4900  206.1590  139.2190 N   0  0  0  0  0  0  0  0  0  0  0  0
  162.3310  205.8110  140.5250 C   0  0  0  0  0  3  0  0  0  0  0  0
  161.4790  207.6460  151.2790 C   0  0  0  0  0  0  0  0  0  0  0  0
  161.1380  207.3700  152.5810 C   0  0  0  0  0  3  0  0  0  0  0  0
  161.2020  208.3210  153.5920 C   0  0  0  0  0  0  0  0  0  0  0  0
  161.6450  209.6350  153.3030 C   0  0  0  0  0  0  0  0  0  0  0  0
  162.0200  209.8900  151.9810 C   0  0  0  0  0  3  0  0  0  0  0  0
  161.9230  208.9180  150.9790 C   0  0  0  0  0  3  0  0  0  0  0  0
  160.7840  207.8910  154.9810 C   0  0  0  0  0  0  0  0  0  0  0  0
  159.7090  208.5940  155.3890 F   0  0  0  0  0  0  0  0  0  0  0  0
  160.4580  206.5900  154.9540 F   0  0  0  0  0  0  0  0  0  0  0  0
  161.8340  208.0550  155.8050 F   0  0  0  0  0  0  0  0  0  0  0  0
  161.7630  210.7040  154.4590 C   0  0  0  0  0  2  0  0  0  0  0  0
  160.8300  211.6570  154.6150 N   0  0  0  0  0  0  0  0  0  0  0  0
  159.8300  211.4390  153.8120 C   0  0  0  0  0  2  0  0  0  0  0  0
  158.6670  212.4320  153.9500 C   0  0  0  0  0  2  0  0  0  0  0  0
  158.3120  212.5170  155.2080 N   0  0  0  0  0  0  0  0  0  0  0  0
  159.3720  212.9280  155.8120 C   0  0  0  0  0  2  0  0  0  0  0  0
  160.4180  211.8320  155.8110 C   0  0  0  0  0  2  0  0  0  0  0  0
  157.3820  213.4080  155.3590 C   0  0  0  0  0  1  0  0  0  0  0  0
  1  3  1  0  0  0  0
  2  1  2  0  0  0  0
  3 22  1  0  0  0  0
  4  5  1  0  0  0  0
  5 10  1  0  0  0  0
  6  5  2  0  0  0  0
  6  7  1  0  0  0  0
  7  8  2  0  0  0  0
  8  9  1  0  0  0  0
  8  1  1  0  0  0  0
 10  9  2  0  0  0  0
 11  6  1  0  0  0  0
 12 11  3  0  0  0  0
 13 12  1  6  0  0  0
 14 13  1  0  0  0  0
 15 14  2  0  0  0  0
 16 20  1  0  0  0  0
 16 15  1  0  0  0  0
 17 16  2  0  0  0  0
 18 17  1  0  0  0  0
 18 19  2  0  0  0  0
 19 15  1  0  0  0  0
 20 21  2  0  0  0  0
 21 13  1  0  0  0  0
 22 23  1  0  0  0  0
 23 24  2  0  0  0  0
 24 28  1  0  0  0  0
 25 24  1  0  0  0  0
 25 32  1  0  0  0  0
 26 25  2  0  0  0  0
 27 22  2  0  0  0  0
 27 26  1  0  0  0  0
 28 29  1  0  0  0  0
 28 31  1  0  0  0  0
 30 28  1  0  0  0  0
 32 33  1  0  0  0  0
 33 38  1  0  0  0  0
 34 35  1  0  0  0  0
 34 33  1  0  0  0  0
 35 36  1  0  0  0  0
 36 39  1  0  0  0  0
 36 37  1  0  0  0  0
 38 37  1  0  0  0  0
M  END
>  <MODEL>
7

>  <REMARK>
 VINA RESULT:      -4.7      5.847     13.673
  Name = 8tyq
  8 active torsions:
  status: ('A' for Active; 'I' for Inactive)
    1  A    between atoms: C_3  and  C_26
    2  A    between atoms: C_5  and  C_8
    3  A    between atoms: N_10  and  C_11
    4  A    between atoms: C_13  and  C_25
    5  A    between atoms: C_14  and  C_17
    6  A    between atoms: C_17  and  N_18
    7  A    between atoms: C_26  and  C_27
    8  A    between atoms: C_27  and  C_28
                            x       y       z     vdW  Elec       q    Type
                         _______ _______ _______ _____ _____    ______ ____

>  <TORSDO>
F 8

$$$$
8tyq
 OpenBabel11072415333D

 39 43  0  0  1  0  0  0  0  0999 V2000
  161.6250  206.2310  152.5920 C   0  0  0  0  0  0  0  0  0  0  0  0
  162.4350  205.4070  152.6640 O   0  0  0  0  0  0  0  0  0  0  0  0
  160.8070  206.4420  151.3940 N   0  0  0  0  0  2  0  0  0  0  0  0
  160.9850  209.5610  157.2610 C   0  0  0  0  0  1  0  0  0  0  0  0
  161.1850  208.6680  156.0560 C   0  0  0  0  0  0  0  0  0  0  0  0
  160.3770  208.8140  154.9610 C   0  0  0  0  0  0  0  0  0  0  0  0
  160.5260  208.0350  153.8500 C   0  0  0  0  0  3  0  0  0  0  0  0
  161.5130  207.0870  153.8470 C   0  0  0  0  0  0  0  0  0  0  0  0
  162.3310  206.9100  154.9370 C   0  0  0  0  0  3  0  0  0  0  0  0
  162.1680  207.7120  156.0500 C   0  0  0  0  0  3  0  0  0  0  0  0
  159.3020  209.8720  154.9910 C   0  0  0  0  0  0  0  0  0  0  0  0
  158.4550  210.6870  155.0060 C   0  0  0  0  0  0  0  0  0  0  0  0
  157.3550  211.7260  155.0070 C   0  0  2  0  0  3  0  0  0  0  0  0
  156.5430  211.9260  156.0870 C   0  0  0  0  0  3  0  0  0  0  0  0
  155.6200  212.8640  155.9500 C   0  0  0  0  0  0  0  0  0  0  0  0
  155.4750  213.6150  154.7800 C   0  0  0  0  0  0  0  0  0  0  0  0
  154.3910  214.4510  155.1400 N   0  0  0  0  0  0  0  0  0  0  0  0
  153.8220  214.3840  156.3030 N   0  0  0  0  0  0  0  0  0  0  0  0
  154.5670  213.4590  156.7130 C   0  0  0  0  0  3  0  0  0  0  0  0
  156.2330  213.4420  153.7290 N   0  0  0  0  0  0  0  0  0  0  0  0
  157.1980  212.4880  153.8280 C   0  0  0  0  0  3  0  0  0  0  0  0
  160.9490  205.5970  150.1800 C   0  0  0  0  0  0  0  0  0  0  0  0
  161.2380  206.1720  148.9660 C   0  0  0  0  0  3  0  0  0  0  0  0
  161.3710  205.4330  147.7970 C   0  0  0  0  0  0  0  0  0  0  0  0
  161.2200  204.0250  147.8270 C   0  0  0  0  0  0  0  0  0  0  0  0
  160.9590  203.4520  149.0750 C   0  0  0  0  0  3  0  0  0  0  0  0
  160.8080  204.2250  150.2330 C   0  0  0  0  0  3  0  0  0  0  0  0
  161.6770  206.1900  146.5250 C   0  0  0  0  0  0  0  0  0  0  0  0
  160.6050  206.1940  145.7070 F   0  0  0  0  0  0  0  0  0  0  0  0
  161.9800  207.4600  146.8350 F   0  0  0  0  0  0  0  0  0  0  0  0
  162.7480  205.6210  145.9440 F   0  0  0  0  0  0  0  0  0  0  0  0
  161.4180  203.1780  146.5100 C   0  0  0  0  0  2  0  0  0  0  0  0
  161.0010  201.9030  146.4410 N   0  0  0  0  0  0  0  0  0  0  0  0
  160.5350  201.6490  145.2530 C   0  0  0  0  0  2  0  0  0  0  0  0
  160.0890  200.1950  145.0350 C   0  0  0  0  0  2  0  0  0  0  0  0
  161.0510  199.3840  145.3990 N   0  0  0  0  0  0  0  0  0  0  0  0
  161.2400  199.6500  146.6450 C   0  0  0  0  0  2  0  0  0  0  0  0
  161.8610  201.0240  146.7850 C   0  0  0  0  0  2  0  0  0  0  0  0
  160.6680  198.1500  145.2960 C   0  0  0  0  0  1  0  0  0  0  0  0
  1  2  2  0  0  0  0
  1  8  1  0  0  0  0
  3  1  1  0  0  0  0
  5  4  1  0  0  0  0
  6 11  1  0  0  0  0
  6  5  2  0  0  0  0
  7  6  1  0  0  0  0
  8  7  2  0  0  0  0
  8  9  1  0  0  0  0
  9 10  2  0  0  0  0
 10  5  1  0  0  0  0
 11 12  3  0  0  0  0
 13 12  1  6  0  0  0
 13 14  1  0  0  0  0
 15 14  2  0  0  0  0
 15 19  1  0  0  0  0
 16 17  2  0  0  0  0
 16 15  1  0  0  0  0
 17 18  1  0  0  0  0
 18 19  2  0  0  0  0
 20 21  2  0  0  0  0
 20 16  1  0  0  0  0
 21 13  1  0  0  0  0
 22 27  1  0  0  0  0
 22  3  1  0  0  0  0
 23 22  2  0  0  0  0
 24 25  2  0  0  0  0
 24 23  1  0  0  0  0
 25 26  1  0  0  0  0
 26 27  2  0  0  0  0
 28 30  1  0  0  0  0
 28 24  1  0  0  0  0
 29 28  1  0  0  0  0
 31 28  1  0  0  0  0
 32 25  1  0  0  0  0
 33 32  1  0  0  0  0
 33 38  1  0  0  0  0
 34 33  1  0  0  0  0
 35 34  1  0  0  0  0
 35 36  1  0  0  0  0
 36 37  1  0  0  0  0
 37 38  1  0  0  0  0
 39 36  1  0  0  0  0
M  END
>  <MODEL>
8

>  <REMARK>
 VINA RESULT:      -4.1      7.179      9.585
  Name = 8tyq
  8 active torsions:
  status: ('A' for Active; 'I' for Inactive)
    1  A    between atoms: C_3  and  C_26
    2  A    between atoms: C_5  and  C_8
    3  A    between atoms: N_10  and  C_11
    4  A    between atoms: C_13  and  C_25
    5  A    between atoms: C_14  and  C_17
    6  A    between atoms: C_17  and  N_18
    7  A    between atoms: C_26  and  C_27
    8  A    between atoms: C_27  and  C_28
                            x       y       z     vdW  Elec       q    Type
                         _______ _______ _______ _____ _____    ______ ____

>  <TORSDO>
F 8

$$$$
8tyq
 OpenBabel11072415333D

 39 43  0  0  1  0  0  0  0  0999 V2000
  161.3830  206.0150  149.1570 C   0  0  0  0  0  0  0  0  0  0  0  0
  161.9950  206.9660  148.9120 O   0  0  0  0  0  0  0  0  0  0  0  0
  160.8410  205.7380  150.4900 N   0  0  0  0  0  2  0  0  0  0  0  0
  160.8620  202.6230  144.5180 C   0  0  0  0  0  1  0  0  0  0  0  0
  160.9900  203.4780  145.7590 C   0  0  0  0  0  0  0  0  0  0  0  0
  161.2690  204.8130  145.6380 C   0  0  0  0  0  0  0  0  0  0  0  0
  161.3880  205.6240  146.7300 C   0  0  0  0  0  3  0  0  0  0  0  0
  161.2210  205.0730  147.9710 C   0  0  0  0  0  0  0  0  0  0  0  0
  160.9530  203.7330  148.1230 C   0  0  0  0  0  3  0  0  0  0  0  0
  160.8310  202.9300  147.0060 C   0  0  0  0  0  3  0  0  0  0  0  0
  161.4410  205.3930  144.2560 C   0  0  0  0  0  0  0  0  0  0  0  0
  161.5830  205.8320  143.1750 C   0  0  0  0  0  0  0  0  0  0  0  0
  161.7650  206.3770  141.7740 C   0  0  2  0  0  3  0  0  0  0  0  0
  161.4030  207.6480  141.4340 C   0  0  0  0  0  3  0  0  0  0  0  0
  161.6140  207.9920  140.1750 C   0  0  0  0  0  0  0  0  0  0  0  0
  162.1770  207.1200  139.2380 C   0  0  0  0  0  0  0  0  0  0  0  0
  162.1920  207.9460  138.0900 N   0  0  0  0  0  0  0  0  0  0  0  0
  161.7560  209.1670  138.1090 N   0  0  0  0  0  0  0  0  0  0  0  0
  161.4380  209.1280  139.3240 C   0  0  0  0  0  3  0  0  0  0  0  0
  162.5280  205.8960  139.5330 N   0  0  0  0  0  0  0  0  0  0  0  0
  162.3300  205.5010  140.8200 C   0  0  0  0  0  3  0  0  0  0  0  0
  161.0260  206.6710  151.6300 C   0  0  0  0  0  0  0  0  0  0  0  0
  161.3720  207.9820  151.4030 C   0  0  0  0  0  3  0  0  0  0  0  0
  161.5690  208.8960  152.4310 C   0  0  0  0  0  0  0  0  0  0  0  0
  161.4020  208.4950  153.7790 C   0  0  0  0  0  0  0  0  0  0  0  0
  161.0170  207.1680  153.9910 C   0  0  0  0  0  3  0  0  0  0  0  0
  160.8480  206.2630  152.9360 C   0  0  0  0  0  3  0  0  0  0  0  0
  161.9610  210.3050  152.0450 C   0  0  0  0  0  0  0  0  0  0  0  0
  163.1240  210.6490  152.6330 F   0  0  0  0  0  0  0  0  0  0  0  0
  162.1230  210.3630  150.7150 F   0  0  0  0  0  0  0  0  0  0  0  0
  160.9590  211.1300  152.3940 F   0  0  0  0  0  0  0  0  0  0  0  0
  161.5780  209.5430  154.9460 C   0  0  0  0  0  2  0  0  0  0  0  0
  160.5120  210.0390  155.5940 N   0  0  0  0  0  0  0  0  0  0  0  0
  160.8330  211.1440  156.2010 C   0  0  0  0  0  2  0  0  0  0  0  0
  159.6700  211.8420  156.9230 C   0  0  0  0  0  2  0  0  0  0  0  0
  158.6620  211.9780  156.0980 N   0  0  0  0  0  0  0  0  0  0  0  0
  158.3650  210.7720  155.7550 C   0  0  0  0  0  2  0  0  0  0  0  0
  159.4640  210.2040  154.8830 C   0  0  0  0  0  2  0  0  0  0  0  0
  157.6420  212.4950  156.7090 C   0  0  0  0  0  1  0  0  0  0  0  0
  1  3  1  0  0  0  0
  2  1  2  0  0  0  0
  3 22  1  0  0  0  0
  4  5  1  0  0  0  0
  5 10  1  0  0  0  0
  6  5  2  0  0  0  0
  6  7  1  0  0  0  0
  7  8  2  0  0  0  0
  8  9  1  0  0  0  0
  8  1  1  0  0  0  0
 10  9  2  0  0  0  0
 11  6  1  0  0  0  0
 12 11  3  0  0  0  0
 13 12  1  6  0  0  0
 14 13  1  0  0  0  0
 15 14  2  0  0  0  0
 16 20  1  0  0  0  0
 16 15  1  0  0  0  0
 17 18  1  0  0  0  0
 17 16  2  0  0  0  0
 18 19  2  0  0  0  0
 19 15  1  0  0  0  0
 20 21  2  0  0  0  0
 21 13  1  0  0  0  0
 22 27  1  0  0  0  0
 23 22  2  0  0  0  0
 23 24  1  0  0  0  0
 24 25  2  0  0  0  0
 25 26  1  0  0  0  0
 25 32  1  0  0  0  0
 27 26  2  0  0  0  0
 28 31  1  0  0  0  0
 28 24  1  0  0  0  0
 28 29  1  0  0  0  0
 30 28  1  0  0  0  0
 32 33  1  0  0  0  0
 33 34  1  0  0  0  0
 34 35  1  0  0  0  0
 36 39  1  0  0  0  0
 36 35  1  0  0  0  0
 37 36  1  0  0  0  0
 38 33  1  0  0  0  0
 38 37  1  0  0  0  0
M  END
>  <MODEL>
9

>  <REMARK>
 VINA RESULT:      -3.1      5.450     13.679
  Name = 8tyq
  8 active torsions:
  status: ('A' for Active; 'I' for Inactive)
    1  A    between atoms: C_3  and  C_26
    2  A    between atoms: C_5  and  C_8
    3  A    between atoms: N_10  and  C_11
    4  A    between atoms: C_13  and  C_25
    5  A    between atoms: C_14  and  C_17
    6  A    between atoms: C_17  and  N_18
    7  A    between atoms: C_26  and  C_27
    8  A    between atoms: C_27  and  C_28
                            x       y       z     vdW  Elec       q    Type
                         _______ _______ _______ _____ _____    ______ ____

>  <TORSDO>
F 8

$$$$
