8tzc
 OpenBabel11072415323D

 28 32  0  0  1  0  0  0  0  0999 V2000
  161.6520  206.4150  150.0090 N   0  0  0  0  0  0  0  0  0  0  0  0
  161.5630  208.0630  151.5460 N   0  0  0  0  0  0  0  0  0  0  0  0
  161.2250  207.2660  152.4210 C   0  0  0  0  0  0  0  0  0  0  0  0
  161.0610  205.9970  152.2260 C   0  0  0  0  0  3  0  0  0  0  0  0
  161.2750  205.5370  150.9800 C   0  0  0  0  0  0  0  0  0  0  0  0
  161.7780  207.6840  150.3660 C   0  0  0  0  0  3  0  0  0  0  0  0
  162.1460  210.7150  155.4650 C   0  0  0  0  0  1  0  0  0  0  0  0
  161.0080  207.7800  153.7090 N   0  0  0  0  0  0  0  0  0  0  0  0
  161.1710  208.7530  156.1280 O   0  0  0  0  0  0  0  0  0  0  0  0
  161.0850  209.7070  155.2100 C   0  0  2  0  0  3  0  0  0  0  0  0
  161.1890  209.1890  153.8260 C   0  0  0  0  0  2  0  0  0  0  0  0
  160.6360  206.9490  154.8140 C   0  0  0  0  0  2  0  0  0  0  0  0
  160.2490  207.8100  155.9570 C   0  0  1  0  0  3  0  0  0  0  0  0
  160.0810  207.0920  157.2610 C   0  0  0  0  0  1  0  0  0  0  0  0
  160.9600  203.4490  151.6780 N   0  0  0  0  0  0  0  0  0  0  0  0
  160.8290  202.2580  151.1760 N   0  0  0  0  0  0  0  0  0  0  0  0
  161.0920  204.0830  150.7430 C   0  0  0  0  0  0  0  0  0  0  0  0
  160.9040  202.2740  149.7790 C   0  0  0  0  0  0  0  0  0  0  0  0
  160.8320  201.3660  148.8200 C   0  0  0  0  0  2  0  0  0  0  0  0
  160.9520  201.7830  147.5910 C   0  0  0  0  0  3  0  0  0  0  0  0
  161.1370  203.0680  147.3030 C   0  0  0  0  0  0  0  0  0  0  0  0
  161.1970  203.9540  148.2930 C   0  0  0  0  0  3  0  0  0  0  0  0
  161.0910  203.5970  149.5260 C   0  0  0  0  0  0  0  0  0  0  0  0
  161.2480  203.4100  145.9500 O   0  0  0  0  0  0  0  0  0  0  0  0
  161.8220  204.5770  145.5760 C   0  0  0  0  0  0  0  0  0  0  0  0
  163.3180  204.7030  145.7010 C   0  0  0  0  0  1  0  0  0  0  0  0
  161.0220  205.8270  145.3540 C   0  0  0  0  0  2  0  0  0  0  0  0
  161.1960  204.8440  144.2470 C   0  0  0  0  0  2  0  0  0  0  0  0
  1  6  2  0  0  0  0
  1  5  1  0  0  0  0
  2  3  2  0  0  0  0
  3  8  1  0  0  0  0
  4  3  1  0  0  0  0
  5  4  2  0  0  0  0
  6  2  1  0  0  0  0
  8 11  1  0  0  0  0
  8 12  1  0  0  0  0
 10  7  1  1  0  0  0
 10  9  1  0  0  0  0
 11 10  1  0  0  0  0
 12 13  1  0  0  0  0
 13  9  1  0  0  0  0
 13 14  1  1  0  0  0
 16 15  1  0  0  0  0
 17  5  1  0  0  0  0
 17 15  2  0  0  0  0
 18 16  2  0  0  0  0
 19 18  1  0  0  0  0
 20 19  1  0  0  0  0
 21 20  2  0  0  0  0
 21 22  1  0  0  0  0
 22 23  2  0  0  0  0
 23 18  1  0  0  0  0
 23 17  1  0  0  0  0
 24 21  1  0  0  0  0
 25 26  1  0  0  0  0
 25 24  1  0  0  0  0
 27 25  1  0  0  0  0
 28 27  1  0  0  0  0
 28 25  1  0  0  0  0
M  END
>  <MODEL>
1

>  <REMARK>
 VINA RESULT:     -10.8      0.000      0.000
  Name = 8tzc
  3 active torsions:
  status: ('A' for Active; 'I' for Inactive)
    1  A    between atoms: C_5  and  C_9
    2  A    between atoms: C_13  and  O_16
    3  A    between atoms: O_16  and  C_17
                            x       y       z     vdW  Elec       q    Type
                         _______ _______ _______ _____ _____    ______ ____

>  <TORSDO>
F 3

$$$$
8tzc
 OpenBabel11072415323D

 28 32  0  0  1  0  0  0  0  0999 V2000
  162.0290  208.2320  150.2060 N   0  0  0  0  0  0  0  0  0  0  0  0
  162.1300  207.5040  148.0740 N   0  0  0  0  0  0  0  0  0  0  0  0
  161.8200  206.3640  148.4200 C   0  0  0  0  0  0  0  0  0  0  0  0
  161.5820  206.0130  149.6430 C   0  0  0  0  0  3  0  0  0  0  0  0
  161.6880  206.9680  150.5840 C   0  0  0  0  0  0  0  0  0  0  0  0
  162.2400  208.4330  148.9150 C   0  0  0  0  0  3  0  0  0  0  0  0
  161.1410  205.5130  143.8570 C   0  0  0  0  0  1  0  0  0  0  0  0
  161.7200  205.3920  147.4120 N   0  0  0  0  0  0  0  0  0  0  0  0
  161.0430  203.8440  145.4190 O   0  0  0  0  0  0  0  0  0  0  0  0
  161.7900  204.8680  145.0270 C   0  0  2  0  0  3  0  0  0  0  0  0
  162.0210  205.8610  146.1010 C   0  0  0  0  0  2  0  0  0  0  0  0
  161.3420  204.0380  147.6870 C   0  0  0  0  0  2  0  0  0  0  0  0
  161.5640  203.2190  146.4710 C   0  0  1  0  0  3  0  0  0  0  0  0
  160.9790  201.8410  146.5220 C   0  0  0  0  0  1  0  0  0  0  0  0
  161.5010  205.4670  152.2160 N   0  0  0  0  0  0  0  0  0  0  0  0
  161.2160  205.4290  153.4820 N   0  0  0  0  0  0  0  0  0  0  0  0
  161.4170  206.5790  151.9920 C   0  0  0  0  0  0  0  0  0  0  0  0
  160.9430  206.7030  153.9900 C   0  0  0  0  0  0  0  0  0  0  0  0
  160.6140  207.1970  155.1730 C   0  0  0  0  0  3  0  0  0  0  0  0
  160.4360  208.4840  155.2550 C   0  0  0  0  0  3  0  0  0  0  0  0
  160.5800  209.2800  154.1990 C   0  0  0  0  0  0  0  0  0  0  0  0
  160.9190  208.7490  153.0270 C   0  0  0  0  0  3  0  0  0  0  0  0
  161.1010  207.4810  152.8880 C   0  0  1  0  0  3  0  0  0  0  0  0
  160.3730  210.6500  154.3970 O   0  0  0  0  0  0  0  0  0  0  0  0
  159.1560  211.2030  154.1870 C   0  0  0  0  0  0  0  0  0  0  0  0
  158.1190  211.0690  155.2710 C   0  0  0  0  0  1  0  0  0  0  0  0
  158.7050  211.6490  152.8270 C   0  0  0  0  0  2  0  0  0  0  0  0
  159.4950  212.5710  153.6930 C   0  0  0  0  0  2  0  0  0  0  0  0
  1  5  1  0  0  0  0
  2  3  2  0  0  0  0
  2  6  1  0  0  0  0
  3  4  1  0  0  0  0
  4  5  2  0  0  0  0
  5 17  1  0  0  0  0
  6  1  2  0  0  0  0
  8 12  1  0  0  0  0
  8  3  1  0  0  0  0
  9 13  1  0  0  0  0
 10  7  1  6  0  0  0
 10  9  1  0  0  0  0
 10 11  1  0  0  0  0
 11  8  1  0  0  0  0
 13 14  1  1  0  0  0
 13 12  1  0  0  0  0
 15 16  1  0  0  0  0
 16 18  2  0  0  0  0
 17 15  2  0  0  0  0
 17 23  1  0  0  0  0
 18 19  1  0  0  0  0
 19 20  2  0  0  0  0
 21 24  1  0  0  0  0
 21 20  1  0  0  0  0
 22 21  2  0  0  0  0
 23 22  1  1  0  0  0
 23 18  1  0  0  0  0
 25 24  1  0  0  0  0
 25 26  1  0  0  0  0
 27 28  1  0  0  0  0
 27 25  1  0  0  0  0
 28 25  1  0  0  0  0
M  END
>  <MODEL>
2

>  <REMARK>
 VINA RESULT:      -9.7      1.863      8.380
  Name = 8tzc
  3 active torsions:
  status: ('A' for Active; 'I' for Inactive)
    1  A    between atoms: C_5  and  C_9
    2  A    between atoms: C_13  and  O_16
    3  A    between atoms: O_16  and  C_17
                            x       y       z     vdW  Elec       q    Type
                         _______ _______ _______ _____ _____    ______ ____

>  <TORSDO>
F 3

$$$$
8tzc
 OpenBabel11072415323D

 28 32  0  0  1  0  0  0  0  0999 V2000
  161.7930  208.5800  150.2260 N   0  0  0  0  0  0  0  0  0  0  0  0
  161.8800  207.4350  148.2860 N   0  0  0  0  0  0  0  0  0  0  0  0
  161.6260  206.3790  148.8660 C   0  0  0  0  0  0  0  0  0  0  0  0
  161.4300  206.2780  150.1420 C   0  0  0  0  0  3  0  0  0  0  0  0
  161.5160  207.4080  150.8640 C   0  0  0  0  0  0  0  0  0  0  0  0
  161.9680  208.5200  148.9150 C   0  0  0  0  0  3  0  0  0  0  0  0
  160.8860  204.5840  144.5950 C   0  0  0  0  0  1  0  0  0  0  0  0
  161.5470  205.2180  148.0820 N   0  0  0  0  0  0  0  0  0  0  0  0
  160.8940  203.2690  146.4680 O   0  0  0  0  0  0  0  0  0  0  0  0
  161.5880  204.2180  145.8520 C   0  0  2  0  0  3  0  0  0  0  0  0
  161.7990  205.4190  146.6930 C   0  0  0  0  0  2  0  0  0  0  0  0
  161.2340  203.9360  148.6380 C   0  0  0  0  0  2  0  0  0  0  0  0
  161.4650  202.8930  147.6090 C   0  0  1  0  0  3  0  0  0  0  0  0
  160.9410  201.5340  147.9570 C   0  0  0  0  0  1  0  0  0  0  0  0
  161.4770  206.2800  152.7810 N   0  0  0  0  0  0  0  0  0  0  0  0
  161.2070  206.4880  154.0340 N   0  0  0  0  0  0  0  0  0  0  0  0
  161.2920  207.3070  152.3290 C   0  0  0  0  0  0  0  0  0  0  0  0
  160.8260  207.8130  154.2690 C   0  0  0  0  0  0  0  0  0  0  0  0
  160.4650  208.5170  155.3280 C   0  0  0  0  0  3  0  0  0  0  0  0
  160.1740  209.7730  155.1420 C   0  0  0  0  0  3  0  0  0  0  0  0
  160.2380  210.3350  153.9370 C   0  0  0  0  0  0  0  0  0  0  0  0
  160.6120  209.5980  152.8960 C   0  0  0  0  0  3  0  0  0  0  0  0
  160.9060  208.3490  153.0220 C   0  0  1  0  0  3  0  0  0  0  0  0
  159.9110  211.6920  153.8470 O   0  0  0  0  0  0  0  0  0  0  0  0
  158.7120  212.0850  153.3570 C   0  0  0  0  0  0  0  0  0  0  0  0
  157.4720  211.6940  154.1180 C   0  0  0  0  0  1  0  0  0  0  0  0
  158.5500  212.5990  151.9560 C   0  0  0  0  0  2  0  0  0  0  0  0
  158.9340  213.5310  153.0550 C   0  0  0  0  0  2  0  0  0  0  0  0
  1  5  1  0  0  0  0
  2  3  2  0  0  0  0
  2  6  1  0  0  0  0
  3  4  1  0  0  0  0
  4  5  2  0  0  0  0
  5 17  1  0  0  0  0
  6  1  2  0  0  0  0
  8 12  1  0  0  0  0
  8  3  1  0  0  0  0
  9 13  1  0  0  0  0
 10  7  1  6  0  0  0
 10  9  1  0  0  0  0
 10 11  1  0  0  0  0
 11  8  1  0  0  0  0
 13 14  1  1  0  0  0
 13 12  1  0  0  0  0
 15 16  1  0  0  0  0
 16 18  2  0  0  0  0
 17 15  2  0  0  0  0
 17 23  1  0  0  0  0
 18 19  1  0  0  0  0
 20 19  2  0  0  0  0
 21 20  1  0  0  0  0
 22 21  2  0  0  0  0
 23 22  1  1  0  0  0
 23 18  1  0  0  0  0
 24 21  1  0  0  0  0
 25 24  1  0  0  0  0
 25 26  1  0  0  0  0
 27 28  1  0  0  0  0
 27 25  1  0  0  0  0
 28 25  1  0  0  0  0
M  END
>  <MODEL>
3

>  <REMARK>
 VINA RESULT:      -9.6      2.160      8.391
  Name = 8tzc
  3 active torsions:
  status: ('A' for Active; 'I' for Inactive)
    1  A    between atoms: C_5  and  C_9
    2  A    between atoms: C_13  and  O_16
    3  A    between atoms: O_16  and  C_17
                            x       y       z     vdW  Elec       q    Type
                         _______ _______ _______ _____ _____    ______ ____

>  <TORSDO>
F 3

$$$$
8tzc
 OpenBabel11072415323D

 28 32  0  0  1  0  0  0  0  0999 V2000
  161.2510  204.6530  150.9040 N   0  0  0  0  0  0  0  0  0  0  0  0
  161.2040  205.3060  153.0620 N   0  0  0  0  0  0  0  0  0  0  0  0
  161.1770  206.4910  152.7310 C   0  0  0  0  0  0  0  0  0  0  0  0
  161.1830  206.9060  151.5040 C   0  0  0  0  0  3  0  0  0  0  0  0
  161.2250  205.9670  150.5430 C   0  0  0  0  0  0  0  0  0  0  0  0
  161.2410  204.3890  152.2020 C   0  0  0  0  0  3  0  0  0  0  0  0
  160.0670  207.3810  157.2010 C   0  0  0  0  0  1  0  0  0  0  0  0
  161.1370  207.4460  153.7600 N   0  0  0  0  0  0  0  0  0  0  0  0
  160.5170  209.0630  155.7160 O   0  0  0  0  0  0  0  0  0  0  0  0
  160.9850  207.9020  156.1560 C   0  0  2  0  0  3  0  0  0  0  0  0
  161.1570  206.9010  155.0770 C   0  0  0  0  0  2  0  0  0  0  0  0
  161.0780  208.8520  153.5000 C   0  0  0  0  0  2  0  0  0  0  0  0
  161.2900  209.5880  154.7700 C   0  0  1  0  0  3  0  0  0  0  0  0
  161.0040  211.0560  154.7060 C   0  0  0  0  0  1  0  0  0  0  0  0
  161.1010  207.5480  148.9830 N   0  0  0  0  0  0  0  0  0  0  0  0
  161.1420  207.6520  147.6890 N   0  0  0  0  0  0  0  0  0  0  0  0
  161.2300  206.4270  149.1310 C   0  0  0  0  0  0  0  0  0  0  0  0
  161.3150  206.4060  147.0750 C   0  0  1  0  0  3  0  0  0  0  0  0
  161.4190  205.9760  145.8290 C   0  0  0  0  0  3  0  0  0  0  0  0
  161.5780  204.6960  145.6490 C   0  0  0  0  0  3  0  0  0  0  0  0
  161.6370  203.8470  146.6730 C   0  0  0  0  0  0  0  0  0  0  0  0
  161.5360  204.3170  147.9130 C   0  0  0  0  0  3  0  0  0  0  0  0
  161.3720  205.5740  148.1470 C   0  0  0  0  0  0  0  0  0  0  0  0
  161.8170  202.4930  146.3710 O   0  0  0  0  0  0  0  0  0  0  0  0
  160.7890  201.6190  146.4700 C   0  0  0  0  0  0  0  0  0  0  0  0
  159.9240  201.3990  145.2560 C   0  0  0  0  0  1  0  0  0  0  0  0
  160.2890  201.1200  147.7950 C   0  0  0  0  0  2  0  0  0  0  0  0
  161.4230  200.4310  147.1160 C   0  0  0  0  0  2  0  0  0  0  0  0
  1  6  1  0  0  0  0
  3  2  1  0  0  0  0
  3  8  1  0  0  0  0
  4  3  2  0  0  0  0
  5  1  2  0  0  0  0
  5  4  1  0  0  0  0
  6  2  2  0  0  0  0
  8 11  1  0  0  0  0
  9 10  1  0  0  0  0
 10  7  1  1  0  0  0
 11 10  1  0  0  0  0
 12  8  1  0  0  0  0
 12 13  1  0  0  0  0
 13 14  1  6  0  0  0
 13  9  1  0  0  0  0
 15 17  1  0  0  0  0
 16 15  2  0  0  0  0
 17  5  1  0  0  0  0
 18 19  1  1  0  0  0
 18 16  1  0  0  0  0
 18 23  1  0  0  0  0
 20 19  2  0  0  0  0
 20 21  1  0  0  0  0
 21 22  2  0  0  0  0
 22 23  1  0  0  0  0
 23 17  2  0  0  0  0
 24 25  1  0  0  0  0
 24 21  1  0  0  0  0
 25 28  1  0  0  0  0
 25 27  1  0  0  0  0
 26 25  1  0  0  0  0
 28 27  1  0  0  0  0
M  END
>  <MODEL>
4

>  <REMARK>
 VINA RESULT:      -9.3      1.335      3.461
  Name = 8tzc
  3 active torsions:
  status: ('A' for Active; 'I' for Inactive)
    1  A    between atoms: C_5  and  C_9
    2  A    between atoms: C_13  and  O_16
    3  A    between atoms: O_16  and  C_17
                            x       y       z     vdW  Elec       q    Type
                         _______ _______ _______ _____ _____    ______ ____

>  <TORSDO>
F 3

$$$$
8tzc
 OpenBabel11072415323D

 28 32  0  0  1  0  0  0  0  0999 V2000
  161.5960  206.9920  152.7280 N   0  0  0  0  0  0  0  0  0  0  0  0
  160.6790  208.4370  154.1970 N   0  0  0  0  0  0  0  0  0  0  0  0
  160.5040  209.2710  153.3100 C   0  0  0  0  0  0  0  0  0  0  0  0
  160.8320  209.0950  152.0690 C   0  0  0  0  0  3  0  0  0  0  0  0
  161.4020  207.9210  151.7490 C   0  0  0  0  0  0  0  0  0  0  0  0
  161.2060  207.3220  153.9500 C   0  0  0  0  0  3  0  0  0  0  0  0
  157.7810  211.5150  156.4010 C   0  0  0  0  0  1  0  0  0  0  0  0
  159.9080  210.4880  153.6790 N   0  0  0  0  0  0  0  0  0  0  0  0
  158.3220  212.4420  154.3810 O   0  0  0  0  0  0  0  0  0  0  0  0
  158.8590  211.8320  155.4290 C   0  0  2  0  0  3  0  0  0  0  0  0
  159.6020  210.6030  155.0660 C   0  0  0  0  0  2  0  0  0  0  0  0
  159.6300  211.5250  152.7320 C   0  0  0  0  0  2  0  0  0  0  0  0
  159.2330  212.7520  153.4620 C   0  0  1  0  0  3  0  0  0  0  0  0
  158.6680  213.8430  152.6060 C   0  0  0  0  0  1  0  0  0  0  0  0
  162.3310  208.5700  149.8350 N   0  0  0  0  0  0  0  0  0  0  0  0
  162.5260  208.1100  148.6360 N   0  0  0  0  0  0  0  0  0  0  0  0
  161.7820  207.7050  150.3300 C   0  0  0  0  0  0  0  0  0  0  0  0
  162.0020  206.8210  148.4840 C   0  0  1  0  0  3  0  0  0  0  0  0
  161.9390  205.9380  147.5010 C   0  0  0  0  0  3  0  0  0  0  0  0
  161.3500  204.8040  147.7530 C   0  0  0  0  0  3  0  0  0  0  0  0
  160.8310  204.5350  148.9480 C   0  0  0  0  0  0  0  0  0  0  0  0
  160.9200  205.4430  149.9150 C   0  0  0  0  0  3  0  0  0  0  0  0
  161.4870  206.5840  149.7190 C   0  0  0  0  0  0  0  0  0  0  0  0
  160.2250  203.2840  149.1150 O   0  0  0  0  0  0  0  0  0  0  0  0
  160.8700  202.2830  149.7570 C   0  0  0  0  0  0  0  0  0  0  0  0
  161.2300  202.4850  151.2060 C   0  0  0  0  0  1  0  0  0  0  0  0
  161.5110  201.1430  149.0210 C   0  0  0  0  0  2  0  0  0  0  0  0
  160.0670  201.0790  149.3860 C   0  0  0  0  0  2  0  0  0  0  0  0
  1  6  1  0  0  0  0
  3  8  1  0  0  0  0
  3  2  1  0  0  0  0
  4  3  2  0  0  0  0
  5  4  1  0  0  0  0
  5  1  2  0  0  0  0
  6  2  2  0  0  0  0
  8 11  1  0  0  0  0
  9 10  1  0  0  0  0
 10  7  1  1  0  0  0
 11 10  1  0  0  0  0
 12 13  1  0  0  0  0
 12  8  1  0  0  0  0
 13 14  1  6  0  0  0
 13  9  1  0  0  0  0
 15 17  1  0  0  0  0
 16 15  2  0  0  0  0
 17  5  1  0  0  0  0
 18 19  1  1  0  0  0
 18 16  1  0  0  0  0
 18 23  1  0  0  0  0
 19 20  2  0  0  0  0
 20 21  1  0  0  0  0
 21 24  1  0  0  0  0
 21 22  2  0  0  0  0
 23 22  1  0  0  0  0
 23 17  2  0  0  0  0
 24 25  1  0  0  0  0
 25 26  1  0  0  0  0
 27 28  1  0  0  0  0
 27 25  1  0  0  0  0
 28 25  1  0  0  0  0
M  END
>  <MODEL>
5

>  <REMARK>
 VINA RESULT:      -9.2      2.413      4.485
  Name = 8tzc
  3 active torsions:
  status: ('A' for Active; 'I' for Inactive)
    1  A    between atoms: C_5  and  C_9
    2  A    between atoms: C_13  and  O_16
    3  A    between atoms: O_16  and  C_17
                            x       y       z     vdW  Elec       q    Type
                         _______ _______ _______ _____ _____    ______ ____

>  <TORSDO>
F 3

$$$$
8tzc
 OpenBabel11072415323D

 28 32  0  0  1  0  0  0  0  0999 V2000
  161.0010  203.9270  152.7860 N   0  0  0  0  0  0  0  0  0  0  0  0
  161.3790  206.1420  152.9840 N   0  0  0  0  0  0  0  0  0  0  0  0
  161.3980  206.2760  151.7610 C   0  0  0  0  0  0  0  0  0  0  0  0
  161.2300  205.3070  150.9190 C   0  0  0  0  0  3  0  0  0  0  0  0
  161.0260  204.0810  151.4320 C   0  0  0  0  0  0  0  0  0  0  0  0
  161.1890  205.0170  153.5140 C   0  0  0  0  0  3  0  0  0  0  0  0
  161.1480  210.8870  152.5860 C   0  0  0  0  0  1  0  0  0  0  0  0
  161.6170  207.5690  151.2600 N   0  0  0  0  0  0  0  0  0  0  0  0
  161.4820  210.0590  150.4800 O   0  0  0  0  0  0  0  0  0  0  0  0
  161.9150  209.9480  151.7290 C   0  0  2  0  0  3  0  0  0  0  0  0
  161.8140  208.5680  152.2570 C   0  0  0  0  0  2  0  0  0  0  0  0
  161.6360  207.8550  149.8570 C   0  0  0  0  0  2  0  0  0  0  0  0
  162.1250  209.2390  149.6520 C   0  0  1  0  0  3  0  0  0  0  0  0
  161.9600  209.7690  148.2620 C   0  0  0  0  0  1  0  0  0  0  0  0
  160.4740  201.9830  150.9390 N   0  0  0  0  0  0  0  0  0  0  0  0
  160.3970  201.2090  149.8990 N   0  0  0  0  0  0  0  0  0  0  0  0
  160.8310  202.9600  150.4780 C   0  0  0  0  0  0  0  0  0  0  0  0
  160.7690  201.8780  148.7280 C   0  0  0  0  0  0  0  0  0  0  0  0
  160.8600  201.5580  147.4480 C   0  0  0  0  0  3  0  0  0  0  0  0
  161.2580  202.4870  146.6260 C   0  0  0  0  0  3  0  0  0  0  0  0
  161.5600  203.7130  147.0480 C   0  0  0  0  0  0  0  0  0  0  0  0
  161.4490  204.0000  148.3410 C   0  0  0  0  0  2  0  0  0  0  0  0
  161.0660  203.1180  149.1990 C   0  0  0  0  0  0  0  0  0  0  0  0
  161.9720  204.6380  146.0820 O   0  0  0  0  0  0  0  0  0  0  0  0
  161.0650  205.3590  145.3840 C   0  0  0  0  0  0  0  0  0  0  0  0
  160.4550  206.5670  146.0480 C   0  0  0  0  0  1  0  0  0  0  0  0
  160.4170  204.8360  144.1350 C   0  0  0  0  0  2  0  0  0  0  0  0
  161.7300  205.5370  144.0590 C   0  0  0  0  0  2  0  0  0  0  0  0
  1  6  1  0  0  0  0
  2  6  2  0  0  0  0
  3  2  1  0  0  0  0
  4  5  1  0  0  0  0
  4  3  2  0  0  0  0
  5  1  2  0  0  0  0
  8  3  1  0  0  0  0
  8 11  1  0  0  0  0
  9 10  1  0  0  0  0
 10 11  1  0  0  0  0
 10  7  1  1  0  0  0
 12  8  1  0  0  0  0
 13 14  1  6  0  0  0
 13 12  1  0  0  0  0
 13  9  1  0  0  0  0
 16 15  2  0  0  0  0
 17 15  1  0  0  0  0
 17  5  1  0  0  0  0
 18 23  1  0  0  0  0
 18 16  1  0  0  0  0
 19 18  2  0  0  0  0
 20 21  2  0  0  0  0
 20 19  1  0  0  0  0
 21 22  1  0  0  0  0
 22 23  1  0  0  0  0
 23 17  2  0  0  0  0
 24 21  1  0  0  0  0
 25 26  1  0  0  0  0
 25 24  1  0  0  0  0
 27 25  1  0  0  0  0
 28 27  1  0  0  0  0
 28 25  1  0  0  0  0
M  END
>  <MODEL>
6

>  <REMARK>
 VINA RESULT:      -8.8      2.049      3.296
  Name = 8tzc
  3 active torsions:
  status: ('A' for Active; 'I' for Inactive)
    1  A    between atoms: C_5  and  C_9
    2  A    between atoms: C_13  and  O_16
    3  A    between atoms: O_16  and  C_17
                            x       y       z     vdW  Elec       q    Type
                         _______ _______ _______ _____ _____    ______ ____

>  <TORSDO>
F 3

$$$$
8tzc
 OpenBabel11072415323D

 28 32  0  0  1  0  0  0  0  0999 V2000
  162.2470  209.0170  151.1180 N   0  0  0  0  0  0  0  0  0  0  0  0
  161.2610  210.9300  151.7910 N   0  0  0  0  0  0  0  0  0  0  0  0
  160.4170  210.3020  152.4310 C   0  0  0  0  0  0  0  0  0  0  0  0
  160.3690  209.0100  152.5020 C   0  0  0  0  0  3  0  0  0  0  0  0
  161.3080  208.3260  151.8250 C   0  0  0  0  0  0  0  0  0  0  0  0
  162.1620  210.3380  151.1440 C   0  0  0  0  0  3  0  0  0  0  0  0
  159.3170  214.4150  154.4000 C   0  0  0  0  0  1  0  0  0  0  0  0
  159.4490  211.0470  153.1230 N   0  0  0  0  0  0  0  0  0  0  0  0
  158.0750  212.5310  154.7770 O   0  0  0  0  0  0  0  0  0  0  0  0
  158.6240  213.2450  153.8030 C   0  0  2  0  0  3  0  0  0  0  0  0
  159.5650  212.4590  152.9700 C   0  0  0  0  0  2  0  0  0  0  0  0
  158.4320  210.4320  153.9200 C   0  0  0  0  0  2  0  0  0  0  0  0
  157.4380  211.4590  154.3140 C   0  0  1  0  0  3  0  0  0  0  0  0
  156.4560  211.0230  155.3560 C   0  0  0  0  0  1  0  0  0  0  0  0
  161.3340  206.4050  152.9460 N   0  0  0  0  0  0  0  0  0  0  0  0
  161.2780  205.1300  152.7050 N   0  0  0  0  0  0  0  0  0  0  0  0
  161.2660  206.8430  151.8980 C   0  0  0  0  0  0  0  0  0  0  0  0
  161.1650  204.8660  151.3350 C   0  0  0  0  0  0  0  0  0  0  0  0
  161.0730  203.7780  150.5890 C   0  0  0  0  0  2  0  0  0  0  0  0
  160.9790  203.9430  149.3000 C   0  0  0  0  0  3  0  0  0  0  0  0
  160.9730  205.1540  148.7480 C   0  0  0  0  0  0  0  0  0  0  0  0
  161.0600  206.2250  149.5310 C   0  0  0  0  0  3  0  0  0  0  0  0
  161.1600  206.1200  150.8110 C   0  0  0  0  0  0  0  0  0  0  0  0
  160.8630  205.2200  147.3550 O   0  0  0  0  0  0  0  0  0  0  0  0
  161.7360  204.5620  146.5590 C   0  0  0  0  0  0  0  0  0  0  0  0
  161.3100  203.2380  145.9790 C   0  0  0  0  0  1  0  0  0  0  0  0
  163.1910  204.9270  146.4930 C   0  0  0  0  0  2  0  0  0  0  0  0
  162.2030  205.6280  145.6240 C   0  0  0  0  0  2  0  0  0  0  0  0
  1  6  2  0  0  0  0
  1  5  1  0  0  0  0
  2  3  2  0  0  0  0
  3  4  1  0  0  0  0
  3  8  1  0  0  0  0
  5 17  1  0  0  0  0
  5  4  2  0  0  0  0
  6  2  1  0  0  0  0
  8 12  1  0  0  0  0
 10  7  1  1  0  0  0
 10  9  1  0  0  0  0
 11  8  1  0  0  0  0
 11 10  1  0  0  0  0
 12 13  1  0  0  0  0
 13  9  1  0  0  0  0
 13 14  1  1  0  0  0
 16 15  1  0  0  0  0
 17 15  2  0  0  0  0
 18 16  2  0  0  0  0
 19 18  1  0  0  0  0
 20 19  1  0  0  0  0
 21 20  2  0  0  0  0
 21 22  1  0  0  0  0
 22 23  2  0  0  0  0
 23 18  1  0  0  0  0
 23 17  1  0  0  0  0
 24 21  1  0  0  0  0
 25 24  1  0  0  0  0
 26 25  1  0  0  0  0
 27 25  1  0  0  0  0
 28 27  1  0  0  0  0
 28 25  1  0  0  0  0
M  END
>  <MODEL>
7

>  <REMARK>
 VINA RESULT:      -8.6      2.634      3.398
  Name = 8tzc
  3 active torsions:
  status: ('A' for Active; 'I' for Inactive)
    1  A    between atoms: C_5  and  C_9
    2  A    between atoms: C_13  and  O_16
    3  A    between atoms: O_16  and  C_17
                            x       y       z     vdW  Elec       q    Type
                         _______ _______ _______ _____ _____    ______ ____

>  <TORSDO>
F 3

$$$$
8tzc
 OpenBabel11072415323D

 28 32  0  0  1  0  0  0  0  0999 V2000
  161.3030  205.7400  152.4710 N   0  0  0  0  0  0  0  0  0  0  0  0
  161.0330  203.8680  151.2430 N   0  0  0  0  0  0  0  0  0  0  0  0
  161.1590  204.5030  150.1970 C   0  0  0  0  0  0  0  0  0  0  0  0
  161.3630  205.7800  150.1390 C   0  0  0  0  0  3  0  0  0  0  0  0
  161.4370  206.4400  151.3090 C   0  0  0  0  0  0  0  0  0  0  0  0
  161.0980  204.4370  152.3630 C   0  0  0  0  0  3  0  0  0  0  0  0
  161.5820  200.3310  148.0940 C   0  0  0  0  0  1  0  0  0  0  0  0
  161.0730  203.7840  148.9940 N   0  0  0  0  0  0  0  0  0  0  0  0
  161.4380  202.2740  146.8940 O   0  0  0  0  0  0  0  0  0  0  0  0
  160.8620  201.6140  147.8900 C   0  0  2  0  0  3  0  0  0  0  0  0
  160.8230  202.3890  149.1520 C   0  0  0  0  0  2  0  0  0  0  0  0
  161.2270  204.4070  147.7140 C   0  0  0  0  0  2  0  0  0  0  0  0
  160.8450  203.4410  146.6570 C   0  0  1  0  0  3  0  0  0  0  0  0
  161.1950  203.8580  145.2620 C   0  0  0  0  0  1  0  0  0  0  0  0
  162.1860  208.2840  150.3160 N   0  0  0  0  0  0  0  0  0  0  0  0
  162.2600  209.5600  150.5490 N   0  0  0  0  0  0  0  0  0  0  0  0
  161.6730  207.9050  151.2580 C   0  0  0  0  0  0  0  0  0  0  0  0
  161.7090  209.8930  151.7910 C   0  0  1  0  0  3  0  0  0  0  0  0
  161.5380  211.0100  152.4780 C   0  0  0  0  0  3  0  0  0  0  0  0
  160.9610  210.9140  153.6430 C   0  0  0  0  0  3  0  0  0  0  0  0
  160.5550  209.7430  154.1280 C   0  0  0  0  0  0  0  0  0  0  0  0
  160.7370  208.6420  153.4050 C   0  0  0  0  0  3  0  0  0  0  0  0
  161.3070  208.6780  152.2500 C   0  0  0  0  0  0  0  0  0  0  0  0
  159.9410  209.7510  155.3860 O   0  0  0  0  0  0  0  0  0  0  0  0
  159.1670  210.7920  155.7710 C   0  0  0  0  0  0  0  0  0  0  0  0
  157.8520  210.9990  155.0650 C   0  0  0  0  0  1  0  0  0  0  0  0
  159.6950  211.9080  156.6250 C   0  0  0  0  0  2  0  0  0  0  0  0
  159.1620  210.6680  157.2600 C   0  0  0  0  0  2  0  0  0  0  0  0
  2  6  2  0  0  0  0
  3  2  1  0  0  0  0
  4  3  2  0  0  0  0
  4  5  1  0  0  0  0
  5  1  2  0  0  0  0
  6  1  1  0  0  0  0
  8 11  1  0  0  0  0
  8  3  1  0  0  0  0
  9 10  1  0  0  0  0
 10  7  1  1  0  0  0
 10 11  1  0  0  0  0
 12  8  1  0  0  0  0
 13 14  1  6  0  0  0
 13  9  1  0  0  0  0
 13 12  1  0  0  0  0
 15 16  2  0  0  0  0
 15 17  1  0  0  0  0
 16 18  1  0  0  0  0
 17  5  1  0  0  0  0
 17 23  2  0  0  0  0
 18 23  1  0  0  0  0
 18 19  1  6  0  0  0
 19 20  2  0  0  0  0
 20 21  1  0  0  0  0
 21 24  1  0  0  0  0
 22 21  2  0  0  0  0
 23 22  1  0  0  0  0
 24 25  1  0  0  0  0
 25 27  1  0  0  0  0
 25 28  1  0  0  0  0
 26 25  1  0  0  0  0
 27 28  1  0  0  0  0
M  END
>  <MODEL>
8

>  <REMARK>
 VINA RESULT:      -8.2      1.755      8.990
  Name = 8tzc
  3 active torsions:
  status: ('A' for Active; 'I' for Inactive)
    1  A    between atoms: C_5  and  C_9
    2  A    between atoms: C_13  and  O_16
    3  A    between atoms: O_16  and  C_17
                            x       y       z     vdW  Elec       q    Type
                         _______ _______ _______ _____ _____    ______ ____

>  <TORSDO>
F 3

$$$$
8tzc
 OpenBabel11072415323D

 28 32  0  0  1  0  0  0  0  0999 V2000
  162.2850  209.2600  148.2570 N   0  0  0  0  0  0  0  0  0  0  0  0
  161.9560  210.0330  150.3500 N   0  0  0  0  0  0  0  0  0  0  0  0
  161.6970  208.9000  150.7570 C   0  0  0  0  0  0  0  0  0  0  0  0
  161.6950  207.8410  150.0120 C   0  0  0  0  0  3  0  0  0  0  0  0
  161.9940  208.0090  148.7120 C   0  0  0  0  0  0  0  0  0  0  0  0
  162.2450  210.2420  149.1440 C   0  0  0  0  0  3  0  0  0  0  0  0
  162.1110  210.7030  155.0680 C   0  0  0  0  0  1  0  0  0  0  0  0
  161.3860  208.7620  152.1190 N   0  0  0  0  0  0  0  0  0  0  0  0
  161.3680  208.5670  154.7240 O   0  0  0  0  0  0  0  0  0  0  0  0
  161.1880  209.8160  154.3150 C   0  0  2  0  0  3  0  0  0  0  0  0
  161.3900  209.9810  152.8560 C   0  0  0  0  0  2  0  0  0  0  0  0
  161.0920  207.4930  152.7140 C   0  0  0  0  0  2  0  0  0  0  0  0
  160.5740  207.7110  154.0860 C   0  0  1  0  0  3  0  0  0  0  0  0
  160.4630  206.4750  154.9240 C   0  0  0  0  0  1  0  0  0  0  0  0
  162.3770  206.9640  146.7850 N   0  0  0  0  0  0  0  0  0  0  0  0
  162.2640  205.7740  146.2780 N   0  0  0  0  0  0  0  0  0  0  0  0
  161.9970  206.8020  147.8460 C   0  0  0  0  0  0  0  0  0  0  0  0
  161.7510  204.8620  147.2060 C   0  0  1  0  0  3  0  0  0  0  0  0
  161.4570  203.5720  147.1980 C   0  0  0  0  0  3  0  0  0  0  0  0
  160.9810  203.0600  148.2970 C   0  0  0  0  0  3  0  0  0  0  0  0
  160.7980  203.7960  149.3900 C   0  0  0  0  0  0  0  0  0  0  0  0
  161.1130  205.0870  149.3640 C   0  0  0  0  0  3  0  0  0  0  0  0
  161.5810  205.6470  148.3020 C   0  0  0  0  0  0  0  0  0  0  0  0
  160.2880  203.1460  150.5200 O   0  0  0  0  0  0  0  0  0  0  0  0
  161.0610  202.9460  151.6120 C   0  0  0  0  0  0  0  0  0  0  0  0
  161.9560  201.7340  151.6360 C   0  0  0  0  0  1  0  0  0  0  0  0
  160.8310  203.6820  152.9000 C   0  0  0  0  0  2  0  0  0  0  0  0
  161.6780  204.2880  151.8330 C   0  0  0  0  0  2  0  0  0  0  0  0
  1  5  2  0  0  0  0
  1  6  1  0  0  0  0
  2  3  1  0  0  0  0
  3  8  1  0  0  0  0
  4  3  2  0  0  0  0
  5  4  1  0  0  0  0
  6  2  2  0  0  0  0
  8 12  1  0  0  0  0
  8 11  1  0  0  0  0
 10  9  1  0  0  0  0
 10  7  1  1  0  0  0
 11 10  1  0  0  0  0
 12 13  1  0  0  0  0
 13  9  1  0  0  0  0
 13 14  1  1  0  0  0
 15 17  1  0  0  0  0
 16 15  2  0  0  0  0
 16 18  1  0  0  0  0
 17 23  2  0  0  0  0
 17  5  1  0  0  0  0
 18 19  1  1  0  0  0
 18 23  1  0  0  0  0
 19 20  2  0  0  0  0
 20 21  1  0  0  0  0
 21 24  1  0  0  0  0
 22 21  2  0  0  0  0
 23 22  1  0  0  0  0
 24 25  1  0  0  0  0
 25 26  1  0  0  0  0
 25 28  1  0  0  0  0
 25 27  1  0  0  0  0
 28 27  1  0  0  0  0
M  END
>  <MODEL>
9

>  <REMARK>
 VINA RESULT:      -8.1      2.342      3.928
  Name = 8tzc
  3 active torsions:
  status: ('A' for Active; 'I' for Inactive)
    1  A    between atoms: C_5  and  C_9
    2  A    between atoms: C_13  and  O_16
    3  A    between atoms: O_16  and  C_17
                            x       y       z     vdW  Elec       q    Type
                         _______ _______ _______ _____ _____    ______ ____

>  <TORSDO>
F 3

$$$$
