8smc
 OpenBabel11072415323D

 24 25  0  0  0  0  0  0  0  0999 V2000
  161.9390  204.4990  147.3060 C   0  0  0  0  0  1  0  0  0  0  0  0
  160.8320  204.3490  148.2280 N   0  0  0  0  0  2  0  0  0  0  0  0
  161.0810  204.1580  149.6410 C   0  0  0  0  0  0  0  0  0  0  0  0
  161.4150  205.1730  150.4140 N   0  0  0  0  0  4  0  0  0  0  0  0
  161.6340  205.0130  151.6990 C   0  0  0  0  0  0  0  0  0  0  0  0
  162.0190  206.1160  152.5670 N   0  0  0  0  0  2  0  0  0  0  0  0
  161.5370  203.8170  152.2460 N   0  0  0  0  0  0  0  0  0  0  0  0
  161.2060  202.7540  151.5470 C   0  0  0  0  0  3  0  0  0  0  0  0
  160.9630  202.8990  150.1930 C   0  0  0  0  0  0  0  0  0  0  0  0
  161.5180  207.4820  152.5660 C   0  0  0  0  0  0  0  0  0  0  0  0
  160.6720  209.3100  153.3610 N   0  0  0  0  0  0  0  0  0  0  0  0
  161.0090  208.0930  153.6860 C   0  0  0  0  0  3  0  0  0  0  0  0
  160.9640  209.5430  152.0500 N   0  0  0  0  0  0  0  0  0  0  0  0
  161.5000  208.4320  151.5440 C   0  0  0  0  0  0  0  0  0  0  0  0
  161.9560  208.2970  150.0930 C   0  0  0  0  0  1  0  0  0  0  0  0
  160.0810  210.2850  154.2550 C   0  0  0  0  0  0  0  0  0  0  0  0
  161.1780  211.1720  154.8440 C   0  0  0  0  0  1  0  0  0  0  0  0
  159.3630  209.5520  155.3860 C   0  0  0  0  0  1  0  0  0  0  0  0
  158.3230  211.7790  152.9250 N   0  0  0  0  0  0  0  0  0  0  0  0
  159.0720  211.1410  153.4930 C   0  0  0  0  0  0  0  0  0  0  0  0
  160.5840  201.7160  149.3190 C   0  0  0  0  0  0  0  0  0  0  0  0
  161.4700  201.6240  148.2900 F   0  0  0  0  0  0  0  0  0  0  0  0
  160.6410  200.5780  150.0670 F   0  0  0  0  0  0  0  0  0  0  0  0
  159.3230  201.8780  148.8310 F   0  0  0  0  0  0  0  0  0  0  0  0
  1  2  1  0  0  0  0
  2  3  1  0  0  0  0
  3  9  1  0  0  0  0
  3  4  2  0  0  0  0
  4  5  2  0  0  0  0
  5  7  2  0  0  0  0
  5  6  1  0  0  0  0
  8  7  1  0  0  0  0
  9  8  2  0  0  0  0
 10  6  1  0  0  0  0
 10 12  2  0  0  0  0
 11 12  1  0  0  0  0
 11 16  1  0  0  0  0
 13 11  1  0  0  0  0
 14 13  2  0  0  0  0
 14 10  1  0  0  0  0
 15 14  1  0  0  0  0
 16 17  1  0  0  0  0
 16 18  1  0  0  0  0
 19 20  3  0  0  0  0
 20 16  1  0  0  0  0
 21 23  1  0  0  0  0
 21  9  1  0  0  0  0
 22 21  1  0  0  0  0
 24 21  1  0  0  0  0
M  END
>  <MODEL>
1

>  <REMARK>
 VINA RESULT:      -7.7      0.000      0.000
  Name = 8smc
  4 active torsions:
  status: ('A' for Active; 'I' for Inactive)
    1  A    between atoms: N_6  and  C_7
    2  A    between atoms: N_8  and  C_15
    3  A    between atoms: C_15  and  C_18
    4  A    between atoms: C_20  and  C_21
                            x       y       z     vdW  Elec       q    Type
                         _______ _______ _______ _____ _____    ______ ____

>  <TORSDO>
F 4

$$$$
8smc
 OpenBabel11072415323D

 24 25  0  0  0  0  0  0  0  0999 V2000
  162.3230  208.3550  148.7070 C   0  0  0  0  0  1  0  0  0  0  0  0
  161.1340  207.6880  149.1950 N   0  0  0  0  0  2  0  0  0  0  0  0
  161.2200  206.7670  150.3080 C   0  0  0  0  0  0  0  0  0  0  0  0
  161.3190  207.2080  151.5470 N   0  0  0  0  0  4  0  0  0  0  0  0
  161.3880  206.3820  152.5660 C   0  0  0  0  0  0  0  0  0  0  0  0
  161.5150  206.8470  153.9400 N   0  0  0  0  0  2  0  0  0  0  0  0
  161.3730  205.0780  152.3670 N   0  0  0  0  0  0  0  0  0  0  0  0
  161.2720  204.5560  151.1640 C   0  0  0  0  0  3  0  0  0  0  0  0
  161.1900  205.4070  150.0760 C   0  0  0  0  0  0  0  0  0  0  0  0
  160.8500  207.9740  154.5740 C   0  0  0  0  0  0  0  0  0  0  0  0
  160.0420  209.9730  154.7770 N   0  0  0  0  0  0  0  0  0  0  0  0
  160.6940  209.1930  153.9610 C   0  0  0  0  0  3  0  0  0  0  0  0
  159.7310  209.3000  155.9210 N   0  0  0  0  0  0  0  0  0  0  0  0
  160.2080  208.0600  155.8110 C   0  0  0  0  0  0  0  0  0  0  0  0
  160.0630  206.9970  156.8980 C   0  0  0  0  0  1  0  0  0  0  0  0
  159.6850  211.3530  154.5150 C   0  0  0  0  0  0  0  0  0  0  0  0
  160.2860  211.7940  153.1810 C   0  0  0  0  0  1  0  0  0  0  0  0
  160.2390  212.2310  155.6340 C   0  0  0  0  0  1  0  0  0  0  0  0
  157.0340  211.5970  154.4460 N   0  0  0  0  0  0  0  0  0  0  0  0
  158.1650  211.4940  154.4740 C   0  0  0  0  0  0  0  0  0  0  0  0
  161.0810  204.8790  148.6570 C   0  0  0  0  0  0  0  0  0  0  0  0
  160.6920  203.5750  148.6990 F   0  0  0  0  0  0  0  0  0  0  0  0
  160.1440  205.6070  147.9860 F   0  0  0  0  0  0  0  0  0  0  0  0
  162.2810  204.9850  148.0220 F   0  0  0  0  0  0  0  0  0  0  0  0
  1  2  1  0  0  0  0
  2  3  1  0  0  0  0
  3  4  2  0  0  0  0
  4  5  2  0  0  0  0
  5  6  1  0  0  0  0
  6 10  1  0  0  0  0
  7  5  2  0  0  0  0
  8  7  1  0  0  0  0
  9  3  1  0  0  0  0
  9  8  2  0  0  0  0
 10 14  1  0  0  0  0
 11 13  1  0  0  0  0
 12 10  2  0  0  0  0
 12 11  1  0  0  0  0
 14 13  2  0  0  0  0
 14 15  1  0  0  0  0
 16 11  1  0  0  0  0
 16 18  1  0  0  0  0
 17 16  1  0  0  0  0
 19 20  3  0  0  0  0
 20 16  1  0  0  0  0
 21 22  1  0  0  0  0
 21  9  1  0  0  0  0
 23 21  1  0  0  0  0
 24 21  1  0  0  0  0
M  END
>  <MODEL>
2

>  <REMARK>
 VINA RESULT:      -7.4      1.975      3.157
  Name = 8smc
  4 active torsions:
  status: ('A' for Active; 'I' for Inactive)
    1  A    between atoms: N_6  and  C_7
    2  A    between atoms: N_8  and  C_15
    3  A    between atoms: C_15  and  C_18
    4  A    between atoms: C_20  and  C_21
                            x       y       z     vdW  Elec       q    Type
                         _______ _______ _______ _____ _____    ______ ____

>  <TORSDO>
F 4

$$$$
8smc
 OpenBabel11072415323D

 24 25  0  0  0  0  0  0  0  0999 V2000
  162.3220  208.0260  148.8330 C   0  0  0  0  0  1  0  0  0  0  0  0
  161.1250  207.3830  149.3360 N   0  0  0  0  0  2  0  0  0  0  0  0
  161.2000  206.4930  150.4750 C   0  0  0  0  0  0  0  0  0  0  0  0
  161.3010  206.9680  151.7010 N   0  0  0  0  0  4  0  0  0  0  0  0
  161.3600  206.1700  152.7430 C   0  0  0  0  0  0  0  0  0  0  0  0
  161.4870  206.6720  154.1030 N   0  0  0  0  0  2  0  0  0  0  0  0
  161.3330  204.8610  152.5800 N   0  0  0  0  0  0  0  0  0  0  0  0
  161.2310  204.3070  151.3920 C   0  0  0  0  0  3  0  0  0  0  0  0
  161.1590  205.1270  150.2800 C   0  0  0  0  0  0  0  0  0  0  0  0
  160.8310  207.8220  154.7040 C   0  0  0  0  0  0  0  0  0  0  0  0
  160.0310  209.8300  154.8450 N   0  0  0  0  0  0  0  0  0  0  0  0
  160.6740  209.0200  154.0510 C   0  0  0  0  0  3  0  0  0  0  0  0
  159.7280  209.1970  156.0140 N   0  0  0  0  0  0  0  0  0  0  0  0
  160.2000  207.9520  155.9430 C   0  0  0  0  0  0  0  0  0  0  0  0
  160.0610  206.9280  157.0670 C   0  0  0  0  0  1  0  0  0  0  0  0
  159.6760  211.2000  154.5390 C   0  0  0  0  0  0  0  0  0  0  0  0
  160.4150  212.1460  155.4860 C   0  0  0  0  0  1  0  0  0  0  0  0
  158.1710  211.3770  154.7220 C   0  0  0  0  0  1  0  0  0  0  0  0
  160.3160  211.7560  152.0140 N   0  0  0  0  0  0  0  0  0  0  0  0
  160.0450  211.5190  153.0910 C   0  0  0  0  0  0  0  0  0  0  0  0
  161.0480  204.5610  148.8760 C   0  0  0  0  0  0  0  0  0  0  0  0
  160.1430  205.2950  148.1730 F   0  0  0  0  0  0  0  0  0  0  0  0
  162.2650  204.6440  148.2690 F   0  0  0  0  0  0  0  0  0  0  0  0
  160.6510  203.2590  148.9260 F   0  0  0  0  0  0  0  0  0  0  0  0
  1  2  1  0  0  0  0
  2  3  1  0  0  0  0
  3  4  2  0  0  0  0
  4  5  2  0  0  0  0
  5  6  1  0  0  0  0
  6 10  1  0  0  0  0
  7  5  2  0  0  0  0
  8  7  1  0  0  0  0
  9  3  1  0  0  0  0
  9  8  2  0  0  0  0
 10 14  1  0  0  0  0
 11 13  1  0  0  0  0
 12 10  2  0  0  0  0
 12 11  1  0  0  0  0
 14 13  2  0  0  0  0
 14 15  1  0  0  0  0
 16 18  1  0  0  0  0
 16 11  1  0  0  0  0
 16 17  1  0  0  0  0
 19 20  3  0  0  0  0
 20 16  1  0  0  0  0
 21 24  1  0  0  0  0
 21  9  1  0  0  0  0
 22 21  1  0  0  0  0
 23 21  1  0  0  0  0
M  END
>  <MODEL>
3

>  <REMARK>
 VINA RESULT:      -7.3      1.905      3.004
  Name = 8smc
  4 active torsions:
  status: ('A' for Active; 'I' for Inactive)
    1  A    between atoms: N_6  and  C_7
    2  A    between atoms: N_8  and  C_15
    3  A    between atoms: C_15  and  C_18
    4  A    between atoms: C_20  and  C_21
                            x       y       z     vdW  Elec       q    Type
                         _______ _______ _______ _____ _____    ______ ____

>  <TORSDO>
F 4

$$$$
8smc
 OpenBabel11072415323D

 24 25  0  0  0  0  0  0  0  0999 V2000
  159.5900  210.6750  152.7430 C   0  0  0  0  0  1  0  0  0  0  0  0
  160.8820  210.0280  152.8520 N   0  0  0  0  0  2  0  0  0  0  0  0
  160.9700  208.5860  152.9450 C   0  0  0  0  0  0  0  0  0  0  0  0
  160.8280  207.8290  151.8740 N   0  0  0  0  0  4  0  0  0  0  0  0
  160.9160  206.5200  151.9450 C   0  0  0  0  0  0  0  0  0  0  0  0
  160.7470  205.6640  150.7800 N   0  0  0  0  0  2  0  0  0  0  0  0
  161.1360  205.9300  153.1040 N   0  0  0  0  0  0  0  0  0  0  0  0
  161.2920  206.6120  154.2170 C   0  0  0  0  0  3  0  0  0  0  0  0
  161.2120  207.9920  154.1660 C   0  0  0  0  0  0  0  0  0  0  0  0
  161.2370  205.8760  149.4270 C   0  0  0  0  0  0  0  0  0  0  0  0
  161.6920  205.4120  147.3610 N   0  0  0  0  0  0  0  0  0  0  0  0
  161.2080  204.9020  148.4590 C   0  0  0  0  0  3  0  0  0  0  0  0
  162.0260  206.7180  147.5580 N   0  0  0  0  0  0  0  0  0  0  0  0
  161.7400  207.0300  148.8230 C   0  0  0  0  0  0  0  0  0  0  0  0
  161.9790  208.4100  149.4300 C   0  0  0  0  0  1  0  0  0  0  0  0
  161.8480  204.7060  146.1050 C   0  0  0  0  0  0  0  0  0  0  0  0
  163.3230  204.6890  145.7060 C   0  0  0  0  0  1  0  0  0  0  0  0
  161.0420  205.4260  145.0270 C   0  0  0  0  0  1  0  0  0  0  0  0
  160.9420  202.2140  146.3550 N   0  0  0  0  0  0  0  0  0  0  0  0
  161.3290  203.2770  146.2470 C   0  0  0  0  0  0  0  0  0  0  0  0
  161.3730  208.8470  155.4110 C   0  0  0  0  0  0  0  0  0  0  0  0
  160.1600  209.3610  155.7550 F   0  0  0  0  0  0  0  0  0  0  0  0
  161.8350  208.0650  156.4260 F   0  0  0  0  0  0  0  0  0  0  0  0
  162.2550  209.8570  155.1750 F   0  0  0  0  0  0  0  0  0  0  0  0
  1  2  1  0  0  0  0
  2  3  1  0  0  0  0
  3  9  1  0  0  0  0
  4  5  2  0  0  0  0
  4  3  2  0  0  0  0
  5  7  2  0  0  0  0
  6  5  1  0  0  0  0
  7  8  1  0  0  0  0
  9  8  2  0  0  0  0
  9 21  1  0  0  0  0
 10  6  1  0  0  0  0
 11 13  1  0  0  0  0
 11 12  1  0  0  0  0
 12 10  2  0  0  0  0
 13 14  2  0  0  0  0
 14 10  1  0  0  0  0
 14 15  1  0  0  0  0
 16 20  1  0  0  0  0
 16 11  1  0  0  0  0
 17 16  1  0  0  0  0
 18 16  1  0  0  0  0
 20 19  3  0  0  0  0
 21 22  1  0  0  0  0
 21 23  1  0  0  0  0
 24 21  1  0  0  0  0
M  END
>  <MODEL>
4

>  <REMARK>
 VINA RESULT:      -7.0      4.014      7.694
  Name = 8smc
  4 active torsions:
  status: ('A' for Active; 'I' for Inactive)
    1  A    between atoms: N_6  and  C_7
    2  A    between atoms: N_8  and  C_15
    3  A    between atoms: C_15  and  C_18
    4  A    between atoms: C_20  and  C_21
                            x       y       z     vdW  Elec       q    Type
                         _______ _______ _______ _____ _____    ______ ____

>  <TORSDO>
F 4

$$$$
8smc
 OpenBabel11072415323D

 24 25  0  0  0  0  0  0  0  0999 V2000
  160.4570  202.7930  148.4780 C   0  0  0  0  0  1  0  0  0  0  0  0
  161.6690  203.5700  148.6480 N   0  0  0  0  0  2  0  0  0  0  0  0
  161.6160  205.0160  148.6310 C   0  0  0  0  0  0  0  0  0  0  0  0
  161.1930  205.6910  149.6820 N   0  0  0  0  0  4  0  0  0  0  0  0
  161.1500  207.0040  149.6820 C   0  0  0  0  0  0  0  0  0  0  0  0
  160.6730  207.7680  150.8240 N   0  0  0  0  0  2  0  0  0  0  0  0
  161.5200  207.6810  148.6110 N   0  0  0  0  0  0  0  0  0  0  0  0
  161.9560  207.0840  147.5240 C   0  0  0  0  0  3  0  0  0  0  0  0
  162.0180  205.7020  147.5030 C   0  0  0  0  0  0  0  0  0  0  0  0
  160.9180  207.5250  152.2370 C   0  0  0  0  0  0  0  0  0  0  0  0
  161.0810  207.9680  154.3510 N   0  0  0  0  0  0  0  0  0  0  0  0
  160.8300  208.5090  153.1920 C   0  0  0  0  0  3  0  0  0  0  0  0
  161.3140  206.6330  154.2040 N   0  0  0  0  0  0  0  0  0  0  0  0
  161.2050  206.3360  152.9090 C   0  0  0  0  0  0  0  0  0  0  0  0
  161.4030  204.9320  152.3420 C   0  0  0  0  0  1  0  0  0  0  0  0
  161.1030  208.6690  155.6180 C   0  0  0  0  0  0  0  0  0  0  0  0
  161.5170  207.7070  156.7310 C   0  0  0  0  0  1  0  0  0  0  0  0
  159.7050  209.2090  155.9120 C   0  0  0  0  0  1  0  0  0  0  0  0
  162.8180  210.7030  155.4910 N   0  0  0  0  0  0  0  0  0  0  0  0
  162.0850  209.8370  155.5470 C   0  0  0  0  0  0  0  0  0  0  0  0
  162.5030  204.9430  146.2810 C   0  0  0  0  0  0  0  0  0  0  0  0
  162.7000  205.8240  145.2620 F   0  0  0  0  0  0  0  0  0  0  0  0
  163.6830  204.3300  146.5820 F   0  0  0  0  0  0  0  0  0  0  0  0
  161.5840  204.0080  145.9140 F   0  0  0  0  0  0  0  0  0  0  0  0
  1  2  1  0  0  0  0
  3  2  1  0  0  0  0
  3  4  2  0  0  0  0
  5  4  2  0  0  0  0
  5  6  1  0  0  0  0
  6 10  1  0  0  0  0
  7  5  2  0  0  0  0
  8  7  1  0  0  0  0
  9  8  2  0  0  0  0
  9  3  1  0  0  0  0
 10 14  1  0  0  0  0
 10 12  2  0  0  0  0
 11 16  1  0  0  0  0
 12 11  1  0  0  0  0
 13 11  1  0  0  0  0
 14 13  2  0  0  0  0
 15 14  1  0  0  0  0
 16 18  1  0  0  0  0
 16 17  1  0  0  0  0
 19 20  3  0  0  0  0
 20 16  1  0  0  0  0
 21 23  1  0  0  0  0
 21  9  1  0  0  0  0
 22 21  1  0  0  0  0
 24 21  1  0  0  0  0
M  END
>  <MODEL>
5

>  <REMARK>
 VINA RESULT:      -6.7      2.453      3.632
  Name = 8smc
  4 active torsions:
  status: ('A' for Active; 'I' for Inactive)
    1  A    between atoms: N_6  and  C_7
    2  A    between atoms: N_8  and  C_15
    3  A    between atoms: C_15  and  C_18
    4  A    between atoms: C_20  and  C_21
                            x       y       z     vdW  Elec       q    Type
                         _______ _______ _______ _____ _____    ______ ____

>  <TORSDO>
F 4

$$$$
8smc
 OpenBabel11072415323D

 24 25  0  0  0  0  0  0  0  0999 V2000
  159.6780  210.8630  152.4320 C   0  0  0  0  0  1  0  0  0  0  0  0
  160.9600  210.2190  152.6380 N   0  0  0  0  0  2  0  0  0  0  0  0
  161.0250  208.8940  153.2170 C   0  0  0  0  0  0  0  0  0  0  0  0
  160.7530  207.8240  152.4950 N   0  0  0  0  0  4  0  0  0  0  0  0
  160.8180  206.6160  153.0070 C   0  0  0  0  0  0  0  0  0  0  0  0
  160.5060  205.4240  152.2340 N   0  0  0  0  0  2  0  0  0  0  0  0
  161.1480  206.4490  154.2740 N   0  0  0  0  0  0  0  0  0  0  0  0
  161.4380  207.4620  155.0600 C   0  0  0  0  0  3  0  0  0  0  0  0
  161.3840  208.7430  154.5410 C   0  0  0  0  0  0  0  0  0  0  0  0
  160.8520  205.1300  150.8520 C   0  0  0  0  0  0  0  0  0  0  0  0
  161.4100  205.5200  148.7960 N   0  0  0  0  0  0  0  0  0  0  0  0
  161.1100  206.1060  149.9210 C   0  0  0  0  0  3  0  0  0  0  0  0
  161.3840  204.1660  148.9520 N   0  0  0  0  0  0  0  0  0  0  0  0
  161.0560  203.9030  150.2170 C   0  0  0  0  0  0  0  0  0  0  0  0
  160.9180  202.4910  150.7810 C   0  0  0  0  0  1  0  0  0  0  0  0
  161.7350  206.1970  147.5570 C   0  0  0  0  0  0  0  0  0  0  0  0
  162.4000  207.5380  147.8640 C   0  0  0  0  0  1  0  0  0  0  0  0
  160.4490  206.4390  146.7710 C   0  0  0  0  0  1  0  0  0  0  0  0
  163.3720  204.6810  146.1020 N   0  0  0  0  0  0  0  0  0  0  0  0
  162.6750  205.3270  146.7240 C   0  0  0  0  0  0  0  0  0  0  0  0
  161.6970  209.9620  155.3890 C   0  0  0  0  0  0  0  0  0  0  0  0
  162.2270  209.5520  156.5740 F   0  0  0  0  0  0  0  0  0  0  0  0
  162.6060  210.7360  154.7320 F   0  0  0  0  0  0  0  0  0  0  0  0
  160.5630  210.6820  155.6130 F   0  0  0  0  0  0  0  0  0  0  0  0
  1  2  1  0  0  0  0
  2  3  1  0  0  0  0
  3  9  1  0  0  0  0
  4  5  2  0  0  0  0
  4  3  2  0  0  0  0
  5  7  2  0  0  0  0
  6  5  1  0  0  0  0
  7  8  1  0  0  0  0
  9  8  2  0  0  0  0
  9 21  1  0  0  0  0
 10  6  1  0  0  0  0
 11 13  1  0  0  0  0
 11 12  1  0  0  0  0
 12 10  2  0  0  0  0
 13 14  2  0  0  0  0
 14 15  1  0  0  0  0
 14 10  1  0  0  0  0
 16 17  1  0  0  0  0
 16 11  1  0  0  0  0
 18 16  1  0  0  0  0
 19 20  3  0  0  0  0
 20 16  1  0  0  0  0
 21 24  1  0  0  0  0
 21 22  1  0  0  0  0
 23 21  1  0  0  0  0
M  END
>  <MODEL>
6

>  <REMARK>
 VINA RESULT:      -6.7      4.239      7.524
  Name = 8smc
  4 active torsions:
  status: ('A' for Active; 'I' for Inactive)
    1  A    between atoms: N_6  and  C_7
    2  A    between atoms: N_8  and  C_15
    3  A    between atoms: C_15  and  C_18
    4  A    between atoms: C_20  and  C_21
                            x       y       z     vdW  Elec       q    Type
                         _______ _______ _______ _____ _____    ______ ____

>  <TORSDO>
F 4

$$$$
8smc
 OpenBabel11072415323D

 24 25  0  0  0  0  0  0  0  0999 V2000
  161.8740  205.5300  147.6410 C   0  0  0  0  0  1  0  0  0  0  0  0
  160.7830  205.3040  148.5670 N   0  0  0  0  0  2  0  0  0  0  0  0
  161.0480  205.1430  149.9810 C   0  0  0  0  0  0  0  0  0  0  0  0
  161.3050  206.1870  150.7450 N   0  0  0  0  0  4  0  0  0  0  0  0
  161.5380  206.0540  152.0310 C   0  0  0  0  0  0  0  0  0  0  0  0
  161.8390  207.1890  152.8900 N   0  0  0  0  0  2  0  0  0  0  0  0
  161.5320  204.8570  152.5880 N   0  0  0  0  0  0  0  0  0  0  0  0
  161.2820  203.7670  151.8970 C   0  0  0  0  0  3  0  0  0  0  0  0
  161.0260  203.8830  150.5420 C   0  0  0  0  0  0  0  0  0  0  0  0
  161.2360  208.5130  152.8790 C   0  0  0  0  0  0  0  0  0  0  0  0
  160.1350  210.2220  153.6230 N   0  0  0  0  0  0  0  0  0  0  0  0
  160.5160  209.0150  153.9350 C   0  0  0  0  0  3  0  0  0  0  0  0
  160.6030  210.5570  152.3880 N   0  0  0  0  0  0  0  0  0  0  0  0
  161.2980  209.5220  151.9160 C   0  0  0  0  0  0  0  0  0  0  0  0
  161.9790  209.5100  150.5490 C   0  0  0  0  0  1  0  0  0  0  0  0
  159.3390  211.0950  154.4620 C   0  0  0  0  0  0  0  0  0  0  0  0
  157.8720  211.0120  154.0430 C   0  0  0  0  0  1  0  0  0  0  0  0
  159.8320  212.5300  154.2960 C   0  0  0  0  0  1  0  0  0  0  0  0
  159.5990  210.3720  157.0130 N   0  0  0  0  0  0  0  0  0  0  0  0
  159.4870  210.6820  155.9260 C   0  0  0  0  0  0  0  0  0  0  0  0
  160.7370  202.6680  149.6780 C   0  0  0  0  0  0  0  0  0  0  0  0
  159.4150  202.6610  149.3530 F   0  0  0  0  0  0  0  0  0  0  0  0
  161.4810  202.7490  148.5400 F   0  0  0  0  0  0  0  0  0  0  0  0
  161.0540  201.5270  150.3510 F   0  0  0  0  0  0  0  0  0  0  0  0
  1  2  1  0  0  0  0
  2  3  1  0  0  0  0
  3  9  1  0  0  0  0
  3  4  2  0  0  0  0
  4  5  2  0  0  0  0
  5  7  2  0  0  0  0
  5  6  1  0  0  0  0
  8  7  1  0  0  0  0
  9  8  2  0  0  0  0
 10  6  1  0  0  0  0
 10 12  2  0  0  0  0
 11 12  1  0  0  0  0
 11 16  1  0  0  0  0
 13 11  1  0  0  0  0
 14 13  2  0  0  0  0
 14 10  1  0  0  0  0
 15 14  1  0  0  0  0
 16 20  1  0  0  0  0
 17 16  1  0  0  0  0
 18 16  1  0  0  0  0
 20 19  3  0  0  0  0
 21 24  1  0  0  0  0
 21  9  1  0  0  0  0
 22 21  1  0  0  0  0
 23 21  1  0  0  0  0
M  END
>  <MODEL>
7

>  <REMARK>
 VINA RESULT:      -6.7      1.363      1.923
  Name = 8smc
  4 active torsions:
  status: ('A' for Active; 'I' for Inactive)
    1  A    between atoms: N_6  and  C_7
    2  A    between atoms: N_8  and  C_15
    3  A    between atoms: C_15  and  C_18
    4  A    between atoms: C_20  and  C_21
                            x       y       z     vdW  Elec       q    Type
                         _______ _______ _______ _____ _____    ______ ____

>  <TORSDO>
F 4

$$$$
8smc
 OpenBabel11072415323D

 24 25  0  0  0  0  0  0  0  0999 V2000
  161.3250  207.2870  154.6590 C   0  0  0  0  0  1  0  0  0  0  0  0
  160.4500  207.8890  153.6730 N   0  0  0  0  0  2  0  0  0  0  0  0
  161.0070  208.5720  152.5250 C   0  0  0  0  0  0  0  0  0  0  0  0
  161.4800  207.8940  151.4970 N   0  0  0  0  0  4  0  0  0  0  0  0
  161.9790  208.5030  150.4450 C   0  0  0  0  0  0  0  0  0  0  0  0
  162.5210  207.7750  149.3070 N   0  0  0  0  0  2  0  0  0  0  0  0
  162.0290  209.8210  150.4020 N   0  0  0  0  0  0  0  0  0  0  0  0
  161.5760  210.5700  151.3830 C   0  0  0  0  0  3  0  0  0  0  0  0
  161.0390  209.9510  152.4980 C   0  0  0  0  0  0  0  0  0  0  0  0
  162.0030  206.5710  148.6780 C   0  0  0  0  0  0  0  0  0  0  0  0
  161.6460  205.1200  147.1110 N   0  0  0  0  0  0  0  0  0  0  0  0
  162.2130  206.2680  147.3550 C   0  0  0  0  0  3  0  0  0  0  0  0
  161.0750  204.6280  148.2460 N   0  0  0  0  0  0  0  0  0  0  0  0
  161.2960  205.5000  149.2300 C   0  0  0  0  0  0  0  0  0  0  0  0
  160.8040  205.3050  150.6620 C   0  0  0  0  0  1  0  0  0  0  0  0
  161.6250  204.4500  145.8260 C   0  0  0  0  0  0  0  0  0  0  0  0
  163.0290  204.4570  145.2210 C   0  0  0  0  0  1  0  0  0  0  0  0
  160.6700  205.1910  144.8940 C   0  0  0  0  0  1  0  0  0  0  0  0
  160.7750  201.9440  146.1290 N   0  0  0  0  0  0  0  0  0  0  0  0
  161.1390  203.0130  146.0000 C   0  0  0  0  0  0  0  0  0  0  0  0
  160.5030  210.7490  153.6730 C   0  0  0  0  0  0  0  0  0  0  0  0
  161.3340  210.5810  154.7380 F   0  0  0  0  0  0  0  0  0  0  0  0
  160.4680  212.0680  153.3310 F   0  0  0  0  0  0  0  0  0  0  0  0
  159.2480  210.3280  153.9930 F   0  0  0  0  0  0  0  0  0  0  0  0
  2  1  1  0  0  0  0
  3  2  1  0  0  0  0
  4  3  2  0  0  0  0
  5  4  2  0  0  0  0
  6  5  1  0  0  0  0
  7  5  2  0  0  0  0
  7  8  1  0  0  0  0
  8  9  2  0  0  0  0
  9  3  1  0  0  0  0
  9 21  1  0  0  0  0
 10 14  1  0  0  0  0
 10  6  1  0  0  0  0
 11 12  1  0  0  0  0
 11 13  1  0  0  0  0
 12 10  2  0  0  0  0
 13 14  2  0  0  0  0
 14 15  1  0  0  0  0
 16 20  1  0  0  0  0
 16 11  1  0  0  0  0
 17 16  1  0  0  0  0
 18 16  1  0  0  0  0
 20 19  3  0  0  0  0
 21 24  1  0  0  0  0
 21 22  1  0  0  0  0
 23 21  1  0  0  0  0
M  END
>  <MODEL>
8

>  <REMARK>
 VINA RESULT:      -6.6      4.202      8.226
  Name = 8smc
  4 active torsions:
  status: ('A' for Active; 'I' for Inactive)
    1  A    between atoms: N_6  and  C_7
    2  A    between atoms: N_8  and  C_15
    3  A    between atoms: C_15  and  C_18
    4  A    between atoms: C_20  and  C_21
                            x       y       z     vdW  Elec       q    Type
                         _______ _______ _______ _____ _____    ______ ____

>  <TORSDO>
F 4

$$$$
8smc
 OpenBabel11072415323D

 24 25  0  0  0  0  0  0  0  0999 V2000
  161.8750  206.4160  153.3490 C   0  0  0  0  0  1  0  0  0  0  0  0
  160.9390  206.9080  152.3580 N   0  0  0  0  0  2  0  0  0  0  0  0
  161.4160  207.3830  151.0770 C   0  0  0  0  0  0  0  0  0  0  0  0
  161.7700  206.5360  150.1290 N   0  0  0  0  0  4  0  0  0  0  0  0
  162.1950  206.9550  148.9590 C   0  0  0  0  0  0  0  0  0  0  0  0
  162.6050  206.0390  147.9050 N   0  0  0  0  0  2  0  0  0  0  0  0
  162.2910  208.2470  148.7110 N   0  0  0  0  0  0  0  0  0  0  0  0
  161.9550  209.1560  149.5990 C   0  0  0  0  0  3  0  0  0  0  0  0
  161.4970  208.7390  150.8360 C   0  0  0  0  0  0  0  0  0  0  0  0
  161.9880  204.7820  147.5130 C   0  0  0  0  0  0  0  0  0  0  0  0
  161.1920  202.7810  147.7390 N   0  0  0  0  0  0  0  0  0  0  0  0
  161.7810  203.7440  148.3890 C   0  0  0  0  0  3  0  0  0  0  0  0
  160.9730  203.1530  146.4460 N   0  0  0  0  0  0  0  0  0  0  0  0
  161.4440  204.3900  146.2880 C   0  0  0  0  0  0  0  0  0  0  0  0
  161.3880  205.1570  144.9690 C   0  0  0  0  0  1  0  0  0  0  0  0
  160.8100  201.5000  148.2990 C   0  0  0  0  0  0  0  0  0  0  0  0
  159.2950  201.4560  148.4930 C   0  0  0  0  0  1  0  0  0  0  0  0
  161.4990  201.3230  149.6500 C   0  0  0  0  0  1  0  0  0  0  0  0
  161.5770  199.5370  146.6690 N   0  0  0  0  0  0  0  0  0  0  0  0
  161.2490  200.3750  147.3630 C   0  0  0  0  0  0  0  0  0  0  0  0
  161.0990  209.7300  151.9160 C   0  0  0  0  0  0  0  0  0  0  0  0
  161.9780  209.6330  152.9510 F   0  0  0  0  0  0  0  0  0  0  0  0
  161.1490  210.9900  151.3990 F   0  0  0  0  0  0  0  0  0  0  0  0
  159.8360  209.4660  152.3520 F   0  0  0  0  0  0  0  0  0  0  0  0
  2  1  1  0  0  0  0
  3  2  1  0  0  0  0
  4  3  2  0  0  0  0
  5  4  2  0  0  0  0
  6  5  1  0  0  0  0
  7  5  2  0  0  0  0
  7  8  1  0  0  0  0
  8  9  2  0  0  0  0
  9  3  1  0  0  0  0
  9 21  1  0  0  0  0
 10  6  1  0  0  0  0
 10 12  2  0  0  0  0
 11 16  1  0  0  0  0
 11 12  1  0  0  0  0
 13 11  1  0  0  0  0
 14 13  2  0  0  0  0
 14 10  1  0  0  0  0
 15 14  1  0  0  0  0
 16 17  1  0  0  0  0
 16 18  1  0  0  0  0
 19 20  3  0  0  0  0
 20 16  1  0  0  0  0
 21 24  1  0  0  0  0
 21 22  1  0  0  0  0
 23 21  1  0  0  0  0
M  END
>  <MODEL>
9

>  <REMARK>
 VINA RESULT:      -6.5      3.886      8.127
  Name = 8smc
  4 active torsions:
  status: ('A' for Active; 'I' for Inactive)
    1  A    between atoms: N_6  and  C_7
    2  A    between atoms: N_8  and  C_15
    3  A    between atoms: C_15  and  C_18
    4  A    between atoms: C_20  and  C_21
                            x       y       z     vdW  Elec       q    Type
                         _______ _______ _______ _____ _____    ______ ____

>  <TORSDO>
F 4

$$$$
