=
 OpenBabel11042418543D

 27 29  0  0  1  0  0  0  0  0999 V2000
  192.9780  175.6810  143.1420 C   0  0  0  0  0  0  0  0  0  0  0  0
  189.3930  175.6190  145.9360 C   0  0  0  0  0  0  0  0  0  0  0  0
  193.8800  176.0980  142.0370 C   0  0  0  0  0  1  0  0  0  0  0  0
  193.3160  174.6710  143.9040 N   0  0  0  0  0  0  0  0  0  0  0  0
  188.2160  175.8020  146.6540 C   0  0  0  0  0  3  0  0  0  0  0  0
  188.8920  177.4680  144.4450 C   0  0  0  0  0  0  0  0  0  0  0  0
  192.5290  174.1390  145.0360 C   0  0  2  0  0  3  0  0  0  0  0  0
  191.7480  176.3930  143.3530 N   0  0  0  0  0  2  0  0  0  0  0  0
  187.3510  176.8460  146.2600 C   0  0  0  0  0  0  0  0  0  0  0  0
  189.7170  176.4270  144.8670 C   0  0  0  0  0  0  0  0  0  0  0  0
  187.6940  177.6710  145.1610 C   0  0  0  0  0  3  0  0  0  0  0  0
  192.2270  172.7380  144.8000 N   0  0  0  0  0  1  0  0  0  0  0  0
  190.3260  174.7090  146.1430 O   0  0  0  0  0  0  0  0  0  0  0  0
  191.2580  174.9030  145.2290 C   0  0  0  0  0  0  0  0  0  0  0  0
  190.9230  175.9530  144.4210 C   0  0  0  0  0  0  0  0  0  0  0  0
  186.0960  177.0740  146.9930 C   0  0  0  0  0  0  0  0  0  0  0  0
  184.8860  176.6390  146.4650 O   0  0  0  0  0  0  0  0  0  0  0  0
  186.1050  177.6660  148.1060 O   0  0  0  0  0  1  0  0  0  0  0  0
  189.2590  178.2910  143.3330 N   0  0  0  0  0  2  0  0  0  0  0  0
  188.9690  177.9420  141.9480 C   0  0  0  0  0  2  0  0  0  0  0  0
  188.1120  175.6310  141.4460 C   0  0  0  0  0  1  0  0  0  0  0  0
  187.7410  177.0440  141.8680 C   0  0  2  0  0  3  0  0  0  0  0  0
  186.7360  177.6100  140.9720 N   0  0  0  0  0  2  0  0  0  0  0  0
  185.3870  177.9440  141.3270 C   0  0  0  0  0  0  0  0  0  0  0  0
  184.6070  178.4490  140.4310 N   0  0  0  0  0  2  0  0  0  0  0  0
  184.8170  178.9770  143.4970 C   0  0  0  0  0  1  0  0  0  0  0  0
  184.8510  177.6880  142.6980 C   0  0  0  0  0  2  0  0  0  0  0  0
  1  8  1  0  0  0  0
  1  4  2  0  0  0  0
  2 13  1  0  0  0  0
  2  5  1  0  0  0  0
  3  1  1  0  0  0  0
  4  7  1  0  0  0  0
  6 10  1  0  0  0  0
  6 11  2  0  0  0  0
  7 12  1  6  0  0  0
  7 14  1  0  0  0  0
  8 15  1  0  0  0  0
  9  5  2  0  0  0  0
  9 16  1  0  0  0  0
 10  2  2  0  0  0  0
 11  9  1  0  0  0  0
 14 13  1  0  0  0  0
 15 10  1  0  0  0  0
 15 14  2  0  0  0  0
 16 18  1  0  0  0  0
 17 16  2  0  0  0  0
 19  6  1  0  0  0  0
 20 19  1  0  0  0  0
 22 21  1  6  0  0  0
 22 20  1  0  0  0  0
 23 24  1  0  0  0  0
 23 22  1  0  0  0  0
 24 27  1  0  0  0  0
 25 24  2  0  0  0  0
 27 26  1  0  0  0  0
M  END
>  <MODEL>
1

>  <REMARK>
 VINA RESULT:      -6.7      0.000      0.000
  Name = 
  6 active torsions:
  status: ('A' for Active; 'I' for Inactive)
    1  A    between atoms: N_3  and  C_13
    2  A    between atoms: C_7  and  N_16
    3  A    between atoms: C_11  and  C_27
    4  A    between atoms: C_13  and  C_21
    5  A    between atoms: C_15  and  C_20
    6  A    between atoms: N_16  and  C_21
                            x       y       z     vdW  Elec       q    Type
                         _______ _______ _______ _____ _____    ______ ____

>  <TORSDO>
F 6

$$$$
=
 OpenBabel11042418543D

 27 29  0  0  1  0  0  0  0  0999 V2000
  192.3990  176.6030  145.1910 C   0  0  0  0  0  0  0  0  0  0  0  0
  188.1220  177.4930  146.4430 C   0  0  0  0  0  0  0  0  0  0  0  0
  193.5890  176.4180  144.3200 C   0  0  0  0  0  1  0  0  0  0  0  0
  192.5120  176.4270  146.4830 N   0  0  0  0  0  0  0  0  0  0  0  0
  186.7730  177.8070  146.5770 C   0  0  0  0  0  3  0  0  0  0  0  0
  188.0560  177.7830  144.0340 C   0  0  0  0  0  0  0  0  0  0  0  0
  191.4270  176.5720  147.4760 C   0  0  2  0  0  3  0  0  0  0  0  0
  191.1430  176.9710  144.5970 N   0  0  0  0  0  2  0  0  0  0  0  0
  186.0440  178.1190  145.4090 C   0  0  0  0  0  0  0  0  0  0  0  0
  188.7390  177.4810  145.2120 C   0  0  0  0  0  0  0  0  0  0  0  0
  186.6890  178.1050  144.1480 C   0  0  0  0  0  3  0  0  0  0  0  0
  191.2590  175.3220  148.1950 N   0  0  0  0  0  1  0  0  0  0  0  0
  188.9700  177.1770  147.4030 O   0  0  0  0  0  0  0  0  0  0  0  0
  190.1360  176.9560  146.8240 C   0  0  0  0  0  0  0  0  0  0  0  0
  190.0390  177.1340  145.4740 C   0  0  0  0  0  0  0  0  0  0  0  0
  184.6150  178.4570  145.5070 C   0  0  0  0  0  0  0  0  0  0  0  0
  183.9210  178.9000  144.3870 O   0  0  0  0  0  0  0  0  0  0  0  0
  184.0070  178.3500  146.6060 O   0  0  0  0  0  1  0  0  0  0  0  0
  188.7280  177.7650  142.7710 N   0  0  0  0  0  2  0  0  0  0  0  0
  188.1540  177.1810  141.5660 C   0  0  0  0  0  2  0  0  0  0  0  0
  187.2920  174.9180  142.2490 C   0  0  0  0  0  1  0  0  0  0  0  0
  188.3970  175.6770  141.5310 C   0  0  2  0  0  3  0  0  0  0  0  0
  189.7060  175.3440  142.0880 N   0  0  0  0  0  2  0  0  0  0  0  0
  190.6210  174.3750  141.5590 C   0  0  0  0  0  0  0  0  0  0  0  0
  191.7530  174.1910  142.1510 N   0  0  0  0  0  2  0  0  0  0  0  0
  189.7280  172.2030  140.7940 C   0  0  0  0  0  1  0  0  0  0  0  0
  190.2820  173.5470  140.3630 C   0  0  0  0  0  2  0  0  0  0  0  0
  1  4  2  0  0  0  0
  2  5  1  0  0  0  0
  2 13  1  0  0  0  0
  3  1  1  0  0  0  0
  4  7  1  0  0  0  0
  6 11  2  0  0  0  0
  6 10  1  0  0  0  0
  7 12  1  6  0  0  0
  8  1  1  0  0  0  0
  8 15  1  0  0  0  0
  9 16  1  0  0  0  0
  9  5  2  0  0  0  0
 10 15  1  0  0  0  0
 10  2  2  0  0  0  0
 11  9  1  0  0  0  0
 14 13  1  0  0  0  0
 14  7  1  0  0  0  0
 15 14  2  0  0  0  0
 16 18  1  0  0  0  0
 17 16  2  0  0  0  0
 19  6  1  0  0  0  0
 20 19  1  0  0  0  0
 22 20  1  0  0  0  0
 22 23  1  0  0  0  0
 22 21  1  1  0  0  0
 24 23  1  0  0  0  0
 24 25  2  0  0  0  0
 27 26  1  0  0  0  0
 27 24  1  0  0  0  0
M  END
>  <MODEL>
2

>  <REMARK>
 VINA RESULT:      -6.6      2.226      3.774
  Name = 
  6 active torsions:
  status: ('A' for Active; 'I' for Inactive)
    1  A    between atoms: N_3  and  C_13
    2  A    between atoms: C_7  and  N_16
    3  A    between atoms: C_11  and  C_27
    4  A    between atoms: C_13  and  C_21
    5  A    between atoms: C_15  and  C_20
    6  A    between atoms: N_16  and  C_21
                            x       y       z     vdW  Elec       q    Type
                         _______ _______ _______ _____ _____    ______ ____

>  <TORSDO>
F 6

$$$$
=
 OpenBabel11042418543D

 27 29  0  0  1  0  0  0  0  0999 V2000
  190.8760  174.6680  141.9200 C   0  0  0  0  0  0  0  0  0  0  0  0
  186.7620  176.2210  143.0680 C   0  0  0  0  0  0  0  0  0  0  0  0
  192.3510  174.4810  141.9290 C   0  0  0  0  0  1  0  0  0  0  0  0
  190.1480  174.0020  141.0610 N   0  0  0  0  0  0  0  0  0  0  0  0
  185.6290  176.8320  143.5960 C   0  0  0  0  0  3  0  0  0  0  0  0
  188.2350  177.3940  144.6010 C   0  0  0  0  0  0  0  0  0  0  0  0
  188.6780  174.0780  140.9290 C   0  0  2  0  0  3  0  0  0  0  0  0
  190.2770  175.5810  142.8550 N   0  0  0  0  0  2  0  0  0  0  0  0
  185.8010  177.7490  144.6560 C   0  0  0  0  0  0  0  0  0  0  0  0
  188.0210  176.4960  143.5560 C   0  0  0  0  0  0  0  0  0  0  0  0
  187.1000  178.0230  145.1510 C   0  0  0  0  0  3  0  0  0  0  0  0
  188.3340  174.4930  139.5810 N   0  0  0  0  0  1  0  0  0  0  0  0
  186.8150  175.3430  142.0850 O   0  0  0  0  0  0  0  0  0  0  0  0
  188.0870  175.0350  141.9160 C   0  0  0  0  0  0  0  0  0  0  0  0
  188.8660  175.7220  142.8030 C   0  0  0  0  0  0  0  0  0  0  0  0
  184.6290  178.4170  145.2430 C   0  0  0  0  0  0  0  0  0  0  0  0
  184.3890  178.3380  146.6110 O   0  0  0  0  0  1  0  0  0  0  0  0
  183.8310  179.0650  144.5140 O   0  0  0  0  0  0  0  0  0  0  0  0
  189.5560  177.6540  145.0860 N   0  0  0  0  0  2  0  0  0  0  0  0
  190.0010  177.3000  146.4270 C   0  0  0  0  0  2  0  0  0  0  0  0
  189.7040  174.9250  147.2010 C   0  0  0  0  0  1  0  0  0  0  0  0
  190.5930  175.8960  146.4420 C   0  0  2  0  0  3  0  0  0  0  0  0
  191.9470  175.9040  146.9910 N   0  0  0  0  0  2  0  0  0  0  0  0
  193.1450  176.2230  146.2690 C   0  0  0  0  0  0  0  0  0  0  0  0
  194.2770  176.2000  146.8880 N   0  0  0  0  0  2  0  0  0  0  0  0
  194.5070  176.4050  144.2170 C   0  0  0  0  0  1  0  0  0  0  0  0
  193.1180  176.5450  144.8110 C   0  0  0  0  0  2  0  0  0  0  0  0
  1  3  1  0  0  0  0
  1  8  1  0  0  0  0
  2 10  2  0  0  0  0
  2  5  1  0  0  0  0
  4  1  2  0  0  0  0
  5  9  2  0  0  0  0
  6 19  1  0  0  0  0
  6 11  2  0  0  0  0
  7 12  1  6  0  0  0
  7  4  1  0  0  0  0
  7 14  1  0  0  0  0
  9 11  1  0  0  0  0
  9 16  1  0  0  0  0
 10  6  1  0  0  0  0
 13  2  1  0  0  0  0
 14 13  1  0  0  0  0
 14 15  2  0  0  0  0
 15  8  1  0  0  0  0
 15 10  1  0  0  0  0
 16 17  1  0  0  0  0
 18 16  2  0  0  0  0
 19 20  1  0  0  0  0
 20 22  1  0  0  0  0
 22 23  1  0  0  0  0
 22 21  1  1  0  0  0
 24 25  2  0  0  0  0
 24 23  1  0  0  0  0
 26 27  1  0  0  0  0
 27 24  1  0  0  0  0
M  END
>  <MODEL>
3

>  <REMARK>
 VINA RESULT:      -6.5      2.546      5.453
  Name = 
  6 active torsions:
  status: ('A' for Active; 'I' for Inactive)
    1  A    between atoms: N_3  and  C_13
    2  A    between atoms: C_7  and  N_16
    3  A    between atoms: C_11  and  C_27
    4  A    between atoms: C_13  and  C_21
    5  A    between atoms: C_15  and  C_20
    6  A    between atoms: N_16  and  C_21
                            x       y       z     vdW  Elec       q    Type
                         _______ _______ _______ _____ _____    ______ ____

>  <TORSDO>
F 6

$$$$
=
 OpenBabel11042418543D

 27 29  0  0  1  0  0  0  0  0999 V2000
  186.6860  177.7260  141.3820 C   0  0  0  0  0  0  0  0  0  0  0  0
  188.3630  177.3980  145.5940 C   0  0  0  0  0  0  0  0  0  0  0  0
  186.5920  177.6080  139.9040 C   0  0  0  0  0  1  0  0  0  0  0  0
  185.6940  178.2570  142.0510 N   0  0  0  0  0  0  0  0  0  0  0  0
  189.0780  177.1880  146.7690 C   0  0  0  0  0  3  0  0  0  0  0  0
  190.1260  176.4380  144.2280 C   0  0  0  0  0  0  0  0  0  0  0  0
  185.6370  178.4430  143.5160 C   0  0  2  0  0  3  0  0  0  0  0  0
  187.8670  177.2540  142.0520 N   0  0  0  0  0  2  0  0  0  0  0  0
  190.3520  176.5860  146.6740 C   0  0  0  0  0  0  0  0  0  0  0  0
  188.8730  177.0350  144.3670 C   0  0  0  0  0  0  0  0  0  0  0  0
  190.8660  176.2160  145.4070 C   0  0  0  0  0  3  0  0  0  0  0  0
  185.4560  179.8510  143.8190 N   0  0  0  0  0  1  0  0  0  0  0  0
  187.1660  177.9400  145.4690 O   0  0  0  0  0  0  0  0  0  0  0  0
  186.8800  177.9400  144.1810 C   0  0  0  0  0  0  0  0  0  0  0  0
  187.9050  177.3910  143.4640 C   0  0  0  0  0  0  0  0  0  0  0  0
  191.1410  176.3460  147.8920 C   0  0  0  0  0  0  0  0  0  0  0  0
  191.5320  177.4110  148.6960 O   0  0  0  0  0  1  0  0  0  0  0  0
  191.4700  175.1740  148.2190 O   0  0  0  0  0  0  0  0  0  0  0  0
  190.6250  176.0700  142.9380 N   0  0  0  0  0  2  0  0  0  0  0  0
  191.7880  175.2150  142.7440 C   0  0  0  0  0  2  0  0  0  0  0  0
  192.1690  173.9530  140.6010 C   0  0  0  0  0  1  0  0  0  0  0  0
  191.4180  173.9860  141.9230 C   0  0  2  0  0  3  0  0  0  0  0  0
  189.9750  173.9150  141.7060 N   0  0  0  0  0  2  0  0  0  0  0  0
  189.0720  173.0090  142.3540 C   0  0  0  0  0  0  0  0  0  0  0  0
  187.8140  173.0660  142.0720 N   0  0  0  0  0  2  0  0  0  0  0  0
  189.7660  172.5940  144.6880 C   0  0  0  0  0  1  0  0  0  0  0  0
  189.5550  171.9760  143.3190 C   0  0  0  0  0  2  0  0  0  0  0  0
  1  4  2  0  0  0  0
  1  8  1  0  0  0  0
  2  5  1  0  0  0  0
  3  1  1  0  0  0  0
  4  7  1  0  0  0  0
  6 10  1  0  0  0  0
  6 11  2  0  0  0  0
  7 12  1  6  0  0  0
  7 14  1  0  0  0  0
  8 15  1  0  0  0  0
  9  5  2  0  0  0  0
  9 16  1  0  0  0  0
 10  2  2  0  0  0  0
 11  9  1  0  0  0  0
 13  2  1  0  0  0  0
 14 13  1  0  0  0  0
 15 14  2  0  0  0  0
 15 10  1  0  0  0  0
 16 18  2  0  0  0  0
 16 17  1  0  0  0  0
 19  6  1  0  0  0  0
 20 19  1  0  0  0  0
 22 21  1  6  0  0  0
 22 20  1  0  0  0  0
 23 22  1  0  0  0  0
 23 24  1  0  0  0  0
 24 27  1  0  0  0  0
 25 24  2  0  0  0  0
 27 26  1  0  0  0  0
M  END
>  <MODEL>
4

>  <REMARK>
 VINA RESULT:      -6.5      2.432      5.657
  Name = 
  6 active torsions:
  status: ('A' for Active; 'I' for Inactive)
    1  A    between atoms: N_3  and  C_13
    2  A    between atoms: C_7  and  N_16
    3  A    between atoms: C_11  and  C_27
    4  A    between atoms: C_13  and  C_21
    5  A    between atoms: C_15  and  C_20
    6  A    between atoms: N_16  and  C_21
                            x       y       z     vdW  Elec       q    Type
                         _______ _______ _______ _____ _____    ______ ____

>  <TORSDO>
F 6

$$$$
=
 OpenBabel11042418543D

 27 29  0  0  1  0  0  0  0  0999 V2000
  186.4710  177.9090  141.6230 C   0  0  0  0  0  0  0  0  0  0  0  0
  188.2790  177.4600  145.7690 C   0  0  0  0  0  0  0  0  0  0  0  0
  186.3460  177.8720  140.1430 C   0  0  0  0  0  1  0  0  0  0  0  0
  185.4610  178.3250  142.3450 N   0  0  0  0  0  0  0  0  0  0  0  0
  189.0390  177.2350  146.9130 C   0  0  0  0  0  3  0  0  0  0  0  0
  190.0700  176.7150  144.3080 C   0  0  0  0  0  0  0  0  0  0  0  0
  185.4300  178.4200  143.8200 C   0  0  2  0  0  3  0  0  0  0  0  0
  187.7000  177.4870  142.2370 N   0  0  0  0  0  2  0  0  0  0  0  0
  190.3500  176.7360  146.7530 C   0  0  0  0  0  0  0  0  0  0  0  0
  188.7810  177.2080  144.5110 C   0  0  0  0  0  0  0  0  0  0  0  0
  190.8550  176.4790  145.4550 C   0  0  0  0  0  3  0  0  0  0  0  0
  185.1550  179.7900  144.2110 N   0  0  0  0  0  1  0  0  0  0  0  0
  187.0430  177.9180  145.7040 O   0  0  0  0  0  0  0  0  0  0  0  0
  186.7240  177.9730  144.4250 C   0  0  0  0  0  0  0  0  0  0  0  0
  187.7660  177.5440  143.6540 C   0  0  0  0  0  0  0  0  0  0  0  0
  191.1860  176.4840  147.9370 C   0  0  0  0  0  0  0  0  0  0  0  0
  191.5660  177.5350  148.7640 O   0  0  0  0  0  1  0  0  0  0  0  0
  191.5670  175.3140  148.2120 O   0  0  0  0  0  0  0  0  0  0  0  0
  190.5600  176.4620  142.9880 N   0  0  0  0  0  2  0  0  0  0  0  0
  191.1390  175.1890  142.5790 C   0  0  0  0  0  2  0  0  0  0  0  0
  193.1710  174.9120  141.1220 C   0  0  0  0  0  1  0  0  0  0  0  0
  192.6570  175.2920  142.5020 C   0  0  2  0  0  3  0  0  0  0  0  0
  193.2910  174.4790  143.5370 N   0  0  0  0  0  2  0  0  0  0  0  0
  194.1340  174.9670  144.5900 C   0  0  0  0  0  0  0  0  0  0  0  0
  194.6200  174.1320  145.4450 N   0  0  0  0  0  2  0  0  0  0  0  0
  194.5260  176.8380  146.1540 C   0  0  0  0  0  1  0  0  0  0  0  0
  194.4950  176.4130  144.6980 C   0  0  0  0  0  2  0  0  0  0  0  0
  1  8  1  0  0  0  0
  1  4  2  0  0  0  0
  2  5  1  0  0  0  0
  3  1  1  0  0  0  0
  4  7  1  0  0  0  0
  6 10  1  0  0  0  0
  6 11  2  0  0  0  0
  7 12  1  6  0  0  0
  7 14  1  0  0  0  0
  8 15  1  0  0  0  0
  9  5  2  0  0  0  0
  9 16  1  0  0  0  0
 10  2  2  0  0  0  0
 11  9  1  0  0  0  0
 13  2  1  0  0  0  0
 14 13  1  0  0  0  0
 15 14  2  0  0  0  0
 15 10  1  0  0  0  0
 16 18  2  0  0  0  0
 16 17  1  0  0  0  0
 19  6  1  0  0  0  0
 20 19  1  0  0  0  0
 22 21  1  6  0  0  0
 22 20  1  0  0  0  0
 22 23  1  0  0  0  0
 23 24  1  0  0  0  0
 24 27  1  0  0  0  0
 24 25  2  0  0  0  0
 27 26  1  0  0  0  0
M  END
>  <MODEL>
5

>  <REMARK>
 VINA RESULT:      -6.4      2.028      6.570
  Name = 
  6 active torsions:
  status: ('A' for Active; 'I' for Inactive)
    1  A    between atoms: N_3  and  C_13
    2  A    between atoms: C_7  and  N_16
    3  A    between atoms: C_11  and  C_27
    4  A    between atoms: C_13  and  C_21
    5  A    between atoms: C_15  and  C_20
    6  A    between atoms: N_16  and  C_21
                            x       y       z     vdW  Elec       q    Type
                         _______ _______ _______ _____ _____    ______ ____

>  <TORSDO>
F 6

$$$$
=
 OpenBabel11042418543D

 27 29  0  0  1  0  0  0  0  0999 V2000
  185.9430  178.9100  146.1870 C   0  0  0  0  0  0  0  0  0  0  0  0
  187.2660  176.6860  142.4500 C   0  0  0  0  0  0  0  0  0  0  0  0
  185.8840  179.3410  147.6070 C   0  0  0  0  0  1  0  0  0  0  0  0
  185.1270  179.4480  145.3160 N   0  0  0  0  0  0  0  0  0  0  0  0
  187.8400  175.8930  141.4620 C   0  0  0  0  0  3  0  0  0  0  0  0
  188.7140  175.7720  144.1700 C   0  0  0  0  0  0  0  0  0  0  0  0
  185.0630  179.1270  143.8750 C   0  0  2  0  0  3  0  0  0  0  0  0
  186.8950  177.9070  145.7940 N   0  0  0  0  0  2  0  0  0  0  0  0
  188.8800  175.0150  141.8350 C   0  0  0  0  0  0  0  0  0  0  0  0
  187.6900  176.6250  143.7590 C   0  0  0  0  0  0  0  0  0  0  0  0
  189.3100  174.9600  143.1840 C   0  0  0  0  0  3  0  0  0  0  0  0
  183.7280  178.6640  143.5410 N   0  0  0  0  0  1  0  0  0  0  0  0
  186.2910  177.5650  142.3070 O   0  0  0  0  0  0  0  0  0  0  0  0
  186.0660  178.0820  143.5010 C   0  0  0  0  0  0  0  0  0  0  0  0
  186.9070  177.5320  144.4250 C   0  0  0  0  0  0  0  0  0  0  0  0
  189.5140  174.1580  140.8210 C   0  0  0  0  0  0  0  0  0  0  0  0
  190.8380  173.7590  140.9690 O   0  0  0  0  0  1  0  0  0  0  0  0
  188.8660  173.7790  139.8090 O   0  0  0  0  0  0  0  0  0  0  0  0
  189.1330  175.7350  145.5380 N   0  0  0  0  0  2  0  0  0  0  0  0
  190.2000  176.5720  146.0720 C   0  0  0  0  0  2  0  0  0  0  0  0
  191.1670  175.2930  148.0100 C   0  0  0  0  0  1  0  0  0  0  0  0
  191.3590  175.7130  146.5620 C   0  0  2  0  0  3  0  0  0  0  0  0
  192.6350  176.4030  146.3820 N   0  0  0  0  0  2  0  0  0  0  0  0
  193.4540  176.3620  145.2050 C   0  0  0  0  0  0  0  0  0  0  0  0
  194.5570  177.0320  145.1830 N   0  0  0  0  0  2  0  0  0  0  0  0
  192.6070  176.4230  142.8860 C   0  0  0  0  0  1  0  0  0  0  0  0
  193.0810  175.5330  144.0200 C   0  0  0  0  0  2  0  0  0  0  0  0
  1  3  1  0  0  0  0
  2 10  1  0  0  0  0
  4  1  2  0  0  0  0
  5  9  1  0  0  0  0
  5  2  2  0  0  0  0
  6 19  1  0  0  0  0
  7 12  1  1  0  0  0
  7  4  1  0  0  0  0
  8  1  1  0  0  0  0
  9 11  2  0  0  0  0
 10  6  2  0  0  0  0
 10 15  1  0  0  0  0
 11  6  1  0  0  0  0
 13  2  1  0  0  0  0
 13 14  1  0  0  0  0
 14  7  1  0  0  0  0
 14 15  2  0  0  0  0
 15  8  1  0  0  0  0
 16 17  1  0  0  0  0
 16  9  1  0  0  0  0
 18 16  2  0  0  0  0
 19 20  1  0  0  0  0
 20 22  1  0  0  0  0
 22 21  1  1  0  0  0
 23 22  1  0  0  0  0
 24 23  1  0  0  0  0
 25 24  2  0  0  0  0
 26 27  1  0  0  0  0
 27 24  1  0  0  0  0
M  END
>  <MODEL>
6

>  <REMARK>
 VINA RESULT:      -6.4      2.808      7.298
  Name = 
  6 active torsions:
  status: ('A' for Active; 'I' for Inactive)
    1  A    between atoms: N_3  and  C_13
    2  A    between atoms: C_7  and  N_16
    3  A    between atoms: C_11  and  C_27
    4  A    between atoms: C_13  and  C_21
    5  A    between atoms: C_15  and  C_20
    6  A    between atoms: N_16  and  C_21
                            x       y       z     vdW  Elec       q    Type
                         _______ _______ _______ _____ _____    ______ ____

>  <TORSDO>
F 6

$$$$
=
 OpenBabel11042418543D

 27 29  0  0  1  0  0  0  0  0999 V2000
  184.9850  178.0840  144.0840 C   0  0  0  0  0  0  0  0  0  0  0  0
  188.9530  177.1340  146.0840 C   0  0  0  0  0  0  0  0  0  0  0  0
  183.9750  178.2920  143.0130 C   0  0  0  0  0  1  0  0  0  0  0  0
  184.6390  178.2460  145.3360 N   0  0  0  0  0  0  0  0  0  0  0  0
  190.2530  176.8030  146.4580 C   0  0  0  0  0  3  0  0  0  0  0  0
  189.4560  176.8730  143.7240 C   0  0  0  0  0  0  0  0  0  0  0  0
  185.5230  178.0770  146.5080 C   0  0  2  0  0  3  0  0  0  0  0  0
  186.3250  177.7100  143.7240 N   0  0  0  0  0  2  0  0  0  0  0  0
  191.1800  176.4980  145.4380 C   0  0  0  0  0  0  0  0  0  0  0  0
  188.5720  177.1670  144.7610 C   0  0  0  0  0  0  0  0  0  0  0  0
  190.7770  176.5340  144.0810 C   0  0  0  0  0  3  0  0  0  0  0  0
  185.5670  179.3150  147.2640 N   0  0  0  0  0  1  0  0  0  0  0  0
  187.9460  177.4470  146.8770 O   0  0  0  0  0  0  0  0  0  0  0  0
  186.9080  177.6870  146.0980 C   0  0  0  0  0  0  0  0  0  0  0  0
  187.2490  177.5250  144.7860 C   0  0  0  0  0  0  0  0  0  0  0  0
  192.5640  176.1440  145.7900 C   0  0  0  0  0  0  0  0  0  0  0  0
  192.8260  175.0040  146.5430 O   0  0  0  0  0  1  0  0  0  0  0  0
  193.5240  176.8690  145.4150 O   0  0  0  0  0  0  0  0  0  0  0  0
  189.0260  176.9140  142.3590 N   0  0  0  0  0  2  0  0  0  0  0  0
  188.2340  175.8620  141.7370 C   0  0  0  0  0  2  0  0  0  0  0  0
  188.9400  174.1420  140.0430 C   0  0  0  0  0  1  0  0  0  0  0  0
  189.0900  174.6290  141.4750 C   0  0  2  0  0  3  0  0  0  0  0  0
  188.7800  173.5640  142.4250 N   0  0  0  0  0  2  0  0  0  0  0  0
  189.7350  172.8280  143.2020 C   0  0  0  0  0  0  0  0  0  0  0  0
  189.3160  171.9160  144.0130 N   0  0  0  0  0  2  0  0  0  0  0  0
  191.9390  172.4870  144.2630 C   0  0  0  0  0  1  0  0  0  0  0  0
  191.2040  173.0650  143.0690 C   0  0  0  0  0  2  0  0  0  0  0  0
  1  4  2  0  0  0  0
  2  5  1  0  0  0  0
  2 13  1  0  0  0  0
  3  1  1  0  0  0  0
  4  7  1  0  0  0  0
  6 11  2  0  0  0  0
  6 10  1  0  0  0  0
  7 12  1  6  0  0  0
  8  1  1  0  0  0  0
  8 15  1  0  0  0  0
  9 16  1  0  0  0  0
  9  5  2  0  0  0  0
 10 15  1  0  0  0  0
 10  2  2  0  0  0  0
 11  9  1  0  0  0  0
 14  7  1  0  0  0  0
 14 13  1  0  0  0  0
 15 14  2  0  0  0  0
 16 17  1  0  0  0  0
 18 16  2  0  0  0  0
 19  6  1  0  0  0  0
 20 19  1  0  0  0  0
 22 21  1  6  0  0  0
 22 20  1  0  0  0  0
 22 23  1  0  0  0  0
 23 24  1  0  0  0  0
 24 25  2  0  0  0  0
 27 24  1  0  0  0  0
 27 26  1  0  0  0  0
M  END
>  <MODEL>
7

>  <REMARK>
 VINA RESULT:      -6.3      2.466      6.234
  Name = 
  6 active torsions:
  status: ('A' for Active; 'I' for Inactive)
    1  A    between atoms: N_3  and  C_13
    2  A    between atoms: C_7  and  N_16
    3  A    between atoms: C_11  and  C_27
    4  A    between atoms: C_13  and  C_21
    5  A    between atoms: C_15  and  C_20
    6  A    between atoms: N_16  and  C_21
                            x       y       z     vdW  Elec       q    Type
                         _______ _______ _______ _____ _____    ______ ____

>  <TORSDO>
F 6

$$$$
=
 OpenBabel11042418543D

 27 29  0  0  1  0  0  0  0  0999 V2000
  191.5430  174.7160  144.6240 C   0  0  0  0  0  0  0  0  0  0  0  0
  187.8580  177.3290  145.1260 C   0  0  0  0  0  0  0  0  0  0  0  0
  192.4650  173.6960  144.0610 C   0  0  0  0  0  1  0  0  0  0  0  0
  191.9040  175.3960  145.6830 N   0  0  0  0  0  0  0  0  0  0  0  0
  186.6450  178.0080  145.0710 C   0  0  0  0  0  3  0  0  0  0  0  0
  187.3180  175.9940  143.1720 C   0  0  0  0  0  0  0  0  0  0  0  0
  191.1030  176.4390  146.3580 C   0  0  2  0  0  3  0  0  0  0  0  0
  190.2690  174.9360  143.9970 N   0  0  0  0  0  2  0  0  0  0  0  0
  185.7420  177.6730  144.0380 C   0  0  0  0  0  0  0  0  0  0  0  0
  188.1800  176.3550  144.2070 C   0  0  0  0  0  0  0  0  0  0  0  0
  186.0840  176.6700  143.0980 C   0  0  0  0  0  3  0  0  0  0  0  0
  190.8860  176.0620  147.7430 N   0  0  0  0  0  1  0  0  0  0  0  0
  188.8290  177.4940  146.0040 O   0  0  0  0  0  0  0  0  0  0  0  0
  189.7850  176.6430  145.6790 C   0  0  0  0  0  0  0  0  0  0  0  0
  189.4270  175.9220  144.5760 C   0  0  0  0  0  0  0  0  0  0  0  0
  184.4480  178.3670  143.9430 C   0  0  0  0  0  0  0  0  0  0  0  0
  183.6940  178.2890  142.7780 O   0  0  0  0  0  0  0  0  0  0  0  0
  184.0120  179.0400  144.9160 O   0  0  0  0  0  1  0  0  0  0  0  0
  187.6850  174.9790  142.2320 N   0  0  0  0  0  2  0  0  0  0  0  0
  188.1870  175.2690  140.8960 C   0  0  0  0  0  2  0  0  0  0  0  0
  188.2990  173.5790  139.0360 C   0  0  0  0  0  1  0  0  0  0  0  0
  188.9310  174.0660  140.3300 C   0  0  2  0  0  3  0  0  0  0  0  0
  189.0080  172.9880  141.3130 N   0  0  0  0  0  2  0  0  0  0  0  0
  190.1340  172.1260  141.5280 C   0  0  0  0  0  0  0  0  0  0  0  0
  190.0650  171.2180  142.4420 N   0  0  0  0  0  2  0  0  0  0  0  0
  191.3540  171.1830  139.5990 C   0  0  0  0  0  1  0  0  0  0  0  0
  191.3710  172.2300  140.6970 C   0  0  0  0  0  2  0  0  0  0  0  0
  1  4  2  0  0  0  0
  2 13  1  0  0  0  0
  3  1  1  0  0  0  0
  4  7  1  0  0  0  0
  5  2  1  0  0  0  0
  6 10  1  0  0  0  0
  7 12  1  1  0  0  0
  8 15  1  0  0  0  0
  8  1  1  0  0  0  0
  9  5  2  0  0  0  0
 10 15  1  0  0  0  0
 10  2  2  0  0  0  0
 11  6  2  0  0  0  0
 11  9  1  0  0  0  0
 14 13  1  0  0  0  0
 14  7  1  0  0  0  0
 15 14  2  0  0  0  0
 16  9  1  0  0  0  0
 16 18  1  0  0  0  0
 17 16  2  0  0  0  0
 19  6  1  0  0  0  0
 20 19  1  0  0  0  0
 22 21  1  6  0  0  0
 22 20  1  0  0  0  0
 22 23  1  0  0  0  0
 23 24  1  0  0  0  0
 24 25  2  0  0  0  0
 26 27  1  0  0  0  0
 27 24  1  0  0  0  0
M  END
>  <MODEL>
8

>  <REMARK>
 VINA RESULT:      -6.2      2.827      4.614
  Name = 
  6 active torsions:
  status: ('A' for Active; 'I' for Inactive)
    1  A    between atoms: N_3  and  C_13
    2  A    between atoms: C_7  and  N_16
    3  A    between atoms: C_11  and  C_27
    4  A    between atoms: C_13  and  C_21
    5  A    between atoms: C_15  and  C_20
    6  A    between atoms: N_16  and  C_21
                            x       y       z     vdW  Elec       q    Type
                         _______ _______ _______ _____ _____    ______ ____

>  <TORSDO>
F 6

$$$$
=
 OpenBabel11042418543D

 27 29  0  0  1  0  0  0  0  0999 V2000
  185.1720  178.2350  144.7170 C   0  0  0  0  0  0  0  0  0  0  0  0
  188.9930  176.8370  146.7400 C   0  0  0  0  0  0  0  0  0  0  0  0
  184.2480  178.7120  143.6540 C   0  0  0  0  0  1  0  0  0  0  0  0
  184.7160  178.0450  145.9290 N   0  0  0  0  0  0  0  0  0  0  0  0
  190.2680  176.4370  147.1280 C   0  0  0  0  0  3  0  0  0  0  0  0
  189.7020  177.2360  144.4530 C   0  0  0  0  0  0  0  0  0  0  0  0
  185.5050  177.5760  147.0870 C   0  0  2  0  0  3  0  0  0  0  0  0
  186.5510  177.9940  144.3930 N   0  0  0  0  0  2  0  0  0  0  0  0
  191.2900  176.4350  146.1540 C   0  0  0  0  0  0  0  0  0  0  0  0
  188.7230  177.2230  145.4460 C   0  0  0  0  0  0  0  0  0  0  0  0
  191.0000  176.8340  144.8250 C   0  0  0  0  0  3  0  0  0  0  0  0
  185.4360  178.5620  148.1500 N   0  0  0  0  0  1  0  0  0  0  0  0
  187.9110  176.9060  147.4930 O   0  0  0  0  0  0  0  0  0  0  0  0
  186.9340  177.3340  146.7160 C   0  0  0  0  0  0  0  0  0  0  0  0
  187.3900  177.5410  145.4460 C   0  0  0  0  0  0  0  0  0  0  0  0
  192.6520  176.0190  146.5220 C   0  0  0  0  0  0  0  0  0  0  0  0
  193.0080  174.6760  146.4900 O   0  0  0  0  0  0  0  0  0  0  0  0
  193.5090  176.8750  146.8710 O   0  0  0  0  0  1  0  0  0  0  0  0
  189.3870  177.6410  143.1170 N   0  0  0  0  0  2  0  0  0  0  0  0
  189.2690  176.7080  142.0040 C   0  0  0  0  0  2  0  0  0  0  0  0
  187.5590  174.9200  142.4550 C   0  0  0  0  0  1  0  0  0  0  0  0
  187.8210  176.2750  141.8190 C   0  0  2  0  0  3  0  0  0  0  0  0
  187.4520  176.2690  140.4050 N   0  0  0  0  0  2  0  0  0  0  0  0
  186.5460  177.1820  139.7700 C   0  0  0  0  0  0  0  0  0  0  0  0
  186.3200  177.0640  138.5040 N   0  0  0  0  0  2  0  0  0  0  0  0
  184.3670  178.2850  140.1380 C   0  0  0  0  0  1  0  0  0  0  0  0
  185.8280  178.2400  140.5420 C   0  0  0  0  0  2  0  0  0  0  0  0
  1  4  2  0  0  0  0
  2  5  1  0  0  0  0
  2 13  1  0  0  0  0
  3  1  1  0  0  0  0
  4  7  1  0  0  0  0
  6 11  2  0  0  0  0
  6 10  1  0  0  0  0
  7 12  1  1  0  0  0
  8  1  1  0  0  0  0
  8 15  1  0  0  0  0
  9 16  1  0  0  0  0
  9  5  2  0  0  0  0
 10 15  1  0  0  0  0
 10  2  2  0  0  0  0
 11  9  1  0  0  0  0
 14  7  1  0  0  0  0
 14 13  1  0  0  0  0
 15 14  2  0  0  0  0
 16 18  1  0  0  0  0
 17 16  2  0  0  0  0
 19  6  1  0  0  0  0
 20 19  1  0  0  0  0
 22 20  1  0  0  0  0
 22 21  1  6  0  0  0
 23 22  1  0  0  0  0
 24 23  1  0  0  0  0
 24 27  1  0  0  0  0
 25 24  2  0  0  0  0
 26 27  1  0  0  0  0
M  END
>  <MODEL>
9

>  <REMARK>
 VINA RESULT:      -6.1      2.345      5.272
  Name = 
  6 active torsions:
  status: ('A' for Active; 'I' for Inactive)
    1  A    between atoms: N_3  and  C_13
    2  A    between atoms: C_7  and  N_16
    3  A    between atoms: C_11  and  C_27
    4  A    between atoms: C_13  and  C_21
    5  A    between atoms: C_15  and  C_20
    6  A    between atoms: N_16  and  C_21
                            x       y       z     vdW  Elec       q    Type
                         _______ _______ _______ _____ _____    ______ ____

>  <TORSDO>
F 6

$$$$
