=
 OpenBabel11042417093D

 38 40  0  0  1  0  0  0  0  0999 V2000
  190.6170  172.9100  141.4360 C   0  0  0  0  0  0  0  0  0  0  0  0
  189.5840  172.3740  140.8740 N   0  0  0  0  0  2  0  0  0  0  0  0
  194.0960  175.3440  143.5790 C   0  0  1  0  0  3  0  0  0  0  0  0
  192.4860  175.0670  141.7660 O   0  0  0  0  0  0  0  0  0  0  0  0
  191.9120  172.9430  140.7280 C   0  0  0  0  0  0  0  0  0  0  0  0
  191.3840  175.2830  146.0460 C   0  0  0  0  0  2  0  0  0  0  0  0
  189.6400  174.1700  143.2670 N   0  0  0  0  0  0  0  0  0  0  0  0
  193.5080  171.8670  139.2630 C   0  0  0  0  0  0  0  0  0  0  0  0
  192.8490  173.9660  140.9720 C   0  0  0  0  0  0  0  0  0  0  0  0
  194.4150  172.8430  139.5450 N   0  0  0  0  0  0  0  0  0  0  0  0
  189.5250  174.6460  144.4710 C   0  0  0  0  0  0  0  0  0  0  0  0
  193.2250  174.8110  144.5620 O   0  0  0  0  0  0  0  0  0  0  0  0
  188.0900  176.1220  145.9930 C   0  0  0  0  0  0  0  0  0  0  0  0
  192.2470  171.8990  139.8570 C   0  0  0  0  0  3  0  0  0  0  0  0
  190.4470  174.1760  145.5680 C   0  0  0  0  0  2  0  0  0  0  0  0
  194.3130  176.4820  141.4390 O   0  0  0  0  0  1  0  0  0  0  0  0
  188.5320  175.6520  144.7120 N   0  0  0  0  0  2  0  0  0  0  0  0
  192.2930  175.7940  144.9380 C   0  0  0  0  0  2  0  0  0  0  0  0
  193.8420  170.7960  138.3800 N   0  0  0  0  0  2  0  0  0  0  0  0
  188.4390  175.5350  147.0520 O   0  0  0  0  0  0  0  0  0  0  0  0
  190.6020  173.1360  142.9120 C   0  0  0  0  0  2  0  0  0  0  0  0
  194.1140  173.8770  140.3730 C   0  0  0  0  0  3  0  0  0  0  0  0
  195.1420  170.7000  137.7370 C   0  0  0  0  0  1  0  0  0  0  0  0
  193.3940  175.9890  142.3700 C   0  0  2  0  0  3  0  0  0  0  0  0
  186.8470  177.8790  147.2090 C   0  0  0  0  0  3  0  0  0  0  0  0
  186.6020  177.8890  144.9400 N   0  0  0  0  0  0  0  0  0  0  0  0
  185.8790  178.8610  145.3820 C   0  0  0  0  0  0  0  0  0  0  0  0
  187.1950  177.2830  146.0770 C   0  0  0  0  0  0  0  0  0  0  0  0
  185.9320  179.0070  146.8640 C   0  0  0  0  0  2  0  0  0  0  0  0
  183.9530  179.0170  143.8480 C   0  0  0  0  0  1  0  0  0  0  0  0
  185.1080  179.7670  144.4860 C   0  0  0  0  0  2  0  0  0  0  0  0
  195.2710  176.1400  144.1650 C   0  0  0  0  0  2  0  0  0  0  0  0
  196.6580  174.1680  143.9620 N   0  0  0  0  0  0  0  0  0  0  0  0
  196.4330  175.2890  144.5620 C   0  0  0  0  0  3  0  0  0  0  0  0
  197.7440  173.3750  144.3430 N   0  0  0  0  0  2  0  0  0  0  0  0
  197.5490  171.9760  144.6800 C   0  0  0  0  0  2  0  0  0  0  0  0
  196.6810  170.4550  146.2320 C   0  0  0  0  0  1  0  0  0  0  0  0
  196.7260  171.8620  145.8730 N   0  0  0  0  0  2  0  0  0  0  0  0
  1 21  1  0  0  0  0
  2  1  2  0  0  0  0
  3 32  1  1  0  0  0
  3 12  1  0  0  0  0
  4 24  1  0  0  0  0
  5  9  1  0  0  0  0
  5  1  1  0  0  0  0
  7 11  2  0  0  0  0
  8 10  2  0  0  0  0
  8 14  1  0  0  0  0
  9  4  1  0  0  0  0
 10 22  1  0  0  0  0
 11 17  1  0  0  0  0
 11 15  1  0  0  0  0
 12 18  1  0  0  0  0
 13 28  1  0  0  0  0
 13 20  2  0  0  0  0
 14  5  2  0  0  0  0
 15  6  1  0  0  0  0
 17 13  1  0  0  0  0
 18  6  1  0  0  0  0
 19  8  1  0  0  0  0
 21  7  1  0  0  0  0
 22  9  2  0  0  0  0
 23 19  1  0  0  0  0
 24 16  1  6  0  0  0
 24  3  1  0  0  0  0
 26 27  2  0  0  0  0
 26 28  1  0  0  0  0
 27 29  1  0  0  0  0
 28 25  2  0  0  0  0
 29 25  1  0  0  0  0
 30 31  1  0  0  0  0
 31 27  1  0  0  0  0
 32 34  1  0  0  0  0
 33 35  1  0  0  0  0
 33 34  2  0  0  0  0
 35 36  1  0  0  0  0
 36 38  1  0  0  0  0
 38 37  1  0  0  0  0
M  END
>  <MODEL>
1

>  <REMARK>
 VINA RESULT:      -6.8      0.000      0.000
  Name = 
  7 active torsions:
  status: ('A' for Active; 'I' for Inactive)
    1  A    between atoms: C_5  and  C_10
    2  A    between atoms: C_6  and  C_19
    3  A    between atoms: C_10  and  C_32
    4  A    between atoms: N_12  and  N_14
    5  A    between atoms: N_12  and  C_31
    6  A    between atoms: C_13  and  C_24
    7  A    between atoms: C_31  and  N_37
                            x       y       z     vdW  Elec       q    Type
                         _______ _______ _______ _____ _____    ______ ____

>  <TORSDO>
F 7

$$$$
=
 OpenBabel11042417093D

 38 40  0  0  1  0  0  0  0  0999 V2000
  191.0500  174.5180  142.0420 C   0  0  0  0  0  0  0  0  0  0  0  0
  191.1300  173.9090  140.9050 N   0  0  0  0  0  2  0  0  0  0  0  0
  190.9600  176.2810  146.4580 C   0  0  1  0  0  3  0  0  0  0  0  0
  190.2520  174.6360  144.8000 O   0  0  0  0  0  0  0  0  0  0  0  0
  189.7760  175.1310  142.4660 C   0  0  0  0  0  0  0  0  0  0  0  0
  194.4700  175.3680  145.9220 C   0  0  0  0  0  2  0  0  0  0  0  0
  193.0510  173.7700  143.1950 N   0  0  0  0  0  0  0  0  0  0  0  0
  187.7590  176.3400  141.8960 C   0  0  0  0  0  0  0  0  0  0  0  0
  189.4460  175.2550  143.8300 C   0  0  0  0  0  0  0  0  0  0  0  0
  187.4800  176.4850  143.2210 N   0  0  0  0  0  0  0  0  0  0  0  0
  194.1140  173.8590  143.9370 C   0  0  0  0  0  0  0  0  0  0  0  0
  192.2780  176.3730  145.9460 O   0  0  0  0  0  0  0  0  0  0  0  0
  196.0760  172.5420  144.9250 C   0  0  0  0  0  0  0  0  0  0  0  0
  188.9140  175.6660  141.5010 C   0  0  0  0  0  3  0  0  0  0  0  0
  194.6040  175.2050  144.4100 C   0  0  0  0  0  2  0  0  0  0  0  0
  188.9550  174.9260  146.7180 O   0  0  0  0  0  1  0  0  0  0  0  0
  194.7780  172.6480  144.3240 N   0  0  0  0  0  2  0  0  0  0  0  0
  193.0260  175.2690  146.3920 C   0  0  0  0  0  2  0  0  0  0  0  0
  186.8900  176.8860  140.9050 N   0  0  0  0  0  2  0  0  0  0  0  0
  196.8340  173.5460  145.0050 O   0  0  0  0  0  0  0  0  0  0  0  0
  192.3080  174.9330  142.7310 C   0  0  0  0  0  2  0  0  0  0  0  0
  188.2880  175.9630  144.1810 C   0  0  0  0  0  3  0  0  0  0  0  0
  185.6750  177.6050  141.2520 C   0  0  0  0  0  1  0  0  0  0  0  0
  190.2520  174.9400  146.1960 C   0  0  2  0  0  3  0  0  0  0  0  0
  197.6650  170.6520  145.0370 C   0  0  0  0  0  3  0  0  0  0  0  0
  195.8360  170.4850  146.3920 N   0  0  0  0  0  0  0  0  0  0  0  0
  196.5260  169.4130  146.5880 C   0  0  0  0  0  0  0  0  0  0  0  0
  196.5450  171.2460  145.4280 C   0  0  0  0  0  0  0  0  0  0  0  0
  197.7770  169.3620  145.7790 C   0  0  0  0  0  2  0  0  0  0  0  0
  194.6120  168.3160  147.6930 C   0  0  0  0  0  1  0  0  0  0  0  0
  196.1240  168.3600  147.5620 C   0  0  0  0  0  2  0  0  0  0  0  0
  190.8120  176.8400  147.8820 C   0  0  0  0  0  2  0  0  0  0  0  0
  188.5930  177.7620  147.6050 N   0  0  0  0  0  0  0  0  0  0  0  0
  189.8120  177.9430  147.9910 C   0  0  0  0  0  3  0  0  0  0  0  0
  187.6630  178.8020  147.7060 N   0  0  0  0  0  2  0  0  0  0  0  0
  186.2450  178.5370  147.5400 C   0  0  0  0  0  2  0  0  0  0  0  0
  185.1960  176.8250  146.3390 C   0  0  0  0  0  1  0  0  0  0  0  0
  185.9860  178.0370  146.2000 N   0  0  0  0  0  2  0  0  0  0  0  0
  1  5  1  0  0  0  0
  1 21  1  0  0  0  0
  2  1  2  0  0  0  0
  3 32  1  1  0  0  0
  4 24  1  0  0  0  0
  5  9  1  0  0  0  0
  6 18  1  0  0  0  0
  7 11  2  0  0  0  0
  8 10  2  0  0  0  0
  9 22  2  0  0  0  0
  9  4  1  0  0  0  0
 10 22  1  0  0  0  0
 11 17  1  0  0  0  0
 11 15  1  0  0  0  0
 12 18  1  0  0  0  0
 12  3  1  0  0  0  0
 13 20  2  0  0  0  0
 13 28  1  0  0  0  0
 14  8  1  0  0  0  0
 14  5  2  0  0  0  0
 15  6  1  0  0  0  0
 17 13  1  0  0  0  0
 19 23  1  0  0  0  0
 19  8  1  0  0  0  0
 21  7  1  0  0  0  0
 24  3  1  0  0  0  0
 24 16  1  6  0  0  0
 25 28  2  0  0  0  0
 25 29  1  0  0  0  0
 26 27  2  0  0  0  0
 27 31  1  0  0  0  0
 28 26  1  0  0  0  0
 29 27  1  0  0  0  0
 31 30  1  0  0  0  0
 32 34  1  0  0  0  0
 33 35  1  0  0  0  0
 33 34  2  0  0  0  0
 36 35  1  0  0  0  0
 38 37  1  0  0  0  0
 38 36  1  0  0  0  0
M  END
>  <MODEL>
2

>  <REMARK>
 VINA RESULT:      -6.5      2.728      9.057
  Name = 
  7 active torsions:
  status: ('A' for Active; 'I' for Inactive)
    1  A    between atoms: C_5  and  C_10
    2  A    between atoms: C_6  and  C_19
    3  A    between atoms: C_10  and  C_32
    4  A    between atoms: N_12  and  N_14
    5  A    between atoms: N_12  and  C_31
    6  A    between atoms: C_13  and  C_24
    7  A    between atoms: C_31  and  N_37
                            x       y       z     vdW  Elec       q    Type
                         _______ _______ _______ _____ _____    ______ ____

>  <TORSDO>
F 7

$$$$
=
 OpenBabel11042417093D

 38 40  0  0  1  0  0  0  0  0999 V2000
  191.9820  174.3890  144.1460 C   0  0  0  0  0  0  0  0  0  0  0  0
  193.1790  173.9590  144.3790 N   0  0  0  0  0  2  0  0  0  0  0  0
  187.7380  176.0150  142.7460 C   0  0  1  0  0  3  0  0  0  0  0  0
  190.1520  176.2790  142.9910 O   0  0  0  0  0  0  0  0  0  0  0  0
  191.4440  175.5310  144.9120 C   0  0  0  0  0  0  0  0  0  0  0  0
  188.2350  172.9670  140.7690 C   0  0  0  0  0  2  0  0  0  0  0  0
  191.4440  173.3570  142.0160 N   0  0  0  0  0  0  0  0  0  0  0  0
  191.2580  176.7270  147.0070 C   0  0  0  0  0  0  0  0  0  0  0  0
  190.4810  176.3940  144.3520 C   0  0  0  0  0  0  0  0  0  0  0  0
  190.2990  177.5230  146.4600 N   0  0  0  0  0  0  0  0  0  0  0  0
  190.7190  172.7500  141.1250 C   0  0  0  0  0  0  0  0  0  0  0  0
  187.8210  174.6280  142.4680 O   0  0  0  0  0  0  0  0  0  0  0  0
  190.7080  171.8140  138.7410 C   0  0  0  0  0  0  0  0  0  0  0  0
  191.8390  175.7150  146.2430 C   0  0  0  0  0  3  0  0  0  0  0  0
  189.3550  172.2160  141.4850 C   0  0  0  0  0  2  0  0  0  0  0  0
  188.8390  178.1840  142.6820 O   0  0  0  0  0  1  0  0  0  0  0  0
  191.2320  172.6400  139.7900 N   0  0  0  0  0  2  0  0  0  0  0  0
  188.2040  174.4450  141.1270 C   0  0  0  0  0  2  0  0  0  0  0  0
  191.6640  176.9030  148.3640 N   0  0  0  0  0  2  0  0  0  0  0  0
  189.8170  170.9560  138.9790 O   0  0  0  0  0  0  0  0  0  0  0  0
  191.0300  173.5130  143.4030 C   0  0  0  0  0  2  0  0  0  0  0  0
  189.9060  177.3800  145.1670 C   0  0  0  0  0  3  0  0  0  0  0  0
  191.0920  177.9330  149.2150 C   0  0  0  0  0  1  0  0  0  0  0  0
  188.9890  176.8300  142.3700 C   0  0  2  0  0  3  0  0  0  0  0  0
  191.0280  171.0620  136.4090 C   0  0  0  0  0  3  0  0  0  0  0  0
  192.0290  173.0390  136.9520 N   0  0  0  0  0  0  0  0  0  0  0  0
  192.3180  172.8210  135.7150 C   0  0  0  0  0  0  0  0  0  0  0  0
  191.2340  171.9440  137.3770 C   0  0  2  0  0  3  0  0  0  0  0  0
  191.7270  171.5590  135.1870 C   0  0  0  0  0  3  0  0  0  0  0  0
  194.0930  174.5330  135.7760 C   0  0  0  0  0  1  0  0  0  0  0  0
  193.1240  173.7670  134.8940 C   0  0  0  0  0  2  0  0  0  0  0  0
  186.3950  176.6430  142.3450 C   0  0  0  0  0  2  0  0  0  0  0  0
  185.0350  178.2450  143.5450 N   0  0  0  0  0  0  0  0  0  0  0  0
  185.5600  177.0650  143.5100 C   0  0  0  0  0  3  0  0  0  0  0  0
  184.2590  178.6340  144.6410 N   0  0  0  0  0  2  0  0  0  0  0  0
  184.5400  178.1050  145.9640 C   0  0  0  0  0  2  0  0  0  0  0  0
  186.3860  178.2160  147.3970 C   0  0  0  0  0  1  0  0  0  0  0  0
  185.4020  179.0210  146.6930 N   0  0  0  0  0  2  0  0  0  0  0  0
  1  2  2  0  0  0  0
  1  5  1  0  0  0  0
  3 32  1  6  0  0  0
  4  9  1  0  0  0  0
  5 14  2  0  0  0  0
  6 18  1  0  0  0  0
  6 15  1  0  0  0  0
  7 21  1  0  0  0  0
  8 19  1  0  0  0  0
  9  5  1  0  0  0  0
  9 22  2  0  0  0  0
 10  8  2  0  0  0  0
 11 15  1  0  0  0  0
 11  7  2  0  0  0  0
 12  3  1  0  0  0  0
 13 20  2  0  0  0  0
 13 17  1  0  0  0  0
 14  8  1  0  0  0  0
 17 11  1  0  0  0  0
 18 12  1  0  0  0  0
 19 23  1  0  0  0  0
 21  1  1  0  0  0  0
 22 10  1  0  0  0  0
 24 16  1  1  0  0  0
 24  3  1  0  0  0  0
 24  4  1  0  0  0  0
 25 28  1  0  0  0  0
 26 28  1  0  0  0  0
 27 26  2  0  0  0  0
 28 13  1  1  0  0  0
 29 27  1  0  0  0  0
 29 25  2  0  0  0  0
 31 27  1  0  0  0  0
 31 30  1  0  0  0  0
 32 34  1  0  0  0  0
 33 35  1  0  0  0  0
 34 33  2  0  0  0  0
 35 36  1  0  0  0  0
 36 38  1  0  0  0  0
 38 37  1  0  0  0  0
M  END
>  <MODEL>
3

>  <REMARK>
 VINA RESULT:      -6.5      3.115      9.590
  Name = 
  7 active torsions:
  status: ('A' for Active; 'I' for Inactive)
    1  A    between atoms: C_5  and  C_10
    2  A    between atoms: C_6  and  C_19
    3  A    between atoms: C_10  and  C_32
    4  A    between atoms: N_12  and  N_14
    5  A    between atoms: N_12  and  C_31
    6  A    between atoms: C_13  and  C_24
    7  A    between atoms: C_31  and  N_37
                            x       y       z     vdW  Elec       q    Type
                         _______ _______ _______ _____ _____    ______ ____

>  <TORSDO>
F 7

$$$$
=
 OpenBabel11042417093D

 38 40  0  0  1  0  0  0  0  0999 V2000
  192.4110  173.9290  139.3510 C   0  0  0  0  0  0  0  0  0  0  0  0
  191.4990  173.6980  138.4640 N   0  0  0  0  0  2  0  0  0  0  0  0
  195.4280  175.1940  142.8030 C   0  0  1  0  0  3  0  0  0  0  0  0
  194.1570  175.7050  140.7820 O   0  0  0  0  0  0  0  0  0  0  0  0
  193.8070  174.1630  138.9330 C   0  0  0  0  0  0  0  0  0  0  0  0
  192.3350  174.3380  144.5750 C   0  0  0  0  0  2  0  0  0  0  0  0
  191.1120  174.4480  141.3350 N   0  0  0  0  0  0  0  0  0  0  0  0
  195.6500  173.6440  137.4540 C   0  0  0  0  0  0  0  0  0  0  0  0
  194.6700  174.9700  139.7000 C   0  0  0  0  0  0  0  0  0  0  0  0
  196.4770  174.3950  138.2320 N   0  0  0  0  0  0  0  0  0  0  0  0
  190.7840  174.4370  142.5930 C   0  0  0  0  0  0  0  0  0  0  0  0
  194.4110  174.3720  143.3500 O   0  0  0  0  0  0  0  0  0  0  0  0
  189.0840  175.2960  144.3040 C   0  0  0  0  0  0  0  0  0  0  0  0
  194.3050  173.5120  137.7980 C   0  0  0  0  0  3  0  0  0  0  0  0
  191.5130  173.5420  143.5640 C   0  0  0  0  0  2  0  0  0  0  0  0
  195.9890  177.0450  141.3260 O   0  0  0  0  0  1  0  0  0  0  0  0
  189.7480  175.3250  143.0330 N   0  0  0  0  0  2  0  0  0  0  0  0
  193.4110  175.1850  143.9130 C   0  0  0  0  0  2  0  0  0  0  0  0
  196.1480  172.9730  136.2970 N   0  0  0  0  0  2  0  0  0  0  0  0
  189.2570  174.3350  145.1000 O   0  0  0  0  0  0  0  0  0  0  0  0
  192.1390  173.5790  140.7760 C   0  0  0  0  0  2  0  0  0  0  0  0
  196.0200  175.0520  139.3300 C   0  0  0  0  0  3  0  0  0  0  0  0
  197.5410  173.0630  135.8900 C   0  0  0  0  0  1  0  0  0  0  0  0
  194.9330  176.2830  141.8340 C   0  0  2  0  0  3  0  0  0  0  0  0
  187.8980  177.4280  143.9080 C   0  0  0  0  0  3  0  0  0  0  0  0
  187.4740  176.4220  145.9120 N   0  0  0  0  0  0  0  0  0  0  0  0
  186.7780  177.5070  145.9030 C   0  0  0  0  0  0  0  0  0  0  0  0
  188.1680  176.3810  144.6760 C   0  0  2  0  0  3  0  0  0  0  0  0
  186.9300  178.2930  144.6460 C   0  0  0  0  0  3  0  0  0  0  0  0
  184.4890  178.2060  146.5030 C   0  0  0  0  0  1  0  0  0  0  0  0
  185.8810  177.9020  147.0250 C   0  0  0  0  0  2  0  0  0  0  0  0
  196.4710  175.6500  143.8330 C   0  0  0  0  0  2  0  0  0  0  0  0
  196.5130  174.1790  145.7530 N   0  0  0  0  0  0  0  0  0  0  0  0
  197.0520  174.5300  144.6340 C   0  0  0  0  0  3  0  0  0  0  0  0
  197.0660  173.1330  146.4990 N   0  0  0  0  0  2  0  0  0  0  0  0
  196.8130  171.7520  146.1270 C   0  0  0  0  0  2  0  0  0  0  0  0
  195.4770  170.9480  144.3830 C   0  0  0  0  0  1  0  0  0  0  0  0
  195.4380  171.6020  145.6800 N   0  0  0  0  0  2  0  0  0  0  0  0
  1 21  1  0  0  0  0
  2  1  2  0  0  0  0
  3 12  1  0  0  0  0
  3 32  1  1  0  0  0
  4 24  1  0  0  0  0
  5  1  1  0  0  0  0
  5  9  1  0  0  0  0
  7 11  2  0  0  0  0
  8 14  1  0  0  0  0
  8 10  2  0  0  0  0
  9  4  1  0  0  0  0
 10 22  1  0  0  0  0
 11 17  1  0  0  0  0
 11 15  1  0  0  0  0
 12 18  1  0  0  0  0
 13 20  2  0  0  0  0
 14  5  2  0  0  0  0
 15  6  1  0  0  0  0
 17 13  1  0  0  0  0
 18  6  1  0  0  0  0
 19  8  1  0  0  0  0
 21  7  1  0  0  0  0
 22  9  2  0  0  0  0
 23 19  1  0  0  0  0
 24 16  1  6  0  0  0
 24  3  1  0  0  0  0
 25 29  2  0  0  0  0
 25 28  1  0  0  0  0
 27 26  2  0  0  0  0
 27 31  1  0  0  0  0
 28 13  1  1  0  0  0
 28 26  1  0  0  0  0
 29 27  1  0  0  0  0
 30 31  1  0  0  0  0
 32 34  1  0  0  0  0
 33 35  1  0  0  0  0
 34 33  2  0  0  0  0
 36 35  1  0  0  0  0
 37 38  1  0  0  0  0
 38 36  1  0  0  0  0
M  END
>  <MODEL>
4

>  <REMARK>
 VINA RESULT:      -6.5      1.916      2.455
  Name = 
  7 active torsions:
  status: ('A' for Active; 'I' for Inactive)
    1  A    between atoms: C_5  and  C_10
    2  A    between atoms: C_6  and  C_19
    3  A    between atoms: C_10  and  C_32
    4  A    between atoms: N_12  and  N_14
    5  A    between atoms: N_12  and  C_31
    6  A    between atoms: C_13  and  C_24
    7  A    between atoms: C_31  and  N_37
                            x       y       z     vdW  Elec       q    Type
                         _______ _______ _______ _____ _____    ______ ____

>  <TORSDO>
F 7

$$$$
=
 OpenBabel11042417093D

 38 40  0  0  1  0  0  0  0  0999 V2000
  189.6780  175.1140  146.0900 C   0  0  0  0  0  0  0  0  0  0  0  0
  190.1970  174.9170  147.2570 N   0  0  0  0  0  2  0  0  0  0  0  0
  188.3010  175.8790  141.6020 C   0  0  1  0  0  3  0  0  0  0  0  0
  189.4590  176.5850  143.6320 O   0  0  0  0  0  0  0  0  0  0  0  0
  188.6710  176.1750  145.8960 C   0  0  0  0  0  0  0  0  0  0  0  0
  190.3990  172.8790  141.4040 C   0  0  0  0  0  2  0  0  0  0  0  0
  191.1820  173.8990  144.6210 N   0  0  0  0  0  0  0  0  0  0  0  0
  186.7720  177.4180  146.7360 C   0  0  0  0  0  0  0  0  0  0  0  0
  188.5250  176.8230  144.6530 C   0  0  0  0  0  0  0  0  0  0  0  0
  186.6230  178.0020  145.5150 N   0  0  0  0  0  0  0  0  0  0  0  0
  191.5380  173.1290  143.6360 C   0  0  0  0  0  0  0  0  0  0  0  0
  188.6650  174.5180  141.7530 O   0  0  0  0  0  0  0  0  0  0  0  0
  193.5440  172.0920  142.4290 C   0  0  0  0  0  0  0  0  0  0  0  0
  187.7940  176.4920  146.9410 C   0  0  0  0  0  3  0  0  0  0  0  0
  190.4990  172.3770  142.8430 C   0  0  0  0  0  2  0  0  0  0  0  0
  188.8420  178.2050  142.0700 O   0  0  0  0  0  1  0  0  0  0  0  0
  192.9300  173.0490  143.3040 N   0  0  0  0  0  2  0  0  0  0  0  0
  189.9940  174.3430  141.3260 C   0  0  0  0  0  2  0  0  0  0  0  0
  185.8810  177.7300  147.8060 N   0  0  0  0  0  2  0  0  0  0  0  0
  192.8950  171.1010  142.0010 O   0  0  0  0  0  0  0  0  0  0  0  0
  189.7990  174.0450  145.0550 C   0  0  0  0  0  2  0  0  0  0  0  0
  187.4670  177.7280  144.4860 C   0  0  0  0  0  3  0  0  0  0  0  0
  184.7920  178.6810  147.6540 C   0  0  0  0  0  1  0  0  0  0  0  0
  189.2700  176.8870  142.2480 C   0  0  2  0  0  3  0  0  0  0  0  0
  195.8560  171.2810  142.1100 C   0  0  0  0  0  3  0  0  0  0  0  0
  195.4970  173.4690  141.5710 N   0  0  0  0  0  0  0  0  0  0  0  0
  196.7470  173.2460  141.3470 C   0  0  0  0  0  0  0  0  0  0  0  0
  194.9530  172.2490  142.0480 C   0  0  2  0  0  3  0  0  0  0  0  0
  197.1560  171.8440  141.6390 C   0  0  0  0  0  3  0  0  0  0  0  0
  197.2270  175.6650  141.2570 C   0  0  0  0  0  1  0  0  0  0  0  0
  197.6680  174.2850  140.8060 C   0  0  0  0  0  2  0  0  0  0  0  0
  187.8240  176.2360  140.1870 C   0  0  0  0  0  2  0  0  0  0  0  0
  185.9900  177.4030  141.2490 N   0  0  0  0  0  0  0  0  0  0  0  0
  186.6480  177.1580  140.1660 C   0  0  0  0  0  3  0  0  0  0  0  0
  184.8880  178.2630  141.2200 N   0  0  0  0  0  2  0  0  0  0  0  0
  183.9010  178.2280  142.2860 C   0  0  0  0  0  2  0  0  0  0  0  0
  182.6480  177.9170  140.3350 C   0  0  0  0  0  1  0  0  0  0  0  0
  182.5630  178.3240  141.7270 N   0  0  0  0  0  2  0  0  0  0  0  0
  1  2  2  0  0  0  0
  3 32  1  6  0  0  0
  3 12  1  0  0  0  0
  3 24  1  0  0  0  0
  4  9  1  0  0  0  0
  5  1  1  0  0  0  0
  5 14  2  0  0  0  0
  6 15  1  0  0  0  0
  7 21  1  0  0  0  0
  8 14  1  0  0  0  0
  8 19  1  0  0  0  0
  9  5  1  0  0  0  0
 10  8  2  0  0  0  0
 11  7  2  0  0  0  0
 13 17  1  0  0  0  0
 15 11  1  0  0  0  0
 17 11  1  0  0  0  0
 18  6  1  0  0  0  0
 18 12  1  0  0  0  0
 20 13  2  0  0  0  0
 21  1  1  0  0  0  0
 22  9  2  0  0  0  0
 22 10  1  0  0  0  0
 23 19  1  0  0  0  0
 24 16  1  1  0  0  0
 24  4  1  0  0  0  0
 26 28  1  0  0  0  0
 27 26  2  0  0  0  0
 27 29  1  0  0  0  0
 28 25  1  0  0  0  0
 28 13  1  1  0  0  0
 29 25  2  0  0  0  0
 31 30  1  0  0  0  0
 31 27  1  0  0  0  0
 34 32  1  0  0  0  0
 34 33  2  0  0  0  0
 35 33  1  0  0  0  0
 35 36  1  0  0  0  0
 37 38  1  0  0  0  0
 38 36  1  0  0  0  0
M  END
>  <MODEL>
5

>  <REMARK>
 VINA RESULT:      -6.4      2.981     10.056
  Name = 
  7 active torsions:
  status: ('A' for Active; 'I' for Inactive)
    1  A    between atoms: C_5  and  C_10
    2  A    between atoms: C_6  and  C_19
    3  A    between atoms: C_10  and  C_32
    4  A    between atoms: N_12  and  N_14
    5  A    between atoms: N_12  and  C_31
    6  A    between atoms: C_13  and  C_24
    7  A    between atoms: C_31  and  N_37
                            x       y       z     vdW  Elec       q    Type
                         _______ _______ _______ _____ _____    ______ ____

>  <TORSDO>
F 7

$$$$
=
 OpenBabel11042417093D

 38 40  0  0  1  0  0  0  0  0999 V2000
  189.7290  176.9770  146.1030 C   0  0  0  0  0  0  0  0  0  0  0  0
  190.2190  177.7530  147.0140 N   0  0  0  0  0  2  0  0  0  0  0  0
  188.3920  174.2410  142.4510 C   0  0  1  0  0  3  0  0  0  0  0  0
  189.0040  176.4130  143.3810 O   0  0  0  0  0  0  0  0  0  0  0  0
  188.3650  177.2090  145.5890 C   0  0  0  0  0  0  0  0  0  0  0  0
  191.6170  172.8430  143.4930 C   0  0  0  0  0  2  0  0  0  0  0  0
  191.6920  175.8150  145.2730 N   0  0  0  0  0  0  0  0  0  0  0  0
  186.0700  177.8570  146.0000 C   0  0  0  0  0  0  0  0  0  0  0  0
  188.0100  176.8430  144.2760 C   0  0  0  0  0  0  0  0  0  0  0  0
  185.7400  177.4580  144.7400 N   0  0  0  0  0  0  0  0  0  0  0  0
  192.4050  174.8160  144.8460 C   0  0  0  0  0  0  0  0  0  0  0  0
  189.3180  173.5280  143.2530 O   0  0  0  0  0  0  0  0  0  0  0  0
  194.7240  174.1280  144.0030 C   0  0  0  0  0  0  0  0  0  0  0  0
  187.3860  177.7310  146.4440 C   0  0  0  0  0  3  0  0  0  0  0  0
  191.8550  173.4120  144.8900 C   0  0  0  0  0  2  0  0  0  0  0  0
  187.8100  176.3460  141.3770 O   0  0  0  0  0  1  0  0  0  0  0  0
  193.7020  175.0910  144.2990 N   0  0  0  0  0  2  0  0  0  0  0  0
  190.6050  173.6550  142.7000 C   0  0  0  0  0  2  0  0  0  0  0  0
  185.0790  178.3850  146.8800 N   0  0  0  0  0  2  0  0  0  0  0  0
  194.6100  172.9310  144.3790 O   0  0  0  0  0  0  0  0  0  0  0  0
  190.3700  175.6510  145.8610 C   0  0  0  0  0  2  0  0  0  0  0  0
  186.6700  176.9630  143.8820 C   0  0  0  0  0  3  0  0  0  0  0  0
  183.6890  178.5340  146.4810 C   0  0  0  0  0  1  0  0  0  0  0  0
  188.7730  175.7040  142.1620 C   0  0  2  0  0  3  0  0  0  0  0  0
  196.9050  175.2730  143.8050 C   0  0  0  0  0  3  0  0  0  0  0  0
  196.1800  174.2030  141.9250 N   0  0  0  0  0  0  0  0  0  0  0  0
  197.3130  174.7360  141.6180 C   0  0  0  0  0  0  0  0  0  0  0  0
  195.9310  174.5430  143.2800 C   0  0  2  0  0  3  0  0  0  0  0  0
  197.9410  175.4750  142.7500 C   0  0  0  0  0  3  0  0  0  0  0  0
  196.8750  174.5560  139.1970 C   0  0  0  0  0  1  0  0  0  0  0  0
  197.9410  174.5830  140.2760 C   0  0  0  0  0  2  0  0  0  0  0  0
  187.8800  173.4400  141.2440 C   0  0  0  0  0  2  0  0  0  0  0  0
  188.3580  173.6940  138.8860 N   0  0  0  0  0  0  0  0  0  0  0  0
  188.8080  173.4620  140.0740 C   0  0  0  0  0  3  0  0  0  0  0  0
  189.2330  173.7080  137.7950 N   0  0  0  0  0  2  0  0  0  0  0  0
  190.4460  172.9090  137.8170 C   0  0  0  0  0  2  0  0  0  0  0  0
  192.2700  173.7320  139.0270 C   0  0  0  0  0  1  0  0  0  0  0  0
  191.6120  173.7720  137.7330 N   0  0  0  0  0  2  0  0  0  0  0  0
  1  2  2  0  0  0  0
  3 32  1  6  0  0  0
  3 12  1  0  0  0  0
  4  9  1  0  0  0  0
  5  1  1  0  0  0  0
  5 14  2  0  0  0  0
  6 15  1  0  0  0  0
  7 21  1  0  0  0  0
  8 14  1  0  0  0  0
  8 19  1  0  0  0  0
  9  5  1  0  0  0  0
 10  8  2  0  0  0  0
 11 15  1  0  0  0  0
 11  7  2  0  0  0  0
 13 17  1  0  0  0  0
 13 20  2  0  0  0  0
 17 11  1  0  0  0  0
 18 12  1  0  0  0  0
 18  6  1  0  0  0  0
 21  1  1  0  0  0  0
 22  9  2  0  0  0  0
 22 10  1  0  0  0  0
 23 19  1  0  0  0  0
 24 16  1  1  0  0  0
 24  3  1  0  0  0  0
 24  4  1  0  0  0  0
 26 28  1  0  0  0  0
 27 26  2  0  0  0  0
 27 29  1  0  0  0  0
 28 25  1  0  0  0  0
 28 13  1  6  0  0  0
 29 25  2  0  0  0  0
 30 31  1  0  0  0  0
 31 27  1  0  0  0  0
 33 34  2  0  0  0  0
 34 32  1  0  0  0  0
 35 36  1  0  0  0  0
 35 33  1  0  0  0  0
 38 36  1  0  0  0  0
 38 37  1  0  0  0  0
M  END
>  <MODEL>
6

>  <REMARK>
 VINA RESULT:      -6.2      2.640      9.123
  Name = 
  7 active torsions:
  status: ('A' for Active; 'I' for Inactive)
    1  A    between atoms: C_5  and  C_10
    2  A    between atoms: C_6  and  C_19
    3  A    between atoms: C_10  and  C_32
    4  A    between atoms: N_12  and  N_14
    5  A    between atoms: N_12  and  C_31
    6  A    between atoms: C_13  and  C_24
    7  A    between atoms: C_31  and  N_37
                            x       y       z     vdW  Elec       q    Type
                         _______ _______ _______ _____ _____    ______ ____

>  <TORSDO>
F 7

$$$$
=
 OpenBabel11042417093D

 38 40  0  0  1  0  0  0  0  0999 V2000
  193.1340  175.2970  145.2060 C   0  0  0  0  0  0  0  0  0  0  0  0
  193.6290  176.1580  146.0340 N   0  0  0  0  0  2  0  0  0  0  0  0
  190.8070  172.2560  142.3860 C   0  0  1  0  0  3  0  0  0  0  0  0
  191.4740  173.0310  144.6020 O   0  0  0  0  0  0  0  0  0  0  0  0
  193.6680  173.9220  145.1610 C   0  0  0  0  0  0  0  0  0  0  0  0
  189.2710  175.5070  141.6710 C   0  0  0  0  0  2  0  0  0  0  0  0
  191.0540  176.3440  144.5210 N   0  0  0  0  0  0  0  0  0  0  0  0
  195.5620  172.4220  145.2880 C   0  0  0  0  0  0  0  0  0  0  0  0
  192.8550  172.8380  144.7770 C   0  0  0  0  0  0  0  0  0  0  0  0
  194.7680  171.3950  144.8760 N   0  0  0  0  0  0  0  0  0  0  0  0
  190.1070  176.7190  143.7140 C   0  0  0  0  0  0  0  0  0  0  0  0
  190.6880  173.5660  141.8580 O   0  0  0  0  0  0  0  0  0  0  0  0
  187.8680  177.9550  143.5690 C   0  0  0  0  0  0  0  0  0  0  0  0
  195.0250  173.7010  145.4300 C   0  0  0  0  0  3  0  0  0  0  0  0
  190.2560  176.5340  142.2240 C   0  0  0  0  0  2  0  0  0  0  0  0
  190.7370  170.8310  144.3570 O   0  0  0  0  0  1  0  0  0  0  0  0
  188.9100  177.2710  144.2790 N   0  0  0  0  0  2  0  0  0  0  0  0
  189.4690  174.1260  142.2770 C   0  0  0  0  0  2  0  0  0  0  0  0
  196.9470  172.2070  145.5600 N   0  0  0  0  0  2  0  0  0  0  0  0
  188.0190  178.2830  142.3620 O   0  0  0  0  0  0  0  0  0  0  0  0
  192.3160  175.7860  144.0570 C   0  0  0  0  0  2  0  0  0  0  0  0
  193.4450  171.5750  144.6230 C   0  0  0  0  0  3  0  0  0  0  0  0
  197.5690  170.9010  145.4240 C   0  0  0  0  0  1  0  0  0  0  0  0
  190.5940  172.1460  143.9070 C   0  0  2  0  0  3  0  0  0  0  0  0
  185.6100  178.9510  143.6940 C   0  0  0  0  0  3  0  0  0  0  0  0
  186.3700  177.9870  145.6180 N   0  0  0  0  0  0  0  0  0  0  0  0
  185.1970  178.4490  145.8880 C   0  0  0  0  0  0  0  0  0  0  0  0
  186.6210  178.3050  144.2580 C   0  0  0  0  0  0  0  0  0  0  0  0
  184.5420  179.1110  144.7250 C   0  0  0  0  0  2  0  0  0  0  0  0
  185.6100  178.2410  148.3120 C   0  0  0  0  0  1  0  0  0  0  0  0
  184.5540  178.2910  147.2230 C   0  0  0  0  0  2  0  0  0  0  0  0
  190.1010  171.1860  141.5410 C   0  0  0  0  0  2  0  0  0  0  0  0
  189.4910  171.5270  139.2250 N   0  0  0  0  0  0  0  0  0  0  0  0
  190.4190  171.2670  140.0830 C   0  0  0  0  0  3  0  0  0  0  0  0
  189.7960  171.5970  137.8620 N   0  0  0  0  0  2  0  0  0  0  0  0
  189.8000  172.8770  137.1750 C   0  0  0  0  0  2  0  0  0  0  0  0
  188.1890  174.5400  137.5110 C   0  0  0  0  0  1  0  0  0  0  0  0
  189.3780  173.9300  138.0830 N   0  0  0  0  0  2  0  0  0  0  0  0
  1  2  2  0  0  0  0
  3 32  1  6  0  0  0
  3 24  1  0  0  0  0
  4  9  1  0  0  0  0
  5  1  1  0  0  0  0
  5 14  2  0  0  0  0
  6 15  1  0  0  0  0
  6 18  1  0  0  0  0
  8 14  1  0  0  0  0
  8 19  1  0  0  0  0
  9  5  1  0  0  0  0
 10  8  2  0  0  0  0
 11 17  1  0  0  0  0
 11  7  2  0  0  0  0
 12 18  1  0  0  0  0
 12  3  1  0  0  0  0
 13 28  1  0  0  0  0
 13 17  1  0  0  0  0
 15 11  1  0  0  0  0
 20 13  2  0  0  0  0
 21  7  1  0  0  0  0
 21  1  1  0  0  0  0
 22  9  2  0  0  0  0
 22 10  1  0  0  0  0
 23 19  1  0  0  0  0
 24 16  1  1  0  0  0
 24  4  1  0  0  0  0
 25 28  2  0  0  0  0
 25 29  1  0  0  0  0
 26 27  2  0  0  0  0
 27 31  1  0  0  0  0
 28 26  1  0  0  0  0
 29 27  1  0  0  0  0
 31 30  1  0  0  0  0
 33 34  2  0  0  0  0
 34 32  1  0  0  0  0
 35 33  1  0  0  0  0
 36 35  1  0  0  0  0
 36 38  1  0  0  0  0
 37 38  1  0  0  0  0
M  END
>  <MODEL>
7

>  <REMARK>
 VINA RESULT:      -6.1      2.617      6.121
  Name = 
  7 active torsions:
  status: ('A' for Active; 'I' for Inactive)
    1  A    between atoms: C_5  and  C_10
    2  A    between atoms: C_6  and  C_19
    3  A    between atoms: C_10  and  C_32
    4  A    between atoms: N_12  and  N_14
    5  A    between atoms: N_12  and  C_31
    6  A    between atoms: C_13  and  C_24
    7  A    between atoms: C_31  and  N_37
                            x       y       z     vdW  Elec       q    Type
                         _______ _______ _______ _____ _____    ______ ____

>  <TORSDO>
F 7

$$$$
=
 OpenBabel11042417093D

 38 40  0  0  1  0  0  0  0  0999 V2000
  193.5370  172.9990  144.6300 C   0  0  0  0  0  0  0  0  0  0  0  0
  194.1650  173.2720  145.7260 N   0  0  0  0  0  2  0  0  0  0  0  0
  190.7460  172.0700  140.8920 C   0  0  1  0  0  3  0  0  0  0  0  0
  191.5240  171.5770  143.1530 O   0  0  0  0  0  0  0  0  0  0  0  0
  193.8340  171.7530  143.8970 C   0  0  0  0  0  0  0  0  0  0  0  0
  189.7790  175.4530  141.9240 C   0  0  0  0  0  2  0  0  0  0  0  0
  191.6640  174.5420  144.6840 N   0  0  0  0  0  0  0  0  0  0  0  0
  195.4500  170.1130  143.1520 C   0  0  0  0  0  0  0  0  0  0  0  0
  192.8520  171.1200  143.1090 C   0  0  0  0  0  0  0  0  0  0  0  0
  194.4970  169.5420  142.3650 N   0  0  0  0  0  0  0  0  0  0  0  0
  190.7960  175.3950  144.2260 C   0  0  0  0  0  0  0  0  0  0  0  0
  190.8510  173.4730  141.0590 O   0  0  0  0  0  0  0  0  0  0  0  0
  188.7970  176.8660  144.8560 C   0  0  0  0  0  0  0  0  0  0  0  0
  195.1330  171.2310  143.9240 C   0  0  0  0  0  3  0  0  0  0  0  0
  190.9190  175.9280  142.8210 C   0  0  0  0  0  2  0  0  0  0  0  0
  190.4310  169.9020  141.9510 O   0  0  0  0  0  1  0  0  0  0  0  0
  189.7060  175.7780  145.0760 N   0  0  0  0  0  2  0  0  0  0  0  0
  189.7400  173.9380  141.7850 C   0  0  0  0  0  2  0  0  0  0  0  0
  196.7780  169.5910  143.1830 N   0  0  0  0  0  2  0  0  0  0  0  0
  189.0050  177.7070  143.9420 O   0  0  0  0  0  0  0  0  0  0  0  0
  192.8170  174.0950  143.9160 C   0  0  0  0  0  2  0  0  0  0  0  0
  193.2240  170.0150  142.3300 C   0  0  0  0  0  3  0  0  0  0  0  0
  197.1740  168.4350  142.3960 C   0  0  0  0  0  1  0  0  0  0  0  0
  190.5120  171.2770  142.1900 C   0  0  2  0  0  3  0  0  0  0  0  0
  187.4950  176.4660  146.9190 C   0  0  0  0  0  3  0  0  0  0  0  0
  186.4880  177.7940  145.3600 N   0  0  0  0  0  0  0  0  0  0  0  0
  185.6570  177.7020  146.3410 C   0  0  0  0  0  0  0  0  0  0  0  0
  187.6220  177.0230  145.7230 C   0  0  0  0  0  0  0  0  0  0  0  0
  186.1660  176.8670  147.4670 C   0  0  0  0  0  2  0  0  0  0  0  0
  184.0160  178.9350  144.9720 C   0  0  0  0  0  1  0  0  0  0  0  0
  184.3420  178.4010  146.3550 C   0  0  0  0  0  2  0  0  0  0  0  0
  189.8750  171.6560  139.6970 C   0  0  0  0  0  2  0  0  0  0  0  0
  188.9630  173.3420  138.2220 N   0  0  0  0  0  0  0  0  0  0  0  0
  189.9650  172.5920  138.5370 C   0  0  0  0  0  3  0  0  0  0  0  0
  189.0530  174.2120  137.1310 N   0  0  0  0  0  2  0  0  0  0  0  0
  190.2780  174.2900  136.3540 C   0  0  0  0  0  2  0  0  0  0  0  0
  190.5580  172.5610  134.8040 C   0  0  0  0  0  1  0  0  0  0  0  0
  190.0210  173.9000  134.9780 N   0  0  0  0  0  2  0  0  0  0  0  0
  1  2  2  0  0  0  0
  3 32  1  6  0  0  0
  3 12  1  0  0  0  0
  3 24  1  0  0  0  0
  5 14  2  0  0  0  0
  5  1  1  0  0  0  0
  6 15  1  0  0  0  0
  8 19  1  0  0  0  0
  8 14  1  0  0  0  0
  9  4  1  0  0  0  0
  9  5  1  0  0  0  0
 10  8  2  0  0  0  0
 11  7  2  0  0  0  0
 11 17  1  0  0  0  0
 12 18  1  0  0  0  0
 13 17  1  0  0  0  0
 13 28  1  0  0  0  0
 15 11  1  0  0  0  0
 18  6  1  0  0  0  0
 20 13  2  0  0  0  0
 21  1  1  0  0  0  0
 21  7  1  0  0  0  0
 22 10  1  0  0  0  0
 22  9  2  0  0  0  0
 23 19  1  0  0  0  0
 24 16  1  6  0  0  0
 24  4  1  0  0  0  0
 25 29  1  0  0  0  0
 26 28  1  0  0  0  0
 26 27  2  0  0  0  0
 27 31  1  0  0  0  0
 27 29  1  0  0  0  0
 28 25  2  0  0  0  0
 30 31  1  0  0  0  0
 33 34  2  0  0  0  0
 34 32  1  0  0  0  0
 35 33  1  0  0  0  0
 36 35  1  0  0  0  0
 37 38  1  0  0  0  0
 38 36  1  0  0  0  0
M  END
>  <MODEL>
8

>  <REMARK>
 VINA RESULT:      -6.1      3.036      5.939
  Name = 
  7 active torsions:
  status: ('A' for Active; 'I' for Inactive)
    1  A    between atoms: C_5  and  C_10
    2  A    between atoms: C_6  and  C_19
    3  A    between atoms: C_10  and  C_32
    4  A    between atoms: N_12  and  N_14
    5  A    between atoms: N_12  and  C_31
    6  A    between atoms: C_13  and  C_24
    7  A    between atoms: C_31  and  N_37
                            x       y       z     vdW  Elec       q    Type
                         _______ _______ _______ _____ _____    ______ ____

>  <TORSDO>
F 7

$$$$
=
 OpenBabel11042417093D

 38 40  0  0  1  0  0  0  0  0999 V2000
  187.4340  176.1810  143.3810 C   0  0  0  0  0  0  0  0  0  0  0  0
  186.3570  176.2150  142.6670 N   0  0  0  0  0  2  0  0  0  0  0  0
  191.4190  175.5020  145.8860 C   0  0  1  0  0  3  0  0  0  0  0  0
  189.0630  175.0350  145.4520 O   0  0  0  0  0  0  0  0  0  0  0  0
  187.4210  176.6940  144.7650 C   0  0  0  0  0  0  0  0  0  0  0  0
  192.2940  174.4350  142.4890 C   0  0  0  0  0  2  0  0  0  0  0  0
  188.8540  174.6530  142.1400 N   0  0  0  0  0  0  0  0  0  0  0  0
  186.6400  178.3270  146.3700 C   0  0  0  0  0  0  0  0  0  0  0  0
  188.2920  176.1730  145.7420 C   0  0  0  0  0  0  0  0  0  0  0  0
  187.5190  177.8360  147.2870 N   0  0  0  0  0  0  0  0  0  0  0  0
  189.9470  174.1920  141.6090 C   0  0  0  0  0  0  0  0  0  0  0  0
  191.7470  175.6260  144.5130 O   0  0  0  0  0  0  0  0  0  0  0  0
  190.9430  172.2670  140.2450 C   0  0  0  0  0  0  0  0  0  0  0  0
  186.5840  177.7670  145.0940 C   0  0  0  0  0  3  0  0  0  0  0  0
  191.2030  175.0270  141.6010 C   0  0  0  0  0  2  0  0  0  0  0  0
  189.9380  174.5330  147.5560 O   0  0  0  0  0  1  0  0  0  0  0  0
  189.9350  172.8610  141.0740 N   0  0  0  0  0  2  0  0  0  0  0  0
  191.8720  174.3450  143.9480 C   0  0  0  0  0  2  0  0  0  0  0  0
  185.7860  179.4240  146.6940 N   0  0  0  0  0  2  0  0  0  0  0  0
  191.8780  172.9630  139.7670 O   0  0  0  0  0  0  0  0  0  0  0  0
  188.7480  175.9930  142.6990 C   0  0  0  0  0  2  0  0  0  0  0  0
  188.3320  176.7860  147.0030 C   0  0  0  0  0  3  0  0  0  0  0  0
  185.8010  180.0570  148.0030 C   0  0  0  0  0  1  0  0  0  0  0  0
  190.2080  174.6000  146.1870 C   0  0  2  0  0  3  0  0  0  0  0  0
  190.9090  169.8650  140.8230 C   0  0  0  0  0  3  0  0  0  0  0  0
  190.7700  170.3450  138.5960 N   0  0  0  0  0  0  0  0  0  0  0  0
  190.7460  169.0590  138.6860 C   0  0  0  0  0  0  0  0  0  0  0  0
  190.8760  170.8370  139.9220 C   0  0  0  0  0  0  0  0  0  0  0  0
  190.8180  168.5660  140.0910 C   0  0  0  0  0  2  0  0  0  0  0  0
  191.5540  168.6170  136.3980 C   0  0  0  0  0  1  0  0  0  0  0  0
  190.6130  168.1670  137.5000 C   0  0  0  0  0  2  0  0  0  0  0  0
  192.6410  175.2930  146.7930 C   0  0  0  0  0  2  0  0  0  0  0  0
  194.8600  174.7340  146.0100 N   0  0  0  0  0  0  0  0  0  0  0  0
  193.9400  175.6300  146.1360 C   0  0  0  0  0  3  0  0  0  0  0  0
  196.0750  175.0590  145.3990 N   0  0  0  0  0  2  0  0  0  0  0  0
  196.5000  174.3650  144.1960 C   0  0  0  0  0  2  0  0  0  0  0  0
  196.3100  176.4340  143.1200 C   0  0  0  0  0  1  0  0  0  0  0  0
  195.9580  175.0280  143.0210 N   0  0  0  0  0  2  0  0  0  0  0  0
  1  5  1  0  0  0  0
  2  1  2  0  0  0  0
  3 24  1  0  0  0  0
  3 32  1  1  0  0  0
  4  9  1  0  0  0  0
  4 24  1  0  0  0  0
  5 14  2  0  0  0  0
  5  9  1  0  0  0  0
  6 18  1  0  0  0  0
  7 21  1  0  0  0  0
  8 19  1  0  0  0  0
  8 10  2  0  0  0  0
  9 22  2  0  0  0  0
 11  7  2  0  0  0  0
 12  3  1  0  0  0  0
 13 17  1  0  0  0  0
 14  8  1  0  0  0  0
 15 11  1  0  0  0  0
 15  6  1  0  0  0  0
 17 11  1  0  0  0  0
 18 12  1  0  0  0  0
 19 23  1  0  0  0  0
 20 13  2  0  0  0  0
 21  1  1  0  0  0  0
 22 10  1  0  0  0  0
 24 16  1  1  0  0  0
 26 27  2  0  0  0  0
 26 28  1  0  0  0  0
 27 29  1  0  0  0  0
 28 13  1  0  0  0  0
 28 25  2  0  0  0  0
 29 25  1  0  0  0  0
 30 31  1  0  0  0  0
 31 27  1  0  0  0  0
 33 34  2  0  0  0  0
 34 32  1  0  0  0  0
 35 33  1  0  0  0  0
 36 35  1  0  0  0  0
 38 37  1  0  0  0  0
 38 36  1  0  0  0  0
M  END
>  <MODEL>
9

>  <REMARK>
 VINA RESULT:      -6.0      2.347      8.341
  Name = 
  7 active torsions:
  status: ('A' for Active; 'I' for Inactive)
    1  A    between atoms: C_5  and  C_10
    2  A    between atoms: C_6  and  C_19
    3  A    between atoms: C_10  and  C_32
    4  A    between atoms: N_12  and  N_14
    5  A    between atoms: N_12  and  C_31
    6  A    between atoms: C_13  and  C_24
    7  A    between atoms: C_31  and  N_37
                            x       y       z     vdW  Elec       q    Type
                         _______ _______ _______ _____ _____    ______ ____

>  <TORSDO>
F 7

$$$$
