=
 OpenBabel11042415133D

 45 51  0  0  1  0  0  0  0  0999 V2000
  188.0470  175.0760  142.5650 N   0  0  0  0  0  0  0  0  0  0  0  0
  187.5910  177.2610  145.4260 C   0  0  0  0  0  3  0  0  0  0  0  0
  186.9860  175.8400  142.0510 N   0  0  0  0  0  0  0  0  0  0  0  0
  188.6100  176.8630  146.3070 C   0  0  0  0  0  3  0  0  0  0  0  0
  183.8920  179.2400  143.5390 C   0  0  0  0  0  2  0  0  0  0  0  0
  185.5970  177.6480  142.9230 C   0  0  1  0  0  3  0  0  0  0  0  0
  189.5130  175.8290  145.9600 C   0  0  0  0  0  0  0  0  0  0  0  0
  187.4910  176.5920  144.2070 C   0  0  0  0  0  0  0  0  0  0  0  0
  185.1650  178.5640  144.0140 C   0  0  0  0  0  2  0  0  0  0  0  0
  186.5970  176.7730  143.0610 C   0  0  0  0  0  0  0  0  0  0  0  0
  183.2370  178.3270  142.5160 C   0  0  2  0  0  3  0  0  0  0  0  0
  189.3790  175.1770  144.7200 C   0  0  0  0  0  3  0  0  0  0  0  0
  188.3540  175.5790  143.8650 C   0  0  0  0  0  0  0  0  0  0  0  0
  184.5650  177.6690  141.4670 S   0  0  0  0  0  0  0  0  0  0  0  0
  182.2940  179.0890  141.7130 N   0  0  0  0  0  2  0  0  0  0  0  0
  180.9320  178.6920  141.5400 C   0  0  0  0  0  0  0  0  0  0  0  0
  180.4920  177.6630  142.1200 O   0  0  0  0  0  0  0  0  0  0  0  0
  178.6110  177.6790  139.4070 C   0  0  0  0  0  2  0  0  0  0  0  0
  180.0370  179.4820  140.6840 C   0  0  0  0  0  0  0  0  0  0  0  0
  178.5090  180.0070  139.2120 N   0  0  0  0  0  0  0  0  0  0  0  0
  180.1870  180.8110  140.4490 N   0  0  0  0  0  0  0  0  0  0  0  0
  179.0000  179.0110  139.9070 C   0  0  0  0  0  0  0  0  0  0  0  0
  177.6920  178.0510  138.2170 C   0  0  1  0  0  3  0  0  0  0  0  0
  177.7300  179.5920  138.0730 C   0  0  0  0  0  2  0  0  0  0  0  0
  179.1160  182.4060  138.8360 C   0  0  0  0  0  1  0  0  0  0  0  0
  179.2380  181.0900  139.5220 C   0  0  0  0  0  0  0  0  0  0  0  0
  178.2050  177.3880  136.9520 C   0  0  0  0  0  2  0  0  0  0  0  0
  178.7920  176.0970  137.2710 N   0  0  0  0  0  1  0  0  0  0  0  0
  188.7040  172.7550  142.0030 C   0  0  0  0  0  1  0  0  0  0  0  0
  188.9230  174.2410  141.7370 C   0  0  1  0  0  3  0  0  0  0  0  0
  188.7890  174.5570  140.3100 N   0  0  0  0  0  2  0  0  0  0  0  0
  189.8770  173.5130  138.4130 C   0  0  0  0  0  2  0  0  0  0  0  0
  188.4100  173.6660  138.0880 C   0  0  0  0  0  2  0  0  0  0  0  0
  188.8410  173.3410  139.5040 C   0  0  0  0  0  3  0  0  0  0  0  0
  190.5500  175.3950  146.8520 N   0  0  0  0  0  2  0  0  0  0  0  0
  194.2240  174.4560  146.1700 C   0  0  1  0  0  3  0  0  0  0  0  0
  192.6000  176.6780  146.9210 C   0  0  0  0  0  3  0  0  0  0  0  0
  194.0860  176.8550  146.7700 C   0  0  0  0  0  2  0  0  0  0  0  0
  194.6690  175.8600  145.7740 C   0  0  0  0  0  2  0  0  0  0  0  0
  192.6980  174.3510  146.0630 C   0  0  0  0  0  2  0  0  0  0  0  0
  191.9720  175.5160  146.6880 C   0  0  0  0  0  0  0  0  0  0  0  0
  194.0290  172.3660  145.0180 F   0  0  0  0  0  0  0  0  0  0  0  0
  194.9090  173.3950  145.3110 C   0  0  0  0  0  0  0  0  0  0  0  0
  196.0000  172.8780  145.9890 F   0  0  0  0  0  0  0  0  0  0  0  0
  195.3510  173.9630  144.1300 F   0  0  0  0  0  0  0  0  0  0  0  0
  1 13  1  0  0  0  0
  2  4  1  0  0  0  0
  3  1  1  0  0  0  0
  3 10  2  0  0  0  0
  5  9  1  0  0  0  0
  6 10  1  1  0  0  0
  6  9  1  0  0  0  0
  7  4  2  0  0  0  0
  7 35  1  0  0  0  0
  8  2  2  0  0  0  0
 10  8  1  0  0  0  0
 11 15  1  6  0  0  0
 11  5  1  0  0  0  0
 12  7  1  0  0  0  0
 13  8  1  0  0  0  0
 13 12  2  0  0  0  0
 14 11  1  0  0  0  0
 14  6  1  0  0  0  0
 16 15  1  0  0  0  0
 16 17  2  0  0  0  0
 18 22  1  0  0  0  0
 19 16  1  0  0  0  0
 20 26  1  0  0  0  0
 20 22  1  0  0  0  0
 21 19  1  0  0  0  0
 22 19  2  0  0  0  0
 23 27  1  6  0  0  0
 23 18  1  0  0  0  0
 24 23  1  0  0  0  0
 24 20  1  0  0  0  0
 25 26  1  0  0  0  0
 26 21  2  0  0  0  0
 27 28  1  0  0  0  0
 30 29  1  6  0  0  0
 30  1  1  0  0  0  0
 31 30  1  0  0  0  0
 32 34  1  0  0  0  0
 33 32  1  0  0  0  0
 33 34  1  0  0  0  0
 34 31  1  0  0  0  0
 36 43  1  6  0  0  0
 38 37  1  0  0  0  0
 39 36  1  0  0  0  0
 39 38  1  0  0  0  0
 40 36  1  0  0  0  0
 40 41  1  0  0  0  0
 41 35  1  0  0  0  0
 41 37  2  0  0  0  0
 42 43  1  0  0  0  0
 43 44  1  0  0  0  0
 45 43  1  0  0  0  0
M  END
>  <MODEL>
1

>  <REMARK>
 VINA RESULT:      -8.1      0.000      0.000
  Name = 
  9 active torsions:
  status: ('A' for Active; 'I' for Inactive)
    1  A    between atoms: C_1  and  C_25
    2  A    between atoms: N_2  and  C_29
    3  A    between atoms: N_2  and  C_43
    4  A    between atoms: N_3  and  C_37
    5  A    between atoms: N_6  and  C_38
    6  A    between atoms: C_12  and  C_28
    7  A    between atoms: N_17  and  C_37
    8  A    between atoms: N_17  and  C_39
    9  A    between atoms: C_20  and  C_23
                            x       y       z     vdW  Elec       q    Type
                         _______ _______ _______ _____ _____    ______ ____

>  <TORSDO>
F 9

$$$$
=
 OpenBabel11042415133D

 45 51  0  0  1  0  0  0  0  0999 V2000
  185.2340  177.8290  144.5920 N   0  0  0  0  0  0  0  0  0  0  0  0
  185.5790  177.2000  141.0350 C   0  0  0  0  0  3  0  0  0  0  0  0
  186.4760  177.1740  144.6370 N   0  0  0  0  0  0  0  0  0  0  0  0
  184.4410  177.8110  140.4830 C   0  0  0  0  0  3  0  0  0  0  0  0
  189.4320  174.7670  141.6670 C   0  0  0  0  0  2  0  0  0  0  0  0
  187.9130  176.1110  142.9740 C   0  0  1  0  0  3  0  0  0  0  0  0
  183.5010  178.4790  141.3030 C   0  0  0  0  0  0  0  0  0  0  0  0
  185.7410  177.2620  142.4190 C   0  0  0  0  0  0  0  0  0  0  0  0
  188.2020  175.6520  141.5880 C   0  0  0  0  0  2  0  0  0  0  0  0
  186.8050  176.7820  143.3020 C   0  0  0  0  0  0  0  0  0  0  0  0
  189.5020  174.1990  143.0750 C   0  0  2  0  0  3  0  0  0  0  0  0
  183.6980  178.5190  142.6960 C   0  0  0  0  0  3  0  0  0  0  0  0
  184.8270  177.8970  143.2260 C   0  0  0  0  0  0  0  0  0  0  0  0
  189.0670  175.5450  144.2120 S   0  0  0  0  0  0  0  0  0  0  0  0
  190.8520  173.7300  143.3450 N   0  0  0  0  0  2  0  0  0  0  0  0
  191.1290  172.6530  144.2440 C   0  0  0  0  0  0  0  0  0  0  0  0
  190.1840  172.0440  144.8150 O   0  0  0  0  0  0  0  0  0  0  0  0
  193.6340  174.4110  145.5060 C   0  0  0  0  0  2  0  0  0  0  0  0
  192.5170  172.2510  144.5070 C   0  0  0  0  0  0  0  0  0  0  0  0
  194.6200  172.3310  145.0970 N   0  0  0  0  0  0  0  0  0  0  0  0
  193.0800  171.1080  144.0360 N   0  0  0  0  0  0  0  0  0  0  0  0
  193.4880  172.9870  145.1530 C   0  0  0  0  0  0  0  0  0  0  0  0
  195.1650  174.5220  145.7150 C   0  0  1  0  0  3  0  0  0  0  0  0
  195.7790  173.1500  145.3450 C   0  0  0  0  0  2  0  0  0  0  0  0
  195.4360  170.2480  143.9740 C   0  0  0  0  0  1  0  0  0  0  0  0
  194.3810  171.2060  144.4050 C   0  0  0  0  0  0  0  0  0  0  0  0
  195.7230  175.6120  144.8180 C   0  0  0  0  0  2  0  0  0  0  0  0
  194.6480  176.2270  144.0570 N   0  0  0  0  0  1  0  0  0  0  0  0
  183.7990  177.8480  146.6110 C   0  0  0  0  0  1  0  0  0  0  0  0
  184.7090  178.6520  145.6870 C   0  0  1  0  0  3  0  0  0  0  0  0
  185.7830  179.3140  146.4350 N   0  0  0  0  0  2  0  0  0  0  0  0
  187.0140  179.4540  148.5180 C   0  0  0  0  0  2  0  0  0  0  0  0
  187.4320  178.1870  147.8080 C   0  0  0  0  0  2  0  0  0  0  0  0
  185.9960  178.6620  147.7230 C   0  0  0  0  0  3  0  0  0  0  0  0
  182.3230  179.0950  140.7620 N   0  0  0  0  0  2  0  0  0  0  0  0
  179.1260  178.5190  142.8330 C   0  0  1  0  0  3  0  0  0  0  0  0
  180.0540  178.5360  140.1350 C   0  0  0  0  0  3  0  0  0  0  0  0
  178.6080  178.2430  140.4270 C   0  0  0  0  0  2  0  0  0  0  0  0
  178.1540  178.9030  141.7220 C   0  0  0  0  0  2  0  0  0  0  0  0
  180.5180  179.0760  142.5130 C   0  0  0  0  0  2  0  0  0  0  0  0
  180.9500  178.8290  141.0890 C   0  0  0  0  0  0  0  0  0  0  0  0
  178.0690  177.9690  144.9100 F   0  0  0  0  0  0  0  0  0  0  0  0
  178.6360  179.0100  144.1930 C   0  0  0  0  0  0  0  0  0  0  0  0
  177.6910  180.0060  144.0180 F   0  0  0  0  0  0  0  0  0  0  0  0
  179.6970  179.5290  144.9120 F   0  0  0  0  0  0  0  0  0  0  0  0
  1  3  1  0  0  0  0
  1 30  1  0  0  0  0
  2  8  1  0  0  0  0
  4  2  2  0  0  0  0
  4  7  1  0  0  0  0
  5 11  1  0  0  0  0
  6 10  1  1  0  0  0
  6 14  1  0  0  0  0
  7 12  2  0  0  0  0
  8 13  2  0  0  0  0
  8 10  1  0  0  0  0
  9  5  1  0  0  0  0
  9  6  1  0  0  0  0
 10  3  2  0  0  0  0
 11 15  1  1  0  0  0
 11 14  1  0  0  0  0
 12 13  1  0  0  0  0
 13  1  1  0  0  0  0
 15 16  1  0  0  0  0
 16 19  1  0  0  0  0
 16 17  2  0  0  0  0
 18 23  1  0  0  0  0
 19 22  2  0  0  0  0
 20 22  1  0  0  0  0
 20 24  1  0  0  0  0
 21 26  2  0  0  0  0
 21 19  1  0  0  0  0
 22 18  1  0  0  0  0
 23 27  1  6  0  0  0
 24 23  1  0  0  0  0
 25 26  1  0  0  0  0
 26 20  1  0  0  0  0
 28 27  1  0  0  0  0
 30 31  1  0  0  0  0
 30 29  1  1  0  0  0
 31 34  1  0  0  0  0
 33 32  1  0  0  0  0
 34 33  1  0  0  0  0
 34 32  1  0  0  0  0
 35 41  1  0  0  0  0
 35  7  1  0  0  0  0
 36 43  1  1  0  0  0
 37 38  1  0  0  0  0
 37 41  2  0  0  0  0
 38 39  1  0  0  0  0
 39 36  1  0  0  0  0
 40 36  1  0  0  0  0
 41 40  1  0  0  0  0
 43 42  1  0  0  0  0
 43 45  1  0  0  0  0
 44 43  1  0  0  0  0
M  END
>  <MODEL>
2

>  <REMARK>
 VINA RESULT:      -7.9      5.403     13.140
  Name = 
  9 active torsions:
  status: ('A' for Active; 'I' for Inactive)
    1  A    between atoms: C_1  and  C_25
    2  A    between atoms: N_2  and  C_29
    3  A    between atoms: N_2  and  C_43
    4  A    between atoms: N_3  and  C_37
    5  A    between atoms: N_6  and  C_38
    6  A    between atoms: C_12  and  C_28
    7  A    between atoms: N_17  and  C_37
    8  A    between atoms: N_17  and  C_39
    9  A    between atoms: C_20  and  C_23
                            x       y       z     vdW  Elec       q    Type
                         _______ _______ _______ _____ _____    ______ ____

>  <TORSDO>
F 9

$$$$
=
 OpenBabel11042415133D

 45 51  0  0  1  0  0  0  0  0999 V2000
  185.2960  177.8190  144.6560 N   0  0  0  0  0  0  0  0  0  0  0  0
  185.8730  177.2810  141.1150 C   0  0  0  0  0  3  0  0  0  0  0  0
  186.5980  177.3000  144.7550 N   0  0  0  0  0  0  0  0  0  0  0  0
  184.7030  177.7750  140.5140 C   0  0  0  0  0  3  0  0  0  0  0  0
  189.9320  175.2660  141.9090 C   0  0  0  0  0  2  0  0  0  0  0  0
  188.2170  176.4210  143.1530 C   0  0  1  0  0  3  0  0  0  0  0  0
  183.6590  178.3260  141.2940 C   0  0  0  0  0  0  0  0  0  0  0  0
  185.9620  177.3400  142.5050 C   0  0  0  0  0  0  0  0  0  0  0  0
  188.6180  176.0160  141.7790 C   0  0  0  0  0  2  0  0  0  0  0  0
  187.0290  176.9640  143.4340 C   0  0  0  0  0  0  0  0  0  0  0  0
  189.9970  174.6890  143.3130 C   0  0  2  0  0  3  0  0  0  0  0  0
  183.7850  178.3670  142.6950 C   0  0  0  0  0  3  0  0  0  0  0  0
  184.9490  177.8620  143.2730 C   0  0  0  0  0  0  0  0  0  0  0  0
  189.3660  175.9640  144.4410 S   0  0  0  0  0  0  0  0  0  0  0  0
  191.3750  174.3640  143.6440 N   0  0  0  0  0  2  0  0  0  0  0  0
  191.7490  173.1320  144.2660 C   0  0  0  0  0  0  0  0  0  0  0  0
  190.8760  172.2600  144.5220 O   0  0  0  0  0  0  0  0  0  0  0  0
  193.3470  170.2550  144.6290 C   0  0  0  0  0  2  0  0  0  0  0  0
  193.1530  172.8780  144.6130 C   0  0  0  0  0  0  0  0  0  0  0  0
  195.0130  171.8310  145.0890 N   0  0  0  0  0  0  0  0  0  0  0  0
  194.0030  173.8240  145.0890 N   0  0  0  0  0  0  0  0  0  0  0  0
  193.7990  171.6590  144.6260 C   0  0  0  0  0  0  0  0  0  0  0  0
  194.6010  169.5280  145.1760 C   0  0  1  0  0  3  0  0  0  0  0  0
  195.6360  170.6160  145.5490 C   0  0  0  0  0  2  0  0  0  0  0  0
  196.3010  173.7290  146.0890 C   0  0  0  0  0  1  0  0  0  0  0  0
  195.1310  173.1330  145.3880 C   0  0  0  0  0  0  0  0  0  0  0  0
  194.2230  168.7140  146.4000 C   0  0  0  0  0  2  0  0  0  0  0  0
  195.3290  168.6910  147.3420 N   0  0  0  0  0  1  0  0  0  0  0  0
  183.9210  177.6340  146.7090 C   0  0  0  0  0  1  0  0  0  0  0  0
  184.6340  178.5640  145.7320 C   0  0  1  0  0  3  0  0  0  0  0  0
  185.5650  179.4600  146.4270 N   0  0  0  0  0  2  0  0  0  0  0  0
  186.6940  180.0040  148.5030 C   0  0  0  0  0  2  0  0  0  0  0  0
  187.2440  178.6900  147.9980 C   0  0  0  0  0  2  0  0  0  0  0  0
  185.7780  179.0210  147.8030 C   0  0  0  0  0  3  0  0  0  0  0  0
  182.4480  178.8200  140.7030 N   0  0  0  0  0  2  0  0  0  0  0  0
  179.2190  178.2270  142.7190 C   0  0  1  0  0  3  0  0  0  0  0  0
  180.2840  177.9270  140.0900 C   0  0  0  0  0  3  0  0  0  0  0  0
  178.8620  177.5270  140.3710 C   0  0  0  0  0  2  0  0  0  0  0  0
  178.2740  178.3270  141.5260 C   0  0  0  0  0  2  0  0  0  0  0  0
  180.5630  178.8760  142.3670 C   0  0  0  0  0  2  0  0  0  0  0  0
  181.0940  178.4600  141.0180 C   0  0  0  0  0  0  0  0  0  0  0  0
  177.9650  177.9140  144.7350 F   0  0  0  0  0  0  0  0  0  0  0  0
  178.6090  178.8680  143.9650 C   0  0  0  0  0  0  0  0  0  0  0  0
  177.6980  179.8400  143.5920 F   0  0  0  0  0  0  0  0  0  0  0  0
  179.6050  179.4620  144.7190 F   0  0  0  0  0  0  0  0  0  0  0  0
  1  3  1  0  0  0  0
  1 30  1  0  0  0  0
  2  8  1  0  0  0  0
  4  2  2  0  0  0  0
  4  7  1  0  0  0  0
  5 11  1  0  0  0  0
  6 10  1  1  0  0  0
  6 14  1  0  0  0  0
  7 12  2  0  0  0  0
  8 13  2  0  0  0  0
  8 10  1  0  0  0  0
  9  5  1  0  0  0  0
  9  6  1  0  0  0  0
 10  3  2  0  0  0  0
 11 15  1  1  0  0  0
 11 14  1  0  0  0  0
 12 13  1  0  0  0  0
 13  1  1  0  0  0  0
 15 16  1  0  0  0  0
 16 17  2  0  0  0  0
 16 19  1  0  0  0  0
 18 23  1  0  0  0  0
 19 22  2  0  0  0  0
 19 21  1  0  0  0  0
 20 26  1  0  0  0  0
 20 24  1  0  0  0  0
 21 26  2  0  0  0  0
 22 18  1  0  0  0  0
 22 20  1  0  0  0  0
 23 24  1  0  0  0  0
 23 27  1  1  0  0  0
 26 25  1  0  0  0  0
 27 28  1  0  0  0  0
 30 31  1  0  0  0  0
 30 29  1  1  0  0  0
 31 34  1  0  0  0  0
 33 32  1  0  0  0  0
 34 33  1  0  0  0  0
 34 32  1  0  0  0  0
 35 41  1  0  0  0  0
 35  7  1  0  0  0  0
 36 43  1  1  0  0  0
 37 38  1  0  0  0  0
 37 41  2  0  0  0  0
 38 39  1  0  0  0  0
 39 36  1  0  0  0  0
 40 36  1  0  0  0  0
 41 40  1  0  0  0  0
 43 45  1  0  0  0  0
 43 42  1  0  0  0  0
 44 43  1  0  0  0  0
M  END
>  <MODEL>
3

>  <REMARK>
 VINA RESULT:      -7.5      5.607     13.399
  Name = 
  9 active torsions:
  status: ('A' for Active; 'I' for Inactive)
    1  A    between atoms: C_1  and  C_25
    2  A    between atoms: N_2  and  C_29
    3  A    between atoms: N_2  and  C_43
    4  A    between atoms: N_3  and  C_37
    5  A    between atoms: N_6  and  C_38
    6  A    between atoms: C_12  and  C_28
    7  A    between atoms: N_17  and  C_37
    8  A    between atoms: N_17  and  C_39
    9  A    between atoms: C_20  and  C_23
                            x       y       z     vdW  Elec       q    Type
                         _______ _______ _______ _____ _____    ______ ____

>  <TORSDO>
F 9

$$$$
=
 OpenBabel11042415133D

 45 51  0  0  1  0  0  0  0  0999 V2000
  185.4040  177.6620  144.6730 N   0  0  0  0  0  0  0  0  0  0  0  0
  186.2130  177.3240  141.1520 C   0  0  0  0  0  3  0  0  0  0  0  0
  186.7110  177.1690  144.8270 N   0  0  0  0  0  0  0  0  0  0  0  0
  185.0690  177.8210  140.5050 C   0  0  0  0  0  3  0  0  0  0  0  0
  190.2660  175.3640  142.0970 C   0  0  0  0  0  2  0  0  0  0  0  0
  188.4490  176.4120  143.2870 C   0  0  1  0  0  3  0  0  0  0  0  0
  183.9650  178.3060  141.2450 C   0  0  0  0  0  0  0  0  0  0  0  0
  186.2140  177.3120  142.5460 C   0  0  0  0  0  0  0  0  0  0  0  0
  188.9440  176.0890  141.9220 C   0  0  0  0  0  2  0  0  0  0  0  0
  187.2310  176.9130  143.5200 C   0  0  0  0  0  0  0  0  0  0  0  0
  190.2600  174.7160  143.4710 C   0  0  2  0  0  3  0  0  0  0  0  0
  184.0030  178.2770  142.6510 C   0  0  0  0  0  3  0  0  0  0  0  0
  185.1420  177.7690  143.2740 C   0  0  0  0  0  0  0  0  0  0  0  0
  189.5270  175.9150  144.6200 S   0  0  0  0  0  0  0  0  0  0  0  0
  191.6230  174.4050  143.8710 N   0  0  0  0  0  2  0  0  0  0  0  0
  192.6280  175.4100  144.0280 C   0  0  0  0  0  0  0  0  0  0  0  0
  192.3450  176.6250  143.8510 O   0  0  0  0  0  0  0  0  0  0  0  0
  195.5000  176.2030  142.5830 C   0  0  0  0  0  2  0  0  0  0  0  0
  193.9990  175.0290  144.3960 C   0  0  0  0  0  0  0  0  0  0  0  0
  196.1760  174.8400  144.3580 N   0  0  0  0  0  0  0  0  0  0  0  0
  194.3040  174.0560  145.2930 N   0  0  0  0  0  0  0  0  0  0  0  0
  195.1700  175.4930  143.8330 C   0  0  0  0  0  0  0  0  0  0  0  0
  197.0090  175.8870  142.4370 C   0  0  1  0  0  3  0  0  0  0  0  0
  197.3860  174.9120  143.5800 C   0  0  0  0  0  2  0  0  0  0  0  0
  196.4410  172.9070  145.9260 C   0  0  0  0  0  1  0  0  0  0  0  0
  195.6550  173.9580  145.2250 C   0  0  0  0  0  0  0  0  0  0  0  0
  197.2660  175.2440  141.0860 C   0  0  0  0  0  2  0  0  0  0  0  0
  196.3110  175.7410  140.1100 N   0  0  0  0  0  1  0  0  0  0  0  0
  184.0810  177.3380  146.7410 C   0  0  0  0  0  1  0  0  0  0  0  0
  184.6590  178.3350  145.7420 C   0  0  1  0  0  3  0  0  0  0  0  0
  185.4690  179.3580  146.4110 N   0  0  0  0  0  2  0  0  0  0  0  0
  186.3840  180.1720  148.5040 C   0  0  0  0  0  2  0  0  0  0  0  0
  187.1250  178.9110  148.1240 C   0  0  0  0  0  2  0  0  0  0  0  0
  185.6450  179.0370  147.8240 C   0  0  0  0  0  3  0  0  0  0  0  0
  182.7810  178.8030  140.6040 N   0  0  0  0  0  2  0  0  0  0  0  0
  179.4600  178.1640  142.4500 C   0  0  1  0  0  3  0  0  0  0  0  0
  180.6580  177.8980  139.8750 C   0  0  0  0  0  3  0  0  0  0  0  0
  179.2270  177.4840  140.0800 C   0  0  0  0  0  2  0  0  0  0  0  0
  178.5750  178.2680  141.2120 C   0  0  0  0  0  2  0  0  0  0  0  0
  180.8140  178.8270  142.1720 C   0  0  0  0  0  2  0  0  0  0  0  0
  181.4150  178.4280  140.8470 C   0  0  0  0  0  0  0  0  0  0  0  0
  178.1900  177.8080  144.4490 F   0  0  0  0  0  0  0  0  0  0  0  0
  178.7840  178.7870  143.6700 C   0  0  0  0  0  0  0  0  0  0  0  0
  177.8150  179.6860  143.2580 F   0  0  0  0  0  0  0  0  0  0  0  0
  179.7210  179.4630  144.4290 F   0  0  0  0  0  0  0  0  0  0  0  0
  1  3  1  0  0  0  0
  1 30  1  0  0  0  0
  2  8  1  0  0  0  0
  4  2  2  0  0  0  0
  4  7  1  0  0  0  0
  5 11  1  0  0  0  0
  6 10  1  1  0  0  0
  6 14  1  0  0  0  0
  7 12  2  0  0  0  0
  8 13  2  0  0  0  0
  8 10  1  0  0  0  0
  9  5  1  0  0  0  0
  9  6  1  0  0  0  0
 10  3  2  0  0  0  0
 11 15  1  1  0  0  0
 11 14  1  0  0  0  0
 12 13  1  0  0  0  0
 13  1  1  0  0  0  0
 15 16  1  0  0  0  0
 16 19  1  0  0  0  0
 17 16  2  0  0  0  0
 18 22  1  0  0  0  0
 19 21  1  0  0  0  0
 20 26  1  0  0  0  0
 22 20  1  0  0  0  0
 22 19  2  0  0  0  0
 23 27  1  6  0  0  0
 23 18  1  0  0  0  0
 23 24  1  0  0  0  0
 24 20  1  0  0  0  0
 26 21  2  0  0  0  0
 26 25  1  0  0  0  0
 28 27  1  0  0  0  0
 30 31  1  0  0  0  0
 30 29  1  1  0  0  0
 31 34  1  0  0  0  0
 33 32  1  0  0  0  0
 34 33  1  0  0  0  0
 34 32  1  0  0  0  0
 35 41  1  0  0  0  0
 35  7  1  0  0  0  0
 36 43  1  1  0  0  0
 37 38  1  0  0  0  0
 37 41  2  0  0  0  0
 38 39  1  0  0  0  0
 39 36  1  0  0  0  0
 40 36  1  0  0  0  0
 41 40  1  0  0  0  0
 43 45  1  0  0  0  0
 43 42  1  0  0  0  0
 44 43  1  0  0  0  0
M  END
>  <MODEL>
4

>  <REMARK>
 VINA RESULT:      -7.4      5.581     13.209
  Name = 
  9 active torsions:
  status: ('A' for Active; 'I' for Inactive)
    1  A    between atoms: C_1  and  C_25
    2  A    between atoms: N_2  and  C_29
    3  A    between atoms: N_2  and  C_43
    4  A    between atoms: N_3  and  C_37
    5  A    between atoms: N_6  and  C_38
    6  A    between atoms: C_12  and  C_28
    7  A    between atoms: N_17  and  C_37
    8  A    between atoms: N_17  and  C_39
    9  A    between atoms: C_20  and  C_23
                            x       y       z     vdW  Elec       q    Type
                         _______ _______ _______ _____ _____    ______ ____

>  <TORSDO>
F 9

$$$$
=
 OpenBabel11042415133D

 45 51  0  0  1  0  0  0  0  0999 V2000
  194.2680  174.6740  142.0880 N   0  0  0  0  0  0  0  0  0  0  0  0
  192.3940  171.7170  141.1390 C   0  0  0  0  0  3  0  0  0  0  0  0
  192.9810  175.1820  142.3320 N   0  0  0  0  0  0  0  0  0  0  0  0
  193.3950  170.7810  140.8280 C   0  0  0  0  0  3  0  0  0  0  0  0
  188.3730  173.8850  141.6770 C   0  0  0  0  0  2  0  0  0  0  0  0
  190.7160  174.3120  142.0560 C   0  0  1  0  0  3  0  0  0  0  0  0
  194.7650  171.1150  140.9370 C   0  0  0  0  0  0  0  0  0  0  0  0
  192.7990  172.9880  141.5430 C   0  0  0  0  0  0  0  0  0  0  0  0
  189.7560  173.2650  141.6120 C   0  0  0  0  0  2  0  0  0  0  0  0
  192.0420  174.1650  141.9740 C   0  0  0  0  0  0  0  0  0  0  0  0
  188.5330  175.3900  141.5410 C   0  0  2  0  0  3  0  0  0  0  0  0
  195.1350  172.4100  141.3470 C   0  0  0  0  0  3  0  0  0  0  0  0
  194.1270  173.3270  141.6400 C   0  0  0  0  0  0  0  0  0  0  0  0
  189.9740  175.8610  142.5400 S   0  0  0  0  0  0  0  0  0  0  0  0
  187.3390  176.0550  142.0370 N   0  0  0  0  0  2  0  0  0  0  0  0
  186.8550  177.2830  141.4860 C   0  0  0  0  0  0  0  0  0  0  0  0
  187.4470  177.8170  140.5110 O   0  0  0  0  0  0  0  0  0  0  0  0
  186.3100  178.3600  144.5700 C   0  0  0  0  0  2  0  0  0  0  0  0
  185.6650  177.9280  142.0570 C   0  0  0  0  0  0  0  0  0  0  0  0
  184.2980  178.8560  143.4870 N   0  0  0  0  0  0  0  0  0  0  0  0
  184.4570  177.9770  141.4390 N   0  0  0  0  0  0  0  0  0  0  0  0
  185.5390  178.4730  143.3180 C   0  0  0  0  0  0  0  0  0  0  0  0
  185.2650  178.8150  145.6190 C   0  0  1  0  0  3  0  0  0  0  0  0
  183.9310  179.0420  144.8680 C   0  0  0  0  0  2  0  0  0  0  0  0
  182.1640  178.6600  142.1930 C   0  0  0  0  0  1  0  0  0  0  0  0
  183.6380  178.5390  142.3630 C   0  0  0  0  0  0  0  0  0  0  0  0
  185.1020  177.7360  146.6740 C   0  0  0  0  0  2  0  0  0  0  0  0
  185.9180  178.0510  147.8350 N   0  0  0  0  0  1  0  0  0  0  0  0
  196.1280  176.2410  141.6160 C   0  0  0  0  0  1  0  0  0  0  0  0
  195.4940  175.2810  142.6180 C   0  0  1  0  0  3  0  0  0  0  0  0
  195.2660  175.9290  143.9140 N   0  0  0  0  0  2  0  0  0  0  0  0
  193.9670  174.7520  145.5880 C   0  0  0  0  0  2  0  0  0  0  0  0
  194.9640  175.6350  146.3010 C   0  0  0  0  0  2  0  0  0  0  0  0
  195.3480  174.9580  145.0010 C   0  0  0  0  0  3  0  0  0  0  0  0
  195.8040  170.1810  140.6080 N   0  0  0  0  0  2  0  0  0  0  0  0
  196.5330  170.4050  136.8310 C   0  0  1  0  0  3  0  0  0  0  0  0
  197.2580  168.9090  139.1500 C   0  0  0  0  0  3  0  0  0  0  0  0
  197.8840  168.5810  137.8230 C   0  0  0  0  0  2  0  0  0  0  0  0
  197.9310  169.8000  136.9100 C   0  0  0  0  0  2  0  0  0  0  0  0
  196.1090  170.9030  138.2180 C   0  0  0  0  0  2  0  0  0  0  0  0
  196.3800  169.9100  139.3210 C   0  0  0  0  0  0  0  0  0  0  0  0
  195.1610  171.9170  135.5810 F   0  0  0  0  0  0  0  0  0  0  0  0
  196.4730  171.5310  135.8010 C   0  0  0  0  0  0  0  0  0  0  0  0
  197.0240  171.1010  134.6070 F   0  0  0  0  0  0  0  0  0  0  0  0
  197.1950  172.6190  136.2560 F   0  0  0  0  0  0  0  0  0  0  0  0
  1  3  1  0  0  0  0
  1 30  1  0  0  0  0
  2  8  1  0  0  0  0
  4  7  1  0  0  0  0
  4  2  2  0  0  0  0
  6 10  1  6  0  0  0
  6 14  1  0  0  0  0
  7 12  2  0  0  0  0
  8 13  2  0  0  0  0
  8 10  1  0  0  0  0
  9  5  1  0  0  0  0
  9  6  1  0  0  0  0
 10  3  2  0  0  0  0
 11  5  1  0  0  0  0
 11 15  1  1  0  0  0
 11 14  1  0  0  0  0
 12 13  1  0  0  0  0
 13  1  1  0  0  0  0
 16 15  1  0  0  0  0
 16 19  1  0  0  0  0
 17 16  2  0  0  0  0
 18 23  1  0  0  0  0
 19 22  2  0  0  0  0
 20 24  1  0  0  0  0
 21 19  1  0  0  0  0
 21 26  2  0  0  0  0
 22 20  1  0  0  0  0
 22 18  1  0  0  0  0
 23 27  1  1  0  0  0
 24 23  1  0  0  0  0
 25 26  1  0  0  0  0
 26 20  1  0  0  0  0
 27 28  1  0  0  0  0
 30 29  1  6  0  0  0
 30 31  1  0  0  0  0
 31 34  1  0  0  0  0
 32 33  1  0  0  0  0
 34 32  1  0  0  0  0
 34 33  1  0  0  0  0
 35  7  1  0  0  0  0
 36 43  1  6  0  0  0
 36 39  1  0  0  0  0
 36 40  1  0  0  0  0
 37 41  2  0  0  0  0
 38 37  1  0  0  0  0
 39 38  1  0  0  0  0
 40 41  1  0  0  0  0
 41 35  1  0  0  0  0
 42 43  1  0  0  0  0
 43 45  1  0  0  0  0
 44 43  1  0  0  0  0
M  END
>  <MODEL>
5

>  <REMARK>
 VINA RESULT:      -6.5      5.056      8.571
  Name = 
  9 active torsions:
  status: ('A' for Active; 'I' for Inactive)
    1  A    between atoms: C_1  and  C_25
    2  A    between atoms: N_2  and  C_29
    3  A    between atoms: N_2  and  C_43
    4  A    between atoms: N_3  and  C_37
    5  A    between atoms: N_6  and  C_38
    6  A    between atoms: C_12  and  C_28
    7  A    between atoms: N_17  and  C_37
    8  A    between atoms: N_17  and  C_39
    9  A    between atoms: C_20  and  C_23
                            x       y       z     vdW  Elec       q    Type
                         _______ _______ _______ _____ _____    ______ ____

>  <TORSDO>
F 9

$$$$
=
 OpenBabel11042415133D

 45 51  0  0  1  0  0  0  0  0999 V2000
  188.2980  176.7560  144.8810 N   0  0  0  0  0  0  0  0  0  0  0  0
  188.5830  175.2750  141.5820 C   0  0  0  0  0  3  0  0  0  0  0  0
  187.1200  177.2910  144.3330 N   0  0  0  0  0  0  0  0  0  0  0  0
  189.7440  174.4890  141.6750 C   0  0  0  0  0  3  0  0  0  0  0  0
  184.8830  177.5430  140.0580 C   0  0  0  0  0  2  0  0  0  0  0  0
  186.0600  177.2020  142.1350 C   0  0  1  0  0  3  0  0  0  0  0  0
  190.4830  174.4200  142.8800 C   0  0  0  0  0  0  0  0  0  0  0  0
  188.1960  175.9950  142.7110 C   0  0  0  0  0  0  0  0  0  0  0  0
  186.0360  176.7970  140.7040 C   0  0  0  0  0  2  0  0  0  0  0  0
  187.0440  176.8600  142.9720 C   0  0  0  0  0  0  0  0  0  0  0  0
  184.6300  178.8000  140.8720 C   0  0  2  0  0  3  0  0  0  0  0  0
  190.0610  175.1620  143.9980 C   0  0  0  0  0  3  0  0  0  0  0  0
  188.9130  175.9450  143.8820 C   0  0  0  0  0  0  0  0  0  0  0  0
  184.7690  178.3350  142.6220 S   0  0  0  0  0  0  0  0  0  0  0  0
  183.2960  179.3050  140.5910 N   0  0  0  0  0  2  0  0  0  0  0  0
  182.1100  178.5970  140.9590 C   0  0  0  0  0  0  0  0  0  0  0  0
  182.1910  177.5030  141.5800 O   0  0  0  0  0  0  0  0  0  0  0  0
  179.5380  177.1170  139.4900 C   0  0  0  0  0  2  0  0  0  0  0  0
  180.7900  179.1390  140.6120 C   0  0  0  0  0  0  0  0  0  0  0  0
  178.7520  179.2920  139.8340 N   0  0  0  0  0  0  0  0  0  0  0  0
  180.4820  180.4620  140.6300 N   0  0  0  0  0  0  0  0  0  0  0  0
  179.7090  178.4420  140.1150 C   0  0  0  0  0  0  0  0  0  0  0  0
  178.1870  177.2940  138.7530 C   0  0  1  0  0  3  0  0  0  0  0  0
  177.7560  178.7700  138.9340 C   0  0  0  0  0  2  0  0  0  0  0  0
  178.5150  181.7840  139.8070 C   0  0  0  0  0  1  0  0  0  0  0  0
  179.2250  180.5140  140.1250 C   0  0  0  0  0  0  0  0  0  0  0  0
  178.3660  176.9720  137.2800 C   0  0  0  0  0  2  0  0  0  0  0  0
  179.5310  176.1220  137.0960 N   0  0  0  0  0  1  0  0  0  0  0  0
  188.3980  175.2920  146.8770 C   0  0  0  0  0  1  0  0  0  0  0  0
  188.5720  176.7020  146.3210 C   0  0  1  0  0  3  0  0  0  0  0  0
  189.8950  177.2480  146.6450 N   0  0  0  0  0  2  0  0  0  0  0  0
  191.5860  177.1120  148.3770 C   0  0  0  0  0  2  0  0  0  0  0  0
  192.1160  176.4140  147.1450 C   0  0  0  0  0  2  0  0  0  0  0  0
  190.6440  176.3230  147.4910 C   0  0  0  0  0  3  0  0  0  0  0  0
  191.6810  173.6370  142.9920 N   0  0  0  0  0  2  0  0  0  0  0  0
  195.1120  175.0630  144.0130 C   0  0  1  0  0  3  0  0  0  0  0  0
  193.0460  173.3430  144.9690 C   0  0  0  0  0  3  0  0  0  0  0  0
  194.2600  173.5970  145.8180 C   0  0  0  0  0  2  0  0  0  0  0  0
  194.8800  174.9560  145.5160 C   0  0  0  0  0  2  0  0  0  0  0  0
  193.7660  175.0140  143.2800 C   0  0  0  0  0  2  0  0  0  0  0  0
  192.8550  173.9160  143.7710 C   0  0  0  0  0  0  0  0  0  0  0  0
  195.5310  176.7790  142.3970 F   0  0  0  0  0  0  0  0  0  0  0  0
  195.8840  176.3330  143.6590 C   0  0  0  0  0  0  0  0  0  0  0  0
  197.2430  176.0740  143.6850 F   0  0  0  0  0  0  0  0  0  0  0  0
  195.6040  177.3220  144.5840 F   0  0  0  0  0  0  0  0  0  0  0  0
  1 30  1  0  0  0  0
  2  4  2  0  0  0  0
  2  8  1  0  0  0  0
  3  1  1  0  0  0  0
  4  7  1  0  0  0  0
  5  9  1  0  0  0  0
  5 11  1  0  0  0  0
  6 14  1  0  0  0  0
  6 10  1  6  0  0  0
  7 35  1  0  0  0  0
  7 12  2  0  0  0  0
  8 10  1  0  0  0  0
  8 13  2  0  0  0  0
  9  6  1  0  0  0  0
 10  3  2  0  0  0  0
 11 15  1  1  0  0  0
 11 14  1  0  0  0  0
 13 12  1  0  0  0  0
 13  1  1  0  0  0  0
 15 16  1  0  0  0  0
 16 17  2  0  0  0  0
 18 22  1  0  0  0  0
 19 21  1  0  0  0  0
 19 16  1  0  0  0  0
 20 22  1  0  0  0  0
 20 26  1  0  0  0  0
 22 19  2  0  0  0  0
 23 27  1  6  0  0  0
 23 24  1  0  0  0  0
 23 18  1  0  0  0  0
 24 20  1  0  0  0  0
 25 26  1  0  0  0  0
 26 21  2  0  0  0  0
 28 27  1  0  0  0  0
 30 31  1  0  0  0  0
 30 29  1  6  0  0  0
 31 34  1  0  0  0  0
 33 34  1  0  0  0  0
 33 32  1  0  0  0  0
 34 32  1  0  0  0  0
 35 41  1  0  0  0  0
 36 43  1  1  0  0  0
 36 39  1  0  0  0  0
 37 38  1  0  0  0  0
 39 38  1  0  0  0  0
 40 41  1  0  0  0  0
 40 36  1  0  0  0  0
 41 37  2  0  0  0  0
 42 43  1  0  0  0  0
 43 44  1  0  0  0  0
 43 45  1  0  0  0  0
M  END
>  <MODEL>
6

>  <REMARK>
 VINA RESULT:      -6.3      1.997      3.888
  Name = 
  9 active torsions:
  status: ('A' for Active; 'I' for Inactive)
    1  A    between atoms: C_1  and  C_25
    2  A    between atoms: N_2  and  C_29
    3  A    between atoms: N_2  and  C_43
    4  A    between atoms: N_3  and  C_37
    5  A    between atoms: N_6  and  C_38
    6  A    between atoms: C_12  and  C_28
    7  A    between atoms: N_17  and  C_37
    8  A    between atoms: N_17  and  C_39
    9  A    between atoms: C_20  and  C_23
                            x       y       z     vdW  Elec       q    Type
                         _______ _______ _______ _____ _____    ______ ____

>  <TORSDO>
F 9

$$$$
=
 OpenBabel11042415133D

 45 51  0  0  1  0  0  0  0  0999 V2000
  186.8650  176.6500  139.6620 N   0  0  0  0  0  0  0  0  0  0  0  0
  185.4520  177.4980  142.8940 C   0  0  0  0  0  3  0  0  0  0  0  0
  187.8250  176.0060  140.4610 N   0  0  0  0  0  0  0  0  0  0  0  0
  184.2760  178.1930  142.5650 C   0  0  0  0  0  3  0  0  0  0  0  0
  189.0050  175.6190  145.1310 C   0  0  0  0  0  2  0  0  0  0  0  0
  188.1960  175.8070  142.8670 C   0  0  1  0  0  3  0  0  0  0  0  0
  183.9030  178.3980  141.2150 C   0  0  0  0  0  0  0  0  0  0  0  0
  186.2440  177.0330  141.8460 C   0  0  0  0  0  0  0  0  0  0  0  0
  187.8590  176.1320  144.2790 C   0  0  0  0  0  2  0  0  0  0  0  0
  187.4830  176.2520  141.8270 C   0  0  0  0  0  0  0  0  0  0  0  0
  190.2460  175.5710  144.2560 C   0  0  2  0  0  3  0  0  0  0  0  0
  184.7290  177.9130  140.1840 C   0  0  0  0  0  3  0  0  0  0  0  0
  185.8980  177.2370  140.5320 C   0  0  0  0  0  0  0  0  0  0  0  0
  189.7300  174.9250  142.6400 S   0  0  0  0  0  0  0  0  0  0  0  0
  191.2340  174.6890  144.8570 N   0  0  0  0  0  2  0  0  0  0  0  0
  192.4470  174.3250  144.1950 C   0  0  0  0  0  0  0  0  0  0  0  0
  192.7160  174.7960  143.0570 O   0  0  0  0  0  0  0  0  0  0  0  0
  195.5910  174.8070  145.1160 C   0  0  0  0  0  2  0  0  0  0  0  0
  193.3880  173.3980  144.8370 C   0  0  0  0  0  0  0  0  0  0  0  0
  195.2130  172.5800  145.7200 N   0  0  0  0  0  0  0  0  0  0  0  0
  193.1810  172.0600  144.9500 N   0  0  0  0  0  0  0  0  0  0  0  0
  194.6480  173.6900  145.3160 C   0  0  0  0  0  0  0  0  0  0  0  0
  196.9330  174.1580  145.5390 C   0  0  1  0  0  3  0  0  0  0  0  0
  196.6460  172.6670  145.8400 C   0  0  0  0  0  2  0  0  0  0  0  0
  194.6420  170.1440  145.6480 C   0  0  0  0  0  1  0  0  0  0  0  0
  194.3370  171.5910  145.4810 C   0  0  0  0  0  0  0  0  0  0  0  0
  197.9380  174.2870  144.4090 C   0  0  0  0  0  2  0  0  0  0  0  0
  197.3770  175.0900  143.3350 N   0  0  0  0  0  1  0  0  0  0  0  0
  187.4030  177.4010  137.3640 C   0  0  0  0  0  1  0  0  0  0  0  0
  186.6820  176.3750  138.2330 C   0  0  1  0  0  3  0  0  0  0  0  0
  187.0760  175.0050  137.8860 N   0  0  0  0  0  2  0  0  0  0  0  0
  188.7120  173.7200  136.6420 C   0  0  0  0  0  2  0  0  0  0  0  0
  189.1240  173.7260  138.0950 C   0  0  0  0  0  2  0  0  0  0  0  0
  188.4790  174.9550  137.4870 C   0  0  0  0  0  3  0  0  0  0  0  0
  182.7150  179.1190  140.8560 N   0  0  0  0  0  2  0  0  0  0  0  0
  179.3710  178.3630  142.6150 C   0  0  1  0  0  3  0  0  0  0  0  0
  180.5990  178.2740  140.0410 C   0  0  0  0  0  3  0  0  0  0  0  0
  179.1650  177.8510  140.2010 C   0  0  0  0  0  2  0  0  0  0  0  0
  178.5020  178.5560  141.3770 C   0  0  0  0  0  2  0  0  0  0  0  0
  180.7300  179.0400  142.3990 C   0  0  0  0  0  2  0  0  0  0  0  0
  181.3460  178.7330  141.0570 C   0  0  0  0  0  0  0  0  0  0  0  0
  178.1110  177.8680  144.5890 F   0  0  0  0  0  0  0  0  0  0  0  0
  178.6820  178.9020  143.8670 C   0  0  0  0  0  0  0  0  0  0  0  0
  177.6940  179.8010  143.5060 F   0  0  0  0  0  0  0  0  0  0  0  0
  179.6040  179.5560  144.6630 F   0  0  0  0  0  0  0  0  0  0  0  0
  1  3  1  0  0  0  0
  1 13  1  0  0  0  0
  3 10  2  0  0  0  0
  4  2  1  0  0  0  0
  6 10  1  6  0  0  0
  6  9  1  0  0  0  0
  7  4  2  0  0  0  0
  8  2  2  0  0  0  0
  9  5  1  0  0  0  0
 10  8  1  0  0  0  0
 11 15  1  1  0  0  0
 11  5  1  0  0  0  0
 12 13  2  0  0  0  0
 12  7  1  0  0  0  0
 13  8  1  0  0  0  0
 14  6  1  0  0  0  0
 14 11  1  0  0  0  0
 16 19  1  0  0  0  0
 16 15  1  0  0  0  0
 17 16  2  0  0  0  0
 18 22  1  0  0  0  0
 18 23  1  0  0  0  0
 19 21  1  0  0  0  0
 19 22  2  0  0  0  0
 20 24  1  0  0  0  0
 21 26  2  0  0  0  0
 22 20  1  0  0  0  0
 23 27  1  6  0  0  0
 23 24  1  0  0  0  0
 26 25  1  0  0  0  0
 26 20  1  0  0  0  0
 28 27  1  0  0  0  0
 30 29  1  6  0  0  0
 30  1  1  0  0  0  0
 31 30  1  0  0  0  0
 32 34  1  0  0  0  0
 32 33  1  0  0  0  0
 34 31  1  0  0  0  0
 34 33  1  0  0  0  0
 35 41  1  0  0  0  0
 35  7  1  0  0  0  0
 36 43  1  1  0  0  0
 37 38  1  0  0  0  0
 37 41  2  0  0  0  0
 38 39  1  0  0  0  0
 39 36  1  0  0  0  0
 40 36  1  0  0  0  0
 41 40  1  0  0  0  0
 43 42  1  0  0  0  0
 43 45  1  0  0  0  0
 44 43  1  0  0  0  0
M  END
>  <MODEL>
7

>  <REMARK>
 VINA RESULT:      -6.1      5.410     13.001
  Name = 
  9 active torsions:
  status: ('A' for Active; 'I' for Inactive)
    1  A    between atoms: C_1  and  C_25
    2  A    between atoms: N_2  and  C_29
    3  A    between atoms: N_2  and  C_43
    4  A    between atoms: N_3  and  C_37
    5  A    between atoms: N_6  and  C_38
    6  A    between atoms: C_12  and  C_28
    7  A    between atoms: N_17  and  C_37
    8  A    between atoms: N_17  and  C_39
    9  A    between atoms: C_20  and  C_23
                            x       y       z     vdW  Elec       q    Type
                         _______ _______ _______ _____ _____    ______ ____

>  <TORSDO>
F 9

$$$$
=
 OpenBabel11042415133D

 45 51  0  0  1  0  0  0  0  0999 V2000
  188.5010  174.7800  142.7960 N   0  0  0  0  0  0  0  0  0  0  0  0
  189.2840  177.8200  144.6150 C   0  0  0  0  0  3  0  0  0  0  0  0
  187.3010  175.4650  142.5410 N   0  0  0  0  0  0  0  0  0  0  0  0
  190.5970  177.6030  145.0650 C   0  0  0  0  0  3  0  0  0  0  0  0
  185.0780  179.5370  143.8920 C   0  0  0  0  0  2  0  0  0  0  0  0
  186.3840  177.6240  143.2200 C   0  0  1  0  0  3  0  0  0  0  0  0
  191.2840  176.4040  144.7590 C   0  0  0  0  0  0  0  0  0  0  0  0
  188.6790  176.8080  143.8710 C   0  0  0  0  0  0  0  0  0  0  0  0
  186.4490  178.8940  143.9930 C   0  0  0  0  0  2  0  0  0  0  0  0
  187.3690  176.7200  143.2230 C   0  0  0  0  0  0  0  0  0  0  0  0
  184.0670  178.4330  143.6300 C   0  0  2  0  0  3  0  0  0  0  0  0
  190.6400  175.4060  144.0060 C   0  0  0  0  0  3  0  0  0  0  0  0
  189.3330  175.6360  143.5780 C   0  0  0  0  0  0  0  0  0  0  0  0
  184.8190  177.3010  142.4260 S   0  0  0  0  0  0  0  0  0  0  0  0
  182.8470  179.0070  143.0860 N   0  0  0  0  0  2  0  0  0  0  0  0
  182.2820  178.5820  141.8440 C   0  0  0  0  0  0  0  0  0  0  0  0
  182.8220  177.6520  141.1860 O   0  0  0  0  0  0  0  0  0  0  0  0
  179.2360  177.3440  141.4480 C   0  0  0  0  0  2  0  0  0  0  0  0
  181.0680  179.2270  141.3270 C   0  0  0  0  0  0  0  0  0  0  0  0
  179.0060  179.5370  140.6690 N   0  0  0  0  0  0  0  0  0  0  0  0
  181.0580  180.4220  140.6820 N   0  0  0  0  0  0  0  0  0  0  0  0
  179.7930  178.7020  141.3020 C   0  0  0  0  0  0  0  0  0  0  0  0
  177.8470  177.5060  140.7820 C   0  0  1  0  0  3  0  0  0  0  0  0
  177.7800  178.9410  140.2050 C   0  0  0  0  0  2  0  0  0  0  0  0
  179.3060  181.6660  139.3870 C   0  0  0  0  0  1  0  0  0  0  0  0
  179.7720  180.5660  140.2760 C   0  0  0  0  0  0  0  0  0  0  0  0
  177.6920  176.4810  139.6730 C   0  0  0  0  0  2  0  0  0  0  0  0
  178.1240  177.0500  138.4080 N   0  0  0  0  0  1  0  0  0  0  0  0
  188.9800  172.3520  142.8840 C   0  0  0  0  0  1  0  0  0  0  0  0
  188.9490  173.6130  142.0270 C   0  0  1  0  0  3  0  0  0  0  0  0
  188.1470  173.4190  140.8140 N   0  0  0  0  0  2  0  0  0  0  0  0
  188.4760  173.9420  138.4700 C   0  0  0  0  0  2  0  0  0  0  0  0
  188.2030  172.4610  138.5880 C   0  0  0  0  0  2  0  0  0  0  0  0
  189.0060  173.1690  139.6600 C   0  0  0  0  0  3  0  0  0  0  0  0
  192.6190  176.1550  145.2230 N   0  0  0  0  0  2  0  0  0  0  0  0
  194.9250  175.0350  142.3460 C   0  0  1  0  0  3  0  0  0  0  0  0
  194.5660  174.7180  145.1590 C   0  0  0  0  0  3  0  0  0  0  0  0
  195.7080  174.0270  144.4680 C   0  0  0  0  0  2  0  0  0  0  0  0
  196.1480  174.7830  143.2210 C   0  0  0  0  0  2  0  0  0  0  0  0
  193.9370  175.9410  143.0910 C   0  0  0  0  0  2  0  0  0  0  0  0
  193.7000  175.5210  144.5210 C   0  0  0  0  0  0  0  0  0  0  0  0
  194.1920  175.9340  140.2510 F   0  0  0  0  0  0  0  0  0  0  0  0
  195.3200  175.6420  141.0010 C   0  0  0  0  0  0  0  0  0  0  0  0
  196.1110  174.7490  140.3000 F   0  0  0  0  0  0  0  0  0  0  0  0
  196.0400  176.8050  141.2070 F   0  0  0  0  0  0  0  0  0  0  0  0
  1 13  1  0  0  0  0
  2  4  1  0  0  0  0
  3  1  1  0  0  0  0
  3 10  2  0  0  0  0
  5  9  1  0  0  0  0
  6 10  1  1  0  0  0
  6  9  1  0  0  0  0
  7  4  2  0  0  0  0
  7 35  1  0  0  0  0
  8  2  2  0  0  0  0
 10  8  1  0  0  0  0
 11 15  1  6  0  0  0
 11  5  1  0  0  0  0
 12  7  1  0  0  0  0
 13  8  1  0  0  0  0
 13 12  2  0  0  0  0
 14  6  1  0  0  0  0
 14 11  1  0  0  0  0
 16 15  1  0  0  0  0
 17 16  2  0  0  0  0
 19 16  1  0  0  0  0
 20 22  1  0  0  0  0
 21 19  1  0  0  0  0
 22 19  2  0  0  0  0
 22 18  1  0  0  0  0
 23 27  1  6  0  0  0
 23 18  1  0  0  0  0
 24 20  1  0  0  0  0
 24 23  1  0  0  0  0
 25 26  1  0  0  0  0
 26 20  1  0  0  0  0
 26 21  2  0  0  0  0
 28 27  1  0  0  0  0
 30  1  1  0  0  0  0
 30 29  1  1  0  0  0
 31 30  1  0  0  0  0
 32 33  1  0  0  0  0
 32 34  1  0  0  0  0
 33 34  1  0  0  0  0
 34 31  1  0  0  0  0
 36 43  1  6  0  0  0
 36 40  1  0  0  0  0
 36 39  1  0  0  0  0
 38 37  1  0  0  0  0
 39 38  1  0  0  0  0
 40 41  1  0  0  0  0
 41 37  2  0  0  0  0
 41 35  1  0  0  0  0
 42 43  1  0  0  0  0
 43 45  1  0  0  0  0
 44 43  1  0  0  0  0
M  END
>  <MODEL>
8

>  <REMARK>
 VINA RESULT:      -6.1      2.038      2.476
  Name = 
  9 active torsions:
  status: ('A' for Active; 'I' for Inactive)
    1  A    between atoms: C_1  and  C_25
    2  A    between atoms: N_2  and  C_29
    3  A    between atoms: N_2  and  C_43
    4  A    between atoms: N_3  and  C_37
    5  A    between atoms: N_6  and  C_38
    6  A    between atoms: C_12  and  C_28
    7  A    between atoms: N_17  and  C_37
    8  A    between atoms: N_17  and  C_39
    9  A    between atoms: C_20  and  C_23
                            x       y       z     vdW  Elec       q    Type
                         _______ _______ _______ _____ _____    ______ ____

>  <TORSDO>
F 9

$$$$
=
 OpenBabel11042415133D

 45 51  0  0  1  0  0  0  0  0999 V2000
  187.9720  177.6860  145.6690 N   0  0  0  0  0  0  0  0  0  0  0  0
  189.5930  177.6690  142.4230 C   0  0  0  0  0  3  0  0  0  0  0  0
  186.8100  177.6800  144.8800 N   0  0  0  0  0  0  0  0  0  0  0  0
  190.9600  177.6060  142.7410 C   0  0  0  0  0  3  0  0  0  0  0  0
  185.5720  178.0590  140.2240 C   0  0  0  0  0  2  0  0  0  0  0  0
  186.3710  177.7460  142.4780 C   0  0  1  0  0  3  0  0  0  0  0  0
  191.3950  177.5570  144.0870 C   0  0  0  0  0  0  0  0  0  0  0  0
  188.6840  177.6970  143.4800 C   0  0  0  0  0  0  0  0  0  0  0  0
  186.8190  177.8530  141.0640 C   0  0  0  0  0  2  0  0  0  0  0  0
  187.2200  177.7170  143.5110 C   0  0  0  0  0  0  0  0  0  0  0  0
  184.5120  178.6830  141.1160 C   0  0  2  0  0  3  0  0  0  0  0  0
  190.4470  177.5890  145.1260 C   0  0  0  0  0  3  0  0  0  0  0  0
  189.0960  177.6620  144.7900 C   0  0  0  0  0  0  0  0  0  0  0  0
  184.6050  177.8390  142.7210 S   0  0  0  0  0  0  0  0  0  0  0  0
  183.1980  178.4890  140.5230 N   0  0  0  0  0  2  0  0  0  0  0  0
  181.9860  178.7690  141.2270 C   0  0  0  0  0  0  0  0  0  0  0  0
  182.0240  179.2320  142.3980 O   0  0  0  0  0  0  0  0  0  0  0  0
  179.8620  180.8970  139.8400 C   0  0  0  0  0  2  0  0  0  0  0  0
  180.6880  178.5150  140.5880 C   0  0  0  0  0  0  0  0  0  0  0  0
  178.7750  178.8430  139.5810 N   0  0  0  0  0  0  0  0  0  0  0  0
  180.0130  177.3390  140.6760 N   0  0  0  0  0  0  0  0  0  0  0  0
  179.9010  179.4240  139.9120 C   0  0  0  0  0  0  0  0  0  0  0  0
  178.4210  181.1440  139.3280 C   0  0  1  0  0  3  0  0  0  0  0  0
  177.7170  179.7670  139.2610 C   0  0  0  0  0  2  0  0  0  0  0  0
  177.6910  176.6340  140.0400 C   0  0  0  0  0  1  0  0  0  0  0  0
  178.8320  177.5910  140.0590 C   0  0  0  0  0  0  0  0  0  0  0  0
  177.6920  182.0660  140.2880 C   0  0  0  0  0  2  0  0  0  0  0  0
  178.1010  183.4420  140.0620 N   0  0  0  0  0  1  0  0  0  0  0  0
  186.6510  177.6420  147.7640 C   0  0  0  0  0  1  0  0  0  0  0  0
  187.9880  177.3380  147.0940 C   0  0  1  0  0  3  0  0  0  0  0  0
  188.3920  175.9440  147.3110 N   0  0  0  0  0  2  0  0  0  0  0  0
  190.1460  174.5060  146.4550 C   0  0  0  0  0  2  0  0  0  0  0  0
  190.2860  174.5760  147.9580 C   0  0  0  0  0  2  0  0  0  0  0  0
  189.8390  175.7990  147.1830 C   0  0  0  0  0  3  0  0  0  0  0  0
  192.7880  177.5100  144.4340 N   0  0  0  0  0  2  0  0  0  0  0  0
  193.7250  173.8850  145.3400 C   0  0  1  0  0  3  0  0  0  0  0  0
  194.8250  176.5160  145.2800 C   0  0  0  0  0  3  0  0  0  0  0  0
  195.6720  175.3620  145.7380 C   0  0  0  0  0  2  0  0  0  0  0  0
  195.2230  174.0520  145.1050 C   0  0  0  0  0  2  0  0  0  0  0  0
  192.9640  175.0090  144.6260 C   0  0  0  0  0  2  0  0  0  0  0  0
  193.5600  176.3750  144.8560 C   0  0  0  0  0  0  0  0  0  0  0  0
  193.1310  172.4780  143.4950 F   0  0  0  0  0  0  0  0  0  0  0  0
  193.2400  172.5120  144.8760 C   0  0  0  0  0  0  0  0  0  0  0  0
  192.0040  172.2400  145.4350 F   0  0  0  0  0  0  0  0  0  0  0  0
  194.1340  171.5390  145.2830 F   0  0  0  0  0  0  0  0  0  0  0  0
  1 30  1  0  0  0  0
  2  4  2  0  0  0  0
  2  8  1  0  0  0  0
  3  1  1  0  0  0  0
  4  7  1  0  0  0  0
  5  9  1  0  0  0  0
  5 11  1  0  0  0  0
  6 14  1  0  0  0  0
  6 10  1  1  0  0  0
  7 35  1  0  0  0  0
  7 12  2  0  0  0  0
  8 10  1  0  0  0  0
  8 13  2  0  0  0  0
  9  6  1  0  0  0  0
 10  3  2  0  0  0  0
 11 15  1  6  0  0  0
 11 14  1  0  0  0  0
 13 12  1  0  0  0  0
 13  1  1  0  0  0  0
 15 16  1  0  0  0  0
 16 17  2  0  0  0  0
 18 22  1  0  0  0  0
 19 21  1  0  0  0  0
 19 16  1  0  0  0  0
 20 22  1  0  0  0  0
 20 26  1  0  0  0  0
 22 19  2  0  0  0  0
 23 18  1  0  0  0  0
 23 27  1  1  0  0  0
 24 23  1  0  0  0  0
 24 20  1  0  0  0  0
 25 26  1  0  0  0  0
 26 21  2  0  0  0  0
 28 27  1  0  0  0  0
 30 31  1  0  0  0  0
 30 29  1  6  0  0  0
 32 34  1  0  0  0  0
 32 33  1  0  0  0  0
 34 31  1  0  0  0  0
 34 33  1  0  0  0  0
 35 41  1  0  0  0  0
 36 43  1  6  0  0  0
 37 38  1  0  0  0  0
 39 36  1  0  0  0  0
 39 38  1  0  0  0  0
 40 41  1  0  0  0  0
 40 36  1  0  0  0  0
 41 37  2  0  0  0  0
 42 43  1  0  0  0  0
 43 45  1  0  0  0  0
 43 44  1  0  0  0  0
M  END
>  <MODEL>
9

>  <REMARK>
 VINA RESULT:      -6.1      2.613      4.152
  Name = 
  9 active torsions:
  status: ('A' for Active; 'I' for Inactive)
    1  A    between atoms: C_1  and  C_25
    2  A    between atoms: N_2  and  C_29
    3  A    between atoms: N_2  and  C_43
    4  A    between atoms: N_3  and  C_37
    5  A    between atoms: N_6  and  C_38
    6  A    between atoms: C_12  and  C_28
    7  A    between atoms: N_17  and  C_37
    8  A    between atoms: N_17  and  C_39
    9  A    between atoms: C_20  and  C_23
                            x       y       z     vdW  Elec       q    Type
                         _______ _______ _______ _____ _____    ______ ____

>  <TORSDO>
F 9

$$$$
