=
 OpenBabel11042418253D

 28 33  0  0  1  0  0  0  0  0999 V2000
  188.8180  172.1890  138.7040 C   0  0  0  0  0  3  0  0  0  0  0  0
  190.0240  171.7810  139.1800 N   0  0  0  0  0  0  0  0  0  0  0  0
  190.6320  172.4210  140.1840 N   0  0  0  0  0  0  0  0  0  0  0  0
  190.0670  173.5090  140.7700 C   0  0  0  0  0  0  0  0  0  0  0  0
  188.1920  173.3000  139.2660 C   0  0  0  0  0  3  0  0  0  0  0  0
  192.0180  175.2370  144.1710 C   0  0  0  0  0  2  0  0  0  0  0  0
  188.8930  178.1210  142.1700 O   0  0  0  0  0  1  0  0  0  0  0  0
  190.7140  174.1670  141.8150 C   0  0  0  0  0  3  0  0  0  0  0  0
  190.1250  175.2830  142.4340 C   0  0  0  0  0  0  0  0  0  0  0  0
  190.2810  177.9170  145.3960 O   0  0  0  0  0  0  0  0  0  0  0  0
  190.8720  176.0290  143.5250 C   0  0  1  0  0  3  0  0  0  0  0  0
  188.2340  175.0910  140.8990 C   0  0  0  0  0  3  0  0  0  0  0  0
  188.1990  176.9640  142.5350 C   0  0  2  0  0  3  0  0  0  0  0  0
  189.6720  175.3470  146.1070 C   0  0  0  0  0  2  0  0  0  0  0  0
  191.5120  174.1580  145.0180 N   0  0  0  0  0  2  0  0  0  0  0  0
  188.8210  173.9710  140.3120 C   0  0  0  0  0  0  0  0  0  0  0  0
  189.7410  176.6280  144.8240 P   0  0  1  0  0  0  0  0  0  0  0  0
  188.0960  176.8350  144.0550 C   0  0  1  0  0  3  0  0  0  0  0  0
  191.0590  174.7420  146.2770 C   0  0  0  0  0  2  0  0  0  0  0  0
  188.8750  175.7550  141.9510 C   0  0  0  0  0  0  0  0  0  0  0  0
  186.9360  177.6420  146.2280 C   0  0  0  0  0  2  0  0  0  0  0  0
  184.4420  177.6660  146.3220 C   0  0  0  0  0  3  0  0  0  0  0  0
  185.0850  179.2600  144.4170 C   0  0  1  0  0  3  0  0  0  0  0  0
  187.1560  177.8510  144.7160 C   0  0  2  0  0  3  0  0  0  0  0  0
  185.8780  178.0620  143.8970 C   0  0  0  0  0  2  0  0  0  0  0  0
  185.6010  177.0410  146.5710 C   0  0  0  0  0  3  0  0  0  0  0  0
  183.7160  178.9390  144.4490 O   0  0  0  0  0  0  0  0  0  0  0  0
  184.3470  179.0410  145.7050 C   0  0  1  0  0  3  0  0  0  0  0  0
  1  2  2  0  0  0  0
  1  5  1  0  0  0  0
  2  3  1  0  0  0  0
  3  4  2  0  0  0  0
  4  8  1  0  0  0  0
  5 16  2  0  0  0  0
  6 15  1  0  0  0  0
  8  9  2  0  0  0  0
  9 11  1  0  0  0  0
 11  6  1  1  0  0  0
 11 17  1  0  0  0  0
 12 20  2  0  0  0  0
 13  7  1  1  0  0  0
 13 18  1  0  0  0  0
 14 19  1  0  0  0  0
 15 19  1  0  0  0  0
 16  4  1  0  0  0  0
 16 12  1  0  0  0  0
 17 10  2  1  0  0  0
 17 14  1  0  0  0  0
 18 24  1  1  0  0  0
 18 17  1  0  0  0  0
 20  9  1  0  0  0  0
 20 13  1  0  0  0  0
 21 26  1  0  0  0  0
 22 26  2  0  0  0  0
 23 25  1  6  0  0  0
 23 27  1  0  0  0  0
 23 28  1  0  0  0  0
 24 25  1  6  0  0  0
 24 21  1  0  0  0  0
 27 28  1  0  0  0  0
 28 22  1  6  0  0  0
M  END
>  <MODEL>
1

>  <REMARK>
 VINA RESULT:      -8.5      0.000      0.000
  Name = 
  1 active torsions:
  status: ('A' for Active; 'I' for Inactive)
    1  A    between atoms: C_8  and  C_26
                            x       y       z     vdW  Elec       q    Type
                         _______ _______ _______ _____ _____    ______ ____

>  <TORSDO>
F 1

$$$$
=
 OpenBabel11042418253D

 28 33  0  0  1  0  0  0  0  0999 V2000
  184.7380  178.6470  147.2630 C   0  0  0  0  0  3  0  0  0  0  0  0
  184.0660  178.3760  146.1130 N   0  0  0  0  0  0  0  0  0  0  0  0
  184.6920  177.8950  145.0350 N   0  0  0  0  0  0  0  0  0  0  0  0
  186.0300  177.6550  145.0450 C   0  0  0  0  0  0  0  0  0  0  0  0
  186.1130  178.4230  147.3310 C   0  0  0  0  0  3  0  0  0  0  0  0
  187.8010  175.8220  141.6010 C   0  0  0  0  0  2  0  0  0  0  0  0
  190.9410  177.9150  144.4020 O   0  0  0  0  0  1  0  0  0  0  0  0
  186.6690  177.1540  143.9120 C   0  0  0  0  0  3  0  0  0  0  0  0
  188.0490  176.8910  143.9250 C   0  0  0  0  0  0  0  0  0  0  0  0
  191.1620  175.3380  142.0160 O   0  0  0  0  0  0  0  0  0  0  0  0
  188.7430  176.4080  142.6630 C   0  0  1  0  0  3  0  0  0  0  0  0
  188.1440  177.6880  146.2320 C   0  0  0  0  0  3  0  0  0  0  0  0
  190.2770  176.9620  145.1800 C   0  0  2  0  0  3  0  0  0  0  0  0
  189.3140  173.5510  142.9490 C   0  0  0  0  0  2  0  0  0  0  0  0
  187.2730  174.5220  142.0130 N   0  0  0  0  0  2  0  0  0  0  0  0
  186.7690  177.9200  146.2110 C   0  0  0  0  0  0  0  0  0  0  0  0
  190.0580  175.2030  143.0390 P   0  0  1  0  0  0  0  0  0  0  0  0
  190.6320  175.5420  144.7400 C   0  0  1  0  0  3  0  0  0  0  0  0
  188.3130  173.5200  141.8020 C   0  0  0  0  0  2  0  0  0  0  0  0
  188.7920  177.1810  145.1000 C   0  0  0  0  0  0  0  0  0  0  0  0
  192.4420  175.2240  146.5690 C   0  0  0  0  0  2  0  0  0  0  0  0
  194.5670  176.5220  146.3960 C   0  0  0  0  0  3  0  0  0  0  0  0
  194.4590  175.0720  144.2820 C   0  0  1  0  0  3  0  0  0  0  0  0
  192.0660  175.1130  145.0770 C   0  0  2  0  0  3  0  0  0  0  0  0
  193.0840  175.7160  144.1040 C   0  0  0  0  0  2  0  0  0  0  0  0
  193.3260  176.3970  146.8880 C   0  0  0  0  0  3  0  0  0  0  0  0
  195.4520  176.0670  144.2370 O   0  0  0  0  0  0  0  0  0  0  0  0
  195.2200  175.4950  145.5030 C   0  0  1  0  0  3  0  0  0  0  0  0
  1  5  1  0  0  0  0
  2  1  2  0  0  0  0
  3  4  2  0  0  0  0
  3  2  1  0  0  0  0
  4 16  1  0  0  0  0
  6 15  1  0  0  0  0
  8  9  2  0  0  0  0
  8  4  1  0  0  0  0
  9 20  1  0  0  0  0
 11  6  1  6  0  0  0
 11 17  1  0  0  0  0
 11  9  1  0  0  0  0
 13  7  1  6  0  0  0
 14 17  1  0  0  0  0
 16 12  1  0  0  0  0
 16  5  2  0  0  0  0
 17 10  2  6  0  0  0
 17 18  1  0  0  0  0
 18 24  1  6  0  0  0
 18 13  1  0  0  0  0
 19 15  1  0  0  0  0
 19 14  1  0  0  0  0
 20 13  1  0  0  0  0
 20 12  2  0  0  0  0
 21 26  1  0  0  0  0
 22 26  2  0  0  0  0
 23 25  1  1  0  0  0
 23 28  1  0  0  0  0
 24 25  1  6  0  0  0
 24 21  1  0  0  0  0
 27 23  1  0  0  0  0
 27 28  1  0  0  0  0
 28 22  1  1  0  0  0
M  END
>  <MODEL>
2

>  <REMARK>
 VINA RESULT:      -8.2      3.124      7.221
  Name = 
  1 active torsions:
  status: ('A' for Active; 'I' for Inactive)
    1  A    between atoms: C_8  and  C_26
                            x       y       z     vdW  Elec       q    Type
                         _______ _______ _______ _____ _____    ______ ____

>  <TORSDO>
F 1

$$$$
=
 OpenBabel11042418253D

 28 33  0  0  1  0  0  0  0  0999 V2000
  184.7920  178.4560  147.3070 C   0  0  0  0  0  3  0  0  0  0  0  0
  184.2000  178.2380  146.1030 N   0  0  0  0  0  0  0  0  0  0  0  0
  184.8870  177.7560  145.0640 N   0  0  0  0  0  0  0  0  0  0  0  0
  186.2100  177.4640  145.1680 C   0  0  0  0  0  0  0  0  0  0  0  0
  186.1480  178.1770  147.4720 C   0  0  0  0  0  3  0  0  0  0  0  0
  188.1670  175.6400  141.8210 C   0  0  0  0  0  2  0  0  0  0  0  0
  191.1630  177.5460  144.9010 O   0  0  0  0  0  1  0  0  0  0  0  0
  186.9140  176.9630  144.0730 C   0  0  0  0  0  3  0  0  0  0  0  0
  188.2780  176.6470  144.1830 C   0  0  0  0  0  0  0  0  0  0  0  0
  191.4670  175.0160  142.4750 O   0  0  0  0  0  0  0  0  0  0  0  0
  189.0470  176.1650  142.9650 C   0  0  1  0  0  3  0  0  0  0  0  0
  188.2280  177.3880  146.5100 C   0  0  0  0  0  3  0  0  0  0  0  0
  190.4060  176.6030  145.6020 C   0  0  2  0  0  3  0  0  0  0  0  0
  189.4880  173.2830  143.2210 C   0  0  0  0  0  2  0  0  0  0  0  0
  187.5610  174.3530  142.1600 N   0  0  0  0  0  2  0  0  0  0  0  0
  186.8680  177.6750  146.3920 C   0  0  0  0  0  0  0  0  0  0  0  0
  190.2840  174.9020  143.4080 P   0  0  1  0  0  0  0  0  0  0  0  0
  190.7400  175.1800  145.1560 C   0  0  1  0  0  3  0  0  0  0  0  0
  188.5770  173.3160  142.0020 C   0  0  0  0  0  2  0  0  0  0  0  0
  188.9410  176.8820  145.4180 C   0  0  0  0  0  0  0  0  0  0  0  0
  193.2330  175.7630  145.5610 C   0  0  0  0  0  2  0  0  0  0  0  0
  194.9780  174.5730  144.2310 C   0  0  0  0  0  3  0  0  0  0  0  0
  193.7450  172.7530  145.5540 C   0  0  1  0  0  3  0  0  0  0  0  0
  192.1270  174.6880  145.5880 C   0  0  2  0  0  3  0  0  0  0  0  0
  192.4960  173.3610  144.9160 C   0  0  0  0  0  2  0  0  0  0  0  0
  194.1780  175.6360  144.3980 C   0  0  0  0  0  3  0  0  0  0  0  0
  194.5870  172.2490  144.5460 O   0  0  0  0  0  0  0  0  0  0  0  0
  195.0430  173.4140  145.1950 C   0  0  1  0  0  3  0  0  0  0  0  0
  1  5  1  0  0  0  0
  2  1  2  0  0  0  0
  3  4  2  0  0  0  0
  3  2  1  0  0  0  0
  4 16  1  0  0  0  0
  6 15  1  0  0  0  0
  8  9  2  0  0  0  0
  8  4  1  0  0  0  0
  9 20  1  0  0  0  0
 11  6  1  6  0  0  0
 11 17  1  0  0  0  0
 11  9  1  0  0  0  0
 13  7  1  6  0  0  0
 14 17  1  0  0  0  0
 16 12  1  0  0  0  0
 16  5  2  0  0  0  0
 17 10  2  6  0  0  0
 17 18  1  0  0  0  0
 18 24  1  6  0  0  0
 18 13  1  0  0  0  0
 19 15  1  0  0  0  0
 19 14  1  0  0  0  0
 20 13  1  0  0  0  0
 20 12  2  0  0  0  0
 21 24  1  0  0  0  0
 22 26  2  0  0  0  0
 23 25  1  6  0  0  0
 24 25  1  6  0  0  0
 26 21  1  0  0  0  0
 27 28  1  0  0  0  0
 27 23  1  0  0  0  0
 28 22  1  6  0  0  0
 28 23  1  0  0  0  0
M  END
>  <MODEL>
3

>  <REMARK>
 VINA RESULT:      -7.5      3.230      7.445
  Name = 
  1 active torsions:
  status: ('A' for Active; 'I' for Inactive)
    1  A    between atoms: C_8  and  C_26
                            x       y       z     vdW  Elec       q    Type
                         _______ _______ _______ _____ _____    ______ ____

>  <TORSDO>
F 1

$$$$
=
 OpenBabel11042418253D

 28 33  0  0  1  0  0  0  0  0999 V2000
  185.8910  179.0400  142.7670 C   0  0  0  0  0  3  0  0  0  0  0  0
  185.4320  178.6220  143.9760 N   0  0  0  0  0  0  0  0  0  0  0  0
  186.0970  177.7190  144.7030 N   0  0  0  0  0  0  0  0  0  0  0  0
  187.2640  177.1810  144.2610 C   0  0  0  0  0  0  0  0  0  0  0  0
  187.0830  178.5190  142.2620 C   0  0  0  0  0  3  0  0  0  0  0  0
  189.4050  174.5370  146.8660 C   0  0  0  0  0  2  0  0  0  0  0  0
  190.7360  174.1830  142.3720 O   0  0  0  0  0  1  0  0  0  0  0  0
  187.9450  176.2380  145.0310 C   0  0  0  0  0  3  0  0  0  0  0  0
  189.1590  175.6900  144.5830 C   0  0  0  0  0  0  0  0  0  0  0  0
  192.3030  173.4230  145.4300 O   0  0  0  0  0  0  0  0  0  0  0  0
  189.8560  174.6160  145.4000 C   0  0  1  0  0  3  0  0  0  0  0  0
  188.9710  177.0260  142.5460 C   0  0  0  0  0  3  0  0  0  0  0  0
  190.9350  175.5140  142.7500 C   0  0  2  0  0  3  0  0  0  0  0  0
  192.1630  175.8180  146.7420 C   0  0  0  0  0  2  0  0  0  0  0  0
  189.8910  175.6800  147.6380 N   0  0  0  0  0  2  0  0  0  0  0  0
  187.7790  177.5780  143.0160 C   0  0  0  0  0  0  0  0  0  0  0  0
  191.6690  174.7910  145.3310 P   0  0  1  0  0  0  0  0  0  0  0  0
  192.0720  175.6400  143.7640 C   0  0  1  0  0  3  0  0  0  0  0  0
  191.3010  175.4580  147.9440 C   0  0  0  0  0  2  0  0  0  0  0  0
  189.6630  176.0830  143.3140 C   0  0  0  0  0  0  0  0  0  0  0  0
  194.5630  175.1040  144.2370 C   0  0  0  0  0  2  0  0  0  0  0  0
  196.3040  176.7390  143.5130 C   0  0  0  0  0  3  0  0  0  0  0  0
  195.1070  175.9950  141.3680 C   0  0  1  0  0  3  0  0  0  0  0  0
  193.4690  175.3830  143.1860 C   0  0  2  0  0  3  0  0  0  0  0  0
  193.8440  176.4160  142.1190 C   0  0  0  0  0  2  0  0  0  0  0  0
  195.4950  176.2610  144.4680 C   0  0  0  0  0  3  0  0  0  0  0  0
  195.9420  177.1130  141.1920 O   0  0  0  0  0  0  0  0  0  0  0  0
  196.3940  176.1560  142.1220 C   0  0  1  0  0  3  0  0  0  0  0  0
  1  2  1  0  0  0  0
  2  3  2  0  0  0  0
  4  3  1  0  0  0  0
  4  8  1  0  0  0  0
  5  1  2  0  0  0  0
  5 16  1  0  0  0  0
  6 15  1  0  0  0  0
  9  8  2  0  0  0  0
  9 11  1  0  0  0  0
 11  6  1  1  0  0  0
 12 16  1  0  0  0  0
 12 20  2  0  0  0  0
 13  7  1  1  0  0  0
 13 20  1  0  0  0  0
 13 18  1  0  0  0  0
 14 19  1  0  0  0  0
 15 19  1  0  0  0  0
 16  4  2  0  0  0  0
 17 11  1  0  0  0  0
 17 10  2  1  0  0  0
 17 14  1  0  0  0  0
 18 24  1  6  0  0  0
 18 17  1  0  0  0  0
 20  9  1  0  0  0  0
 21 26  1  0  0  0  0
 22 26  2  0  0  0  0
 23 25  1  1  0  0  0
 23 28  1  0  0  0  0
 24 25  1  1  0  0  0
 24 21  1  0  0  0  0
 27 23  1  0  0  0  0
 27 28  1  0  0  0  0
 28 22  1  1  0  0  0
M  END
>  <MODEL>
4

>  <REMARK>
 VINA RESULT:      -7.4      3.892      6.998
  Name = 
  1 active torsions:
  status: ('A' for Active; 'I' for Inactive)
    1  A    between atoms: C_8  and  C_26
                            x       y       z     vdW  Elec       q    Type
                         _______ _______ _______ _____ _____    ______ ____

>  <TORSDO>
F 1

$$$$
=
 OpenBabel11042418253D

 28 33  0  0  1  0  0  0  0  0999 V2000
  185.5670  177.9450  140.1470 C   0  0  0  0  0  3  0  0  0  0  0  0
  184.7030  178.2620  141.1470 N   0  0  0  0  0  0  0  0  0  0  0  0
  184.9590  177.9430  142.4190 N   0  0  0  0  0  0  0  0  0  0  0  0
  186.0970  177.2860  142.7650 C   0  0  0  0  0  0  0  0  0  0  0  0
  186.7510  177.2690  140.4430 C   0  0  0  0  0  3  0  0  0  0  0  0
  186.8840  176.6250  146.9250 C   0  0  0  0  0  2  0  0  0  0  0  0
  189.4240  173.8580  144.1000 O   0  0  0  0  0  1  0  0  0  0  0  0
  186.3480  176.9590  144.0980 C   0  0  0  0  0  3  0  0  0  0  0  0
  187.5310  176.2930  144.4610 C   0  0  0  0  0  0  0  0  0  0  0  0
  189.8510  174.9910  147.4040 O   0  0  0  0  0  0  0  0  0  0  0  0
  187.7610  175.8840  145.9050 C   0  0  1  0  0  3  0  0  0  0  0  0
  188.1890  176.2530  142.1080 C   0  0  0  0  0  3  0  0  0  0  0  0
  189.7200  175.1780  143.7470 C   0  0  2  0  0  3  0  0  0  0  0  0
  189.7250  177.7040  147.0870 C   0  0  0  0  0  2  0  0  0  0  0  0
  187.2990  178.0190  147.0750 N   0  0  0  0  0  2  0  0  0  0  0  0
  187.0210  176.9350  141.7680 C   0  0  0  0  0  0  0  0  0  0  0  0
  189.5130  176.0480  146.3790 P   0  0  1  0  0  0  0  0  0  0  0  0
  190.5040  175.8860  144.8520 C   0  0  1  0  0  3  0  0  0  0  0  0
  188.4940  178.0510  147.9130 C   0  0  0  0  0  2  0  0  0  0  0  0
  188.4510  175.9240  143.4430 C   0  0  0  0  0  0  0  0  0  0  0  0
  192.4950  175.4800  146.4610 C   0  0  0  0  0  2  0  0  0  0  0  0
  194.6400  176.6880  146.0490 C   0  0  0  0  0  3  0  0  0  0  0  0
  194.2300  175.2580  143.9580 C   0  0  1  0  0  3  0  0  0  0  0  0
  191.9470  175.3950  145.0220 C   0  0  2  0  0  3  0  0  0  0  0  0
  192.8730  175.9600  143.9400 C   0  0  0  0  0  2  0  0  0  0  0  0
  193.4590  176.6120  146.6790 C   0  0  0  0  0  3  0  0  0  0  0  0
  195.2530  176.2100  143.8020 O   0  0  0  0  0  0  0  0  0  0  0  0
  195.1430  175.6400  145.0860 C   0  0  1  0  0  3  0  0  0  0  0  0
  1  5  2  0  0  0  0
  1  2  1  0  0  0  0
  2  3  2  0  0  0  0
  3  4  1  0  0  0  0
  4  8  1  0  0  0  0
  5 16  1  0  0  0  0
  6 15  1  0  0  0  0
  8  9  2  0  0  0  0
  9 11  1  0  0  0  0
 11 17  1  0  0  0  0
 11  6  1  1  0  0  0
 12 20  2  0  0  0  0
 13  7  1  1  0  0  0
 13 18  1  0  0  0  0
 14 19  1  0  0  0  0
 15 19  1  0  0  0  0
 16 12  1  0  0  0  0
 16  4  2  0  0  0  0
 17 14  1  0  0  0  0
 17 10  2  1  0  0  0
 18 24  1  1  0  0  0
 18 17  1  0  0  0  0
 20 13  1  0  0  0  0
 20  9  1  0  0  0  0
 21 26  1  0  0  0  0
 22 26  2  0  0  0  0
 23 25  1  1  0  0  0
 23 28  1  0  0  0  0
 24 25  1  6  0  0  0
 24 21  1  0  0  0  0
 27 23  1  0  0  0  0
 27 28  1  0  0  0  0
 28 22  1  1  0  0  0
M  END
>  <MODEL>
5

>  <REMARK>
 VINA RESULT:      -7.4      3.749      6.340
  Name = 
  1 active torsions:
  status: ('A' for Active; 'I' for Inactive)
    1  A    between atoms: C_8  and  C_26
                            x       y       z     vdW  Elec       q    Type
                         _______ _______ _______ _____ _____    ______ ____

>  <TORSDO>
F 1

$$$$
=
 OpenBabel11042418253D

 28 33  0  0  1  0  0  0  0  0999 V2000
  184.0860  178.7060  146.7710 C   0  0  0  0  0  3  0  0  0  0  0  0
  183.8370  179.0410  145.4780 N   0  0  0  0  0  0  0  0  0  0  0  0
  184.7300  178.8100  144.5110 N   0  0  0  0  0  0  0  0  0  0  0  0
  185.9270  178.2280  144.7830 C   0  0  0  0  0  0  0  0  0  0  0  0
  185.2990  178.1080  147.1100 C   0  0  0  0  0  3  0  0  0  0  0  0
  188.5280  177.2870  141.5100 C   0  0  0  0  0  2  0  0  0  0  0  0
  190.7300  177.3500  145.6620 O   0  0  0  0  0  1  0  0  0  0  0  0
  186.8500  177.9940  143.7630 C   0  0  0  0  0  3  0  0  0  0  0  0
  188.0820  177.3790  144.0400 C   0  0  0  0  0  0  0  0  0  0  0  0
  191.4150  175.7970  142.5810 O   0  0  0  0  0  0  0  0  0  0  0  0
  189.1040  177.1920  142.9310 C   0  0  1  0  0  3  0  0  0  0  0  0
  187.4620  177.2750  146.4000 C   0  0  0  0  0  3  0  0  0  0  0  0
  189.7040  176.4060  145.7630 C   0  0  2  0  0  3  0  0  0  0  0  0
  189.1220  174.3710  142.1490 C   0  0  0  0  0  2  0  0  0  0  0  0
  187.7080  176.1200  141.1860 N   0  0  0  0  0  2  0  0  0  0  0  0
  186.2330  177.8640  146.1060 C   0  0  0  0  0  0  0  0  0  0  0  0
  190.0130  175.6230  143.1140 P   0  0  1  0  0  0  0  0  0  0  0  0
  189.9850  175.1850  144.8880 C   0  0  1  0  0  3  0  0  0  0  0  0
  188.6020  175.0100  140.8690 C   0  0  0  0  0  2  0  0  0  0  0  0
  188.3920  177.0330  145.3820 C   0  0  0  0  0  0  0  0  0  0  0  0
  192.0450  174.9500  146.4440 C   0  0  0  0  0  2  0  0  0  0  0  0
  194.2800  174.5130  145.4230 C   0  0  0  0  0  3  0  0  0  0  0  0
  192.8060  172.5200  144.7590 C   0  0  1  0  0  3  0  0  0  0  0  0
  191.1290  174.2940  145.3900 C   0  0  2  0  0  3  0  0  0  0  0  0
  191.8590  173.6000  144.2370 C   0  0  0  0  0  2  0  0  0  0  0  0
  193.3810  175.3820  145.9050 C   0  0  0  0  0  3  0  0  0  0  0  0
  194.0230  172.5840  144.0570 O   0  0  0  0  0  0  0  0  0  0  0  0
  194.0700  173.0180  145.3960 C   0  0  1  0  0  3  0  0  0  0  0  0
  1  5  1  0  0  0  0
  2  1  2  0  0  0  0
  3  4  2  0  0  0  0
  3  2  1  0  0  0  0
  4 16  1  0  0  0  0
  8  9  2  0  0  0  0
  8  4  1  0  0  0  0
  9 20  1  0  0  0  0
 11  6  1  6  0  0  0
 11 17  1  0  0  0  0
 11  9  1  0  0  0  0
 13  7  1  6  0  0  0
 14 17  1  0  0  0  0
 15  6  1  0  0  0  0
 16 12  1  0  0  0  0
 16  5  2  0  0  0  0
 17 10  2  6  0  0  0
 17 18  1  0  0  0  0
 18 24  1  1  0  0  0
 18 13  1  0  0  0  0
 19 15  1  0  0  0  0
 19 14  1  0  0  0  0
 20 13  1  0  0  0  0
 20 12  2  0  0  0  0
 22 26  2  0  0  0  0
 23 25  1  6  0  0  0
 23 28  1  0  0  0  0
 24 25  1  6  0  0  0
 24 21  1  0  0  0  0
 26 21  1  0  0  0  0
 27 23  1  0  0  0  0
 27 28  1  0  0  0  0
 28 22  1  6  0  0  0
M  END
>  <MODEL>
6

>  <REMARK>
 VINA RESULT:      -7.3      3.194      7.301
  Name = 
  1 active torsions:
  status: ('A' for Active; 'I' for Inactive)
    1  A    between atoms: C_8  and  C_26
                            x       y       z     vdW  Elec       q    Type
                         _______ _______ _______ _____ _____    ______ ____

>  <TORSDO>
F 1

$$$$
=
 OpenBabel11042418253D

 28 33  0  0  1  0  0  0  0  0999 V2000
  195.2900  176.7840  144.6380 C   0  0  0  0  0  3  0  0  0  0  0  0
  195.5300  175.8060  143.7240 N   0  0  0  0  0  0  0  0  0  0  0  0
  194.5400  175.0710  143.2100 N   0  0  0  0  0  0  0  0  0  0  0  0
  193.2480  175.2720  143.5810 C   0  0  0  0  0  0  0  0  0  0  0  0
  193.9830  177.0320  145.0580 C   0  0  0  0  0  3  0  0  0  0  0  0
  190.1840  173.0290  141.5960 C   0  0  0  0  0  2  0  0  0  0  0  0
  188.7570  174.9150  145.6570 O   0  0  0  0  0  1  0  0  0  0  0  0
  192.2260  174.4950  143.0360 C   0  0  0  0  0  3  0  0  0  0  0  0
  190.8880  174.7100  143.4070 C   0  0  0  0  0  0  0  0  0  0  0  0
  187.0720  173.8360  142.7630 O   0  0  0  0  0  0  0  0  0  0  0  0
  189.7930  173.8130  142.8570 C   0  0  1  0  0  3  0  0  0  0  0  0
  191.6280  176.4790  144.9210 C   0  0  0  0  0  3  0  0  0  0  0  0
  189.1940  175.9710  144.8520 C   0  0  2  0  0  3  0  0  0  0  0  0
  188.3130  175.2980  140.8130 C   0  0  0  0  0  2  0  0  0  0  0  0
  190.2880  173.9060  140.4300 N   0  0  0  0  0  2  0  0  0  0  0  0
  192.9480  176.2690  144.5240 C   0  0  0  0  0  0  0  0  0  0  0  0
  188.2580  174.7440  142.5400 P   0  0  1  0  0  0  0  0  0  0  0  0
  188.2590  176.1870  143.6620 C   0  0  1  0  0  3  0  0  0  0  0  0
  188.9380  174.2010  139.9610 C   0  0  0  0  0  2  0  0  0  0  0  0
  190.5960  175.7070  144.3760 C   0  0  0  0  0  0  0  0  0  0  0  0
  186.1300  177.4300  142.8600 C   0  0  0  0  0  2  0  0  0  0  0  0
  185.5670  179.6340  143.8880 C   0  0  0  0  0  3  0  0  0  0  0  0
  185.5420  177.9380  145.8130 C   0  0  1  0  0  3  0  0  0  0  0  0
  186.8880  176.7680  144.0300 C   0  0  2  0  0  3  0  0  0  0  0  0
  186.9460  177.5960  145.3170 C   0  0  0  0  0  2  0  0  0  0  0  0
  186.1430  178.9330  142.9020 C   0  0  0  0  0  3  0  0  0  0  0  0
  185.5070  179.2780  146.2380 O   0  0  0  0  0  0  0  0  0  0  0  0
  184.8210  179.0020  145.0390 C   0  0  1  0  0  3  0  0  0  0  0  0
  1  5  1  0  0  0  0
  2  1  2  0  0  0  0
  3  4  2  0  0  0  0
  3  2  1  0  0  0  0
  4 16  1  0  0  0  0
  8  9  2  0  0  0  0
  8  4  1  0  0  0  0
  9 20  1  0  0  0  0
 11  6  1  6  0  0  0
 11  9  1  0  0  0  0
 13  7  1  6  0  0  0
 14 17  1  0  0  0  0
 15  6  1  0  0  0  0
 16 12  1  0  0  0  0
 16  5  2  0  0  0  0
 17 10  2  1  0  0  0
 17 11  1  0  0  0  0
 17 18  1  0  0  0  0
 18 24  1  1  0  0  0
 18 13  1  0  0  0  0
 19 15  1  0  0  0  0
 19 14  1  0  0  0  0
 20 13  1  0  0  0  0
 20 12  2  0  0  0  0
 21 26  1  0  0  0  0
 23 25  1  6  0  0  0
 23 27  1  0  0  0  0
 24 21  1  6  0  0  0
 24 25  1  0  0  0  0
 26 22  2  0  0  0  0
 28 22  1  6  0  0  0
 28 23  1  0  0  0  0
 28 27  1  0  0  0  0
M  END
>  <MODEL>
7

>  <REMARK>
 VINA RESULT:      -7.2      2.178      4.757
  Name = 
  1 active torsions:
  status: ('A' for Active; 'I' for Inactive)
    1  A    between atoms: C_8  and  C_26
                            x       y       z     vdW  Elec       q    Type
                         _______ _______ _______ _____ _____    ______ ____

>  <TORSDO>
F 1

$$$$
=
 OpenBabel11042418253D

 28 33  0  0  1  0  0  0  0  0999 V2000
  194.9650  175.5120  146.1300 C   0  0  0  0  0  3  0  0  0  0  0  0
  194.9450  174.5560  145.1640 N   0  0  0  0  0  0  0  0  0  0  0  0
  193.8120  174.2150  144.5420 N   0  0  0  0  0  0  0  0  0  0  0  0
  192.6320  174.8120  144.8510 C   0  0  0  0  0  0  0  0  0  0  0  0
  193.7820  176.1570  146.4900 C   0  0  0  0  0  3  0  0  0  0  0  0
  189.1690  173.8050  142.5360 C   0  0  0  0  0  2  0  0  0  0  0  0
  188.1210  175.8560  146.6330 O   0  0  0  0  0  1  0  0  0  0  0  0
  191.4580  174.4430  144.1940 C   0  0  0  0  0  3  0  0  0  0  0  0
  190.2380  175.0700  144.5010 C   0  0  0  0  0  0  0  0  0  0  0  0
  186.4080  175.5360  143.5760 O   0  0  0  0  0  0  0  0  0  0  0  0
  188.9570  174.6120  143.8250 C   0  0  1  0  0  3  0  0  0  0  0  0
  191.3930  176.4190  146.1780 C   0  0  0  0  0  3  0  0  0  0  0  0
  188.9400  176.7470  145.9320 C   0  0  2  0  0  3  0  0  0  0  0  0
  188.2060  176.5990  141.8110 C   0  0  0  0  0  2  0  0  0  0  0  0
  189.6440  174.6540  141.4450 N   0  0  0  0  0  2  0  0  0  0  0  0
  192.6000  175.8050  145.8440 C   0  0  0  0  0  0  0  0  0  0  0  0
  187.8390  176.0120  143.4880 P   0  0  1  0  0  0  0  0  0  0  0  0
  188.2220  177.3160  144.7090 C   0  0  1  0  0  3  0  0  0  0  0  0
  188.5040  175.4010  140.9210 C   0  0  0  0  0  2  0  0  0  0  0  0
  190.2120  176.0580  145.5210 C   0  0  0  0  0  0  0  0  0  0  0  0
  186.5550  178.2100  146.4810 C   0  0  0  0  0  2  0  0  0  0  0  0
  184.1070  178.0150  146.0370 C   0  0  0  0  0  3  0  0  0  0  0  0
  185.0460  179.4790  144.1500 C   0  0  1  0  0  3  0  0  0  0  0  0
  187.0910  178.2990  145.0370 C   0  0  2  0  0  3  0  0  0  0  0  0
  186.0150  178.3150  143.9460 C   0  0  0  0  0  2  0  0  0  0  0  0
  185.2220  177.5240  146.5950 C   0  0  0  0  0  3  0  0  0  0  0  0
  183.7290  179.0380  143.9240 O   0  0  0  0  0  0  0  0  0  0  0  0
  184.0570  179.3120  145.2660 C   0  0  1  0  0  3  0  0  0  0  0  0
  1  5  1  0  0  0  0
  2  1  2  0  0  0  0
  3  4  2  0  0  0  0
  3  2  1  0  0  0  0
  4 16  1  0  0  0  0
  8  9  2  0  0  0  0
  8  4  1  0  0  0  0
  9 20  1  0  0  0  0
 11  6  1  6  0  0  0
 11  9  1  0  0  0  0
 13  7  1  6  0  0  0
 14 17  1  0  0  0  0
 15  6  1  0  0  0  0
 16 12  1  0  0  0  0
 16  5  2  0  0  0  0
 17 10  2  1  0  0  0
 17 11  1  0  0  0  0
 17 18  1  0  0  0  0
 18 24  1  1  0  0  0
 18 13  1  0  0  0  0
 19 15  1  0  0  0  0
 19 14  1  0  0  0  0
 20 13  1  0  0  0  0
 20 12  2  0  0  0  0
 21 26  1  0  0  0  0
 22 26  2  0  0  0  0
 23 25  1  1  0  0  0
 23 28  1  0  0  0  0
 24 25  1  6  0  0  0
 24 21  1  0  0  0  0
 27 23  1  0  0  0  0
 27 28  1  0  0  0  0
 28 22  1  1  0  0  0
M  END
>  <MODEL>
8

>  <REMARK>
 VINA RESULT:      -7.2      1.939      4.618
  Name = 
  1 active torsions:
  status: ('A' for Active; 'I' for Inactive)
    1  A    between atoms: C_8  and  C_26
                            x       y       z     vdW  Elec       q    Type
                         _______ _______ _______ _____ _____    ______ ____

>  <TORSDO>
F 1

$$$$
=
 OpenBabel11042418253D

 28 33  0  0  1  0  0  0  0  0999 V2000
  184.9500  179.5290  144.4760 C   0  0  0  0  0  3  0  0  0  0  0  0
  184.8580  179.0480  145.7440 N   0  0  0  0  0  0  0  0  0  0  0  0
  185.6880  178.1030  146.1950 N   0  0  0  0  0  0  0  0  0  0  0  0
  186.6610  177.5830  145.4020 C   0  0  0  0  0  0  0  0  0  0  0  0
  185.9280  179.0300  143.6160 C   0  0  0  0  0  3  0  0  0  0  0  0
  189.4190  174.7910  147.1220 C   0  0  0  0  0  2  0  0  0  0  0  0
  189.3610  174.6770  142.4240 O   0  0  0  0  0  1  0  0  0  0  0  0
  187.5190  176.5970  145.8880 C   0  0  0  0  0  3  0  0  0  0  0  0
  188.5360  176.0680  145.0740 C   0  0  0  0  0  0  0  0  0  0  0  0
  191.7420  173.7420  144.8400 O   0  0  0  0  0  0  0  0  0  0  0  0
  189.4200  174.9480  145.5940 C   0  0  1  0  0  3  0  0  0  0  0  0
  187.7850  177.5150  143.2550 C   0  0  0  0  0  3  0  0  0  0  0  0
  189.6900  175.9840  142.7930 C   0  0  2  0  0  3  0  0  0  0  0  0
  192.0450  176.0630  146.2550 C   0  0  0  0  0  2  0  0  0  0  0  0
  190.1340  175.8870  147.7730 N   0  0  0  0  0  2  0  0  0  0  0  0
  186.7960  178.0460  144.0820 C   0  0  0  0  0  0  0  0  0  0  0  0
  191.1360  175.1170  145.0020 P   0  0  1  0  0  0  0  0  0  0  0  0
  191.0770  176.0480  143.4320 C   0  0  1  0  0  3  0  0  0  0  0  0
  191.5660  175.6410  147.6380 C   0  0  0  0  0  2  0  0  0  0  0  0
  188.6520  176.5270  143.7350 C   0  0  0  0  0  0  0  0  0  0  0  0
  192.1110  174.5460  141.5890 C   0  0  0  0  0  2  0  0  0  0  0  0
  194.3420  173.5050  141.9970 C   0  0  0  0  0  3  0  0  0  0  0  0
  194.7240  176.0410  142.0980 C   0  0  1  0  0  3  0  0  0  0  0  0
  192.2370  175.8170  142.4550 C   0  0  2  0  0  3  0  0  0  0  0  0
  193.5980  176.0080  143.1310 C   0  0  0  0  0  2  0  0  0  0  0  0
  193.0050  173.4200  142.0270 C   0  0  0  0  0  3  0  0  0  0  0  0
  195.8130  175.2850  142.5660 O   0  0  0  0  0  0  0  0  0  0  0  0
  195.0930  174.7170  141.4970 C   0  0  1  0  0  3  0  0  0  0  0  0
  1  2  1  0  0  0  0
  2  3  2  0  0  0  0
  4  8  1  0  0  0  0
  4  3  1  0  0  0  0
  5 16  1  0  0  0  0
  5  1  2  0  0  0  0
  6 15  1  0  0  0  0
  9 11  1  0  0  0  0
  9  8  2  0  0  0  0
 11  6  1  1  0  0  0
 12 20  2  0  0  0  0
 12 16  1  0  0  0  0
 13  7  1  1  0  0  0
 13 18  1  0  0  0  0
 13 20  1  0  0  0  0
 14 19  1  0  0  0  0
 16  4  2  0  0  0  0
 17 10  2  6  0  0  0
 17 11  1  0  0  0  0
 17 14  1  0  0  0  0
 18 24  1  6  0  0  0
 18 17  1  0  0  0  0
 19 15  1  0  0  0  0
 20  9  1  0  0  0  0
 21 26  1  0  0  0  0
 22 26  2  0  0  0  0
 23 27  1  0  0  0  0
 23 25  1  1  0  0  0
 24 21  1  1  0  0  0
 24 25  1  0  0  0  0
 28 22  1  1  0  0  0
 28 23  1  0  0  0  0
 28 27  1  0  0  0  0
M  END
>  <MODEL>
9

>  <REMARK>
 VINA RESULT:      -7.1      3.574      7.109
  Name = 
  1 active torsions:
  status: ('A' for Active; 'I' for Inactive)
    1  A    between atoms: C_8  and  C_26
                            x       y       z     vdW  Elec       q    Type
                         _______ _______ _______ _____ _____    ______ ____

>  <TORSDO>
F 1

$$$$
