=
 OpenBabel11042419513D

 50 55  0  0  1  0  0  0  0  0999 V2000
  188.6180  173.8300  141.7390 C   0  0  0  0  0  0  0  0  0  0  0  0
  187.8820  174.8930  142.0620 C   0  0  0  0  0  3  0  0  0  0  0  0
  189.4960  173.8940  140.6060 N   0  0  0  0  0  2  0  0  0  0  0  0
  188.2360  172.5940  139.1160 O   0  0  0  0  0  0  0  0  0  0  0  0
  189.3080  173.2070  139.3630 C   0  0  0  0  0  0  0  0  0  0  0  0
  190.3520  173.2110  138.3880 N   0  0  0  0  0  2  0  0  0  0  0  0
  191.5160  173.8750  138.5990 O   0  0  0  0  0  0  0  0  0  0  0  0
  192.5230  172.8990  138.5140 C   0  0  1  0  0  0  0  0  0  0  0  0
  193.8010  173.4650  138.0930 N   0  0  0  0  0  2  0  0  0  0  0  0
  193.5600  173.1200  139.4970 C   0  0  2  0  0  0  0  0  0  0  0  0
  192.1140  171.0640  140.3970 O   0  0  0  0  0  0  0  0  0  0  0  0
  192.5660  171.9750  139.7240 C   0  0  0  0  0  0  0  0  0  0  0  0
  193.9280  175.1300  142.4950 C   0  0  0  0  0  2  0  0  0  0  0  0
  193.3700  173.9440  141.7400 C   0  0  0  0  0  2  0  0  0  0  0  0
  194.3780  175.2690  140.1350 C   0  0  0  0  0  2  0  0  0  0  0  0
  194.6210  175.9730  141.4530 C   0  0  2  0  0  3  0  0  0  0  0  0
  193.2900  174.3120  140.3270 N   0  0  1  0  0  0  0  0  0  0  0  0
  196.0610  176.0230  141.7280 C   0  0  0  0  0  0  0  0  0  0  0  0
  197.1980  176.0640  141.9420 N   0  0  0  0  0  0  0  0  0  0  0  0
  187.9070  176.1470  141.2530 C   0  0  0  0  0  2  0  0  0  0  0  0
  187.9070  177.2550  142.1000 O   0  0  0  0  0  0  0  0  0  0  0  0
  186.9470  176.9590  143.0700 C   0  0  0  0  0  2  0  0  0  0  0  0
  187.1660  177.1930  145.5750 C   0  0  1  0  0  3  0  0  0  0  0  0
  187.0710  177.9220  144.2460 C   0  0  2  0  0  3  0  0  0  0  0  0
  185.7790  178.6670  144.4060 C   0  0  0  0  0  2  0  0  0  0  0  0
  185.0670  177.9610  145.5470 C   0  0  0  0  0  2  0  0  0  0  0  0
  185.8650  176.8970  146.0030 O   0  0  0  0  0  0  0  0  0  0  0  0
  187.9650  175.9730  145.4950 N   0  0  0  0  0  2  0  0  0  0  0  0
  191.1930  175.7300  147.4610 C   0  0  1  0  0  3  0  0  0  0  0  0
  193.4780  175.5780  146.4630 C   0  0  0  0  0  1  0  0  0  0  0  0
  191.6100  176.2550  145.1450 O   0  0  0  0  0  0  0  0  0  0  0  0
  189.3280  176.3110  145.8860 C   0  0  2  0  0  3  0  0  0  0  0  0
  190.2990  175.8980  144.7810 C   0  0  0  0  0  2  0  0  0  0  0  0
  191.9940  175.4000  146.1970 C   0  0  2  0  0  3  0  0  0  0  0  0
  189.6990  175.5730  147.1710 C   0  0  0  0  0  2  0  0  0  0  0  0
  191.5480  174.8770  148.4890 F   0  0  0  0  0  0  0  0  0  0  0  0
  188.5750  172.6510  142.5490 N   0  0  0  0  0  2  0  0  0  0  0  0
  189.3020  172.4920  143.8000 C   0  0  0  0  0  2  0  0  0  0  0  0
  191.5700  171.9750  144.4380 N   0  0  0  0  0  0  0  0  0  0  0  0
  190.6620  171.9590  143.5180 C   0  0  0  0  0  3  0  0  0  0  0  0
  192.8180  171.4510  144.1890 O   0  0  0  0  0  0  0  0  0  0  0  0
  193.9570  171.9210  144.8960 C   0  0  0  0  0  2  0  0  0  0  0  0
  195.2010  171.1610  144.4610 C   0  0  2  0  0  3  0  0  0  0  0  0
  195.3070  169.8810  145.2280 C   0  0  0  0  0  0  0  0  0  0  0  0
  194.6900  169.7540  146.4690 O   0  0  0  0  0  1  0  0  0  0  0  0
  195.9220  168.8980  144.7290 O   0  0  0  0  0  0  0  0  0  0  0  0
  196.3360  171.9470  144.6700 O   0  0  0  0  0  0  0  0  0  0  0  0
  196.6770  174.2730  145.0140 C   0  0  0  0  0  2  0  0  0  0  0  0
  195.8850  173.0440  145.4070 C   0  0  0  0  0  3  0  0  0  0  0  0
  197.0050  173.5450  146.2970 C   0  0  0  0  0  2  0  0  0  0  0  0
  1  2  2  0  0  0  0
  1 37  1  0  0  0  0
  3  1  1  0  0  0  0
  4  5  2  0  0  0  0
  5  3  1  0  0  0  0
  6  7  1  0  0  0  0
  6  5  1  0  0  0  0
  8  7  1  1  0  0  0
  8 10  1  0  0  0  0
  8 12  1  0  0  0  0
  9  8  1  0  0  0  0
 10  9  1  6  0  0  0
 10 12  1  0  0  0  0
 10 17  1  0  0  0  0
 12 11  2  0  0  0  0
 14 13  1  0  0  0  0
 15 16  1  0  0  0  0
 16 18  1  1  0  0  0
 16 13  1  0  0  0  0
 17 15  1  1  0  0  0
 17 14  1  0  0  0  0
 18 19  3  0  0  0  0
 20  2  1  0  0  0  0
 20 21  1  0  0  0  0
 21 22  1  0  0  0  0
 23 28  1  6  0  0  0
 23 27  1  0  0  0  0
 24 22  1  6  0  0  0
 24 25  1  0  0  0  0
 24 23  1  0  0  0  0
 25 26  1  0  0  0  0
 26 27  1  0  0  0  0
 29 36  1  1  0  0  0
 31 34  1  0  0  0  0
 32 28  1  6  0  0  0
 32 35  1  0  0  0  0
 33 31  1  0  0  0  0
 33 32  1  0  0  0  0
 34 30  1  1  0  0  0
 34 29  1  0  0  0  0
 35 29  1  0  0  0  0
 37 38  1  0  0  0  0
 40 38  1  0  0  0  0
 40 39  2  0  0  0  0
 41 39  1  0  0  0  0
 41 42  1  0  0  0  0
 43 47  1  0  0  0  0
 43 42  1  1  0  0  0
 43 44  1  0  0  0  0
 44 45  1  0  0  0  0
 46 44  2  0  0  0  0
 47 49  1  0  0  0  0
 48 49  1  0  0  0  0
 48 50  1  0  0  0  0
 49 50  1  0  0  0  0
M  END
>  <MODEL>
1

>  <REMARK>
 VINA RESULT:      -5.8      0.000      0.000
  Name = 
  20 active torsions:
  status: ('A' for Active; 'I' for Inactive)
    1  A    between atoms: N_1  and  O_28
    2  A    between atoms: C_2  and  O_25
    3  A    between atoms: C_6  and  N_48
    4  A    between atoms: C_7  and  C_10
    5  A    between atoms: C_7  and  O_44
    6  A    between atoms: C_8  and  C_41
    7  A    between atoms: N_11  and  C_40
    8  A    between atoms: C_13  and  C_39
    9  A    between atoms: C_14  and  N_45
   10  A    between atoms: C_19  and  C_23
   11  A    between atoms: C_23  and  C_26
   12  A    between atoms: C_23  and  O_27
   13  A    between atoms: C_24  and  O_27
   14  A    between atoms: O_25  and  N_49
   15  A    between atoms: C_26  and  O_28
   16  A    between atoms: N_30  and  C_39
   17  A    between atoms: N_30  and  C_40
   18  A    between atoms: C_31  and  N_48
   19  A    between atoms: C_32  and  C_43
   20  A    between atoms: C_32  and  O_44
                            x       y       z     vdW  Elec       q    Type
                         _______ _______ _______ _____ _____    ______ ____

>  <TORSDO>
F 20

$$$$
=
 OpenBabel11042419513D

 50 55  0  0  1  0  0  0  0  0999 V2000
  191.8750  172.2150  141.1820 C   0  0  0  0  0  0  0  0  0  0  0  0
  192.2820  171.1440  141.8620 C   0  0  0  0  0  3  0  0  0  0  0  0
  190.8090  173.0220  141.7030 N   0  0  0  0  0  2  0  0  0  0  0  0
  189.0990  172.3120  140.2640 O   0  0  0  0  0  0  0  0  0  0  0  0
  189.4800  173.0980  141.1720 C   0  0  0  0  0  0  0  0  0  0  0  0
  188.5730  174.0800  141.6730 N   0  0  0  0  0  2  0  0  0  0  0  0
  188.9310  174.9340  142.6650 O   0  0  0  0  0  0  0  0  0  0  0  0
  188.8970  176.2140  142.0860 C   0  0  1  0  0  0  0  0  0  0  0  0
  187.5450  176.5990  141.6890 N   0  0  0  0  0  2  0  0  0  0  0  0
  188.1570  177.1470  142.9040 C   0  0  2  0  0  0  0  0  0  0  0  0
  190.7350  177.7450  143.2500 O   0  0  0  0  0  0  0  0  0  0  0  0
  189.6850  177.2510  142.8740 C   0  0  0  0  0  0  0  0  0  0  0  0
  186.9780  177.2070  146.3360 C   0  0  0  0  0  2  0  0  0  0  0  0
  188.0770  177.2690  145.2980 C   0  0  0  0  0  2  0  0  0  0  0  0
  186.1750  176.6480  144.1370 C   0  0  0  0  0  2  0  0  0  0  0  0
  185.7300  176.8420  145.5720 C   0  0  2  0  0  3  0  0  0  0  0  0
  187.6300  176.5110  144.1300 N   0  0  1  0  0  0  0  0  0  0  0  0
  184.7620  177.9410  145.6440 C   0  0  0  0  0  0  0  0  0  0  0  0
  183.9940  178.8070  145.7010 N   0  0  0  0  0  0  0  0  0  0  0  0
  191.6320  170.7250  143.1390 C   0  0  0  0  0  2  0  0  0  0  0  0
  192.4950  169.8970  143.8570 O   0  0  0  0  0  0  0  0  0  0  0  0
  193.7080  170.5860  143.8810 C   0  0  0  0  0  2  0  0  0  0  0  0
  194.4200  172.6310  145.1820 C   0  0  1  0  0  3  0  0  0  0  0  0
  193.9440  171.1910  145.2620 C   0  0  2  0  0  3  0  0  0  0  0  0
  195.1270  170.5190  145.8930 C   0  0  0  0  0  2  0  0  0  0  0  0
  196.2760  171.4920  145.6880 C   0  0  0  0  0  2  0  0  0  0  0  0
  195.8090  172.6210  144.9920 O   0  0  0  0  0  0  0  0  0  0  0  0
  193.7660  173.3860  144.1160 N   0  0  0  0  0  2  0  0  0  0  0  0
  190.7840  174.9390  145.8580 C   0  0  1  0  0  3  0  0  0  0  0  0
  190.8920  176.3260  147.9340 C   0  0  0  0  0  1  0  0  0  0  0  0
  192.8580  175.8690  146.6650 O   0  0  0  0  0  0  0  0  0  0  0  0
  192.9750  174.4380  144.7420 C   0  0  2  0  0  3  0  0  0  0  0  0
  193.6040  174.8310  146.0780 C   0  0  0  0  0  2  0  0  0  0  0  0
  191.6320  175.3130  147.0800 C   0  0  2  0  0  3  0  0  0  0  0  0
  191.5530  173.9390  144.9940 C   0  0  0  0  0  2  0  0  0  0  0  0
  189.5910  174.3700  146.2600 F   0  0  0  0  0  0  0  0  0  0  0  0
  192.5320  172.5900  139.9680 N   0  0  0  0  0  2  0  0  0  0  0  0
  192.2620  173.8210  139.2390 C   0  0  0  0  0  2  0  0  0  0  0  0
  194.2670  174.9340  139.9870 N   0  0  0  0  0  0  0  0  0  0  0  0
  193.5390  174.5430  138.9930 C   0  0  0  0  0  3  0  0  0  0  0  0
  195.4660  175.5710  139.7600 O   0  0  0  0  0  0  0  0  0  0  0  0
  196.6340  175.1920  140.4730 C   0  0  0  0  0  2  0  0  0  0  0  0
  196.2750  174.7630  141.8880 C   0  0  2  0  0  3  0  0  0  0  0  0
  196.5100  175.8960  142.8360 C   0  0  0  0  0  0  0  0  0  0  0  0
  197.1560  177.0500  142.4030 O   0  0  0  0  0  0  0  0  0  0  0  0
  196.0830  175.8220  144.0210 O   0  0  0  0  0  1  0  0  0  0  0  0
  197.0390  173.6540  142.2570 O   0  0  0  0  0  0  0  0  0  0  0  0
  195.8600  171.7640  141.4310 C   0  0  0  0  0  2  0  0  0  0  0  0
  196.9530  172.7790  141.1720 C   0  0  0  0  0  3  0  0  0  0  0  0
  197.3070  171.3780  141.6280 C   0  0  0  0  0  2  0  0  0  0  0  0
  1  3  1  0  0  0  0
  1  2  2  0  0  0  0
  2 20  1  0  0  0  0
  4  5  2  0  0  0  0
  5  6  1  0  0  0  0
  5  3  1  0  0  0  0
  6  7  1  0  0  0  0
  8  7  1  1  0  0  0
  8 12  1  0  0  0  0
  8 10  1  0  0  0  0
  9  8  1  0  0  0  0
 10  9  1  6  0  0  0
 10 17  1  0  0  0  0
 12 10  1  0  0  0  0
 12 11  2  0  0  0  0
 14 13  1  0  0  0  0
 15 16  1  0  0  0  0
 16 18  1  6  0  0  0
 16 13  1  0  0  0  0
 17 15  1  6  0  0  0
 17 14  1  0  0  0  0
 18 19  3  0  0  0  0
 20 21  1  0  0  0  0
 21 22  1  0  0  0  0
 23 28  1  6  0  0  0
 23 24  1  0  0  0  0
 24 22  1  6  0  0  0
 24 25  1  0  0  0  0
 26 25  1  0  0  0  0
 27 23  1  0  0  0  0
 27 26  1  0  0  0  0
 29 36  1  1  0  0  0
 29 34  1  0  0  0  0
 31 34  1  0  0  0  0
 32 28  1  1  0  0  0
 32 35  1  0  0  0  0
 32 33  1  0  0  0  0
 33 31  1  0  0  0  0
 34 30  1  1  0  0  0
 35 29  1  0  0  0  0
 37  1  1  0  0  0  0
 38 37  1  0  0  0  0
 40 38  1  0  0  0  0
 40 39  2  0  0  0  0
 41 39  1  0  0  0  0
 41 42  1  0  0  0  0
 43 42  1  6  0  0  0
 43 47  1  0  0  0  0
 43 44  1  0  0  0  0
 44 46  1  0  0  0  0
 45 44  2  0  0  0  0
 48 50  1  0  0  0  0
 49 48  1  0  0  0  0
 49 50  1  0  0  0  0
 49 47  1  0  0  0  0
M  END
>  <MODEL>
2

>  <REMARK>
 VINA RESULT:      -5.6      2.253      6.998
  Name = 
  20 active torsions:
  status: ('A' for Active; 'I' for Inactive)
    1  A    between atoms: N_1  and  O_28
    2  A    between atoms: C_2  and  O_25
    3  A    between atoms: C_6  and  N_48
    4  A    between atoms: C_7  and  C_10
    5  A    between atoms: C_7  and  O_44
    6  A    between atoms: C_8  and  C_41
    7  A    between atoms: N_11  and  C_40
    8  A    between atoms: C_13  and  C_39
    9  A    between atoms: C_14  and  N_45
   10  A    between atoms: C_19  and  C_23
   11  A    between atoms: C_23  and  C_26
   12  A    between atoms: C_23  and  O_27
   13  A    between atoms: C_24  and  O_27
   14  A    between atoms: O_25  and  N_49
   15  A    between atoms: C_26  and  O_28
   16  A    between atoms: N_30  and  C_39
   17  A    between atoms: N_30  and  C_40
   18  A    between atoms: C_31  and  N_48
   19  A    between atoms: C_32  and  C_43
   20  A    between atoms: C_32  and  O_44
                            x       y       z     vdW  Elec       q    Type
                         _______ _______ _______ _____ _____    ______ ____

>  <TORSDO>
F 20

$$$$
=
 OpenBabel11042419513D

 50 55  0  0  1  0  0  0  0  0999 V2000
  190.2440  174.3340  144.6600 C   0  0  0  0  0  0  0  0  0  0  0  0
  190.5380  173.0550  144.8940 C   0  0  0  0  0  3  0  0  0  0  0  0
  189.2780  174.6670  143.6530 N   0  0  0  0  0  2  0  0  0  0  0  0
  190.7250  174.7970  141.8130 O   0  0  0  0  0  0  0  0  0  0  0  0
  189.5680  174.9640  142.2820 C   0  0  0  0  0  0  0  0  0  0  0  0
  188.5330  175.4600  141.4320 N   0  0  0  0  0  2  0  0  0  0  0  0
  187.2660  175.6350  141.8860 O   0  0  0  0  0  0  0  0  0  0  0  0
  186.9440  176.9690  141.5860 C   0  0  1  0  0  0  0  0  0  0  0  0
  185.5950  177.3180  142.0220 N   0  0  0  0  0  2  0  0  0  0  0  0
  186.7680  177.7550  142.7860 C   0  0  2  0  0  0  0  0  0  0  0  0
  189.1400  178.4590  141.7840 O   0  0  0  0  0  0  0  0  0  0  0  0
  188.0450  177.9520  141.9620 C   0  0  0  0  0  0  0  0  0  0  0  0
  187.4730  177.3570  146.3240 C   0  0  0  0  0  2  0  0  0  0  0  0
  187.8950  177.6490  144.9000 C   0  0  0  0  0  2  0  0  0  0  0  0
  185.7100  176.9040  144.7490 C   0  0  0  0  0  2  0  0  0  0  0  0
  186.0350  176.9110  146.2280 C   0  0  2  0  0  3  0  0  0  0  0  0
  186.9700  176.9500  144.0090 N   0  0  1  0  0  0  0  0  0  0  0  0
  185.1680  177.8700  146.9200 C   0  0  0  0  0  0  0  0  0  0  0  0
  184.4860  178.6280  147.4700 N   0  0  0  0  0  0  0  0  0  0  0  0
  189.9220  171.9470  144.1070 C   0  0  0  0  0  2  0  0  0  0  0  0
  190.8780  171.3770  143.2670 O   0  0  0  0  0  0  0  0  0  0  0  0
  190.2210  171.2040  142.0470 C   0  0  0  0  0  2  0  0  0  0  0  0
  190.5180  171.4240  139.5490 C   0  0  1  0  0  3  0  0  0  0  0  0
  191.2140  171.3030  140.8940 C   0  0  2  0  0  3  0  0  0  0  0  0
  191.9220  169.9890  140.7460 C   0  0  0  0  0  2  0  0  0  0  0  0
  191.2220  169.3020  139.5860 C   0  0  0  0  0  2  0  0  0  0  0  0
  190.1930  170.1340  139.1090 O   0  0  0  0  0  0  0  0  0  0  0  0
  189.3220  172.2600  139.6040 N   0  0  0  0  0  2  0  0  0  0  0  0
  190.8260  174.2090  136.7260 C   0  0  1  0  0  3  0  0  0  0  0  0
  189.5250  175.4820  135.0150 C   0  0  0  0  0  1  0  0  0  0  0  0
  188.5000  174.7610  137.0430 O   0  0  0  0  0  0  0  0  0  0  0  0
  189.5410  173.4020  138.7250 C   0  0  2  0  0  3  0  0  0  0  0  0
  188.2990  173.6380  137.8670 C   0  0  0  0  0  2  0  0  0  0  0  0
  189.4520  174.3950  136.0710 C   0  0  2  0  0  3  0  0  0  0  0  0
  190.7310  173.1300  137.8060 C   0  0  0  0  0  2  0  0  0  0  0  0
  191.7590  173.8250  135.7810 F   0  0  0  0  0  0  0  0  0  0  0  0
  190.8480  175.3660  145.4460 N   0  0  0  0  0  2  0  0  0  0  0  0
  191.7480  175.1210  146.5640 C   0  0  0  0  0  2  0  0  0  0  0  0
  193.5440  176.3820  145.5630 N   0  0  0  0  0  0  0  0  0  0  0  0
  193.1560  175.2780  146.1110 C   0  0  0  0  0  3  0  0  0  0  0  0
  194.8560  176.5400  145.1760 O   0  0  0  0  0  0  0  0  0  0  0  0
  195.7270  175.4210  145.0920 C   0  0  0  0  0  2  0  0  0  0  0  0
  195.9890  175.0630  143.6360 C   0  0  2  0  0  3  0  0  0  0  0  0
  196.2840  176.3040  142.8540 C   0  0  0  0  0  0  0  0  0  0  0  0
  197.3570  177.1180  143.2080 O   0  0  0  0  0  1  0  0  0  0  0  0
  195.5850  176.5910  141.8440 O   0  0  0  0  0  0  0  0  0  0  0  0
  194.8810  174.4040  143.1010 O   0  0  0  0  0  0  0  0  0  0  0  0
  196.1080  172.5880  142.1850 C   0  0  0  0  0  2  0  0  0  0  0  0
  195.1530  173.0450  143.2680 C   0  0  0  0  0  3  0  0  0  0  0  0
  194.6340  172.2780  142.0680 C   0  0  0  0  0  2  0  0  0  0  0  0
  1  2  2  0  0  0  0
  1 37  1  0  0  0  0
  3  1  1  0  0  0  0
  4  5  2  0  0  0  0
  5  3  1  0  0  0  0
  6  7  1  0  0  0  0
  6  5  1  0  0  0  0
  8  7  1  1  0  0  0
  8 12  1  0  0  0  0
  8  9  1  0  0  0  0
  8 10  1  0  0  0  0
  9 10  1  0  0  0  0
 10 12  1  6  0  0  0
 10 17  1  0  0  0  0
 11 12  2  0  0  0  0
 14 13  1  0  0  0  0
 15 16  1  0  0  0  0
 16 13  1  0  0  0  0
 16 18  1  1  0  0  0
 17 15  1  1  0  0  0
 17 14  1  0  0  0  0
 18 19  3  0  0  0  0
 20  2  1  0  0  0  0
 21 20  1  0  0  0  0
 22 21  1  0  0  0  0
 23 28  1  1  0  0  0
 23 24  1  0  0  0  0
 24 22  1  1  0  0  0
 25 24  1  0  0  0  0
 26 25  1  0  0  0  0
 27 23  1  0  0  0  0
 27 26  1  0  0  0  0
 29 36  1  6  0  0  0
 29 35  1  0  0  0  0
 31 33  1  0  0  0  0
 32 28  1  1  0  0  0
 33 32  1  0  0  0  0
 34 30  1  6  0  0  0
 34 29  1  0  0  0  0
 34 31  1  0  0  0  0
 35 32  1  0  0  0  0
 37 38  1  0  0  0  0
 39 40  2  0  0  0  0
 40 38  1  0  0  0  0
 41 39  1  0  0  0  0
 42 41  1  0  0  0  0
 43 42  1  1  0  0  0
 44 45  1  0  0  0  0
 44 43  1  0  0  0  0
 46 44  2  0  0  0  0
 47 49  1  0  0  0  0
 47 43  1  0  0  0  0
 48 49  1  0  0  0  0
 50 48  1  0  0  0  0
 50 49  1  0  0  0  0
M  END
>  <MODEL>
3

>  <REMARK>
 VINA RESULT:      -5.6      3.208      7.908
  Name = 
  20 active torsions:
  status: ('A' for Active; 'I' for Inactive)
    1  A    between atoms: N_1  and  O_28
    2  A    between atoms: C_2  and  O_25
    3  A    between atoms: C_6  and  N_48
    4  A    between atoms: C_7  and  C_10
    5  A    between atoms: C_7  and  O_44
    6  A    between atoms: C_8  and  C_41
    7  A    between atoms: N_11  and  C_40
    8  A    between atoms: C_13  and  C_39
    9  A    between atoms: C_14  and  N_45
   10  A    between atoms: C_19  and  C_23
   11  A    between atoms: C_23  and  C_26
   12  A    between atoms: C_23  and  O_27
   13  A    between atoms: C_24  and  O_27
   14  A    between atoms: O_25  and  N_49
   15  A    between atoms: C_26  and  O_28
   16  A    between atoms: N_30  and  C_39
   17  A    between atoms: N_30  and  C_40
   18  A    between atoms: C_31  and  N_48
   19  A    between atoms: C_32  and  C_43
   20  A    between atoms: C_32  and  O_44
                            x       y       z     vdW  Elec       q    Type
                         _______ _______ _______ _____ _____    ______ ____

>  <TORSDO>
F 20

$$$$
=
 OpenBabel11042419513D

 50 55  0  0  1  0  0  0  0  0999 V2000
  191.5860  172.2210  142.7460 C   0  0  0  0  0  0  0  0  0  0  0  0
  192.0920  171.7000  143.8630 C   0  0  0  0  0  3  0  0  0  0  0  0
  192.2080  171.9350  141.4850 N   0  0  0  0  0  2  0  0  0  0  0  0
  190.6730  170.3520  140.6900 O   0  0  0  0  0  0  0  0  0  0  0  0
  191.7700  170.9530  140.5390 C   0  0  0  0  0  0  0  0  0  0  0  0
  192.5880  170.6440  139.4100 N   0  0  0  0  0  2  0  0  0  0  0  0
  193.7670  171.2800  139.1940 O   0  0  0  0  0  0  0  0  0  0  0  0
  193.5290  172.1510  138.1180 C   0  0  1  0  0  0  0  0  0  0  0  0
  193.1780  173.4950  138.5680 N   0  0  0  0  0  2  0  0  0  0  0  0
  194.5200  173.2010  138.0560 C   0  0  2  0  0  0  0  0  0  0  0  0
  195.1290  171.4920  136.0970 O   0  0  0  0  0  0  0  0  0  0  0  0
  194.5900  172.0650  137.0300 C   0  0  0  0  0  0  0  0  0  0  0  0
  197.4680  174.2810  139.8740 C   0  0  0  0  0  2  0  0  0  0  0  0
  196.7920  173.6380  138.6820 C   0  0  0  0  0  2  0  0  0  0  0  0
  195.1120  173.9540  140.2410 C   0  0  0  0  0  2  0  0  0  0  0  0
  196.3650  174.5240  140.8740 C   0  0  2  0  0  3  0  0  0  0  0  0
  195.5180  173.0840  139.1380 N   0  0  1  0  0  0  0  0  0  0  0  0
  196.1970  175.9640  141.0910 C   0  0  0  0  0  0  0  0  0  0  0  0
  196.0660  177.1020  141.2660 N   0  0  0  0  0  0  0  0  0  0  0  0
  193.3230  170.8560  143.8540 C   0  0  0  0  0  2  0  0  0  0  0  0
  194.0970  171.1390  144.9780 O   0  0  0  0  0  0  0  0  0  0  0  0
  195.1040  171.9860  144.5110 C   0  0  0  0  0  2  0  0  0  0  0  0
  195.3380  174.4710  144.8990 C   0  0  1  0  0  3  0  0  0  0  0  0
  195.3800  173.0890  145.5270 C   0  0  2  0  0  3  0  0  0  0  0  0
  196.8130  173.0030  145.9640 C   0  0  0  0  0  2  0  0  0  0  0  0
  197.5230  174.0830  145.1650 C   0  0  0  0  0  2  0  0  0  0  0  0
  196.5930  174.7310  144.3320 O   0  0  0  0  0  0  0  0  0  0  0  0
  194.2880  174.6020  143.8910 N   0  0  0  0  0  2  0  0  0  0  0  0
  191.5640  177.2100  143.5460 C   0  0  1  0  0  3  0  0  0  0  0  0
  189.6820  177.5470  145.1560 C   0  0  0  0  0  1  0  0  0  0  0  0
  191.5920  176.2540  145.7600 O   0  0  0  0  0  0  0  0  0  0  0  0
  193.4160  175.6950  144.3030 C   0  0  2  0  0  3  0  0  0  0  0  0
  192.4120  175.1910  145.3400 C   0  0  0  0  0  2  0  0  0  0  0  0
  190.7480  176.5770  144.6800 C   0  0  2  0  0  3  0  0  0  0  0  0
  192.6500  176.2320  143.0950 C   0  0  0  0  0  2  0  0  0  0  0  0
  190.7440  177.5050  142.4730 F   0  0  0  0  0  0  0  0  0  0  0  0
  190.3970  173.0160  142.7970 N   0  0  0  0  0  2  0  0  0  0  0  0
  190.0450  174.0230  141.8060 C   0  0  0  0  0  2  0  0  0  0  0  0
  188.1720  175.2600  142.6880 N   0  0  0  0  0  0  0  0  0  0  0  0
  188.5920  174.3260  141.9010 C   0  0  0  0  0  3  0  0  0  0  0  0
  186.8300  175.5640  142.7500 O   0  0  0  0  0  0  0  0  0  0  0  0
  186.3390  176.4830  143.7140 C   0  0  0  0  0  2  0  0  0  0  0  0
  185.1930  177.2980  143.1330 C   0  0  2  0  0  3  0  0  0  0  0  0
  185.7150  178.2350  142.0900 C   0  0  0  0  0  0  0  0  0  0  0  0
  185.1530  178.2510  140.8170 O   0  0  0  0  0  0  0  0  0  0  0  0
  186.6400  179.0440  142.3780 O   0  0  0  0  0  1  0  0  0  0  0  0
  184.5530  178.0110  144.1490 O   0  0  0  0  0  0  0  0  0  0  0  0
  184.4410  177.9420  146.5210 C   0  0  0  0  0  2  0  0  0  0  0  0
  185.3120  177.7680  145.2950 C   0  0  0  0  0  3  0  0  0  0  0  0
  185.4000  179.0370  146.1170 C   0  0  0  0  0  2  0  0  0  0  0  0
  1 37  1  0  0  0  0
  1  2  2  0  0  0  0
  3  1  1  0  0  0  0
  5  4  2  0  0  0  0
  5  3  1  0  0  0  0
  6  5  1  0  0  0  0
  7  6  1  0  0  0  0
  8  9  1  0  0  0  0
  8  7  1  1  0  0  0
 10 12  1  6  0  0  0
 10  8  1  0  0  0  0
 10  9  1  0  0  0  0
 10 17  1  0  0  0  0
 11 12  2  0  0  0  0
 12  8  1  0  0  0  0
 13 16  1  0  0  0  0
 14 13  1  0  0  0  0
 15 16  1  0  0  0  0
 16 18  1  6  0  0  0
 17 14  1  6  0  0  0
 17 15  1  0  0  0  0
 18 19  3  0  0  0  0
 20  2  1  0  0  0  0
 20 21  1  0  0  0  0
 22 21  1  0  0  0  0
 23 28  1  6  0  0  0
 23 24  1  0  0  0  0
 24 22  1  6  0  0  0
 24 25  1  0  0  0  0
 26 25  1  0  0  0  0
 27 23  1  0  0  0  0
 27 26  1  0  0  0  0
 29 36  1  6  0  0  0
 29 34  1  0  0  0  0
 32 28  1  6  0  0  0
 32 33  1  0  0  0  0
 33 31  1  0  0  0  0
 34 30  1  1  0  0  0
 34 31  1  0  0  0  0
 35 29  1  0  0  0  0
 35 32  1  0  0  0  0
 38 40  1  0  0  0  0
 38 37  1  0  0  0  0
 39 41  1  0  0  0  0
 40 39  2  0  0  0  0
 41 42  1  0  0  0  0
 43 42  1  1  0  0  0
 43 47  1  0  0  0  0
 44 46  1  0  0  0  0
 44 43  1  0  0  0  0
 45 44  2  0  0  0  0
 47 49  1  0  0  0  0
 49 50  1  0  0  0  0
 49 48  1  0  0  0  0
 50 48  1  0  0  0  0
M  END
>  <MODEL>
4

>  <REMARK>
 VINA RESULT:      -5.4      2.202      7.452
  Name = 
  20 active torsions:
  status: ('A' for Active; 'I' for Inactive)
    1  A    between atoms: N_1  and  O_28
    2  A    between atoms: C_2  and  O_25
    3  A    between atoms: C_6  and  N_48
    4  A    between atoms: C_7  and  C_10
    5  A    between atoms: C_7  and  O_44
    6  A    between atoms: C_8  and  C_41
    7  A    between atoms: N_11  and  C_40
    8  A    between atoms: C_13  and  C_39
    9  A    between atoms: C_14  and  N_45
   10  A    between atoms: C_19  and  C_23
   11  A    between atoms: C_23  and  C_26
   12  A    between atoms: C_23  and  O_27
   13  A    between atoms: C_24  and  O_27
   14  A    between atoms: O_25  and  N_49
   15  A    between atoms: C_26  and  O_28
   16  A    between atoms: N_30  and  C_39
   17  A    between atoms: N_30  and  C_40
   18  A    between atoms: C_31  and  N_48
   19  A    between atoms: C_32  and  C_43
   20  A    between atoms: C_32  and  O_44
                            x       y       z     vdW  Elec       q    Type
                         _______ _______ _______ _____ _____    ______ ____

>  <TORSDO>
F 20

$$$$
=
 OpenBabel11042419513D

 50 55  0  0  1  0  0  0  0  0999 V2000
  190.2980  174.1220  143.9430 C   0  0  0  0  0  0  0  0  0  0  0  0
  190.3410  172.8270  144.2570 C   0  0  0  0  0  3  0  0  0  0  0  0
  189.2220  174.6190  143.1330 N   0  0  0  0  0  2  0  0  0  0  0  0
  190.2730  174.4910  141.0410 O   0  0  0  0  0  0  0  0  0  0  0  0
  189.2790  174.8590  141.7220 C   0  0  0  0  0  0  0  0  0  0  0  0
  188.1970  175.5290  141.0740 N   0  0  0  0  0  2  0  0  0  0  0  0
  187.0960  175.9250  141.7620 O   0  0  0  0  0  0  0  0  0  0  0  0
  187.0800  177.3270  141.6650 C   0  0  1  0  0  0  0  0  0  0  0  0
  185.7900  177.8880  142.0550 N   0  0  0  0  0  2  0  0  0  0  0  0
  186.9400  177.9470  142.9620 C   0  0  2  0  0  0  0  0  0  0  0  0
  189.4970  178.2670  142.2620 O   0  0  0  0  0  0  0  0  0  0  0  0
  188.3100  177.9850  142.2760 C   0  0  0  0  0  0  0  0  0  0  0  0
  187.2560  176.8720  146.4140 C   0  0  0  0  0  2  0  0  0  0  0  0
  187.8430  177.2550  145.0730 C   0  0  0  0  0  2  0  0  0  0  0  0
  185.5620  177.1090  144.7210 C   0  0  0  0  0  2  0  0  0  0  0  0
  185.7640  176.8170  146.1930 C   0  0  2  0  0  3  0  0  0  0  0  0
  186.8480  176.9470  144.0460 N   0  0  1  0  0  0  0  0  0  0  0  0
  185.1030  177.8500  146.9970 C   0  0  0  0  0  0  0  0  0  0  0  0
  184.5770  178.6640  147.6320 N   0  0  0  0  0  0  0  0  0  0  0  0
  189.3230  171.8580  143.7560 C   0  0  0  0  0  2  0  0  0  0  0  0
  189.5300  171.6160  142.3990 O   0  0  0  0  0  0  0  0  0  0  0  0
  190.6730  170.8150  142.3520 C   0  0  0  0  0  2  0  0  0  0  0  0
  191.7520  170.6260  140.0760 C   0  0  1  0  0  3  0  0  0  0  0  0
  191.6910  171.4030  141.3800 C   0  0  2  0  0  3  0  0  0  0  0  0
  193.0700  171.1820  141.9250 C   0  0  0  0  0  2  0  0  0  0  0  0
  193.5980  169.9800  141.1590 C   0  0  0  0  0  2  0  0  0  0  0  0
  192.6130  169.5350  140.2590 O   0  0  0  0  0  0  0  0  0  0  0  0
  190.4390  170.1680  139.6290 N   0  0  0  0  0  2  0  0  0  0  0  0
  188.7910  173.0490  137.8050 C   0  0  1  0  0  3  0  0  0  0  0  0
  189.9220  174.5380  136.1470 C   0  0  0  0  0  1  0  0  0  0  0  0
  190.9070  172.4690  136.8050 O   0  0  0  0  0  0  0  0  0  0  0  0
  190.0510  170.9880  138.4890 C   0  0  2  0  0  3  0  0  0  0  0  0
  191.2790  171.7020  137.9240 C   0  0  0  0  0  2  0  0  0  0  0  0
  190.1410  173.5510  137.2790 C   0  0  2  0  0  3  0  0  0  0  0  0
  189.0290  172.0360  138.9270 C   0  0  0  0  0  2  0  0  0  0  0  0
  188.0460  174.1040  138.2960 F   0  0  0  0  0  0  0  0  0  0  0  0
  191.2870  175.0210  144.4540 N   0  0  0  0  0  2  0  0  0  0  0  0
  191.2770  175.5650  145.8040 C   0  0  0  0  0  2  0  0  0  0  0  0
  193.6850  175.5240  145.6790 N   0  0  0  0  0  0  0  0  0  0  0  0
  192.6260  175.4120  146.4110 C   0  0  0  0  0  3  0  0  0  0  0  0
  194.9350  175.4170  146.2470 O   0  0  0  0  0  0  0  0  0  0  0  0
  195.9900  174.7610  145.5590 C   0  0  0  0  0  2  0  0  0  0  0  0
  195.6210  174.5560  144.0970 C   0  0  2  0  0  3  0  0  0  0  0  0
  195.7170  173.1050  143.7480 C   0  0  0  0  0  0  0  0  0  0  0  0
  196.2270  172.7120  142.5140 O   0  0  0  0  0  0  0  0  0  0  0  0
  195.3750  172.2310  144.5920 O   0  0  0  0  0  1  0  0  0  0  0  0
  196.4690  175.3080  143.2820 O   0  0  0  0  0  0  0  0  0  0  0  0
  194.9030  175.9330  141.6090 C   0  0  0  0  0  2  0  0  0  0  0  0
  195.6860  176.3710  142.8280 C   0  0  0  0  0  3  0  0  0  0  0  0
  196.1450  176.7780  141.4420 C   0  0  0  0  0  2  0  0  0  0  0  0
  1  2  2  0  0  0  0
  1 37  1  0  0  0  0
  3  1  1  0  0  0  0
  4  5  2  0  0  0  0
  5  3  1  0  0  0  0
  6  5  1  0  0  0  0
  6  7  1  0  0  0  0
  8  7  1  1  0  0  0
  8  9  1  0  0  0  0
  8 12  1  0  0  0  0
  8 10  1  0  0  0  0
 10  9  1  1  0  0  0
 10 17  1  0  0  0  0
 11 12  2  0  0  0  0
 12 10  1  0  0  0  0
 14 13  1  0  0  0  0
 15 16  1  0  0  0  0
 16 13  1  0  0  0  0
 16 18  1  1  0  0  0
 17 15  1  1  0  0  0
 17 14  1  0  0  0  0
 18 19  3  0  0  0  0
 20  2  1  0  0  0  0
 21 20  1  0  0  0  0
 22 21  1  0  0  0  0
 23 28  1  1  0  0  0
 23 27  1  0  0  0  0
 23 24  1  0  0  0  0
 24 25  1  0  0  0  0
 24 22  1  1  0  0  0
 26 25  1  0  0  0  0
 27 26  1  0  0  0  0
 29 36  1  1  0  0  0
 29 35  1  0  0  0  0
 31 34  1  0  0  0  0
 31 33  1  0  0  0  0
 32 35  1  0  0  0  0
 32 28  1  1  0  0  0
 33 32  1  0  0  0  0
 34 30  1  6  0  0  0
 34 29  1  0  0  0  0
 37 38  1  0  0  0  0
 38 40  1  0  0  0  0
 39 41  1  0  0  0  0
 39 40  2  0  0  0  0
 42 41  1  0  0  0  0
 43 42  1  1  0  0  0
 44 43  1  0  0  0  0
 44 46  1  0  0  0  0
 45 44  2  0  0  0  0
 47 43  1  0  0  0  0
 48 49  1  0  0  0  0
 49 47  1  0  0  0  0
 50 48  1  0  0  0  0
 50 49  1  0  0  0  0
M  END
>  <MODEL>
5

>  <REMARK>
 VINA RESULT:      -5.4      2.820      7.686
  Name = 
  20 active torsions:
  status: ('A' for Active; 'I' for Inactive)
    1  A    between atoms: N_1  and  O_28
    2  A    between atoms: C_2  and  O_25
    3  A    between atoms: C_6  and  N_48
    4  A    between atoms: C_7  and  C_10
    5  A    between atoms: C_7  and  O_44
    6  A    between atoms: C_8  and  C_41
    7  A    between atoms: N_11  and  C_40
    8  A    between atoms: C_13  and  C_39
    9  A    between atoms: C_14  and  N_45
   10  A    between atoms: C_19  and  C_23
   11  A    between atoms: C_23  and  C_26
   12  A    between atoms: C_23  and  O_27
   13  A    between atoms: C_24  and  O_27
   14  A    between atoms: O_25  and  N_49
   15  A    between atoms: C_26  and  O_28
   16  A    between atoms: N_30  and  C_39
   17  A    between atoms: N_30  and  C_40
   18  A    between atoms: C_31  and  N_48
   19  A    between atoms: C_32  and  C_43
   20  A    between atoms: C_32  and  O_44
                            x       y       z     vdW  Elec       q    Type
                         _______ _______ _______ _____ _____    ______ ____

>  <TORSDO>
F 20

$$$$
=
 OpenBabel11042419513D

 50 55  0  0  1  0  0  0  0  0999 V2000
  189.9980  172.3990  141.3080 C   0  0  0  0  0  0  0  0  0  0  0  0
  190.0940  171.6370  142.3970 C   0  0  0  0  0  3  0  0  0  0  0  0
  191.1070  172.4840  140.4020 N   0  0  0  0  0  2  0  0  0  0  0  0
  190.1410  171.3960  138.5650 O   0  0  0  0  0  0  0  0  0  0  0  0
  191.1630  171.9090  139.0920 C   0  0  0  0  0  0  0  0  0  0  0  0
  192.3960  171.9100  138.3700 N   0  0  0  0  0  2  0  0  0  0  0  0
  193.5190  172.4710  138.8880 O   0  0  0  0  0  0  0  0  0  0  0  0
  193.7220  173.6480  138.1490 C   0  0  1  0  0  0  0  0  0  0  0  0
  193.5590  174.8450  138.9690 N   0  0  0  0  0  2  0  0  0  0  0  0
  194.8940  174.3620  138.6020 C   0  0  2  0  0  0  0  0  0  0  0  0
  195.5800  173.2010  136.2980 O   0  0  0  0  0  0  0  0  0  0  0  0
  194.9680  173.5990  137.2750 C   0  0  0  0  0  0  0  0  0  0  0  0
  197.6510  173.8450  140.9040 C   0  0  0  0  0  2  0  0  0  0  0  0
  197.0150  173.7440  139.5350 C   0  0  0  0  0  2  0  0  0  0  0  0
  195.3140  174.4190  140.9500 C   0  0  0  0  0  2  0  0  0  0  0  0
  196.5510  174.3250  141.8190 C   0  0  2  0  0  3  0  0  0  0  0  0
  195.5660  173.6700  139.7210 N   0  0  1  0  0  0  0  0  0  0  0  0
  196.8850  175.6510  142.3480 C   0  0  0  0  0  0  0  0  0  0  0  0
  197.1510  176.6960  142.7700 N   0  0  0  0  0  0  0  0  0  0  0  0
  191.3440  170.8950  142.7340 C   0  0  0  0  0  2  0  0  0  0  0  0
  191.7150  171.1700  144.0500 O   0  0  0  0  0  0  0  0  0  0  0  0
  192.8260  172.0080  143.9360 C   0  0  0  0  0  2  0  0  0  0  0  0
  192.7290  174.4190  144.6820 C   0  0  1  0  0  3  0  0  0  0  0  0
  192.8830  172.9720  145.1170 C   0  0  2  0  0  3  0  0  0  0  0  0
  194.2740  172.9750  145.6780 C   0  0  0  0  0  2  0  0  0  0  0  0
  194.9150  174.2290  145.1100 C   0  0  0  0  0  2  0  0  0  0  0  0
  193.9870  174.8910  144.2860 O   0  0  0  0  0  0  0  0  0  0  0  0
  191.7590  174.5850  143.6020 N   0  0  0  0  0  2  0  0  0  0  0  0
  189.0250  175.2570  146.1350 C   0  0  1  0  0  3  0  0  0  0  0  0
  188.4170  177.5070  147.0340 C   0  0  0  0  0  1  0  0  0  0  0  0
  189.7690  177.2950  145.0820 O   0  0  0  0  0  0  0  0  0  0  0  0
  190.5790  175.2300  144.1640 C   0  0  2  0  0  3  0  0  0  0  0  0
  190.9180  176.6640  144.5700 C   0  0  0  0  0  2  0  0  0  0  0  0
  189.4950  176.7030  146.3310 C   0  0  2  0  0  3  0  0  0  0  0  0
  190.1090  174.4660  145.4010 C   0  0  0  0  0  2  0  0  0  0  0  0
  188.7790  174.6630  147.3580 F   0  0  0  0  0  0  0  0  0  0  0  0
  188.7770  173.0860  141.0150 N   0  0  0  0  0  2  0  0  0  0  0  0
  188.7050  174.3630  140.3190 C   0  0  0  0  0  2  0  0  0  0  0  0
  187.7090  175.0780  142.3960 N   0  0  0  0  0  0  0  0  0  0  0  0
  188.2140  175.4100  141.2540 C   0  0  0  0  0  3  0  0  0  0  0  0
  187.2870  176.0490  143.2760 O   0  0  0  0  0  0  0  0  0  0  0  0
  185.9200  176.4330  143.3300 C   0  0  0  0  0  2  0  0  0  0  0  0
  185.7940  177.8740  143.8010 C   0  0  2  0  0  3  0  0  0  0  0  0
  185.0530  177.9210  145.0990 C   0  0  0  0  0  0  0  0  0  0  0  0
  184.2840  179.0340  145.4280 O   0  0  0  0  0  0  0  0  0  0  0  0
  185.0920  176.9310  145.8810 O   0  0  0  0  0  1  0  0  0  0  0  0
  185.1300  178.6330  142.8350 O   0  0  0  0  0  0  0  0  0  0  0  0
  185.2840  178.3220  140.4850 C   0  0  0  0  0  2  0  0  0  0  0  0
  184.8380  177.7350  141.8070 C   0  0  0  0  0  3  0  0  0  0  0  0
  183.8230  178.3570  140.8690 C   0  0  0  0  0  2  0  0  0  0  0  0
  1  2  2  0  0  0  0
  2 20  1  0  0  0  0
  3  1  1  0  0  0  0
  4  5  2  0  0  0  0
  5  3  1  0  0  0  0
  6  7  1  0  0  0  0
  6  5  1  0  0  0  0
  8 10  1  0  0  0  0
  8  7  1  1  0  0  0
  8  9  1  0  0  0  0
 10 12  1  6  0  0  0
 10  9  1  0  0  0  0
 10 17  1  0  0  0  0
 11 12  2  0  0  0  0
 12  8  1  0  0  0  0
 13 16  1  0  0  0  0
 14 13  1  0  0  0  0
 15 16  1  0  0  0  0
 16 18  1  6  0  0  0
 17 14  1  6  0  0  0
 17 15  1  0  0  0  0
 18 19  3  0  0  0  0
 20 21  1  0  0  0  0
 22 21  1  0  0  0  0
 23 28  1  6  0  0  0
 23 24  1  0  0  0  0
 24 22  1  6  0  0  0
 24 25  1  0  0  0  0
 26 25  1  0  0  0  0
 27 23  1  0  0  0  0
 27 26  1  0  0  0  0
 29 34  1  0  0  0  0
 29 36  1  1  0  0  0
 31 34  1  0  0  0  0
 32 28  1  1  0  0  0
 32 33  1  0  0  0  0
 32 35  1  0  0  0  0
 33 31  1  0  0  0  0
 34 30  1  6  0  0  0
 35 29  1  0  0  0  0
 37  1  1  0  0  0  0
 38 37  1  0  0  0  0
 38 40  1  0  0  0  0
 39 41  1  0  0  0  0
 40 39  2  0  0  0  0
 41 42  1  0  0  0  0
 43 42  1  6  0  0  0
 43 44  1  0  0  0  0
 44 45  2  0  0  0  0
 44 46  1  0  0  0  0
 47 43  1  0  0  0  0
 48 50  1  0  0  0  0
 48 49  1  0  0  0  0
 49 47  1  0  0  0  0
 50 49  1  0  0  0  0
M  END
>  <MODEL>
6

>  <REMARK>
 VINA RESULT:      -5.4      2.104      6.939
  Name = 
  20 active torsions:
  status: ('A' for Active; 'I' for Inactive)
    1  A    between atoms: N_1  and  O_28
    2  A    between atoms: C_2  and  O_25
    3  A    between atoms: C_6  and  N_48
    4  A    between atoms: C_7  and  C_10
    5  A    between atoms: C_7  and  O_44
    6  A    between atoms: C_8  and  C_41
    7  A    between atoms: N_11  and  C_40
    8  A    between atoms: C_13  and  C_39
    9  A    between atoms: C_14  and  N_45
   10  A    between atoms: C_19  and  C_23
   11  A    between atoms: C_23  and  C_26
   12  A    between atoms: C_23  and  O_27
   13  A    between atoms: C_24  and  O_27
   14  A    between atoms: O_25  and  N_49
   15  A    between atoms: C_26  and  O_28
   16  A    between atoms: N_30  and  C_39
   17  A    between atoms: N_30  and  C_40
   18  A    between atoms: C_31  and  N_48
   19  A    between atoms: C_32  and  C_43
   20  A    between atoms: C_32  and  O_44
                            x       y       z     vdW  Elec       q    Type
                         _______ _______ _______ _____ _____    ______ ____

>  <TORSDO>
F 20

$$$$
=
 OpenBabel11042419513D

 50 55  0  0  1  0  0  0  0  0999 V2000
  189.1930  174.0990  141.7170 C   0  0  0  0  0  0  0  0  0  0  0  0
  188.4590  174.9770  142.3990 C   0  0  0  0  0  3  0  0  0  0  0  0
  189.1910  174.1350  140.2830 N   0  0  0  0  0  2  0  0  0  0  0  0
  187.8100  172.2820  139.8900 O   0  0  0  0  0  0  0  0  0  0  0  0
  188.5630  173.1770  139.4230 C   0  0  0  0  0  0  0  0  0  0  0  0
  188.7960  173.2310  138.0140 N   0  0  0  0  0  2  0  0  0  0  0  0
  189.5820  174.1900  137.4630 O   0  0  0  0  0  0  0  0  0  0  0  0
  189.7850  173.7870  136.1330 C   0  0  1  0  0  0  0  0  0  0  0  0
  190.2050  174.8960  135.2810 N   0  0  0  0  0  2  0  0  0  0  0  0
  191.1740  173.9000  135.7500 C   0  0  2  0  0  0  0  0  0  0  0  0
  190.7180  171.2950  136.1140 O   0  0  0  0  0  0  0  0  0  0  0  0
  190.5970  172.5050  136.0120 C   0  0  0  0  0  0  0  0  0  0  0  0
  194.3130  174.2690  137.5320 C   0  0  0  0  0  2  0  0  0  0  0  0
  193.0990  173.4690  137.1120 C   0  0  0  0  0  2  0  0  0  0  0  0
  192.6810  175.6300  136.4030 C   0  0  0  0  0  2  0  0  0  0  0  0
  194.0580  175.6690  137.0330 C   0  0  2  0  0  3  0  0  0  0  0  0
  192.0120  174.4120  136.8540 N   0  0  1  0  0  0  0  0  0  0  0  0
  195.0550  176.0270  136.0190 C   0  0  0  0  0  0  0  0  0  0  0  0
  195.8410  176.3130  135.2180 N   0  0  0  0  0  0  0  0  0  0  0  0
  187.5910  175.9800  141.7160 C   0  0  0  0  0  2  0  0  0  0  0  0
  187.6210  177.1850  142.4180 O   0  0  0  0  0  0  0  0  0  0  0  0
  186.5560  177.0970  143.3170 C   0  0  0  0  0  2  0  0  0  0  0  0
  186.9670  177.5010  145.7760 C   0  0  1  0  0  3  0  0  0  0  0  0
  186.7110  178.1380  144.4220 C   0  0  2  0  0  3  0  0  0  0  0  0
  185.3880  178.8070  144.6510 C   0  0  0  0  0  2  0  0  0  0  0  0
  184.8250  178.1290  145.8890 C   0  0  0  0  0  2  0  0  0  0  0  0
  185.7300  177.1490  146.3330 O   0  0  0  0  0  0  0  0  0  0  0  0
  187.8400  176.3320  145.6960 N   0  0  0  0  0  2  0  0  0  0  0  0
  191.0880  175.9690  147.6090 C   0  0  1  0  0  3  0  0  0  0  0  0
  193.3640  176.4080  146.6760 C   0  0  0  0  0  1  0  0  0  0  0  0
  191.4100  177.1790  145.5480 O   0  0  0  0  0  0  0  0  0  0  0  0
  189.1480  176.7230  146.2060 C   0  0  2  0  0  3  0  0  0  0  0  0
  190.1560  176.7710  145.0590 C   0  0  0  0  0  2  0  0  0  0  0  0
  191.9150  176.1200  146.3270 C   0  0  2  0  0  3  0  0  0  0  0  0
  189.6260  175.7060  147.2410 C   0  0  0  0  0  2  0  0  0  0  0  0
  191.5630  174.9140  148.3650 F   0  0  0  0  0  0  0  0  0  0  0  0
  190.0220  173.1600  142.4110 N   0  0  0  0  0  2  0  0  0  0  0  0
  189.9800  172.9410  143.8490 C   0  0  0  0  0  2  0  0  0  0  0  0
  192.1310  171.9500  144.3050 N   0  0  0  0  0  0  0  0  0  0  0  0
  191.3610  172.9840  144.3980 C   0  0  0  0  0  3  0  0  0  0  0  0
  193.4220  172.0010  144.7810 O   0  0  0  0  0  0  0  0  0  0  0  0
  193.9660  173.2190  145.2700 C   0  0  0  0  0  2  0  0  0  0  0  0
  194.8890  173.8400  144.2320 C   0  0  2  0  0  3  0  0  0  0  0  0
  196.1380  174.3310  144.8930 C   0  0  0  0  0  0  0  0  0  0  0  0
  196.5420  173.7970  146.1130 O   0  0  0  0  0  1  0  0  0  0  0  0
  196.8510  175.2020  144.3220 O   0  0  0  0  0  0  0  0  0  0  0  0
  194.2380  174.8910  143.5840 O   0  0  0  0  0  0  0  0  0  0  0  0
  194.3290  175.5760  141.3110 C   0  0  0  0  0  2  0  0  0  0  0  0
  194.0450  174.4440  142.2750 C   0  0  0  0  0  3  0  0  0  0  0  0
  192.9010  175.2140  141.6450 C   0  0  0  0  0  2  0  0  0  0  0  0
  1  2  2  0  0  0  0
  1 37  1  0  0  0  0
  3  1  1  0  0  0  0
  5  4  2  0  0  0  0
  5  3  1  0  0  0  0
  6  5  1  0  0  0  0
  7  6  1  0  0  0  0
  8  7  1  1  0  0  0
  9  8  1  0  0  0  0
 10  9  1  6  0  0  0
 10 12  1  0  0  0  0
 10  8  1  0  0  0  0
 10 17  1  0  0  0  0
 12 11  2  0  0  0  0
 12  8  1  0  0  0  0
 14 13  1  0  0  0  0
 15 16  1  0  0  0  0
 16 18  1  6  0  0  0
 16 13  1  0  0  0  0
 17 15  1  6  0  0  0
 17 14  1  0  0  0  0
 19 18  3  0  0  0  0
 20  2  1  0  0  0  0
 20 21  1  0  0  0  0
 21 22  1  0  0  0  0
 23 28  1  6  0  0  0
 23 27  1  0  0  0  0
 24 22  1  6  0  0  0
 24 25  1  0  0  0  0
 24 23  1  0  0  0  0
 25 26  1  0  0  0  0
 26 27  1  0  0  0  0
 29 36  1  6  0  0  0
 31 34  1  0  0  0  0
 32 28  1  6  0  0  0
 32 35  1  0  0  0  0
 33 31  1  0  0  0  0
 33 32  1  0  0  0  0
 34 30  1  1  0  0  0
 34 29  1  0  0  0  0
 35 29  1  0  0  0  0
 37 38  1  0  0  0  0
 38 40  1  0  0  0  0
 39 40  2  0  0  0  0
 39 41  1  0  0  0  0
 41 42  1  0  0  0  0
 43 44  1  0  0  0  0
 43 42  1  1  0  0  0
 44 45  1  0  0  0  0
 46 44  2  0  0  0  0
 47 43  1  0  0  0  0
 48 50  1  0  0  0  0
 48 49  1  0  0  0  0
 49 47  1  0  0  0  0
 50 49  1  0  0  0  0
M  END
>  <MODEL>
7

>  <REMARK>
 VINA RESULT:      -5.3      1.952      3.094
  Name = 
  20 active torsions:
  status: ('A' for Active; 'I' for Inactive)
    1  A    between atoms: N_1  and  O_28
    2  A    between atoms: C_2  and  O_25
    3  A    between atoms: C_6  and  N_48
    4  A    between atoms: C_7  and  C_10
    5  A    between atoms: C_7  and  O_44
    6  A    between atoms: C_8  and  C_41
    7  A    between atoms: N_11  and  C_40
    8  A    between atoms: C_13  and  C_39
    9  A    between atoms: C_14  and  N_45
   10  A    between atoms: C_19  and  C_23
   11  A    between atoms: C_23  and  C_26
   12  A    between atoms: C_23  and  O_27
   13  A    between atoms: C_24  and  O_27
   14  A    between atoms: O_25  and  N_49
   15  A    between atoms: C_26  and  O_28
   16  A    between atoms: N_30  and  C_39
   17  A    between atoms: N_30  and  C_40
   18  A    between atoms: C_31  and  N_48
   19  A    between atoms: C_32  and  C_43
   20  A    between atoms: C_32  and  O_44
                            x       y       z     vdW  Elec       q    Type
                         _______ _______ _______ _____ _____    ______ ____

>  <TORSDO>
F 20

$$$$
=
 OpenBabel11042419513D

 50 55  0  0  1  0  0  0  0  0999 V2000
  191.3540  172.6820  140.0740 C   0  0  0  0  0  0  0  0  0  0  0  0
  192.3330  172.0470  140.7170 C   0  0  0  0  0  3  0  0  0  0  0  0
  190.3950  173.4470  140.8180 N   0  0  0  0  0  2  0  0  0  0  0  0
  188.4420  172.6460  139.7980 O   0  0  0  0  0  0  0  0  0  0  0  0
  188.9800  173.4580  140.5980 C   0  0  0  0  0  0  0  0  0  0  0  0
  188.1640  174.4050  141.2880 N   0  0  0  0  0  2  0  0  0  0  0  0
  188.6950  175.2840  142.1750 O   0  0  0  0  0  0  0  0  0  0  0  0
  188.4290  176.5570  141.6420 C   0  0  1  0  0  0  0  0  0  0  0  0
  187.0010  176.7710  141.4220 N   0  0  0  0  0  2  0  0  0  0  0  0
  187.6830  177.3750  142.5710 C   0  0  2  0  0  0  0  0  0  0  0  0
  190.1890  178.2950  142.6210 O   0  0  0  0  0  0  0  0  0  0  0  0
  189.1710  177.6750  142.3600 C   0  0  0  0  0  0  0  0  0  0  0  0
  187.1260  177.2190  146.1530 C   0  0  0  0  0  2  0  0  0  0  0  0
  188.0230  177.3710  144.9440 C   0  0  0  0  0  2  0  0  0  0  0  0
  185.9620  176.7480  144.1000 C   0  0  0  0  0  2  0  0  0  0  0  0
  185.7720  176.8530  145.5990 C   0  0  2  0  0  3  0  0  0  0  0  0
  187.3960  176.6600  143.8310 N   0  0  1  0  0  0  0  0  0  0  0  0
  184.8060  177.9140  145.9010 C   0  0  0  0  0  0  0  0  0  0  0  0
  184.0440  178.7520  146.1430 N   0  0  0  0  0  0  0  0  0  0  0  0
  192.4440  172.0680  142.2050 C   0  0  0  0  0  2  0  0  0  0  0  0
  193.7860  172.0240  142.5790 O   0  0  0  0  0  0  0  0  0  0  0  0
  194.1460  173.3600  142.7660 C   0  0  0  0  0  2  0  0  0  0  0  0
  193.7660  175.1470  144.5100 C   0  0  1  0  0  3  0  0  0  0  0  0
  194.1530  173.7010  144.2530 C   0  0  2  0  0  3  0  0  0  0  0  0
  195.5670  173.6770  144.7520 C   0  0  0  0  0  2  0  0  0  0  0  0
  195.9820  175.1380  144.8010 C   0  0  0  0  0  2  0  0  0  0  0  0
  194.9130  175.9380  144.3610 O   0  0  0  0  0  0  0  0  0  0  0  0
  192.7060  175.6150  143.6210 N   0  0  0  0  0  2  0  0  0  0  0  0
  189.7000  174.0450  145.3050 C   0  0  1  0  0  3  0  0  0  0  0  0
  188.9340  174.5360  147.6320 C   0  0  0  0  0  1  0  0  0  0  0  0
  190.4910  175.9660  146.5300 O   0  0  0  0  0  0  0  0  0  0  0  0
  191.4550  175.5740  144.3660 C   0  0  2  0  0  3  0  0  0  0  0  0
  191.7060  175.9750  145.8190 C   0  0  0  0  0  2  0  0  0  0  0  0
  190.1040  174.6190  146.6680 C   0  0  2  0  0  3  0  0  0  0  0  0
  190.8780  174.1590  144.3370 C   0  0  0  0  0  2  0  0  0  0  0  0
  189.3430  172.7160  145.4320 F   0  0  0  0  0  0  0  0  0  0  0  0
  191.2900  172.6460  138.6440 N   0  0  0  0  0  2  0  0  0  0  0  0
  191.2980  173.8300  137.7970 C   0  0  0  0  0  2  0  0  0  0  0  0
  193.6050  174.2430  137.2250 N   0  0  0  0  0  0  0  0  0  0  0  0
  192.5890  174.5500  137.9630 C   0  0  0  0  0  3  0  0  0  0  0  0
  194.7890  174.9330  137.3540 O   0  0  0  0  0  0  0  0  0  0  0  0
  196.0350  174.2570  137.2620 C   0  0  0  0  0  2  0  0  0  0  0  0
  196.5380  173.8820  138.6480 C   0  0  2  0  0  3  0  0  0  0  0  0
  196.2160  172.4500  138.9340 C   0  0  0  0  0  0  0  0  0  0  0  0
  196.2150  171.9790  140.2440 O   0  0  0  0  0  1  0  0  0  0  0  0
  195.9030  171.6750  137.9890 O   0  0  0  0  0  0  0  0  0  0  0  0
  195.9530  174.7120  139.6070 O   0  0  0  0  0  0  0  0  0  0  0  0
  197.4200  175.1220  141.4290 C   0  0  0  0  0  2  0  0  0  0  0  0
  196.9850  175.5450  140.0430 C   0  0  0  0  0  3  0  0  0  0  0  0
  196.5220  176.3250  141.2560 C   0  0  0  0  0  2  0  0  0  0  0  0
  1  2  2  0  0  0  0
  1  3  1  0  0  0  0
  2 20  1  0  0  0  0
  4  5  2  0  0  0  0
  5  3  1  0  0  0  0
  5  6  1  0  0  0  0
  6  7  1  0  0  0  0
  8  7  1  1  0  0  0
  8 12  1  0  0  0  0
  8 10  1  0  0  0  0
  9  8  1  0  0  0  0
 10  9  1  6  0  0  0
 10 17  1  0  0  0  0
 12 10  1  0  0  0  0
 12 11  2  0  0  0  0
 14 13  1  0  0  0  0
 15 16  1  0  0  0  0
 16 18  1  6  0  0  0
 16 13  1  0  0  0  0
 17 15  1  1  0  0  0
 17 14  1  0  0  0  0
 18 19  3  0  0  0  0
 20 21  1  0  0  0  0
 21 22  1  0  0  0  0
 23 28  1  6  0  0  0
 24 22  1  6  0  0  0
 24 23  1  0  0  0  0
 24 25  1  0  0  0  0
 25 26  1  0  0  0  0
 27 23  1  0  0  0  0
 27 26  1  0  0  0  0
 29 36  1  1  0  0  0
 29 34  1  0  0  0  0
 31 34  1  0  0  0  0
 32 28  1  6  0  0  0
 32 33  1  0  0  0  0
 33 31  1  0  0  0  0
 34 30  1  1  0  0  0
 35 32  1  0  0  0  0
 35 29  1  0  0  0  0
 37  1  1  0  0  0  0
 38 40  1  0  0  0  0
 38 37  1  0  0  0  0
 39 41  1  0  0  0  0
 39 40  2  0  0  0  0
 42 41  1  0  0  0  0
 43 42  1  6  0  0  0
 43 44  1  0  0  0  0
 43 47  1  0  0  0  0
 44 45  1  0  0  0  0
 46 44  2  0  0  0  0
 47 49  1  0  0  0  0
 49 50  1  0  0  0  0
 49 48  1  0  0  0  0
 50 48  1  0  0  0  0
M  END
>  <MODEL>
8

>  <REMARK>
 VINA RESULT:      -5.3      2.362      6.913
  Name = 
  20 active torsions:
  status: ('A' for Active; 'I' for Inactive)
    1  A    between atoms: N_1  and  O_28
    2  A    between atoms: C_2  and  O_25
    3  A    between atoms: C_6  and  N_48
    4  A    between atoms: C_7  and  C_10
    5  A    between atoms: C_7  and  O_44
    6  A    between atoms: C_8  and  C_41
    7  A    between atoms: N_11  and  C_40
    8  A    between atoms: C_13  and  C_39
    9  A    between atoms: C_14  and  N_45
   10  A    between atoms: C_19  and  C_23
   11  A    between atoms: C_23  and  C_26
   12  A    between atoms: C_23  and  O_27
   13  A    between atoms: C_24  and  O_27
   14  A    between atoms: O_25  and  N_49
   15  A    between atoms: C_26  and  O_28
   16  A    between atoms: N_30  and  C_39
   17  A    between atoms: N_30  and  C_40
   18  A    between atoms: C_31  and  N_48
   19  A    between atoms: C_32  and  C_43
   20  A    between atoms: C_32  and  O_44
                            x       y       z     vdW  Elec       q    Type
                         _______ _______ _______ _____ _____    ______ ____

>  <TORSDO>
F 20

$$$$
=
 OpenBabel11042419513D

 50 55  0  0  1  0  0  0  0  0999 V2000
  191.6640  176.4590  145.1960 C   0  0  0  0  0  0  0  0  0  0  0  0
  190.8590  176.8220  144.1970 C   0  0  0  0  0  3  0  0  0  0  0  0
  192.9010  175.7950  144.9040 N   0  0  0  0  0  2  0  0  0  0  0  0
  194.3680  177.3520  145.8640 O   0  0  0  0  0  0  0  0  0  0  0  0
  194.2110  176.3060  145.1800 C   0  0  0  0  0  0  0  0  0  0  0  0
  195.3580  175.6250  144.6690 N   0  0  0  0  0  2  0  0  0  0  0  0
  195.2400  174.4830  143.9460 O   0  0  0  0  0  0  0  0  0  0  0  0
  196.3390  174.4810  143.0710 C   0  0  1  0  0  0  0  0  0  0  0  0
  196.6020  173.1540  142.5240 N   0  0  0  0  0  2  0  0  0  0  0  0
  195.9380  174.1810  141.7160 C   0  0  2  0  0  0  0  0  0  0  0  0
  196.4250  176.8050  141.7780 O   0  0  0  0  0  0  0  0  0  0  0  0
  196.3090  175.6260  142.0670 C   0  0  0  0  0  0  0  0  0  0  0  0
  192.8190  173.9780  139.8720 C   0  0  0  0  0  2  0  0  0  0  0  0
  193.9480  174.7580  140.5100 C   0  0  0  0  0  2  0  0  0  0  0  0
  194.2580  172.5700  141.1920 C   0  0  0  0  0  2  0  0  0  0  0  0
  193.0450  172.5440  140.2840 C   0  0  2  0  0  3  0  0  0  0  0  0
  194.4820  173.9530  141.6070 N   0  0  1  0  0  0  0  0  0  0  0  0
  193.3310  171.7250  139.1020 C   0  0  0  0  0  0  0  0  0  0  0  0
  193.5580  171.0740  138.1710 N   0  0  0  0  0  0  0  0  0  0  0  0
  191.1840  176.5190  142.7720 C   0  0  0  0  0  2  0  0  0  0  0  0
  190.0410  176.0650  142.1150 O   0  0  0  0  0  0  0  0  0  0  0  0
  189.6030  174.9790  142.8750 C   0  0  0  0  0  2  0  0  0  0  0  0
  189.3080  172.6530  141.9360 C   0  0  1  0  0  3  0  0  0  0  0  0
  190.2980  173.7000  142.4170 C   0  0  2  0  0  3  0  0  0  0  0  0
  190.9000  173.0180  143.6090 C   0  0  0  0  0  2  0  0  0  0  0  0
  189.9170  171.9110  143.9550 C   0  0  0  0  0  2  0  0  0  0  0  0
  188.8380  171.9520  143.0540 O   0  0  0  0  0  0  0  0  0  0  0  0
  188.1930  173.2290  141.1900 N   0  0  0  0  0  2  0  0  0  0  0  0
  188.9420  173.6090  137.4980 C   0  0  1  0  0  3  0  0  0  0  0  0
  190.4360  172.1090  136.1700 C   0  0  0  0  0  1  0  0  0  0  0  0
  189.6400  171.4530  138.3200 O   0  0  0  0  0  0  0  0  0  0  0  0
  188.3320  172.8160  139.7990 C   0  0  2  0  0  3  0  0  0  0  0  0
  189.5270  171.8750  139.6570 C   0  0  0  0  0  2  0  0  0  0  0  0
  190.0640  172.5660  137.5690 C   0  0  2  0  0  3  0  0  0  0  0  0
  188.5600  174.0410  138.9140 C   0  0  0  0  0  2  0  0  0  0  0  0
  189.3620  174.7160  136.7830 F   0  0  0  0  0  0  0  0  0  0  0  0
  191.3210  176.7790  146.5490 N   0  0  0  0  0  2  0  0  0  0  0  0
  190.2270  176.1590  147.2820 C   0  0  0  0  0  2  0  0  0  0  0  0
  187.8650  176.0690  146.8010 N   0  0  0  0  0  0  0  0  0  0  0  0
  188.9400  176.7820  146.8730 C   0  0  0  0  0  3  0  0  0  0  0  0
  186.6670  176.6530  146.4560 O   0  0  0  0  0  0  0  0  0  0  0  0
  186.3380  176.8800  145.0930 C   0  0  0  0  0  2  0  0  0  0  0  0
  186.7810  178.2720  144.6670 C   0  0  2  0  0  3  0  0  0  0  0  0
  185.7740  179.2840  145.1140 C   0  0  0  0  0  0  0  0  0  0  0  0
  185.4610  179.4130  146.4640 O   0  0  0  0  0  1  0  0  0  0  0  0
  185.2380  180.0530  144.2690 O   0  0  0  0  0  0  0  0  0  0  0  0
  186.9330  178.3190  143.2800 O   0  0  0  0  0  0  0  0  0  0  0  0
  186.7100  176.7950  141.4720 C   0  0  0  0  0  2  0  0  0  0  0  0
  186.1490  177.2700  142.7950 C   0  0  0  0  0  3  0  0  0  0  0  0
  185.4950  177.6930  141.4950 C   0  0  0  0  0  2  0  0  0  0  0  0
  1 37  1  0  0  0  0
  2  1  2  0  0  0  0
  3  5  1  0  0  0  0
  3  1  1  0  0  0  0
  5  4  2  0  0  0  0
  6  5  1  0  0  0  0
  7  6  1  0  0  0  0
  8  7  1  1  0  0  0
  9  8  1  0  0  0  0
 10 12  1  6  0  0  0
 10  9  1  0  0  0  0
 10  8  1  0  0  0  0
 11 12  2  0  0  0  0
 12  8  1  0  0  0  0
 13 16  1  0  0  0  0
 13 14  1  0  0  0  0
 15 17  1  0  0  0  0
 16 18  1  6  0  0  0
 16 15  1  0  0  0  0
 17 14  1  6  0  0  0
 17 10  1  0  0  0  0
 19 18  3  0  0  0  0
 20  2  1  0  0  0  0
 21 20  1  0  0  0  0
 21 22  1  0  0  0  0
 23 28  1  1  0  0  0
 23 24  1  0  0  0  0
 23 27  1  0  0  0  0
 24 22  1  1  0  0  0
 24 25  1  0  0  0  0
 25 26  1  0  0  0  0
 27 26  1  0  0  0  0
 29 36  1  6  0  0  0
 29 34  1  0  0  0  0
 29 35  1  0  0  0  0
 31 33  1  0  0  0  0
 32 28  1  1  0  0  0
 33 32  1  0  0  0  0
 34 30  1  6  0  0  0
 34 31  1  0  0  0  0
 35 32  1  0  0  0  0
 37 38  1  0  0  0  0
 39 40  2  0  0  0  0
 40 38  1  0  0  0  0
 41 39  1  0  0  0  0
 42 41  1  0  0  0  0
 43 42  1  6  0  0  0
 43 44  1  0  0  0  0
 44 45  1  0  0  0  0
 46 44  2  0  0  0  0
 47 43  1  0  0  0  0
 48 50  1  0  0  0  0
 48 49  1  0  0  0  0
 49 47  1  0  0  0  0
 50 49  1  0  0  0  0
M  END
>  <MODEL>
9

>  <REMARK>
 VINA RESULT:      -5.3      2.939      7.998
  Name = 
  20 active torsions:
  status: ('A' for Active; 'I' for Inactive)
    1  A    between atoms: N_1  and  O_28
    2  A    between atoms: C_2  and  O_25
    3  A    between atoms: C_6  and  N_48
    4  A    between atoms: C_7  and  C_10
    5  A    between atoms: C_7  and  O_44
    6  A    between atoms: C_8  and  C_41
    7  A    between atoms: N_11  and  C_40
    8  A    between atoms: C_13  and  C_39
    9  A    between atoms: C_14  and  N_45
   10  A    between atoms: C_19  and  C_23
   11  A    between atoms: C_23  and  C_26
   12  A    between atoms: C_23  and  O_27
   13  A    between atoms: C_24  and  O_27
   14  A    between atoms: O_25  and  N_49
   15  A    between atoms: C_26  and  O_28
   16  A    between atoms: N_30  and  C_39
   17  A    between atoms: N_30  and  C_40
   18  A    between atoms: C_31  and  N_48
   19  A    between atoms: C_32  and  C_43
   20  A    between atoms: C_32  and  O_44
                            x       y       z     vdW  Elec       q    Type
                         _______ _______ _______ _____ _____    ______ ____

>  <TORSDO>
F 20

$$$$
