=
 OpenBabel11042413583D

 36 39  0  0  1  0  0  0  0  0999 V2000
  185.9260  178.8510  143.2940 C   0  0  0  0  0  0  0  0  0  0  0  0
  187.2050  178.2870  143.3080 C   0  0  0  0  0  3  0  0  0  0  0  0
  186.7600  177.3210  141.1380 C   0  0  0  0  0  3  0  0  0  0  0  0
  185.1010  178.6430  142.2330 N   0  0  0  0  0  0  0  0  0  0  0  0
  185.4890  177.8990  141.1620 C   0  0  0  0  0  3  0  0  0  0  0  0
  187.6360  177.5140  142.2180 C   0  0  0  0  0  0  0  0  0  0  0  0
  189.0960  175.4720  142.0170 C   0  0  0  0  0  2  0  0  0  0  0  0
  188.9460  176.9180  142.2180 N   0  0  0  0  0  0  0  0  0  0  0  0
  191.0840  177.1840  143.4200 C   0  0  0  0  0  2  0  0  0  0  0  0
  190.5530  175.0330  142.1490 C   0  0  0  0  0  2  0  0  0  0  0  0
  191.1630  175.6510  143.4060 C   0  0  1  0  0  3  0  0  0  0  0  0
  190.1370  177.7580  142.3630 C   0  0  0  0  0  2  0  0  0  0  0  0
  194.4310  172.2160  144.9610 C   0  0  0  0  0  1  0  0  0  0  0  0
  194.1340  173.5420  144.3540 C   0  0  0  0  0  0  0  0  0  0  0  0
  192.5680  175.1920  143.6030 C   0  0  0  0  0  0  0  0  0  0  0  0
  194.8980  175.5740  143.4160 C   0  0  0  0  0  0  0  0  0  0  0  0
  195.1510  174.3610  143.9750 N   0  0  0  0  0  0  0  0  0  0  0  0
  195.9740  176.4190  143.0360 N   0  0  0  0  0  1  0  0  0  0  0  0
  192.8110  173.9440  144.1760 C   0  0  0  0  0  3  0  0  0  0  0  0
  193.6150  175.9850  143.2380 N   0  0  0  0  0  0  0  0  0  0  0  0
  185.4480  179.6270  144.4710 C   0  0  0  0  0  2  0  0  0  0  0  0
  184.2060  178.7770  146.5330 N   0  0  0  0  0  0  0  0  0  0  0  0
  184.5440  177.6650  145.6330 C   0  0  0  0  0  2  0  0  0  0  0  0
  184.1980  178.9600  145.0540 C   0  0  2  0  0  3  0  0  0  0  0  0
  185.4580  179.1740  147.1790 C   0  0  0  0  0  2  0  0  0  0  0  0
  186.1230  177.9640  147.8220 C   0  0  0  0  0  2  0  0  0  0  0  0
  187.5530  177.8000  147.3310 C   0  0  0  0  0  2  0  0  0  0  0  0
  187.6660  176.5820  146.4230 C   0  0  0  0  0  2  0  0  0  0  0  0
  189.1090  176.1040  146.2570 C   0  0  2  0  0  3  0  0  0  0  0  0
  189.9310  173.8740  146.0760 O   0  0  0  0  0  0  0  0  0  0  0  0
  189.2890  174.7080  146.7650 C   0  0  0  0  0  0  0  0  0  0  0  0
  188.7390  174.3200  147.9820 O   0  0  0  0  0  1  0  0  0  0  0  0
  190.1340  177.0530  146.8830 C   0  0  0  0  0  2  0  0  0  0  0  0
  191.4230  176.8580  148.9100 O   0  0  0  0  0  1  0  0  0  0  0  0
  191.2510  176.3280  147.6310 C   0  0  2  0  0  3  0  0  0  0  0  0
  192.5590  176.3730  146.8630 C   0  0  0  0  0  1  0  0  0  0  0  0
  1  2  1  0  0  0  0
  1 21  1  0  0  0  0
  3  5  2  0  0  0  0
  3  6  1  0  0  0  0
  4  1  2  0  0  0  0
  5  4  1  0  0  0  0
  6  8  1  0  0  0  0
  6  2  2  0  0  0  0
  7 10  1  0  0  0  0
  7  8  1  0  0  0  0
  8 12  1  0  0  0  0
 10 11  1  0  0  0  0
 11  9  1  0  0  0  0
 11 15  1  6  0  0  0
 12  9  1  0  0  0  0
 14 13  1  0  0  0  0
 15 19  1  0  0  0  0
 16 17  2  0  0  0  0
 17 14  1  0  0  0  0
 18 16  1  0  0  0  0
 19 14  2  0  0  0  0
 20 16  1  0  0  0  0
 20 15  2  0  0  0  0
 22 25  1  0  0  0  0
 23 22  1  0  0  0  0
 24 21  1  1  0  0  0
 24 23  1  0  0  0  0
 24 22  1  0  0  0  0
 25 26  1  0  0  0  0
 27 26  1  0  0  0  0
 28 27  1  0  0  0  0
 29 28  1  1  0  0  0
 29 31  1  0  0  0  0
 29 33  1  0  0  0  0
 30 31  2  0  0  0  0
 31 32  1  0  0  0  0
 33 35  1  0  0  0  0
 35 36  1  6  0  0  0
 35 34  1  0  0  0  0
M  END
>  <MODEL>
1

>  <REMARK>
 VINA RESULT:      -7.0      0.000      0.000
  Name = 
  12 active torsions:
  status: ('A' for Active; 'I' for Inactive)
    1  A    between atoms: C_4  and  C_27
    2  A    between atoms: N_5  and  C_25
    3  A    between atoms: C_6  and  C_17
    4  A    between atoms: C_6  and  C_30
    5  A    between atoms: C_9  and  N_10
    6  A    between atoms: C_9  and  C_30
    7  A    between atoms: C_11  and  C_29
    8  A    between atoms: C_17  and  C_36
    9  A    between atoms: C_18  and  C_22
   10  A    between atoms: C_19  and  C_36
   11  A    between atoms: C_22  and  C_36
   12  A    between atoms: C_27  and  C_31
                            x       y       z     vdW  Elec       q    Type
                         _______ _______ _______ _____ _____    ______ ____

>  <TORSDO>
F 12

$$$$
=
 OpenBabel11042413583D

 36 39  0  0  1  0  0  0  0  0999 V2000
  194.8200  175.7310  144.0200 C   0  0  0  0  0  0  0  0  0  0  0  0
  193.5460  176.2840  143.8630 C   0  0  0  0  0  3  0  0  0  0  0  0
  193.3520  176.4190  146.2690 C   0  0  0  0  0  3  0  0  0  0  0  0
  195.3270  175.5300  145.2670 N   0  0  0  0  0  0  0  0  0  0  0  0
  194.6270  175.8630  146.3840 C   0  0  0  0  0  3  0  0  0  0  0  0
  192.7980  176.6380  144.9970 C   0  0  0  0  0  0  0  0  0  0  0  0
  190.4520  176.9280  145.8660 C   0  0  0  0  0  2  0  0  0  0  0  0
  191.4800  177.2010  144.8560 N   0  0  0  0  0  0  0  0  0  0  0  0
  189.8730  177.6780  143.0460 C   0  0  0  0  0  2  0  0  0  0  0  0
  189.1050  177.5370  145.4780 C   0  0  0  0  0  2  0  0  0  0  0  0
  188.7910  177.1970  144.0230 C   0  0  1  0  0  3  0  0  0  0  0  0
  191.1760  178.0920  143.7330 C   0  0  0  0  0  2  0  0  0  0  0  0
  184.3100  179.0280  145.2380 C   0  0  0  0  0  1  0  0  0  0  0  0
  185.2990  178.5960  144.2140 C   0  0  0  0  0  0  0  0  0  0  0  0
  187.4510  177.7200  143.6260 C   0  0  0  0  0  0  0  0  0  0  0  0
  185.8810  178.2790  141.9430 C   0  0  0  0  0  0  0  0  0  0  0  0
  184.9880  178.6670  142.8930 N   0  0  0  0  0  0  0  0  0  0  0  0
  185.5330  178.3520  140.5680 N   0  0  0  0  0  1  0  0  0  0  0  0
  186.5470  178.1160  144.6120 C   0  0  0  0  0  3  0  0  0  0  0  0
  187.1010  177.8050  142.3120 N   0  0  0  0  0  0  0  0  0  0  0  0
  195.5940  175.3060  142.8220 C   0  0  0  0  0  2  0  0  0  0  0  0
  194.6290  175.7800  140.5070 N   0  0  0  0  0  0  0  0  0  0  0  0
  196.0960  175.8760  140.4910 C   0  0  0  0  0  2  0  0  0  0  0  0
  195.3750  176.3080  141.6840 C   0  0  2  0  0  3  0  0  0  0  0  0
  194.3150  174.3520  140.5870 C   0  0  0  0  0  2  0  0  0  0  0  0
  192.8940  174.1010  140.1020 C   0  0  0  0  0  2  0  0  0  0  0  0
  192.0690  173.3910  141.1660 C   0  0  0  0  0  2  0  0  0  0  0  0
  191.4810  174.4010  142.1430 C   0  0  0  0  0  2  0  0  0  0  0  0
  190.2920  173.8390  142.9230 C   0  0  2  0  0  3  0  0  0  0  0  0
  191.8460  173.2800  144.6410 O   0  0  0  0  0  0  0  0  0  0  0  0
  190.6530  173.5490  144.3450 C   0  0  0  0  0  0  0  0  0  0  0  0
  189.6810  173.5590  145.3390 O   0  0  0  0  0  1  0  0  0  0  0  0
  189.6570  172.6160  142.2560 C   0  0  0  0  0  2  0  0  0  0  0  0
  188.3460  172.8330  140.2450 O   0  0  0  0  0  1  0  0  0  0  0  0
  188.2910  172.9070  141.6370 C   0  0  2  0  0  3  0  0  0  0  0  0
  187.7580  174.2600  142.0710 C   0  0  0  0  0  1  0  0  0  0  0  0
  1  4  1  0  0  0  0
  2  1  2  0  0  0  0
  2  6  1  0  0  0  0
  3  5  1  0  0  0  0
  4  5  2  0  0  0  0
  6  3  2  0  0  0  0
  8  6  1  0  0  0  0
  8  7  1  0  0  0  0
  9 12  1  0  0  0  0
  9 11  1  0  0  0  0
 10  7  1  0  0  0  0
 11 15  1  6  0  0  0
 11 10  1  0  0  0  0
 12  8  1  0  0  0  0
 14 19  2  0  0  0  0
 14 13  1  0  0  0  0
 15 19  1  0  0  0  0
 16 20  1  0  0  0  0
 16 17  2  0  0  0  0
 17 14  1  0  0  0  0
 18 16  1  0  0  0  0
 20 15  2  0  0  0  0
 21  1  1  0  0  0  0
 22 25  1  0  0  0  0
 22 24  1  0  0  0  0
 23 22  1  0  0  0  0
 23 24  1  0  0  0  0
 24 21  1  1  0  0  0
 26 25  1  0  0  0  0
 26 27  1  0  0  0  0
 27 28  1  0  0  0  0
 29 28  1  6  0  0  0
 29 31  1  0  0  0  0
 31 30  2  0  0  0  0
 31 32  1  0  0  0  0
 33 29  1  0  0  0  0
 34 35  1  0  0  0  0
 35 36  1  6  0  0  0
 35 33  1  0  0  0  0
M  END
>  <MODEL>
2

>  <REMARK>
 VINA RESULT:      -6.9      2.142      8.367
  Name = 
  12 active torsions:
  status: ('A' for Active; 'I' for Inactive)
    1  A    between atoms: C_4  and  C_27
    2  A    between atoms: N_5  and  C_25
    3  A    between atoms: C_6  and  C_17
    4  A    between atoms: C_6  and  C_30
    5  A    between atoms: C_9  and  N_10
    6  A    between atoms: C_9  and  C_30
    7  A    between atoms: C_11  and  C_29
    8  A    between atoms: C_17  and  C_36
    9  A    between atoms: C_18  and  C_22
   10  A    between atoms: C_19  and  C_36
   11  A    between atoms: C_22  and  C_36
   12  A    between atoms: C_27  and  C_31
                            x       y       z     vdW  Elec       q    Type
                         _______ _______ _______ _____ _____    ______ ____

>  <TORSDO>
F 12

$$$$
=
 OpenBabel11042413583D

 36 39  0  0  1  0  0  0  0  0999 V2000
  194.8420  175.8660  144.1380 C   0  0  0  0  0  0  0  0  0  0  0  0
  193.5750  176.4260  143.9470 C   0  0  0  0  0  3  0  0  0  0  0  0
  193.2290  176.3620  146.3380 C   0  0  0  0  0  3  0  0  0  0  0  0
  195.2710  175.5650  145.3940 N   0  0  0  0  0  0  0  0  0  0  0  0
  194.5000  175.8010  146.4880 C   0  0  0  0  0  3  0  0  0  0  0  0
  192.7550  176.6830  145.0560 C   0  0  0  0  0  0  0  0  0  0  0  0
  190.4240  177.0870  145.9210 C   0  0  0  0  0  2  0  0  0  0  0  0
  191.4440  177.2520  144.8790 N   0  0  0  0  0  0  0  0  0  0  0  0
  189.8220  177.5890  143.0510 C   0  0  0  0  0  2  0  0  0  0  0  0
  189.0820  177.6790  145.4940 C   0  0  0  0  0  2  0  0  0  0  0  0
  188.7450  177.2150  144.0780 C   0  0  1  0  0  3  0  0  0  0  0  0
  191.1400  178.0420  143.6840 C   0  0  0  0  0  2  0  0  0  0  0  0
  184.2310  179.0310  145.1860 C   0  0  0  0  0  1  0  0  0  0  0  0
  185.2400  178.5900  144.1870 C   0  0  0  0  0  0  0  0  0  0  0  0
  187.4080  177.7210  143.6510 C   0  0  0  0  0  0  0  0  0  0  0  0
  185.8640  178.2400  141.9320 C   0  0  0  0  0  0  0  0  0  0  0  0
  184.9520  178.6360  142.8590 N   0  0  0  0  0  0  0  0  0  0  0  0
  185.5380  178.2880  140.5500 N   0  0  0  0  0  1  0  0  0  0  0  0
  186.4850  178.1260  144.6140 C   0  0  0  0  0  3  0  0  0  0  0  0
  187.0800  177.7820  142.3290 N   0  0  0  0  0  0  0  0  0  0  0  0
  195.6930  175.5440  142.9600 C   0  0  0  0  0  2  0  0  0  0  0  0
  194.4500  175.2340  140.7530 N   0  0  0  0  0  0  0  0  0  0  0  0
  195.8150  175.7240  140.5180 C   0  0  0  0  0  2  0  0  0  0  0  0
  195.0960  176.1820  141.7030 C   0  0  2  0  0  3  0  0  0  0  0  0
  194.5810  173.8250  141.1300 C   0  0  0  0  0  2  0  0  0  0  0  0
  193.2050  173.2060  141.3360 C   0  0  0  0  0  2  0  0  0  0  0  0
  192.1090  174.1200  140.8090 C   0  0  0  0  0  2  0  0  0  0  0  0
  191.1060  174.4370  141.9110 C   0  0  0  0  0  2  0  0  0  0  0  0
  190.0590  173.3360  142.0860 C   0  0  2  0  0  3  0  0  0  0  0  0
  188.5590  174.9110  141.1120 O   0  0  0  0  0  0  0  0  0  0  0  0
  188.6920  173.8100  141.7060 C   0  0  0  0  0  0  0  0  0  0  0  0
  187.5680  173.0530  142.0160 O   0  0  0  0  0  1  0  0  0  0  0  0
  190.0580  172.7210  143.4880 C   0  0  0  0  0  2  0  0  0  0  0  0
  191.8840  173.2110  144.9840 O   0  0  0  0  0  1  0  0  0  0  0  0
  190.6320  173.6520  144.5550 C   0  0  2  0  0  3  0  0  0  0  0  0
  189.6910  173.7910  145.7390 C   0  0  0  0  0  1  0  0  0  0  0  0
  1  4  1  0  0  0  0
  2  1  2  0  0  0  0
  2  6  1  0  0  0  0
  3  5  1  0  0  0  0
  4  5  2  0  0  0  0
  6  3  2  0  0  0  0
  8  6  1  0  0  0  0
  8  7  1  0  0  0  0
  9 12  1  0  0  0  0
  9 11  1  0  0  0  0
 10  7  1  0  0  0  0
 11 15  1  6  0  0  0
 11 10  1  0  0  0  0
 12  8  1  0  0  0  0
 14 19  2  0  0  0  0
 14 13  1  0  0  0  0
 15 19  1  0  0  0  0
 16 20  1  0  0  0  0
 16 17  2  0  0  0  0
 17 14  1  0  0  0  0
 18 16  1  0  0  0  0
 20 15  2  0  0  0  0
 21  1  1  0  0  0  0
 22 25  1  0  0  0  0
 22 24  1  0  0  0  0
 23 22  1  0  0  0  0
 23 24  1  0  0  0  0
 24 21  1  1  0  0  0
 25 26  1  0  0  0  0
 27 26  1  0  0  0  0
 27 28  1  0  0  0  0
 29 28  1  1  0  0  0
 29 33  1  0  0  0  0
 30 31  2  0  0  0  0
 31 32  1  0  0  0  0
 31 29  1  0  0  0  0
 33 35  1  0  0  0  0
 35 34  1  0  0  0  0
 35 36  1  1  0  0  0
M  END
>  <MODEL>
3

>  <REMARK>
 VINA RESULT:      -6.8      2.206      8.208
  Name = 
  12 active torsions:
  status: ('A' for Active; 'I' for Inactive)
    1  A    between atoms: C_4  and  C_27
    2  A    between atoms: N_5  and  C_25
    3  A    between atoms: C_6  and  C_17
    4  A    between atoms: C_6  and  C_30
    5  A    between atoms: C_9  and  N_10
    6  A    between atoms: C_9  and  C_30
    7  A    between atoms: C_11  and  C_29
    8  A    between atoms: C_17  and  C_36
    9  A    between atoms: C_18  and  C_22
   10  A    between atoms: C_19  and  C_36
   11  A    between atoms: C_22  and  C_36
   12  A    between atoms: C_27  and  C_31
                            x       y       z     vdW  Elec       q    Type
                         _______ _______ _______ _____ _____    ______ ____

>  <TORSDO>
F 12

$$$$
=
 OpenBabel11042413583D

 36 39  0  0  1  0  0  0  0  0999 V2000
  186.7910  177.7890  145.2660 C   0  0  0  0  0  0  0  0  0  0  0  0
  188.1670  177.7290  145.0230 C   0  0  0  0  0  3  0  0  0  0  0  0
  188.4060  176.3000  146.9580 C   0  0  0  0  0  3  0  0  0  0  0  0
  186.2570  177.1260  146.3270 N   0  0  0  0  0  0  0  0  0  0  0  0
  187.0280  176.3870  147.1690 C   0  0  0  0  0  3  0  0  0  0  0  0
  188.9900  176.9740  145.8730 C   0  0  0  0  0  0  0  0  0  0  0  0
  190.9630  177.2820  144.3380 C   0  0  0  0  0  2  0  0  0  0  0  0
  190.4090  176.9060  145.6440 N   0  0  0  0  0  0  0  0  0  0  0  0
  192.3000  175.4450  146.2590 C   0  0  0  0  0  2  0  0  0  0  0  0
  192.4710  177.0460  144.2760 C   0  0  0  0  0  2  0  0  0  0  0  0
  192.7950  175.6570  144.8210 C   0  0  1  0  0  3  0  0  0  0  0  0
  191.3120  176.5160  146.7290 C   0  0  0  0  0  2  0  0  0  0  0  0
  196.7800  172.9330  146.0840 C   0  0  0  0  0  1  0  0  0  0  0  0
  196.1660  174.0560  145.3280 C   0  0  0  0  0  0  0  0  0  0  0  0
  194.2540  175.3650  144.7160 C   0  0  0  0  0  0  0  0  0  0  0  0
  196.3900  175.8710  143.8260 C   0  0  0  0  0  0  0  0  0  0  0  0
  196.9350  174.8420  144.5280 N   0  0  0  0  0  0  0  0  0  0  0  0
  197.2140  176.6850  143.0050 N   0  0  0  0  0  1  0  0  0  0  0  0
  194.7980  174.3040  145.4400 C   0  0  0  0  0  3  0  0  0  0  0  0
  195.0590  176.1300  143.9260 N   0  0  0  0  0  0  0  0  0  0  0  0
  185.9240  178.6320  144.3990 C   0  0  0  0  0  2  0  0  0  0  0  0
  185.1560  177.5680  142.2090 N   0  0  0  0  0  0  0  0  0  0  0  0
  184.1620  178.5370  142.6950 C   0  0  0  0  0  2  0  0  0  0  0  0
  184.9100  177.7460  143.6680 C   0  0  2  0  0  3  0  0  0  0  0  0
  186.2740  178.3580  141.6890 C   0  0  0  0  0  2  0  0  0  0  0  0
  187.4250  177.4420  141.2980 C   0  0  0  0  0  2  0  0  0  0  0  0
  187.2010  176.0280  141.8140 C   0  0  0  0  0  2  0  0  0  0  0  0
  188.4940  175.2250  141.7420 C   0  0  0  0  0  2  0  0  0  0  0  0
  188.2590  173.7200  141.8800 C   0  0  2  0  0  3  0  0  0  0  0  0
  189.3230  171.8610  142.9240 O   0  0  0  0  0  0  0  0  0  0  0  0
  189.1770  173.1100  142.8910 C   0  0  0  0  0  0  0  0  0  0  0  0
  189.8580  173.9080  143.8030 O   0  0  0  0  0  1  0  0  0  0  0  0
  188.3340  172.9730  140.5460 C   0  0  0  0  0  2  0  0  0  0  0  0
  188.1900  173.7420  138.2660 O   0  0  0  0  0  1  0  0  0  0  0  0
  188.9630  173.7990  139.4260 C   0  0  2  0  0  3  0  0  0  0  0  0
  190.3840  173.3510  139.1330 C   0  0  0  0  0  1  0  0  0  0  0  0
  1  4  1  0  0  0  0
  2  1  2  0  0  0  0
  2  6  1  0  0  0  0
  3  5  1  0  0  0  0
  4  5  2  0  0  0  0
  6  3  2  0  0  0  0
  7  8  1  0  0  0  0
  8  6  1  0  0  0  0
  8 12  1  0  0  0  0
  9 12  1  0  0  0  0
 10  7  1  0  0  0  0
 10 11  1  0  0  0  0
 11 15  1  1  0  0  0
 11  9  1  0  0  0  0
 14 19  2  0  0  0  0
 14 13  1  0  0  0  0
 15 19  1  0  0  0  0
 16 20  1  0  0  0  0
 16 17  2  0  0  0  0
 17 14  1  0  0  0  0
 18 16  1  0  0  0  0
 20 15  2  0  0  0  0
 21  1  1  0  0  0  0
 22 23  1  0  0  0  0
 22 24  1  0  0  0  0
 23 24  1  0  0  0  0
 24 21  1  1  0  0  0
 25 22  1  0  0  0  0
 26 25  1  0  0  0  0
 26 27  1  0  0  0  0
 28 27  1  0  0  0  0
 28 29  1  0  0  0  0
 29 33  1  6  0  0  0
 29 31  1  0  0  0  0
 31 30  2  0  0  0  0
 31 32  1  0  0  0  0
 34 35  1  0  0  0  0
 35 36  1  6  0  0  0
 35 33  1  0  0  0  0
M  END
>  <MODEL>
4

>  <REMARK>
 VINA RESULT:      -6.8      2.366      4.792
  Name = 
  12 active torsions:
  status: ('A' for Active; 'I' for Inactive)
    1  A    between atoms: C_4  and  C_27
    2  A    between atoms: N_5  and  C_25
    3  A    between atoms: C_6  and  C_17
    4  A    between atoms: C_6  and  C_30
    5  A    between atoms: C_9  and  N_10
    6  A    between atoms: C_9  and  C_30
    7  A    between atoms: C_11  and  C_29
    8  A    between atoms: C_17  and  C_36
    9  A    between atoms: C_18  and  C_22
   10  A    between atoms: C_19  and  C_36
   11  A    between atoms: C_22  and  C_36
   12  A    between atoms: C_27  and  C_31
                            x       y       z     vdW  Elec       q    Type
                         _______ _______ _______ _____ _____    ______ ____

>  <TORSDO>
F 12

$$$$
=
 OpenBabel11042413583D

 36 39  0  0  1  0  0  0  0  0999 V2000
  194.6150  175.8350  144.0340 C   0  0  0  0  0  0  0  0  0  0  0  0
  193.3300  176.3660  143.8920 C   0  0  0  0  0  3  0  0  0  0  0  0
  193.1340  176.4320  146.3000 C   0  0  0  0  0  3  0  0  0  0  0  0
  195.1270  175.6100  145.2750 N   0  0  0  0  0  0  0  0  0  0  0  0
  194.4200  175.8980  146.4000 C   0  0  0  0  0  3  0  0  0  0  0  0
  192.5750  176.6740  145.0340 C   0  0  0  0  0  0  0  0  0  0  0  0
  190.2050  176.8370  145.8700 C   0  0  0  0  0  2  0  0  0  0  0  0
  191.2470  177.2140  144.9080 N   0  0  0  0  0  0  0  0  0  0  0  0
  189.6650  177.7940  143.1060 C   0  0  0  0  0  2  0  0  0  0  0  0
  188.8510  177.4410  145.5010 C   0  0  0  0  0  2  0  0  0  0  0  0
  188.5760  177.2110  144.0170 C   0  0  1  0  0  3  0  0  0  0  0  0
  190.9430  178.1840  143.8530 C   0  0  0  0  0  2  0  0  0  0  0  0
  185.1790  178.3120  140.5310 C   0  0  0  0  0  1  0  0  0  0  0  0
  185.6040  178.2610  141.9550 C   0  0  0  0  0  0  0  0  0  0  0  0
  187.2310  177.7310  143.6320 C   0  0  0  0  0  0  0  0  0  0  0  0
  185.1370  178.6540  144.2410 C   0  0  0  0  0  0  0  0  0  0  0  0
  184.7670  178.6970  142.9330 N   0  0  0  0  0  0  0  0  0  0  0  0
  184.2510  179.1250  145.2460 N   0  0  0  0  0  1  0  0  0  0  0  0
  186.8650  177.7650  142.2870 C   0  0  0  0  0  3  0  0  0  0  0  0
  186.3630  178.1790  144.5830 N   0  0  0  0  0  0  0  0  0  0  0  0
  195.3970  175.4580  142.8250 C   0  0  0  0  0  2  0  0  0  0  0  0
  194.1920  175.0860  140.6070 N   0  0  0  0  0  0  0  0  0  0  0  0
  195.5070  175.7040  140.3880 C   0  0  0  0  0  2  0  0  0  0  0  0
  194.7470  176.0680  141.5790 C   0  0  2  0  0  3  0  0  0  0  0  0
  194.4510  173.6870  140.9520 C   0  0  0  0  0  2  0  0  0  0  0  0
  193.1490  172.8970  140.9560 C   0  0  0  0  0  2  0  0  0  0  0  0
  191.9480  173.8210  140.8220 C   0  0  0  0  0  2  0  0  0  0  0  0
  190.6540  173.0180  140.8610 C   0  0  0  0  0  2  0  0  0  0  0  0
  189.7340  173.4420  142.0070 C   0  0  2  0  0  3  0  0  0  0  0  0
  187.5250  174.3040  142.2520 O   0  0  0  0  0  1  0  0  0  0  0  0
  188.5290  174.1720  141.5050 C   0  0  0  0  0  0  0  0  0  0  0  0
  188.5010  174.6930  140.2160 O   0  0  0  0  0  0  0  0  0  0  0  0
  190.4530  174.2480  143.0920 C   0  0  0  0  0  2  0  0  0  0  0  0
  192.0520  173.0370  144.4300 O   0  0  0  0  0  1  0  0  0  0  0  0
  190.7190  173.4450  144.3640 C   0  0  2  0  0  3  0  0  0  0  0  0
  189.7970  172.2440  144.4690 C   0  0  0  0  0  1  0  0  0  0  0  0
  1  4  1  0  0  0  0
  2  1  2  0  0  0  0
  2  6  1  0  0  0  0
  3  5  1  0  0  0  0
  4  5  2  0  0  0  0
  6  3  2  0  0  0  0
  8  6  1  0  0  0  0
  8  7  1  0  0  0  0
  9 12  1  0  0  0  0
  9 11  1  0  0  0  0
 10  7  1  0  0  0  0
 11 15  1  6  0  0  0
 11 10  1  0  0  0  0
 12  8  1  0  0  0  0
 13 14  1  0  0  0  0
 14 19  2  0  0  0  0
 14 17  1  0  0  0  0
 15 20  2  0  0  0  0
 16 20  1  0  0  0  0
 16 18  1  0  0  0  0
 17 16  2  0  0  0  0
 19 15  1  0  0  0  0
 21  1  1  0  0  0  0
 22 25  1  0  0  0  0
 22 24  1  0  0  0  0
 23 22  1  0  0  0  0
 23 24  1  0  0  0  0
 24 21  1  1  0  0  0
 25 26  1  0  0  0  0
 27 28  1  0  0  0  0
 27 26  1  0  0  0  0
 29 28  1  6  0  0  0
 29 33  1  0  0  0  0
 31 29  1  0  0  0  0
 31 30  1  0  0  0  0
 32 31  2  0  0  0  0
 33 35  1  0  0  0  0
 35 34  1  0  0  0  0
 35 36  1  6  0  0  0
M  END
>  <MODEL>
5

>  <REMARK>
 VINA RESULT:      -6.8      2.297      8.320
  Name = 
  12 active torsions:
  status: ('A' for Active; 'I' for Inactive)
    1  A    between atoms: C_4  and  C_27
    2  A    between atoms: N_5  and  C_25
    3  A    between atoms: C_6  and  C_17
    4  A    between atoms: C_6  and  C_30
    5  A    between atoms: C_9  and  N_10
    6  A    between atoms: C_9  and  C_30
    7  A    between atoms: C_11  and  C_29
    8  A    between atoms: C_17  and  C_36
    9  A    between atoms: C_18  and  C_22
   10  A    between atoms: C_19  and  C_36
   11  A    between atoms: C_22  and  C_36
   12  A    between atoms: C_27  and  C_31
                            x       y       z     vdW  Elec       q    Type
                         _______ _______ _______ _____ _____    ______ ____

>  <TORSDO>
F 12

$$$$
=
 OpenBabel11042413583D

 36 39  0  0  1  0  0  0  0  0999 V2000
  186.9670  177.6120  145.4150 C   0  0  0  0  0  0  0  0  0  0  0  0
  188.3380  177.5530  145.1520 C   0  0  0  0  0  3  0  0  0  0  0  0
  188.5880  176.0260  147.0090 C   0  0  0  0  0  3  0  0  0  0  0  0
  186.4390  176.9010  146.4480 N   0  0  0  0  0  0  0  0  0  0  0  0
  187.2140  176.1140  147.2410 C   0  0  0  0  0  3  0  0  0  0  0  0
  189.1650  176.7490  145.9520 C   0  0  0  0  0  0  0  0  0  0  0  0
  191.1060  176.9620  144.3600 C   0  0  0  0  0  2  0  0  0  0  0  0
  190.5810  176.6820  145.7010 N   0  0  0  0  0  0  0  0  0  0  0  0
  192.5020  175.2950  146.3900 C   0  0  0  0  0  2  0  0  0  0  0  0
  192.6150  176.7410  144.2870 C   0  0  0  0  0  2  0  0  0  0  0  0
  192.9680  175.4020  144.9310 C   0  0  1  0  0  3  0  0  0  0  0  0
  191.5090  176.3870  146.7960 C   0  0  0  0  0  2  0  0  0  0  0  0
  197.4590  176.4410  143.0200 C   0  0  0  0  0  1  0  0  0  0  0  0
  196.5830  175.6210  143.8980 C   0  0  0  0  0  0  0  0  0  0  0  0
  194.4290  175.1200  144.8210 C   0  0  0  0  0  0  0  0  0  0  0  0
  196.3220  173.8330  145.4250 C   0  0  0  0  0  0  0  0  0  0  0  0
  197.1070  174.5910  144.6140 N   0  0  0  0  0  0  0  0  0  0  0  0
  196.8890  172.7550  146.1560 N   0  0  0  0  0  1  0  0  0  0  0  0
  195.2210  175.9090  143.9870 C   0  0  0  0  0  3  0  0  0  0  0  0
  194.9930  174.0960  145.5210 N   0  0  0  0  0  0  0  0  0  0  0  0
  186.0960  178.5050  144.6020 C   0  0  0  0  0  2  0  0  0  0  0  0
  185.2260  177.5350  142.4080 N   0  0  0  0  0  0  0  0  0  0  0  0
  184.2750  178.5120  142.9590 C   0  0  0  0  0  2  0  0  0  0  0  0
  185.0350  177.6700  143.8790 C   0  0  2  0  0  3  0  0  0  0  0  0
  186.3460  178.3120  141.8750 C   0  0  0  0  0  2  0  0  0  0  0  0
  187.2850  177.4080  141.0880 C   0  0  0  0  0  2  0  0  0  0  0  0
  187.6780  176.1850  141.9040 C   0  0  0  0  0  2  0  0  0  0  0  0
  188.8430  175.4580  141.2420 C   0  0  0  0  0  2  0  0  0  0  0  0
  189.0740  174.0650  141.8280 C   0  0  2  0  0  3  0  0  0  0  0  0
  187.1300  172.6890  141.7380 O   0  0  0  0  0  1  0  0  0  0  0  0
  188.2000  173.0410  141.1770 C   0  0  0  0  0  0  0  0  0  0  0  0
  188.5670  172.4620  139.9670 O   0  0  0  0  0  0  0  0  0  0  0  0
  188.9330  174.0210  143.3520 C   0  0  0  0  0  2  0  0  0  0  0  0
  191.0140  172.8260  143.1260 O   0  0  0  0  0  1  0  0  0  0  0  0
  190.1320  173.3830  144.0520 C   0  0  2  0  0  3  0  0  0  0  0  0
  189.6980  172.3350  145.0610 C   0  0  0  0  0  1  0  0  0  0  0  0
  1  4  1  0  0  0  0
  2  1  2  0  0  0  0
  2  6  1  0  0  0  0
  3  5  1  0  0  0  0
  4  5  2  0  0  0  0
  6  3  2  0  0  0  0
  7  8  1  0  0  0  0
  8  6  1  0  0  0  0
  8 12  1  0  0  0  0
  9 12  1  0  0  0  0
 10  7  1  0  0  0  0
 10 11  1  0  0  0  0
 11 15  1  1  0  0  0
 11  9  1  0  0  0  0
 13 14  1  0  0  0  0
 14 19  2  0  0  0  0
 14 17  1  0  0  0  0
 15 20  2  0  0  0  0
 16 20  1  0  0  0  0
 16 18  1  0  0  0  0
 17 16  2  0  0  0  0
 19 15  1  0  0  0  0
 21  1  1  0  0  0  0
 22 23  1  0  0  0  0
 22 24  1  0  0  0  0
 23 24  1  0  0  0  0
 24 21  1  1  0  0  0
 25 22  1  0  0  0  0
 26 25  1  0  0  0  0
 26 27  1  0  0  0  0
 28 27  1  0  0  0  0
 29 28  1  6  0  0  0
 29 33  1  0  0  0  0
 31 30  1  0  0  0  0
 31 29  1  0  0  0  0
 32 31  2  0  0  0  0
 33 35  1  0  0  0  0
 34 35  1  0  0  0  0
 35 36  1  1  0  0  0
M  END
>  <MODEL>
6

>  <REMARK>
 VINA RESULT:      -6.7      2.376      4.624
  Name = 
  12 active torsions:
  status: ('A' for Active; 'I' for Inactive)
    1  A    between atoms: C_4  and  C_27
    2  A    between atoms: N_5  and  C_25
    3  A    between atoms: C_6  and  C_17
    4  A    between atoms: C_6  and  C_30
    5  A    between atoms: C_9  and  N_10
    6  A    between atoms: C_9  and  C_30
    7  A    between atoms: C_11  and  C_29
    8  A    between atoms: C_17  and  C_36
    9  A    between atoms: C_18  and  C_22
   10  A    between atoms: C_19  and  C_36
   11  A    between atoms: C_22  and  C_36
   12  A    between atoms: C_27  and  C_31
                            x       y       z     vdW  Elec       q    Type
                         _______ _______ _______ _____ _____    ______ ____

>  <TORSDO>
F 12

$$$$
=
 OpenBabel11042413583D

 36 39  0  0  1  0  0  0  0  0999 V2000
  185.7560  177.2520  142.9360 C   0  0  0  0  0  0  0  0  0  0  0  0
  186.6270  176.1600  142.9740 C   0  0  0  0  0  3  0  0  0  0  0  0
  187.3600  176.7170  140.7390 C   0  0  0  0  0  3  0  0  0  0  0  0
  185.6960  178.0380  141.8270 N   0  0  0  0  0  0  0  0  0  0  0  0
  186.4750  177.7970  140.7390 C   0  0  0  0  0  3  0  0  0  0  0  0
  187.4450  175.8850  141.8670 C   0  0  0  0  0  0  0  0  0  0  0  0
  187.8130  173.3970  142.0070 C   0  0  0  0  0  2  0  0  0  0  0  0
  188.3430  174.7600  141.8840 N   0  0  0  0  0  0  0  0  0  0  0  0
  190.5680  174.2010  142.7920 C   0  0  0  0  0  2  0  0  0  0  0  0
  188.9330  172.3630  142.1020 C   0  0  0  0  0  2  0  0  0  0  0  0
  189.9720  172.8260  143.1230 C   0  0  1  0  0  3  0  0  0  0  0  0
  189.7850  174.9660  141.7220 C   0  0  0  0  0  2  0  0  0  0  0  0
  194.1850  171.2860  145.3070 C   0  0  0  0  0  1  0  0  0  0  0  0
  193.0750  171.0740  144.3400 C   0  0  0  0  0  0  0  0  0  0  0  0
  191.0500  171.8090  143.2910 C   0  0  0  0  0  0  0  0  0  0  0  0
  192.0230  169.7320  142.7010 C   0  0  0  0  0  0  0  0  0  0  0  0
  193.0330  169.9430  143.5870 N   0  0  0  0  0  0  0  0  0  0  0  0
  192.0040  168.5480  141.9160 N   0  0  0  0  0  1  0  0  0  0  0  0
  192.0770  172.0390  144.2070 C   0  0  0  0  0  3  0  0  0  0  0  0
  191.0440  170.6630  142.5530 N   0  0  0  0  0  0  0  0  0  0  0  0
  184.8500  177.5150  144.0870 C   0  0  0  0  0  2  0  0  0  0  0  0
  185.9380  178.4410  146.2010 N   0  0  0  0  0  0  0  0  0  0  0  0
  184.5530  178.9160  146.0780 C   0  0  0  0  0  2  0  0  0  0  0  0
  185.3470  178.7360  144.8660 C   0  0  2  0  0  3  0  0  0  0  0  0
  185.8540  177.0340  146.5970 C   0  0  0  0  0  2  0  0  0  0  0  0
  187.2470  176.4240  146.6650 C   0  0  0  0  0  2  0  0  0  0  0  0
  188.3210  177.4920  146.5200 C   0  0  0  0  0  2  0  0  0  0  0  0
  188.9710  177.4090  145.1450 C   0  0  0  0  0  2  0  0  0  0  0  0
  190.4960  177.3410  145.2190 C   0  0  2  0  0  3  0  0  0  0  0  0
  192.2990  177.2090  143.6650 O   0  0  0  0  0  1  0  0  0  0  0  0
  191.1250  177.6040  143.8880 C   0  0  0  0  0  0  0  0  0  0  0  0
  190.4320  178.2960  142.9010 O   0  0  0  0  0  0  0  0  0  0  0  0
  191.0130  176.0320  145.8220 C   0  0  0  0  0  2  0  0  0  0  0  0
  193.1740  176.0680  146.8900 O   0  0  0  0  0  1  0  0  0  0  0  0
  191.8070  176.2330  147.1120 C   0  0  2  0  0  3  0  0  0  0  0  0
  191.3360  175.2960  148.2090 C   0  0  0  0  0  1  0  0  0  0  0  0
  1  2  1  0  0  0  0
  1 21  1  0  0  0  0
  3  5  2  0  0  0  0
  3  6  1  0  0  0  0
  4  1  2  0  0  0  0
  5  4  1  0  0  0  0
  6  8  1  0  0  0  0
  6  2  2  0  0  0  0
  7 10  1  0  0  0  0
  8  7  1  0  0  0  0
  9 11  1  0  0  0  0
 10 11  1  0  0  0  0
 11 15  1  6  0  0  0
 12  8  1  0  0  0  0
 12  9  1  0  0  0  0
 14 13  1  0  0  0  0
 15 19  1  0  0  0  0
 16 17  2  0  0  0  0
 17 14  1  0  0  0  0
 18 16  1  0  0  0  0
 19 14  2  0  0  0  0
 20 16  1  0  0  0  0
 20 15  2  0  0  0  0
 22 25  1  0  0  0  0
 23 22  1  0  0  0  0
 24 21  1  6  0  0  0
 24 23  1  0  0  0  0
 24 22  1  0  0  0  0
 25 26  1  0  0  0  0
 27 26  1  0  0  0  0
 28 27  1  0  0  0  0
 29 28  1  6  0  0  0
 29 33  1  0  0  0  0
 30 31  1  0  0  0  0
 31 29  1  0  0  0  0
 32 31  2  0  0  0  0
 33 35  1  0  0  0  0
 34 35  1  0  0  0  0
 35 36  1  1  0  0  0
M  END
>  <MODEL>
7

>  <REMARK>
 VINA RESULT:      -6.6      2.699      3.348
  Name = 
  12 active torsions:
  status: ('A' for Active; 'I' for Inactive)
    1  A    between atoms: C_4  and  C_27
    2  A    between atoms: N_5  and  C_25
    3  A    between atoms: C_6  and  C_17
    4  A    between atoms: C_6  and  C_30
    5  A    between atoms: C_9  and  N_10
    6  A    between atoms: C_9  and  C_30
    7  A    between atoms: C_11  and  C_29
    8  A    between atoms: C_17  and  C_36
    9  A    between atoms: C_18  and  C_22
   10  A    between atoms: C_19  and  C_36
   11  A    between atoms: C_22  and  C_36
   12  A    between atoms: C_27  and  C_31
                            x       y       z     vdW  Elec       q    Type
                         _______ _______ _______ _____ _____    ______ ____

>  <TORSDO>
F 12

$$$$
=
 OpenBabel11042413583D

 36 39  0  0  1  0  0  0  0  0999 V2000
  185.8480  177.4340  142.0680 C   0  0  0  0  0  0  0  0  0  0  0  0
  186.6760  176.3490  142.3670 C   0  0  0  0  0  3  0  0  0  0  0  0
  187.4310  176.3430  140.0710 C   0  0  0  0  0  3  0  0  0  0  0  0
  185.8190  177.9420  140.8060 N   0  0  0  0  0  0  0  0  0  0  0  0
  186.5890  177.4260  139.8110 C   0  0  0  0  0  3  0  0  0  0  0  0
  187.4830  175.7930  141.3630 C   0  0  0  0  0  0  0  0  0  0  0  0
  187.8680  173.5960  142.5330 C   0  0  0  0  0  2  0  0  0  0  0  0
  188.3370  174.6700  141.6490 N   0  0  0  0  0  0  0  0  0  0  0  0
  190.7330  174.2420  142.0550 C   0  0  0  0  0  2  0  0  0  0  0  0
  188.9580  172.5540  142.7810 C   0  0  0  0  0  2  0  0  0  0  0  0
  190.2660  173.2570  143.1370 C   0  0  1  0  0  3  0  0  0  0  0  0
  189.6550  174.5660  141.0180 C   0  0  0  0  0  2  0  0  0  0  0  0
  194.4150  171.9900  145.6020 C   0  0  0  0  0  1  0  0  0  0  0  0
  193.3330  171.6660  144.6340 C   0  0  0  0  0  0  0  0  0  0  0  0
  191.3390  172.2700  143.4510 C   0  0  0  0  0  0  0  0  0  0  0  0
  192.3290  170.1430  143.1290 C   0  0  0  0  0  0  0  0  0  0  0  0
  193.3120  170.4570  144.0140 N   0  0  0  0  0  0  0  0  0  0  0  0
  192.3310  168.8770  142.4840 N   0  0  0  0  0  1  0  0  0  0  0  0
  192.3390  172.6060  144.3630 C   0  0  0  0  0  3  0  0  0  0  0  0
  191.3540  171.0470  142.8490 N   0  0  0  0  0  0  0  0  0  0  0  0
  184.9510  177.9910  143.1180 C   0  0  0  0  0  2  0  0  0  0  0  0
  185.6490  179.0320  145.3410 N   0  0  0  0  0  0  0  0  0  0  0  0
  184.7030  179.9050  144.6310 C   0  0  0  0  0  2  0  0  0  0  0  0
  185.6650  179.1290  143.8550 C   0  0  2  0  0  3  0  0  0  0  0  0
  184.8600  177.9130  145.8610 C   0  0  0  0  0  2  0  0  0  0  0  0
  185.6960  177.0860  146.8280 C   0  0  0  0  0  2  0  0  0  0  0  0
  187.1820  177.2530  146.5480 C   0  0  0  0  0  2  0  0  0  0  0  0
  187.7080  176.0670  145.7490 C   0  0  0  0  0  2  0  0  0  0  0  0
  189.2340  176.0580  145.6460 C   0  0  2  0  0  3  0  0  0  0  0  0
  191.0900  174.9510  146.6500 O   0  0  0  0  0  0  0  0  0  0  0  0
  189.8500  175.1590  146.6710 C   0  0  0  0  0  0  0  0  0  0  0  0
  189.0630  174.5390  147.6350 O   0  0  0  0  0  1  0  0  0  0  0  0
  189.8500  177.4590  145.7010 C   0  0  0  0  0  2  0  0  0  0  0  0
  189.7410  177.5650  143.2960 O   0  0  0  0  0  1  0  0  0  0  0  0
  190.5380  177.8670  144.4000 C   0  0  2  0  0  3  0  0  0  0  0  0
  191.9000  177.2120  144.2590 C   0  0  0  0  0  1  0  0  0  0  0  0
  1  2  1  0  0  0  0
  1 21  1  0  0  0  0
  3  6  1  0  0  0  0
  4  1  2  0  0  0  0
  5  3  2  0  0  0  0
  5  4  1  0  0  0  0
  6  8  1  0  0  0  0
  6  2  2  0  0  0  0
  7 10  1  0  0  0  0
  8  7  1  0  0  0  0
  9 11  1  0  0  0  0
 10 11  1  0  0  0  0
 11 15  1  6  0  0  0
 12  8  1  0  0  0  0
 12  9  1  0  0  0  0
 14 13  1  0  0  0  0
 15 19  1  0  0  0  0
 16 17  2  0  0  0  0
 17 14  1  0  0  0  0
 18 16  1  0  0  0  0
 19 14  2  0  0  0  0
 20 16  1  0  0  0  0
 20 15  2  0  0  0  0
 22 25  1  0  0  0  0
 23 22  1  0  0  0  0
 24 21  1  6  0  0  0
 24 23  1  0  0  0  0
 24 22  1  0  0  0  0
 25 26  1  0  0  0  0
 27 26  1  0  0  0  0
 28 27  1  0  0  0  0
 29 33  1  1  0  0  0
 29 28  1  0  0  0  0
 29 31  1  0  0  0  0
 30 31  2  0  0  0  0
 31 32  1  0  0  0  0
 34 35  1  0  0  0  0
 35 36  1  6  0  0  0
 35 33  1  0  0  0  0
M  END
>  <MODEL>
8

>  <REMARK>
 VINA RESULT:      -6.6      2.287      3.025
  Name = 
  12 active torsions:
  status: ('A' for Active; 'I' for Inactive)
    1  A    between atoms: C_4  and  C_27
    2  A    between atoms: N_5  and  C_25
    3  A    between atoms: C_6  and  C_17
    4  A    between atoms: C_6  and  C_30
    5  A    between atoms: C_9  and  N_10
    6  A    between atoms: C_9  and  C_30
    7  A    between atoms: C_11  and  C_29
    8  A    between atoms: C_17  and  C_36
    9  A    between atoms: C_18  and  C_22
   10  A    between atoms: C_19  and  C_36
   11  A    between atoms: C_22  and  C_36
   12  A    between atoms: C_27  and  C_31
                            x       y       z     vdW  Elec       q    Type
                         _______ _______ _______ _____ _____    ______ ____

>  <TORSDO>
F 12

$$$$
=
 OpenBabel11042413583D

 36 39  0  0  1  0  0  0  0  0999 V2000
  194.5340  175.8110  144.0850 C   0  0  0  0  0  0  0  0  0  0  0  0
  193.2450  176.3280  143.9280 C   0  0  0  0  0  3  0  0  0  0  0  0
  193.0540  176.4770  146.3330 C   0  0  0  0  0  3  0  0  0  0  0  0
  195.0500  175.6340  145.3310 N   0  0  0  0  0  0  0  0  0  0  0  0
  194.3440  175.9560  146.4480 C   0  0  0  0  0  3  0  0  0  0  0  0
  192.4910  176.6710  145.0610 C   0  0  0  0  0  0  0  0  0  0  0  0
  190.1380  176.8970  145.9310 C   0  0  0  0  0  2  0  0  0  0  0  0
  191.1580  177.1970  144.9200 N   0  0  0  0  0  0  0  0  0  0  0  0
  189.5370  177.6270  143.1100 C   0  0  0  0  0  2  0  0  0  0  0  0
  188.7750  177.4680  145.5430 C   0  0  0  0  0  2  0  0  0  0  0  0
  188.4690  177.1170  144.0880 C   0  0  1  0  0  3  0  0  0  0  0  0
  190.8290  178.0770  143.7960 C   0  0  0  0  0  2  0  0  0  0  0  0
  185.1150  178.2320  140.5660 C   0  0  0  0  0  1  0  0  0  0  0  0
  185.5080  178.1390  141.9980 C   0  0  0  0  0  0  0  0  0  0  0  0
  187.1150  177.6020  143.6920 C   0  0  0  0  0  0  0  0  0  0  0  0
  184.9740  178.4230  144.2840 C   0  0  0  0  0  0  0  0  0  0  0  0
  184.6320  178.5040  142.9710 N   0  0  0  0  0  0  0  0  0  0  0  0
  184.0470  178.8190  145.2850 N   0  0  0  0  0  1  0  0  0  0  0  0
  186.7790  177.6770  142.3410 C   0  0  0  0  0  3  0  0  0  0  0  0
  186.2090  177.9790  144.6380 N   0  0  0  0  0  0  0  0  0  0  0  0
  195.3150  175.3970  142.8880 C   0  0  0  0  0  2  0  0  0  0  0  0
  194.1600  175.3610  140.6120 N   0  0  0  0  0  0  0  0  0  0  0  0
  195.5690  175.7540  140.4750 C   0  0  0  0  0  2  0  0  0  0  0  0
  194.8320  176.1780  141.6610 C   0  0  2  0  0  3  0  0  0  0  0  0
  194.1620  173.9210  140.8800 C   0  0  0  0  0  2  0  0  0  0  0  0
  192.7600  173.3540  140.7110 C   0  0  0  0  0  2  0  0  0  0  0  0
  192.0380  173.2690  142.0470 C   0  0  0  0  0  2  0  0  0  0  0  0
  191.0140  174.3910  142.1690 C   0  0  0  0  0  2  0  0  0  0  0  0
  189.6110  173.8730  142.4880 C   0  0  2  0  0  3  0  0  0  0  0  0
  189.1810  171.8550  143.6820 O   0  0  0  0  0  0  0  0  0  0  0  0
  189.6000  173.0400  143.7310 C   0  0  0  0  0  0  0  0  0  0  0  0
  190.0330  173.5690  144.9420 O   0  0  0  0  0  1  0  0  0  0  0  0
  188.9640  173.1250  141.3190 C   0  0  0  0  0  2  0  0  0  0  0  0
  188.1350  175.1240  140.2570 O   0  0  0  0  0  1  0  0  0  0  0  0
  188.8740  173.9600  140.0430 C   0  0  2  0  0  3  0  0  0  0  0  0
  188.2800  173.1640  138.8950 C   0  0  0  0  0  1  0  0  0  0  0  0
  1  4  1  0  0  0  0
  2  1  2  0  0  0  0
  2  6  1  0  0  0  0
  3  5  1  0  0  0  0
  4  5  2  0  0  0  0
  6  3  2  0  0  0  0
  8  6  1  0  0  0  0
  8  7  1  0  0  0  0
  9 12  1  0  0  0  0
  9 11  1  0  0  0  0
 10  7  1  0  0  0  0
 11 15  1  6  0  0  0
 11 10  1  0  0  0  0
 12  8  1  0  0  0  0
 13 14  1  0  0  0  0
 14 19  2  0  0  0  0
 14 17  1  0  0  0  0
 15 20  2  0  0  0  0
 16 20  1  0  0  0  0
 16 18  1  0  0  0  0
 17 16  2  0  0  0  0
 19 15  1  0  0  0  0
 21  1  1  0  0  0  0
 22 25  1  0  0  0  0
 22 24  1  0  0  0  0
 23 22  1  0  0  0  0
 23 24  1  0  0  0  0
 24 21  1  1  0  0  0
 26 25  1  0  0  0  0
 26 27  1  0  0  0  0
 27 28  1  0  0  0  0
 28 29  1  0  0  0  0
 29 33  1  6  0  0  0
 29 31  1  0  0  0  0
 30 31  2  0  0  0  0
 31 32  1  0  0  0  0
 35 36  1  6  0  0  0
 35 34  1  0  0  0  0
 35 33  1  0  0  0  0
M  END
>  <MODEL>
9

>  <REMARK>
 VINA RESULT:      -6.6      2.242      8.435
  Name = 
  12 active torsions:
  status: ('A' for Active; 'I' for Inactive)
    1  A    between atoms: C_4  and  C_27
    2  A    between atoms: N_5  and  C_25
    3  A    between atoms: C_6  and  C_17
    4  A    between atoms: C_6  and  C_30
    5  A    between atoms: C_9  and  N_10
    6  A    between atoms: C_9  and  C_30
    7  A    between atoms: C_11  and  C_29
    8  A    between atoms: C_17  and  C_36
    9  A    between atoms: C_18  and  C_22
   10  A    between atoms: C_19  and  C_36
   11  A    between atoms: C_22  and  C_36
   12  A    between atoms: C_27  and  C_31
                            x       y       z     vdW  Elec       q    Type
                         _______ _______ _______ _____ _____    ______ ____

>  <TORSDO>
F 12

$$$$
