=
 OpenBabel11042417233D

 56 61  0  0  1  0  0  0  0  0999 V2000
  183.1200  178.0280  141.6540 C   0  0  2  0  0  3  0  0  0  0  0  0
  184.0810  177.9350  142.8230 C   0  0  0  0  0  2  0  0  0  0  0  0
  184.2280  179.2990  143.4720 C   0  0  0  0  0  2  0  0  0  0  0  0
  185.5430  179.4680  143.9870 O   0  0  0  0  0  0  0  0  0  0  0  0
  187.0350  177.4670  147.3620 C   0  0  0  0  0  3  0  0  0  0  0  0
  187.1460  177.9960  145.0070 C   0  0  0  0  0  3  0  0  0  0  0  0
  185.9060  178.2800  147.4910 C   0  0  0  0  0  3  0  0  0  0  0  0
  185.3970  178.9500  146.3770 C   0  0  0  0  0  3  0  0  0  0  0  0
  187.6720  177.3190  146.1160 C   0  0  0  0  0  0  0  0  0  0  0  0
  186.0180  178.8100  145.1250 C   0  0  0  0  0  0  0  0  0  0  0  0
  188.8420  175.2280  146.5460 C   0  0  0  0  0  2  0  0  0  0  0  0
  188.8520  176.4270  145.9610 C   0  0  0  0  0  0  0  0  0  0  0  0
  192.0110  176.6830  143.9550 N   0  0  2  0  0  0  0  0  0  0  0  0
  191.0830  175.9270  144.8210 C   0  0  2  0  0  3  0  0  0  0  0  0
  189.9950  176.8180  145.1710 N   0  0  0  0  0  0  0  0  0  0  0  0
  192.3480  176.4160  145.3640 C   0  0  0  0  0  2  0  0  0  0  0  0
  191.4860  178.0490  143.8670 C   0  0  0  0  0  2  0  0  0  0  0  0
  190.1080  178.0880  144.4920 C   0  0  0  0  0  2  0  0  0  0  0  0
  183.8880  178.3490  140.3850 C   0  0  0  0  0  2  0  0  0  0  0  0
  185.2600  178.5210  140.7080 O   0  0  0  0  0  0  0  0  0  0  0  0
  186.3250  177.2590  139.1210 O   0  0  0  0  0  0  0  0  0  0  0  0
  186.2260  177.5820  140.3320 C   0  0  0  0  0  0  0  0  0  0  0  0
  187.2100  177.0400  141.3260 C   0  0  2  0  0  3  0  0  0  0  0  0
  188.3220  178.0680  141.5160 C   0  0  0  0  0  1  0  0  0  0  0  0
  187.7260  175.8210  140.8630 O   0  0  0  0  0  0  0  0  0  0  0  0
  188.6670  175.3910  141.8090 C   0  0  0  0  0  2  0  0  0  0  0  0
  189.4040  172.6920  140.1300 C   0  0  1  0  0  3  0  0  0  0  0  0
  191.0730  171.3790  143.2930 C   0  0  2  0  0  3  0  0  0  0  0  0
  191.3230  171.2490  139.9470 O   0  0  0  0  0  1  0  0  0  0  0  0
  188.1460  173.0410  140.9580 C   0  0  0  0  0  2  0  0  0  0  0  0
  190.2670  171.6000  140.7950 C   0  0  1  0  0  3  0  0  0  0  0  0
  189.3170  173.4370  143.3130 C   0  0  0  0  0  2  0  0  0  0  0  0
  188.3750  173.9490  142.1940 C   0  0  1  0  0  3  0  0  0  0  0  0
  190.8250  172.2040  142.0560 C   0  0  1  0  0  3  0  0  0  0  0  0
  189.6990  171.9930  143.0500 C   0  0  1  0  0  3  0  0  0  0  0  0
  189.0110  172.2740  138.8560 O   0  0  0  0  0  0  0  0  0  0  0  0
  188.3740  173.3820  138.2950 C   0  0  0  0  0  1  0  0  0  0  0  0
  191.9180  172.1920  144.2630 C   0  0  0  0  0  2  0  0  0  0  0  0
  193.3490  171.6910  144.3120 C   0  0  0  0  0  2  0  0  0  0  0  0
  193.9640  172.1020  145.5610 N   0  0  0  0  0  2  0  0  0  0  0  0
  195.2730  171.4730  145.6160 C   0  0  0  0  0  2  0  0  0  0  0  0
  196.2850  172.3640  144.9220 C   0  0  0  0  0  2  0  0  0  0  0  0
  195.8220  174.7890  145.2830 O   0  0  0  0  0  0  0  0  0  0  0  0
  196.4610  173.6260  145.6920 C   0  0  0  0  0  0  0  0  0  0  0  0
  197.1810  173.6340  146.7250 O   0  0  0  0  0  1  0  0  0  0  0  0
  182.1450  179.0380  141.9130 O   0  0  0  0  0  0  0  0  0  0  0  0
  180.8510  179.0050  141.3840 C   0  0  0  0  0  0  0  0  0  0  0  0
  178.2560  179.0120  140.3280 C   0  0  0  0  0  3  0  0  0  0  0  0
  178.7280  177.8910  141.0130 C   0  0  0  0  0  3  0  0  0  0  0  0
  180.0190  177.8870  141.5410 C   0  0  0  0  0  3  0  0  0  0  0  0
  180.3760  180.1220  140.6900 C   0  0  0  0  0  3  0  0  0  0  0  0
  179.0760  180.1340  140.1590 C   0  0  0  0  0  0  0  0  0  0  0  0
  178.5690  181.2490  139.4850 O   0  0  0  0  0  0  0  0  0  0  0  0
  179.3650  182.3850  139.1770 C   0  0  0  0  0  2  0  0  0  0  0  0
  180.4380  183.5260  137.2310 C   0  0  0  0  0  1  0  0  0  0  0  0
  179.2410  182.7200  137.7000 C   0  0  0  0  0  2  0  0  0  0  0  0
  1 19  1  6  0  0  0
  1 46  1  0  0  0  0
  1  2  1  0  0  0  0
  2  3  1  0  0  0  0
  3  4  1  0  0  0  0
  4 10  1  0  0  0  0
  5  7  1  0  0  0  0
  6 10  2  0  0  0  0
  6  9  1  0  0  0  0
  8  7  2  0  0  0  0
  9  5  2  0  0  0  0
 10  8  1  0  0  0  0
 12  9  1  0  0  0  0
 12 11  2  0  0  0  0
 13 17  1  1  0  0  0
 13 14  1  0  0  0  0
 13 16  1  0  0  0  0
 14 15  1  0  0  0  0
 14 16  1  1  0  0  0
 15 12  1  0  0  0  0
 17 18  1  0  0  0  0
 18 15  1  0  0  0  0
 19 20  1  0  0  0  0
 21 22  2  0  0  0  0
 22 20  1  0  0  0  0
 22 23  1  0  0  0  0
 23 24  1  6  0  0  0
 25 23  1  0  0  0  0
 25 26  1  0  0  0  0
 27 36  1  6  0  0  0
 27 31  1  0  0  0  0
 27 30  1  0  0  0  0
 28 38  1  1  0  0  0
 30 33  1  0  0  0  0
 31 29  1  6  0  0  0
 31 34  1  0  0  0  0
 33 26  1  6  0  0  0
 33 32  1  0  0  0  0
 34 35  1  0  0  0  0
 34 28  1  0  0  0  0
 35 28  1  0  0  0  0
 35 32  1  0  0  0  0
 37 36  1  0  0  0  0
 38 39  1  0  0  0  0
 39 40  1  0  0  0  0
 40 41  1  0  0  0  0
 42 41  1  0  0  0  0
 42 44  1  0  0  0  0
 43 44  2  0  0  0  0
 44 45  1  0  0  0  0
 47 50  1  0  0  0  0
 47 46  1  0  0  0  0
 48 49  1  0  0  0  0
 49 50  2  0  0  0  0
 51 47  2  0  0  0  0
 52 48  2  0  0  0  0
 52 51  1  0  0  0  0
 53 52  1  0  0  0  0
 54 53  1  0  0  0  0
 55 56  1  0  0  0  0
 56 54  1  0  0  0  0
M  END
>  <MODEL>
1

>  <REMARK>
 VINA RESULT:      -7.2      0.000      0.000
  Name = 
  25 active torsions:
  status: ('A' for Active; 'I' for Inactive)
    1  A    between atoms: C_1  and  O_5
    2  A    between atoms: C_3  and  C_30
    3  A    between atoms: C_6  and  C_28
    4  A    between atoms: C_6  and  C_45
    5  A    between atoms: O_8  and  C_18
    6  A    between atoms: O_8  and  C_51
    7  A    between atoms: C_9  and  O_22
    8  A    between atoms: C_11  and  C_30
    9  A    between atoms: C_11  and  N_43
   10  A    between atoms: C_13  and  O_33
   11  A    between atoms: C_13  and  C_45
   12  A    between atoms: C_15  and  C_25
   13  A    between atoms: O_16  and  C_28
   14  A    between atoms: O_16  and  C_47
   15  A    between atoms: C_18  and  C_49
   16  A    between atoms: C_21  and  O_27
   17  A    between atoms: C_21  and  C_55
   18  A    between atoms: O_22  and  C_45
   19  A    between atoms: C_25  and  C_29
   20  A    between atoms: N_26  and  C_44
   21  A    between atoms: O_27  and  C_37
   22  A    between atoms: C_29  and  N_43
   23  A    between atoms: O_33  and  C_55
   24  A    between atoms: C_37  and  C_41
   25  A    between atoms: C_40  and  C_44
                            x       y       z     vdW  Elec       q    Type
                         _______ _______ _______ _____ _____    ______ ____

>  <TORSDO>
F 25

$$$$
=
 OpenBabel11042417233D

 56 61  0  0  1  0  0  0  0  0999 V2000
  188.5740  177.0920  142.3420 C   0  0  2  0  0  3  0  0  0  0  0  0
  189.6980  178.0290  142.7380 C   0  0  0  0  0  2  0  0  0  0  0  0
  190.3260  177.5520  144.0360 C   0  0  0  0  0  2  0  0  0  0  0  0
  191.7210  177.8280  144.0470 O   0  0  0  0  0  0  0  0  0  0  0  0
  194.6340  175.2830  145.6790 C   0  0  0  0  0  3  0  0  0  0  0  0
  193.8330  176.6920  143.8870 C   0  0  0  0  0  3  0  0  0  0  0  0
  193.4770  175.5610  146.4130 C   0  0  0  0  0  3  0  0  0  0  0  0
  192.4990  176.4040  145.8820 C   0  0  0  0  0  3  0  0  0  0  0  0
  194.8270  175.8510  144.4060 C   0  0  0  0  0  0  0  0  0  0  0  0
  192.6740  176.9760  144.6110 C   0  0  0  0  0  0  0  0  0  0  0  0
  196.9100  176.5040  143.3290 C   0  0  0  0  0  2  0  0  0  0  0  0
  196.0370  175.5330  143.6030 C   0  0  0  0  0  0  0  0  0  0  0  0
  195.9840  171.9180  142.6040 N   0  0  2  0  0  0  0  0  0  0  0  0
  195.3710  173.0890  143.2640 C   0  0  2  0  0  3  0  0  0  0  0  0
  196.3020  174.1930  143.1350 N   0  0  0  0  0  0  0  0  0  0  0  0
  195.9480  172.0190  144.0730 C   0  0  0  0  0  2  0  0  0  0  0  0
  197.3160  172.3360  142.1560 C   0  0  0  0  0  2  0  0  0  0  0  0
  197.4470  173.8330  142.3320 C   0  0  0  0  0  2  0  0  0  0  0  0
  189.1510  175.7590  141.9020 C   0  0  0  0  0  2  0  0  0  0  0  0
  188.3630  175.2450  140.8380 O   0  0  0  0  0  0  0  0  0  0  0  0
  188.1250  172.9820  141.1000 O   0  0  0  0  0  0  0  0  0  0  0  0
  188.5170  173.9330  140.3770 C   0  0  0  0  0  0  0  0  0  0  0  0
  189.0390  173.6520  139.0000 C   0  0  2  0  0  3  0  0  0  0  0  0
  188.1000  174.2970  137.9840 C   0  0  0  0  0  1  0  0  0  0  0  0
  189.1190  172.2660  138.7990 O   0  0  0  0  0  0  0  0  0  0  0  0
  190.0350  172.0560  137.7590 C   0  0  0  0  0  2  0  0  0  0  0  0
  192.6040  173.7450  138.8510 C   0  0  1  0  0  3  0  0  0  0  0  0
  192.3530  171.7260  142.0720 C   0  0  2  0  0  3  0  0  0  0  0  0
  193.2320  174.7630  140.9410 O   0  0  0  0  0  1  0  0  0  0  0  0
  192.5450  172.4300  138.0400 C   0  0  0  0  0  2  0  0  0  0  0  0
  193.0920  173.5290  140.2980 C   0  0  1  0  0  3  0  0  0  0  0  0
  191.1570  170.9600  139.7700 C   0  0  0  0  0  2  0  0  0  0  0  0
  191.3330  171.5070  138.3300 C   0  0  1  0  0  3  0  0  0  0  0  0
  192.0240  172.7270  140.9940 C   0  0  1  0  0  3  0  0  0  0  0  0
  192.3730  171.3030  140.6070 C   0  0  1  0  0  3  0  0  0  0  0  0
  193.4480  174.6470  138.1970 O   0  0  0  0  0  0  0  0  0  0  0  0
  193.3340  174.3290  136.8440 C   0  0  0  0  0  1  0  0  0  0  0  0
  191.0670  171.3290  142.7820 C   0  0  0  0  0  2  0  0  0  0  0  0
  191.0420  171.8290  144.2130 C   0  0  0  0  0  2  0  0  0  0  0  0
  190.6420  173.2250  144.2320 N   0  0  0  0  0  2  0  0  0  0  0  0
  189.7480  173.3940  145.3650 C   0  0  0  0  0  2  0  0  0  0  0  0
  189.2540  174.8270  145.4020 C   0  0  0  0  0  2  0  0  0  0  0  0
  188.7400  176.5640  147.1170 O   0  0  0  0  0  0  0  0  0  0  0  0
  188.9720  175.2310  146.8070 C   0  0  0  0  0  0  0  0  0  0  0  0
  188.9300  174.3570  147.7130 O   0  0  0  0  0  1  0  0  0  0  0  0
  187.8110  177.6770  141.2880 O   0  0  0  0  0  0  0  0  0  0  0  0
  186.4330  177.9010  141.3750 C   0  0  0  0  0  0  0  0  0  0  0  0
  183.6760  178.3290  141.6210 C   0  0  0  0  0  3  0  0  0  0  0  0
  184.2320  178.0570  140.3690 C   0  0  0  0  0  3  0  0  0  0  0  0
  185.6050  177.8420  140.2460 C   0  0  0  0  0  3  0  0  0  0  0  0
  185.8730  178.1820  142.6250 C   0  0  0  0  0  3  0  0  0  0  0  0
  184.4900  178.3950  142.7570 C   0  0  0  0  0  0  0  0  0  0  0  0
  183.9030  178.6500  143.9990 O   0  0  0  0  0  0  0  0  0  0  0  0
  184.6520  179.0780  145.1280 C   0  0  0  0  0  2  0  0  0  0  0  0
  185.1530  176.9450  146.3280 C   0  0  0  0  0  1  0  0  0  0  0  0
  184.3180  178.2120  146.3310 C   0  0  0  0  0  2  0  0  0  0  0  0
  1 19  1  6  0  0  0
  1  2  1  0  0  0  0
  2  3  1  0  0  0  0
  3  4  1  0  0  0  0
  4 10  1  0  0  0  0
  5  7  1  0  0  0  0
  6  9  1  0  0  0  0
  6 10  2  0  0  0  0
  8  7  2  0  0  0  0
  9  5  2  0  0  0  0
 10  8  1  0  0  0  0
 11 12  2  0  0  0  0
 12  9  1  0  0  0  0
 13 17  1  6  0  0  0
 13 14  1  0  0  0  0
 13 16  1  0  0  0  0
 14 16  1  1  0  0  0
 15 14  1  0  0  0  0
 15 12  1  0  0  0  0
 17 18  1  0  0  0  0
 18 15  1  0  0  0  0
 20 19  1  0  0  0  0
 22 20  1  0  0  0  0
 22 21  2  0  0  0  0
 23 24  1  6  0  0  0
 23 22  1  0  0  0  0
 25 23  1  0  0  0  0
 26 25  1  0  0  0  0
 27 36  1  6  0  0  0
 27 31  1  0  0  0  0
 28 38  1  1  0  0  0
 30 33  1  0  0  0  0
 30 27  1  0  0  0  0
 31 29  1  1  0  0  0
 31 34  1  0  0  0  0
 32 35  1  0  0  0  0
 33 26  1  1  0  0  0
 33 32  1  0  0  0  0
 34 28  1  0  0  0  0
 35 34  1  0  0  0  0
 35 28  1  0  0  0  0
 37 36  1  0  0  0  0
 38 39  1  0  0  0  0
 39 40  1  0  0  0  0
 40 41  1  0  0  0  0
 41 42  1  0  0  0  0
 42 44  1  0  0  0  0
 44 43  2  0  0  0  0
 44 45  1  0  0  0  0
 46 47  1  0  0  0  0
 46  1  1  0  0  0  0
 47 51  1  0  0  0  0
 48 52  1  0  0  0  0
 49 48  2  0  0  0  0
 50 49  1  0  0  0  0
 50 47  2  0  0  0  0
 51 52  2  0  0  0  0
 52 53  1  0  0  0  0
 53 54  1  0  0  0  0
 54 56  1  0  0  0  0
 55 56  1  0  0  0  0
M  END
>  <MODEL>
2

>  <REMARK>
 VINA RESULT:      -6.9      3.132      6.335
  Name = 
  25 active torsions:
  status: ('A' for Active; 'I' for Inactive)
    1  A    between atoms: C_1  and  O_5
    2  A    between atoms: C_3  and  C_30
    3  A    between atoms: C_6  and  C_28
    4  A    between atoms: C_6  and  C_45
    5  A    between atoms: O_8  and  C_18
    6  A    between atoms: O_8  and  C_51
    7  A    between atoms: C_9  and  O_22
    8  A    between atoms: C_11  and  C_30
    9  A    between atoms: C_11  and  N_43
   10  A    between atoms: C_13  and  O_33
   11  A    between atoms: C_13  and  C_45
   12  A    between atoms: C_15  and  C_25
   13  A    between atoms: O_16  and  C_28
   14  A    between atoms: O_16  and  C_47
   15  A    between atoms: C_18  and  C_49
   16  A    between atoms: C_21  and  O_27
   17  A    between atoms: C_21  and  C_55
   18  A    between atoms: O_22  and  C_45
   19  A    between atoms: C_25  and  C_29
   20  A    between atoms: N_26  and  C_44
   21  A    between atoms: O_27  and  C_37
   22  A    between atoms: C_29  and  N_43
   23  A    between atoms: O_33  and  C_55
   24  A    between atoms: C_37  and  C_41
   25  A    between atoms: C_40  and  C_44
                            x       y       z     vdW  Elec       q    Type
                         _______ _______ _______ _____ _____    ______ ____

>  <TORSDO>
F 25

$$$$
=
 OpenBabel11042417233D

 56 61  0  0  1  0  0  0  0  0999 V2000
  194.0680  174.3160  144.6020 C   0  0  2  0  0  3  0  0  0  0  0  0
  193.6120  175.6090  145.2490 C   0  0  0  0  0  2  0  0  0  0  0  0
  192.4200  176.1660  144.4910 C   0  0  0  0  0  2  0  0  0  0  0  0
  191.6120  176.9630  145.3470 O   0  0  0  0  0  0  0  0  0  0  0  0
  188.0780  175.6250  147.1760 C   0  0  0  0  0  3  0  0  0  0  0  0
  189.2800  177.2520  145.8550 C   0  0  0  0  0  3  0  0  0  0  0  0
  189.2420  174.8610  147.2950 C   0  0  0  0  0  3  0  0  0  0  0  0
  190.4260  175.2950  146.6940 C   0  0  0  0  0  3  0  0  0  0  0  0
  188.0830  176.8290  146.4480 C   0  0  0  0  0  0  0  0  0  0  0  0
  190.4490  176.4970  145.9680 C   0  0  0  0  0  0  0  0  0  0  0  0
  186.3660  178.2360  147.4480 C   0  0  0  0  0  2  0  0  0  0  0  0
  186.8580  177.6660  146.3470 C   0  0  0  0  0  0  0  0  0  0  0  0
  185.2930  179.0250  143.2200 N   0  0  2  0  0  0  0  0  0  0  0  0
  185.8840  179.2130  144.5610 C   0  0  2  0  0  3  0  0  0  0  0  0
  186.2050  177.8980  145.0800 N   0  0  0  0  0  0  0  0  0  0  0  0
  184.4430  179.3590  144.3770 C   0  0  0  0  0  2  0  0  0  0  0  0
  185.2050  177.5790  142.9980 C   0  0  0  0  0  2  0  0  0  0  0  0
  185.9520  176.8650  144.1030 C   0  0  0  0  0  2  0  0  0  0  0  0
  193.8840  173.1650  145.5730 C   0  0  0  0  0  2  0  0  0  0  0  0
  194.9150  172.2120  145.3590 O   0  0  0  0  0  0  0  0  0  0  0  0
  194.6480  170.1680  146.3580 O   0  0  0  0  0  0  0  0  0  0  0  0
  194.6450  170.8410  145.2960 C   0  0  0  0  0  0  0  0  0  0  0  0
  194.2480  170.1870  144.0060 C   0  0  2  0  0  3  0  0  0  0  0  0
  195.2790  170.5490  142.9400 C   0  0  0  0  0  1  0  0  0  0  0  0
  192.9670  170.6190  143.6320 O   0  0  0  0  0  0  0  0  0  0  0  0
  193.1020  171.2830  142.4050 C   0  0  0  0  0  2  0  0  0  0  0  0
  190.2240  172.8180  142.4830 C   0  0  1  0  0  3  0  0  0  0  0  0
  190.5990  173.3630  138.7310 C   0  0  2  0  0  3  0  0  0  0  0  0
  189.3030  174.8010  141.4750 O   0  0  0  0  0  1  0  0  0  0  0  0
  190.5520  171.3200  142.2820 C   0  0  0  0  0  2  0  0  0  0  0  0
  189.6870  173.4850  141.1990 C   0  0  1  0  0  3  0  0  0  0  0  0
  192.0510  171.5320  140.0950 C   0  0  0  0  0  2  0  0  0  0  0  0
  191.8790  171.0080  141.5430 C   0  0  1  0  0  3  0  0  0  0  0  0
  190.8260  173.4970  140.2150 C   0  0  1  0  0  3  0  0  0  0  0  0
  190.7430  172.1150  139.5950 C   0  0  1  0  0  3  0  0  0  0  0  0
  189.2860  172.9460  143.5100 O   0  0  0  0  0  0  0  0  0  0  0  0
  189.8780  172.3340  144.6150 C   0  0  0  0  0  1  0  0  0  0  0  0
  191.8850  173.7270  138.0030 C   0  0  0  0  0  2  0  0  0  0  0  0
  191.6060  174.5070  136.7330 C   0  0  0  0  0  2  0  0  0  0  0  0
  192.0660  173.7450  135.5850 N   0  0  0  0  0  2  0  0  0  0  0  0
  190.9680  172.8830  135.1820 C   0  0  0  0  0  2  0  0  0  0  0  0
  191.4780  171.4640  135.0260 C   0  0  0  0  0  2  0  0  0  0  0  0
  189.6650  170.5260  136.4610 O   0  0  0  0  0  0  0  0  0  0  0  0
  191.0190  170.6310  136.1720 C   0  0  0  0  0  0  0  0  0  0  0  0
  191.8610  170.0100  136.8710 O   0  0  0  0  0  1  0  0  0  0  0  0
  195.4380  174.4290  144.2180 O   0  0  0  0  0  0  0  0  0  0  0  0
  195.8440  174.8810  142.9580 C   0  0  0  0  0  0  0  0  0  0  0  0
  196.6960  175.7250  140.4270 C   0  0  0  0  0  3  0  0  0  0  0  0
  196.3210  176.6660  141.3870 C   0  0  0  0  0  3  0  0  0  0  0  0
  195.8980  176.2470  142.6490 C   0  0  0  0  0  3  0  0  0  0  0  0
  196.2130  173.9420  141.9900 C   0  0  0  0  0  3  0  0  0  0  0  0
  196.6440  174.3570  140.7190 C   0  0  0  0  0  0  0  0  0  0  0  0
  197.0440  173.4390  139.7440 O   0  0  0  0  0  0  0  0  0  0  0  0
  196.1730  172.4430  139.2260 C   0  0  0  0  0  2  0  0  0  0  0  0
  194.8670  171.7240  137.2210 C   0  0  0  0  0  1  0  0  0  0  0  0
  195.8490  172.7420  137.7720 C   0  0  0  0  0  2  0  0  0  0  0  0
  1  2  1  1  0  0  0
  1 19  1  0  0  0  0
  3  2  1  0  0  0  0
  3  4  1  0  0  0  0
  4 10  1  0  0  0  0
  5  7  1  0  0  0  0
  6 10  2  0  0  0  0
  6  9  1  0  0  0  0
  8  7  2  0  0  0  0
  9  5  2  0  0  0  0
 10  8  1  0  0  0  0
 12  9  1  0  0  0  0
 12 11  2  0  0  0  0
 13 17  1  1  0  0  0
 13 16  1  0  0  0  0
 13 14  1  0  0  0  0
 14 16  1  1  0  0  0
 14 15  1  0  0  0  0
 15 12  1  0  0  0  0
 17 18  1  0  0  0  0
 18 15  1  0  0  0  0
 20 19  1  0  0  0  0
 22 20  1  0  0  0  0
 22 21  2  0  0  0  0
 23 24  1  6  0  0  0
 23 22  1  0  0  0  0
 25 23  1  0  0  0  0
 26 25  1  0  0  0  0
 27 36  1  1  0  0  0
 28 38  1  6  0  0  0
 28 35  1  0  0  0  0
 28 34  1  0  0  0  0
 30 27  1  0  0  0  0
 31 29  1  1  0  0  0
 31 27  1  0  0  0  0
 32 33  1  0  0  0  0
 33 30  1  0  0  0  0
 33 26  1  1  0  0  0
 34 31  1  0  0  0  0
 35 32  1  0  0  0  0
 35 34  1  0  0  0  0
 36 37  1  0  0  0  0
 39 38  1  0  0  0  0
 40 39  1  0  0  0  0
 41 40  1  0  0  0  0
 42 41  1  0  0  0  0
 42 44  1  0  0  0  0
 44 43  2  0  0  0  0
 44 45  1  0  0  0  0
 46  1  1  0  0  0  0
 47 46  1  0  0  0  0
 48 52  2  0  0  0  0
 48 49  1  0  0  0  0
 49 50  2  0  0  0  0
 50 47  1  0  0  0  0
 51 47  2  0  0  0  0
 52 51  1  0  0  0  0
 53 52  1  0  0  0  0
 54 53  1  0  0  0  0
 55 56  1  0  0  0  0
 56 54  1  0  0  0  0
M  END
>  <MODEL>
3

>  <REMARK>
 VINA RESULT:      -6.3      4.378     10.539
  Name = 
  25 active torsions:
  status: ('A' for Active; 'I' for Inactive)
    1  A    between atoms: C_1  and  O_5
    2  A    between atoms: C_3  and  C_30
    3  A    between atoms: C_6  and  C_28
    4  A    between atoms: C_6  and  C_45
    5  A    between atoms: O_8  and  C_18
    6  A    between atoms: O_8  and  C_51
    7  A    between atoms: C_9  and  O_22
    8  A    between atoms: C_11  and  C_30
    9  A    between atoms: C_11  and  N_43
   10  A    between atoms: C_13  and  O_33
   11  A    between atoms: C_13  and  C_45
   12  A    between atoms: C_15  and  C_25
   13  A    between atoms: O_16  and  C_28
   14  A    between atoms: O_16  and  C_47
   15  A    between atoms: C_18  and  C_49
   16  A    between atoms: C_21  and  O_27
   17  A    between atoms: C_21  and  C_55
   18  A    between atoms: O_22  and  C_45
   19  A    between atoms: C_25  and  C_29
   20  A    between atoms: N_26  and  C_44
   21  A    between atoms: O_27  and  C_37
   22  A    between atoms: C_29  and  N_43
   23  A    between atoms: O_33  and  C_55
   24  A    between atoms: C_37  and  C_41
   25  A    between atoms: C_40  and  C_44
                            x       y       z     vdW  Elec       q    Type
                         _______ _______ _______ _____ _____    ______ ____

>  <TORSDO>
F 25

$$$$
=
 OpenBabel11042417233D

 56 61  0  0  1  0  0  0  0  0999 V2000
  188.9170  176.4550  142.4430 C   0  0  2  0  0  3  0  0  0  0  0  0
  189.7940  177.6920  142.4540 C   0  0  0  0  0  2  0  0  0  0  0  0
  190.2650  177.9700  143.8700 C   0  0  0  0  0  2  0  0  0  0  0  0
  191.6730  177.7990  143.9710 O   0  0  0  0  0  0  0  0  0  0  0  0
  193.5680  175.0630  146.5290 C   0  0  0  0  0  3  0  0  0  0  0  0
  193.5260  176.3600  144.4910 C   0  0  0  0  0  3  0  0  0  0  0  0
  192.3220  175.5860  146.8870 C   0  0  0  0  0  3  0  0  0  0  0  0
  191.6790  176.4950  146.0440 C   0  0  0  0  0  3  0  0  0  0  0  0
  194.1880  175.4490  145.3260 C   0  0  0  0  0  0  0  0  0  0  0  0
  192.2810  176.8880  144.8380 C   0  0  0  0  0  0  0  0  0  0  0  0
  196.2620  174.2830  145.8410 C   0  0  0  0  0  2  0  0  0  0  0  0
  195.4960  174.8710  144.9200 C   0  0  0  0  0  0  0  0  0  0  0  0
  197.1480  175.5210  141.6150 N   0  0  2  0  0  0  0  0  0  0  0  0
  196.9070  175.8600  143.0330 C   0  0  2  0  0  3  0  0  0  0  0  0
  195.9440  174.9070  143.5480 N   0  0  0  0  0  0  0  0  0  0  0  0
  196.3130  176.6790  141.9800 C   0  0  0  0  0  2  0  0  0  0  0  0
  196.2550  174.4040  141.2920 C   0  0  0  0  0  2  0  0  0  0  0  0
  195.6210  173.8950  142.5690 C   0  0  0  0  0  2  0  0  0  0  0  0
  189.7850  175.2140  142.3440 C   0  0  0  0  0  2  0  0  0  0  0  0
  189.0300  174.1690  141.7490 O   0  0  0  0  0  0  0  0  0  0  0  0
  189.9990  172.1550  141.2500 O   0  0  0  0  0  0  0  0  0  0  0  0
  189.6030  173.2750  140.8380 C   0  0  0  0  0  0  0  0  0  0  0  0
  189.6530  173.5870  139.3720 C   0  0  2  0  0  3  0  0  0  0  0  0
  188.2960  174.1430  138.9480 C   0  0  0  0  0  1  0  0  0  0  0  0
  189.9660  172.4240  138.6530 O   0  0  0  0  0  0  0  0  0  0  0  0
  191.0370  172.7440  137.8070 C   0  0  0  0  0  2  0  0  0  0  0  0
  194.2320  172.1290  138.0550 C   0  0  1  0  0  3  0  0  0  0  0  0
  193.3070  168.9570  139.9520 C   0  0  2  0  0  3  0  0  0  0  0  0
  195.6990  171.3090  139.7790 O   0  0  0  0  0  1  0  0  0  0  0  0
  193.2240  171.7420  136.9480 C   0  0  0  0  0  2  0  0  0  0  0  0
  194.7070  170.9120  138.8760 C   0  0  1  0  0  3  0  0  0  0  0  0
  191.5340  170.3210  138.4320 C   0  0  0  0  0  2  0  0  0  0  0  0
  191.7720  171.4690  137.4180 C   0  0  1  0  0  3  0  0  0  0  0  0
  193.5090  170.4190  139.6410 C   0  0  1  0  0  3  0  0  0  0  0  0
  192.8120  169.5300  138.6290 C   0  0  1  0  0  3  0  0  0  0  0  0
  195.3320  172.7630  137.4690 O   0  0  0  0  0  0  0  0  0  0  0  0
  195.5240  172.1000  136.2560 C   0  0  0  0  0  1  0  0  0  0  0  0
  192.2000  168.8240  140.9880 C   0  0  0  0  0  2  0  0  0  0  0  0
  192.7600  168.5880  142.3770 C   0  0  0  0  0  2  0  0  0  0  0  0
  194.1510  169.0020  142.4160 N   0  0  0  0  0  2  0  0  0  0  0  0
  194.2590  170.0320  143.4350 C   0  0  0  0  0  2  0  0  0  0  0  0
  193.0830  170.9810  143.3130 C   0  0  0  0  0  2  0  0  0  0  0  0
  193.9200  171.6950  145.5520 O   0  0  0  0  0  1  0  0  0  0  0  0
  192.9970  171.8410  144.5250 C   0  0  0  0  0  0  0  0  0  0  0  0
  192.0930  172.7120  144.6120 O   0  0  0  0  0  0  0  0  0  0  0  0
  188.0130  176.5180  141.3400 O   0  0  0  0  0  0  0  0  0  0  0  0
  186.7580  177.1300  141.4160 C   0  0  0  0  0  0  0  0  0  0  0  0
  184.2300  178.3190  141.6300 C   0  0  0  0  0  3  0  0  0  0  0  0
  184.8290  178.1720  140.3770 C   0  0  0  0  0  3  0  0  0  0  0  0
  186.0870  177.5780  140.2690 C   0  0  0  0  0  3  0  0  0  0  0  0
  186.1570  177.2870  142.6680 C   0  0  0  0  0  3  0  0  0  0  0  0
  184.8890  177.8800  142.7840 C   0  0  0  0  0  0  0  0  0  0  0  0
  184.2560  178.0240  144.0220 O   0  0  0  0  0  0  0  0  0  0  0  0
  184.5860  179.0600  144.9360 C   0  0  0  0  0  2  0  0  0  0  0  0
  184.9760  177.0620  146.3840 C   0  0  0  0  0  1  0  0  0  0  0  0
  184.5690  178.5240  146.3580 C   0  0  0  0  0  2  0  0  0  0  0  0
  1 19  1  6  0  0  0
  1  2  1  0  0  0  0
  2  3  1  0  0  0  0
  3  4  1  0  0  0  0
  4 10  1  0  0  0  0
  5  7  1  0  0  0  0
  6 10  2  0  0  0  0
  6  9  1  0  0  0  0
  8  7  2  0  0  0  0
  9  5  2  0  0  0  0
 10  8  1  0  0  0  0
 12  9  1  0  0  0  0
 12 11  2  0  0  0  0
 13 17  1  1  0  0  0
 13 16  1  0  0  0  0
 13 14  1  0  0  0  0
 14 16  1  6  0  0  0
 14 15  1  0  0  0  0
 15 12  1  0  0  0  0
 17 18  1  0  0  0  0
 18 15  1  0  0  0  0
 20 19  1  0  0  0  0
 22 21  2  0  0  0  0
 22 20  1  0  0  0  0
 23 24  1  6  0  0  0
 23 22  1  0  0  0  0
 25 23  1  0  0  0  0
 26 25  1  0  0  0  0
 27 36  1  6  0  0  0
 27 31  1  0  0  0  0
 28 38  1  1  0  0  0
 30 33  1  0  0  0  0
 30 27  1  0  0  0  0
 31 34  1  0  0  0  0
 31 29  1  1  0  0  0
 32 35  1  0  0  0  0
 33 26  1  1  0  0  0
 33 32  1  0  0  0  0
 34 28  1  0  0  0  0
 35 34  1  0  0  0  0
 35 28  1  0  0  0  0
 37 36  1  0  0  0  0
 38 39  1  0  0  0  0
 39 40  1  0  0  0  0
 40 41  1  0  0  0  0
 42 41  1  0  0  0  0
 42 44  1  0  0  0  0
 44 45  2  0  0  0  0
 44 43  1  0  0  0  0
 46 47  1  0  0  0  0
 46  1  1  0  0  0  0
 47 51  1  0  0  0  0
 48 52  1  0  0  0  0
 49 48  2  0  0  0  0
 50 49  1  0  0  0  0
 50 47  2  0  0  0  0
 51 52  2  0  0  0  0
 52 53  1  0  0  0  0
 53 54  1  0  0  0  0
 54 56  1  0  0  0  0
 56 55  1  0  0  0  0
M  END
>  <MODEL>
4

>  <REMARK>
 VINA RESULT:      -6.3      3.336      6.275
  Name = 
  25 active torsions:
  status: ('A' for Active; 'I' for Inactive)
    1  A    between atoms: C_1  and  O_5
    2  A    between atoms: C_3  and  C_30
    3  A    between atoms: C_6  and  C_28
    4  A    between atoms: C_6  and  C_45
    5  A    between atoms: O_8  and  C_18
    6  A    between atoms: O_8  and  C_51
    7  A    between atoms: C_9  and  O_22
    8  A    between atoms: C_11  and  C_30
    9  A    between atoms: C_11  and  N_43
   10  A    between atoms: C_13  and  O_33
   11  A    between atoms: C_13  and  C_45
   12  A    between atoms: C_15  and  C_25
   13  A    between atoms: O_16  and  C_28
   14  A    between atoms: O_16  and  C_47
   15  A    between atoms: C_18  and  C_49
   16  A    between atoms: C_21  and  O_27
   17  A    between atoms: C_21  and  C_55
   18  A    between atoms: O_22  and  C_45
   19  A    between atoms: C_25  and  C_29
   20  A    between atoms: N_26  and  C_44
   21  A    between atoms: O_27  and  C_37
   22  A    between atoms: C_29  and  N_43
   23  A    between atoms: O_33  and  C_55
   24  A    between atoms: C_37  and  C_41
   25  A    between atoms: C_40  and  C_44
                            x       y       z     vdW  Elec       q    Type
                         _______ _______ _______ _____ _____    ______ ____

>  <TORSDO>
F 25

$$$$
=
 OpenBabel11042417233D

 56 61  0  0  1  0  0  0  0  0999 V2000
  188.0090  174.9130  141.7400 C   0  0  2  0  0  3  0  0  0  0  0  0
  188.8410  176.0450  142.3080 C   0  0  0  0  0  2  0  0  0  0  0  0
  187.9380  177.2100  142.6710 C   0  0  0  0  0  2  0  0  0  0  0  0
  186.7250  176.7410  143.2470 O   0  0  0  0  0  0  0  0  0  0  0  0
  183.2010  179.0160  143.4260 C   0  0  0  0  0  3  0  0  0  0  0  0
  184.6620  177.4840  142.2620 C   0  0  0  0  0  3  0  0  0  0  0  0
  184.0930  179.0490  144.5020 C   0  0  0  0  0  3  0  0  0  0  0  0
  185.2710  178.2990  144.4550 C   0  0  0  0  0  3  0  0  0  0  0  0
  183.4740  178.2270  142.2940 C   0  0  0  0  0  0  0  0  0  0  0  0
  185.5610  177.5100  143.3300 C   0  0  0  0  0  0  0  0  0  0  0  0
  182.9740  177.7200  139.9660 C   0  0  0  0  0  2  0  0  0  0  0  0
  182.5480  178.2140  141.1300 C   0  0  0  0  0  0  0  0  0  0  0  0
  178.9570  178.9130  141.9580 N   0  0  2  0  0  0  0  0  0  0  0  0
  180.1760  178.0840  142.0700 C   0  0  2  0  0  3  0  0  0  0  0  0
  181.1920  178.6970  141.2380 N   0  0  0  0  0  0  0  0  0  0  0  0
  179.0540  177.6200  141.2580 C   0  0  0  0  0  2  0  0  0  0  0  0
  179.2560  179.9730  140.9920 C   0  0  0  0  0  2  0  0  0  0  0  0
  180.7350  179.9440  140.6710 C   0  0  0  0  0  2  0  0  0  0  0  0
  188.3350  173.6230  142.4700 C   0  0  0  0  0  2  0  0  0  0  0  0
  189.4370  173.8490  143.3360 O   0  0  0  0  0  0  0  0  0  0  0  0
  189.5990  172.1620  144.8780 O   0  0  0  0  0  0  0  0  0  0  0  0
  190.1340  172.7910  143.9290 C   0  0  0  0  0  0  0  0  0  0  0  0
  191.4520  172.3280  143.3840 C   0  0  2  0  0  3  0  0  0  0  0  0
  191.2190  171.0620  142.5630 C   0  0  0  0  0  1  0  0  0  0  0  0
  192.3410  172.0840  144.4400 O   0  0  0  0  0  0  0  0  0  0  0  0
  193.6130  171.9230  143.8740 C   0  0  0  0  0  2  0  0  0  0  0  0
  195.9300  174.0810  143.0860 C   0  0  1  0  0  3  0  0  0  0  0  0
  194.6470  176.2530  145.9410 C   0  0  2  0  0  3  0  0  0  0  0  0
  196.0590  176.4780  142.9020 O   0  0  0  0  0  1  0  0  0  0  0  0
  195.9780  172.8720  144.0480 C   0  0  0  0  0  2  0  0  0  0  0  0
  195.9900  175.4320  143.8280 C   0  0  1  0  0  3  0  0  0  0  0  0
  194.0530  173.6220  145.7240 C   0  0  0  0  0  2  0  0  0  0  0  0
  194.6570  172.5420  144.7910 C   0  0  1  0  0  3  0  0  0  0  0  0
  194.7090  175.5470  144.6100 C   0  0  1  0  0  3  0  0  0  0  0  0
  195.0240  174.7770  145.8780 C   0  0  1  0  0  3  0  0  0  0  0  0
  196.9940  173.9890  142.1840 O   0  0  0  0  0  0  0  0  0  0  0  0
  196.8160  172.7640  141.5420 C   0  0  0  0  0  1  0  0  0  0  0  0
  193.1880  176.4720  146.3130 C   0  0  0  0  0  2  0  0  0  0  0  0
  192.3490  176.8210  145.0990 C   0  0  0  0  0  2  0  0  0  0  0  0
  191.0570  176.1660  145.1990 N   0  0  0  0  0  2  0  0  0  0  0  0
  190.9920  175.5540  146.5150 C   0  0  0  0  0  2  0  0  0  0  0  0
  189.5620  175.1420  146.8050 C   0  0  0  0  0  2  0  0  0  0  0  0
  189.1480  177.5610  147.2520 O   0  0  0  0  0  1  0  0  0  0  0  0
  188.6770  176.3390  146.7920 C   0  0  0  0  0  0  0  0  0  0  0  0
  187.5030  176.2440  146.3470 O   0  0  0  0  0  0  0  0  0  0  0  0
  188.2740  174.7750  140.3450 O   0  0  0  0  0  0  0  0  0  0  0  0
  189.0680  173.7530  139.8160 C   0  0  0  0  0  0  0  0  0  0  0  0
  190.7150  171.7540  138.7470 C   0  0  0  0  0  3  0  0  0  0  0  0
  189.3270  171.6460  138.6410 C   0  0  0  0  0  3  0  0  0  0  0  0
  188.5060  172.6420  139.1710 C   0  0  0  0  0  3  0  0  0  0  0  0
  190.4590  173.8520  139.9260 C   0  0  0  0  0  3  0  0  0  0  0  0
  191.2920  172.8560  139.3910 C   0  0  0  0  0  0  0  0  0  0  0  0
  192.6840  172.9460  139.4640 O   0  0  0  0  0  0  0  0  0  0  0  0
  193.4120  174.0330  138.9090 C   0  0  0  0  0  2  0  0  0  0  0  0
  193.5780  175.5900  136.9620 C   0  0  0  0  0  1  0  0  0  0  0  0
  192.8270  174.4140  137.5590 C   0  0  0  0  0  2  0  0  0  0  0  0
  1  2  1  1  0  0  0
  1 19  1  0  0  0  0
  2  3  1  0  0  0  0
  3  4  1  0  0  0  0
  4 10  1  0  0  0  0
  5  7  1  0  0  0  0
  6  9  1  0  0  0  0
  6 10  2  0  0  0  0
  8  7  2  0  0  0  0
  9  5  2  0  0  0  0
 10  8  1  0  0  0  0
 11 12  2  0  0  0  0
 12 15  1  0  0  0  0
 12  9  1  0  0  0  0
 13 17  1  6  0  0  0
 13 14  1  0  0  0  0
 14 16  1  6  0  0  0
 15 14  1  0  0  0  0
 16 13  1  0  0  0  0
 18 17  1  0  0  0  0
 18 15  1  0  0  0  0
 19 20  1  0  0  0  0
 20 22  1  0  0  0  0
 22 21  2  0  0  0  0
 23 24  1  1  0  0  0
 23 22  1  0  0  0  0
 23 25  1  0  0  0  0
 26 25  1  0  0  0  0
 27 36  1  6  0  0  0
 27 31  1  0  0  0  0
 27 30  1  0  0  0  0
 28 38  1  1  0  0  0
 30 33  1  0  0  0  0
 31 29  1  6  0  0  0
 31 34  1  0  0  0  0
 32 35  1  0  0  0  0
 33 26  1  6  0  0  0
 33 32  1  0  0  0  0
 34 35  1  0  0  0  0
 34 28  1  0  0  0  0
 35 28  1  0  0  0  0
 37 36  1  0  0  0  0
 39 40  1  0  0  0  0
 39 38  1  0  0  0  0
 40 41  1  0  0  0  0
 41 42  1  0  0  0  0
 44 42  1  0  0  0  0
 44 43  1  0  0  0  0
 45 44  2  0  0  0  0
 46  1  1  0  0  0  0
 47 51  1  0  0  0  0
 47 46  1  0  0  0  0
 48 52  1  0  0  0  0
 49 48  2  0  0  0  0
 49 50  1  0  0  0  0
 50 47  2  0  0  0  0
 52 53  1  0  0  0  0
 52 51  2  0  0  0  0
 54 53  1  0  0  0  0
 55 56  1  0  0  0  0
 56 54  1  0  0  0  0
M  END
>  <MODEL>
5

>  <REMARK>
 VINA RESULT:      -6.3      3.116      9.067
  Name = 
  25 active torsions:
  status: ('A' for Active; 'I' for Inactive)
    1  A    between atoms: C_1  and  O_5
    2  A    between atoms: C_3  and  C_30
    3  A    between atoms: C_6  and  C_28
    4  A    between atoms: C_6  and  C_45
    5  A    between atoms: O_8  and  C_18
    6  A    between atoms: O_8  and  C_51
    7  A    between atoms: C_9  and  O_22
    8  A    between atoms: C_11  and  C_30
    9  A    between atoms: C_11  and  N_43
   10  A    between atoms: C_13  and  O_33
   11  A    between atoms: C_13  and  C_45
   12  A    between atoms: C_15  and  C_25
   13  A    between atoms: O_16  and  C_28
   14  A    between atoms: O_16  and  C_47
   15  A    between atoms: C_18  and  C_49
   16  A    between atoms: C_21  and  O_27
   17  A    between atoms: C_21  and  C_55
   18  A    between atoms: O_22  and  C_45
   19  A    between atoms: C_25  and  C_29
   20  A    between atoms: N_26  and  C_44
   21  A    between atoms: O_27  and  C_37
   22  A    between atoms: C_29  and  N_43
   23  A    between atoms: O_33  and  C_55
   24  A    between atoms: C_37  and  C_41
   25  A    between atoms: C_40  and  C_44
                            x       y       z     vdW  Elec       q    Type
                         _______ _______ _______ _____ _____    ______ ____

>  <TORSDO>
F 25

$$$$
=
 OpenBabel11042417233D

 56 61  0  0  1  0  0  0  0  0999 V2000
  189.0170  173.3340  141.0640 C   0  0  2  0  0  3  0  0  0  0  0  0
  188.1870  172.7490  139.9380 C   0  0  0  0  0  2  0  0  0  0  0  0
  189.0580  172.5600  138.7080 C   0  0  0  0  0  2  0  0  0  0  0  0
  189.8420  173.7210  138.4690 O   0  0  0  0  0  0  0  0  0  0  0  0
  192.5040  174.0930  135.2430 C   0  0  0  0  0  3  0  0  0  0  0  0
  192.0420  173.4750  137.5330 C   0  0  0  0  0  3  0  0  0  0  0  0
  191.1700  174.4780  135.0790 C   0  0  0  0  0  3  0  0  0  0  0  0
  190.2740  174.3620  136.1440 C   0  0  0  0  0  3  0  0  0  0  0  0
  192.9550  173.5810  136.4740 C   0  0  0  0  0  0  0  0  0  0  0  0
  190.7090  173.8580  137.3800 C   0  0  0  0  0  0  0  0  0  0  0  0
  194.9690  172.4050  135.7760 C   0  0  0  0  0  2  0  0  0  0  0  0
  194.3790  173.2030  136.6690 C   0  0  0  0  0  0  0  0  0  0  0  0
  196.4170  173.7370  139.7730 N   0  0  2  0  0  0  0  0  0  0  0  0
  195.6200  172.8720  138.8780 C   0  0  2  0  0  3  0  0  0  0  0  0
  195.1460  173.7000  137.7860 N   0  0  0  0  0  0  0  0  0  0  0  0
  195.0540  173.3190  140.1480 C   0  0  0  0  0  2  0  0  0  0  0  0
  196.3380  175.0940  139.2260 C   0  0  0  0  0  2  0  0  0  0  0  0
  195.6810  175.0390  137.8640 C   0  0  0  0  0  2  0  0  0  0  0  0
  189.6920  172.2150  141.8360 C   0  0  0  0  0  2  0  0  0  0  0  0
  190.9740  172.6540  142.2580 O   0  0  0  0  0  0  0  0  0  0  0  0
  190.9940  171.9660  144.4430 O   0  0  0  0  0  0  0  0  0  0  0  0
  191.6200  172.0820  143.3590 C   0  0  0  0  0  0  0  0  0  0  0  0
  193.0010  171.5090  143.2360 C   0  0  2  0  0  3  0  0  0  0  0  0
  193.1660  170.4120  144.2840 C   0  0  0  0  0  1  0  0  0  0  0  0
  193.9510  172.5240  143.4180 O   0  0  0  0  0  0  0  0  0  0  0  0
  194.5500  172.3030  144.6660 C   0  0  0  0  0  2  0  0  0  0  0  0
  194.4700  175.3200  143.4270 C   0  0  1  0  0  3  0  0  0  0  0  0
  191.6940  176.0920  145.9190 C   0  0  2  0  0  3  0  0  0  0  0  0
  192.7450  176.8910  142.8320 O   0  0  0  0  0  1  0  0  0  0  0  0
  195.3200  174.7360  144.5780 C   0  0  0  0  0  2  0  0  0  0  0  0
  193.4000  176.3140  143.9240 C   0  0  1  0  0  3  0  0  0  0  0  0
  193.3410  173.9620  146.1790 C   0  0  0  0  0  2  0  0  0  0  0  0
  194.6490  173.6200  145.4210 C   0  0  1  0  0  3  0  0  0  0  0  0
  192.4110  175.5120  144.7270 C   0  0  1  0  0  3  0  0  0  0  0  0
  193.0660  175.4510  146.0940 C   0  0  1  0  0  3  0  0  0  0  0  0
  195.3140  175.9530  142.5110 O   0  0  0  0  0  0  0  0  0  0  0  0
  196.2660  176.6080  143.2940 C   0  0  0  0  0  1  0  0  0  0  0  0
  190.5540  175.1610  146.3080 C   0  0  0  0  0  2  0  0  0  0  0  0
  189.2840  175.4850  145.5460 C   0  0  0  0  0  2  0  0  0  0  0  0
  188.8190  176.8090  145.9200 N   0  0  0  0  0  2  0  0  0  0  0  0
  187.4750  176.6520  146.4500 C   0  0  0  0  0  2  0  0  0  0  0  0
  186.4800  176.6780  145.3060 C   0  0  0  0  0  2  0  0  0  0  0  0
  186.2070  179.0920  144.7370 O   0  0  0  0  0  0  0  0  0  0  0  0
  185.7020  177.9470  145.3400 C   0  0  0  0  0  0  0  0  0  0  0  0
  184.5770  177.9770  145.9040 O   0  0  0  0  0  1  0  0  0  0  0  0
  188.1790  174.0990  141.9290 O   0  0  0  0  0  0  0  0  0  0  0  0
  188.2120  175.4960  141.9850 C   0  0  0  0  0  0  0  0  0  0  0  0
  188.2250  178.2970  142.0450 C   0  0  0  0  0  3  0  0  0  0  0  0
  189.3680  177.5850  142.4150 C   0  0  0  0  0  3  0  0  0  0  0  0
  189.3630  176.1910  142.3840 C   0  0  0  0  0  3  0  0  0  0  0  0
  187.0680  176.2140  141.6230 C   0  0  0  0  0  3  0  0  0  0  0  0
  187.0670  177.6190  141.6480 C   0  0  0  0  0  0  0  0  0  0  0  0
  185.9450  178.3580  141.2640 O   0  0  0  0  0  0  0  0  0  0  0  0
  184.6220  177.9850  141.6230 C   0  0  0  0  0  2  0  0  0  0  0  0
  182.3060  177.9460  140.6850 C   0  0  0  0  0  1  0  0  0  0  0  0
  183.6200  178.7040  140.7350 C   0  0  0  0  0  2  0  0  0  0  0  0
  1  2  1  6  0  0  0
  1 19  1  0  0  0  0
  1 46  1  0  0  0  0
  3  2  1  0  0  0  0
  4  3  1  0  0  0  0
  5  9  1  0  0  0  0
  7  5  2  0  0  0  0
  7  8  1  0  0  0  0
  8 10  2  0  0  0  0
  9 12  1  0  0  0  0
  9  6  2  0  0  0  0
 10  6  1  0  0  0  0
 10  4  1  0  0  0  0
 11 12  2  0  0  0  0
 12 15  1  0  0  0  0
 13 17  1  6  0  0  0
 13 16  1  0  0  0  0
 14 13  1  0  0  0  0
 14 16  1  1  0  0  0
 15 18  1  0  0  0  0
 15 14  1  0  0  0  0
 18 17  1  0  0  0  0
 19 20  1  0  0  0  0
 20 22  1  0  0  0  0
 22 21  2  0  0  0  0
 23 22  1  0  0  0  0
 23 25  1  0  0  0  0
 23 24  1  1  0  0  0
 25 26  1  0  0  0  0
 27 36  1  6  0  0  0
 27 31  1  0  0  0  0
 27 30  1  0  0  0  0
 28 35  1  0  0  0  0
 28 38  1  1  0  0  0
 30 33  1  0  0  0  0
 31 29  1  6  0  0  0
 31 34  1  0  0  0  0
 33 26  1  6  0  0  0
 33 32  1  0  0  0  0
 34 28  1  0  0  0  0
 34 35  1  0  0  0  0
 35 32  1  0  0  0  0
 36 37  1  0  0  0  0
 39 40  1  0  0  0  0
 39 38  1  0  0  0  0
 40 41  1  0  0  0  0
 42 44  1  0  0  0  0
 42 41  1  0  0  0  0
 43 44  2  0  0  0  0
 44 45  1  0  0  0  0
 46 47  1  0  0  0  0
 47 50  1  0  0  0  0
 48 49  1  0  0  0  0
 50 49  2  0  0  0  0
 51 52  1  0  0  0  0
 51 47  2  0  0  0  0
 52 48  2  0  0  0  0
 53 54  1  0  0  0  0
 53 52  1  0  0  0  0
 55 56  1  0  0  0  0
 56 54  1  0  0  0  0
M  END
>  <MODEL>
6

>  <REMARK>
 VINA RESULT:      -6.3      3.247      8.870
  Name = 
  25 active torsions:
  status: ('A' for Active; 'I' for Inactive)
    1  A    between atoms: C_1  and  O_5
    2  A    between atoms: C_3  and  C_30
    3  A    between atoms: C_6  and  C_28
    4  A    between atoms: C_6  and  C_45
    5  A    between atoms: O_8  and  C_18
    6  A    between atoms: O_8  and  C_51
    7  A    between atoms: C_9  and  O_22
    8  A    between atoms: C_11  and  C_30
    9  A    between atoms: C_11  and  N_43
   10  A    between atoms: C_13  and  O_33
   11  A    between atoms: C_13  and  C_45
   12  A    between atoms: C_15  and  C_25
   13  A    between atoms: O_16  and  C_28
   14  A    between atoms: O_16  and  C_47
   15  A    between atoms: C_18  and  C_49
   16  A    between atoms: C_21  and  O_27
   17  A    between atoms: C_21  and  C_55
   18  A    between atoms: O_22  and  C_45
   19  A    between atoms: C_25  and  C_29
   20  A    between atoms: N_26  and  C_44
   21  A    between atoms: O_27  and  C_37
   22  A    between atoms: C_29  and  N_43
   23  A    between atoms: O_33  and  C_55
   24  A    between atoms: C_37  and  C_41
   25  A    between atoms: C_40  and  C_44
                            x       y       z     vdW  Elec       q    Type
                         _______ _______ _______ _____ _____    ______ ____

>  <TORSDO>
F 25

$$$$
=
 OpenBabel11042417233D

 56 61  0  0  1  0  0  0  0  0999 V2000
  183.2490  178.1900  141.4220 C   0  0  2  0  0  3  0  0  0  0  0  0
  183.8560  177.9160  142.7840 C   0  0  0  0  0  2  0  0  0  0  0  0
  183.7530  179.1600  143.6470 C   0  0  0  0  0  2  0  0  0  0  0  0
  185.0030  179.4460  144.2620 O   0  0  0  0  0  0  0  0  0  0  0  0
  187.1440  176.7390  146.6530 C   0  0  0  0  0  3  0  0  0  0  0  0
  187.0330  178.2700  144.7870 C   0  0  0  0  0  3  0  0  0  0  0  0
  185.8030  177.0010  146.9470 C   0  0  0  0  0  3  0  0  0  0  0  0
  185.0770  177.8970  146.1590 C   0  0  0  0  0  3  0  0  0  0  0  0
  187.7770  177.3770  145.5700 C   0  0  0  0  0  0  0  0  0  0  0  0
  185.6930  178.5390  145.0710 C   0  0  0  0  0  0  0  0  0  0  0  0
  190.0290  178.0860  144.9770 C   0  0  0  0  0  2  0  0  0  0  0  0
  189.1920  177.0770  145.2280 C   0  0  0  0  0  0  0  0  0  0  0  0
  190.8600  173.7630  145.7810 N   0  0  2  0  0  0  0  0  0  0  0  0
  190.6760  175.1920  146.1080 C   0  0  2  0  0  3  0  0  0  0  0  0
  189.6890  175.7220  145.1880 N   0  0  0  0  0  0  0  0  0  0  0  0
  191.8720  174.7600  145.3910 C   0  0  0  0  0  2  0  0  0  0  0  0
  190.0230  173.4880  144.6090 C   0  0  0  0  0  2  0  0  0  0  0  0
  189.1390  174.6880  144.3430 C   0  0  0  0  0  2  0  0  0  0  0  0
  184.3450  178.5570  140.4390 C   0  0  0  0  0  2  0  0  0  0  0  0
  185.6040  178.2340  141.0100 O   0  0  0  0  0  0  0  0  0  0  0  0
  186.6580  177.5490  139.0960 O   0  0  0  0  0  0  0  0  0  0  0  0
  186.5280  177.4250  140.3400 C   0  0  0  0  0  0  0  0  0  0  0  0
  187.4360  176.4990  141.0920 C   0  0  2  0  0  3  0  0  0  0  0  0
  188.6070  177.3080  141.6430 C   0  0  0  0  0  1  0  0  0  0  0  0
  187.8880  175.4830  140.2370 O   0  0  0  0  0  0  0  0  0  0  0  0
  188.7310  174.6570  140.9930 C   0  0  0  0  0  2  0  0  0  0  0  0
  190.3440  173.6470  138.3420 C   0  0  1  0  0  3  0  0  0  0  0  0
  191.7950  170.8560  140.4910 C   0  0  2  0  0  3  0  0  0  0  0  0
  192.5620  172.8290  137.8840 O   0  0  0  0  0  1  0  0  0  0  0  0
  188.9300  173.2820  138.8500 C   0  0  0  0  0  2  0  0  0  0  0  0
  191.3390  172.4750  138.4630 C   0  0  1  0  0  3  0  0  0  0  0  0
  189.6080  172.2730  141.2160 C   0  0  0  0  0  2  0  0  0  0  0  0
  188.7460  173.2610  140.3900 C   0  0  1  0  0  3  0  0  0  0  0  0
  191.5400  172.2340  139.9360 C   0  0  1  0  0  3  0  0  0  0  0  0
  190.3650  171.3420  140.2890 C   0  0  1  0  0  3  0  0  0  0  0  0
  190.2580  174.0590  137.0100 O   0  0  0  0  0  0  0  0  0  0  0  0
  189.4370  173.1140  136.3940 C   0  0  0  0  0  1  0  0  0  0  0  0
  192.2640  170.9870  141.9330 C   0  0  0  0  0  2  0  0  0  0  0  0
  193.7050  171.4500  142.0120 C   0  0  0  0  0  2  0  0  0  0  0  0
  194.5040  170.4380  142.6800 N   0  0  0  0  0  2  0  0  0  0  0  0
  194.4290  170.7120  144.1050 C   0  0  0  0  0  2  0  0  0  0  0  0
  195.1330  169.6050  144.8650 C   0  0  0  0  0  2  0  0  0  0  0  0
  194.4010  168.3460  146.8910 O   0  0  0  0  0  1  0  0  0  0  0  0
  194.1350  168.7800  145.5990 C   0  0  0  0  0  0  0  0  0  0  0  0
  193.0400  168.4870  145.0500 O   0  0  0  0  0  0  0  0  0  0  0  0
  182.2980  179.2480  141.5250 O   0  0  0  0  0  0  0  0  0  0  0  0
  180.9480  179.0980  141.1890 C   0  0  0  0  0  0  0  0  0  0  0  0
  178.2370  178.8720  140.5200 C   0  0  0  0  0  3  0  0  0  0  0  0
  178.8920  177.8120  141.1510 C   0  0  0  0  0  3  0  0  0  0  0  0
  180.2420  177.9240  141.4860 C   0  0  0  0  0  3  0  0  0  0  0  0
  180.2900  180.1540  140.5510 C   0  0  0  0  0  3  0  0  0  0  0  0
  178.9300  180.0490  140.2140 C   0  0  0  0  0  0  0  0  0  0  0  0
  178.2430  181.1000  139.6000 O   0  0  0  0  0  0  0  0  0  0  0  0
  178.6590  181.6700  138.3670 C   0  0  0  0  0  2  0  0  0  0  0  0
  179.9370  183.5470  137.3250 C   0  0  0  0  0  1  0  0  0  0  0  0
  179.3780  182.9850  138.6200 C   0  0  0  0  0  2  0  0  0  0  0  0
  1 19  1  6  0  0  0
  1 46  1  0  0  0  0
  1  2  1  0  0  0  0
  2  3  1  0  0  0  0
  3  4  1  0  0  0  0
  4 10  1  0  0  0  0
  5  7  1  0  0  0  0
  6 10  2  0  0  0  0
  6  9  1  0  0  0  0
  8  7  2  0  0  0  0
  9  5  2  0  0  0  0
 10  8  1  0  0  0  0
 11 12  2  0  0  0  0
 12  9  1  0  0  0  0
 13 17  1  6  0  0  0
 13 14  1  0  0  0  0
 14 16  1  6  0  0  0
 15 12  1  0  0  0  0
 15 14  1  0  0  0  0
 16 13  1  0  0  0  0
 18 17  1  0  0  0  0
 18 15  1  0  0  0  0
 19 20  1  0  0  0  0
 21 22  2  0  0  0  0
 22 20  1  0  0  0  0
 22 23  1  0  0  0  0
 23 24  1  6  0  0  0
 25 26  1  0  0  0  0
 25 23  1  0  0  0  0
 27 36  1  6  0  0  0
 27 31  1  0  0  0  0
 27 30  1  0  0  0  0
 28 38  1  1  0  0  0
 30 33  1  0  0  0  0
 31 29  1  1  0  0  0
 31 34  1  0  0  0  0
 33 26  1  1  0  0  0
 33 32  1  0  0  0  0
 34 35  1  0  0  0  0
 34 28  1  0  0  0  0
 35 28  1  0  0  0  0
 35 32  1  0  0  0  0
 37 36  1  0  0  0  0
 38 39  1  0  0  0  0
 39 40  1  0  0  0  0
 40 41  1  0  0  0  0
 41 42  1  0  0  0  0
 42 44  1  0  0  0  0
 44 43  1  0  0  0  0
 45 44  2  0  0  0  0
 47 50  1  0  0  0  0
 47 46  1  0  0  0  0
 48 49  1  0  0  0  0
 49 50  2  0  0  0  0
 51 47  2  0  0  0  0
 52 48  2  0  0  0  0
 52 51  1  0  0  0  0
 53 52  1  0  0  0  0
 54 56  1  0  0  0  0
 54 53  1  0  0  0  0
 55 56  1  0  0  0  0
M  END
>  <MODEL>
7

>  <REMARK>
 VINA RESULT:      -6.2      1.857      2.353
  Name = 
  25 active torsions:
  status: ('A' for Active; 'I' for Inactive)
    1  A    between atoms: C_1  and  O_5
    2  A    between atoms: C_3  and  C_30
    3  A    between atoms: C_6  and  C_28
    4  A    between atoms: C_6  and  C_45
    5  A    between atoms: O_8  and  C_18
    6  A    between atoms: O_8  and  C_51
    7  A    between atoms: C_9  and  O_22
    8  A    between atoms: C_11  and  C_30
    9  A    between atoms: C_11  and  N_43
   10  A    between atoms: C_13  and  O_33
   11  A    between atoms: C_13  and  C_45
   12  A    between atoms: C_15  and  C_25
   13  A    between atoms: O_16  and  C_28
   14  A    between atoms: O_16  and  C_47
   15  A    between atoms: C_18  and  C_49
   16  A    between atoms: C_21  and  O_27
   17  A    between atoms: C_21  and  C_55
   18  A    between atoms: O_22  and  C_45
   19  A    between atoms: C_25  and  C_29
   20  A    between atoms: N_26  and  C_44
   21  A    between atoms: O_27  and  C_37
   22  A    between atoms: C_29  and  N_43
   23  A    between atoms: O_33  and  C_55
   24  A    between atoms: C_37  and  C_41
   25  A    between atoms: C_40  and  C_44
                            x       y       z     vdW  Elec       q    Type
                         _______ _______ _______ _____ _____    ______ ____

>  <TORSDO>
F 25

$$$$
=
 OpenBabel11042417233D

 56 61  0  0  1  0  0  0  0  0999 V2000
  189.4770  172.4060  141.7550 C   0  0  2  0  0  3  0  0  0  0  0  0
  190.0080  173.8250  141.7170 C   0  0  0  0  0  2  0  0  0  0  0  0
  188.9430  174.7540  141.1640 C   0  0  0  0  0  2  0  0  0  0  0  0
  188.0760  175.1940  142.2020 O   0  0  0  0  0  0  0  0  0  0  0  0
  185.3870  178.4010  141.8690 C   0  0  0  0  0  3  0  0  0  0  0  0
  186.5390  176.7480  143.2020 C   0  0  0  0  0  3  0  0  0  0  0  0
  186.0280  177.9220  140.7230 C   0  0  0  0  0  3  0  0  0  0  0  0
  186.9230  176.8540  140.8180 C   0  0  0  0  0  3  0  0  0  0  0  0
  185.6410  177.8210  143.1260 C   0  0  0  0  0  0  0  0  0  0  0  0
  187.1830  176.2610  142.0640 C   0  0  0  0  0  0  0  0  0  0  0  0
  183.8640  179.0820  144.2120 C   0  0  0  0  0  2  0  0  0  0  0  0
  184.9370  178.3000  144.3450 C   0  0  0  0  0  0  0  0  0  0  0  0
  186.1480  178.0780  147.8890 N   0  0  2  0  0  0  0  0  0  0  0  0
  185.8820  178.8480  146.6550 C   0  0  2  0  0  3  0  0  0  0  0  0
  185.3730  177.9170  145.6670 N   0  0  0  0  0  0  0  0  0  0  0  0
  187.2560  178.5140  147.0200 C   0  0  0  0  0  2  0  0  0  0  0  0
  185.8570  176.6750  147.5800 C   0  0  0  0  0  2  0  0  0  0  0  0
  185.1910  176.5960  146.2230 C   0  0  0  0  0  2  0  0  0  0  0  0
  190.2980  171.5780  142.7260 C   0  0  0  0  0  2  0  0  0  0  0  0
  191.5390  172.2310  142.9530 O   0  0  0  0  0  0  0  0  0  0  0  0
  192.3960  170.4550  144.1190 O   0  0  0  0  0  0  0  0  0  0  0  0
  192.5680  171.6200  143.6770 C   0  0  0  0  0  0  0  0  0  0  0  0
  193.9030  172.2840  143.8380 C   0  0  2  0  0  3  0  0  0  0  0  0
  194.9660  171.4010  143.1880 C   0  0  0  0  0  1  0  0  0  0  0  0
  194.1750  172.4740  145.2010 O   0  0  0  0  0  0  0  0  0  0  0  0
  195.5690  172.4630  145.3450 C   0  0  0  0  0  2  0  0  0  0  0  0
  196.7420  174.8350  143.4360 C   0  0  1  0  0  3  0  0  0  0  0  0
  194.1520  177.1490  145.0030 C   0  0  2  0  0  3  0  0  0  0  0  0
  195.7910  176.6140  142.1210 O   0  0  0  0  0  1  0  0  0  0  0  0
  197.1740  174.3870  144.8510 C   0  0  0  0  0  2  0  0  0  0  0  0
  196.0530  176.2160  143.4360 C   0  0  1  0  0  3  0  0  0  0  0  0
  194.8690  174.7900  146.1160 C   0  0  0  0  0  2  0  0  0  0  0  0
  196.0460  173.8440  145.7660 C   0  0  1  0  0  3  0  0  0  0  0  0
  194.7500  176.0440  144.1700 C   0  0  1  0  0  3  0  0  0  0  0  0
  195.1650  176.1930  145.6210 C   0  0  1  0  0  3  0  0  0  0  0  0
  197.8640  174.8670  142.6040 O   0  0  0  0  0  0  0  0  0  0  0  0
  197.5880  173.9450  141.5940 C   0  0  0  0  0  1  0  0  0  0  0  0
  192.7140  176.7840  145.3420 C   0  0  0  0  0  2  0  0  0  0  0  0
  192.0250  176.0920  144.1820 C   0  0  0  0  0  2  0  0  0  0  0  0
  190.7080  176.6710  143.9850 N   0  0  0  0  0  2  0  0  0  0  0  0
  190.0950  176.7870  145.2980 C   0  0  0  0  0  2  0  0  0  0  0  0
  189.2730  175.5440  145.5780 C   0  0  0  0  0  2  0  0  0  0  0  0
  188.5740  174.5360  147.7510 O   0  0  0  0  0  1  0  0  0  0  0  0
  189.5890  175.0230  146.9360 C   0  0  0  0  0  0  0  0  0  0  0  0
  190.7810  175.0100  147.3410 O   0  0  0  0  0  0  0  0  0  0  0  0
  189.5310  171.8370  140.4480 O   0  0  0  0  0  0  0  0  0  0  0  0
  190.6890  171.2660  139.9110 C   0  0  0  0  0  0  0  0  0  0  0  0
  193.0170  170.1810  138.7920 C   0  0  0  0  0  3  0  0  0  0  0  0
  192.0360  169.3380  139.3170 C   0  0  0  0  0  3  0  0  0  0  0  0
  190.8750  169.8770  139.8730 C   0  0  0  0  0  3  0  0  0  0  0  0
  191.6790  172.1060  139.3910 C   0  0  0  0  0  3  0  0  0  0  0  0
  192.8480  171.5700  138.8260 C   0  0  0  0  0  0  0  0  0  0  0  0
  193.8380  172.3880  138.2760 O   0  0  0  0  0  0  0  0  0  0  0  0
  194.9120  172.9130  139.0440 C   0  0  0  0  0  2  0  0  0  0  0  0
  194.2580  175.2310  138.3790 C   0  0  0  0  0  1  0  0  0  0  0  0
  195.3910  174.2230  138.4390 C   0  0  0  0  0  2  0  0  0  0  0  0
  1  2  1  6  0  0  0
  1 19  1  0  0  0  0
  3  2  1  0  0  0  0
  3  4  1  0  0  0  0
  5  9  1  0  0  0  0
  7  8  1  0  0  0  0
  7  5  2  0  0  0  0
  8 10  2  0  0  0  0
  9  6  2  0  0  0  0
  9 12  1  0  0  0  0
 10  4  1  0  0  0  0
 10  6  1  0  0  0  0
 11 12  2  0  0  0  0
 12 15  1  0  0  0  0
 13 16  1  6  0  0  0
 14 16  1  6  0  0  0
 14 13  1  0  0  0  0
 15 18  1  0  0  0  0
 15 14  1  0  0  0  0
 17 13  1  0  0  0  0
 18 17  1  0  0  0  0
 19 20  1  0  0  0  0
 20 22  1  0  0  0  0
 22 23  1  0  0  0  0
 22 21  2  0  0  0  0
 23 24  1  1  0  0  0
 23 25  1  0  0  0  0
 25 26  1  0  0  0  0
 27 36  1  6  0  0  0
 27 31  1  0  0  0  0
 27 30  1  0  0  0  0
 28 38  1  1  0  0  0
 28 35  1  0  0  0  0
 30 33  1  0  0  0  0
 31 29  1  6  0  0  0
 31 34  1  0  0  0  0
 33 26  1  6  0  0  0
 33 32  1  0  0  0  0
 34 28  1  0  0  0  0
 34 35  1  0  0  0  0
 35 32  1  0  0  0  0
 37 36  1  0  0  0  0
 39 38  1  0  0  0  0
 40 39  1  0  0  0  0
 40 41  1  0  0  0  0
 41 42  1  0  0  0  0
 42 44  1  0  0  0  0
 44 45  2  0  0  0  0
 44 43  1  0  0  0  0
 46  1  1  0  0  0  0
 47 46  1  0  0  0  0
 48 52  2  0  0  0  0
 48 49  1  0  0  0  0
 49 50  2  0  0  0  0
 50 47  1  0  0  0  0
 51 47  2  0  0  0  0
 52 51  1  0  0  0  0
 53 52  1  0  0  0  0
 53 54  1  0  0  0  0
 55 56  1  0  0  0  0
 56 54  1  0  0  0  0
M  END
>  <MODEL>
8

>  <REMARK>
 VINA RESULT:      -6.1      3.733      9.537
  Name = 
  25 active torsions:
  status: ('A' for Active; 'I' for Inactive)
    1  A    between atoms: C_1  and  O_5
    2  A    between atoms: C_3  and  C_30
    3  A    between atoms: C_6  and  C_28
    4  A    between atoms: C_6  and  C_45
    5  A    between atoms: O_8  and  C_18
    6  A    between atoms: O_8  and  C_51
    7  A    between atoms: C_9  and  O_22
    8  A    between atoms: C_11  and  C_30
    9  A    between atoms: C_11  and  N_43
   10  A    between atoms: C_13  and  O_33
   11  A    between atoms: C_13  and  C_45
   12  A    between atoms: C_15  and  C_25
   13  A    between atoms: O_16  and  C_28
   14  A    between atoms: O_16  and  C_47
   15  A    between atoms: C_18  and  C_49
   16  A    between atoms: C_21  and  O_27
   17  A    between atoms: C_21  and  C_55
   18  A    between atoms: O_22  and  C_45
   19  A    between atoms: C_25  and  C_29
   20  A    between atoms: N_26  and  C_44
   21  A    between atoms: O_27  and  C_37
   22  A    between atoms: C_29  and  N_43
   23  A    between atoms: O_33  and  C_55
   24  A    between atoms: C_37  and  C_41
   25  A    between atoms: C_40  and  C_44
                            x       y       z     vdW  Elec       q    Type
                         _______ _______ _______ _____ _____    ______ ____

>  <TORSDO>
F 25

$$$$
=
 OpenBabel11042417233D

 56 61  0  0  1  0  0  0  0  0999 V2000
  189.6180  172.1160  141.7760 C   0  0  2  0  0  3  0  0  0  0  0  0
  189.3480  172.6990  143.1500 C   0  0  0  0  0  2  0  0  0  0  0  0
  189.1280  174.1960  143.0350 C   0  0  0  0  0  2  0  0  0  0  0  0
  187.8240  174.4730  142.5400 O   0  0  0  0  0  0  0  0  0  0  0  0
  186.3670  178.3480  141.8400 C   0  0  0  0  0  3  0  0  0  0  0  0
  186.4270  176.3270  143.1630 C   0  0  0  0  0  3  0  0  0  0  0  0
  187.2940  177.7940  140.9530 C   0  0  0  0  0  3  0  0  0  0  0  0
  187.7860  176.5050  141.1720 C   0  0  0  0  0  3  0  0  0  0  0  0
  185.9260  177.6210  142.9600 C   0  0  0  0  0  0  0  0  0  0  0  0
  187.3520  175.7630  142.2830 C   0  0  0  0  0  0  0  0  0  0  0  0
  183.7730  178.6710  143.3930 C   0  0  0  0  0  2  0  0  0  0  0  0
  184.9130  178.1880  143.8890 C   0  0  0  0  0  0  0  0  0  0  0  0
  186.2170  178.2780  147.4060 N   0  0  2  0  0  0  0  0  0  0  0  0
  186.4290  178.1800  145.9470 C   0  0  2  0  0  3  0  0  0  0  0  0
  185.1230  178.2030  145.3180 N   0  0  0  0  0  0  0  0  0  0  0  0
  186.5790  176.9920  146.7830 C   0  0  0  0  0  2  0  0  0  0  0  0
  184.7670  178.2820  147.6210 C   0  0  0  0  0  2  0  0  0  0  0  0
  184.0710  178.4180  146.2840 C   0  0  0  0  0  2  0  0  0  0  0  0
  190.4480  170.8530  141.9110 C   0  0  0  0  0  2  0  0  0  0  0  0
  191.8200  171.1840  141.7610 O   0  0  0  0  0  0  0  0  0  0  0  0
  192.5020  169.8050  140.0650 O   0  0  0  0  0  0  0  0  0  0  0  0
  192.7360  170.2860  141.2030 C   0  0  0  0  0  0  0  0  0  0  0  0
  194.0340  169.9750  141.8870 C   0  0  2  0  0  3  0  0  0  0  0  0
  193.7560  169.0140  143.0400 C   0  0  0  0  0  1  0  0  0  0  0  0
  194.6180  171.1620  142.3530 O   0  0  0  0  0  0  0  0  0  0  0  0
  195.7000  171.4430  141.5070 C   0  0  0  0  0  2  0  0  0  0  0  0
  196.3500  174.6000  141.0010 C   0  0  1  0  0  3  0  0  0  0  0  0
  195.7510  175.1510  144.7230 C   0  0  2  0  0  3  0  0  0  0  0  0
  195.4250  176.6910  141.7560 O   0  0  0  0  0  1  0  0  0  0  0  0
  197.2990  173.4280  141.3430 C   0  0  0  0  0  2  0  0  0  0  0  0
  196.1990  175.6000  142.1660 C   0  0  1  0  0  3  0  0  0  0  0  0
  196.2150  172.7060  143.6630 C   0  0  0  0  0  2  0  0  0  0  0  0
  196.7050  172.3150  142.2450 C   0  0  1  0  0  3  0  0  0  0  0  0
  195.4790  174.8680  143.2670 C   0  0  1  0  0  3  0  0  0  0  0  0
  196.6070  174.1380  143.9710 C   0  0  1  0  0  3  0  0  0  0  0  0
  196.8330  175.2620  139.8690 O   0  0  0  0  0  0  0  0  0  0  0  0
  196.0470  174.7940  138.8160 C   0  0  0  0  0  1  0  0  0  0  0  0
  194.6620  174.4960  145.5610 C   0  0  0  0  0  2  0  0  0  0  0  0
  193.7220  175.5250  146.1570 C   0  0  0  0  0  2  0  0  0  0  0  0
  194.0420  176.8390  145.6290 N   0  0  0  0  0  2  0  0  0  0  0  0
  193.0240  177.1580  144.6420 C   0  0  0  0  0  2  0  0  0  0  0  0
  191.6640  176.7600  145.1800 C   0  0  0  0  0  2  0  0  0  0  0  0
  190.9070  177.9410  143.1160 O   0  0  0  0  0  0  0  0  0  0  0  0
  190.5910  177.3500  144.3330 C   0  0  0  0  0  0  0  0  0  0  0  0
  189.3930  177.3000  144.7150 O   0  0  0  0  0  1  0  0  0  0  0  0
  190.3030  173.0780  140.9740 O   0  0  0  0  0  0  0  0  0  0  0  0
  189.9590  173.3480  139.6460 C   0  0  0  0  0  0  0  0  0  0  0  0
  189.3400  173.9120  136.9720 C   0  0  0  0  0  3  0  0  0  0  0  0
  188.3340  173.9250  137.9400 C   0  0  0  0  0  3  0  0  0  0  0  0
  188.6410  173.6460  139.2720 C   0  0  0  0  0  3  0  0  0  0  0  0
  190.9620  173.3280  138.6710 C   0  0  0  0  0  3  0  0  0  0  0  0
  190.6600  173.6120  137.3290 C   0  0  0  0  0  0  0  0  0  0  0  0
  191.6490  173.6260  136.3420 O   0  0  0  0  0  0  0  0  0  0  0  0
  192.7610  172.7410  136.3590 C   0  0  0  0  0  2  0  0  0  0  0  0
  194.9940  172.4790  135.2690 C   0  0  0  0  0  1  0  0  0  0  0  0
  194.0060  173.4630  135.8690 C   0  0  0  0  0  2  0  0  0  0  0  0
  1 19  1  1  0  0  0
  1  2  1  0  0  0  0
  3  2  1  0  0  0  0
  4  3  1  0  0  0  0
  5  9  1  0  0  0  0
  7  8  1  0  0  0  0
  7  5  2  0  0  0  0
  8 10  2  0  0  0  0
  9  6  2  0  0  0  0
  9 12  1  0  0  0  0
 10  4  1  0  0  0  0
 10  6  1  0  0  0  0
 11 12  2  0  0  0  0
 12 15  1  0  0  0  0
 13 16  1  1  0  0  0
 13 17  1  0  0  0  0
 14 16  1  1  0  0  0
 14 13  1  0  0  0  0
 15 14  1  0  0  0  0
 15 18  1  0  0  0  0
 18 17  1  0  0  0  0
 20 19  1  0  0  0  0
 21 22  2  0  0  0  0
 22 20  1  0  0  0  0
 22 23  1  0  0  0  0
 23 25  1  0  0  0  0
 23 24  1  1  0  0  0
 26 25  1  0  0  0  0
 27 36  1  6  0  0  0
 27 30  1  0  0  0  0
 27 31  1  0  0  0  0
 28 38  1  1  0  0  0
 30 33  1  0  0  0  0
 31 29  1  6  0  0  0
 31 34  1  0  0  0  0
 32 35  1  0  0  0  0
 33 26  1  6  0  0  0
 33 32  1  0  0  0  0
 34 35  1  0  0  0  0
 34 28  1  0  0  0  0
 35 28  1  0  0  0  0
 37 36  1  0  0  0  0
 38 39  1  0  0  0  0
 40 39  1  0  0  0  0
 41 42  1  0  0  0  0
 41 40  1  0  0  0  0
 43 44  2  0  0  0  0
 44 45  1  0  0  0  0
 44 42  1  0  0  0  0
 46  1  1  0  0  0  0
 47 46  1  0  0  0  0
 48 52  2  0  0  0  0
 48 49  1  0  0  0  0
 49 50  2  0  0  0  0
 50 47  1  0  0  0  0
 51 47  2  0  0  0  0
 52 51  1  0  0  0  0
 53 54  1  0  0  0  0
 53 52  1  0  0  0  0
 55 56  1  0  0  0  0
 56 54  1  0  0  0  0
M  END
>  <MODEL>
9

>  <REMARK>
 VINA RESULT:      -6.1      3.804      8.900
  Name = 
  25 active torsions:
  status: ('A' for Active; 'I' for Inactive)
    1  A    between atoms: C_1  and  O_5
    2  A    between atoms: C_3  and  C_30
    3  A    between atoms: C_6  and  C_28
    4  A    between atoms: C_6  and  C_45
    5  A    between atoms: O_8  and  C_18
    6  A    between atoms: O_8  and  C_51
    7  A    between atoms: C_9  and  O_22
    8  A    between atoms: C_11  and  C_30
    9  A    between atoms: C_11  and  N_43
   10  A    between atoms: C_13  and  O_33
   11  A    between atoms: C_13  and  C_45
   12  A    between atoms: C_15  and  C_25
   13  A    between atoms: O_16  and  C_28
   14  A    between atoms: O_16  and  C_47
   15  A    between atoms: C_18  and  C_49
   16  A    between atoms: C_21  and  O_27
   17  A    between atoms: C_21  and  C_55
   18  A    between atoms: O_22  and  C_45
   19  A    between atoms: C_25  and  C_29
   20  A    between atoms: N_26  and  C_44
   21  A    between atoms: O_27  and  C_37
   22  A    between atoms: C_29  and  N_43
   23  A    between atoms: O_33  and  C_55
   24  A    between atoms: C_37  and  C_41
   25  A    between atoms: C_40  and  C_44
                            x       y       z     vdW  Elec       q    Type
                         _______ _______ _______ _____ _____    ______ ____

>  <TORSDO>
F 25

$$$$
