=
 OpenBabel11042417443D

 48 54  0  0  1  0  0  0  0  0999 V2000
  191.0210  173.6300  141.1430 C   0  0  2  0  0  0  0  0  0  0  0  0
  193.1500  175.9630  144.4850 C   0  0  2  0  0  3  0  0  0  0  0  0
  190.7660  174.5990  142.2490 N   0  0  0  0  0  0  0  0  0  0  0  0
  191.2230  175.8190  142.8250 C   0  0  0  0  0  0  0  0  0  0  0  0
  194.4900  176.5310  144.6370 N   0  0  0  0  0  2  0  0  0  0  0  0
  190.1990  177.0950  142.8720 S   0  0  0  0  0  0  0  0  0  0  0  0
  192.7130  176.0360  143.0060 C   0  0  2  0  0  3  0  0  0  0  0  0
  193.0490  174.9280  140.8530 O   0  0  0  0  0  0  0  0  0  0  0  0
  193.5080  174.9930  142.1760 C   0  0  1  0  0  3  0  0  0  0  0  0
  192.4680  173.3080  139.3310 O   0  0  0  0  0  0  0  0  0  0  0  0
  190.6960  173.1050  142.3740 C   0  0  1  0  0  3  0  0  0  0  0  0
  195.5190  175.4940  144.7300 C   0  0  1  0  0  3  0  0  0  0  0  0
  195.0290  175.1400  142.2040 C   0  0  2  0  0  3  0  0  0  0  0  0
  192.4890  173.6440  140.7050 C   0  0  2  0  0  3  0  0  0  0  0  0
  197.0400  174.1310  143.2790 C   0  0  0  0  0  1  0  0  0  0  0  0
  191.0950  173.0300  137.4660 N   0  0  0  0  0  0  0  0  0  0  0  0
  195.3810  174.6930  146.0150 C   0  0  0  0  0  1  0  0  0  0  0  0
  195.6010  174.5700  143.5020 C   0  0  1  0  0  3  0  0  0  0  0  0
  191.2210  173.3440  138.7170 C   0  0  0  0  0  0  0  0  0  0  0  0
  189.8390  173.8070  139.7650 S   0  0  0  0  0  0  0  0  0  0  0  0
  195.4360  176.4580  141.9710 O   0  0  0  0  0  1  0  0  0  0  0  0
  189.2420  172.6820  142.5280 C   0  0  0  0  0  2  0  0  0  0  0  0
  189.1130  171.8530  143.6420 O   0  0  0  0  0  1  0  0  0  0  0  0
  189.5710  171.6210  136.2060 C   0  0  0  0  0  1  0  0  0  0  0  0
  189.8200  173.0180  136.7560 C   0  0  2  0  0  3  0  0  0  0  0  0
  189.8160  176.8790  134.7660 C   0  0  0  0  0  2  0  0  0  0  0  0
  187.2640  176.8770  135.1500 C   0  0  0  0  0  1  0  0  0  0  0  0
  191.0250  175.9630  134.5780 C   0  0  2  0  0  3  0  0  0  0  0  0
  188.5820  174.8750  135.5940 C   0  0  0  0  0  3  0  0  0  0  0  0
  191.0820  174.9420  135.7100 C   0  0  0  0  0  2  0  0  0  0  0  0
  192.2910  176.7920  134.5710 C   0  0  0  0  0  1  0  0  0  0  0  0
  189.8460  174.0450  135.6220 C   0  0  1  0  0  3  0  0  0  0  0  0
  188.5510  176.1310  135.1150 C   0  0  0  0  0  0  0  0  0  0  0  0
  192.1840  176.6360  145.4760 C   0  0  0  0  0  2  0  0  0  0  0  0
  191.6990  175.6990  146.5810 C   0  0  0  0  0  2  0  0  0  0  0  0
  190.4530  176.2630  147.2550 C   0  0  0  0  0  2  0  0  0  0  0  0
  188.9700  174.4360  147.5420 O   0  0  0  0  0  0  0  0  0  0  0  0
  189.2310  175.4630  146.9310 C   0  0  0  0  0  0  0  0  0  0  0  0
  188.2880  175.9740  145.8940 C   0  0  0  0  0  2  0  0  0  0  0  0
  185.4520  177.7700  145.8740 N   0  0  0  0  0  0  0  0  0  0  0  0
  184.1640  178.3440  146.2530 C   0  0  0  0  0  1  0  0  0  0  0  0
  185.8280  177.7690  143.4100 C   0  0  0  0  0  2  0  0  0  0  0  0
  186.2780  178.2250  144.7760 C   0  0  0  0  0  0  0  0  0  0  0  0
  185.7620  179.2500  143.7920 C   0  0  0  0  0  2  0  0  0  0  0  0
  186.4140  177.3100  146.7910 C   0  0  0  0  0  0  0  0  0  0  0  0
  187.7840  177.3760  146.2200 C   0  0  2  0  0  3  0  0  0  0  0  0
  187.6670  178.1080  145.0090 O   0  0  0  0  0  0  0  0  0  0  0  0
  186.1390  176.9310  147.9620 O   0  0  0  0  0  0  0  0  0  0  0  0
  1 20  1  6  0  0  0
  1  3  1  0  0  0  0
  1 11  1  0  0  0  0
  2  5  1  0  0  0  0
  2 34  1  1  0  0  0
  3 11  1  0  0  0  0
  3  4  1  0  0  0  0
  4  6  2  0  0  0  0
  5 12  1  0  0  0  0
  7  4  1  1  0  0  0
  7  2  1  0  0  0  0
  9  8  1  6  0  0  0
  9 13  1  0  0  0  0
  9  7  1  0  0  0  0
 11 22  1  6  0  0  0
 12 17  1  1  0  0  0
 13 21  1  1  0  0  0
 13 18  1  0  0  0  0
 14 10  1  6  0  0  0
 14  8  1  0  0  0  0
 14  1  1  0  0  0  0
 16 19  2  0  0  0  0
 18 15  1  6  0  0  0
 18 12  1  0  0  0  0
 19 10  1  0  0  0  0
 19 20  1  0  0  0  0
 22 23  1  0  0  0  0
 25 24  1  6  0  0  0
 25 16  1  0  0  0  0
 26 33  1  0  0  0  0
 28 31  1  1  0  0  0
 28 26  1  0  0  0  0
 28 30  1  0  0  0  0
 29 32  1  0  0  0  0
 32 30  1  0  0  0  0
 32 25  1  1  0  0  0
 33 27  1  0  0  0  0
 33 29  2  0  0  0  0
 34 35  1  0  0  0  0
 35 36  1  0  0  0  0
 38 36  1  0  0  0  0
 38 37  2  0  0  0  0
 39 38  1  0  0  0  0
 40 41  1  0  0  0  0
 40 45  1  0  0  0  0
 42 44  1  0  0  0  0
 42 43  1  0  0  0  0
 43 47  1  0  0  0  0
 43 40  1  0  0  0  0
 44 43  1  0  0  0  0
 45 48  2  0  0  0  0
 46 39  1  6  0  0  0
 46 45  1  0  0  0  0
 47 46  1  0  0  0  0
M  END
>  <MODEL>
1

>  <REMARK>
 VINA RESULT:      -8.6      0.000      0.000
  Name = 
  9 active torsions:
  status: ('A' for Active; 'I' for Inactive)
    1  A    between atoms: C_2  and  C_8
    2  A    between atoms: C_2  and  C_10
    3  A    between atoms: C_3  and  C_10
    4  A    between atoms: C_3  and  C_32
    5  A    between atoms: C_4  and  C_24
    6  A    between atoms: C_14  and  C_32
    7  A    between atoms: C_14  and  C_34
    8  A    between atoms: C_27  and  N_40
    9  A    between atoms: C_27  and  C_47
                            x       y       z     vdW  Elec       q    Type
                         _______ _______ _______ _____ _____    ______ ____

>  <TORSDO>
F 9

$$$$
=
 OpenBabel11042417443D

 48 54  0  0  1  0  0  0  0  0999 V2000
  192.9390  175.3060  145.1580 C   0  0  2  0  0  0  0  0  0  0  0  0
  195.9250  172.3790  143.2440 C   0  0  2  0  0  3  0  0  0  0  0  0
  193.9850  175.2160  144.0970 N   0  0  0  0  0  0  0  0  0  0  0  0
  194.4310  174.4280  142.9970 C   0  0  0  0  0  0  0  0  0  0  0  0
  195.9310  170.9330  143.0160 N   0  0  0  0  0  2  0  0  0  0  0  0
  194.4580  175.1040  141.5080 S   0  0  0  0  0  0  0  0  0  0  0  0
  194.4810  172.9190  143.1450 C   0  0  2  0  0  3  0  0  0  0  0  0
  192.3990  173.0600  144.4180 O   0  0  0  0  0  0  0  0  0  0  0  0
  193.6750  172.4790  144.3970 C   0  0  1  0  0  3  0  0  0  0  0  0
  191.0520  174.1520  145.9250 O   0  0  0  0  0  0  0  0  0  0  0  0
  194.2270  175.6340  145.5170 C   0  0  1  0  0  3  0  0  0  0  0  0
  196.0250  170.1810  144.2690 C   0  0  1  0  0  3  0  0  0  0  0  0
  193.5770  170.9720  144.6290 C   0  0  2  0  0  3  0  0  0  0  0  0
  192.3910  173.9250  145.5300 C   0  0  2  0  0  3  0  0  0  0  0  0
  194.5700  169.1740  146.0430 C   0  0  0  0  0  1  0  0  0  0  0  0
  189.3230  175.7170  145.9580 N   0  0  0  0  0  0  0  0  0  0  0  0
  197.3720  170.3900  144.9400 C   0  0  0  0  0  1  0  0  0  0  0  0
  194.8660  170.4380  145.2500 C   0  0  1  0  0  3  0  0  0  0  0  0
  190.5330  175.4040  145.6160 C   0  0  0  0  0  0  0  0  0  0  0  0
  191.6450  176.5310  144.7700 S   0  0  0  0  0  0  0  0  0  0  0  0
  193.2140  170.2820  143.4670 O   0  0  0  0  0  1  0  0  0  0  0  0
  194.5220  177.1260  145.5600 C   0  0  0  0  0  2  0  0  0  0  0  0
  194.5540  177.5580  146.8860 O   0  0  0  0  0  1  0  0  0  0  0  0
  188.6130  177.7930  146.9990 C   0  0  0  0  0  1  0  0  0  0  0  0
  188.7140  177.0170  145.6930 C   0  0  2  0  0  3  0  0  0  0  0  0
  184.8220  178.0250  144.0520 C   0  0  0  0  0  2  0  0  0  0  0  0
  184.0540  178.2930  146.5010 C   0  0  0  0  0  1  0  0  0  0  0  0
  185.8220  177.2960  143.1570 C   0  0  2  0  0  3  0  0  0  0  0  0
  186.2360  177.3350  145.9880 C   0  0  0  0  0  3  0  0  0  0  0  0
  187.2360  177.4880  143.6970 C   0  0  0  0  0  2  0  0  0  0  0  0
  185.7340  177.8420  141.7480 C   0  0  0  0  0  1  0  0  0  0  0  0
  187.3280  176.8260  145.0730 C   0  0  1  0  0  3  0  0  0  0  0  0
  185.0590  177.7910  145.5250 C   0  0  0  0  0  0  0  0  0  0  0  0
  196.9320  173.0590  142.2990 C   0  0  0  0  0  2  0  0  0  0  0  0
  197.3360  172.1840  141.1140 C   0  0  0  0  0  2  0  0  0  0  0  0
  196.6160  172.6310  139.8460 C   0  0  0  0  0  2  0  0  0  0  0  0
  195.6010  170.5110  139.5490 O   0  0  0  0  0  0  0  0  0  0  0  0
  195.4760  171.7260  139.5000 C   0  0  0  0  0  0  0  0  0  0  0  0
  194.1540  172.3270  139.1600 C   0  0  0  0  0  2  0  0  0  0  0  0
  190.8010  172.2200  139.0720 N   0  0  0  0  0  0  0  0  0  0  0  0
  189.4230  172.1060  138.6030 C   0  0  0  0  0  1  0  0  0  0  0  0
  191.0070  173.5510  141.1690 C   0  0  0  0  0  2  0  0  0  0  0  0
  191.2110  172.2350  140.4590 C   0  0  0  0  0  0  0  0  0  0  0  0
  190.1880  172.3200  141.5690 C   0  0  0  0  0  2  0  0  0  0  0  0
  191.9010  171.6060  138.4480 C   0  0  0  0  0  0  0  0  0  0  0  0
  193.0040  171.3590  139.4130 C   0  0  2  0  0  3  0  0  0  0  0  0
  192.4630  171.6250  140.6990 O   0  0  0  0  0  0  0  0  0  0  0  0
  191.9220  171.2760  137.2310 O   0  0  0  0  0  0  0  0  0  0  0  0
  1 20  1  6  0  0  0
  1 11  1  0  0  0  0
  1 14  1  0  0  0  0
  2 34  1  6  0  0  0
  3  1  1  0  0  0  0
  3 11  1  0  0  0  0
  4  3  1  0  0  0  0
  5  2  1  0  0  0  0
  5 12  1  0  0  0  0
  6  4  2  0  0  0  0
  7  4  1  1  0  0  0
  7  2  1  0  0  0  0
  7  9  1  0  0  0  0
  9  8  1  6  0  0  0
  9 13  1  0  0  0  0
 11 22  1  6  0  0  0
 12 17  1  1  0  0  0
 12 18  1  0  0  0  0
 13 21  1  6  0  0  0
 13 18  1  0  0  0  0
 14  8  1  6  0  0  0
 14 10  1  0  0  0  0
 18 15  1  6  0  0  0
 19 10  1  0  0  0  0
 19 16  2  0  0  0  0
 20 19  1  0  0  0  0
 22 23  1  0  0  0  0
 25 16  1  0  0  0  0
 25 24  1  1  0  0  0
 26 33  1  0  0  0  0
 28 31  1  6  0  0  0
 28 30  1  0  0  0  0
 28 26  1  0  0  0  0
 30 32  1  0  0  0  0
 32 25  1  1  0  0  0
 32 29  1  0  0  0  0
 33 29  2  0  0  0  0
 33 27  1  0  0  0  0
 35 34  1  0  0  0  0
 36 35  1  0  0  0  0
 38 37  2  0  0  0  0
 38 36  1  0  0  0  0
 39 38  1  0  0  0  0
 40 43  1  0  0  0  0
 41 40  1  0  0  0  0
 42 44  1  0  0  0  0
 43 47  1  0  0  0  0
 43 42  1  0  0  0  0
 43 44  1  0  0  0  0
 45 40  1  0  0  0  0
 45 46  1  0  0  0  0
 46 39  1  6  0  0  0
 46 47  1  0  0  0  0
 48 45  2  0  0  0  0
M  END
>  <MODEL>
2

>  <REMARK>
 VINA RESULT:      -7.8      3.208      8.387
  Name = 
  9 active torsions:
  status: ('A' for Active; 'I' for Inactive)
    1  A    between atoms: C_2  and  C_8
    2  A    between atoms: C_2  and  C_10
    3  A    between atoms: C_3  and  C_10
    4  A    between atoms: C_3  and  C_32
    5  A    between atoms: C_4  and  C_24
    6  A    between atoms: C_14  and  C_32
    7  A    between atoms: C_14  and  C_34
    8  A    between atoms: C_27  and  N_40
    9  A    between atoms: C_27  and  C_47
                            x       y       z     vdW  Elec       q    Type
                         _______ _______ _______ _____ _____    ______ ____

>  <TORSDO>
F 9

$$$$
=
 OpenBabel11042417443D

 48 54  0  0  1  0  0  0  0  0999 V2000
  190.3580  175.0440  142.0470 C   0  0  2  0  0  0  0  0  0  0  0  0
  193.4940  173.3100  144.9290 C   0  0  2  0  0  3  0  0  0  0  0  0
  190.7590  173.7780  142.7270 N   0  0  0  0  0  0  0  0  0  0  0  0
  191.1270  173.2280  143.9890 C   0  0  0  0  0  0  0  0  0  0  0  0
  194.2620  173.8570  146.0480 N   0  0  0  0  0  2  0  0  0  0  0  0
  190.1880  172.0550  144.6360 S   0  0  0  0  0  0  0  0  0  0  0  0
  192.1060  173.9850  144.8660 C   0  0  2  0  0  3  0  0  0  0  0  0
  191.0120  176.0520  144.1540 O   0  0  0  0  0  0  0  0  0  0  0  0
  192.2590  175.4440  144.3570 C   0  0  1  0  0  3  0  0  0  0  0  0
  189.9750  177.3030  142.5300 O   0  0  0  0  0  0  0  0  0  0  0  0
  191.2230  174.2140  141.3690 C   0  0  1  0  0  3  0  0  0  0  0  0
  195.2440  174.8500  145.6060 C   0  0  1  0  0  3  0  0  0  0  0  0
  193.1620  176.3490  145.1950 C   0  0  2  0  0  3  0  0  0  0  0  0
  190.9180  176.2750  142.7660 C   0  0  2  0  0  3  0  0  0  0  0  0
  195.4630  177.3100  145.1850 C   0  0  0  0  0  1  0  0  0  0  0  0
  187.8290  177.7640  141.7390 N   0  0  0  0  0  0  0  0  0  0  0  0
  196.3390  174.2100  144.7690 C   0  0  0  0  0  1  0  0  0  0  0  0
  194.6340  176.0700  144.8910 C   0  0  1  0  0  3  0  0  0  0  0  0
  188.7510  176.8950  142.0120 C   0  0  0  0  0  0  0  0  0  0  0  0
  188.5660  175.1320  141.7230 S   0  0  0  0  0  0  0  0  0  0  0  0
  192.8710  176.2670  146.5600 O   0  0  0  0  0  1  0  0  0  0  0  0
  190.5740  173.3370  140.3100 C   0  0  0  0  0  2  0  0  0  0  0  0
  191.5620  172.7450  139.5230 O   0  0  0  0  0  1  0  0  0  0  0  0
  186.6020  177.5470  139.6560 C   0  0  0  0  0  1  0  0  0  0  0  0
  186.5300  177.4190  141.1710 C   0  0  2  0  0  3  0  0  0  0  0  0
  182.8420  178.6640  143.0960 C   0  0  0  0  0  2  0  0  0  0  0  0
  181.7020  178.1760  140.8330 C   0  0  0  0  0  1  0  0  0  0  0  0
  184.1690  179.0700  143.7340 C   0  0  2  0  0  3  0  0  0  0  0  0
  184.1320  178.1660  141.0210 C   0  0  0  0  0  3  0  0  0  0  0  0
  185.2820  178.1490  143.2450 C   0  0  0  0  0  2  0  0  0  0  0  0
  184.0560  178.9800  145.2410 C   0  0  0  0  0  1  0  0  0  0  0  0
  185.4520  178.3460  141.7370 C   0  0  1  0  0  3  0  0  0  0  0  0
  182.9490  178.4040  141.6120 C   0  0  0  0  0  0  0  0  0  0  0  0
  193.4590  171.7740  145.0230 C   0  0  0  0  0  2  0  0  0  0  0  0
  194.8010  171.1180  144.7050 C   0  0  0  0  0  2  0  0  0  0  0  0
  194.9280  170.8500  143.2090 C   0  0  0  0  0  2  0  0  0  0  0  0
  197.2930  170.7190  143.1200 O   0  0  0  0  0  0  0  0  0  0  0  0
  196.2740  171.2370  142.6830 C   0  0  0  0  0  0  0  0  0  0  0  0
  196.3570  172.2180  141.5620 C   0  0  0  0  0  2  0  0  0  0  0  0
  194.9750  174.5510  139.5850 N   0  0  0  0  0  0  0  0  0  0  0  0
  194.4150  175.2410  138.4270 C   0  0  0  0  0  1  0  0  0  0  0  0
  195.9100  176.1120  141.2890 C   0  0  0  0  0  2  0  0  0  0  0  0
  194.9150  175.0280  140.9500 C   0  0  0  0  0  0  0  0  0  0  0  0
  194.4100  176.4180  141.2630 C   0  0  0  0  0  2  0  0  0  0  0  0
  194.9490  173.1560  139.7630 C   0  0  0  0  0  0  0  0  0  0  0  0
  194.9910  172.7910  141.2030 C   0  0  2  0  0  3  0  0  0  0  0  0
  194.8070  174.0040  141.9180 O   0  0  0  0  0  0  0  0  0  0  0  0
  194.8610  172.3310  138.8140 O   0  0  0  0  0  0  0  0  0  0  0  0
  1 20  1  6  0  0  0
  1  3  1  0  0  0  0
  1 14  1  0  0  0  0
  2 34  1  1  0  0  0
  2  5  1  0  0  0  0
  3  4  1  0  0  0  0
  4  6  2  0  0  0  0
  7  4  1  6  0  0  0
  7  2  1  0  0  0  0
  9  8  1  1  0  0  0
  9  7  1  0  0  0  0
  9 13  1  0  0  0  0
 11 22  1  6  0  0  0
 11  1  1  0  0  0  0
 11  3  1  0  0  0  0
 12 17  1  6  0  0  0
 12  5  1  0  0  0  0
 13 21  1  1  0  0  0
 14 10  1  1  0  0  0
 14  8  1  0  0  0  0
 16 19  2  0  0  0  0
 18 15  1  1  0  0  0
 18 13  1  0  0  0  0
 18 12  1  0  0  0  0
 19 10  1  0  0  0  0
 20 19  1  0  0  0  0
 23 22  1  0  0  0  0
 25 24  1  6  0  0  0
 25 16  1  0  0  0  0
 26 28  1  0  0  0  0
 27 33  1  0  0  0  0
 28 31  1  1  0  0  0
 29 33  2  0  0  0  0
 29 32  1  0  0  0  0
 30 28  1  0  0  0  0
 32 25  1  6  0  0  0
 32 30  1  0  0  0  0
 33 26  1  0  0  0  0
 35 34  1  0  0  0  0
 36 35  1  0  0  0  0
 38 37  2  0  0  0  0
 38 36  1  0  0  0  0
 39 38  1  0  0  0  0
 40 45  1  0  0  0  0
 40 43  1  0  0  0  0
 41 40  1  0  0  0  0
 43 44  1  0  0  0  0
 43 42  1  0  0  0  0
 43 47  1  0  0  0  0
 44 42  1  0  0  0  0
 45 46  1  0  0  0  0
 46 39  1  1  0  0  0
 46 47  1  0  0  0  0
 48 45  2  0  0  0  0
M  END
>  <MODEL>
3

>  <REMARK>
 VINA RESULT:      -7.8      3.285      7.607
  Name = 
  9 active torsions:
  status: ('A' for Active; 'I' for Inactive)
    1  A    between atoms: C_2  and  C_8
    2  A    between atoms: C_2  and  C_10
    3  A    between atoms: C_3  and  C_10
    4  A    between atoms: C_3  and  C_32
    5  A    between atoms: C_4  and  C_24
    6  A    between atoms: C_14  and  C_32
    7  A    between atoms: C_14  and  C_34
    8  A    between atoms: C_27  and  N_40
    9  A    between atoms: C_27  and  C_47
                            x       y       z     vdW  Elec       q    Type
                         _______ _______ _______ _____ _____    ______ ____

>  <TORSDO>
F 9

$$$$
=
 OpenBabel11042417443D

 48 54  0  0  1  0  0  0  0  0999 V2000
  191.1310  172.6450  142.1240 C   0  0  2  0  0  0  0  0  0  0  0  0
  192.5600  176.2970  144.5240 C   0  0  2  0  0  3  0  0  0  0  0  0
  190.6310  173.8760  142.8040 N   0  0  0  0  0  0  0  0  0  0  0  0
  190.8520  175.2770  142.9330 C   0  0  0  0  0  0  0  0  0  0  0  0
  193.7850  177.0990  144.5270 N   0  0  0  0  0  2  0  0  0  0  0  0
  189.6600  176.3030  142.4790 S   0  0  0  0  0  0  0  0  0  0  0  0
  192.2700  175.7880  143.0950 C   0  0  2  0  0  3  0  0  0  0  0  0
  192.9750  174.0850  141.4890 O   0  0  0  0  0  0  0  0  0  0  0  0
  193.2840  174.6730  142.7240 C   0  0  1  0  0  3  0  0  0  0  0  0
  192.7860  171.9710  140.6110 O   0  0  0  0  0  0  0  0  0  0  0  0
  190.7580  172.5250  143.4450 C   0  0  1  0  0  3  0  0  0  0  0  0
  194.9340  176.3420  145.0290 C   0  0  1  0  0  3  0  0  0  0  0  0
  194.7590  175.0720  142.7700 C   0  0  2  0  0  3  0  0  0  0  0  0
  192.6190  172.7530  141.7780 C   0  0  2  0  0  3  0  0  0  0  0  0
  196.7710  174.8400  144.2240 C   0  0  0  0  0  1  0  0  0  0  0  0
  191.6630  170.8480  138.9030 N   0  0  0  0  0  0  0  0  0  0  0  0
  194.7790  176.0160  146.5050 C   0  0  0  0  0  1  0  0  0  0  0  0
  195.2700  175.0820  144.2100 C   0  0  1  0  0  3  0  0  0  0  0  0
  191.6150  171.5860  139.9670 C   0  0  0  0  0  0  0  0  0  0  0  0
  190.0830  172.1420  140.7190 S   0  0  0  0  0  0  0  0  0  0  0  0
  194.9990  176.2790  142.1060 O   0  0  0  0  0  1  0  0  0  0  0  0
  189.3700  171.9430  143.6700 C   0  0  0  0  0  2  0  0  0  0  0  0
  189.2480  171.5270  144.9960 O   0  0  0  0  0  1  0  0  0  0  0  0
  190.6420  168.9020  137.8700 C   0  0  0  0  0  1  0  0  0  0  0  0
  190.4810  170.3830  138.1840 C   0  0  2  0  0  3  0  0  0  0  0  0
  190.5620  173.7660  135.4630 C   0  0  0  0  0  2  0  0  0  0  0  0
  188.3920  174.5330  136.6300 C   0  0  0  0  0  1  0  0  0  0  0  0
  191.3930  172.5320  135.1160 C   0  0  2  0  0  3  0  0  0  0  0  0
  189.3240  172.3270  137.0810 C   0  0  0  0  0  3  0  0  0  0  0  0
  191.6450  171.7080  136.3740 C   0  0  0  0  0  2  0  0  0  0  0  0
  192.7130  172.9640  134.5130 C   0  0  0  0  0  1  0  0  0  0  0  0
  190.3040  171.1890  136.8950 C   0  0  1  0  0  3  0  0  0  0  0  0
  189.3860  173.4590  136.3600 C   0  0  0  0  0  0  0  0  0  0  0  0
  191.4130  177.0970  145.1670 C   0  0  0  0  0  2  0  0  0  0  0  0
  191.3240  176.9170  146.6820 C   0  0  0  0  0  2  0  0  0  0  0  0
  189.8700  176.9190  147.1390 C   0  0  0  0  0  2  0  0  0  0  0  0
  189.3490  174.6300  146.8120 O   0  0  0  0  0  0  0  0  0  0  0  0
  189.0910  175.7930  146.5350 C   0  0  0  0  0  0  0  0  0  0  0  0
  187.9420  176.1090  145.6380 C   0  0  0  0  0  2  0  0  0  0  0  0
  185.1530  177.9760  145.6520 N   0  0  0  0  0  0  0  0  0  0  0  0
  183.9350  178.6570  146.0810 C   0  0  0  0  0  1  0  0  0  0  0  0
  185.1960  177.5130  143.2030 C   0  0  0  0  0  2  0  0  0  0  0  0
  185.8300  178.1930  144.3910 C   0  0  0  0  0  0  0  0  0  0  0  0
  185.2000  179.0400  143.3090 C   0  0  0  0  0  2  0  0  0  0  0  0
  186.2220  177.6560  146.5060 C   0  0  0  0  0  0  0  0  0  0  0  0
  187.5050  177.5650  145.7610 C   0  0  2  0  0  3  0  0  0  0  0  0
  187.2360  178.0680  144.4600 O   0  0  0  0  0  0  0  0  0  0  0  0
  186.1020  177.5060  147.7520 O   0  0  0  0  0  0  0  0  0  0  0  0
  1 20  1  6  0  0  0
  1  3  1  0  0  0  0
  1 11  1  0  0  0  0
  2  5  1  0  0  0  0
  2 34  1  6  0  0  0
  3  4  1  0  0  0  0
  3 11  1  0  0  0  0
  5 12  1  0  0  0  0
  6  4  2  0  0  0  0
  7  4  1  1  0  0  0
  7  2  1  0  0  0  0
  8 14  1  0  0  0  0
  9  8  1  6  0  0  0
  9 13  1  0  0  0  0
  9  7  1  0  0  0  0
 11 22  1  6  0  0  0
 12 17  1  1  0  0  0
 13 21  1  1  0  0  0
 13 18  1  0  0  0  0
 14 10  1  6  0  0  0
 14  1  1  0  0  0  0
 16 19  2  0  0  0  0
 18 15  1  6  0  0  0
 18 12  1  0  0  0  0
 19 10  1  0  0  0  0
 19 20  1  0  0  0  0
 22 23  1  0  0  0  0
 25 24  1  6  0  0  0
 25 16  1  0  0  0  0
 26 33  1  0  0  0  0
 28 31  1  1  0  0  0
 28 26  1  0  0  0  0
 28 30  1  0  0  0  0
 30 32  1  0  0  0  0
 32 29  1  0  0  0  0
 32 25  1  1  0  0  0
 33 27  1  0  0  0  0
 33 29  2  0  0  0  0
 34 35  1  0  0  0  0
 35 36  1  0  0  0  0
 38 37  2  0  0  0  0
 38 36  1  0  0  0  0
 39 38  1  0  0  0  0
 40 41  1  0  0  0  0
 40 45  1  0  0  0  0
 42 44  1  0  0  0  0
 42 43  1  0  0  0  0
 43 47  1  0  0  0  0
 43 40  1  0  0  0  0
 44 43  1  0  0  0  0
 45 48  2  0  0  0  0
 46 39  1  6  0  0  0
 46 45  1  0  0  0  0
 47 46  1  0  0  0  0
M  END
>  <MODEL>
4

>  <REMARK>
 VINA RESULT:      -7.7      1.408      1.800
  Name = 
  9 active torsions:
  status: ('A' for Active; 'I' for Inactive)
    1  A    between atoms: C_2  and  C_8
    2  A    between atoms: C_2  and  C_10
    3  A    between atoms: C_3  and  C_10
    4  A    between atoms: C_3  and  C_32
    5  A    between atoms: C_4  and  C_24
    6  A    between atoms: C_14  and  C_32
    7  A    between atoms: C_14  and  C_34
    8  A    between atoms: C_27  and  N_40
    9  A    between atoms: C_27  and  C_47
                            x       y       z     vdW  Elec       q    Type
                         _______ _______ _______ _____ _____    ______ ____

>  <TORSDO>
F 9

$$$$
=
 OpenBabel11042417443D

 48 54  0  0  1  0  0  0  0  0999 V2000
  191.2890  174.7520  142.0030 C   0  0  2  0  0  0  0  0  0  0  0  0
  195.2760  172.9290  143.3920 C   0  0  2  0  0  3  0  0  0  0  0  0
  191.9180  173.4580  142.4000 N   0  0  0  0  0  0  0  0  0  0  0  0
  192.7300  172.8410  143.3940 C   0  0  0  0  0  0  0  0  0  0  0  0
  196.4040  173.4260  144.1800 N   0  0  0  0  0  2  0  0  0  0  0  0
  192.1010  171.6060  144.2640 S   0  0  0  0  0  0  0  0  0  0  0  0
  193.9630  173.5680  143.8940 C   0  0  2  0  0  3  0  0  0  0  0  0
  192.6790  175.6450  143.7790 O   0  0  0  0  0  0  0  0  0  0  0  0
  193.9130  175.0590  143.4640 C   0  0  1  0  0  3  0  0  0  0  0  0
  191.1090  176.9660  142.7450 O   0  0  0  0  0  0  0  0  0  0  0  0
  191.8420  173.9890  140.9990 C   0  0  1  0  0  3  0  0  0  0  0  0
  197.1490  174.4700  143.4730 C   0  0  1  0  0  3  0  0  0  0  0  0
  195.0610  175.9350  143.9650 C   0  0  2  0  0  3  0  0  0  0  0  0
  192.0750  175.9510  142.5440 C   0  0  2  0  0  3  0  0  0  0  0  0
  197.1910  176.9560  143.1670 C   0  0  0  0  0  1  0  0  0  0  0  0
  188.8230  177.4180  142.8400 N   0  0  0  0  0  0  0  0  0  0  0  0
  197.8550  173.9130  142.2480 C   0  0  0  0  0  1  0  0  0  0  0  0
  196.3150  175.7150  143.1190 C   0  0  1  0  0  3  0  0  0  0  0  0
  189.7810  176.5580  142.6910 C   0  0  0  0  0  0  0  0  0  0  0  0
  189.5050  174.8120  142.3750 S   0  0  0  0  0  0  0  0  0  0  0  0
  195.2990  175.7620  145.3330 O   0  0  0  0  0  1  0  0  0  0  0  0
  190.8460  173.1610  140.2000 C   0  0  0  0  0  2  0  0  0  0  0  0
  190.5870  173.7890  138.9810 O   0  0  0  0  0  1  0  0  0  0  0  0
  186.6650  178.1690  142.0190 C   0  0  0  0  0  1  0  0  0  0  0  0
  187.4060  177.0730  142.7730 C   0  0  2  0  0  3  0  0  0  0  0  0
  186.3690  178.0760  146.8690 C   0  0  0  0  0  2  0  0  0  0  0  0
  188.8290  177.5400  147.4370 C   0  0  0  0  0  1  0  0  0  0  0  0
  185.2420  177.7500  145.8910 C   0  0  2  0  0  3  0  0  0  0  0  0
  187.9280  177.0180  145.2340 C   0  0  0  0  0  3  0  0  0  0  0  0
  185.7300  177.9340  144.4580 C   0  0  0  0  0  2  0  0  0  0  0  0
  184.0650  178.6650  146.1520 C   0  0  0  0  0  1  0  0  0  0  0  0
  186.8410  176.9180  144.1860 C   0  0  1  0  0  3  0  0  0  0  0  0
  187.6910  177.4550  146.4820 C   0  0  0  0  0  0  0  0  0  0  0  0
  195.2820  171.3900  143.3890 C   0  0  0  0  0  2  0  0  0  0  0  0
  196.5120  170.7900  142.7100 C   0  0  0  0  0  2  0  0  0  0  0  0
  196.1240  170.0960  141.4090 C   0  0  0  0  0  2  0  0  0  0  0  0
  197.8170  171.1520  140.1310 O   0  0  0  0  0  0  0  0  0  0  0  0
  196.6420  170.8250  140.2100 C   0  0  0  0  0  0  0  0  0  0  0  0
  195.7160  171.0880  139.0690 C   0  0  0  0  0  2  0  0  0  0  0  0
  194.2920  173.9540  138.0590 N   0  0  0  0  0  0  0  0  0  0  0  0
  193.4640  174.9220  137.3450 C   0  0  0  0  0  1  0  0  0  0  0  0
  196.3550  174.9650  139.0250 C   0  0  0  0  0  2  0  0  0  0  0  0
  195.0570  174.2320  139.2550 C   0  0  0  0  0  0  0  0  0  0  0  0
  195.2040  175.6460  139.7690 C   0  0  0  0  0  2  0  0  0  0  0  0
  193.9500  172.6020  138.2390 C   0  0  0  0  0  0  0  0  0  0  0  0
  194.5880  172.0380  139.4560 C   0  0  2  0  0  3  0  0  0  0  0  0
  195.1460  173.1430  140.1520 O   0  0  0  0  0  0  0  0  0  0  0  0
  193.1680  171.9700  137.4770 O   0  0  0  0  0  0  0  0  0  0  0  0
  1 20  1  1  0  0  0
  1  3  1  0  0  0  0
  1 14  1  0  0  0  0
  2 34  1  1  0  0  0
  2  7  1  0  0  0  0
  2  5  1  0  0  0  0
  3  4  1  0  0  0  0
  4  6  2  0  0  0  0
  7  4  1  6  0  0  0
  9  8  1  1  0  0  0
  9  7  1  0  0  0  0
  9 13  1  0  0  0  0
 11 22  1  6  0  0  0
 11  1  1  0  0  0  0
 11  3  1  0  0  0  0
 12 17  1  6  0  0  0
 12  5  1  0  0  0  0
 13 21  1  1  0  0  0
 14 10  1  1  0  0  0
 14  8  1  0  0  0  0
 18 15  1  1  0  0  0
 18 12  1  0  0  0  0
 18 13  1  0  0  0  0
 19 10  1  0  0  0  0
 19 16  2  0  0  0  0
 20 19  1  0  0  0  0
 23 22  1  0  0  0  0
 25 24  1  1  0  0  0
 25 16  1  0  0  0  0
 28 31  1  1  0  0  0
 28 26  1  0  0  0  0
 29 33  2  0  0  0  0
 30 28  1  0  0  0  0
 32 25  1  6  0  0  0
 32 30  1  0  0  0  0
 32 29  1  0  0  0  0
 33 26  1  0  0  0  0
 33 27  1  0  0  0  0
 35 34  1  0  0  0  0
 36 35  1  0  0  0  0
 37 38  2  0  0  0  0
 38 36  1  0  0  0  0
 39 38  1  0  0  0  0
 40 45  1  0  0  0  0
 40 43  1  0  0  0  0
 41 40  1  0  0  0  0
 42 43  1  0  0  0  0
 42 44  1  0  0  0  0
 43 44  1  0  0  0  0
 43 47  1  0  0  0  0
 45 46  1  0  0  0  0
 46 39  1  6  0  0  0
 46 47  1  0  0  0  0
 48 45  2  0  0  0  0
M  END
>  <MODEL>
5

>  <REMARK>
 VINA RESULT:      -7.7      3.213      8.477
  Name = 
  9 active torsions:
  status: ('A' for Active; 'I' for Inactive)
    1  A    between atoms: C_2  and  C_8
    2  A    between atoms: C_2  and  C_10
    3  A    between atoms: C_3  and  C_10
    4  A    between atoms: C_3  and  C_32
    5  A    between atoms: C_4  and  C_24
    6  A    between atoms: C_14  and  C_32
    7  A    between atoms: C_14  and  C_34
    8  A    between atoms: C_27  and  N_40
    9  A    between atoms: C_27  and  C_47
                            x       y       z     vdW  Elec       q    Type
                         _______ _______ _______ _____ _____    ______ ____

>  <TORSDO>
F 9

$$$$
=
 OpenBabel11042417443D

 48 54  0  0  1  0  0  0  0  0999 V2000
  192.9800  175.5440  144.7010 C   0  0  2  0  0  0  0  0  0  0  0  0
  196.3010  173.3830  142.3670 C   0  0  2  0  0  3  0  0  0  0  0  0
  194.1280  175.7960  143.7810 N   0  0  0  0  0  0  0  0  0  0  0  0
  194.7230  175.3740  142.5570 C   0  0  0  0  0  0  0  0  0  0  0  0
  196.4120  172.0670  141.7360 N   0  0  0  0  0  2  0  0  0  0  0  0
  194.8570  176.4560  141.3370 S   0  0  0  0  0  0  0  0  0  0  0  0
  194.8450  173.8900  142.2700 C   0  0  2  0  0  3  0  0  0  0  0  0
  192.6440  173.5990  143.2930 O   0  0  0  0  0  0  0  0  0  0  0  0
  193.9470  173.0830  143.2460 C   0  0  1  0  0  3  0  0  0  0  0  0
  191.0960  174.1670  144.8930 O   0  0  0  0  0  0  0  0  0  0  0  0
  194.2070  175.7870  145.2790 C   0  0  1  0  0  3  0  0  0  0  0  0
  196.4260  170.9840  142.7220 C   0  0  1  0  0  3  0  0  0  0  0  0
  193.9130  171.5710  143.0230 C   0  0  2  0  0  3  0  0  0  0  0  0
  192.4790  174.1000  144.5990 C   0  0  2  0  0  3  0  0  0  0  0  0
  194.8650  169.4660  143.9610 C   0  0  0  0  0  1  0  0  0  0  0  0
  189.2860  175.6080  145.1830 N   0  0  0  0  0  0  0  0  0  0  0  0
  197.6880  171.0240  143.5680 C   0  0  0  0  0  1  0  0  0  0  0  0
  195.1650  170.9130  143.6020 C   0  0  1  0  0  3  0  0  0  0  0  0
  190.5400  175.4410  144.9020 C   0  0  0  0  0  0  0  0  0  0  0  0
  191.6630  176.7950  144.5420 S   0  0  0  0  0  0  0  0  0  0  0  0
  193.7060  171.2410  141.6790 O   0  0  0  0  0  1  0  0  0  0  0  0
  194.4100  177.2090  145.7810 C   0  0  0  0  0  2  0  0  0  0  0  0
  194.1930  177.2540  147.1580 O   0  0  0  0  0  1  0  0  0  0  0  0
  188.5180  177.3490  146.6920 C   0  0  0  0  0  1  0  0  0  0  0  0
  188.6330  176.9130  145.2380 C   0  0  2  0  0  3  0  0  0  0  0  0
  184.8930  178.2170  143.4570 C   0  0  0  0  0  2  0  0  0  0  0  0
  184.1030  178.6660  145.8720 C   0  0  0  0  0  1  0  0  0  0  0  0
  185.8370  177.3550  142.6200 C   0  0  2  0  0  3  0  0  0  0  0  0
  186.1910  177.4810  145.4560 C   0  0  0  0  0  3  0  0  0  0  0  0
  187.2510  177.4350  143.1870 C   0  0  0  0  0  2  0  0  0  0  0  0
  185.8320  177.8440  141.1870 C   0  0  0  0  0  1  0  0  0  0  0  0
  187.2480  176.8290  144.5920 C   0  0  1  0  0  3  0  0  0  0  0  0
  185.0750  178.0270  144.9440 C   0  0  0  0  0  0  0  0  0  0  0  0
  197.3540  174.3350  141.7740 C   0  0  0  0  0  2  0  0  0  0  0  0
  197.8720  173.8910  140.4070 C   0  0  0  0  0  2  0  0  0  0  0  0
  197.9410  175.0740  139.4480 C   0  0  0  0  0  2  0  0  0  0  0  0
  197.7830  175.2910  137.0930 O   0  0  0  0  0  0  0  0  0  0  0  0
  197.3710  174.7410  138.1050 C   0  0  0  0  0  0  0  0  0  0  0  0
  196.3360  173.6710  138.0050 C   0  0  0  0  0  2  0  0  0  0  0  0
  193.2030  173.8200  136.8130 N   0  0  0  0  0  0  0  0  0  0  0  0
  191.8320  173.4700  136.4520 C   0  0  0  0  0  1  0  0  0  0  0  0
  194.1610  175.6120  135.3700 C   0  0  0  0  0  2  0  0  0  0  0  0
  193.7680  175.1500  136.7520 C   0  0  0  0  0  0  0  0  0  0  0  0
  193.0050  176.2870  136.1120 C   0  0  0  0  0  2  0  0  0  0  0  0
  193.9040  173.2540  137.8920 C   0  0  0  0  0  0  0  0  0  0  0  0
  194.9530  174.1750  138.4010 C   0  0  2  0  0  3  0  0  0  0  0  0
  194.7240  175.4210  137.7580 O   0  0  0  0  0  0  0  0  0  0  0  0
  193.6410  172.1220  138.3820 O   0  0  0  0  0  0  0  0  0  0  0  0
  1 20  1  1  0  0  0
  1 11  1  0  0  0  0
  2 34  1  6  0  0  0
  3  1  1  0  0  0  0
  3 11  1  0  0  0  0
  4  3  1  0  0  0  0
  5  2  1  0  0  0  0
  5 12  1  0  0  0  0
  6  4  2  0  0  0  0
  7  2  1  0  0  0  0
  7  4  1  1  0  0  0
  7  9  1  0  0  0  0
  9  8  1  6  0  0  0
 10 19  1  0  0  0  0
 11 22  1  1  0  0  0
 12 17  1  1  0  0  0
 12 18  1  0  0  0  0
 13 21  1  6  0  0  0
 13  9  1  0  0  0  0
 13 18  1  0  0  0  0
 14  8  1  6  0  0  0
 14  1  1  0  0  0  0
 14 10  1  0  0  0  0
 16 25  1  0  0  0  0
 18 15  1  6  0  0  0
 19 16  2  0  0  0  0
 20 19  1  0  0  0  0
 22 23  1  0  0  0  0
 25 24  1  1  0  0  0
 26 33  1  0  0  0  0
 28 31  1  6  0  0  0
 28 30  1  0  0  0  0
 28 26  1  0  0  0  0
 30 32  1  0  0  0  0
 32 25  1  1  0  0  0
 32 29  1  0  0  0  0
 33 29  2  0  0  0  0
 33 27  1  0  0  0  0
 35 34  1  0  0  0  0
 36 35  1  0  0  0  0
 37 38  2  0  0  0  0
 38 36  1  0  0  0  0
 39 38  1  0  0  0  0
 40 45  1  0  0  0  0
 41 40  1  0  0  0  0
 42 44  1  0  0  0  0
 42 43  1  0  0  0  0
 43 40  1  0  0  0  0
 43 47  1  0  0  0  0
 44 43  1  0  0  0  0
 45 48  2  0  0  0  0
 45 46  1  0  0  0  0
 46 39  1  6  0  0  0
 47 46  1  0  0  0  0
M  END
>  <MODEL>
6

>  <REMARK>
 VINA RESULT:      -7.5      2.925      8.730
  Name = 
  9 active torsions:
  status: ('A' for Active; 'I' for Inactive)
    1  A    between atoms: C_2  and  C_8
    2  A    between atoms: C_2  and  C_10
    3  A    between atoms: C_3  and  C_10
    4  A    between atoms: C_3  and  C_32
    5  A    between atoms: C_4  and  C_24
    6  A    between atoms: C_14  and  C_32
    7  A    between atoms: C_14  and  C_34
    8  A    between atoms: C_27  and  N_40
    9  A    between atoms: C_27  and  C_47
                            x       y       z     vdW  Elec       q    Type
                         _______ _______ _______ _____ _____    ______ ____

>  <TORSDO>
F 9

$$$$
=
 OpenBabel11042417443D

 48 54  0  0  1  0  0  0  0  0999 V2000
  191.3940  174.8720  142.0270 C   0  0  2  0  0  0  0  0  0  0  0  0
  195.3170  172.8750  143.3590 C   0  0  2  0  0  3  0  0  0  0  0  0
  191.9730  173.5500  142.4080 N   0  0  0  0  0  0  0  0  0  0  0  0
  192.7690  172.8930  143.3900 C   0  0  0  0  0  0  0  0  0  0  0  0
  196.4740  173.3200  144.1370 N   0  0  0  0  0  2  0  0  0  0  0  0
  192.1000  171.6790  144.2580 S   0  0  0  0  0  0  0  0  0  0  0  0
  194.0370  173.5650  143.8800 C   0  0  2  0  0  3  0  0  0  0  0  0
  192.8390  175.6940  143.7930 O   0  0  0  0  0  0  0  0  0  0  0  0
  194.0440  175.0600  143.4600 C   0  0  1  0  0  3  0  0  0  0  0  0
  191.3140  177.0860  142.7840 O   0  0  0  0  0  0  0  0  0  0  0  0
  191.9030  174.0930  141.0120 C   0  0  1  0  0  3  0  0  0  0  0  0
  197.2530  174.3370  143.4280 C   0  0  1  0  0  3  0  0  0  0  0  0
  195.2330  175.8840  143.9530 C   0  0  2  0  0  3  0  0  0  0  0  0
  192.2350  176.0330  142.5670 C   0  0  2  0  0  3  0  0  0  0  0  0
  197.3950  176.8220  143.1380 C   0  0  0  0  0  1  0  0  0  0  0  0
  189.0500  177.6310  142.9080 N   0  0  0  0  0  0  0  0  0  0  0  0
  197.9220  173.7590  142.1920 C   0  0  0  0  0  1  0  0  0  0  0  0
  196.4670  175.6180  143.0920 C   0  0  1  0  0  3  0  0  0  0  0  0
  189.9700  176.7330  142.7440 C   0  0  0  0  0  0  0  0  0  0  0  0
  189.6180  175.0030  142.4190 S   0  0  0  0  0  0  0  0  0  0  0  0
  195.4790  175.6920  145.3170 O   0  0  0  0  0  1  0  0  0  0  0  0
  190.8650  173.3130  140.2190 C   0  0  0  0  0  2  0  0  0  0  0  0
  190.8290  173.7820  138.9060 O   0  0  0  0  0  1  0  0  0  0  0  0
  187.0760  177.7850  141.5020 C   0  0  0  0  0  1  0  0  0  0  0  0
  187.6190  177.3470  142.8550 C   0  0  2  0  0  3  0  0  0  0  0  0
  184.6460  178.2060  145.9020 C   0  0  0  0  0  2  0  0  0  0  0  0
  183.1590  179.0420  143.9650 C   0  0  0  0  0  1  0  0  0  0  0  0
  186.0990  178.0200  146.3340 C   0  0  2  0  0  3  0  0  0  0  0  0
  185.5040  178.5020  143.5780 C   0  0  0  0  0  3  0  0  0  0  0  0
  186.8620  177.2450  145.2650 C   0  0  0  0  0  2  0  0  0  0  0  0
  186.1440  177.2630  147.6450 C   0  0  0  0  0  1  0  0  0  0  0  0
  186.9000  178.0840  143.9870 C   0  0  1  0  0  3  0  0  0  0  0  0
  184.5050  178.6500  144.4650 C   0  0  0  0  0  0  0  0  0  0  0  0
  195.2580  171.3370  143.3460 C   0  0  0  0  0  2  0  0  0  0  0  0
  195.6270  170.7280  141.9940 C   0  0  0  0  0  2  0  0  0  0  0  0
  195.1270  171.6080  140.8540 C   0  0  0  0  0  2  0  0  0  0  0  0
  197.0410  170.8740  139.6640 O   0  0  0  0  0  0  0  0  0  0  0  0
  196.0870  171.6380  139.7070 C   0  0  0  0  0  0  0  0  0  0  0  0
  195.8260  172.5700  138.5710 C   0  0  0  0  0  2  0  0  0  0  0  0
  193.4520  173.4790  136.3800 N   0  0  0  0  0  0  0  0  0  0  0  0
  192.3700  173.4350  135.4000 C   0  0  0  0  0  1  0  0  0  0  0  0
  194.8180  175.5580  136.2270 C   0  0  0  0  0  2  0  0  0  0  0  0
  193.9190  174.6710  137.0540 C   0  0  0  0  0  0  0  0  0  0  0  0
  193.4240  176.0390  136.6400 C   0  0  0  0  0  2  0  0  0  0  0  0
  193.6800  172.4880  137.3510 C   0  0  0  0  0  0  0  0  0  0  0  0
  194.3770  173.0420  138.5400 C   0  0  2  0  0  3  0  0  0  0  0  0
  194.3630  174.4530  138.3780 O   0  0  0  0  0  0  0  0  0  0  0  0
  193.3010  171.2910  137.2310 O   0  0  0  0  0  0  0  0  0  0  0  0
  1  3  1  0  0  0  0
  1 20  1  1  0  0  0
  1 14  1  0  0  0  0
  2 34  1  1  0  0  0
  2  7  1  0  0  0  0
  2  5  1  0  0  0  0
  3  4  1  0  0  0  0
  4  6  2  0  0  0  0
  7  4  1  6  0  0  0
  9  8  1  1  0  0  0
  9  7  1  0  0  0  0
  9 13  1  0  0  0  0
 11 22  1  6  0  0  0
 11  1  1  0  0  0  0
 11  3  1  0  0  0  0
 12 17  1  6  0  0  0
 12  5  1  0  0  0  0
 13 21  1  1  0  0  0
 14 10  1  1  0  0  0
 14  8  1  0  0  0  0
 18 15  1  1  0  0  0
 18 12  1  0  0  0  0
 18 13  1  0  0  0  0
 19 10  1  0  0  0  0
 19 16  2  0  0  0  0
 20 19  1  0  0  0  0
 23 22  1  0  0  0  0
 25 24  1  6  0  0  0
 25 16  1  0  0  0  0
 26 28  1  0  0  0  0
 27 33  1  0  0  0  0
 28 31  1  1  0  0  0
 29 32  1  0  0  0  0
 29 33  2  0  0  0  0
 30 28  1  0  0  0  0
 32 25  1  6  0  0  0
 32 30  1  0  0  0  0
 33 26  1  0  0  0  0
 35 34  1  0  0  0  0
 36 35  1  0  0  0  0
 37 38  2  0  0  0  0
 38 36  1  0  0  0  0
 39 38  1  0  0  0  0
 40 43  1  0  0  0  0
 40 45  1  0  0  0  0
 41 40  1  0  0  0  0
 42 44  1  0  0  0  0
 42 43  1  0  0  0  0
 43 47  1  0  0  0  0
 44 43  1  0  0  0  0
 45 46  1  0  0  0  0
 46 39  1  6  0  0  0
 47 46  1  0  0  0  0
 48 45  2  0  0  0  0
M  END
>  <MODEL>
7

>  <REMARK>
 VINA RESULT:      -7.5      3.061      8.431
  Name = 
  9 active torsions:
  status: ('A' for Active; 'I' for Inactive)
    1  A    between atoms: C_2  and  C_8
    2  A    between atoms: C_2  and  C_10
    3  A    between atoms: C_3  and  C_10
    4  A    between atoms: C_3  and  C_32
    5  A    between atoms: C_4  and  C_24
    6  A    between atoms: C_14  and  C_32
    7  A    between atoms: C_14  and  C_34
    8  A    between atoms: C_27  and  N_40
    9  A    between atoms: C_27  and  C_47
                            x       y       z     vdW  Elec       q    Type
                         _______ _______ _______ _____ _____    ______ ____

>  <TORSDO>
F 9

$$$$
=
 OpenBabel11042417443D

 48 54  0  0  1  0  0  0  0  0999 V2000
  191.4690  174.6810  141.9180 C   0  0  2  0  0  0  0  0  0  0  0  0
  195.3100  172.4730  143.1540 C   0  0  2  0  0  3  0  0  0  0  0  0
  191.9880  173.3260  142.2700 N   0  0  0  0  0  0  0  0  0  0  0  0
  192.7670  172.6160  143.2280 C   0  0  0  0  0  0  0  0  0  0  0  0
  196.5000  172.8480  143.9180 N   0  0  0  0  0  2  0  0  0  0  0  0
  192.0520  171.4230  144.0900 S   0  0  0  0  0  0  0  0  0  0  0  0
  194.0740  173.2170  143.7060 C   0  0  2  0  0  3  0  0  0  0  0  0
  192.9820  175.4040  143.6710 O   0  0  0  0  0  0  0  0  0  0  0  0
  194.1490  174.7160  143.3080 C   0  0  1  0  0  3  0  0  0  0  0  0
  191.5120  176.8840  142.7090 O   0  0  0  0  0  0  0  0  0  0  0  0
  191.9230  173.8940  140.8830 C   0  0  1  0  0  3  0  0  0  0  0  0
  197.3170  173.8370  143.2110 C   0  0  1  0  0  3  0  0  0  0  0  0
  195.3850  175.4730  143.7930 C   0  0  2  0  0  3  0  0  0  0  0  0
  192.3750  175.7910  142.4600 C   0  0  2  0  0  3  0  0  0  0  0  0
  197.5770  176.3160  142.9540 C   0  0  0  0  0  1  0  0  0  0  0  0
  189.2790  177.5380  142.8790 N   0  0  0  0  0  0  0  0  0  0  0  0
  197.9360  173.2460  141.9550 C   0  0  0  0  0  1  0  0  0  0  0  0
  196.5900  175.1600  142.9070 C   0  0  1  0  0  3  0  0  0  0  0  0
  190.1510  176.5990  142.6860 C   0  0  0  0  0  0  0  0  0  0  0  0
  189.7090  174.8940  142.3420 S   0  0  0  0  0  0  0  0  0  0  0  0
  195.6430  175.2480  145.1490 O   0  0  0  0  0  1  0  0  0  0  0  0
  190.8350  173.1780  140.0970 C   0  0  0  0  0  2  0  0  0  0  0  0
  190.6540  173.8090  138.8660 O   0  0  0  0  0  1  0  0  0  0  0  0
  187.2740  177.9280  141.5660 C   0  0  0  0  0  1  0  0  0  0  0  0
  187.8360  177.3250  142.8470 C   0  0  2  0  0  3  0  0  0  0  0  0
  184.9490  178.0510  146.0090 C   0  0  0  0  0  2  0  0  0  0  0  0
  183.5550  179.2750  144.2150 C   0  0  0  0  0  1  0  0  0  0  0  0
  186.3760  177.6710  146.3990 C   0  0  2  0  0  3  0  0  0  0  0  0
  185.8380  178.5700  143.7370 C   0  0  0  0  0  3  0  0  0  0  0  0
  187.0650  176.9760  145.2280 C   0  0  0  0  0  2  0  0  0  0  0  0
  186.3450  176.7450  147.5970 C   0  0  0  0  0  1  0  0  0  0  0  0
  187.1870  177.9710  144.0730 C   0  0  1  0  0  3  0  0  0  0  0  0
  184.8550  178.6930  144.6450 C   0  0  0  0  0  0  0  0  0  0  0  0
  195.1750  170.9410  143.1190 C   0  0  0  0  0  2  0  0  0  0  0  0
  195.5140  170.3330  141.7590 C   0  0  0  0  0  2  0  0  0  0  0  0
  194.3320  170.4590  140.8040 C   0  0  0  0  0  2  0  0  0  0  0  0
  195.8320  170.4130  138.9700 O   0  0  0  0  0  0  0  0  0  0  0  0
  194.7670  170.8150  139.4180 C   0  0  0  0  0  0  0  0  0  0  0  0
  193.8480  171.6130  138.5550 C   0  0  0  0  0  2  0  0  0  0  0  0
  190.9550  170.9540  136.9870 N   0  0  0  0  0  0  0  0  0  0  0  0
  189.7940  171.0510  136.1070 C   0  0  0  0  0  1  0  0  0  0  0  0
  190.5270  169.5640  139.0110 C   0  0  0  0  0  2  0  0  0  0  0  0
  191.3270  169.7820  137.7510 C   0  0  0  0  0  0  0  0  0  0  0  0
  190.4040  168.5890  137.8380 C   0  0  0  0  0  2  0  0  0  0  0  0
  192.2070  171.5310  136.7110 C   0  0  0  0  0  0  0  0  0  0  0  0
  193.3060  170.7950  137.3880 C   0  0  2  0  0  3  0  0  0  0  0  0
  192.7220  169.6070  137.9010 O   0  0  0  0  0  0  0  0  0  0  0  0
  192.3670  172.5250  135.9510 O   0  0  0  0  0  0  0  0  0  0  0  0
  1  3  1  0  0  0  0
  1 20  1  1  0  0  0
  1 14  1  0  0  0  0
  2 34  1  1  0  0  0
  2  7  1  0  0  0  0
  2  5  1  0  0  0  0
  3  4  1  0  0  0  0
  4  6  2  0  0  0  0
  7  4  1  6  0  0  0
  9  8  1  1  0  0  0
  9  7  1  0  0  0  0
  9 13  1  0  0  0  0
 11 22  1  6  0  0  0
 11  1  1  0  0  0  0
 11  3  1  0  0  0  0
 12 17  1  6  0  0  0
 12  5  1  0  0  0  0
 13 21  1  1  0  0  0
 14 10  1  1  0  0  0
 14  8  1  0  0  0  0
 18 15  1  1  0  0  0
 18 12  1  0  0  0  0
 18 13  1  0  0  0  0
 19 10  1  0  0  0  0
 19 16  2  0  0  0  0
 20 19  1  0  0  0  0
 23 22  1  0  0  0  0
 25 24  1  6  0  0  0
 25 16  1  0  0  0  0
 26 28  1  0  0  0  0
 27 33  1  0  0  0  0
 28 31  1  1  0  0  0
 29 32  1  0  0  0  0
 29 33  2  0  0  0  0
 30 28  1  0  0  0  0
 32 25  1  6  0  0  0
 32 30  1  0  0  0  0
 33 26  1  0  0  0  0
 35 34  1  0  0  0  0
 36 35  1  0  0  0  0
 37 38  2  0  0  0  0
 38 36  1  0  0  0  0
 39 38  1  0  0  0  0
 40 43  1  0  0  0  0
 41 40  1  0  0  0  0
 43 44  1  0  0  0  0
 43 47  1  0  0  0  0
 43 42  1  0  0  0  0
 44 42  1  0  0  0  0
 45 40  1  0  0  0  0
 45 46  1  0  0  0  0
 46 47  1  0  0  0  0
 46 39  1  1  0  0  0
 48 45  2  0  0  0  0
M  END
>  <MODEL>
8

>  <REMARK>
 VINA RESULT:      -7.4      3.304      8.517
  Name = 
  9 active torsions:
  status: ('A' for Active; 'I' for Inactive)
    1  A    between atoms: C_2  and  C_8
    2  A    between atoms: C_2  and  C_10
    3  A    between atoms: C_3  and  C_10
    4  A    between atoms: C_3  and  C_32
    5  A    between atoms: C_4  and  C_24
    6  A    between atoms: C_14  and  C_32
    7  A    between atoms: C_14  and  C_34
    8  A    between atoms: C_27  and  N_40
    9  A    between atoms: C_27  and  C_47
                            x       y       z     vdW  Elec       q    Type
                         _______ _______ _______ _____ _____    ______ ____

>  <TORSDO>
F 9

$$$$
=
 OpenBabel11042417443D

 48 54  0  0  1  0  0  0  0  0999 V2000
  192.6950  171.4000  141.5160 C   0  0  2  0  0  0  0  0  0  0  0  0
  193.8270  174.2090  144.9770 C   0  0  2  0  0  3  0  0  0  0  0  0
  192.1510  172.0060  142.7670 N   0  0  0  0  0  0  0  0  0  0  0  0
  192.0150  173.2360  143.4730 C   0  0  0  0  0  0  0  0  0  0  0  0
  194.7100  175.3690  145.1000 N   0  0  0  0  0  2  0  0  0  0  0  0
  190.5100  173.7980  143.7850 S   0  0  0  0  0  0  0  0  0  0  0  0
  193.2060  174.1700  143.5630 C   0  0  2  0  0  3  0  0  0  0  0  0
  193.7390  173.5730  141.2530 O   0  0  0  0  0  0  0  0  0  0  0  0
  194.2880  173.7550  142.5300 C   0  0  1  0  0  3  0  0  0  0  0  0
  193.8340  172.0160  139.5660 O   0  0  0  0  0  0  0  0  0  0  0  0
  192.8530  170.6830  142.6820 C   0  0  1  0  0  3  0  0  0  0  0  0
  196.1210  175.0020  144.9600 C   0  0  1  0  0  3  0  0  0  0  0  0
  195.5190  174.6570  142.4570 C   0  0  2  0  0  3  0  0  0  0  0  0
  193.8800  172.2010  140.9680 C   0  0  2  0  0  3  0  0  0  0  0  0
  197.8940  174.7370  143.2110 C   0  0  0  0  0  1  0  0  0  0  0  0
  192.5340  171.2290  137.7970 N   0  0  0  0  0  0  0  0  0  0  0  0
  196.5850  174.1410  146.1230 C   0  0  0  0  0  1  0  0  0  0  0  0
  196.4770  174.3560  143.6090 C   0  0  1  0  0  3  0  0  0  0  0  0
  192.6630  171.4590  139.0660 C   0  0  0  0  0  0  0  0  0  0  0  0
  191.4000  171.0600  140.2780 S   0  0  0  0  0  0  0  0  0  0  0  0
  195.1760  176.0120  142.3840 O   0  0  0  0  0  1  0  0  0  0  0  0
  191.8440  169.5640  142.8890 C   0  0  0  0  0  2  0  0  0  0  0  0
  192.5160  168.3810  143.2010 O   0  0  0  0  0  1  0  0  0  0  0  0
  191.7850  169.6000  136.1590 C   0  0  0  0  0  1  0  0  0  0  0  0
  191.3490  170.6240  137.1980 C   0  0  2  0  0  3  0  0  0  0  0  0
  189.6500  174.5450  136.4230 C   0  0  0  0  0  2  0  0  0  0  0  0
  188.1570  174.1110  138.4820 C   0  0  0  0  0  1  0  0  0  0  0  0
  190.4160  173.8480  135.3000 C   0  0  2  0  0  3  0  0  0  0  0  0
  189.5270  172.3240  137.5520 C   0  0  0  0  0  3  0  0  0  0  0  0
  191.3390  172.7840  135.8850 C   0  0  0  0  0  2  0  0  0  0  0  0
  191.2310  174.8680  134.5340 C   0  0  0  0  0  1  0  0  0  0  0  0
  190.4820  171.7070  136.5530 C   0  0  1  0  0  3  0  0  0  0  0  0
  189.0750  173.5840  137.4370 C   0  0  0  0  0  0  0  0  0  0  0  0
  192.8060  174.2080  146.1280 C   0  0  0  0  0  2  0  0  0  0  0  0
  192.3370  175.6070  146.5240 C   0  0  0  0  0  2  0  0  0  0  0  0
  191.3770  175.5380  147.7070 C   0  0  0  0  0  2  0  0  0  0  0  0
  189.2770  174.4800  147.4070 O   0  0  0  0  0  0  0  0  0  0  0  0
  189.9480  175.4930  147.2660 C   0  0  0  0  0  0  0  0  0  0  0  0
  189.3240  176.7300  146.7130 C   0  0  0  0  0  2  0  0  0  0  0  0
  186.9120  178.2910  144.9790 N   0  0  0  0  0  0  0  0  0  0  0  0
  186.1920  179.0110  143.9320 C   0  0  0  0  0  1  0  0  0  0  0  0
  185.9210  178.6220  147.2420 C   0  0  0  0  0  2  0  0  0  0  0  0
  186.3010  177.6710  146.1340 C   0  0  0  0  0  0  0  0  0  0  0  0
  184.8380  177.8870  146.4480 C   0  0  0  0  0  2  0  0  0  0  0  0
  188.0150  177.4530  144.7460 C   0  0  0  0  0  0  0  0  0  0  0  0
  188.1420  176.4150  145.8020 C   0  0  2  0  0  3  0  0  0  0  0  0
  186.9480  176.4910  146.5680 O   0  0  0  0  0  0  0  0  0  0  0  0
  188.7720  177.5540  143.7420 O   0  0  0  0  0  0  0  0  0  0  0  0
  1 20  1  6  0  0  0
  1 11  1  0  0  0  0
  1  3  1  0  0  0  0
  2  5  1  0  0  0  0
  2 34  1  1  0  0  0
  3  4  1  0  0  0  0
  4  6  2  0  0  0  0
  7  4  1  1  0  0  0
  7  2  1  0  0  0  0
  9  8  1  6  0  0  0
  9  7  1  0  0  0  0
 11  3  1  0  0  0  0
 11 22  1  6  0  0  0
 12  5  1  0  0  0  0
 12 17  1  1  0  0  0
 13 21  1  1  0  0  0
 13  9  1  0  0  0  0
 13 18  1  0  0  0  0
 14 10  1  6  0  0  0
 14  8  1  0  0  0  0
 14  1  1  0  0  0  0
 16 19  2  0  0  0  0
 18 15  1  6  0  0  0
 18 12  1  0  0  0  0
 19 10  1  0  0  0  0
 19 20  1  0  0  0  0
 22 23  1  0  0  0  0
 25 24  1  6  0  0  0
 25 16  1  0  0  0  0
 26 33  1  0  0  0  0
 28 31  1  1  0  0  0
 28 30  1  0  0  0  0
 28 26  1  0  0  0  0
 30 32  1  0  0  0  0
 32 25  1  1  0  0  0
 32 29  1  0  0  0  0
 33 29  2  0  0  0  0
 33 27  1  0  0  0  0
 34 35  1  0  0  0  0
 35 36  1  0  0  0  0
 38 37  2  0  0  0  0
 38 36  1  0  0  0  0
 39 38  1  0  0  0  0
 40 43  1  0  0  0  0
 41 40  1  0  0  0  0
 43 44  1  0  0  0  0
 43 47  1  0  0  0  0
 43 42  1  0  0  0  0
 44 42  1  0  0  0  0
 45 40  1  0  0  0  0
 45 46  1  0  0  0  0
 46 47  1  0  0  0  0
 46 39  1  1  0  0  0
 48 45  2  0  0  0  0
M  END
>  <MODEL>
9

>  <REMARK>
 VINA RESULT:      -7.3      1.927      2.570
  Name = 
  9 active torsions:
  status: ('A' for Active; 'I' for Inactive)
    1  A    between atoms: C_2  and  C_8
    2  A    between atoms: C_2  and  C_10
    3  A    between atoms: C_3  and  C_10
    4  A    between atoms: C_3  and  C_32
    5  A    between atoms: C_4  and  C_24
    6  A    between atoms: C_14  and  C_32
    7  A    between atoms: C_14  and  C_34
    8  A    between atoms: C_27  and  N_40
    9  A    between atoms: C_27  and  C_47
                            x       y       z     vdW  Elec       q    Type
                         _______ _______ _______ _____ _____    ______ ____

>  <TORSDO>
F 9

$$$$
