=
 OpenBabel11042416303D

 29 31  0  0  1  0  0  0  0  0999 V2000
  189.8260  175.9210  145.9860 C   0  0  1  0  0  3  0  0  0  0  0  0
  189.3380  174.8960  144.9400 C   0  0  1  0  0  3  0  0  0  0  0  0
  188.7250  174.6250  141.3010 C   0  0  0  0  0  1  0  0  0  0  0  0
  189.3220  174.2520  142.5710 N   0  0  0  0  0  0  0  0  0  0  0  0
  189.7280  175.2950  143.5100 C   0  0  0  0  0  2  0  0  0  0  0  0
  189.8490  173.5060  145.2490 C   0  0  0  0  0  3  0  0  0  0  0  0
  189.3890  171.9590  142.0790 O   0  0  0  0  0  0  0  0  0  0  0  0
  189.5220  172.8780  142.9300 C   0  0  0  0  0  0  0  0  0  0  0  0
  189.8940  172.5540  144.3140 C   0  0  0  0  0  3  0  0  0  0  0  0
  188.7700  176.9470  146.4200 C   0  0  2  0  0  3  0  0  0  0  0  0
  189.2840  177.8350  147.3700 O   0  0  0  0  0  1  0  0  0  0  0  0
  187.5220  176.2550  146.9510 C   0  0  0  0  0  2  0  0  0  0  0  0
  186.3700  177.2040  147.0180 C   0  0  0  0  0  0  0  0  0  0  0  0
  186.1230  177.7990  148.0560 O   0  0  0  0  0  0  0  0  0  0  0  0
  185.5480  177.4490  145.7970 C   0  0  0  0  0  2  0  0  0  0  0  0
  185.6090  178.9170  145.4120 C   0  0  0  0  0  2  0  0  0  0  0  0
  185.9760  177.1650  141.7440 O   0  0  0  0  0  0  0  0  0  0  0  0
  187.1210  178.2560  143.5370 C   0  0  0  0  0  2  0  0  0  0  0  0
  184.6720  178.6420  143.1080 C   0  0  0  0  0  0  0  0  0  0  0  0
  187.1210  177.9230  142.0470 C   0  0  0  0  0  2  0  0  0  0  0  0
  183.5370  178.8830  143.4900 O   0  0  0  0  0  0  0  0  0  0  0  0
  184.8880  178.0560  141.7390 C   0  0  0  0  0  2  0  0  0  0  0  0
  185.8720  179.0650  143.9210 C   0  0  1  0  0  3  0  0  0  0  0  0
  190.4530  175.2570  147.2160 C   0  0  0  0  0  2  0  0  0  0  0  0
  191.8500  175.7830  147.5100 C   0  0  0  0  0  2  0  0  0  0  0  0
  195.1180  175.3360  145.7220 C   0  0  0  0  0  1  0  0  0  0  0  0
  194.1040  176.0410  146.5980 C   0  0  2  0  0  3  0  0  0  0  0  0
  192.7550  175.5030  146.3290 C   0  0  2  0  0  3  0  0  0  0  0  0
  193.1860  176.7240  145.7810 O   0  0  0  0  0  0  0  0  0  0  0  0
  1 10  1  0  0  0  0
  1 24  1  1  0  0  0
  2  6  1  0  0  0  0
  2  1  1  1  0  0  0
  3  4  1  0  0  0  0
  4  8  1  0  0  0  0
  4  5  1  0  0  0  0
  5  2  1  0  0  0  0
  7  8  2  0  0  0  0
  8  9  1  0  0  0  0
  9  6  2  0  0  0  0
 10 12  1  0  0  0  0
 10 11  1  1  0  0  0
 12 13  1  0  0  0  0
 13 14  2  0  0  0  0
 15 13  1  0  0  0  0
 16 15  1  0  0  0  0
 17 20  1  0  0  0  0
 18 23  1  0  0  0  0
 19 21  2  0  0  0  0
 19 23  1  0  0  0  0
 20 18  1  0  0  0  0
 22 17  1  0  0  0  0
 22 19  1  0  0  0  0
 23 16  1  1  0  0  0
 24 25  1  0  0  0  0
 27 26  1  6  0  0  0
 28 27  1  0  0  0  0
 28 25  1  1  0  0  0
 29 28  1  0  0  0  0
 29 27  1  0  0  0  0
M  END
>  <MODEL>
1

>  <REMARK>
 VINA RESULT:      -6.8      0.000      0.000
  Name = 
  10 active torsions:
  status: ('A' for Active; 'I' for Inactive)
    1  A    between atoms: C_2  and  C_9
    2  A    between atoms: C_8  and  C_14
    3  A    between atoms: C_8  and  C_16
    4  A    between atoms: C_9  and  C_11
    5  A    between atoms: C_9  and  C_28
    6  A    between atoms: C_11  and  C_25
    7  A    between atoms: C_14  and  C_29
    8  A    between atoms: C_16  and  C_25
    9  A    between atoms: C_20  and  C_27
   10  A    between atoms: C_27  and  C_28
                            x       y       z     vdW  Elec       q    Type
                         _______ _______ _______ _____ _____    ______ ____

>  <TORSDO>
F 10

$$$$
=
 OpenBabel11042416303D

 29 31  0  0  1  0  0  0  0  0999 V2000
  192.3790  175.6660  145.2340 C   0  0  1  0  0  3  0  0  0  0  0  0
  191.6040  176.1460  143.9890 C   0  0  1  0  0  3  0  0  0  0  0  0
  189.0810  174.9280  141.5710 C   0  0  0  0  0  1  0  0  0  0  0  0
  189.6230  175.8270  142.5740 N   0  0  0  0  0  0  0  0  0  0  0  0
  190.3680  175.2800  143.7050 C   0  0  0  0  0  2  0  0  0  0  0  0
  191.2030  177.5990  144.1140 C   0  0  0  0  0  3  0  0  0  0  0  0
  188.6400  177.7470  141.6510 O   0  0  0  0  0  0  0  0  0  0  0  0
  189.4460  177.2470  142.4800 C   0  0  0  0  0  0  0  0  0  0  0  0
  190.2200  178.1190  143.3750 C   0  0  0  0  0  3  0  0  0  0  0  0
  191.9000  176.2700  146.5620 C   0  0  2  0  0  3  0  0  0  0  0  0
  192.9660  176.8050  147.2910 O   0  0  0  0  0  1  0  0  0  0  0  0
  191.1450  175.2380  147.3900 C   0  0  0  0  0  2  0  0  0  0  0  0
  189.6710  175.4650  147.3150 C   0  0  0  0  0  0  0  0  0  0  0  0
  188.8940  174.5710  147.6160 O   0  0  0  0  0  0  0  0  0  0  0  0
  189.1520  176.8040  146.9070 C   0  0  0  0  0  2  0  0  0  0  0  0
  187.9460  176.6430  145.9990 C   0  0  0  0  0  2  0  0  0  0  0  0
  184.3090  178.3430  145.2660 O   0  0  0  0  0  0  0  0  0  0  0  0
  186.6320  178.3240  144.7010 C   0  0  0  0  0  2  0  0  0  0  0  0
  185.8160  177.5480  146.9510 C   0  0  0  0  0  0  0  0  0  0  0  0
  185.3420  179.1410  144.7420 C   0  0  0  0  0  2  0  0  0  0  0  0
  185.9000  176.8340  147.9380 O   0  0  0  0  0  0  0  0  0  0  0  0
  184.5240  178.2600  146.6540 C   0  0  0  0  0  2  0  0  0  0  0  0
  187.0320  177.8540  146.1080 C   0  0  1  0  0  3  0  0  0  0  0  0
  192.4370  174.1380  145.3400 C   0  0  0  0  0  2  0  0  0  0  0  0
  193.8620  173.6210  145.4760 C   0  0  0  0  0  2  0  0  0  0  0  0
  196.8490  175.2460  143.8940 C   0  0  0  0  0  1  0  0  0  0  0  0
  196.0980  174.1810  144.6630 C   0  0  2  0  0  3  0  0  0  0  0  0
  194.8370  174.7420  145.1880 C   0  0  2  0  0  3  0  0  0  0  0  0
  195.9710  174.5850  146.0040 O   0  0  0  0  0  0  0  0  0  0  0  0
  1 24  1  1  0  0  0
  1 10  1  0  0  0  0
  2  6  1  0  0  0  0
  2  1  1  1  0  0  0
  3  4  1  0  0  0  0
  4  5  1  0  0  0  0
  5  2  1  0  0  0  0
  7  8  2  0  0  0  0
  8  4  1  0  0  0  0
  8  9  1  0  0  0  0
  9  6  2  0  0  0  0
 10 11  1  1  0  0  0
 10 12  1  0  0  0  0
 13 12  1  0  0  0  0
 13 14  2  0  0  0  0
 15 13  1  0  0  0  0
 16 15  1  0  0  0  0
 17 22  1  0  0  0  0
 18 20  1  0  0  0  0
 18 23  1  0  0  0  0
 19 21  2  0  0  0  0
 20 17  1  0  0  0  0
 22 19  1  0  0  0  0
 23 16  1  6  0  0  0
 23 19  1  0  0  0  0
 24 25  1  0  0  0  0
 27 26  1  6  0  0  0
 27 28  1  0  0  0  0
 27 29  1  0  0  0  0
 28 25  1  1  0  0  0
 28 29  1  0  0  0  0
M  END
>  <MODEL>
2

>  <REMARK>
 VINA RESULT:      -6.7      2.052      3.654
  Name = 
  10 active torsions:
  status: ('A' for Active; 'I' for Inactive)
    1  A    between atoms: C_2  and  C_9
    2  A    between atoms: C_8  and  C_14
    3  A    between atoms: C_8  and  C_16
    4  A    between atoms: C_9  and  C_11
    5  A    between atoms: C_9  and  C_28
    6  A    between atoms: C_11  and  C_25
    7  A    between atoms: C_14  and  C_29
    8  A    between atoms: C_16  and  C_25
    9  A    between atoms: C_20  and  C_27
   10  A    between atoms: C_27  and  C_28
                            x       y       z     vdW  Elec       q    Type
                         _______ _______ _______ _____ _____    ______ ____

>  <TORSDO>
F 10

$$$$
=
 OpenBabel11042416303D

 29 31  0  0  1  0  0  0  0  0999 V2000
  188.1820  177.6130  144.7600 C   0  0  1  0  0  3  0  0  0  0  0  0
  189.7060  177.6190  145.0000 C   0  0  1  0  0  3  0  0  0  0  0  0
  192.2920  175.7570  146.8820 C   0  0  0  0  0  1  0  0  0  0  0  0
  191.6640  176.3130  145.6960 N   0  0  0  0  0  0  0  0  0  0  0  0
  190.2100  176.2860  145.5710 C   0  0  0  0  0  2  0  0  0  0  0  0
  190.4640  177.9620  143.7370 C   0  0  0  0  0  3  0  0  0  0  0  0
  193.6940  176.7490  144.6020 O   0  0  0  0  0  0  0  0  0  0  0  0
  192.4420  176.8920  144.6400 C   0  0  0  0  0  0  0  0  0  0  0  0
  191.7550  177.6570  143.5910 C   0  0  0  0  0  3  0  0  0  0  0  0
  187.7650  177.6200  143.2820 C   0  0  2  0  0  3  0  0  0  0  0  0
  186.8380  178.6340  143.0200 O   0  0  0  0  0  1  0  0  0  0  0  0
  187.2120  176.2640  142.8650 C   0  0  0  0  0  2  0  0  0  0  0  0
  187.7550  175.8490  141.5360 C   0  0  0  0  0  0  0  0  0  0  0  0
  187.4150  176.4400  140.5210 O   0  0  0  0  0  0  0  0  0  0  0  0
  188.7450  174.7360  141.4610 C   0  0  0  0  0  2  0  0  0  0  0  0
  189.0760  174.2360  142.8560 C   0  0  0  0  0  2  0  0  0  0  0  0
  192.8920  173.5260  144.1150 O   0  0  0  0  0  0  0  0  0  0  0  0
  191.5020  174.1450  142.2710 C   0  0  0  0  0  2  0  0  0  0  0  0
  190.6150  172.7840  144.1930 C   0  0  0  0  0  0  0  0  0  0  0  0
  192.8270  173.5260  142.7110 C   0  0  0  0  0  2  0  0  0  0  0  0
  189.7160  172.4450  144.9470 O   0  0  0  0  0  0  0  0  0  0  0  0
  192.0450  172.4960  144.5620 C   0  0  0  0  0  2  0  0  0  0  0  0
  190.3110  173.3480  142.8250 C   0  0  1  0  0  3  0  0  0  0  0  0
  187.4720  176.4760  145.5020 C   0  0  0  0  0  2  0  0  0  0  0  0
  186.4640  176.9900  146.5200 C   0  0  0  0  0  2  0  0  0  0  0  0
  183.8600  179.0830  144.8150 C   0  0  0  0  0  1  0  0  0  0  0  0
  184.8390  178.7100  145.9070 C   0  0  2  0  0  3  0  0  0  0  0  0
  185.1460  177.2680  145.8290 C   0  0  2  0  0  3  0  0  0  0  0  0
  184.2340  177.7790  146.7690 O   0  0  0  0  0  0  0  0  0  0  0  0
  1 24  1  6  0  0  0
  2  1  1  6  0  0  0
  2  5  1  0  0  0  0
  4  3  1  0  0  0  0
  5  4  1  0  0  0  0
  6  2  1  0  0  0  0
  7  8  2  0  0  0  0
  8  4  1  0  0  0  0
  9  6  2  0  0  0  0
  9  8  1  0  0  0  0
 10 11  1  1  0  0  0
 10  1  1  0  0  0  0
 12 10  1  0  0  0  0
 13 12  1  0  0  0  0
 14 13  2  0  0  0  0
 15 13  1  0  0  0  0
 15 16  1  0  0  0  0
 17 22  1  0  0  0  0
 18 20  1  0  0  0  0
 18 23  1  0  0  0  0
 19 22  1  0  0  0  0
 19 21  2  0  0  0  0
 20 17  1  0  0  0  0
 23 16  1  1  0  0  0
 23 19  1  0  0  0  0
 24 25  1  0  0  0  0
 27 26  1  6  0  0  0
 27 29  1  0  0  0  0
 28 27  1  0  0  0  0
 28 25  1  1  0  0  0
 28 29  1  0  0  0  0
M  END
>  <MODEL>
3

>  <REMARK>
 VINA RESULT:      -6.7      2.119      6.730
  Name = 
  10 active torsions:
  status: ('A' for Active; 'I' for Inactive)
    1  A    between atoms: C_2  and  C_9
    2  A    between atoms: C_8  and  C_14
    3  A    between atoms: C_8  and  C_16
    4  A    between atoms: C_9  and  C_11
    5  A    between atoms: C_9  and  C_28
    6  A    between atoms: C_11  and  C_25
    7  A    between atoms: C_14  and  C_29
    8  A    between atoms: C_16  and  C_25
    9  A    between atoms: C_20  and  C_27
   10  A    between atoms: C_27  and  C_28
                            x       y       z     vdW  Elec       q    Type
                         _______ _______ _______ _____ _____    ______ ____

>  <TORSDO>
F 10

$$$$
=
 OpenBabel11042416303D

 29 31  0  0  1  0  0  0  0  0999 V2000
  188.0730  176.3370  144.7270 C   0  0  1  0  0  3  0  0  0  0  0  0
  188.9690  175.3790  143.9140 C   0  0  1  0  0  3  0  0  0  0  0  0
  188.7050  172.7860  141.2880 C   0  0  0  0  0  1  0  0  0  0  0  0
  189.1830  174.0240  141.8790 N   0  0  0  0  0  0  0  0  0  0  0  0
  188.2650  174.8510  142.6570 C   0  0  0  0  0  2  0  0  0  0  0  0
  190.2800  176.0350  143.5390 C   0  0  0  0  0  3  0  0  0  0  0  0
  191.3070  173.8930  140.8900 O   0  0  0  0  0  0  0  0  0  0  0  0
  190.5410  174.4540  141.7190 C   0  0  0  0  0  0  0  0  0  0  0  0
  191.0320  175.5720  142.5370 C   0  0  0  0  0  3  0  0  0  0  0  0
  188.2670  176.2620  146.2490 C   0  0  2  0  0  3  0  0  0  0  0  0
  187.0470  176.3770  146.9230 O   0  0  0  0  0  1  0  0  0  0  0  0
  189.2490  177.3230  146.7270 C   0  0  0  0  0  2  0  0  0  0  0  0
  190.3990  176.7010  147.4500 C   0  0  0  0  0  0  0  0  0  0  0  0
  191.0220  177.3450  148.2820 O   0  0  0  0  0  0  0  0  0  0  0  0
  190.7560  175.2780  147.1800 C   0  0  0  0  0  2  0  0  0  0  0  0
  192.2630  175.1000  147.2230 C   0  0  0  0  0  2  0  0  0  0  0  0
  195.6140  175.6160  144.9510 O   0  0  0  0  0  0  0  0  0  0  0  0
  193.9520  176.6890  146.2940 C   0  0  0  0  0  2  0  0  0  0  0  0
  193.4990  174.5040  145.1300 C   0  0  0  0  0  0  0  0  0  0  0  0
  194.9670  176.8460  145.1630 C   0  0  0  0  0  2  0  0  0  0  0  0
  192.9510  173.4150  145.0610 O   0  0  0  0  0  0  0  0  0  0  0  0
  194.7010  174.7890  144.2710 C   0  0  0  0  0  2  0  0  0  0  0  0
  192.8990  175.6260  145.9440 C   0  0  1  0  0  3  0  0  0  0  0  0
  188.1790  177.7900  144.2540 C   0  0  0  0  0  2  0  0  0  0  0  0
  186.8830  178.2940  143.6370 C   0  0  0  0  0  2  0  0  0  0  0  0
  184.1110  178.5310  146.1530 C   0  0  0  0  0  1  0  0  0  0  0  0
  184.7320  178.2640  144.7990 C   0  0  2  0  0  3  0  0  0  0  0  0
  186.0360  178.9510  144.7060 C   0  0  2  0  0  3  0  0  0  0  0  0
  184.8780  179.4830  144.1120 O   0  0  0  0  0  0  0  0  0  0  0  0
  1 24  1  6  0  0  0
  1 10  1  0  0  0  0
  2  1  1  6  0  0  0
  3  4  1  0  0  0  0
  4  5  1  0  0  0  0
  5  2  1  0  0  0  0
  6  2  1  0  0  0  0
  7  8  2  0  0  0  0
  8  4  1  0  0  0  0
  8  9  1  0  0  0  0
  9  6  2  0  0  0  0
 10 12  1  0  0  0  0
 10 11  1  1  0  0  0
 12 13  1  0  0  0  0
 13 14  2  0  0  0  0
 15 16  1  0  0  0  0
 15 13  1  0  0  0  0
 17 20  1  0  0  0  0
 19 23  1  0  0  0  0
 20 18  1  0  0  0  0
 21 19  2  0  0  0  0
 22 17  1  0  0  0  0
 22 19  1  0  0  0  0
 23 18  1  0  0  0  0
 23 16  1  1  0  0  0
 25 24  1  0  0  0  0
 27 26  1  1  0  0  0
 28 25  1  6  0  0  0
 28 27  1  0  0  0  0
 29 28  1  0  0  0  0
 29 27  1  0  0  0  0
M  END
>  <MODEL>
4

>  <REMARK>
 VINA RESULT:      -6.6      1.794      6.606
  Name = 
  10 active torsions:
  status: ('A' for Active; 'I' for Inactive)
    1  A    between atoms: C_2  and  C_9
    2  A    between atoms: C_8  and  C_14
    3  A    between atoms: C_8  and  C_16
    4  A    between atoms: C_9  and  C_11
    5  A    between atoms: C_9  and  C_28
    6  A    between atoms: C_11  and  C_25
    7  A    between atoms: C_14  and  C_29
    8  A    between atoms: C_16  and  C_25
    9  A    between atoms: C_20  and  C_27
   10  A    between atoms: C_27  and  C_28
                            x       y       z     vdW  Elec       q    Type
                         _______ _______ _______ _____ _____    ______ ____

>  <TORSDO>
F 10

$$$$
=
 OpenBabel11042416303D

 29 31  0  0  1  0  0  0  0  0999 V2000
  190.9520  175.9550  144.8980 C   0  0  1  0  0  3  0  0  0  0  0  0
  190.5030  174.7440  144.0540 C   0  0  1  0  0  3  0  0  0  0  0  0
  191.4320  172.9380  140.9610 C   0  0  0  0  0  1  0  0  0  0  0  0
  191.1580  173.0720  142.3810 N   0  0  0  0  0  0  0  0  0  0  0  0
  191.5990  174.2700  143.0900 C   0  0  0  0  0  2  0  0  0  0  0  0
  190.0500  173.5970  144.9300 C   0  0  0  0  0  3  0  0  0  0  0  0
  190.2490  170.9200  142.5960 O   0  0  0  0  0  0  0  0  0  0  0  0
  190.4590  172.0520  143.1070 C   0  0  0  0  0  0  0  0  0  0  0  0
  189.9920  172.3460  144.4690 C   0  0  0  0  0  3  0  0  0  0  0  0
  189.8910  177.0540  145.0610 C   0  0  2  0  0  3  0  0  0  0  0  0
  190.3840  178.3010  144.6640 O   0  0  0  0  0  1  0  0  0  0  0  0
  189.3780  177.1090  146.4940 C   0  0  0  0  0  2  0  0  0  0  0  0
  188.1220  176.3150  146.6450 C   0  0  0  0  0  0  0  0  0  0  0  0
  188.0870  175.3580  147.4040 O   0  0  0  0  0  0  0  0  0  0  0  0
  186.8990  176.7230  145.8930 C   0  0  0  0  0  2  0  0  0  0  0  0
  186.5460  178.1650  146.2120 C   0  0  0  0  0  2  0  0  0  0  0  0
  184.5390  177.9240  142.6670 O   0  0  0  0  0  0  0  0  0  0  0  0
  186.6580  178.2710  143.7190 C   0  0  0  0  0  2  0  0  0  0  0  0
  184.4970  178.7680  144.9090 C   0  0  0  0  0  0  0  0  0  0  0  0
  185.7980  178.5230  142.4820 C   0  0  0  0  0  2  0  0  0  0  0  0
  183.8170  178.8380  145.9210 O   0  0  0  0  0  0  0  0  0  0  0  0
  183.8260  178.7420  143.5620 C   0  0  0  0  0  2  0  0  0  0  0  0
  186.0030  178.8660  144.9750 C   0  0  1  0  0  3  0  0  0  0  0  0
  191.5030  175.5480  146.2680 C   0  0  0  0  0  2  0  0  0  0  0  0
  192.8880  176.1210  146.5290 C   0  0  0  0  0  2  0  0  0  0  0  0
  195.3170  176.1370  143.6700 C   0  0  0  0  0  1  0  0  0  0  0  0
  194.8870  176.1370  145.1220 C   0  0  2  0  0  3  0  0  0  0  0  0
  193.4900  176.6040  145.2260 C   0  0  2  0  0  3  0  0  0  0  0  0
  194.5750  177.4530  145.5080 O   0  0  0  0  0  0  0  0  0  0  0  0
  1 10  1  0  0  0  0
  1 24  1  1  0  0  0
  2  1  1  1  0  0  0
  2  6  1  0  0  0  0
  3  4  1  0  0  0  0
  4  5  1  0  0  0  0
  4  8  1  0  0  0  0
  5  2  1  0  0  0  0
  7  8  2  0  0  0  0
  8  9  1  0  0  0  0
  9  6  2  0  0  0  0
 10 11  1  1  0  0  0
 10 12  1  0  0  0  0
 12 13  1  0  0  0  0
 13 14  2  0  0  0  0
 15 16  1  0  0  0  0
 15 13  1  0  0  0  0
 17 22  1  0  0  0  0
 18 23  1  0  0  0  0
 19 23  1  0  0  0  0
 19 21  2  0  0  0  0
 20 17  1  0  0  0  0
 20 18  1  0  0  0  0
 22 19  1  0  0  0  0
 23 16  1  1  0  0  0
 24 25  1  0  0  0  0
 27 26  1  6  0  0  0
 27 28  1  0  0  0  0
 27 29  1  0  0  0  0
 28 29  1  0  0  0  0
 28 25  1  1  0  0  0
M  END
>  <MODEL>
5

>  <REMARK>
 VINA RESULT:      -6.5      1.593      1.877
  Name = 
  10 active torsions:
  status: ('A' for Active; 'I' for Inactive)
    1  A    between atoms: C_2  and  C_9
    2  A    between atoms: C_8  and  C_14
    3  A    between atoms: C_8  and  C_16
    4  A    between atoms: C_9  and  C_11
    5  A    between atoms: C_9  and  C_28
    6  A    between atoms: C_11  and  C_25
    7  A    between atoms: C_14  and  C_29
    8  A    between atoms: C_16  and  C_25
    9  A    between atoms: C_20  and  C_27
   10  A    between atoms: C_27  and  C_28
                            x       y       z     vdW  Elec       q    Type
                         _______ _______ _______ _____ _____    ______ ____

>  <TORSDO>
F 10

$$$$
=
 OpenBabel11042416303D

 29 31  0  0  1  0  0  0  0  0999 V2000
  190.4790  174.1150  145.9120 C   0  0  1  0  0  3  0  0  0  0  0  0
  191.9040  174.6280  145.6150 C   0  0  1  0  0  3  0  0  0  0  0  0
  193.9350  175.8950  142.7930 C   0  0  0  0  0  1  0  0  0  0  0  0
  193.3200  175.9500  144.1080 N   0  0  0  0  0  0  0  0  0  0  0  0
  191.9750  175.4130  144.2970 C   0  0  0  0  0  2  0  0  0  0  0  0
  192.4350  175.4720  146.7520 C   0  0  0  0  0  3  0  0  0  0  0  0
  195.0670  177.1800  145.0760 O   0  0  0  0  0  0  0  0  0  0  0  0
  194.0060  176.5190  145.2310 C   0  0  0  0  0  0  0  0  0  0  0  0
  193.4470  176.3250  146.5760 C   0  0  0  0  0  3  0  0  0  0  0  0
  189.6470  175.0240  146.8290 C   0  0  2  0  0  3  0  0  0  0  0  0
  188.8940  174.2760  147.7400 O   0  0  0  0  0  1  0  0  0  0  0  0
  188.7470  175.9440  146.0150 C   0  0  0  0  0  2  0  0  0  0  0  0
  188.4380  177.1960  146.7690 C   0  0  0  0  0  0  0  0  0  0  0  0
  189.3410  177.8560  147.2620 O   0  0  0  0  0  0  0  0  0  0  0  0
  187.0240  177.6570  146.8810 C   0  0  0  0  0  2  0  0  0  0  0  0
  186.1110  176.7410  146.0850 C   0  0  0  0  0  2  0  0  0  0  0  0
  186.0200  179.5150  143.0920 O   0  0  0  0  0  0  0  0  0  0  0  0
  185.4590  179.0440  145.3680 C   0  0  0  0  0  2  0  0  0  0  0  0
  185.6960  177.2100  143.6610 C   0  0  0  0  0  0  0  0  0  0  0  0
  185.1410  179.8770  144.1290 C   0  0  0  0  0  2  0  0  0  0  0  0
  185.9880  176.0670  143.3430 O   0  0  0  0  0  0  0  0  0  0  0  0
  185.5790  178.2720  142.6020 C   0  0  0  0  0  2  0  0  0  0  0  0
  185.2970  177.5440  145.0800 C   0  0  1  0  0  3  0  0  0  0  0  0
  189.6920  173.7890  144.6390 C   0  0  0  0  0  2  0  0  0  0  0  0
  189.6980  172.3010  144.3180 C   0  0  0  0  0  2  0  0  0  0  0  0
  190.6120  170.9560  140.9380 C   0  0  0  0  0  1  0  0  0  0  0  0
  190.8500  171.6470  142.2640 C   0  0  2  0  0  3  0  0  0  0  0  0
  189.5620  172.1050  142.8240 C   0  0  2  0  0  3  0  0  0  0  0  0
  190.4360  172.9870  142.1630 O   0  0  0  0  0  0  0  0  0  0  0  0
  1 24  1  6  0  0  0
  1 10  1  0  0  0  0
  2  1  1  1  0  0  0
  2  6  1  0  0  0  0
  3  4  1  0  0  0  0
  4  5  1  0  0  0  0
  4  8  1  0  0  0  0
  5  2  1  0  0  0  0
  7  8  2  0  0  0  0
  8  9  1  0  0  0  0
  9  6  2  0  0  0  0
 10 11  1  1  0  0  0
 12 13  1  0  0  0  0
 12 10  1  0  0  0  0
 13 15  1  0  0  0  0
 13 14  2  0  0  0  0
 16 15  1  0  0  0  0
 17 20  1  0  0  0  0
 19 23  1  0  0  0  0
 20 18  1  0  0  0  0
 21 19  2  0  0  0  0
 22 17  1  0  0  0  0
 22 19  1  0  0  0  0
 23 18  1  0  0  0  0
 23 16  1  1  0  0  0
 25 24  1  0  0  0  0
 27 26  1  6  0  0  0
 27 28  1  0  0  0  0
 28 25  1  1  0  0  0
 29 27  1  0  0  0  0
 29 28  1  0  0  0  0
M  END
>  <MODEL>
6

>  <REMARK>
 VINA RESULT:      -6.5      1.820      4.273
  Name = 
  10 active torsions:
  status: ('A' for Active; 'I' for Inactive)
    1  A    between atoms: C_2  and  C_9
    2  A    between atoms: C_8  and  C_14
    3  A    between atoms: C_8  and  C_16
    4  A    between atoms: C_9  and  C_11
    5  A    between atoms: C_9  and  C_28
    6  A    between atoms: C_11  and  C_25
    7  A    between atoms: C_14  and  C_29
    8  A    between atoms: C_16  and  C_25
    9  A    between atoms: C_20  and  C_27
   10  A    between atoms: C_27  and  C_28
                            x       y       z     vdW  Elec       q    Type
                         _______ _______ _______ _____ _____    ______ ____

>  <TORSDO>
F 10

$$$$
=
 OpenBabel11042416303D

 29 31  0  0  1  0  0  0  0  0999 V2000
  190.6590  176.2610  145.3430 C   0  0  1  0  0  3  0  0  0  0  0  0
  192.0860  175.7490  145.6300 C   0  0  1  0  0  3  0  0  0  0  0  0
  194.0830  172.6410  145.4140 C   0  0  0  0  0  1  0  0  0  0  0  0
  193.7710  174.0320  145.1390 N   0  0  0  0  0  0  0  0  0  0  0  0
  192.3840  174.4270  144.9070 C   0  0  0  0  0  2  0  0  0  0  0  0
  193.1280  176.7840  145.2700 C   0  0  0  0  0  3  0  0  0  0  0  0
  196.0150  174.7150  145.0730 O   0  0  0  0  0  0  0  0  0  0  0  0
  194.7960  175.0340  145.0920 C   0  0  0  0  0  0  0  0  0  0  0  0
  194.4030  176.4500  145.0600 C   0  0  0  0  0  3  0  0  0  0  0  0
  189.8280  176.5830  146.5940 C   0  0  2  0  0  3  0  0  0  0  0  0
  190.5990  176.4820  147.7570 O   0  0  0  0  0  1  0  0  0  0  0  0
  188.6030  175.6830  146.6810 C   0  0  0  0  0  2  0  0  0  0  0  0
  187.3440  176.4810  146.5850 C   0  0  0  0  0  0  0  0  0  0  0  0
  186.6990  176.7360  147.5920 O   0  0  0  0  0  0  0  0  0  0  0  0
  186.9000  176.9980  145.2580 C   0  0  0  0  0  2  0  0  0  0  0  0
  186.5940  178.4830  145.3510 C   0  0  0  0  0  2  0  0  0  0  0  0
  184.4140  177.6160  142.0120 O   0  0  0  0  0  0  0  0  0  0  0  0
  186.5510  178.2690  142.8630 C   0  0  0  0  0  2  0  0  0  0  0  0
  184.4260  178.7410  144.1270 C   0  0  0  0  0  0  0  0  0  0  0  0
  185.6010  178.2850  141.6670 C   0  0  0  0  0  2  0  0  0  0  0  0
  183.8030  178.8890  145.1670 O   0  0  0  0  0  0  0  0  0  0  0  0
  183.6840  178.4840  142.8430 C   0  0  0  0  0  2  0  0  0  0  0  0
  185.9190  178.9680  144.0760 C   0  0  1  0  0  3  0  0  0  0  0  0
  190.6420  177.4520  144.3800 C   0  0  0  0  0  2  0  0  0  0  0  0
  190.3400  177.0350  142.9480 C   0  0  0  0  0  2  0  0  0  0  0  0
  189.2150  173.4790  142.5450 C   0  0  0  0  0  1  0  0  0  0  0  0
  189.8830  174.7750  142.1360 C   0  0  2  0  0  3  0  0  0  0  0  0
  189.3550  175.8860  142.9530 C   0  0  2  0  0  3  0  0  0  0  0  0
  188.9080  175.6580  141.6390 O   0  0  0  0  0  0  0  0  0  0  0  0
  1 24  1  6  0  0  0
  1 10  1  0  0  0  0
  2  1  1  6  0  0  0
  4  3  1  0  0  0  0
  5  4  1  0  0  0  0
  5  2  1  0  0  0  0
  6  2  1  0  0  0  0
  7  8  2  0  0  0  0
  8  4  1  0  0  0  0
  9  8  1  0  0  0  0
  9  6  2  0  0  0  0
 10 12  1  0  0  0  0
 10 11  1  1  0  0  0
 13 12  1  0  0  0  0
 13 14  2  0  0  0  0
 15 16  1  0  0  0  0
 15 13  1  0  0  0  0
 17 22  1  0  0  0  0
 18 23  1  0  0  0  0
 19 21  2  0  0  0  0
 20 17  1  0  0  0  0
 20 18  1  0  0  0  0
 22 19  1  0  0  0  0
 23 19  1  0  0  0  0
 23 16  1  1  0  0  0
 25 24  1  0  0  0  0
 27 26  1  1  0  0  0
 27 28  1  0  0  0  0
 28 25  1  6  0  0  0
 29 27  1  0  0  0  0
 29 28  1  0  0  0  0
M  END
>  <MODEL>
7

>  <REMARK>
 VINA RESULT:      -6.5      1.884      3.992
  Name = 
  10 active torsions:
  status: ('A' for Active; 'I' for Inactive)
    1  A    between atoms: C_2  and  C_9
    2  A    between atoms: C_8  and  C_14
    3  A    between atoms: C_8  and  C_16
    4  A    between atoms: C_9  and  C_11
    5  A    between atoms: C_9  and  C_28
    6  A    between atoms: C_11  and  C_25
    7  A    between atoms: C_14  and  C_29
    8  A    between atoms: C_16  and  C_25
    9  A    between atoms: C_20  and  C_27
   10  A    between atoms: C_27  and  C_28
                            x       y       z     vdW  Elec       q    Type
                         _______ _______ _______ _____ _____    ______ ____

>  <TORSDO>
F 10

$$$$
=
 OpenBabel11042416303D

 29 31  0  0  1  0  0  0  0  0999 V2000
  188.0700  176.4220  145.5920 C   0  0  1  0  0  3  0  0  0  0  0  0
  188.2340  176.7050  144.0830 C   0  0  1  0  0  3  0  0  0  0  0  0
  188.1990  174.9220  140.8410 C   0  0  0  0  0  1  0  0  0  0  0  0
  187.7730  175.9230  141.8030 N   0  0  0  0  0  0  0  0  0  0  0  0
  187.6740  175.5690  143.2160 C   0  0  0  0  0  2  0  0  0  0  0  0
  187.5940  178.0190  143.6940 C   0  0  0  0  0  3  0  0  0  0  0  0
  187.3110  177.5530  140.1790 O   0  0  0  0  0  0  0  0  0  0  0  0
  187.4470  177.2600  141.3970 C   0  0  0  0  0  0  0  0  0  0  0  0
  187.2670  178.2900  142.4290 C   0  0  0  0  0  3  0  0  0  0  0  0
  189.3260  175.8720  146.2820 C   0  0  2  0  0  3  0  0  0  0  0  0
  188.9990  174.9010  147.2350 O   0  0  0  0  0  1  0  0  0  0  0  0
  190.1370  176.9950  146.9150 C   0  0  0  0  0  2  0  0  0  0  0  0
  191.3170  176.4530  147.6550 C   0  0  0  0  0  0  0  0  0  0  0  0
  191.5590  176.8350  148.7900 O   0  0  0  0  0  0  0  0  0  0  0  0
  192.1720  175.4120  147.0150 C   0  0  0  0  0  2  0  0  0  0  0  0
  193.2470  176.0680  146.1660 C   0  0  0  0  0  2  0  0  0  0  0  0
  191.0560  174.3860  143.1610 O   0  0  0  0  0  0  0  0  0  0  0  0
  192.8240  174.0630  144.7390 C   0  0  0  0  0  2  0  0  0  0  0  0
  192.1960  176.3550  143.9130 C   0  0  0  0  0  0  0  0  0  0  0  0
  192.2230  173.6390  143.3990 C   0  0  0  0  0  2  0  0  0  0  0  0
  192.0780  177.5610  144.0700 O   0  0  0  0  0  0  0  0  0  0  0  0
  191.4690  175.6770  142.7840 C   0  0  0  0  0  2  0  0  0  0  0  0
  193.1810  175.5570  144.7340 C   0  0  1  0  0  3  0  0  0  0  0  0
  187.5320  177.6320  146.3630 C   0  0  0  0  0  2  0  0  0  0  0  0
  186.2140  177.3320  147.0630 C   0  0  0  0  0  2  0  0  0  0  0  0
  184.0080  179.0330  144.5500 C   0  0  0  0  0  1  0  0  0  0  0  0
  184.7270  178.8640  145.8710 C   0  0  2  0  0  3  0  0  0  0  0  0
  185.0770  177.4430  146.0690 C   0  0  2  0  0  3  0  0  0  0  0  0
  183.9670  178.0260  146.7050 O   0  0  0  0  0  0  0  0  0  0  0  0
  1 10  1  0  0  0  0
  1 24  1  1  0  0  0
  2  1  1  1  0  0  0
  3  4  1  0  0  0  0
  4  5  1  0  0  0  0
  5  2  1  0  0  0  0
  6  2  1  0  0  0  0
  7  8  2  0  0  0  0
  8  4  1  0  0  0  0
  8  9  1  0  0  0  0
  9  6  2  0  0  0  0
 10 12  1  0  0  0  0
 10 11  1  1  0  0  0
 12 13  1  0  0  0  0
 13 14  2  0  0  0  0
 15 13  1  0  0  0  0
 16 15  1  0  0  0  0
 17 20  1  0  0  0  0
 19 21  2  0  0  0  0
 19 23  1  0  0  0  0
 20 18  1  0  0  0  0
 22 17  1  0  0  0  0
 22 19  1  0  0  0  0
 23 18  1  0  0  0  0
 23 16  1  1  0  0  0
 24 25  1  0  0  0  0
 27 26  1  6  0  0  0
 27 28  1  0  0  0  0
 27 29  1  0  0  0  0
 28 29  1  0  0  0  0
 28 25  1  1  0  0  0
M  END
>  <MODEL>
8

>  <REMARK>
 VINA RESULT:      -6.4      1.926      6.347
  Name = 
  10 active torsions:
  status: ('A' for Active; 'I' for Inactive)
    1  A    between atoms: C_2  and  C_9
    2  A    between atoms: C_8  and  C_14
    3  A    between atoms: C_8  and  C_16
    4  A    between atoms: C_9  and  C_11
    5  A    between atoms: C_9  and  C_28
    6  A    between atoms: C_11  and  C_25
    7  A    between atoms: C_14  and  C_29
    8  A    between atoms: C_16  and  C_25
    9  A    between atoms: C_20  and  C_27
   10  A    between atoms: C_27  and  C_28
                            x       y       z     vdW  Elec       q    Type
                         _______ _______ _______ _____ _____    ______ ____

>  <TORSDO>
F 10

$$$$
=
 OpenBabel11042416303D

 29 31  0  0  1  0  0  0  0  0999 V2000
  192.3320  175.7100  145.7730 C   0  0  1  0  0  3  0  0  0  0  0  0
  193.4490  174.6920  146.0820 C   0  0  1  0  0  3  0  0  0  0  0  0
  194.2220  171.1020  145.6280 C   0  0  0  0  0  1  0  0  0  0  0  0
  194.4530  172.5290  145.4970 N   0  0  0  0  0  0  0  0  0  0  0  0
  193.3260  173.4200  145.2310 C   0  0  0  0  0  2  0  0  0  0  0  0
  194.8200  175.3050  145.9050 C   0  0  0  0  0  3  0  0  0  0  0  0
  196.7880  172.3530  145.6400 O   0  0  0  0  0  0  0  0  0  0  0  0
  195.7660  173.0900  145.6250 C   0  0  0  0  0  0  0  0  0  0  0  0
  195.9070  174.5490  145.7330 C   0  0  0  0  0  3  0  0  0  0  0  0
  191.7200  176.3870  147.0080 C   0  0  2  0  0  3  0  0  0  0  0  0
  192.7070  176.9550  147.8190 O   0  0  0  0  0  1  0  0  0  0  0  0
  190.8700  175.4050  147.8040 C   0  0  0  0  0  2  0  0  0  0  0  0
  189.5050  175.2730  147.2100 C   0  0  0  0  0  0  0  0  0  0  0  0
  189.0220  174.1670  147.0180 O   0  0  0  0  0  0  0  0  0  0  0  0
  188.7210  176.5010  146.8900 C   0  0  0  0  0  2  0  0  0  0  0  0
  187.7430  176.2180  145.7630 C   0  0  0  0  0  2  0  0  0  0  0  0
  185.1860  179.3950  145.6040 O   0  0  0  0  0  0  0  0  0  0  0  0
  186.5430  178.0180  147.0110 C   0  0  0  0  0  2  0  0  0  0  0  0
  185.6290  177.1730  144.8240 C   0  0  0  0  0  0  0  0  0  0  0  0
  185.3290  178.9410  146.9270 C   0  0  0  0  0  2  0  0  0  0  0  0
  185.7050  176.4790  143.8220 O   0  0  0  0  0  0  0  0  0  0  0  0
  184.6590  178.3230  144.8610 C   0  0  0  0  0  2  0  0  0  0  0  0
  186.3760  176.8040  146.0840 C   0  0  1  0  0  3  0  0  0  0  0  0
  192.7630  176.7680  144.7530 C   0  0  0  0  0  2  0  0  0  0  0  0
  192.0810  176.5860  143.4050 C   0  0  0  0  0  2  0  0  0  0  0  0
  188.6620  177.8220  142.4800 C   0  0  0  0  0  1  0  0  0  0  0  0
  190.1460  177.9330  142.7610 C   0  0  2  0  0  3  0  0  0  0  0  0
  190.5880  176.7750  143.5640 C   0  0  2  0  0  3  0  0  0  0  0  0
  190.3440  178.0310  144.1490 O   0  0  0  0  0  0  0  0  0  0  0  0
  1 24  1  6  0  0  0
  1 10  1  0  0  0  0
  2  1  1  6  0  0  0
  4  8  1  0  0  0  0
  4  3  1  0  0  0  0
  5  4  1  0  0  0  0
  5  2  1  0  0  0  0
  6  2  1  0  0  0  0
  8  7  2  0  0  0  0
  8  9  1  0  0  0  0
  9  6  2  0  0  0  0
 10 12  1  0  0  0  0
 10 11  1  1  0  0  0
 13 12  1  0  0  0  0
 14 13  2  0  0  0  0
 15 13  1  0  0  0  0
 16 15  1  0  0  0  0
 17 20  1  0  0  0  0
 19 22  1  0  0  0  0
 19 23  1  0  0  0  0
 20 18  1  0  0  0  0
 21 19  2  0  0  0  0
 22 17  1  0  0  0  0
 23 16  1  6  0  0  0
 23 18  1  0  0  0  0
 25 24  1  0  0  0  0
 27 26  1  1  0  0  0
 27 28  1  0  0  0  0
 27 29  1  0  0  0  0
 28 25  1  6  0  0  0
 28 29  1  0  0  0  0
M  END
>  <MODEL>
9

>  <REMARK>
 VINA RESULT:      -6.3      2.589      4.808
  Name = 
  10 active torsions:
  status: ('A' for Active; 'I' for Inactive)
    1  A    between atoms: C_2  and  C_9
    2  A    between atoms: C_8  and  C_14
    3  A    between atoms: C_8  and  C_16
    4  A    between atoms: C_9  and  C_11
    5  A    between atoms: C_9  and  C_28
    6  A    between atoms: C_11  and  C_25
    7  A    between atoms: C_14  and  C_29
    8  A    between atoms: C_16  and  C_25
    9  A    between atoms: C_20  and  C_27
   10  A    between atoms: C_27  and  C_28
                            x       y       z     vdW  Elec       q    Type
                         _______ _______ _______ _____ _____    ______ ____

>  <TORSDO>
F 10

$$$$
