=
 OpenBabel11042415033D

 33 36  0  0  1  0  0  0  0  0999 V2000
  188.0530  177.4210  144.7980 C   0  0  0  0  0  3  0  0  0  0  0  0
  187.8840  177.2640  143.4080 C   0  0  0  0  0  0  0  0  0  0  0  0
  188.9010  176.3700  146.8680 O   0  0  0  0  0  0  0  0  0  0  0  0
  189.6820  174.3380  145.9260 C   0  0  0  0  0  2  0  0  0  0  0  0
  188.3210  176.0780  142.7840 C   0  0  0  0  0  3  0  0  0  0  0  0
  188.6540  176.3890  145.5140 C   0  0  0  0  0  0  0  0  0  0  0  0
  189.5170  175.1360  147.2390 C   0  0  1  0  0  3  0  0  0  0  0  0
  189.0810  175.2430  144.9090 C   0  0  0  0  0  0  0  0  0  0  0  0
  188.9250  175.0500  143.5270 C   0  0  0  0  0  0  0  0  0  0  0  0
  188.2710  173.2320  141.9740 C   0  0  0  0  0  3  0  0  0  0  0  0
  190.6480  174.0310  142.0390 C   0  0  0  0  0  0  0  0  0  0  0  0
  189.6370  173.4260  139.9570 C   0  0  0  0  0  0  0  0  0  0  0  0
  189.3780  173.8050  142.8200 C   0  0  1  0  0  3  0  0  0  0  0  0
  191.7000  174.3760  142.6390 O   0  0  0  0  0  0  0  0  0  0  0  0
  189.7150  173.2740  138.5460 N   0  0  0  0  0  1  0  0  0  0  0  0
  190.6700  173.8570  140.6160 N   0  0  0  0  0  0  0  0  0  0  0  0
  188.3910  173.0680  140.6550 C   0  0  0  0  0  3  0  0  0  0  0  0
  187.2740  178.2800  142.6020 N   0  0  0  0  0  2  0  0  0  0  0  0
  185.6960  178.2700  140.7050 N   0  0  0  0  0  0  0  0  0  0  0  0
  185.9650  178.2310  142.0210 C   0  0  0  0  0  0  0  0  0  0  0  0
  184.3790  178.1960  140.6060 N   0  0  0  0  0  2  0  0  0  0  0  0
  183.8120  178.1100  141.8010 N   0  0  0  0  0  0  0  0  0  0  0  0
  184.7900  178.1290  142.7290 C   0  0  0  0  0  3  0  0  0  0  0  0
  190.8730  175.4110  147.8660 C   0  0  0  0  0  2  0  0  0  0  0  0
  191.9220  175.2110  146.8810 N   0  0  0  0  0  2  0  0  0  0  0  0
  194.5800  175.1720  145.8230 N   0  0  0  0  0  2  0  0  0  0  0  0
  192.6870  176.3840  146.8570 N   0  0  0  0  0  2  0  0  0  0  0  0
  194.0100  176.3830  146.3270 C   0  0  0  0  0  0  0  0  0  0  0  0
  194.6690  177.4570  146.3030 O   0  0  0  0  0  0  0  0  0  0  0  0
  195.9300  175.1070  145.2830 C   0  0  1  0  0  3  0  0  0  0  0  0
  196.4960  173.8690  145.5850 O   0  0  0  0  0  1  0  0  0  0  0  0
  196.5470  176.5900  143.3790 C   0  0  0  0  0  1  0  0  0  0  0  0
  195.8900  175.2820  143.7760 C   0  0  0  0  0  2  0  0  0  0  0  0
  1  6  1  0  0  0  0
  2  1  2  0  0  0  0
  3  7  1  0  0  0  0
  4  7  1  0  0  0  0
  5  2  1  0  0  0  0
  5  9  2  0  0  0  0
  6  3  1  0  0  0  0
  7 24  1  6  0  0  0
  8  6  2  0  0  0  0
  8  4  1  0  0  0  0
  9  8  1  0  0  0  0
 10 13  1  0  0  0  0
 11 14  2  0  0  0  0
 11 13  1  0  0  0  0
 12 16  2  0  0  0  0
 12 17  1  0  0  0  0
 13  9  1  6  0  0  0
 15 12  1  0  0  0  0
 16 11  1  0  0  0  0
 17 10  2  0  0  0  0
 18  2  1  0  0  0  0
 19 20  2  0  0  0  0
 20 18  1  0  0  0  0
 20 23  1  0  0  0  0
 21 19  1  0  0  0  0
 21 22  1  0  0  0  0
 22 23  2  0  0  0  0
 25 24  1  0  0  0  0
 26 28  1  0  0  0  0
 27 25  1  0  0  0  0
 28 27  1  0  0  0  0
 29 28  2  0  0  0  0
 30 31  1  6  0  0  0
 30 26  1  0  0  0  0
 32 33  1  0  0  0  0
 33 30  1  0  0  0  0
M  END
>  <MODEL>
1

>  <REMARK>
 VINA RESULT:      -7.3      0.000      0.000
  Name = 
  8 active torsions:
  status: ('A' for Active; 'I' for Inactive)
    1  A    between atoms: N_1  and  C_20
    2  A    between atoms: C_4  and  N_12
    3  A    between atoms: N_7  and  N_25
    4  A    between atoms: C_11  and  N_12
    5  A    between atoms: C_17  and  C_22
    6  A    between atoms: C_17  and  N_25
    7  A    between atoms: C_19  and  C_28
    8  A    between atoms: C_20  and  C_32
                            x       y       z     vdW  Elec       q    Type
                         _______ _______ _______ _____ _____    ______ ____

>  <TORSDO>
F 8

$$$$
=
 OpenBabel11042415033D

 33 36  0  0  1  0  0  0  0  0999 V2000
  190.6620  177.9440  143.1070 C   0  0  0  0  0  3  0  0  0  0  0  0
  191.4900  177.0170  143.7690 C   0  0  0  0  0  0  0  0  0  0  0  0
  188.5820  178.2340  141.8020 O   0  0  0  0  0  0  0  0  0  0  0  0
  187.8740  175.9710  141.7770 C   0  0  0  0  0  2  0  0  0  0  0  0
  191.1310  175.6540  143.7890 C   0  0  0  0  0  3  0  0  0  0  0  0
  189.5040  177.4770  142.4890 C   0  0  0  0  0  0  0  0  0  0  0  0
  187.5380  177.4010  141.2980 C   0  0  1  0  0  3  0  0  0  0  0  0
  189.1550  176.1590  142.5110 C   0  0  0  0  0  0  0  0  0  0  0  0
  189.9580  175.2060  143.1580 C   0  0  0  0  0  0  0  0  0  0  0  0
  190.1210  173.0280  141.9830 C   0  0  0  0  0  3  0  0  0  0  0  0
  190.0740  173.1000  144.4910 C   0  0  0  0  0  0  0  0  0  0  0  0
  191.4680  171.5220  143.3570 C   0  0  0  0  0  0  0  0  0  0  0  0
  189.6130  173.7450  143.2080 C   0  0  1  0  0  3  0  0  0  0  0  0
  189.6180  173.5030  145.5940 O   0  0  0  0  0  0  0  0  0  0  0  0
  192.4160  170.4630  143.3940 N   0  0  0  0  0  1  0  0  0  0  0  0
  191.0270  172.0310  144.4680 N   0  0  0  0  0  0  0  0  0  0  0  0
  190.9830  172.0120  142.0560 C   0  0  0  0  0  3  0  0  0  0  0  0
  192.6980  177.4190  144.4280 N   0  0  0  0  0  2  0  0  0  0  0  0
  194.6820  175.9760  144.1630 N   0  0  0  0  0  0  0  0  0  0  0  0
  193.7280  176.5500  144.9150 C   0  0  0  0  0  0  0  0  0  0  0  0
  195.4190  175.2660  145.0010 N   0  0  0  0  0  2  0  0  0  0  0  0
  194.9700  175.3710  146.2430 N   0  0  0  0  0  0  0  0  0  0  0  0
  193.8930  176.1820  146.2300 C   0  0  0  0  0  3  0  0  0  0  0  0
  186.2040  177.8520  141.8690 C   0  0  0  0  0  2  0  0  0  0  0  0
  185.7110  176.8620  142.8110 N   0  0  0  0  0  2  0  0  0  0  0  0
  187.0350  176.9520  145.3460 N   0  0  0  0  0  2  0  0  0  0  0  0
  185.1400  177.5660  143.8780 N   0  0  0  0  0  2  0  0  0  0  0  0
  185.7890  177.6260  145.1450 C   0  0  0  0  0  0  0  0  0  0  0  0
  185.2600  178.2810  146.0830 O   0  0  0  0  0  0  0  0  0  0  0  0
  187.7380  176.9660  146.6200 C   0  0  1  0  0  3  0  0  0  0  0  0
  187.8180  175.6680  147.1250 O   0  0  0  0  0  1  0  0  0  0  0  0
  190.1400  176.6900  147.2170 C   0  0  0  0  0  1  0  0  0  0  0  0
  189.1400  177.5140  146.4280 C   0  0  0  0  0  2  0  0  0  0  0  0
  1  2  1  0  0  0  0
  2  5  2  0  0  0  0
  2 18  1  0  0  0  0
  3  6  1  0  0  0  0
  4  8  1  0  0  0  0
  6  8  1  0  0  0  0
  6  1  2  0  0  0  0
  7  4  1  0  0  0  0
  7  3  1  0  0  0  0
  7 24  1  1  0  0  0
  8  9  2  0  0  0  0
  9  5  1  0  0  0  0
 10 17  2  0  0  0  0
 10 13  1  0  0  0  0
 11 14  2  0  0  0  0
 12 15  1  0  0  0  0
 12 16  2  0  0  0  0
 13  9  1  6  0  0  0
 13 11  1  0  0  0  0
 16 11  1  0  0  0  0
 17 12  1  0  0  0  0
 18 20  1  0  0  0  0
 19 20  2  0  0  0  0
 19 21  1  0  0  0  0
 20 23  1  0  0  0  0
 21 22  1  0  0  0  0
 23 22  2  0  0  0  0
 24 25  1  0  0  0  0
 25 27  1  0  0  0  0
 26 30  1  0  0  0  0
 27 28  1  0  0  0  0
 28 26  1  0  0  0  0
 28 29  2  0  0  0  0
 30 31  1  6  0  0  0
 33 30  1  0  0  0  0
 33 32  1  0  0  0  0
M  END
>  <MODEL>
2

>  <REMARK>
 VINA RESULT:      -7.3      2.857      6.824
  Name = 
  8 active torsions:
  status: ('A' for Active; 'I' for Inactive)
    1  A    between atoms: N_1  and  C_20
    2  A    between atoms: C_4  and  N_12
    3  A    between atoms: N_7  and  N_25
    4  A    between atoms: C_11  and  N_12
    5  A    between atoms: C_17  and  C_22
    6  A    between atoms: C_17  and  N_25
    7  A    between atoms: C_19  and  C_28
    8  A    between atoms: C_20  and  C_32
                            x       y       z     vdW  Elec       q    Type
                         _______ _______ _______ _____ _____    ______ ____

>  <TORSDO>
F 8

$$$$
=
 OpenBabel11042415033D

 33 36  0  0  1  0  0  0  0  0999 V2000
  190.5470  177.4780  142.8720 C   0  0  0  0  0  3  0  0  0  0  0  0
  191.4520  176.4050  142.9820 C   0  0  0  0  0  0  0  0  0  0  0  0
  188.1750  178.1070  142.5670 O   0  0  0  0  0  0  0  0  0  0  0  0
  187.2570  175.9240  142.4340 C   0  0  0  0  0  2  0  0  0  0  0  0
  190.9740  175.0810  142.9070 C   0  0  0  0  0  3  0  0  0  0  0  0
  189.1970  177.1910  142.6920 C   0  0  0  0  0  0  0  0  0  0  0  0
  186.9300  177.4340  142.3810 C   0  0  1  0  0  3  0  0  0  0  0  0
  188.7330  175.9100  142.6220 C   0  0  0  0  0  0  0  0  0  0  0  0
  189.6070  174.8150  142.7240 C   0  0  0  0  0  0  0  0  0  0  0  0
  189.3090  172.8360  141.2610 C   0  0  0  0  0  3  0  0  0  0  0  0
  189.7990  172.5290  143.7030 C   0  0  0  0  0  0  0  0  0  0  0  0
  190.7650  171.0550  142.0860 C   0  0  0  0  0  0  0  0  0  0  0  0
  189.1420  173.3890  142.6530 C   0  0  1  0  0  3  0  0  0  0  0  0
  189.6260  172.7880  144.9240 O   0  0  0  0  0  0  0  0  0  0  0  0
  191.5930  169.9430  141.7690 N   0  0  0  0  0  1  0  0  0  0  0  0
  190.6190  171.4160  143.3250 N   0  0  0  0  0  0  0  0  0  0  0  0
  190.0650  171.7670  141.0040 C   0  0  0  0  0  3  0  0  0  0  0  0
  192.8580  176.6180  143.1680 N   0  0  0  0  0  2  0  0  0  0  0  0
  193.8990  177.1900  145.3300 N   0  0  0  0  0  0  0  0  0  0  0  0
  193.6130  176.3190  144.3480 C   0  0  0  0  0  0  0  0  0  0  0  0
  194.6020  176.5090  146.2200 N   0  0  0  0  0  2  0  0  0  0  0  0
  194.7680  175.2510  145.8390 N   0  0  0  0  0  0  0  0  0  0  0  0
  194.1510  175.0900  144.6510 C   0  0  0  0  0  3  0  0  0  0  0  0
  185.9750  177.8090  143.5020 C   0  0  0  0  0  2  0  0  0  0  0  0
  185.6860  176.6400  144.3160 N   0  0  0  0  0  2  0  0  0  0  0  0
  187.7870  176.1270  146.1890 N   0  0  0  0  0  2  0  0  0  0  0  0
  185.5730  177.0850  145.6390 N   0  0  0  0  0  2  0  0  0  0  0  0
  186.6130  176.8430  146.5830 C   0  0  0  0  0  0  0  0  0  0  0  0
  186.4910  177.2690  147.7620 O   0  0  0  0  0  0  0  0  0  0  0  0
  188.8750  175.8380  147.1110 C   0  0  1  0  0  3  0  0  0  0  0  0
  188.7780  174.5180  147.5500 O   0  0  0  0  0  1  0  0  0  0  0  0
  191.3240  175.3940  147.2140 C   0  0  0  0  0  1  0  0  0  0  0  0
  190.2080  176.0330  146.4110 C   0  0  0  0  0  2  0  0  0  0  0  0
  1  2  1  0  0  0  0
  2 18  1  0  0  0  0
  3  6  1  0  0  0  0
  4  8  1  0  0  0  0
  5  2  2  0  0  0  0
  6  1  2  0  0  0  0
  7  4  1  0  0  0  0
  7  3  1  0  0  0  0
  7 24  1  1  0  0  0
  8  6  1  0  0  0  0
  8  9  2  0  0  0  0
  9  5  1  0  0  0  0
 10 13  1  0  0  0  0
 11 14  2  0  0  0  0
 12 16  2  0  0  0  0
 13  9  1  6  0  0  0
 13 11  1  0  0  0  0
 15 12  1  0  0  0  0
 16 11  1  0  0  0  0
 17 10  2  0  0  0  0
 17 12  1  0  0  0  0
 18 20  1  0  0  0  0
 19 21  1  0  0  0  0
 20 23  1  0  0  0  0
 20 19  2  0  0  0  0
 22 21  1  0  0  0  0
 23 22  2  0  0  0  0
 24 25  1  0  0  0  0
 25 27  1  0  0  0  0
 26 28  1  0  0  0  0
 26 30  1  0  0  0  0
 27 28  1  0  0  0  0
 28 29  2  0  0  0  0
 30 31  1  6  0  0  0
 33 30  1  0  0  0  0
 33 32  1  0  0  0  0
M  END
>  <MODEL>
3

>  <REMARK>
 VINA RESULT:      -7.2      2.848      6.267
  Name = 
  8 active torsions:
  status: ('A' for Active; 'I' for Inactive)
    1  A    between atoms: N_1  and  C_20
    2  A    between atoms: C_4  and  N_12
    3  A    between atoms: N_7  and  N_25
    4  A    between atoms: C_11  and  N_12
    5  A    between atoms: C_17  and  C_22
    6  A    between atoms: C_17  and  N_25
    7  A    between atoms: C_19  and  C_28
    8  A    between atoms: C_20  and  C_32
                            x       y       z     vdW  Elec       q    Type
                         _______ _______ _______ _____ _____    ______ ____

>  <TORSDO>
F 8

$$$$
=
 OpenBabel11042415033D

 33 36  0  0  1  0  0  0  0  0999 V2000
  192.1380  176.1370  144.4600 C   0  0  0  0  0  3  0  0  0  0  0  0
  192.4500  175.1050  143.5540 C   0  0  0  0  0  0  0  0  0  0  0  0
  190.3100  177.4390  145.4970 O   0  0  0  0  0  0  0  0  0  0  0  0
  188.4820  176.3840  144.4180 C   0  0  0  0  0  2  0  0  0  0  0  0
  191.4110  174.4380  142.8740 C   0  0  0  0  0  3  0  0  0  0  0  0
  190.7990  176.4660  144.6550 C   0  0  0  0  0  0  0  0  0  0  0  0
  188.8860  177.4920  145.4160 C   0  0  1  0  0  3  0  0  0  0  0  0
  189.7920  175.8190  144.0000 C   0  0  0  0  0  0  0  0  0  0  0  0
  190.0660  174.7870  143.0870 C   0  0  0  0  0  0  0  0  0  0  0  0
  188.7810  174.6370  140.9710 C   0  0  0  0  0  3  0  0  0  0  0  0
  189.2530  172.5630  142.3030 C   0  0  0  0  0  0  0  0  0  0  0  0
  189.3070  172.4980  139.9130 C   0  0  0  0  0  0  0  0  0  0  0  0
  188.9920  174.0480  142.3430 C   0  0  1  0  0  3  0  0  0  0  0  0
  189.3110  171.9080  143.3770 O   0  0  0  0  0  0  0  0  0  0  0  0
  189.5030  171.7790  138.7030 N   0  0  0  0  0  1  0  0  0  0  0  0
  189.4360  171.8890  141.0520 N   0  0  0  0  0  0  0  0  0  0  0  0
  188.9370  173.9220  139.8560 C   0  0  0  0  0  3  0  0  0  0  0  0
  193.8040  174.7080  143.2970 N   0  0  0  0  0  2  0  0  0  0  0  0
  195.1140  176.0400  141.6860 N   0  0  0  0  0  0  0  0  0  0  0  0
  194.8840  175.5720  142.9240 C   0  0  0  0  0  0  0  0  0  0  0  0
  196.1960  176.7940  141.7830 N   0  0  0  0  0  2  0  0  0  0  0  0
  196.6530  176.8200  143.0270 N   0  0  0  0  0  0  0  0  0  0  0  0
  195.8430  176.0530  143.7840 C   0  0  0  0  0  3  0  0  0  0  0  0
  188.2860  177.2180  146.7850 C   0  0  0  0  0  2  0  0  0  0  0  0
  187.1300  176.3480  146.6510 N   0  0  0  0  0  2  0  0  0  0  0  0
  185.2850  177.8320  145.0450 N   0  0  0  0  0  2  0  0  0  0  0  0
  186.0510  177.0100  147.2500 N   0  0  0  0  0  2  0  0  0  0  0  0
  185.1190  177.7480  146.4630 C   0  0  0  0  0  0  0  0  0  0  0  0
  184.1480  178.3200  147.0270 O   0  0  0  0  0  0  0  0  0  0  0  0
  184.3750  178.5810  144.1920 C   0  0  1  0  0  3  0  0  0  0  0  0
  184.7280  179.9310  144.2030 O   0  0  0  0  0  1  0  0  0  0  0  0
  185.8240  178.3350  142.1820 C   0  0  0  0  0  1  0  0  0  0  0  0
  184.4540  178.0570  142.7700 C   0  0  0  0  0  2  0  0  0  0  0  0
  1  6  1  0  0  0  0
  2  1  2  0  0  0  0
  4  7  1  0  0  0  0
  5  9  2  0  0  0  0
  5  2  1  0  0  0  0
  6  3  1  0  0  0  0
  7  3  1  0  0  0  0
  7 24  1  1  0  0  0
  8  4  1  0  0  0  0
  8  6  2  0  0  0  0
  9  8  1  0  0  0  0
 10 13  1  0  0  0  0
 11 13  1  0  0  0  0
 11 14  2  0  0  0  0
 12 16  2  0  0  0  0
 13  9  1  6  0  0  0
 15 12  1  0  0  0  0
 16 11  1  0  0  0  0
 17 12  1  0  0  0  0
 17 10  2  0  0  0  0
 18  2  1  0  0  0  0
 19 21  1  0  0  0  0
 19 20  2  0  0  0  0
 20 18  1  0  0  0  0
 20 23  1  0  0  0  0
 21 22  1  0  0  0  0
 22 23  2  0  0  0  0
 25 24  1  0  0  0  0
 25 27  1  0  0  0  0
 26 28  1  0  0  0  0
 28 29  2  0  0  0  0
 28 27  1  0  0  0  0
 30 31  1  6  0  0  0
 30 26  1  0  0  0  0
 32 33  1  0  0  0  0
 33 30  1  0  0  0  0
M  END
>  <MODEL>
4

>  <REMARK>
 VINA RESULT:      -7.0      2.786      7.270
  Name = 
  8 active torsions:
  status: ('A' for Active; 'I' for Inactive)
    1  A    between atoms: N_1  and  C_20
    2  A    between atoms: C_4  and  N_12
    3  A    between atoms: N_7  and  N_25
    4  A    between atoms: C_11  and  N_12
    5  A    between atoms: C_17  and  C_22
    6  A    between atoms: C_17  and  N_25
    7  A    between atoms: C_19  and  C_28
    8  A    between atoms: C_20  and  C_32
                            x       y       z     vdW  Elec       q    Type
                         _______ _______ _______ _____ _____    ______ ____

>  <TORSDO>
F 8

$$$$
=
 OpenBabel11042415033D

 33 36  0  0  1  0  0  0  0  0999 V2000
  189.4050  177.0370  147.5980 C   0  0  0  0  0  3  0  0  0  0  0  0
  188.2890  177.3350  146.7920 C   0  0  0  0  0  0  0  0  0  0  0  0
  191.7080  176.1390  147.6200 O   0  0  0  0  0  0  0  0  0  0  0  0
  191.9130  175.6640  145.3060 C   0  0  0  0  0  2  0  0  0  0  0  0
  188.3410  177.0730  145.4080 C   0  0  0  0  0  3  0  0  0  0  0  0
  190.5330  176.4890  146.9930 C   0  0  0  0  0  0  0  0  0  0  0  0
  192.6290  175.5960  146.6740 C   0  0  1  0  0  3  0  0  0  0  0  0
  190.5850  176.2390  145.6530 C   0  0  0  0  0  0  0  0  0  0  0  0
  189.4910  176.5190  144.8200 C   0  0  0  0  0  0  0  0  0  0  0  0
  188.3300  175.4070  142.9320 C   0  0  0  0  0  3  0  0  0  0  0  0
  189.5960  177.5380  142.5450 C   0  0  0  0  0  0  0  0  0  0  0  0
  187.5330  177.1380  141.4030 C   0  0  0  0  0  0  0  0  0  0  0  0
  189.5030  176.2600  143.3410 C   0  0  1  0  0  3  0  0  0  0  0  0
  190.6010  178.2860  142.6760 O   0  0  0  0  0  0  0  0  0  0  0  0
  186.5240  177.5590  140.4940 N   0  0  0  0  0  1  0  0  0  0  0  0
  188.5510  177.9090  141.6380 N   0  0  0  0  0  0  0  0  0  0  0  0
  187.4210  175.8180  142.0470 C   0  0  0  0  0  3  0  0  0  0  0  0
  187.0900  177.8990  147.3400 N   0  0  0  0  0  2  0  0  0  0  0  0
  185.8380  179.4200  145.8550 N   0  0  0  0  0  0  0  0  0  0  0  0
  185.9320  178.3090  146.6030 C   0  0  0  0  0  0  0  0  0  0  0  0
  184.6150  179.4130  145.3530 N   0  0  0  0  0  2  0  0  0  0  0  0
  183.9390  178.3450  145.7530 N   0  0  0  0  0  0  0  0  0  0  0  0
  184.7450  177.6160  146.5510 C   0  0  0  0  0  3  0  0  0  0  0  0
  193.8940  176.4360  146.6520 C   0  0  0  0  0  2  0  0  0  0  0  0
  193.9830  177.1630  145.3970 N   0  0  0  0  0  2  0  0  0  0  0  0
  194.7600  175.7150  143.0540 N   0  0  0  0  0  2  0  0  0  0  0  0
  195.3260  177.1320  145.0030 N   0  0  0  0  0  2  0  0  0  0  0  0
  195.7290  176.4210  143.8350 C   0  0  0  0  0  0  0  0  0  0  0  0
  196.9420  176.4240  143.4950 O   0  0  0  0  0  0  0  0  0  0  0  0
  195.1130  174.9620  141.8610 C   0  0  1  0  0  3  0  0  0  0  0  0
  195.4900  173.6670  142.2200 O   0  0  0  0  0  1  0  0  0  0  0  0
  192.6270  174.9250  141.7170 C   0  0  0  0  0  1  0  0  0  0  0  0
  193.9200  174.8910  140.9250 C   0  0  0  0  0  2  0  0  0  0  0  0
  2 18  1  0  0  0  0
  2  1  2  0  0  0  0
  4  8  1  0  0  0  0
  4  7  1  0  0  0  0
  5  2  1  0  0  0  0
  6  1  1  0  0  0  0
  6  3  1  0  0  0  0
  7 24  1  6  0  0  0
  7  3  1  0  0  0  0
  8  6  2  0  0  0  0
  9  5  2  0  0  0  0
  9  8  1  0  0  0  0
 10 13  1  0  0  0  0
 11 14  2  0  0  0  0
 11 13  1  0  0  0  0
 12 16  2  0  0  0  0
 12 17  1  0  0  0  0
 13  9  1  1  0  0  0
 15 12  1  0  0  0  0
 16 11  1  0  0  0  0
 17 10  2  0  0  0  0
 19 20  2  0  0  0  0
 20 18  1  0  0  0  0
 21 22  1  0  0  0  0
 21 19  1  0  0  0  0
 22 23  2  0  0  0  0
 23 20  1  0  0  0  0
 25 24  1  0  0  0  0
 26 28  1  0  0  0  0
 27 25  1  0  0  0  0
 28 27  1  0  0  0  0
 29 28  2  0  0  0  0
 30 31  1  1  0  0  0
 30 26  1  0  0  0  0
 33 32  1  0  0  0  0
 33 30  1  0  0  0  0
M  END
>  <MODEL>
5

>  <REMARK>
 VINA RESULT:      -7.0      2.557      3.668
  Name = 
  8 active torsions:
  status: ('A' for Active; 'I' for Inactive)
    1  A    between atoms: N_1  and  C_20
    2  A    between atoms: C_4  and  N_12
    3  A    between atoms: N_7  and  N_25
    4  A    between atoms: C_11  and  N_12
    5  A    between atoms: C_17  and  C_22
    6  A    between atoms: C_17  and  N_25
    7  A    between atoms: C_19  and  C_28
    8  A    between atoms: C_20  and  C_32
                            x       y       z     vdW  Elec       q    Type
                         _______ _______ _______ _____ _____    ______ ____

>  <TORSDO>
F 8

$$$$
=
 OpenBabel11042415033D

 33 36  0  0  1  0  0  0  0  0999 V2000
  189.2110  173.3310  142.2410 C   0  0  0  0  0  3  0  0  0  0  0  0
  190.4550  173.1400  142.8740 C   0  0  0  0  0  0  0  0  0  0  0  0
  187.2330  174.8040  142.0610 O   0  0  0  0  0  0  0  0  0  0  0  0
  187.8930  176.4570  143.6270 C   0  0  0  0  0  2  0  0  0  0  0  0
  190.9060  174.0830  143.8190 C   0  0  0  0  0  3  0  0  0  0  0  0
  188.4620  174.4570  142.5750 C   0  0  0  0  0  0  0  0  0  0  0  0
  186.7740  176.0170  142.6570 C   0  0  1  0  0  3  0  0  0  0  0  0
  188.9000  175.3710  143.4880 C   0  0  0  0  0  0  0  0  0  0  0  0
  190.1330  175.2120  144.1410 C   0  0  0  0  0  0  0  0  0  0  0  0
  191.1660  175.4810  146.3790 C   0  0  0  0  0  3  0  0  0  0  0  0
  191.6770  177.1270  144.5550 C   0  0  0  0  0  0  0  0  0  0  0  0
  193.3900  176.4460  146.0790 C   0  0  0  0  0  0  0  0  0  0  0  0
  190.6550  176.1910  145.1520 C   0  0  1  0  0  3  0  0  0  0  0  0
  191.3500  177.8920  143.6100 O   0  0  0  0  0  0  0  0  0  0  0  0
  194.7370  176.5110  146.5300 N   0  0  0  0  0  1  0  0  0  0  0  0
  193.0200  177.1540  145.0550 N   0  0  0  0  0  0  0  0  0  0  0  0
  192.4280  175.5930  146.7960 C   0  0  0  0  0  3  0  0  0  0  0  0
  191.2830  172.0060  142.5840 N   0  0  0  0  0  2  0  0  0  0  0  0
  191.3790  171.4770  140.1770 N   0  0  0  0  0  0  0  0  0  0  0  0
  191.1600  171.1310  141.4570 C   0  0  0  0  0  0  0  0  0  0  0  0
  191.1600  170.3820  139.4680 N   0  0  0  0  0  2  0  0  0  0  0  0
  190.8150  169.3670  140.2470 N   0  0  0  0  0  0  0  0  0  0  0  0
  190.8050  169.8050  141.5220 C   0  0  0  0  0  3  0  0  0  0  0  0
  186.5620  177.0670  141.5790 C   0  0  0  0  0  2  0  0  0  0  0  0
  186.4620  178.3830  142.1860 N   0  0  0  0  0  2  0  0  0  0  0  0
  185.3110  178.5850  144.7980 N   0  0  0  0  0  2  0  0  0  0  0  0
  185.0970  178.6600  142.3340 N   0  0  0  0  0  2  0  0  0  0  0  0
  184.5090  178.7700  143.6280 C   0  0  0  0  0  0  0  0  0  0  0  0
  183.2820  179.0370  143.7310 O   0  0  0  0  0  0  0  0  0  0  0  0
  184.7640  178.6720  146.1440 C   0  0  1  0  0  3  0  0  0  0  0  0
  184.2230  177.4400  146.5100 O   0  0  0  0  0  1  0  0  0  0  0  0
  186.8760  177.9180  147.2280 C   0  0  0  0  0  1  0  0  0  0  0  0
  185.8640  179.0430  147.1220 C   0  0  0  0  0  2  0  0  0  0  0  0
  1  6  2  0  0  0  0
  1  2  1  0  0  0  0
  2  5  2  0  0  0  0
  3  6  1  0  0  0  0
  3  7  1  0  0  0  0
  5  9  1  0  0  0  0
  6  8  1  0  0  0  0
  7 24  1  6  0  0  0
  7  4  1  0  0  0  0
  8  4  1  0  0  0  0
  8  9  2  0  0  0  0
 10 17  2  0  0  0  0
 11 16  1  0  0  0  0
 11 13  1  0  0  0  0
 12 15  1  0  0  0  0
 12 17  1  0  0  0  0
 13  9  1  6  0  0  0
 13 10  1  0  0  0  0
 14 11  2  0  0  0  0
 16 12  2  0  0  0  0
 18  2  1  0  0  0  0
 19 20  2  0  0  0  0
 20 23  1  0  0  0  0
 20 18  1  0  0  0  0
 21 19  1  0  0  0  0
 21 22  1  0  0  0  0
 22 23  2  0  0  0  0
 24 25  1  0  0  0  0
 25 27  1  0  0  0  0
 26 30  1  0  0  0  0
 27 28  1  0  0  0  0
 28 29  2  0  0  0  0
 28 26  1  0  0  0  0
 30 31  1  1  0  0  0
 30 33  1  0  0  0  0
 33 32  1  0  0  0  0
M  END
>  <MODEL>
6

>  <REMARK>
 VINA RESULT:      -6.9      2.808      8.015
  Name = 
  8 active torsions:
  status: ('A' for Active; 'I' for Inactive)
    1  A    between atoms: N_1  and  C_20
    2  A    between atoms: C_4  and  N_12
    3  A    between atoms: N_7  and  N_25
    4  A    between atoms: C_11  and  N_12
    5  A    between atoms: C_17  and  C_22
    6  A    between atoms: C_17  and  N_25
    7  A    between atoms: C_19  and  C_28
    8  A    between atoms: C_20  and  C_32
                            x       y       z     vdW  Elec       q    Type
                         _______ _______ _______ _____ _____    ______ ____

>  <TORSDO>
F 8

$$$$
=
 OpenBabel11042415033D

 33 36  0  0  1  0  0  0  0  0999 V2000
  192.6180  175.2930  142.2930 C   0  0  0  0  0  3  0  0  0  0  0  0
  193.2370  175.7430  143.4750 C   0  0  0  0  0  0  0  0  0  0  0  0
  190.5010  174.5090  141.2850 O   0  0  0  0  0  0  0  0  0  0  0  0
  189.1300  174.6510  143.2140 C   0  0  0  0  0  2  0  0  0  0  0  0
  192.4810  175.8460  144.6600 C   0  0  0  0  0  3  0  0  0  0  0  0
  191.2660  174.9620  142.3360 C   0  0  0  0  0  0  0  0  0  0  0  0
  189.1630  174.2630  141.7190 C   0  0  1  0  0  3  0  0  0  0  0  0
  190.5330  175.0650  143.4820 C   0  0  0  0  0  0  0  0  0  0  0  0
  191.1170  175.5070  144.6800 C   0  0  0  0  0  0  0  0  0  0  0  0
  191.1120  175.0230  147.1120 C   0  0  0  0  0  3  0  0  0  0  0  0
  189.9390  177.0610  146.2360 C   0  0  0  0  0  0  0  0  0  0  0  0
  191.1240  177.1530  148.3110 C   0  0  0  0  0  0  0  0  0  0  0  0
  190.3500  175.6360  145.9650 C   0  0  1  0  0  3  0  0  0  0  0  0
  189.1780  177.6580  145.4290 O   0  0  0  0  0  0  0  0  0  0  0  0
  191.5610  177.8810  149.4510 N   0  0  0  0  0  1  0  0  0  0  0  0
  190.4060  177.7440  147.4060 N   0  0  0  0  0  0  0  0  0  0  0  0
  191.4750  175.7280  148.1850 C   0  0  0  0  0  3  0  0  0  0  0  0
  194.6240  176.1020  143.5120 N   0  0  0  0  0  2  0  0  0  0  0  0
  195.5300  174.5890  145.2380 N   0  0  0  0  0  0  0  0  0  0  0  0
  195.6740  175.3650  144.1510 C   0  0  0  0  0  0  0  0  0  0  0  0
  196.7320  174.0980  145.4900 N   0  0  0  0  0  2  0  0  0  0  0  0
  197.6220  174.5310  144.6080 N   0  0  0  0  0  0  0  0  0  0  0  0
  196.9860  175.3410  143.7380 C   0  0  0  0  0  3  0  0  0  0  0  0
  188.2000  175.1290  140.9240 C   0  0  0  0  0  2  0  0  0  0  0  0
  187.7080  176.2120  141.7590 N   0  0  0  0  0  2  0  0  0  0  0  0
  185.9820  178.1540  142.9570 N   0  0  0  0  0  2  0  0  0  0  0  0
  186.8610  176.9880  140.9590 N   0  0  0  0  0  2  0  0  0  0  0  0
  186.0000  177.9640  141.5390 C   0  0  0  0  0  0  0  0  0  0  0  0
  185.2600  178.6610  140.7940 O   0  0  0  0  0  0  0  0  0  0  0  0
  185.1150  179.1250  143.6070 C   0  0  1  0  0  3  0  0  0  0  0  0
  183.7900  178.6940  143.5310 O   0  0  0  0  0  1  0  0  0  0  0  0
  184.6000  178.4270  145.9420 C   0  0  0  0  0  1  0  0  0  0  0  0
  185.5080  179.2690  145.0660 C   0  0  0  0  0  2  0  0  0  0  0  0
  1  6  2  0  0  0  0
  1  2  1  0  0  0  0
  2 18  1  0  0  0  0
  2  5  2  0  0  0  0
  3  7  1  0  0  0  0
  3  6  1  0  0  0  0
  4  8  1  0  0  0  0
  5  9  1  0  0  0  0
  6  8  1  0  0  0  0
  7 24  1  6  0  0  0
  7  4  1  0  0  0  0
  8  9  2  0  0  0  0
 10 17  2  0  0  0  0
 11 16  1  0  0  0  0
 12 15  1  0  0  0  0
 13  9  1  6  0  0  0
 13 11  1  0  0  0  0
 13 10  1  0  0  0  0
 14 11  2  0  0  0  0
 16 12  2  0  0  0  0
 17 12  1  0  0  0  0
 18 20  1  0  0  0  0
 19 21  1  0  0  0  0
 20 19  2  0  0  0  0
 22 21  1  0  0  0  0
 23 20  1  0  0  0  0
 23 22  2  0  0  0  0
 24 25  1  0  0  0  0
 26 30  1  0  0  0  0
 27 28  1  0  0  0  0
 27 25  1  0  0  0  0
 28 26  1  0  0  0  0
 29 28  2  0  0  0  0
 30 31  1  1  0  0  0
 30 33  1  0  0  0  0
 33 32  1  0  0  0  0
M  END
>  <MODEL>
7

>  <REMARK>
 VINA RESULT:      -6.8      2.587      8.860
  Name = 
  8 active torsions:
  status: ('A' for Active; 'I' for Inactive)
    1  A    between atoms: N_1  and  C_20
    2  A    between atoms: C_4  and  N_12
    3  A    between atoms: N_7  and  N_25
    4  A    between atoms: C_11  and  N_12
    5  A    between atoms: C_17  and  C_22
    6  A    between atoms: C_17  and  N_25
    7  A    between atoms: C_19  and  C_28
    8  A    between atoms: C_20  and  C_32
                            x       y       z     vdW  Elec       q    Type
                         _______ _______ _______ _____ _____    ______ ____

>  <TORSDO>
F 8

$$$$
=
 OpenBabel11042415033D

 33 36  0  0  1  0  0  0  0  0999 V2000
  192.8520  174.6310  143.0980 C   0  0  0  0  0  3  0  0  0  0  0  0
  193.4150  175.6350  143.9100 C   0  0  0  0  0  0  0  0  0  0  0  0
  190.7670  173.4520  142.4850 O   0  0  0  0  0  0  0  0  0  0  0  0
  189.2820  174.6120  143.9260 C   0  0  0  0  0  2  0  0  0  0  0  0
  192.5900  176.3600  144.7930 C   0  0  0  0  0  3  0  0  0  0  0  0
  191.4850  174.3880  143.1970 C   0  0  0  0  0  0  0  0  0  0  0  0
  189.3930  173.4880  142.8710 C   0  0  1  0  0  3  0  0  0  0  0  0
  190.6850  175.0910  144.0490 C   0  0  0  0  0  0  0  0  0  0  0  0
  191.2120  176.0960  144.8760 C   0  0  0  0  0  0  0  0  0  0  0  0
  189.3310  177.6980  145.0900 C   0  0  0  0  0  3  0  0  0  0  0  0
  189.7780  176.0360  146.9160 C   0  0  0  0  0  0  0  0  0  0  0  0
  187.5300  176.5950  146.3190 C   0  0  0  0  0  0  0  0  0  0  0  0
  190.3710  176.8960  145.8290 C   0  0  1  0  0  3  0  0  0  0  0  0
  190.5350  175.4160  147.7090 O   0  0  0  0  0  0  0  0  0  0  0  0
  186.1290  176.4350  146.5010 N   0  0  0  0  0  1  0  0  0  0  0  0
  188.3560  175.9160  147.0560 N   0  0  0  0  0  0  0  0  0  0  0  0
  188.0240  177.5480  145.3110 C   0  0  0  0  0  3  0  0  0  0  0  0
  194.8150  175.9440  143.8670 N   0  0  0  0  0  2  0  0  0  0  0  0
  196.0470  175.9860  141.7300 N   0  0  0  0  0  0  0  0  0  0  0  0
  195.7670  175.4370  142.9240 C   0  0  0  0  0  0  0  0  0  0  0  0
  196.9740  175.2130  141.1890 N   0  0  0  0  0  2  0  0  0  0  0  0
  197.2880  174.2060  141.9920 N   0  0  0  0  0  0  0  0  0  0  0  0
  196.5400  174.3150  143.1090 C   0  0  0  0  0  3  0  0  0  0  0  0
  188.5310  173.8090  141.6610 C   0  0  0  0  0  2  0  0  0  0  0  0
  187.5640  174.8390  142.0040 N   0  0  0  0  0  2  0  0  0  0  0  0
  186.0190  177.2370  142.2250 N   0  0  0  0  0  2  0  0  0  0  0  0
  187.6600  175.8300  141.0190 N   0  0  0  0  0  2  0  0  0  0  0  0
  186.9020  177.0330  141.1170 C   0  0  0  0  0  0  0  0  0  0  0  0
  187.0200  177.9150  140.2250 O   0  0  0  0  0  0  0  0  0  0  0  0
  185.2100  178.4370  142.3720 C   0  0  1  0  0  3  0  0  0  0  0  0
  183.9200  178.0870  142.7680 O   0  0  0  0  0  1  0  0  0  0  0  0
  184.8960  179.4760  144.6130 C   0  0  0  0  0  1  0  0  0  0  0  0
  185.8250  179.3450  143.4210 C   0  0  0  0  0  2  0  0  0  0  0  0
  1  6  2  0  0  0  0
  1  2  1  0  0  0  0
  2  5  2  0  0  0  0
  3  7  1  0  0  0  0
  3  6  1  0  0  0  0
  4  8  1  0  0  0  0
  5  9  1  0  0  0  0
  6  8  1  0  0  0  0
  7 24  1  6  0  0  0
  7  4  1  0  0  0  0
  8  9  2  0  0  0  0
 10 17  2  0  0  0  0
 10 13  1  0  0  0  0
 11 16  1  0  0  0  0
 11 14  2  0  0  0  0
 12 15  1  0  0  0  0
 12 16  2  0  0  0  0
 13  9  1  6  0  0  0
 13 11  1  0  0  0  0
 17 12  1  0  0  0  0
 18  2  1  0  0  0  0
 19 20  2  0  0  0  0
 20 23  1  0  0  0  0
 20 18  1  0  0  0  0
 21 19  1  0  0  0  0
 21 22  1  0  0  0  0
 22 23  2  0  0  0  0
 24 25  1  0  0  0  0
 26 30  1  0  0  0  0
 27 28  1  0  0  0  0
 27 25  1  0  0  0  0
 28 26  1  0  0  0  0
 29 28  2  0  0  0  0
 30 31  1  1  0  0  0
 30 33  1  0  0  0  0
 33 32  1  0  0  0  0
M  END
>  <MODEL>
8

>  <REMARK>
 VINA RESULT:      -6.7      2.879      8.369
  Name = 
  8 active torsions:
  status: ('A' for Active; 'I' for Inactive)
    1  A    between atoms: N_1  and  C_20
    2  A    between atoms: C_4  and  N_12
    3  A    between atoms: N_7  and  N_25
    4  A    between atoms: C_11  and  N_12
    5  A    between atoms: C_17  and  C_22
    6  A    between atoms: C_17  and  N_25
    7  A    between atoms: C_19  and  C_28
    8  A    between atoms: C_20  and  C_32
                            x       y       z     vdW  Elec       q    Type
                         _______ _______ _______ _____ _____    ______ ____

>  <TORSDO>
F 8

$$$$
=
 OpenBabel11042415033D

 33 36  0  0  1  0  0  0  0  0999 V2000
  189.4660  174.7860  142.7170 C   0  0  0  0  0  3  0  0  0  0  0  0
  188.2080  174.5790  142.1190 C   0  0  0  0  0  0  0  0  0  0  0  0
  190.6960  176.0090  144.4790 O   0  0  0  0  0  0  0  0  0  0  0  0
  188.8760  177.2330  145.3810 C   0  0  0  0  0  2  0  0  0  0  0  0
  187.0840  175.2780  142.6030 C   0  0  0  0  0  3  0  0  0  0  0  0
  189.5560  175.6840  143.7770 C   0  0  0  0  0  0  0  0  0  0  0  0
  190.3970  176.9770  145.4840 C   0  0  1  0  0  3  0  0  0  0  0  0
  188.4680  176.3590  144.2480 C   0  0  0  0  0  0  0  0  0  0  0  0
  187.1990  176.1800  143.6740 C   0  0  0  0  0  0  0  0  0  0  0  0
  185.5660  176.4150  145.5250 C   0  0  0  0  0  3  0  0  0  0  0  0
  186.1410  178.3990  144.1010 C   0  0  0  0  0  0  0  0  0  0  0  0
  185.7830  178.6660  146.4510 C   0  0  0  0  0  0  0  0  0  0  0  0
  185.9740  176.9010  144.1580 C   0  0  1  0  0  3  0  0  0  0  0  0
  186.3450  178.9650  142.9940 O   0  0  0  0  0  0  0  0  0  0  0  0
  185.7290  179.4950  147.6040 N   0  0  0  0  0  1  0  0  0  0  0  0
  186.0710  179.1860  145.2960 N   0  0  0  0  0  0  0  0  0  0  0  0
  185.4890  177.2280  146.5790 C   0  0  0  0  0  3  0  0  0  0  0  0
  188.0330  173.6720  141.0220 N   0  0  0  0  0  2  0  0  0  0  0  0
  188.1880  174.3230  138.6480 N   0  0  0  0  0  0  0  0  0  0  0  0
  188.6890  173.7410  139.7510 C   0  0  0  0  0  0  0  0  0  0  0  0
  189.1070  174.1660  137.7110 N   0  0  0  0  0  2  0  0  0  0  0  0
  190.1620  173.5140  138.1780 N   0  0  0  0  0  0  0  0  0  0  0  0
  189.9340  173.2270  139.4750 C   0  0  0  0  0  3  0  0  0  0  0  0
  190.7480  176.4180  146.8530 C   0  0  0  0  0  2  0  0  0  0  0  0
  192.0680  175.8110  146.8140 N   0  0  0  0  0  2  0  0  0  0  0  0
  194.3370  175.8760  145.0720 N   0  0  0  0  0  2  0  0  0  0  0  0
  192.9980  176.8540  146.9090 N   0  0  0  0  0  2  0  0  0  0  0  0
  194.1300  176.9050  146.0440 C   0  0  0  0  0  0  0  0  0  0  0  0
  194.9410  177.8640  146.1410 O   0  0  0  0  0  0  0  0  0  0  0  0
  195.4810  175.8670  144.1720 C   0  0  1  0  0  3  0  0  0  0  0  0
  196.3840  174.8840  144.5740 O   0  0  0  0  0  1  0  0  0  0  0  0
  193.5830  176.0230  142.5660 C   0  0  0  0  0  1  0  0  0  0  0  0
  195.0190  175.5720  142.7570 C   0  0  0  0  0  2  0  0  0  0  0  0
  1  6  1  0  0  0  0
  2  5  1  0  0  0  0
  2  1  2  0  0  0  0
  3  7  1  0  0  0  0
  4  7  1  0  0  0  0
  5  9  2  0  0  0  0
  6  8  2  0  0  0  0
  6  3  1  0  0  0  0
  7 24  1  1  0  0  0
  8  4  1  0  0  0  0
  9  8  1  0  0  0  0
 10 17  2  0  0  0  0
 11 13  1  0  0  0  0
 11 16  1  0  0  0  0
 12 17  1  0  0  0  0
 12 15  1  0  0  0  0
 13  9  1  1  0  0  0
 13 10  1  0  0  0  0
 14 11  2  0  0  0  0
 16 12  2  0  0  0  0
 18  2  1  0  0  0  0
 19 20  2  0  0  0  0
 20 18  1  0  0  0  0
 21 22  1  0  0  0  0
 21 19  1  0  0  0  0
 22 23  2  0  0  0  0
 23 20  1  0  0  0  0
 25 24  1  0  0  0  0
 25 27  1  0  0  0  0
 26 28  1  0  0  0  0
 28 29  2  0  0  0  0
 28 27  1  0  0  0  0
 30 31  1  1  0  0  0
 30 26  1  0  0  0  0
 32 33  1  0  0  0  0
 33 30  1  0  0  0  0
M  END
>  <MODEL>
9

>  <REMARK>
 VINA RESULT:      -6.7      2.152      5.065
  Name = 
  8 active torsions:
  status: ('A' for Active; 'I' for Inactive)
    1  A    between atoms: N_1  and  C_20
    2  A    between atoms: C_4  and  N_12
    3  A    between atoms: N_7  and  N_25
    4  A    between atoms: C_11  and  N_12
    5  A    between atoms: C_17  and  C_22
    6  A    between atoms: C_17  and  N_25
    7  A    between atoms: C_19  and  C_28
    8  A    between atoms: C_20  and  C_32
                            x       y       z     vdW  Elec       q    Type
                         _______ _______ _______ _____ _____    ______ ____

>  <TORSDO>
F 8

$$$$
