=
 OpenBabel11042419173D

 43 46  0  0  1  0  0  0  0  0999 V2000
  185.6980  178.1220  144.9290 C   0  0  0  0  0  2  0  0  0  0  0  0
  186.2690  176.8320  142.8750 C   0  0  0  0  0  0  0  0  0  0  0  0
  187.0540  175.7780  143.1070 C   0  0  0  0  0  3  0  0  0  0  0  0
  184.8380  178.6190  142.6550 C   0  0  2  0  0  3  0  0  0  0  0  0
  186.0630  178.0360  141.5140 S   0  0  0  0  0  0  0  0  0  0  0  0
  185.1540  177.5350  143.6320 C   0  0  2  0  0  3  0  0  0  0  0  0
  189.0560  173.3720  141.0370 C   0  0  1  0  0  3  0  0  0  0  0  0
  188.5470  174.3060  139.9440 C   0  0  0  0  0  3  0  0  0  0  0  0
  189.8050  174.0700  143.4390 C   0  0  0  0  0  2  0  0  0  0  0  0
  187.8530  175.4790  140.6240 C   0  0  0  0  0  3  0  0  0  0  0  0
  188.0870  175.3360  142.1180 C   0  0  2  0  0  0  0  0  0  0  0  0
  190.5290  173.0420  140.8150 C   0  0  0  0  0  1  0  0  0  0  0  0
  188.7050  173.9980  142.3960 C   0  0  2  0  0  0  0  0  0  0  0  0
  189.5190  175.2920  142.5930 C   0  0  2  0  0  3  0  0  0  0  0  0
  182.4010  178.2320  141.6320 C   0  0  0  0  0  0  0  0  0  0  0  0
  183.5010  178.4040  142.0940 C   0  0  0  0  0  0  0  0  0  0  0  0
  181.1700  177.7890  139.7020 O   0  0  0  0  0  1  0  0  0  0  0  0
  181.0650  178.0280  141.0720 C   0  0  2  0  0  3  0  0  0  0  0  0
  180.2160  179.2650  141.3200 C   0  0  0  0  0  2  0  0  0  0  0  0
  178.7510  178.8980  141.4980 C   0  0  0  0  0  2  0  0  0  0  0  0
  178.3840  178.8910  142.9700 C   0  0  0  0  0  2  0  0  0  0  0  0
  178.0460  177.4800  143.4000 C   0  0  0  0  0  1  0  0  0  0  0  0
  184.3030  178.5010  146.8310 O   0  0  0  0  0  1  0  0  0  0  0  0
  185.0050  177.5130  146.1350 C   0  0  2  0  0  3  0  0  0  0  0  0
  186.0490  176.8910  147.0480 C   0  0  0  0  0  2  0  0  0  0  0  0
  187.4130  177.5370  146.8390 C   0  0  1  0  0  3  0  0  0  0  0  0
  187.7860  178.2720  147.9660 O   0  0  0  0  0  1  0  0  0  0  0  0
  188.4770  176.4970  146.4930 C   0  0  0  0  0  2  0  0  0  0  0  0
  189.6670  177.0880  145.7990 C   0  0  0  0  0  0  0  0  0  0  0  0
  189.4820  177.9340  144.8820 O   0  0  0  0  0  0  0  0  0  0  0  0
  191.0320  176.6680  146.1640 C   0  0  0  0  0  0  0  0  0  0  0  0
  191.3470  176.1520  147.6930 S   0  0  0  0  0  0  0  0  0  0  0  0
  192.0190  176.5390  145.1300 N   0  0  0  0  0  2  0  0  0  0  0  0
  194.6350  176.8890  145.5780 S   0  0  0  0  0  0  0  0  0  0  0  0
  193.3220  175.9540  145.2470 C   0  0  0  0  0  0  0  0  0  0  0  0
  193.2930  173.5890  145.6660 O   0  0  0  0  0  1  0  0  0  0  0  0
  193.5130  174.5710  144.6950 C   0  0  2  0  0  3  0  0  0  0  0  0
  194.6930  174.1900  142.6510 O   0  0  0  0  0  1  0  0  0  0  0  0
  194.8730  174.4010  144.0180 C   0  0  2  0  0  3  0  0  0  0  0  0
  195.6780  173.2540  144.6200 C   0  0  0  0  0  2  0  0  0  0  0  0
  197.7240  174.4730  144.5830 O   0  0  0  0  0  0  0  0  0  0  0  0
  196.9240  173.7700  145.2520 C   0  0  0  0  0  0  0  0  0  0  0  0
  197.1870  173.5000  146.5880 O   0  0  0  0  0  1  0  0  0  0  0  0
  1 24  1  0  0  0  0
  2  3  2  0  0  0  0
  2  6  1  0  0  0  0
  4 16  1  6  0  0  0
  4  6  1  0  0  0  0
  5  4  1  0  0  0  0
  5  2  1  0  0  0  0
  6  1  1  1  0  0  0
  7 12  1  1  0  0  0
  7 13  1  0  0  0  0
  8 10  2  0  0  0  0
  8  7  1  0  0  0  0
 10 11  1  0  0  0  0
 11 13  1  0  0  0  0
 11 14  1  0  0  0  0
 11  3  1  1  0  0  0
 13 14  1  0  0  0  0
 13  9  1  1  0  0  0
 14  9  1  1  0  0  0
 15 16  3  0  0  0  0
 18 17  1  6  0  0  0
 18 19  1  0  0  0  0
 18 15  1  0  0  0  0
 19 20  1  0  0  0  0
 20 21  1  0  0  0  0
 21 22  1  0  0  0  0
 24 23  1  1  0  0  0
 24 25  1  0  0  0  0
 26 25  1  0  0  0  0
 26 27  1  1  0  0  0
 28 26  1  0  0  0  0
 29 31  1  0  0  0  0
 29 28  1  0  0  0  0
 30 29  2  0  0  0  0
 31 32  2  0  0  0  0
 33 35  1  0  0  0  0
 33 31  1  0  0  0  0
 35 34  2  0  0  0  0
 37 35  1  0  0  0  0
 37 36  1  1  0  0  0
 39 38  1  6  0  0  0
 39 40  1  0  0  0  0
 39 37  1  0  0  0  0
 40 42  1  0  0  0  0
 41 42  2  0  0  0  0
 42 43  1  0  0  0  0
M  END
>  <MODEL>
1

>  <REMARK>
 VINA RESULT:      -6.4      0.000      0.000
  Name = 
  19 active torsions:
  status: ('A' for Active; 'I' for Inactive)
    1  A    between atoms: N_1  and  C_3
    2  A    between atoms: N_1  and  C_39
    3  A    between atoms: C_3  and  C_22
    4  A    between atoms: C_6  and  C_35
    5  A    between atoms: C_6  and  C_37
    6  A    between atoms: C_7  and  C_30
    7  A    between atoms: C_8  and  C_26
    8  A    between atoms: C_10  and  C_32
    9  A    between atoms: C_13  and  C_16
   10  A    between atoms: C_13  and  C_22
   11  A    between atoms: C_15  and  C_36
   12  A    between atoms: C_16  and  C_17
   13  A    between atoms: C_17  and  C_37
   14  A    between atoms: C_18  and  C_19
   15  A    between atoms: C_19  and  C_43
   16  A    between atoms: C_20  and  C_26
   17  A    between atoms: C_20  and  C_30
   18  A    between atoms: C_39  and  C_40
   19  A    between atoms: C_40  and  C_43
                            x       y       z     vdW  Elec       q    Type
                         _______ _______ _______ _____ _____    ______ ____

>  <TORSDO>
F 19

$$$$
=
 OpenBabel11042419173D

 43 46  0  0  1  0  0  0  0  0999 V2000
  190.5270  174.4230  141.6590 C   0  0  0  0  0  2  0  0  0  0  0  0
  189.1190  176.0090  142.9670 C   0  0  0  0  0  0  0  0  0  0  0  0
  187.8320  175.6610  143.0200 C   0  0  0  0  0  3  0  0  0  0  0  0
  191.3810  176.4150  142.8670 C   0  0  2  0  0  3  0  0  0  0  0  0
  190.0490  177.5840  142.9180 S   0  0  0  0  0  0  0  0  0  0  0  0
  190.4400  175.2580  142.9310 C   0  0  2  0  0  3  0  0  0  0  0  0
  186.1920  178.9490  143.7840 C   0  0  1  0  0  3  0  0  0  0  0  0
  185.9610  178.8780  142.2780 C   0  0  0  0  0  3  0  0  0  0  0  0
  186.0960  176.9460  145.4560 C   0  0  0  0  0  2  0  0  0  0  0  0
  186.4030  177.4990  141.8070 C   0  0  0  0  0  3  0  0  0  0  0  0
  186.7430  176.6870  143.0440 C   0  0  2  0  0  0  0  0  0  0  0  0
  184.9320  179.4340  144.4950 C   0  0  0  0  0  1  0  0  0  0  0  0
  186.7420  177.5890  144.2430 C   0  0  2  0  0  0  0  0  0  0  0  0
  185.6540  176.5100  144.0760 C   0  0  2  0  0  3  0  0  0  0  0  0
  192.7900  176.5560  145.1330 C   0  0  0  0  0  0  0  0  0  0  0  0
  192.1520  176.4940  144.1120 C   0  0  0  0  0  0  0  0  0  0  0  0
  194.4680  175.5640  146.4120 O   0  0  0  0  0  1  0  0  0  0  0  0
  193.5660  176.6260  146.3710 C   0  0  2  0  0  3  0  0  0  0  0  0
  192.6260  176.5560  147.5640 C   0  0  0  0  0  2  0  0  0  0  0  0
  191.7430  175.3200  147.4940 C   0  0  0  0  0  2  0  0  0  0  0  0
  190.2860  175.7200  147.3540 C   0  0  0  0  0  2  0  0  0  0  0  0
  189.5500  174.6730  146.5450 C   0  0  0  0  0  1  0  0  0  0  0  0
  190.7190  172.1630  140.9100 O   0  0  0  0  0  1  0  0  0  0  0  0
  191.0460  173.0270  141.9580 C   0  0  2  0  0  3  0  0  0  0  0  0
  190.4150  172.5280  143.2470 C   0  0  0  0  0  2  0  0  0  0  0  0
  191.4480  171.8380  144.1290 C   0  0  1  0  0  3  0  0  0  0  0  0
  192.1520  170.8760  143.4010 O   0  0  0  0  0  1  0  0  0  0  0  0
  192.4050  172.8470  144.7610 C   0  0  0  0  0  2  0  0  0  0  0  0
  193.8310  172.3850  144.7480 C   0  0  0  0  0  0  0  0  0  0  0  0
  194.2390  171.6330  145.6730 O   0  0  0  0  0  0  0  0  0  0  0  0
  194.7510  172.8240  143.6820 C   0  0  0  0  0  0  0  0  0  0  0  0
  195.8060  171.7520  143.0190 S   0  0  0  0  0  0  0  0  0  0  0  0
  194.5790  174.1300  143.1120 N   0  0  0  0  0  2  0  0  0  0  0  0
  196.7270  175.6540  143.5890 S   0  0  0  0  0  0  0  0  0  0  0  0
  195.6030  174.9860  142.5900 C   0  0  0  0  0  0  0  0  0  0  0  0
  194.5110  176.6310  141.2220 O   0  0  0  0  0  1  0  0  0  0  0  0
  195.4000  175.5520  141.2140 C   0  0  2  0  0  3  0  0  0  0  0  0
  196.0630  173.6500  139.9250 O   0  0  0  0  0  1  0  0  0  0  0  0
  194.9800  174.4830  140.2050 C   0  0  2  0  0  3  0  0  0  0  0  0
  194.4420  175.0880  138.9120 C   0  0  0  0  0  2  0  0  0  0  0  0
  192.3260  174.0380  138.6110 O   0  0  0  0  0  1  0  0  0  0  0  0
  193.5220  174.1320  138.2350 C   0  0  0  0  0  0  0  0  0  0  0  0
  193.9780  173.3680  137.1700 O   0  0  0  0  0  0  0  0  0  0  0  0
  1 24  1  0  0  0  0
  2  3  2  0  0  0  0
  4  5  1  0  0  0  0
  4  6  1  0  0  0  0
  4 16  1  1  0  0  0
  5  2  1  0  0  0  0
  6  1  1  6  0  0  0
  6  2  1  0  0  0  0
  7 13  1  0  0  0  0
  7 12  1  1  0  0  0
  8  7  1  0  0  0  0
 10  8  2  0  0  0  0
 10 11  1  0  0  0  0
 11  3  1  6  0  0  0
 11 14  1  0  0  0  0
 11 13  1  0  0  0  0
 13  9  1  1  0  0  0
 14 13  1  0  0  0  0
 14  9  1  1  0  0  0
 15 18  1  0  0  0  0
 16 15  3  0  0  0  0
 18 17  1  1  0  0  0
 18 19  1  0  0  0  0
 20 19  1  0  0  0  0
 21 20  1  0  0  0  0
 22 21  1  0  0  0  0
 24 23  1  6  0  0  0
 24 25  1  0  0  0  0
 25 26  1  0  0  0  0
 26 27  1  6  0  0  0
 26 28  1  0  0  0  0
 29 28  1  0  0  0  0
 29 30  2  0  0  0  0
 31 29  1  0  0  0  0
 32 31  2  0  0  0  0
 33 31  1  0  0  0  0
 35 33  1  0  0  0  0
 35 34  2  0  0  0  0
 37 36  1  1  0  0  0
 37 35  1  0  0  0  0
 39 38  1  6  0  0  0
 39 37  1  0  0  0  0
 40 39  1  0  0  0  0
 42 41  1  0  0  0  0
 42 40  1  0  0  0  0
 43 42  2  0  0  0  0
M  END
>  <MODEL>
2

>  <REMARK>
 VINA RESULT:      -6.3      4.112      8.004
  Name = 
  19 active torsions:
  status: ('A' for Active; 'I' for Inactive)
    1  A    between atoms: N_1  and  C_3
    2  A    between atoms: N_1  and  C_39
    3  A    between atoms: C_3  and  C_22
    4  A    between atoms: C_6  and  C_35
    5  A    between atoms: C_6  and  C_37
    6  A    between atoms: C_7  and  C_30
    7  A    between atoms: C_8  and  C_26
    8  A    between atoms: C_10  and  C_32
    9  A    between atoms: C_13  and  C_16
   10  A    between atoms: C_13  and  C_22
   11  A    between atoms: C_15  and  C_36
   12  A    between atoms: C_16  and  C_17
   13  A    between atoms: C_17  and  C_37
   14  A    between atoms: C_18  and  C_19
   15  A    between atoms: C_19  and  C_43
   16  A    between atoms: C_20  and  C_26
   17  A    between atoms: C_20  and  C_30
   18  A    between atoms: C_39  and  C_40
   19  A    between atoms: C_40  and  C_43
                            x       y       z     vdW  Elec       q    Type
                         _______ _______ _______ _____ _____    ______ ____

>  <TORSDO>
F 19

$$$$
=
 OpenBabel11042419173D

 43 46  0  0  1  0  0  0  0  0999 V2000
  189.6200  174.0220  143.7240 C   0  0  0  0  0  2  0  0  0  0  0  0
  189.0690  176.0670  145.0360 C   0  0  0  0  0  0  0  0  0  0  0  0
  187.9430  175.9600  145.7440 C   0  0  0  0  0  3  0  0  0  0  0  0
  191.0360  176.0560  143.8440 C   0  0  2  0  0  3  0  0  0  0  0  0
  189.9430  177.4150  144.1600 S   0  0  0  0  0  0  0  0  0  0  0  0
  190.1810  175.1150  144.6260 C   0  0  2  0  0  3  0  0  0  0  0  0
  184.7250  177.7800  146.3890 C   0  0  1  0  0  3  0  0  0  0  0  0
  185.5830  178.3440  147.5170 C   0  0  0  0  0  3  0  0  0  0  0  0
  185.5300  177.2300  143.9660 C   0  0  0  0  0  2  0  0  0  0  0  0
  187.0090  177.8530  147.3040 C   0  0  0  0  0  3  0  0  0  0  0  0
  187.0430  177.1350  145.9670 C   0  0  2  0  0  0  0  0  0  0  0  0
  183.9150  178.8910  145.7280 C   0  0  0  0  0  1  0  0  0  0  0  0
  185.6420  176.9710  145.4580 C   0  0  2  0  0  0  0  0  0  0  0  0
  186.6250  177.9220  144.7480 C   0  0  2  0  0  3  0  0  0  0  0  0
  193.3490  176.4470  145.1220 C   0  0  0  0  0  0  0  0  0  0  0  0
  192.3050  176.2720  144.5470 C   0  0  0  0  0  0  0  0  0  0  0  0
  195.0030  177.9900  145.6900 O   0  0  0  0  0  1  0  0  0  0  0  0
  194.6190  176.6550  145.8180 C   0  0  2  0  0  3  0  0  0  0  0  0
  195.6820  175.7500  145.2160 C   0  0  0  0  0  2  0  0  0  0  0  0
  195.5110  174.3140  145.6890 C   0  0  0  0  0  2  0  0  0  0  0  0
  196.8550  173.7200  146.0670 C   0  0  0  0  0  2  0  0  0  0  0  0
  196.7930  172.2130  145.9470 C   0  0  0  0  0  1  0  0  0  0  0  0
  189.4330  172.1290  145.1690 O   0  0  0  0  0  1  0  0  0  0  0  0
  190.1730  172.6610  144.1100 C   0  0  2  0  0  3  0  0  0  0  0  0
  191.6260  172.8140  144.5270 C   0  0  0  0  0  2  0  0  0  0  0  0
  192.5570  172.1530  143.5190 C   0  0  1  0  0  3  0  0  0  0  0  0
  191.8410  171.3070  142.6700 O   0  0  0  0  0  1  0  0  0  0  0  0
  193.3380  173.1930  142.7160 C   0  0  0  0  0  2  0  0  0  0  0  0
  192.8610  173.3130  141.3000 C   0  0  0  0  0  0  0  0  0  0  0  0
  191.8700  174.0510  141.0490 O   0  0  0  0  0  0  0  0  0  0  0  0
  193.5240  172.5590  140.2200 C   0  0  0  0  0  0  0  0  0  0  0  0
  195.1650  172.5340  140.1300 S   0  0  0  0  0  0  0  0  0  0  0  0
  192.7310  171.7090  139.3790 N   0  0  0  0  0  2  0  0  0  0  0  0
  193.5350  171.6220  136.8270 S   0  0  0  0  0  0  0  0  0  0  0  0
  192.4140  171.9130  137.9960 C   0  0  0  0  0  0  0  0  0  0  0  0
  191.4970  174.1110  137.6830 O   0  0  0  0  0  1  0  0  0  0  0  0
  191.2050  172.7440  137.6770 C   0  0  2  0  0  3  0  0  0  0  0  0
  189.4470  171.2070  138.1940 O   0  0  0  0  0  1  0  0  0  0  0  0
  190.0210  172.4160  138.5880 C   0  0  2  0  0  3  0  0  0  0  0  0
  188.9670  173.5190  138.5850 C   0  0  0  0  0  2  0  0  0  0  0  0
  188.3590  174.9870  140.3600 O   0  0  0  0  0  0  0  0  0  0  0  0
  188.5050  173.7980  139.9730 C   0  0  0  0  0  0  0  0  0  0  0  0
  188.2050  172.7480  140.8300 O   0  0  0  0  0  1  0  0  0  0  0  0
  1 24  1  0  0  0  0
  2  3  2  0  0  0  0
  4  5  1  0  0  0  0
  4 16  1  1  0  0  0
  4  6  1  0  0  0  0
  5  2  1  0  0  0  0
  6  1  1  6  0  0  0
  6  2  1  0  0  0  0
  7 12  1  6  0  0  0
  7  8  1  0  0  0  0
 10  8  2  0  0  0  0
 11  3  1  6  0  0  0
 11 10  1  0  0  0  0
 13  9  1  6  0  0  0
 13 11  1  0  0  0  0
 13  7  1  0  0  0  0
 14  9  1  6  0  0  0
 14 13  1  0  0  0  0
 14 11  1  0  0  0  0
 15 18  1  0  0  0  0
 16 15  3  0  0  0  0
 18 17  1  6  0  0  0
 19 20  1  0  0  0  0
 19 18  1  0  0  0  0
 20 21  1  0  0  0  0
 22 21  1  0  0  0  0
 24 25  1  0  0  0  0
 24 23  1  1  0  0  0
 26 27  1  6  0  0  0
 26 25  1  0  0  0  0
 28 26  1  0  0  0  0
 29 28  1  0  0  0  0
 30 29  2  0  0  0  0
 31 29  1  0  0  0  0
 32 31  2  0  0  0  0
 33 31  1  0  0  0  0
 34 35  2  0  0  0  0
 35 33  1  0  0  0  0
 37 36  1  1  0  0  0
 37 35  1  0  0  0  0
 37 39  1  0  0  0  0
 39 38  1  6  0  0  0
 40 39  1  0  0  0  0
 40 42  1  0  0  0  0
 42 41  2  0  0  0  0
 42 43  1  0  0  0  0
M  END
>  <MODEL>
3

>  <REMARK>
 VINA RESULT:      -6.1      3.946      9.695
  Name = 
  19 active torsions:
  status: ('A' for Active; 'I' for Inactive)
    1  A    between atoms: N_1  and  C_3
    2  A    between atoms: N_1  and  C_39
    3  A    between atoms: C_3  and  C_22
    4  A    between atoms: C_6  and  C_35
    5  A    between atoms: C_6  and  C_37
    6  A    between atoms: C_7  and  C_30
    7  A    between atoms: C_8  and  C_26
    8  A    between atoms: C_10  and  C_32
    9  A    between atoms: C_13  and  C_16
   10  A    between atoms: C_13  and  C_22
   11  A    between atoms: C_15  and  C_36
   12  A    between atoms: C_16  and  C_17
   13  A    between atoms: C_17  and  C_37
   14  A    between atoms: C_18  and  C_19
   15  A    between atoms: C_19  and  C_43
   16  A    between atoms: C_20  and  C_26
   17  A    between atoms: C_20  and  C_30
   18  A    between atoms: C_39  and  C_40
   19  A    between atoms: C_40  and  C_43
                            x       y       z     vdW  Elec       q    Type
                         _______ _______ _______ _____ _____    ______ ____

>  <TORSDO>
F 19

$$$$
=
 OpenBabel11042419173D

 43 46  0  0  1  0  0  0  0  0999 V2000
  190.6390  174.3400  143.4680 C   0  0  0  0  0  2  0  0  0  0  0  0
  188.6810  175.6890  142.7210 C   0  0  0  0  0  0  0  0  0  0  0  0
  188.5460  176.8420  143.3780 C   0  0  0  0  0  3  0  0  0  0  0  0
  189.1120  173.7200  141.6130 C   0  0  2  0  0  3  0  0  0  0  0  0
  187.5450  174.4620  141.9790 S   0  0  0  0  0  0  0  0  0  0  0  0
  189.8560  174.8410  142.2600 C   0  0  2  0  0  3  0  0  0  0  0  0
  186.0330  179.0850  145.0340 C   0  0  1  0  0  3  0  0  0  0  0  0
  185.7220  179.3700  143.5690 C   0  0  0  0  0  3  0  0  0  0  0  0
  186.6880  176.7700  146.0500 C   0  0  0  0  0  2  0  0  0  0  0  0
  186.5310  178.3940  142.7250 C   0  0  0  0  0  3  0  0  0  0  0  0
  187.1980  177.4190  143.6790 C   0  0  2  0  0  0  0  0  0  0  0  0
  184.7430  178.9240  145.8330 C   0  0  0  0  0  1  0  0  0  0  0  0
  187.0100  177.8990  145.0880 C   0  0  2  0  0  0  0  0  0  0  0  0
  186.2990  176.6230  144.5950 C   0  0  2  0  0  3  0  0  0  0  0  0
  189.5280  173.7700  138.9740 C   0  0  0  0  0  0  0  0  0  0  0  0
  189.3420  173.7450  140.1650 C   0  0  0  0  0  0  0  0  0  0  0  0
  188.6920  174.4730  136.9140 O   0  0  0  0  0  1  0  0  0  0  0  0
  189.7480  173.8010  137.5280 C   0  0  2  0  0  3  0  0  0  0  0  0
  189.8390  172.3800  136.9970 C   0  0  0  0  0  2  0  0  0  0  0  0
  191.1500  171.7250  137.4050 C   0  0  0  0  0  2  0  0  0  0  0  0
  191.0620  170.2200  137.2400 C   0  0  0  0  0  2  0  0  0  0  0  0
  189.7080  169.7380  137.7140 C   0  0  0  0  0  1  0  0  0  0  0  0
  190.4550  172.1510  144.4080 O   0  0  0  0  0  1  0  0  0  0  0  0
  190.9740  172.8650  143.3250 C   0  0  2  0  0  3  0  0  0  0  0  0
  192.4840  172.7000  143.2810 C   0  0  0  0  0  2  0  0  0  0  0  0
  192.9810  171.8950  144.4750 C   0  0  1  0  0  3  0  0  0  0  0  0
  193.7610  170.8180  144.0490 O   0  0  0  0  0  1  0  0  0  0  0  0
  193.7580  172.7720  145.4560 C   0  0  0  0  0  2  0  0  0  0  0  0
  195.2390  172.7380  145.2220 C   0  0  0  0  0  0  0  0  0  0  0  0
  195.9450  171.9390  145.8930 O   0  0  0  0  0  0  0  0  0  0  0  0
  195.8630  173.6440  144.2400 C   0  0  0  0  0  0  0  0  0  0  0  0
  196.5540  173.0260  142.8830 S   0  0  0  0  0  0  0  0  0  0  0  0
  195.6900  175.0600  144.3950 N   0  0  0  0  0  2  0  0  0  0  0  0
  194.1680  176.0390  142.4220 S   0  0  0  0  0  0  0  0  0  0  0  0
  194.5500  175.8380  144.0110 C   0  0  0  0  0  0  0  0  0  0  0  0
  194.6610  176.7050  146.2480 O   0  0  0  0  0  1  0  0  0  0  0  0
  193.9580  176.7570  145.0400 C   0  0  2  0  0  3  0  0  0  0  0  0
  191.7310  177.5200  144.6200 O   0  0  0  0  0  1  0  0  0  0  0  0
  192.4630  176.5100  145.2450 C   0  0  2  0  0  3  0  0  0  0  0  0
  192.0880  176.4340  146.7220 C   0  0  0  0  0  2  0  0  0  0  0  0
  189.9760  175.3340  146.6670 O   0  0  0  0  0  0  0  0  0  0  0  0
  190.6080  176.4010  146.8800 C   0  0  0  0  0  0  0  0  0  0  0  0
  189.9280  177.5390  147.2910 O   0  0  0  0  0  1  0  0  0  0  0  0
  2  3  2  0  0  0  0
  4 16  1  6  0  0  0
  4  5  1  0  0  0  0
  4  6  1  0  0  0  0
  5  2  1  0  0  0  0
  6  2  1  0  0  0  0
  6  1  1  1  0  0  0
  7 13  1  0  0  0  0
  7 12  1  1  0  0  0
  8  7  1  0  0  0  0
 10  8  2  0  0  0  0
 10 11  1  0  0  0  0
 11  3  1  6  0  0  0
 11 14  1  0  0  0  0
 11 13  1  0  0  0  0
 13  9  1  1  0  0  0
 14 13  1  0  0  0  0
 14  9  1  1  0  0  0
 15 16  3  0  0  0  0
 18 17  1  6  0  0  0
 18 15  1  0  0  0  0
 19 20  1  0  0  0  0
 19 18  1  0  0  0  0
 21 20  1  0  0  0  0
 21 22  1  0  0  0  0
 24  1  1  0  0  0  0
 24 23  1  1  0  0  0
 25 24  1  0  0  0  0
 25 26  1  0  0  0  0
 26 27  1  6  0  0  0
 26 28  1  0  0  0  0
 29 28  1  0  0  0  0
 29 30  2  0  0  0  0
 31 33  1  0  0  0  0
 31 29  1  0  0  0  0
 32 31  2  0  0  0  0
 34 35  2  0  0  0  0
 35 33  1  0  0  0  0
 35 37  1  0  0  0  0
 37 39  1  0  0  0  0
 37 36  1  1  0  0  0
 39 38  1  1  0  0  0
 39 40  1  0  0  0  0
 40 42  1  0  0  0  0
 41 42  2  0  0  0  0
 42 43  1  0  0  0  0
M  END
>  <MODEL>
4

>  <REMARK>
 VINA RESULT:      -6.1      3.490      7.749
  Name = 
  19 active torsions:
  status: ('A' for Active; 'I' for Inactive)
    1  A    between atoms: N_1  and  C_3
    2  A    between atoms: N_1  and  C_39
    3  A    between atoms: C_3  and  C_22
    4  A    between atoms: C_6  and  C_35
    5  A    between atoms: C_6  and  C_37
    6  A    between atoms: C_7  and  C_30
    7  A    between atoms: C_8  and  C_26
    8  A    between atoms: C_10  and  C_32
    9  A    between atoms: C_13  and  C_16
   10  A    between atoms: C_13  and  C_22
   11  A    between atoms: C_15  and  C_36
   12  A    between atoms: C_16  and  C_17
   13  A    between atoms: C_17  and  C_37
   14  A    between atoms: C_18  and  C_19
   15  A    between atoms: C_19  and  C_43
   16  A    between atoms: C_20  and  C_26
   17  A    between atoms: C_20  and  C_30
   18  A    between atoms: C_39  and  C_40
   19  A    between atoms: C_40  and  C_43
                            x       y       z     vdW  Elec       q    Type
                         _______ _______ _______ _____ _____    ______ ____

>  <TORSDO>
F 19

$$$$
=
 OpenBabel11042419173D

 43 46  0  0  1  0  0  0  0  0999 V2000
  189.6360  174.1260  143.2590 C   0  0  0  0  0  2  0  0  0  0  0  0
  189.1460  176.0800  144.7250 C   0  0  0  0  0  0  0  0  0  0  0  0
  188.0530  175.9250  145.4750 C   0  0  0  0  0  3  0  0  0  0  0  0
  191.0550  176.1520  143.4450 C   0  0  2  0  0  3  0  0  0  0  0  0
  189.9770  177.4840  143.8970 S   0  0  0  0  0  0  0  0  0  0  0  0
  190.2370  175.1600  144.2030 C   0  0  2  0  0  3  0  0  0  0  0  0
  184.8820  177.6830  146.4440 C   0  0  1  0  0  3  0  0  0  0  0  0
  185.8220  178.2120  147.5210 C   0  0  0  0  0  3  0  0  0  0  0  0
  185.4960  177.2350  143.9450 C   0  0  0  0  0  2  0  0  0  0  0  0
  187.2300  177.7460  147.1770 C   0  0  0  0  0  3  0  0  0  0  0  0
  187.1640  177.0800  145.8150 C   0  0  2  0  0  0  0  0  0  0  0  0
  184.0130  178.8090  145.8920 C   0  0  0  0  0  1  0  0  0  0  0  0
  185.7280  176.9200  145.4120 C   0  0  2  0  0  0  0  0  0  0  0  0
  186.6440  177.9090  144.6640 C   0  0  2  0  0  3  0  0  0  0  0  0
  193.4250  176.4660  144.6390 C   0  0  0  0  0  0  0  0  0  0  0  0
  192.3550  176.3250  144.1020 C   0  0  0  0  0  0  0  0  0  0  0  0
  195.7030  176.8420  144.3170 O   0  0  0  0  0  1  0  0  0  0  0  0
  194.7250  176.6310  145.2880 C   0  0  2  0  0  3  0  0  0  0  0  0
  195.0530  175.3840  146.0930 C   0  0  0  0  0  2  0  0  0  0  0  0
  196.1390  174.5630  145.4150 C   0  0  0  0  0  2  0  0  0  0  0  0
  195.5470  173.3060  144.8070 C   0  0  0  0  0  2  0  0  0  0  0  0
  194.3250  172.8900  145.5960 C   0  0  0  0  0  1  0  0  0  0  0  0
  189.5950  172.5440  145.0480 O   0  0  0  0  0  1  0  0  0  0  0  0
  189.9680  172.7150  143.7130 C   0  0  2  0  0  3  0  0  0  0  0  0
  191.4630  172.4840  143.5670 C   0  0  0  0  0  2  0  0  0  0  0  0
  191.7470  171.1580  142.8740 C   0  0  1  0  0  3  0  0  0  0  0  0
  192.2190  170.2170  143.7910 O   0  0  0  0  0  1  0  0  0  0  0  0
  190.5100  170.6330  142.1460 C   0  0  0  0  0  2  0  0  0  0  0  0
  190.8350  169.5710  141.1380 C   0  0  0  0  0  0  0  0  0  0  0  0
  190.7370  168.3600  141.4720 O   0  0  0  0  0  0  0  0  0  0  0  0
  191.2870  169.9390  139.7840 C   0  0  0  0  0  0  0  0  0  0  0  0
  190.1820  170.2040  138.5960 S   0  0  0  0  0  0  0  0  0  0  0  0
  192.6740  170.2430  139.5740 N   0  0  0  0  0  2  0  0  0  0  0  0
  194.3900  171.5330  137.9750 S   0  0  0  0  0  0  0  0  0  0  0  0
  193.2290  171.4910  139.1410 C   0  0  0  0  0  0  0  0  0  0  0  0
  192.3890  173.7330  139.3340 O   0  0  0  0  0  1  0  0  0  0  0  0
  193.0150  172.6880  140.0210 C   0  0  2  0  0  3  0  0  0  0  0  0
  194.7850  172.1430  141.5340 O   0  0  0  0  0  1  0  0  0  0  0  0
  194.3080  173.1500  140.6950 C   0  0  2  0  0  3  0  0  0  0  0  0
  194.1170  174.4400  141.4860 C   0  0  0  0  0  2  0  0  0  0  0  0
  196.2280  175.1010  140.6020 O   0  0  0  0  0  0  0  0  0  0  0  0
  195.1130  175.4620  141.0600 C   0  0  0  0  0  0  0  0  0  0  0  0
  194.8000  176.8120  141.1410 O   0  0  0  0  0  1  0  0  0  0  0  0
  1 24  1  0  0  0  0
  2  3  2  0  0  0  0
  4  5  1  0  0  0  0
  4 16  1  1  0  0  0
  4  6  1  0  0  0  0
  5  2  1  0  0  0  0
  6  1  1  6  0  0  0
  6  2  1  0  0  0  0
  7 12  1  6  0  0  0
  7  8  1  0  0  0  0
 10  8  2  0  0  0  0
 11  3  1  6  0  0  0
 11 10  1  0  0  0  0
 13  9  1  6  0  0  0
 13 11  1  0  0  0  0
 13  7  1  0  0  0  0
 14  9  1  6  0  0  0
 14 13  1  0  0  0  0
 14 11  1  0  0  0  0
 15 18  1  0  0  0  0
 16 15  3  0  0  0  0
 18 17  1  6  0  0  0
 18 19  1  0  0  0  0
 20 19  1  0  0  0  0
 21 20  1  0  0  0  0
 21 22  1  0  0  0  0
 24 23  1  1  0  0  0
 25 24  1  0  0  0  0
 26 25  1  0  0  0  0
 26 27  1  1  0  0  0
 28 26  1  0  0  0  0
 29 30  2  0  0  0  0
 29 28  1  0  0  0  0
 31 29  1  0  0  0  0
 32 31  2  0  0  0  0
 33 31  1  0  0  0  0
 34 35  2  0  0  0  0
 35 33  1  0  0  0  0
 35 37  1  0  0  0  0
 37 36  1  6  0  0  0
 37 39  1  0  0  0  0
 39 40  1  0  0  0  0
 39 38  1  1  0  0  0
 41 42  2  0  0  0  0
 42 43  1  0  0  0  0
 42 40  1  0  0  0  0
M  END
>  <MODEL>
5

>  <REMARK>
 VINA RESULT:      -6.1      4.174      9.177
  Name = 
  19 active torsions:
  status: ('A' for Active; 'I' for Inactive)
    1  A    between atoms: N_1  and  C_3
    2  A    between atoms: N_1  and  C_39
    3  A    between atoms: C_3  and  C_22
    4  A    between atoms: C_6  and  C_35
    5  A    between atoms: C_6  and  C_37
    6  A    between atoms: C_7  and  C_30
    7  A    between atoms: C_8  and  C_26
    8  A    between atoms: C_10  and  C_32
    9  A    between atoms: C_13  and  C_16
   10  A    between atoms: C_13  and  C_22
   11  A    between atoms: C_15  and  C_36
   12  A    between atoms: C_16  and  C_17
   13  A    between atoms: C_17  and  C_37
   14  A    between atoms: C_18  and  C_19
   15  A    between atoms: C_19  and  C_43
   16  A    between atoms: C_20  and  C_26
   17  A    between atoms: C_20  and  C_30
   18  A    between atoms: C_39  and  C_40
   19  A    between atoms: C_40  and  C_43
                            x       y       z     vdW  Elec       q    Type
                         _______ _______ _______ _____ _____    ______ ____

>  <TORSDO>
F 19

$$$$
=
 OpenBabel11042419173D

 43 46  0  0  1  0  0  0  0  0999 V2000
  190.2980  176.2110  144.8380 C   0  0  0  0  0  2  0  0  0  0  0  0
  189.1240  175.5190  142.7520 C   0  0  0  0  0  0  0  0  0  0  0  0
  189.4500  174.2940  142.3370 C   0  0  0  0  0  3  0  0  0  0  0  0
  188.5920  177.5670  143.6530 C   0  0  2  0  0  3  0  0  0  0  0  0
  188.6700  177.0970  141.9460 S   0  0  0  0  0  0  0  0  0  0  0  0
  188.9620  176.1940  144.1050 C   0  0  2  0  0  3  0  0  0  0  0  0
  189.1230  172.1640  139.2650 C   0  0  1  0  0  3  0  0  0  0  0  0
  188.2930  173.3710  138.8430 C   0  0  0  0  0  3  0  0  0  0  0  0
  191.3230  172.2180  140.6700 C   0  0  0  0  0  2  0  0  0  0  0  0
  188.4640  174.4460  139.9090 C   0  0  0  0  0  3  0  0  0  0  0  0
  189.5190  173.9510  140.8820 C   0  0  2  0  0  0  0  0  0  0  0  0
  190.0200  171.7050  138.1190 C   0  0  0  0  0  1  0  0  0  0  0  0
  189.8380  172.5170  140.5790 C   0  0  2  0  0  0  0  0  0  0  0  0
  190.8810  173.6220  140.3180 C   0  0  2  0  0  3  0  0  0  0  0  0
  186.0600  178.0880  144.3270 C   0  0  0  0  0  0  0  0  0  0  0  0
  187.2020  177.8510  144.0230 C   0  0  0  0  0  0  0  0  0  0  0  0
  184.4010  179.7230  144.4380 O   0  0  0  0  0  1  0  0  0  0  0  0
  184.6760  178.3810  144.6990 C   0  0  2  0  0  3  0  0  0  0  0  0
  184.4740  178.0880  146.1770 C   0  0  0  0  0  2  0  0  0  0  0  0
  185.2700  179.0540  147.0410 C   0  0  0  0  0  2  0  0  0  0  0  0
  186.2490  178.2940  147.9170 C   0  0  0  0  0  2  0  0  0  0  0  0
  186.2110  176.8240  147.5610 C   0  0  0  0  0  1  0  0  0  0  0  0
  190.1810  175.1800  146.9900 O   0  0  0  0  0  1  0  0  0  0  0  0
  190.4910  174.9410  145.6490 C   0  0  2  0  0  3  0  0  0  0  0  0
  191.9380  174.4900  145.5320 C   0  0  0  0  0  2  0  0  0  0  0  0
  192.0260  173.0740  144.9790 C   0  0  1  0  0  3  0  0  0  0  0  0
  190.7500  172.5430  144.7810 O   0  0  0  0  0  1  0  0  0  0  0  0
  192.8380  173.0290  143.6850 C   0  0  0  0  0  2  0  0  0  0  0  0
  193.9150  171.9870  143.7090 C   0  0  0  0  0  0  0  0  0  0  0  0
  193.9090  171.1220  144.6260 O   0  0  0  0  0  0  0  0  0  0  0  0
  194.9820  171.9890  142.6910 C   0  0  0  0  0  0  0  0  0  0  0  0
  194.9060  170.9430  141.4260 S   0  0  0  0  0  0  0  0  0  0  0  0
  195.9690  173.0300  142.7220 N   0  0  0  0  0  2  0  0  0  0  0  0
  197.6420  172.2810  144.6730 S   0  0  0  0  0  0  0  0  0  0  0  0
  196.7880  173.4120  143.8350 C   0  0  0  0  0  0  0  0  0  0  0  0
  195.6550  174.7060  145.5110 O   0  0  0  0  0  1  0  0  0  0  0  0
  196.5510  174.7650  144.4390 C   0  0  2  0  0  3  0  0  0  0  0  0
  196.9600  176.9060  143.4560 O   0  0  0  0  0  1  0  0  0  0  0  0
  196.1170  175.7960  143.3970 C   0  0  2  0  0  3  0  0  0  0  0  0
  194.6680  176.2330  143.5850 C   0  0  0  0  0  2  0  0  0  0  0  0
  194.5250  175.8030  141.2470 O   0  0  0  0  0  0  0  0  0  0  0  0
  193.9160  176.1030  142.3060 C   0  0  0  0  0  0  0  0  0  0  0  0
  192.5400  176.2820  142.2890 O   0  0  0  0  0  1  0  0  0  0  0  0
  1 24  1  0  0  0  0
  2  6  1  0  0  0  0
  3  2  2  0  0  0  0
  4 16  1  1  0  0  0
  4  6  1  0  0  0  0
  5  2  1  0  0  0  0
  5  4  1  0  0  0  0
  6  1  1  6  0  0  0
  7 12  1  6  0  0  0
  7 13  1  0  0  0  0
  8  7  1  0  0  0  0
  8 10  2  0  0  0  0
 10 11  1  0  0  0  0
 11  3  1  1  0  0  0
 13  9  1  1  0  0  0
 13 11  1  0  0  0  0
 14 13  1  0  0  0  0
 14  9  1  1  0  0  0
 14 11  1  0  0  0  0
 15 18  1  0  0  0  0
 16 15  3  0  0  0  0
 18 17  1  1  0  0  0
 18 19  1  0  0  0  0
 19 20  1  0  0  0  0
 20 21  1  0  0  0  0
 22 21  1  0  0  0  0
 24 23  1  1  0  0  0
 25 24  1  0  0  0  0
 26 27  1  6  0  0  0
 26 25  1  0  0  0  0
 28 29  1  0  0  0  0
 28 26  1  0  0  0  0
 29 30  2  0  0  0  0
 31 33  1  0  0  0  0
 31 29  1  0  0  0  0
 32 31  2  0  0  0  0
 33 35  1  0  0  0  0
 35 37  1  0  0  0  0
 35 34  2  0  0  0  0
 37 36  1  1  0  0  0
 39 38  1  1  0  0  0
 39 40  1  0  0  0  0
 39 37  1  0  0  0  0
 41 42  2  0  0  0  0
 42 40  1  0  0  0  0
 43 42  1  0  0  0  0
M  END
>  <MODEL>
6

>  <REMARK>
 VINA RESULT:      -5.9      3.318      5.399
  Name = 
  19 active torsions:
  status: ('A' for Active; 'I' for Inactive)
    1  A    between atoms: N_1  and  C_3
    2  A    between atoms: N_1  and  C_39
    3  A    between atoms: C_3  and  C_22
    4  A    between atoms: C_6  and  C_35
    5  A    between atoms: C_6  and  C_37
    6  A    between atoms: C_7  and  C_30
    7  A    between atoms: C_8  and  C_26
    8  A    between atoms: C_10  and  C_32
    9  A    between atoms: C_13  and  C_16
   10  A    between atoms: C_13  and  C_22
   11  A    between atoms: C_15  and  C_36
   12  A    between atoms: C_16  and  C_17
   13  A    between atoms: C_17  and  C_37
   14  A    between atoms: C_18  and  C_19
   15  A    between atoms: C_19  and  C_43
   16  A    between atoms: C_20  and  C_26
   17  A    between atoms: C_20  and  C_30
   18  A    between atoms: C_39  and  C_40
   19  A    between atoms: C_40  and  C_43
                            x       y       z     vdW  Elec       q    Type
                         _______ _______ _______ _____ _____    ______ ____

>  <TORSDO>
F 19

$$$$
=
 OpenBabel11042419173D

 43 46  0  0  1  0  0  0  0  0999 V2000
  186.2420  178.5780  144.1320 C   0  0  0  0  0  2  0  0  0  0  0  0
  186.5690  176.7910  142.4270 C   0  0  0  0  0  0  0  0  0  0  0  0
  187.3000  175.7630  142.8640 C   0  0  0  0  0  3  0  0  0  0  0  0
  185.2440  178.5830  141.8610 C   0  0  2  0  0  3  0  0  0  0  0  0
  186.3370  177.6460  140.8270 S   0  0  0  0  0  0  0  0  0  0  0  0
  185.5630  177.7430  143.0530 C   0  0  2  0  0  3  0  0  0  0  0  0
  188.7110  172.8020  141.0410 C   0  0  1  0  0  3  0  0  0  0  0  0
  188.4850  173.7530  139.8710 C   0  0  0  0  0  3  0  0  0  0  0  0
  189.5320  173.4620  143.4300 C   0  0  0  0  0  2  0  0  0  0  0  0
  188.0800  175.1050  140.4450 C   0  0  0  0  0  3  0  0  0  0  0  0
  188.2230  175.0140  141.9530 C   0  0  2  0  0  0  0  0  0  0  0  0
  190.0630  172.1080  140.9100 C   0  0  0  0  0  1  0  0  0  0  0  0
  188.4820  173.5890  142.3410 C   0  0  2  0  0  0  0  0  0  0  0  0
  189.5840  174.6550  142.5000 C   0  0  2  0  0  3  0  0  0  0  0  0
  182.7170  178.1560  141.1070 C   0  0  0  0  0  0  0  0  0  0  0  0
  183.8560  178.3490  141.4490 C   0  0  0  0  0  0  0  0  0  0  0  0
  181.3290  177.3820  139.4000 O   0  0  0  0  0  1  0  0  0  0  0  0
  181.3360  177.9200  140.6860 C   0  0  2  0  0  3  0  0  0  0  0  0
  180.5690  179.2330  140.7040 C   0  0  0  0  0  2  0  0  0  0  0  0
  179.2660  179.0960  141.4760 C   0  0  0  0  0  2  0  0  0  0  0  0
  179.0540  177.6560  141.9040 C   0  0  0  0  0  2  0  0  0  0  0  0
  177.8240  177.1010  141.2190 C   0  0  0  0  0  1  0  0  0  0  0  0
  184.6450  178.9980  145.8590 O   0  0  0  0  0  1  0  0  0  0  0  0
  185.7370  178.1970  145.5130 C   0  0  2  0  0  3  0  0  0  0  0  0
  186.8550  178.3940  146.5240 C   0  0  0  0  0  2  0  0  0  0  0  0
  187.2210  177.0780  147.1980 C   0  0  1  0  0  3  0  0  0  0  0  0
  186.0920  176.4900  147.7730 O   0  0  0  0  0  1  0  0  0  0  0  0
  187.8920  176.1170  146.2180 C   0  0  0  0  0  2  0  0  0  0  0  0
  189.3160  175.8170  146.5790 C   0  0  0  0  0  0  0  0  0  0  0  0
  189.5540  174.9310  147.4440 O   0  0  0  0  0  0  0  0  0  0  0  0
  190.4210  176.5650  145.9520 C   0  0  0  0  0  0  0  0  0  0  0  0
  190.0950  177.6930  144.8020 S   0  0  0  0  0  0  0  0  0  0  0  0
  191.7450  176.4290  146.4900 N   0  0  0  0  0  2  0  0  0  0  0  0
  194.4050  176.1500  146.3830 S   0  0  0  0  0  0  0  0  0  0  0  0
  192.8800  175.8320  145.8510 C   0  0  0  0  0  0  0  0  0  0  0  0
  192.8920  173.8580  144.4830 O   0  0  0  0  0  1  0  0  0  0  0  0
  192.6760  175.2400  144.4870 C   0  0  2  0  0  3  0  0  0  0  0  0
  192.6750  176.6650  142.5670 O   0  0  0  0  0  1  0  0  0  0  0  0
  193.5130  175.9450  143.4190 C   0  0  2  0  0  3  0  0  0  0  0  0
  194.3600  174.9670  142.6110 C   0  0  0  0  0  2  0  0  0  0  0  0
  192.9380  174.1480  140.8840 O   0  0  0  0  0  1  0  0  0  0  0  0
  193.8860  174.9120  141.2000 C   0  0  0  0  0  0  0  0  0  0  0  0
  194.4700  175.7270  140.2400 O   0  0  0  0  0  0  0  0  0  0  0  0
  1 24  1  0  0  0  0
  2  3  2  0  0  0  0
  2  6  1  0  0  0  0
  4 16  1  6  0  0  0
  4  6  1  0  0  0  0
  5  4  1  0  0  0  0
  5  2  1  0  0  0  0
  6  1  1  1  0  0  0
  7 12  1  1  0  0  0
  7 13  1  0  0  0  0
  8 10  2  0  0  0  0
  8  7  1  0  0  0  0
 10 11  1  0  0  0  0
 11 13  1  0  0  0  0
 11 14  1  0  0  0  0
 11  3  1  1  0  0  0
 13 14  1  0  0  0  0
 13  9  1  1  0  0  0
 14  9  1  1  0  0  0
 15 16  3  0  0  0  0
 18 17  1  6  0  0  0
 18 19  1  0  0  0  0
 18 15  1  0  0  0  0
 19 20  1  0  0  0  0
 20 21  1  0  0  0  0
 22 21  1  0  0  0  0
 24 23  1  1  0  0  0
 24 25  1  0  0  0  0
 25 26  1  0  0  0  0
 26 27  1  6  0  0  0
 28 29  1  0  0  0  0
 28 26  1  0  0  0  0
 29 30  2  0  0  0  0
 31 33  1  0  0  0  0
 31 29  1  0  0  0  0
 32 31  2  0  0  0  0
 35 34  2  0  0  0  0
 35 33  1  0  0  0  0
 37 36  1  1  0  0  0
 37 35  1  0  0  0  0
 39 38  1  6  0  0  0
 39 37  1  0  0  0  0
 40 39  1  0  0  0  0
 41 42  1  0  0  0  0
 42 40  1  0  0  0  0
 43 42  2  0  0  0  0
M  END
>  <MODEL>
7

>  <REMARK>
 VINA RESULT:      -5.9      1.802      2.195
  Name = 
  19 active torsions:
  status: ('A' for Active; 'I' for Inactive)
    1  A    between atoms: N_1  and  C_3
    2  A    between atoms: N_1  and  C_39
    3  A    between atoms: C_3  and  C_22
    4  A    between atoms: C_6  and  C_35
    5  A    between atoms: C_6  and  C_37
    6  A    between atoms: C_7  and  C_30
    7  A    between atoms: C_8  and  C_26
    8  A    between atoms: C_10  and  C_32
    9  A    between atoms: C_13  and  C_16
   10  A    between atoms: C_13  and  C_22
   11  A    between atoms: C_15  and  C_36
   12  A    between atoms: C_16  and  C_17
   13  A    between atoms: C_17  and  C_37
   14  A    between atoms: C_18  and  C_19
   15  A    between atoms: C_19  and  C_43
   16  A    between atoms: C_20  and  C_26
   17  A    between atoms: C_20  and  C_30
   18  A    between atoms: C_39  and  C_40
   19  A    between atoms: C_40  and  C_43
                            x       y       z     vdW  Elec       q    Type
                         _______ _______ _______ _____ _____    ______ ____

>  <TORSDO>
F 19

$$$$
=
 OpenBabel11042419173D

 43 46  0  0  1  0  0  0  0  0999 V2000
  190.1960  174.5940  143.9280 C   0  0  0  0  0  2  0  0  0  0  0  0
  188.2830  175.9310  143.0560 C   0  0  0  0  0  0  0  0  0  0  0  0
  188.1410  177.1140  143.6560 C   0  0  0  0  0  3  0  0  0  0  0  0
  188.7240  173.9090  142.0520 C   0  0  2  0  0  3  0  0  0  0  0  0
  187.1550  174.6860  142.3320 S   0  0  0  0  0  0  0  0  0  0  0  0
  189.4610  175.0490  142.6730 C   0  0  2  0  0  3  0  0  0  0  0  0
  185.5420  179.2410  145.3320 C   0  0  1  0  0  3  0  0  0  0  0  0
  185.4220  179.7500  143.9000 C   0  0  0  0  0  3  0  0  0  0  0  0
  185.9730  176.7700  146.0600 C   0  0  0  0  0  2  0  0  0  0  0  0
  186.2860  178.8590  143.0180 C   0  0  0  0  0  3  0  0  0  0  0  0
  186.7920  177.7200  143.8850 C   0  0  2  0  0  0  0  0  0  0  0  0
  184.1600  179.0430  145.9470 C   0  0  0  0  0  1  0  0  0  0  0  0
  186.4550  178.0040  145.3190 C   0  0  2  0  0  0  0  0  0  0  0  0
  185.7560  176.8550  144.5640 C   0  0  2  0  0  3  0  0  0  0  0  0
  189.2260  173.8300  139.4290 C   0  0  0  0  0  0  0  0  0  0  0  0
  189.0020  173.8660  140.6130 C   0  0  0  0  0  0  0  0  0  0  0  0
  188.4390  174.3830  137.3050 O   0  0  0  0  0  1  0  0  0  0  0  0
  189.4940  173.7830  137.9920 C   0  0  2  0  0  3  0  0  0  0  0  0
  189.6450  172.3360  137.5500 C   0  0  0  0  0  2  0  0  0  0  0  0
  190.8790  171.7000  138.1700 C   0  0  0  0  0  2  0  0  0  0  0  0
  190.5290  170.3580  138.7860 C   0  0  0  0  0  2  0  0  0  0  0  0
  190.0770  169.4060  137.7000 C   0  0  0  0  0  1  0  0  0  0  0  0
  189.8180  172.4580  144.9280 O   0  0  0  0  0  1  0  0  0  0  0  0
  190.4800  173.1020  143.8810 C   0  0  2  0  0  3  0  0  0  0  0  0
  191.9780  172.8770  144.0080 C   0  0  0  0  0  2  0  0  0  0  0  0
  192.5470  172.2530  142.7410 C   0  0  1  0  0  3  0  0  0  0  0  0
  191.7920  171.1430  142.3590 O   0  0  0  0  0  1  0  0  0  0  0  0
  192.6270  173.2720  141.6050 C   0  0  0  0  0  2  0  0  0  0  0  0
  193.5730  174.3970  141.8970 C   0  0  0  0  0  0  0  0  0  0  0  0
  193.1520  175.5830  141.8300 O   0  0  0  0  0  0  0  0  0  0  0  0
  194.9830  174.1220  142.2310 C   0  0  0  0  0  0  0  0  0  0  0  0
  195.7750  172.8910  141.4830 S   0  0  0  0  0  0  0  0  0  0  0  0
  195.6930  175.0510  143.0630 N   0  0  0  0  0  2  0  0  0  0  0  0
  197.8780  174.1720  144.3360 S   0  0  0  0  0  0  0  0  0  0  0  0
  196.3450  174.7710  144.3090 C   0  0  0  0  0  0  0  0  0  0  0  0
  194.9630  173.3850  145.7010 O   0  0  0  0  0  1  0  0  0  0  0  0
  195.4850  174.6720  145.5350 C   0  0  2  0  0  3  0  0  0  0  0  0
  194.9340  176.9670  145.9140 O   0  0  0  0  0  1  0  0  0  0  0  0
  194.3860  175.7350  145.5590 C   0  0  2  0  0  3  0  0  0  0  0  0
  193.2540  175.3730  146.5150 C   0  0  0  0  0  2  0  0  0  0  0  0
  191.8890  176.9660  145.3860 O   0  0  0  0  0  0  0  0  0  0  0  0
  192.1900  176.4150  146.4760 C   0  0  0  0  0  0  0  0  0  0  0  0
  191.5110  176.7560  147.6380 O   0  0  0  0  0  1  0  0  0  0  0  0
  2  3  2  0  0  0  0
  4 16  1  6  0  0  0
  4  5  1  0  0  0  0
  4  6  1  0  0  0  0
  5  2  1  0  0  0  0
  6  2  1  0  0  0  0
  6  1  1  1  0  0  0
  7 12  1  6  0  0  0
  8  7  1  0  0  0  0
 10 11  1  0  0  0  0
 10  8  2  0  0  0  0
 11  3  1  6  0  0  0
 11 14  1  0  0  0  0
 11 13  1  0  0  0  0
 13  7  1  0  0  0  0
 13  9  1  1  0  0  0
 14 13  1  0  0  0  0
 14  9  1  1  0  0  0
 15 16  3  0  0  0  0
 18 17  1  6  0  0  0
 18 15  1  0  0  0  0
 19 18  1  0  0  0  0
 19 20  1  0  0  0  0
 20 21  1  0  0  0  0
 22 21  1  0  0  0  0
 24  1  1  0  0  0  0
 24 25  1  0  0  0  0
 24 23  1  1  0  0  0
 26 27  1  6  0  0  0
 26 25  1  0  0  0  0
 28 29  1  0  0  0  0
 28 26  1  0  0  0  0
 29 31  1  0  0  0  0
 30 29  2  0  0  0  0
 31 33  1  0  0  0  0
 32 31  2  0  0  0  0
 33 35  1  0  0  0  0
 35 34  2  0  0  0  0
 35 37  1  0  0  0  0
 37 39  1  0  0  0  0
 37 36  1  6  0  0  0
 39 38  1  1  0  0  0
 39 40  1  0  0  0  0
 41 42  2  0  0  0  0
 42 40  1  0  0  0  0
 42 43  1  0  0  0  0
M  END
>  <MODEL>
8

>  <REMARK>
 VINA RESULT:      -5.9      3.582      7.430
  Name = 
  19 active torsions:
  status: ('A' for Active; 'I' for Inactive)
    1  A    between atoms: N_1  and  C_3
    2  A    between atoms: N_1  and  C_39
    3  A    between atoms: C_3  and  C_22
    4  A    between atoms: C_6  and  C_35
    5  A    between atoms: C_6  and  C_37
    6  A    between atoms: C_7  and  C_30
    7  A    between atoms: C_8  and  C_26
    8  A    between atoms: C_10  and  C_32
    9  A    between atoms: C_13  and  C_16
   10  A    between atoms: C_13  and  C_22
   11  A    between atoms: C_15  and  C_36
   12  A    between atoms: C_16  and  C_17
   13  A    between atoms: C_17  and  C_37
   14  A    between atoms: C_18  and  C_19
   15  A    between atoms: C_19  and  C_43
   16  A    between atoms: C_20  and  C_26
   17  A    between atoms: C_20  and  C_30
   18  A    between atoms: C_39  and  C_40
   19  A    between atoms: C_40  and  C_43
                            x       y       z     vdW  Elec       q    Type
                         _______ _______ _______ _____ _____    ______ ____

>  <TORSDO>
F 19

$$$$
=
 OpenBabel11042419173D

 43 46  0  0  1  0  0  0  0  0999 V2000
  189.2650  174.2770  142.8570 C   0  0  0  0  0  2  0  0  0  0  0  0
  188.9660  176.1640  144.4560 C   0  0  0  0  0  0  0  0  0  0  0  0
  187.9300  176.0050  145.2820 C   0  0  0  0  0  3  0  0  0  0  0  0
  190.7710  176.2400  143.0330 C   0  0  2  0  0  3  0  0  0  0  0  0
  189.7840  177.5820  143.6390 S   0  0  0  0  0  0  0  0  0  0  0  0
  189.9770  175.2370  143.8020 C   0  0  2  0  0  3  0  0  0  0  0  0
  184.8930  177.8280  146.5220 C   0  0  1  0  0  3  0  0  0  0  0  0
  185.8990  178.2200  147.5990 C   0  0  0  0  0  3  0  0  0  0  0  0
  185.3880  177.5600  143.9720 C   0  0  0  0  0  2  0  0  0  0  0  0
  187.2670  177.7160  147.1600 C   0  0  0  0  0  3  0  0  0  0  0  0
  187.1160  177.1700  145.7510 C   0  0  2  0  0  0  0  0  0  0  0  0
  184.0630  179.0370  146.1000 C   0  0  0  0  0  1  0  0  0  0  0  0
  185.6590  177.1140  145.3970 C   0  0  2  0  0  0  0  0  0  0  0  0
  186.5970  178.1160  144.6940 C   0  0  2  0  0  3  0  0  0  0  0  0
  193.2350  176.4150  144.0510 C   0  0  0  0  0  0  0  0  0  0  0  0
  192.1240  176.3330  143.5920 C   0  0  0  0  0  0  0  0  0  0  0  0
  195.4770  175.8320  143.7830 O   0  0  0  0  0  1  0  0  0  0  0  0
  194.5850  176.5180  144.6060 C   0  0  2  0  0  3  0  0  0  0  0  0
  194.6050  175.9230  146.0050 C   0  0  0  0  0  2  0  0  0  0  0  0
  193.5570  176.5750  146.8940 C   0  0  0  0  0  2  0  0  0  0  0  0
  192.4420  175.5930  147.2030 C   0  0  0  0  0  2  0  0  0  0  0  0
  191.1500  176.3490  147.4200 C   0  0  0  0  0  1  0  0  0  0  0  0
  188.1270  174.8880  140.8470 O   0  0  0  0  0  1  0  0  0  0  0  0
  189.3940  174.7370  141.4140 C   0  0  2  0  0  3  0  0  0  0  0  0
  190.1840  173.7010  140.6310 C   0  0  0  0  0  2  0  0  0  0  0  0
  189.4000  172.4020  140.4970 C   0  0  1  0  0  3  0  0  0  0  0  0
  188.7080  172.3710  139.2840 O   0  0  0  0  0  1  0  0  0  0  0  0
  190.3120  171.1840  140.6320 C   0  0  0  0  0  2  0  0  0  0  0  0
  191.5150  171.2540  139.7400 C   0  0  0  0  0  0  0  0  0  0  0  0
  191.3490  171.4300  138.5030 O   0  0  0  0  0  0  0  0  0  0  0  0
  192.8700  171.0930  140.2970 C   0  0  0  0  0  0  0  0  0  0  0  0
  194.1600  171.7360  139.5060 S   0  0  0  0  0  0  0  0  0  0  0  0
  193.0190  170.5400  141.6130 N   0  0  0  0  0  2  0  0  0  0  0  0
  192.9360  172.6790  143.2210 S   0  0  0  0  0  0  0  0  0  0  0  0
  193.5230  171.2060  142.7770 C   0  0  0  0  0  0  0  0  0  0  0  0
  195.5480  169.9680  142.4130 O   0  0  0  0  0  1  0  0  0  0  0  0
  194.8270  170.7240  143.3420 C   0  0  2  0  0  3  0  0  0  0  0  0
  193.3460  169.4670  144.7360 O   0  0  0  0  0  1  0  0  0  0  0  0
  194.6440  169.9720  144.6610 C   0  0  2  0  0  3  0  0  0  0  0  0
  194.9300  170.8520  145.8730 C   0  0  0  0  0  2  0  0  0  0  0  0
  197.1880  170.1460  146.1540 O   0  0  0  0  0  1  0  0  0  0  0  0
  196.3930  171.1080  145.9940 C   0  0  0  0  0  0  0  0  0  0  0  0
  196.8810  172.4040  145.9020 O   0  0  0  0  0  0  0  0  0  0  0  0
  2  3  2  0  0  0  0
  4 16  1  1  0  0  0
  4  5  1  0  0  0  0
  4  6  1  0  0  0  0
  5  2  1  0  0  0  0
  6  1  1  6  0  0  0
  6  2  1  0  0  0  0
  7 12  1  6  0  0  0
  7  8  1  0  0  0  0
 10  8  2  0  0  0  0
 11  3  1  6  0  0  0
 11 10  1  0  0  0  0
 13  9  1  6  0  0  0
 13 11  1  0  0  0  0
 13  7  1  0  0  0  0
 14  9  1  6  0  0  0
 14 13  1  0  0  0  0
 14 11  1  0  0  0  0
 15 18  1  0  0  0  0
 16 15  3  0  0  0  0
 18 17  1  6  0  0  0
 18 19  1  0  0  0  0
 19 20  1  0  0  0  0
 20 21  1  0  0  0  0
 21 22  1  0  0  0  0
 24 23  1  6  0  0  0
 24  1  1  0  0  0  0
 25 24  1  0  0  0  0
 26 27  1  6  0  0  0
 26 25  1  0  0  0  0
 26 28  1  0  0  0  0
 29 31  1  0  0  0  0
 29 28  1  0  0  0  0
 30 29  2  0  0  0  0
 31 33  1  0  0  0  0
 32 31  2  0  0  0  0
 33 35  1  0  0  0  0
 35 34  2  0  0  0  0
 35 37  1  0  0  0  0
 37 36  1  6  0  0  0
 37 39  1  0  0  0  0
 39 38  1  1  0  0  0
 39 40  1  0  0  0  0
 40 42  1  0  0  0  0
 42 41  1  0  0  0  0
 43 42  2  0  0  0  0
M  END
>  <MODEL>
9

>  <REMARK>
 VINA RESULT:      -5.8      3.850      8.446
  Name = 
  19 active torsions:
  status: ('A' for Active; 'I' for Inactive)
    1  A    between atoms: N_1  and  C_3
    2  A    between atoms: N_1  and  C_39
    3  A    between atoms: C_3  and  C_22
    4  A    between atoms: C_6  and  C_35
    5  A    between atoms: C_6  and  C_37
    6  A    between atoms: C_7  and  C_30
    7  A    between atoms: C_8  and  C_26
    8  A    between atoms: C_10  and  C_32
    9  A    between atoms: C_13  and  C_16
   10  A    between atoms: C_13  and  C_22
   11  A    between atoms: C_15  and  C_36
   12  A    between atoms: C_16  and  C_17
   13  A    between atoms: C_17  and  C_37
   14  A    between atoms: C_18  and  C_19
   15  A    between atoms: C_19  and  C_43
   16  A    between atoms: C_20  and  C_26
   17  A    between atoms: C_20  and  C_30
   18  A    between atoms: C_39  and  C_40
   19  A    between atoms: C_40  and  C_43
                            x       y       z     vdW  Elec       q    Type
                         _______ _______ _______ _____ _____    ______ ____

>  <TORSDO>
F 19

$$$$
