=
 OpenBabel11042419323D

 32 36  0  0  1  0  0  0  0  0999 V2000
  192.6880  175.6160  146.8600 C   0  0  0  0  0  3  0  0  0  0  0  0
  187.7280  177.0300  145.1720 C   0  0  0  0  0  3  0  0  0  0  0  0
  187.5250  177.9210  142.8910 C   0  0  0  0  0  0  0  0  0  0  0  0
  190.1950  176.2830  145.7710 C   0  0  0  0  0  0  0  0  0  0  0  0
  191.5200  175.6170  147.6710 C   0  0  0  0  0  3  0  0  0  0  0  0
  193.4520  176.4140  143.3270 C   0  0  0  0  0  3  0  0  0  0  0  0
  192.5800  175.9540  145.4990 C   0  0  0  0  0  0  0  0  0  0  0  0
  186.9090  178.6660  142.0830 O   0  0  0  0  0  0  0  0  0  0  0  0
  192.1620  176.7420  142.8340 C   0  0  0  0  0  3  0  0  0  0  0  0
  190.2520  175.9610  147.1310 C   0  0  0  0  0  3  0  0  0  0  0  0
  189.6610  176.9290  143.6510 C   0  0  0  0  0  0  0  0  0  0  0  0
  186.9460  177.6070  144.2400 C   0  0  0  0  0  0  0  0  0  0  0  0
  191.0980  176.6370  143.7310 C   0  0  0  0  0  0  0  0  0  0  0  0
  191.3270  176.2610  145.0150 C   0  0  0  0  0  0  0  0  0  0  0  0
  189.1280  176.7230  144.8650 C   0  0  0  0  0  0  0  0  0  0  0  0
  193.6370  176.0300  144.6380 N   0  0  0  0  0  0  0  0  0  0  0  0
  188.8430  177.3210  142.4520 C   0  0  1  0  0  3  0  0  0  0  0  0
  185.2020  178.3600  145.9120 N   0  0  0  0  0  2  0  0  0  0  0  0
  183.8340  178.6670  146.2960 C   0  0  0  0  0  1  0  0  0  0  0  0
  185.5450  177.9430  144.5880 C   0  0  0  0  0  0  0  0  0  0  0  0
  184.6420  177.8620  143.7100 O   0  0  0  0  0  0  0  0  0  0  0  0
  188.5670  176.1440  141.6370 N   0  0  0  0  0  2  0  0  0  0  0  0
  187.8830  175.2640  142.4050 O   0  0  0  0  0  0  0  0  0  0  0  0
  188.2010  174.0140  141.8690 C   0  0  0  0  0  2  0  0  0  0  0  0
  189.4090  173.4640  142.5540 C   0  0  0  0  0  0  0  0  0  0  0  0
  189.3520  173.1980  143.8710 C   0  0  0  0  0  3  0  0  0  0  0  0
  191.8490  172.9010  143.9490 C   0  0  2  0  0  3  0  0  0  0  0  0
  190.5120  172.6160  144.6380 C   0  0  0  0  0  2  0  0  0  0  0  0
  190.6980  173.3640  141.7710 C   0  0  0  0  0  2  0  0  0  0  0  0
  191.7590  172.5150  142.4750 C   0  0  0  0  0  2  0  0  0  0  0  0
  192.9840  172.1450  144.6350 C   0  0  0  0  0  2  0  0  0  0  0  0
  194.2250  172.6880  144.2920 O   0  0  0  0  0  1  0  0  0  0  0  0
  1  5  1  0  0  0  0
  3 12  1  0  0  0  0
  4 10  1  0  0  0  0
  6 16  2  0  0  0  0
  7  1  2  0  0  0  0
  8  3  2  0  0  0  0
  9  6  1  0  0  0  0
  9 13  2  0  0  0  0
 10  5  2  0  0  0  0
 11 13  1  0  0  0  0
 11 15  2  0  0  0  0
 12 20  1  0  0  0  0
 12  2  2  0  0  0  0
 13 14  1  0  0  0  0
 14  7  1  0  0  0  0
 14  4  2  0  0  0  0
 15  2  1  0  0  0  0
 15  4  1  0  0  0  0
 16  7  1  0  0  0  0
 17 22  1  6  0  0  0
 17  3  1  0  0  0  0
 17 11  1  0  0  0  0
 18 19  1  0  0  0  0
 20 18  1  0  0  0  0
 21 20  2  0  0  0  0
 22 23  1  0  0  0  0
 24 23  1  0  0  0  0
 24 25  1  0  0  0  0
 25 26  2  0  0  0  0
 26 28  1  0  0  0  0
 27 31  1  1  0  0  0
 27 28  1  0  0  0  0
 29 30  1  0  0  0  0
 29 25  1  0  0  0  0
 30 27  1  0  0  0  0
 32 31  1  0  0  0  0
M  END
>  <MODEL>
1

>  <REMARK>
 VINA RESULT:      -7.1      0.000      0.000
  Name = 
  6 active torsions:
  status: ('A' for Active; 'I' for Inactive)
    1  A    between atoms: C_2  and  C_3
    2  A    between atoms: C_2  and  O_13
    3  A    between atoms: C_10  and  C_17
    4  A    between atoms: O_13  and  N_20
    5  A    between atoms: C_18  and  C_24
    6  A    between atoms: N_20  and  C_32
                            x       y       z     vdW  Elec       q    Type
                         _______ _______ _______ _____ _____    ______ ____

>  <TORSDO>
F 6

$$$$
=
 OpenBabel11042419323D

 32 36  0  0  1  0  0  0  0  0999 V2000
  186.1170  178.1690  142.3030 C   0  0  0  0  0  3  0  0  0  0  0  0
  191.1330  176.8990  143.9400 C   0  0  0  0  0  3  0  0  0  0  0  0
  191.4340  176.3250  146.3100 C   0  0  0  0  0  0  0  0  0  0  0  0
  188.6070  177.3670  143.3060 C   0  0  0  0  0  0  0  0  0  0  0  0
  187.2840  178.2520  141.4950 C   0  0  0  0  0  3  0  0  0  0  0  0
  185.3800  177.1420  145.7830 C   0  0  0  0  0  3  0  0  0  0  0  0
  186.2240  177.6770  143.6170 C   0  0  0  0  0  0  0  0  0  0  0  0
  192.1890  176.2970  147.3180 O   0  0  0  0  0  0  0  0  0  0  0  0
  186.6680  176.7510  146.2330 C   0  0  0  0  0  3  0  0  0  0  0  0
  188.5530  177.8560  141.9960 C   0  0  0  0  0  3  0  0  0  0  0  0
  189.1580  176.5860  145.3750 C   0  0  0  0  0  0  0  0  0  0  0  0
  191.9840  176.6230  144.9460 C   0  0  0  0  0  0  0  0  0  0  0  0
  187.7110  176.8280  145.3080 C   0  0  0  0  0  0  0  0  0  0  0  0
  187.4720  177.2850  144.0520 C   0  0  0  0  0  0  0  0  0  0  0  0
  189.6880  176.9120  144.1860 C   0  0  0  0  0  0  0  0  0  0  0  0
  185.1830  177.5930  144.4960 N   0  0  0  0  0  0  0  0  0  0  0  0
  189.9660  176.0110  146.5040 C   0  0  1  0  0  3  0  0  0  0  0  0
  194.0230  175.8000  143.6920 N   0  0  0  0  0  2  0  0  0  0  0  0
  195.4520  175.7830  143.4270 C   0  0  0  0  0  1  0  0  0  0  0  0
  193.4420  176.6550  144.6790 C   0  0  0  0  0  0  0  0  0  0  0  0
  194.1820  177.4450  145.3290 O   0  0  0  0  0  0  0  0  0  0  0  0
  189.8040  174.5620  146.5400 N   0  0  0  0  0  2  0  0  0  0  0  0
  190.6600  174.0300  145.6350 O   0  0  0  0  0  0  0  0  0  0  0  0
  189.9210  173.0280  145.0040 C   0  0  0  0  0  2  0  0  0  0  0  0
  189.7910  173.3360  143.5490 C   0  0  0  0  0  0  0  0  0  0  0  0
  188.5730  173.5820  143.0360 C   0  0  0  0  0  3  0  0  0  0  0  0
  189.4890  173.4190  140.6990 C   0  0  2  0  0  3  0  0  0  0  0  0
  188.3510  173.9290  141.5850 C   0  0  0  0  0  2  0  0  0  0  0  0
  191.0190  173.2170  142.6740 C   0  0  0  0  0  2  0  0  0  0  0  0
  190.8300  173.8450  141.2920 C   0  0  0  0  0  2  0  0  0  0  0  0
  189.3410  173.9430  139.2730 C   0  0  0  0  0  2  0  0  0  0  0  0
  188.1520  174.6630  139.1260 O   0  0  0  0  0  1  0  0  0  0  0  0
  1  7  1  0  0  0  0
  2 15  1  0  0  0  0
  2 12  2  0  0  0  0
  3 17  1  0  0  0  0
  3  8  2  0  0  0  0
  4 14  1  0  0  0  0
  4 15  1  0  0  0  0
  5 10  1  0  0  0  0
  5  1  2  0  0  0  0
  6  9  1  0  0  0  0
  7 14  2  0  0  0  0
  7 16  1  0  0  0  0
 10  4  2  0  0  0  0
 11 17  1  0  0  0  0
 12  3  1  0  0  0  0
 13 11  1  0  0  0  0
 13  9  2  0  0  0  0
 14 13  1  0  0  0  0
 15 11  2  0  0  0  0
 16  6  2  0  0  0  0
 17 22  1  6  0  0  0
 18 20  1  0  0  0  0
 19 18  1  0  0  0  0
 20 12  1  0  0  0  0
 20 21  2  0  0  0  0
 23 22  1  0  0  0  0
 24 23  1  0  0  0  0
 25 24  1  0  0  0  0
 26 25  2  0  0  0  0
 27 31  1  6  0  0  0
 27 30  1  0  0  0  0
 27 28  1  0  0  0  0
 28 26  1  0  0  0  0
 29 25  1  0  0  0  0
 30 29  1  0  0  0  0
 32 31  1  0  0  0  0
M  END
>  <MODEL>
2

>  <REMARK>
 VINA RESULT:      -7.0      2.231      6.143
  Name = 
  6 active torsions:
  status: ('A' for Active; 'I' for Inactive)
    1  A    between atoms: C_2  and  C_3
    2  A    between atoms: C_2  and  O_13
    3  A    between atoms: C_10  and  C_17
    4  A    between atoms: O_13  and  N_20
    5  A    between atoms: C_18  and  C_24
    6  A    between atoms: N_20  and  C_32
                            x       y       z     vdW  Elec       q    Type
                         _______ _______ _______ _____ _____    ______ ____

>  <TORSDO>
F 6

$$$$
=
 OpenBabel11042419323D

 32 36  0  0  1  0  0  0  0  0999 V2000
  185.2160  178.5900  147.2430 C   0  0  0  0  0  3  0  0  0  0  0  0
  188.9400  175.1470  145.3130 C   0  0  0  0  0  3  0  0  0  0  0  0
  189.3840  175.2050  142.8960 C   0  0  0  0  0  0  0  0  0  0  0  0
  187.1890  176.9760  146.0830 C   0  0  0  0  0  0  0  0  0  0  0  0
  185.8700  177.5840  148.0060 C   0  0  0  0  0  3  0  0  0  0  0  0
  185.3580  179.7530  143.7310 C   0  0  0  0  0  3  0  0  0  0  0  0
  185.5710  178.7690  145.8940 C   0  0  0  0  0  0  0  0  0  0  0  0
  189.7460  174.5890  141.8590 O   0  0  0  0  0  0  0  0  0  0  0  0
  186.3650  178.9050  143.2010 C   0  0  0  0  0  3  0  0  0  0  0  0
  186.8660  176.7540  147.4260 C   0  0  0  0  0  3  0  0  0  0  0  0
  187.9690  176.9450  143.9410 C   0  0  0  0  0  0  0  0  0  0  0  0
  189.5610  174.5910  144.2550 C   0  0  0  0  0  0  0  0  0  0  0  0
  186.9640  178.0060  144.0860 C   0  0  0  0  0  0  0  0  0  0  0  0
  186.5580  177.9550  145.3800 C   0  0  0  0  0  0  0  0  0  0  0  0
  188.0980  176.3330  145.1280 C   0  0  0  0  0  0  0  0  0  0  0  0
  184.9830  179.6710  145.0550 N   0  0  0  0  0  0  0  0  0  0  0  0
  188.8020  176.5930  142.7410 C   0  0  1  0  0  3  0  0  0  0  0  0
  191.7710  173.3630  144.1610 N   0  0  0  0  0  2  0  0  0  0  0  0
  192.5930  172.1740  144.3220 C   0  0  0  0  0  1  0  0  0  0  0  0
  190.3740  173.3700  144.4630 C   0  0  0  0  0  0  0  0  0  0  0  0
  189.8320  172.3220  144.9120 O   0  0  0  0  0  0  0  0  0  0  0  0
  189.9010  177.5420  142.6070 N   0  0  0  0  0  2  0  0  0  0  0  0
  191.0510  176.8820  142.8840 O   0  0  0  0  0  0  0  0  0  0  0  0
  191.5880  177.5630  143.9780 C   0  0  0  0  0  2  0  0  0  0  0  0
  192.7690  176.8180  144.5070 C   0  0  0  0  0  0  0  0  0  0  0  0
  193.7270  176.4150  143.6530 C   0  0  0  0  0  3  0  0  0  0  0  0
  194.7510  174.9670  145.4370 C   0  0  2  0  0  3  0  0  0  0  0  0
  194.9660  175.6820  144.1020 C   0  0  0  0  0  2  0  0  0  0  0  0
  192.7740  176.4140  145.9640 C   0  0  0  0  0  2  0  0  0  0  0  0
  194.1450  175.9390  146.4470 C   0  0  0  0  0  2  0  0  0  0  0  0
  196.0650  174.3950  145.9630 C   0  0  0  0  0  2  0  0  0  0  0  0
  197.0820  174.5270  145.0130 O   0  0  0  0  0  1  0  0  0  0  0  0
  1  5  1  0  0  0  0
  3 12  1  0  0  0  0
  4 10  1  0  0  0  0
  6 16  2  0  0  0  0
  7  1  2  0  0  0  0
  8  3  2  0  0  0  0
  9  6  1  0  0  0  0
  9 13  2  0  0  0  0
 10  5  2  0  0  0  0
 11 13  1  0  0  0  0
 11 15  2  0  0  0  0
 12 20  1  0  0  0  0
 12  2  2  0  0  0  0
 13 14  1  0  0  0  0
 14  7  1  0  0  0  0
 14  4  2  0  0  0  0
 15  2  1  0  0  0  0
 15  4  1  0  0  0  0
 16  7  1  0  0  0  0
 17 22  1  1  0  0  0
 17  3  1  0  0  0  0
 17 11  1  0  0  0  0
 18 19  1  0  0  0  0
 18 20  1  0  0  0  0
 20 21  2  0  0  0  0
 22 23  1  0  0  0  0
 23 24  1  0  0  0  0
 24 25  1  0  0  0  0
 25 29  1  0  0  0  0
 26 28  1  0  0  0  0
 26 25  2  0  0  0  0
 27 31  1  1  0  0  0
 27 30  1  0  0  0  0
 28 27  1  0  0  0  0
 29 30  1  0  0  0  0
 32 31  1  0  0  0  0
M  END
>  <MODEL>
3

>  <REMARK>
 VINA RESULT:      -6.9      2.160      5.662
  Name = 
  6 active torsions:
  status: ('A' for Active; 'I' for Inactive)
    1  A    between atoms: C_2  and  C_3
    2  A    between atoms: C_2  and  O_13
    3  A    between atoms: C_10  and  C_17
    4  A    between atoms: O_13  and  N_20
    5  A    between atoms: C_18  and  C_24
    6  A    between atoms: N_20  and  C_32
                            x       y       z     vdW  Elec       q    Type
                         _______ _______ _______ _____ _____    ______ ____

>  <TORSDO>
F 6

$$$$
=
 OpenBabel11042419323D

 32 36  0  0  1  0  0  0  0  0999 V2000
  185.0670  178.1370  147.2410 C   0  0  0  0  0  3  0  0  0  0  0  0
  188.4560  175.0860  144.3000 C   0  0  0  0  0  3  0  0  0  0  0  0
  188.0930  175.0200  141.8700 C   0  0  0  0  0  0  0  0  0  0  0  0
  186.7870  176.7180  145.5470 C   0  0  0  0  0  0  0  0  0  0  0  0
  186.0740  177.2870  147.7780 C   0  0  0  0  0  3  0  0  0  0  0  0
  183.9060  179.0400  143.8440 C   0  0  0  0  0  3  0  0  0  0  0  0
  184.9430  178.2600  145.8460 C   0  0  0  0  0  0  0  0  0  0  0  0
  188.1940  174.3820  140.7880 O   0  0  0  0  0  0  0  0  0  0  0  0
  184.8080  178.2970  143.0390 C   0  0  0  0  0  3  0  0  0  0  0  0
  186.9460  176.5570  146.9270 C   0  0  0  0  0  3  0  0  0  0  0  0
  186.8400  176.6300  143.2700 C   0  0  0  0  0  0  0  0  0  0  0  0
  188.7840  174.5400  143.1130 C   0  0  0  0  0  0  0  0  0  0  0  0
  185.7850  177.5550  143.7040 C   0  0  0  0  0  0  0  0  0  0  0  0
  185.8250  177.5480  145.0610 C   0  0  0  0  0  0  0  0  0  0  0  0
  187.4310  176.1310  144.3660 C   0  0  0  0  0  0  0  0  0  0  0  0
  183.9890  179.0090  145.2200 N   0  0  0  0  0  0  0  0  0  0  0  0
  187.2900  176.3030  141.8730 C   0  0  1  0  0  3  0  0  0  0  0  0
  190.8400  173.4650  142.1030 N   0  0  0  0  0  2  0  0  0  0  0  0
  191.8300  172.4040  142.0200 C   0  0  0  0  0  1  0  0  0  0  0  0
  189.7960  173.4570  143.0780 C   0  0  0  0  0  0  0  0  0  0  0  0
  189.7380  172.5160  143.9170 O   0  0  0  0  0  0  0  0  0  0  0  0
  188.1330  177.3770  141.3620 N   0  0  0  0  0  2  0  0  0  0  0  0
  188.4900  178.1550  142.4110 O   0  0  0  0  0  0  0  0  0  0  0  0
  189.8580  178.3720  142.2340 C   0  0  0  0  0  2  0  0  0  0  0  0
  190.6230  177.6860  143.3170 C   0  0  0  0  0  0  0  0  0  0  0  0
  190.2910  177.9120  144.6000 C   0  0  0  0  0  3  0  0  0  0  0  0
  192.3990  176.7810  145.3770 C   0  0  2  0  0  3  0  0  0  0  0  0
  190.9900  177.2420  145.7550 C   0  0  0  0  0  2  0  0  0  0  0  0
  191.8400  176.8730  142.9360 C   0  0  0  0  0  2  0  0  0  0  0  0
  192.3450  175.9850  144.0750 C   0  0  0  0  0  2  0  0  0  0  0  0
  193.0120  175.9410  146.4950 C   0  0  0  0  0  2  0  0  0  0  0  0
  194.4010  176.0950  146.5310 O   0  0  0  0  0  1  0  0  0  0  0  0
  1  5  1  0  0  0  0
  2 15  1  0  0  0  0
  3 17  1  0  0  0  0
  3 12  1  0  0  0  0
  4 10  1  0  0  0  0
  6 16  2  0  0  0  0
  7  1  2  0  0  0  0
  8  3  2  0  0  0  0
  9 13  2  0  0  0  0
  9  6  1  0  0  0  0
 10  5  2  0  0  0  0
 11 13  1  0  0  0  0
 11 15  2  0  0  0  0
 12  2  2  0  0  0  0
 13 14  1  0  0  0  0
 14  4  2  0  0  0  0
 14  7  1  0  0  0  0
 15  4  1  0  0  0  0
 16  7  1  0  0  0  0
 17 22  1  1  0  0  0
 17 11  1  0  0  0  0
 18 20  1  0  0  0  0
 19 18  1  0  0  0  0
 20 12  1  0  0  0  0
 20 21  2  0  0  0  0
 22 23  1  0  0  0  0
 24 23  1  0  0  0  0
 24 25  1  0  0  0  0
 25 26  2  0  0  0  0
 26 28  1  0  0  0  0
 27 28  1  0  0  0  0
 27 31  1  1  0  0  0
 29 25  1  0  0  0  0
 29 30  1  0  0  0  0
 30 27  1  0  0  0  0
 31 32  1  0  0  0  0
M  END
>  <MODEL>
4

>  <REMARK>
 VINA RESULT:      -6.8      1.890      5.689
  Name = 
  6 active torsions:
  status: ('A' for Active; 'I' for Inactive)
    1  A    between atoms: C_2  and  C_3
    2  A    between atoms: C_2  and  O_13
    3  A    between atoms: C_10  and  C_17
    4  A    between atoms: O_13  and  N_20
    5  A    between atoms: C_18  and  C_24
    6  A    between atoms: N_20  and  C_32
                            x       y       z     vdW  Elec       q    Type
                         _______ _______ _______ _____ _____    ______ ____

>  <TORSDO>
F 6

$$$$
=
 OpenBabel11042419323D

 32 36  0  0  1  0  0  0  0  0999 V2000
  188.2110  177.4640  144.2770 C   0  0  0  0  0  3  0  0  0  0  0  0
  193.4730  176.2830  143.6810 C   0  0  0  0  0  3  0  0  0  0  0  0
  194.5580  175.0230  145.4910 C   0  0  0  0  0  0  0  0  0  0  0  0
  190.8860  176.6560  144.0930 C   0  0  0  0  0  0  0  0  0  0  0  0
  189.0340  177.9230  143.2120 C   0  0  0  0  0  3  0  0  0  0  0  0
  188.6930  175.3170  147.2540 C   0  0  0  0  0  3  0  0  0  0  0  0
  188.7540  176.5960  145.2410 C   0  0  0  0  0  0  0  0  0  0  0  0
  195.6110  174.7590  146.1310 O   0  0  0  0  0  0  0  0  0  0  0  0
  190.0540  174.9430  147.1050 C   0  0  0  0  0  3  0  0  0  0  0  0
  190.3940  177.5260  143.1130 C   0  0  0  0  0  3  0  0  0  0  0  0
  192.1020  175.3240  145.4860 C   0  0  0  0  0  0  0  0  0  0  0  0
  194.6140  175.7950  144.2050 C   0  0  0  0  0  0  0  0  0  0  0  0
  190.7210  175.4190  145.9750 C   0  0  0  0  0  0  0  0  0  0  0  0
  190.0720  176.2220  145.0930 C   0  0  0  0  0  0  0  0  0  0  0  0
  192.1980  176.0630  144.3710 C   0  0  0  0  0  0  0  0  0  0  0  0
  188.0730  176.1280  146.3280 N   0  0  0  0  0  0  0  0  0  0  0  0
  193.2420  174.5100  146.0330 C   0  0  1  0  0  3  0  0  0  0  0  0
  196.4730  175.0890  142.6390 N   0  0  0  0  0  2  0  0  0  0  0  0
  197.7420  175.3070  141.9650 C   0  0  0  0  0  1  0  0  0  0  0  0
  195.8940  176.0650  143.5080 C   0  0  0  0  0  0  0  0  0  0  0  0
  196.4840  177.1670  143.6820 O   0  0  0  0  0  0  0  0  0  0  0  0
  193.0900  173.1160  145.6330 N   0  0  0  0  0  2  0  0  0  0  0  0
  193.2250  173.0570  144.2870 O   0  0  0  0  0  0  0  0  0  0  0  0
  192.2810  172.1120  143.8830 C   0  0  0  0  0  2  0  0  0  0  0  0
  191.2190  172.7740  143.0690 C   0  0  0  0  0  0  0  0  0  0  0  0
  191.5720  173.4830  141.9820 C   0  0  0  0  0  3  0  0  0  0  0  0
  189.2540  174.4470  141.8200 C   0  0  2  0  0  3  0  0  0  0  0  0
  190.5660  174.1610  141.0870 C   0  0  0  0  0  2  0  0  0  0  0  0
  189.7960  172.7460  143.5790 C   0  0  0  0  0  2  0  0  0  0  0  0
  188.7750  173.1810  142.5260 C   0  0  0  0  0  2  0  0  0  0  0  0
  188.1910  174.9560  140.8500 C   0  0  0  0  0  2  0  0  0  0  0  0
  188.2880  174.3060  139.6160 O   0  0  0  0  0  1  0  0  0  0  0  0
  1  7  1  0  0  0  0
  2 12  2  0  0  0  0
  2 15  1  0  0  0  0
  3 17  1  0  0  0  0
  3  8  2  0  0  0  0
  4 15  1  0  0  0  0
  4 14  1  0  0  0  0
  5  1  2  0  0  0  0
  7 16  1  0  0  0  0
  9  6  1  0  0  0  0
 10  5  1  0  0  0  0
 10  4  2  0  0  0  0
 11 13  1  0  0  0  0
 11 17  1  0  0  0  0
 12  3  1  0  0  0  0
 13  9  2  0  0  0  0
 14  7  2  0  0  0  0
 14 13  1  0  0  0  0
 15 11  2  0  0  0  0
 16  6  2  0  0  0  0
 17 22  1  6  0  0  0
 18 20  1  0  0  0  0
 19 18  1  0  0  0  0
 20 21  2  0  0  0  0
 20 12  1  0  0  0  0
 23 22  1  0  0  0  0
 24 23  1  0  0  0  0
 25 29  1  0  0  0  0
 25 24  1  0  0  0  0
 26 25  2  0  0  0  0
 27 31  1  6  0  0  0
 27 30  1  0  0  0  0
 28 27  1  0  0  0  0
 28 26  1  0  0  0  0
 30 29  1  0  0  0  0
 32 31  1  0  0  0  0
M  END
>  <MODEL>
5

>  <REMARK>
 VINA RESULT:      -6.7      2.396      6.683
  Name = 
  6 active torsions:
  status: ('A' for Active; 'I' for Inactive)
    1  A    between atoms: C_2  and  C_3
    2  A    between atoms: C_2  and  O_13
    3  A    between atoms: C_10  and  C_17
    4  A    between atoms: O_13  and  N_20
    5  A    between atoms: C_18  and  C_24
    6  A    between atoms: N_20  and  C_32
                            x       y       z     vdW  Elec       q    Type
                         _______ _______ _______ _____ _____    ______ ____

>  <TORSDO>
F 6

$$$$
=
 OpenBabel11042419323D

 32 36  0  0  1  0  0  0  0  0999 V2000
  187.5660  177.7590  147.8080 C   0  0  0  0  0  3  0  0  0  0  0  0
  184.4900  177.8620  143.3390 C   0  0  0  0  0  3  0  0  0  0  0  0
  185.6500  177.9390  141.1740 C   0  0  0  0  0  0  0  0  0  0  0  0
  186.1510  177.6920  145.3920 C   0  0  0  0  0  0  0  0  0  0  0  0
  186.1480  177.8580  147.7970 C   0  0  0  0  0  3  0  0  0  0  0  0
  190.2170  177.4810  145.2380 C   0  0  0  0  0  3  0  0  0  0  0  0
  188.2560  177.6250  146.5900 C   0  0  0  0  0  0  0  0  0  0  0  0
  185.6390  178.2940  139.9650 O   0  0  0  0  0  0  0  0  0  0  0  0
  189.4440  177.4520  144.0480 C   0  0  0  0  0  3  0  0  0  0  0  0
  185.4200  177.8340  146.5760 C   0  0  0  0  0  3  0  0  0  0  0  0
  186.9290  177.5460  143.2550 C   0  0  0  0  0  0  0  0  0  0  0  0
  184.3990  177.9960  142.0020 C   0  0  0  0  0  0  0  0  0  0  0  0
  188.0560  177.4950  144.1950 C   0  0  0  0  0  0  0  0  0  0  0  0
  187.5070  177.5850  145.4330 C   0  0  0  0  0  0  0  0  0  0  0  0
  185.8000  177.6680  143.9680 C   0  0  0  0  0  0  0  0  0  0  0  0
  189.6150  177.5650  146.4760 N   0  0  0  0  0  0  0  0  0  0  0  0
  186.9450  177.4170  141.7570 C   0  0  1  0  0  3  0  0  0  0  0  0
  182.0080  178.8110  142.1590 N   0  0  0  0  0  2  0  0  0  0  0  0
  180.6820  179.0260  141.6050 C   0  0  0  0  0  1  0  0  0  0  0  0
  183.0670  178.2310  141.3950 C   0  0  0  0  0  0  0  0  0  0  0  0
  182.8620  177.9150  140.1900 O   0  0  0  0  0  0  0  0  0  0  0  0
  187.0880  176.0150  141.3830 N   0  0  0  0  0  2  0  0  0  0  0  0
  188.4120  175.7490  141.2840 O   0  0  0  0  0  0  0  0  0  0  0  0
  188.5260  174.4070  141.6500 C   0  0  0  0  0  2  0  0  0  0  0  0
  189.6760  174.2340  142.5860 C   0  0  0  0  0  0  0  0  0  0  0  0
  189.4530  173.7350  143.8150 C   0  0  0  0  0  3  0  0  0  0  0  0
  191.7750  174.3830  144.5330 C   0  0  2  0  0  3  0  0  0  0  0  0
  190.5560  173.5010  144.8150 C   0  0  0  0  0  2  0  0  0  0  0  0
  191.0300  174.7640  142.1710 C   0  0  0  0  0  2  0  0  0  0  0  0
  192.1670  174.2610  143.0630 C   0  0  0  0  0  2  0  0  0  0  0  0
  192.9440  173.9950  145.4350 C   0  0  0  0  0  2  0  0  0  0  0  0
  193.1400  174.9500  146.4370 O   0  0  0  0  0  1  0  0  0  0  0  0
  2 15  1  0  0  0  0
  3 17  1  0  0  0  0
  3 12  1  0  0  0  0
  4 14  2  0  0  0  0
  4 10  1  0  0  0  0
  5  1  1  0  0  0  0
  6 16  2  0  0  0  0
  7  1  2  0  0  0  0
  8  3  2  0  0  0  0
  9 13  2  0  0  0  0
  9  6  1  0  0  0  0
 10  5  2  0  0  0  0
 11 15  2  0  0  0  0
 11 13  1  0  0  0  0
 12  2  2  0  0  0  0
 13 14  1  0  0  0  0
 14  7  1  0  0  0  0
 15  4  1  0  0  0  0
 16  7  1  0  0  0  0
 17 22  1  1  0  0  0
 17 11  1  0  0  0  0
 19 18  1  0  0  0  0
 20 12  1  0  0  0  0
 20 18  1  0  0  0  0
 21 20  2  0  0  0  0
 23 22  1  0  0  0  0
 23 24  1  0  0  0  0
 24 25  1  0  0  0  0
 25 26  2  0  0  0  0
 26 28  1  0  0  0  0
 27 28  1  0  0  0  0
 27 31  1  1  0  0  0
 29 25  1  0  0  0  0
 29 30  1  0  0  0  0
 30 27  1  0  0  0  0
 31 32  1  0  0  0  0
M  END
>  <MODEL>
6

>  <REMARK>
 VINA RESULT:      -6.7      2.440      3.486
  Name = 
  6 active torsions:
  status: ('A' for Active; 'I' for Inactive)
    1  A    between atoms: C_2  and  C_3
    2  A    between atoms: C_2  and  O_13
    3  A    between atoms: C_10  and  C_17
    4  A    between atoms: O_13  and  N_20
    5  A    between atoms: C_18  and  C_24
    6  A    between atoms: N_20  and  C_32
                            x       y       z     vdW  Elec       q    Type
                         _______ _______ _______ _____ _____    ______ ____

>  <TORSDO>
F 6

$$$$
=
 OpenBabel11042419323D

 32 36  0  0  1  0  0  0  0  0999 V2000
  188.2460  174.6450  142.1290 C   0  0  0  0  0  3  0  0  0  0  0  0
  193.2270  173.5070  143.9580 C   0  0  0  0  0  3  0  0  0  0  0  0
  194.7400  175.4010  144.3610 C   0  0  0  0  0  0  0  0  0  0  0  0
  190.8110  174.2640  143.1890 C   0  0  0  0  0  0  0  0  0  0  0  0
  188.7780  173.3350  142.2850 C   0  0  0  0  0  3  0  0  0  0  0  0
  189.4730  178.0850  142.7330 C   0  0  0  0  0  3  0  0  0  0  0  0
  189.0220  175.7530  142.5150 C   0  0  0  0  0  0  0  0  0  0  0  0
  195.9210  175.8380  144.4080 O   0  0  0  0  0  0  0  0  0  0  0  0
  190.7640  177.8270  143.2640 C   0  0  0  0  0  3  0  0  0  0  0  0
  190.0810  173.1310  142.8140 C   0  0  0  0  0  3  0  0  0  0  0  0
  192.3510  175.8050  143.8580 C   0  0  0  0  0  0  0  0  0  0  0  0
  194.4690  173.9280  144.2640 C   0  0  0  0  0  0  0  0  0  0  0  0
  191.1280  176.4880  143.4180 C   0  0  0  0  0  0  0  0  0  0  0  0
  190.2710  175.5050  143.0420 C   0  0  0  0  0  0  0  0  0  0  0  0
  192.1610  174.4840  143.7170 C   0  0  0  0  0  0  0  0  0  0  0  0
  188.6330  177.0530  142.3720 N   0  0  0  0  0  0  0  0  0  0  0  0
  193.6030  176.3970  144.4430 C   0  0  1  0  0  3  0  0  0  0  0  0
  195.7570  172.3350  145.7500 N   0  0  0  0  0  2  0  0  0  0  0  0
  196.8160  171.3680  145.9890 C   0  0  0  0  0  1  0  0  0  0  0  0
  195.5370  172.9200  144.4650 C   0  0  0  0  0  0  0  0  0  0  0  0
  196.2630  172.5720  143.4920 O   0  0  0  0  0  0  0  0  0  0  0  0
  193.3830  176.7320  145.8450 N   0  0  0  0  0  2  0  0  0  0  0  0
  192.8710  175.6370  146.4540 O   0  0  0  0  0  0  0  0  0  0  0  0
  192.1190  176.1470  147.5140 C   0  0  0  0  0  2  0  0  0  0  0  0
  190.6820  176.2330  147.1180 C   0  0  0  0  0  0  0  0  0  0  0  0
  190.0300  175.1110  146.7670 C   0  0  0  0  0  3  0  0  0  0  0  0
  188.1050  176.4690  145.8840 C   0  0  2  0  0  3  0  0  0  0  0  0
  188.5720  175.1000  146.3800 C   0  0  0  0  0  2  0  0  0  0  0  0
  190.0500  177.6010  146.9870 C   0  0  0  0  0  2  0  0  0  0  0  0
  188.5250  177.5470  146.8810 C   0  0  0  0  0  2  0  0  0  0  0  0
  186.5920  176.4850  145.6810 C   0  0  0  0  0  2  0  0  0  0  0  0
  185.9530  177.1330  146.7420 O   0  0  0  0  0  1  0  0  0  0  0  0
  1  5  2  0  0  0  0
  1  7  1  0  0  0  0
  2 12  2  0  0  0  0
  3  8  2  0  0  0  0
  3 17  1  0  0  0  0
  4 15  1  0  0  0  0
  5 10  1  0  0  0  0
  6  9  1  0  0  0  0
  7 14  2  0  0  0  0
  9 13  2  0  0  0  0
 10  4  2  0  0  0  0
 11 17  1  0  0  0  0
 12  3  1  0  0  0  0
 12 20  1  0  0  0  0
 13 11  1  0  0  0  0
 14  4  1  0  0  0  0
 14 13  1  0  0  0  0
 15 11  2  0  0  0  0
 15  2  1  0  0  0  0
 16  7  1  0  0  0  0
 16  6  2  0  0  0  0
 17 22  1  1  0  0  0
 18 19  1  0  0  0  0
 20 18  1  0  0  0  0
 21 20  2  0  0  0  0
 22 23  1  0  0  0  0
 23 24  1  0  0  0  0
 25 24  1  0  0  0  0
 26 25  2  0  0  0  0
 27 31  1  1  0  0  0
 27 28  1  0  0  0  0
 27 30  1  0  0  0  0
 28 26  1  0  0  0  0
 29 25  1  0  0  0  0
 30 29  1  0  0  0  0
 31 32  1  0  0  0  0
M  END
>  <MODEL>
7

>  <REMARK>
 VINA RESULT:      -6.5      2.202      7.199
  Name = 
  6 active torsions:
  status: ('A' for Active; 'I' for Inactive)
    1  A    between atoms: C_2  and  C_3
    2  A    between atoms: C_2  and  O_13
    3  A    between atoms: C_10  and  C_17
    4  A    between atoms: O_13  and  N_20
    5  A    between atoms: C_18  and  C_24
    6  A    between atoms: N_20  and  C_32
                            x       y       z     vdW  Elec       q    Type
                         _______ _______ _______ _____ _____    ______ ____

>  <TORSDO>
F 6

$$$$
=
 OpenBabel11042419323D

 32 36  0  0  1  0  0  0  0  0999 V2000
  193.1060  176.3910  146.5560 C   0  0  0  0  0  3  0  0  0  0  0  0
  191.6530  174.2800  141.7730 C   0  0  0  0  0  3  0  0  0  0  0  0
  189.2510  173.9610  141.3640 C   0  0  0  0  0  0  0  0  0  0  0  0
  192.1580  175.4310  144.1010 C   0  0  0  0  0  0  0  0  0  0  0  0
  194.0090  175.9070  145.5700 C   0  0  0  0  0  3  0  0  0  0  0  0
  189.4280  176.7040  146.8440 C   0  0  0  0  0  3  0  0  0  0  0  0
  191.7250  176.3860  146.2860 C   0  0  0  0  0  0  0  0  0  0  0  0
  188.3400  173.3130  140.7830 O   0  0  0  0  0  0  0  0  0  0  0  0
  189.0100  176.2060  145.5830 C   0  0  0  0  0  3  0  0  0  0  0  0
  193.5390  175.4100  144.3250 C   0  0  0  0  0  3  0  0  0  0  0  0
  190.0160  175.2210  143.3510 C   0  0  0  0  0  0  0  0  0  0  0  0
  190.6900  173.7810  140.9750 C   0  0  0  0  0  0  0  0  0  0  0  0
  190.0130  175.8240  144.6900 C   0  0  0  0  0  0  0  0  0  0  0  0
  191.3170  175.9140  145.0560 C   0  0  0  0  0  0  0  0  0  0  0  0
  191.2910  174.9840  143.0060 C   0  0  0  0  0  0  0  0  0  0  0  0
  190.7650  176.7850  147.1700 N   0  0  0  0  0  0  0  0  0  0  0  0
  188.8540  174.9520  142.4360 C   0  0  1  0  0  3  0  0  0  0  0  0
  191.0700  171.6100  139.7310 N   0  0  0  0  0  2  0  0  0  0  0  0
  191.4790  170.8510  138.5610 C   0  0  0  0  0  1  0  0  0  0  0  0
  191.0840  173.0390  139.7540 C   0  0  0  0  0  0  0  0  0  0  0  0
  191.4370  173.6720  138.7200 O   0  0  0  0  0  0  0  0  0  0  0  0
  188.4380  176.1910  141.7890 N   0  0  0  0  0  2  0  0  0  0  0  0
  187.0860  176.1850  141.7190 O   0  0  0  0  0  0  0  0  0  0  0  0
  186.7240  177.5260  141.8560 C   0  0  0  0  0  2  0  0  0  0  0  0
  186.2120  177.7730  143.2360 C   0  0  0  0  0  0  0  0  0  0  0  0
  185.9250  176.7240  144.0270 C   0  0  0  0  0  3  0  0  0  0  0  0
  184.7630  178.2380  145.6660 C   0  0  2  0  0  3  0  0  0  0  0  0
  185.4290  176.8780  145.4430 C   0  0  0  0  0  2  0  0  0  0  0  0
  185.8960  179.1940  143.6450 C   0  0  0  0  0  2  0  0  0  0  0  0
  185.6770  179.3470  145.1520 C   0  0  0  0  0  2  0  0  0  0  0  0
  184.4430  178.4470  147.1440 C   0  0  0  0  0  2  0  0  0  0  0  0
  185.5700  178.2120  147.9370 O   0  0  0  0  0  1  0  0  0  0  0  0
  2 15  1  0  0  0  0
  3 17  1  0  0  0  0
  4 10  2  0  0  0  0
  4 14  1  0  0  0  0
  5  1  2  0  0  0  0
  6 16  1  0  0  0  0
  7  1  1  0  0  0  0
  7 16  2  0  0  0  0
  8  3  2  0  0  0  0
  9  6  2  0  0  0  0
 10  5  1  0  0  0  0
 11 13  1  0  0  0  0
 12  3  1  0  0  0  0
 12  2  2  0  0  0  0
 13 14  2  0  0  0  0
 13  9  1  0  0  0  0
 14  7  1  0  0  0  0
 15 11  2  0  0  0  0
 15  4  1  0  0  0  0
 17 22  1  6  0  0  0
 17 11  1  0  0  0  0
 18 20  1  0  0  0  0
 19 18  1  0  0  0  0
 20 12  1  0  0  0  0
 21 20  2  0  0  0  0
 23 22  1  0  0  0  0
 23 24  1  0  0  0  0
 24 25  1  0  0  0  0
 25 29  1  0  0  0  0
 25 26  2  0  0  0  0
 26 28  1  0  0  0  0
 27 31  1  1  0  0  0
 28 27  1  0  0  0  0
 29 30  1  0  0  0  0
 30 27  1  0  0  0  0
 31 32  1  0  0  0  0
M  END
>  <MODEL>
8

>  <REMARK>
 VINA RESULT:      -6.5      2.361      6.376
  Name = 
  6 active torsions:
  status: ('A' for Active; 'I' for Inactive)
    1  A    between atoms: C_2  and  C_3
    2  A    between atoms: C_2  and  O_13
    3  A    between atoms: C_10  and  C_17
    4  A    between atoms: O_13  and  N_20
    5  A    between atoms: C_18  and  C_24
    6  A    between atoms: N_20  and  C_32
                            x       y       z     vdW  Elec       q    Type
                         _______ _______ _______ _____ _____    ______ ____

>  <TORSDO>
F 6

$$$$
=
 OpenBabel11042419323D

 32 36  0  0  1  0  0  0  0  0999 V2000
  190.0490  173.1290  140.8640 C   0  0  0  0  0  3  0  0  0  0  0  0
  187.3210  176.7190  143.8830 C   0  0  0  0  0  3  0  0  0  0  0  0
  187.4640  176.4790  146.3240 C   0  0  0  0  0  0  0  0  0  0  0  0
  188.8110  174.9590  142.5850 C   0  0  0  0  0  0  0  0  0  0  0  0
  189.1710  174.1240  140.3530 C   0  0  0  0  0  3  0  0  0  0  0  0
  191.2290  172.1190  144.2240 C   0  0  0  0  0  3  0  0  0  0  0  0
  190.2920  173.0710  142.2480 C   0  0  0  0  0  0  0  0  0  0  0  0
  186.9240  176.6460  147.4500 O   0  0  0  0  0  0  0  0  0  0  0  0
  190.5740  173.0750  145.0440 C   0  0  0  0  0  3  0  0  0  0  0  0
  188.5320  175.0520  141.2170 C   0  0  0  0  0  3  0  0  0  0  0  0
  188.9250  175.1260  144.8550 C   0  0  0  0  0  0  0  0  0  0  0  0
  186.8870  177.1170  145.0930 C   0  0  0  0  0  0  0  0  0  0  0  0
  189.7910  174.0330  144.3970 C   0  0  0  0  0  0  0  0  0  0  0  0
  189.6660  174.0060  143.0450 C   0  0  0  0  0  0  0  0  0  0  0  0
  188.3410  175.6710  143.7780 C   0  0  0  0  0  0  0  0  0  0  0  0
  191.0790  172.1350  142.8540 N   0  0  0  0  0  0  0  0  0  0  0  0
  188.7280  175.6510  146.2500 C   0  0  1  0  0  3  0  0  0  0  0  0
  184.7200  178.1310  144.2670 N   0  0  0  0  0  2  0  0  0  0  0  0
  183.6810  179.1460  144.2940 C   0  0  0  0  0  1  0  0  0  0  0  0
  185.8270  178.1500  145.1710 C   0  0  0  0  0  0  0  0  0  0  0  0
  185.8990  179.0600  146.0440 O   0  0  0  0  0  0  0  0  0  0  0  0
  189.8560  176.4970  146.6230 N   0  0  0  0  0  2  0  0  0  0  0  0
  190.8220  175.6950  147.1310 O   0  0  0  0  0  0  0  0  0  0  0  0
  192.0050  176.4100  146.9410 C   0  0  0  0  0  2  0  0  0  0  0  0
  192.6100  176.0450  145.6260 C   0  0  0  0  0  0  0  0  0  0  0  0
  192.2320  176.7120  144.5210 C   0  0  0  0  0  3  0  0  0  0  0  0
  193.3800  175.0120  143.0640 C   0  0  2  0  0  3  0  0  0  0  0  0
  192.8100  176.4290  143.1570 C   0  0  0  0  0  2  0  0  0  0  0  0
  193.5190  174.8380  145.5610 C   0  0  0  0  0  2  0  0  0  0  0  0
  194.3050  174.7530  144.2510 C   0  0  0  0  0  2  0  0  0  0  0  0
  194.1260  174.8140  141.7470 C   0  0  0  0  0  2  0  0  0  0  0  0
  194.4970  176.0420  141.1940 O   0  0  0  0  0  1  0  0  0  0  0  0
  1  7  1  0  0  0  0
  2 12  2  0  0  0  0
  3  8  2  0  0  0  0
  4 14  1  0  0  0  0
  4 15  1  0  0  0  0
  5  1  2  0  0  0  0
  5 10  1  0  0  0  0
  6  9  1  0  0  0  0
  7 16  1  0  0  0  0
  7 14  2  0  0  0  0
 10  4  2  0  0  0  0
 11 17  1  0  0  0  0
 12 20  1  0  0  0  0
 12  3  1  0  0  0  0
 13 11  1  0  0  0  0
 13  9  2  0  0  0  0
 14 13  1  0  0  0  0
 15  2  1  0  0  0  0
 15 11  2  0  0  0  0
 16  6  2  0  0  0  0
 17  3  1  0  0  0  0
 17 22  1  6  0  0  0
 18 19  1  0  0  0  0
 18 20  1  0  0  0  0
 20 21  2  0  0  0  0
 22 23  1  0  0  0  0
 24 23  1  0  0  0  0
 25 24  1  0  0  0  0
 26 25  2  0  0  0  0
 27 31  1  6  0  0  0
 27 28  1  0  0  0  0
 27 30  1  0  0  0  0
 28 26  1  0  0  0  0
 29 25  1  0  0  0  0
 30 29  1  0  0  0  0
 32 31  1  0  0  0  0
M  END
>  <MODEL>
9

>  <REMARK>
 VINA RESULT:      -6.3      2.297      4.425
  Name = 
  6 active torsions:
  status: ('A' for Active; 'I' for Inactive)
    1  A    between atoms: C_2  and  C_3
    2  A    between atoms: C_2  and  O_13
    3  A    between atoms: C_10  and  C_17
    4  A    between atoms: O_13  and  N_20
    5  A    between atoms: C_18  and  C_24
    6  A    between atoms: N_20  and  C_32
                            x       y       z     vdW  Elec       q    Type
                         _______ _______ _______ _____ _____    ______ ____

>  <TORSDO>
F 6

$$$$
