=
 OpenBabel11042417193D

 26 30  0  0  1  0  0  0  0  0999 V2000
  190.7840  176.8220  147.2250 C   0  0  0  0  0  0  0  0  0  0  0  0
  188.9710  177.1170  145.6670 C   0  0  0  0  0  0  0  0  0  0  0  0
  191.4750  176.1060  146.2370 C   0  0  0  0  0  0  0  0  0  0  0  0
  190.8940  175.9310  145.0190 N   0  0  0  0  0  0  0  0  0  0  0  0
  189.5200  177.3280  146.9330 C   0  0  0  0  0  3  0  0  0  0  0  0
  191.3620  177.0540  148.5800 C   0  0  0  0  0  1  0  0  0  0  0  0
  189.6830  176.4180  144.7440 N   0  0  0  0  0  0  0  0  0  0  0  0
  186.0370  178.4230  144.2950 C   0  0  0  0  0  0  0  0  0  0  0  0
  185.0970  178.9260  143.4870 N   0  0  0  0  0  0  0  0  0  0  0  0
  187.6400  177.6400  145.3310 C   0  0  0  0  0  0  0  0  0  0  0  0
  186.6270  177.7520  146.2460 N   0  0  0  0  0  0  0  0  0  0  0  0
  184.3950  178.6290  145.6620 C   0  0  0  0  0  3  0  0  0  0  0  0
  185.6620  178.2520  145.5120 N   0  0  0  0  0  0  0  0  0  0  0  0
  187.3050  178.0590  144.0630 N   0  0  0  0  0  2  0  0  0  0  0  0
  184.0480  179.0590  144.3620 C   0  0  0  0  0  3  0  0  0  0  0  0
  193.9140  176.4930  146.0040 C   0  0  0  0  0  2  0  0  0  0  0  0
  193.0090  174.2720  145.8110 N   0  0  0  0  0  2  0  0  0  0  0  0
  194.9560  175.6080  145.3620 C   0  0  1  0  0  3  0  0  0  0  0  0
  194.4230  174.1920  145.4750 C   0  0  0  0  0  2  0  0  0  0  0  0
  192.8410  175.5460  146.4970 C   0  0  2  0  0  3  0  0  0  0  0  0
  195.6910  176.4770  141.3140 O   0  0  0  0  0  0  0  0  0  0  0  0
  196.6970  176.6710  142.2680 C   0  0  0  0  0  3  0  0  0  0  0  0
  195.1580  175.9800  143.9660 N   0  0  0  0  0  0  0  0  0  0  0  0
  196.4600  176.4130  143.5530 C   0  0  0  0  0  3  0  0  0  0  0  0
  194.0310  176.0800  143.0320 C   0  0  0  0  0  2  0  0  0  0  0  0
  194.5020  175.7450  141.6200 C   0  0  0  0  0  2  0  0  0  0  0  0
  1  6  1  0  0  0  0
  2  5  2  0  0  0  0
  3  1  2  0  0  0  0
  4  3  1  0  0  0  0
  5  1  1  0  0  0  0
  7  4  2  0  0  0  0
  7  2  1  0  0  0  0
  8 13  1  0  0  0  0
  9  8  2  0  0  0  0
  9 15  1  0  0  0  0
 10  2  1  0  0  0  0
 10 11  2  0  0  0  0
 13 12  1  0  0  0  0
 13 11  1  0  0  0  0
 14  8  1  0  0  0  0
 14 10  1  0  0  0  0
 15 12  2  0  0  0  0
 16 20  1  0  0  0  0
 17 20  1  0  0  0  0
 18 23  1  6  0  0  0
 18 19  1  0  0  0  0
 18 16  1  0  0  0  0
 19 17  1  0  0  0  0
 20  3  1  6  0  0  0
 21 26  1  0  0  0  0
 21 22  1  0  0  0  0
 22 24  2  0  0  0  0
 24 23  1  0  0  0  0
 25 23  1  0  0  0  0
 26 25  1  0  0  0  0
M  END
>  <MODEL>
1

>  <REMARK>
 VINA RESULT:      -7.3      0.000      0.000
  Name = 
  3 active torsions:
  status: ('A' for Active; 'I' for Inactive)
    1  A    between atoms: C_6  and  C_10
    2  A    between atoms: C_7  and  C_26
    3  A    between atoms: N_11  and  C_14
                            x       y       z     vdW  Elec       q    Type
                         _______ _______ _______ _____ _____    ______ ____

>  <TORSDO>
F 3

$$$$
=
 OpenBabel11042417193D

 26 30  0  0  1  0  0  0  0  0999 V2000
  189.5320  175.4970  146.6740 C   0  0  0  0  0  0  0  0  0  0  0  0
  191.4500  176.2260  145.4110 C   0  0  0  0  0  0  0  0  0  0  0  0
  188.8450  176.6340  146.2270 C   0  0  0  0  0  0  0  0  0  0  0  0
  189.4790  177.5080  145.3980 N   0  0  0  0  0  0  0  0  0  0  0  0
  190.8470  175.2970  146.2610 C   0  0  0  0  0  3  0  0  0  0  0  0
  188.8980  174.4980  147.5810 C   0  0  0  0  0  1  0  0  0  0  0  0
  190.7390  177.3110  145.0040 N   0  0  0  0  0  0  0  0  0  0  0  0
  194.8300  175.5200  144.8890 C   0  0  0  0  0  0  0  0  0  0  0  0
  196.1010  175.1180  144.9990 N   0  0  0  0  0  0  0  0  0  0  0  0
  192.8350  176.0400  144.9580 C   0  0  0  0  0  0  0  0  0  0  0  0
  193.2810  176.4470  143.7290 N   0  0  0  0  0  0  0  0  0  0  0  0
  195.6120  176.1220  142.9830 C   0  0  0  0  0  3  0  0  0  0  0  0
  194.5400  176.0830  143.7720 N   0  0  0  0  0  0  0  0  0  0  0  0
  193.7960  175.4380  145.7370 N   0  0  0  0  0  2  0  0  0  0  0  0
  196.6010  175.5040  143.7800 C   0  0  0  0  0  3  0  0  0  0  0  0
  186.4610  176.3690  145.5940 C   0  0  0  0  0  2  0  0  0  0  0  0
  187.1940  178.3230  146.7920 N   0  0  0  0  0  2  0  0  0  0  0  0
  185.3870  177.4260  145.4840 C   0  0  1  0  0  3  0  0  0  0  0  0
  185.7990  178.5340  146.4360 C   0  0  0  0  0  2  0  0  0  0  0  0
  187.4260  176.8940  146.6360 C   0  0  2  0  0  3  0  0  0  0  0  0
  185.1790  178.6200  141.4580 O   0  0  0  0  0  0  0  0  0  0  0  0
  186.4210  178.3690  142.0520 C   0  0  0  0  0  3  0  0  0  0  0  0
  185.2920  177.9220  144.1150 N   0  0  0  0  0  0  0  0  0  0  0  0
  186.4900  178.0080  143.3330 C   0  0  0  0  0  3  0  0  0  0  0  0
  184.0420  178.4830  143.5920 C   0  0  0  0  0  2  0  0  0  0  0  0
  183.9560  178.2340  142.0890 C   0  0  0  0  0  2  0  0  0  0  0  0
  1  6  1  0  0  0  0
  2  5  2  0  0  0  0
  3  1  2  0  0  0  0
  4  3  1  0  0  0  0
  5  1  1  0  0  0  0
  7  4  2  0  0  0  0
  7  2  1  0  0  0  0
  8  9  2  0  0  0  0
  8 14  1  0  0  0  0
 10  2  1  0  0  0  0
 10 14  1  0  0  0  0
 11 13  1  0  0  0  0
 11 10  2  0  0  0  0
 12 13  1  0  0  0  0
 12 15  2  0  0  0  0
 13  8  1  0  0  0  0
 15  9  1  0  0  0  0
 16 20  1  0  0  0  0
 18 23  1  6  0  0  0
 18 16  1  0  0  0  0
 18 19  1  0  0  0  0
 19 17  1  0  0  0  0
 20  3  1  6  0  0  0
 20 17  1  0  0  0  0
 21 22  1  0  0  0  0
 21 26  1  0  0  0  0
 22 24  2  0  0  0  0
 24 23  1  0  0  0  0
 25 23  1  0  0  0  0
 26 25  1  0  0  0  0
M  END
>  <MODEL>
2

>  <REMARK>
 VINA RESULT:      -7.3      2.579      8.265
  Name = 
  3 active torsions:
  status: ('A' for Active; 'I' for Inactive)
    1  A    between atoms: C_6  and  C_10
    2  A    between atoms: C_7  and  C_26
    3  A    between atoms: N_11  and  C_14
                            x       y       z     vdW  Elec       q    Type
                         _______ _______ _______ _____ _____    ______ ____

>  <TORSDO>
F 3

$$$$
=
 OpenBabel11042417193D

 26 30  0  0  1  0  0  0  0  0999 V2000
  191.3810  175.8530  146.7450 C   0  0  0  0  0  0  0  0  0  0  0  0
  192.6270  176.3130  144.7350 C   0  0  0  0  0  0  0  0  0  0  0  0
  190.2590  176.4440  146.1460 C   0  0  0  0  0  0  0  0  0  0  0  0
  190.3650  176.9360  144.8820 N   0  0  0  0  0  0  0  0  0  0  0  0
  192.5740  175.7910  146.0280 C   0  0  0  0  0  3  0  0  0  0  0  0
  191.3350  175.2920  148.1250 C   0  0  0  0  0  1  0  0  0  0  0  0
  191.5100  176.8740  144.2000 N   0  0  0  0  0  0  0  0  0  0  0  0
  195.2260  175.9750  142.4260 C   0  0  0  0  0  0  0  0  0  0  0  0
  195.9710  175.7400  141.3410 N   0  0  0  0  0  0  0  0  0  0  0  0
  193.8720  176.2600  143.9560 C   0  0  0  0  0  0  0  0  0  0  0  0
  195.0880  176.6370  144.4620 N   0  0  0  0  0  0  0  0  0  0  0  0
  197.1690  176.5470  143.1380 C   0  0  0  0  0  3  0  0  0  0  0  0
  195.8770  176.4250  143.4380 N   0  0  0  0  0  0  0  0  0  0  0  0
  193.9130  175.8290  142.6500 N   0  0  0  0  0  2  0  0  0  0  0  0
  197.2140  176.1050  141.7970 C   0  0  0  0  0  3  0  0  0  0  0  0
  187.8140  176.0550  145.9880 C   0  0  0  0  0  2  0  0  0  0  0  0
  188.6740  177.9050  147.2640 N   0  0  0  0  0  2  0  0  0  0  0  0
  186.6830  177.0220  146.2460 C   0  0  1  0  0  3  0  0  0  0  0  0
  187.2250  178.0380  147.2350 C   0  0  0  0  0  2  0  0  0  0  0  0
  188.9490  176.5300  146.8700 C   0  0  2  0  0  3  0  0  0  0  0  0
  185.6920  179.0390  142.6920 O   0  0  0  0  0  0  0  0  0  0  0  0
  185.5660  179.6880  143.9270 C   0  0  0  0  0  3  0  0  0  0  0  0
  186.2670  177.6700  145.0070 N   0  0  0  0  0  0  0  0  0  0  0  0
  185.8630  179.0450  145.0550 C   0  0  0  0  0  3  0  0  0  0  0  0
  186.0960  176.9060  143.7670 C   0  0  0  0  0  2  0  0  0  0  0  0
  186.3940  177.8000  142.5670 C   0  0  0  0  0  2  0  0  0  0  0  0
  1  6  1  0  0  0  0
  2  5  1  0  0  0  0
  3  1  1  0  0  0  0
  4  3  2  0  0  0  0
  5  1  2  0  0  0  0
  7  2  2  0  0  0  0
  7  4  1  0  0  0  0
  8 14  1  0  0  0  0
  8 13  1  0  0  0  0
  9 15  1  0  0  0  0
  9  8  2  0  0  0  0
 10 11  2  0  0  0  0
 10  2  1  0  0  0  0
 12 13  1  0  0  0  0
 13 11  1  0  0  0  0
 14 10  1  0  0  0  0
 15 12  2  0  0  0  0
 16 18  1  0  0  0  0
 16 20  1  0  0  0  0
 18 23  1  6  0  0  0
 18 19  1  0  0  0  0
 19 17  1  0  0  0  0
 20  3  1  6  0  0  0
 20 17  1  0  0  0  0
 21 22  1  0  0  0  0
 22 24  2  0  0  0  0
 23 24  1  0  0  0  0
 25 23  1  0  0  0  0
 26 21  1  0  0  0  0
 26 25  1  0  0  0  0
M  END
>  <MODEL>
3

>  <REMARK>
 VINA RESULT:      -7.0      2.524      8.138
  Name = 
  3 active torsions:
  status: ('A' for Active; 'I' for Inactive)
    1  A    between atoms: C_6  and  C_10
    2  A    between atoms: C_7  and  C_26
    3  A    between atoms: N_11  and  C_14
                            x       y       z     vdW  Elec       q    Type
                         _______ _______ _______ _____ _____    ______ ____

>  <TORSDO>
F 3

$$$$
=
 OpenBabel11042417193D

 26 30  0  0  1  0  0  0  0  0999 V2000
  186.9400  177.7980  146.6150 C   0  0  0  0  0  0  0  0  0  0  0  0
  186.1250  177.4890  144.3690 C   0  0  0  0  0  0  0  0  0  0  0  0
  188.0180  176.9570  146.3060 C   0  0  0  0  0  0  0  0  0  0  0  0
  188.1070  176.4260  145.0560 N   0  0  0  0  0  0  0  0  0  0  0  0
  185.9860  178.0620  145.6340 C   0  0  0  0  0  3  0  0  0  0  0  0
  186.7820  178.4160  147.9630 C   0  0  0  0  0  1  0  0  0  0  0  0
  187.1910  176.6820  144.1200 N   0  0  0  0  0  0  0  0  0  0  0  0
  183.4010  178.2760  142.3310 C   0  0  0  0  0  0  0  0  0  0  0  0
  182.2140  178.6560  141.8450 N   0  0  0  0  0  0  0  0  0  0  0  0
  185.1350  177.7490  143.3150 C   0  0  0  0  0  0  0  0  0  0  0  0
  185.3910  177.5520  141.9840 N   0  0  0  0  0  0  0  0  0  0  0  0
  183.7170  177.9990  140.2250 C   0  0  0  0  0  3  0  0  0  0  0  0
  184.2510  177.9060  141.4410 N   0  0  0  0  0  0  0  0  0  0  0  0
  183.8690  178.2140  143.5840 N   0  0  0  0  0  2  0  0  0  0  0  0
  182.4170  178.4780  140.4990 C   0  0  0  0  0  3  0  0  0  0  0  0
  190.3330  177.4460  147.0520 C   0  0  0  0  0  2  0  0  0  0  0  0
  189.4190  175.2320  147.2860 N   0  0  0  0  0  2  0  0  0  0  0  0
  191.4710  176.4840  147.2990 C   0  0  1  0  0  3  0  0  0  0  0  0
  190.8230  175.1600  147.6620 C   0  0  0  0  0  2  0  0  0  0  0  0
  189.0750  176.6470  147.3230 C   0  0  2  0  0  3  0  0  0  0  0  0
  193.8600  176.3530  143.8410 O   0  0  0  0  0  0  0  0  0  0  0  0
  192.5120  176.7210  143.7490 C   0  0  0  0  0  3  0  0  0  0  0  0
  192.2990  176.3500  146.1050 N   0  0  0  0  0  0  0  0  0  0  0  0
  191.7490  176.7450  144.8420 C   0  0  0  0  0  3  0  0  0  0  0  0
  193.5990  175.6710  146.1500 C   0  0  0  0  0  2  0  0  0  0  0  0
  194.5300  176.2720  145.1010 C   0  0  0  0  0  2  0  0  0  0  0  0
  1  6  1  0  0  0  0
  2  5  1  0  0  0  0
  3  1  1  0  0  0  0
  4  3  2  0  0  0  0
  5  1  2  0  0  0  0
  7  2  2  0  0  0  0
  7  4  1  0  0  0  0
  8 14  1  0  0  0  0
  9  8  2  0  0  0  0
 10 14  1  0  0  0  0
 10  2  1  0  0  0  0
 11 10  2  0  0  0  0
 12 15  2  0  0  0  0
 12 13  1  0  0  0  0
 13 11  1  0  0  0  0
 13  8  1  0  0  0  0
 15  9  1  0  0  0  0
 16 18  1  0  0  0  0
 16 20  1  0  0  0  0
 17 20  1  0  0  0  0
 17 19  1  0  0  0  0
 18 23  1  6  0  0  0
 18 19  1  0  0  0  0
 20  3  1  6  0  0  0
 21 26  1  0  0  0  0
 22 21  1  0  0  0  0
 22 24  2  0  0  0  0
 23 25  1  0  0  0  0
 24 23  1  0  0  0  0
 26 25  1  0  0  0  0
M  END
>  <MODEL>
4

>  <REMARK>
 VINA RESULT:      -7.0      2.139      3.890
  Name = 
  3 active torsions:
  status: ('A' for Active; 'I' for Inactive)
    1  A    between atoms: C_6  and  C_10
    2  A    between atoms: C_7  and  C_26
    3  A    between atoms: N_11  and  C_14
                            x       y       z     vdW  Elec       q    Type
                         _______ _______ _______ _____ _____    ______ ____

>  <TORSDO>
F 3

$$$$
=
 OpenBabel11042417193D

 26 30  0  0  1  0  0  0  0  0999 V2000
  189.4450  175.6060  145.7170 C   0  0  0  0  0  0  0  0  0  0  0  0
  188.4940  176.6530  143.7660 C   0  0  0  0  0  0  0  0  0  0  0  0
  190.7190  175.8150  145.1690 C   0  0  0  0  0  0  0  0  0  0  0  0
  190.8260  176.4290  143.9590 N   0  0  0  0  0  0  0  0  0  0  0  0
  188.3260  176.0300  145.0040 C   0  0  0  0  0  3  0  0  0  0  0  0
  189.2540  174.9430  147.0380 C   0  0  0  0  0  1  0  0  0  0  0  0
  189.7510  176.8330  143.2800 N   0  0  0  0  0  0  0  0  0  0  0  0
  186.1230  177.7460  141.4470 C   0  0  0  0  0  0  0  0  0  0  0  0
  185.4750  178.1410  140.3450 N   0  0  0  0  0  0  0  0  0  0  0  0
  187.3320  177.1110  142.9930 C   0  0  0  0  0  0  0  0  0  0  0  0
  186.0930  177.3000  143.5450 N   0  0  0  0  0  0  0  0  0  0  0  0
  184.1500  178.0650  142.2290 C   0  0  0  0  0  3  0  0  0  0  0  0
  185.3990  177.6980  142.5070 N   0  0  0  0  0  0  0  0  0  0  0  0
  187.3970  177.3840  141.6460 N   0  0  0  0  0  2  0  0  0  0  0  0
  184.2140  178.3460  140.8460 C   0  0  0  0  0  3  0  0  0  0  0  0
  193.0830  176.3700  145.6710 C   0  0  0  0  0  2  0  0  0  0  0  0
  192.3940  174.0770  145.4310 N   0  0  0  0  0  2  0  0  0  0  0  0
  194.3170  175.5190  145.4790 C   0  0  1  0  0  3  0  0  0  0  0  0
  193.8430  174.0790  145.5620 C   0  0  0  0  0  2  0  0  0  0  0  0
  191.9560  175.3850  145.8970 C   0  0  2  0  0  3  0  0  0  0  0  0
  195.9880  176.5380  141.7580 O   0  0  0  0  0  0  0  0  0  0  0  0
  194.6130  176.2950  141.8670 C   0  0  0  0  0  3  0  0  0  0  0  0
  194.9340  175.7920  144.1860 N   0  0  0  0  0  0  0  0  0  0  0  0
  194.0850  175.9550  143.0420 C   0  0  0  0  0  3  0  0  0  0  0  0
  196.3890  175.7340  144.0070 C   0  0  0  0  0  2  0  0  0  0  0  0
  196.8110  176.7110  142.9130 C   0  0  0  0  0  2  0  0  0  0  0  0
  1  6  1  0  0  0  0
  2  5  1  0  0  0  0
  3  1  1  0  0  0  0
  4  3  2  0  0  0  0
  5  1  2  0  0  0  0
  7  2  2  0  0  0  0
  7  4  1  0  0  0  0
  8 14  1  0  0  0  0
  8 13  1  0  0  0  0
  9 15  1  0  0  0  0
  9  8  2  0  0  0  0
 10 11  2  0  0  0  0
 10  2  1  0  0  0  0
 12 13  1  0  0  0  0
 13 11  1  0  0  0  0
 14 10  1  0  0  0  0
 15 12  2  0  0  0  0
 16 20  1  0  0  0  0
 17 19  1  0  0  0  0
 17 20  1  0  0  0  0
 18 23  1  6  0  0  0
 18 19  1  0  0  0  0
 18 16  1  0  0  0  0
 20  3  1  6  0  0  0
 21 22  1  0  0  0  0
 21 26  1  0  0  0  0
 22 24  2  0  0  0  0
 24 23  1  0  0  0  0
 25 23  1  0  0  0  0
 26 25  1  0  0  0  0
M  END
>  <MODEL>
5

>  <REMARK>
 VINA RESULT:      -7.0      1.740      2.286
  Name = 
  3 active torsions:
  status: ('A' for Active; 'I' for Inactive)
    1  A    between atoms: C_6  and  C_10
    2  A    between atoms: C_7  and  C_26
    3  A    between atoms: N_11  and  C_14
                            x       y       z     vdW  Elec       q    Type
                         _______ _______ _______ _____ _____    ______ ____

>  <TORSDO>
F 3

$$$$
=
 OpenBabel11042417193D

 26 30  0  0  1  0  0  0  0  0999 V2000
  185.2260  178.7190  144.5540 C   0  0  0  0  0  0  0  0  0  0  0  0
  183.7320  178.3380  142.7020 C   0  0  0  0  0  0  0  0  0  0  0  0
  186.2200  178.0180  143.8550 C   0  0  0  0  0  0  0  0  0  0  0  0
  185.9340  177.5160  142.6230 N   0  0  0  0  0  0  0  0  0  0  0  0
  183.9720  178.8760  143.9680 C   0  0  0  0  0  3  0  0  0  0  0  0
  185.4710  179.2980  145.9060 C   0  0  0  0  0  1  0  0  0  0  0  0
  184.7310  177.6690  142.0660 N   0  0  0  0  0  0  0  0  0  0  0  0
  180.4720  179.0440  141.6680 C   0  0  0  0  0  0  0  0  0  0  0  0
  179.2160  179.4920  141.5590 N   0  0  0  0  0  0  0  0  0  0  0  0
  182.4200  178.4880  142.0600 C   0  0  0  0  0  0  0  0  0  0  0  0
  182.1030  177.9080  140.8600 N   0  0  0  0  0  0  0  0  0  0  0  0
  179.8940  178.1750  139.7930 C   0  0  0  0  0  3  0  0  0  0  0  0
  180.8660  178.3080  140.6920 N   0  0  0  0  0  0  0  0  0  0  0  0
  181.4020  179.2280  142.6150 N   0  0  0  0  0  2  0  0  0  0  0  0
  178.8470  178.9350  140.3600 C   0  0  0  0  0  3  0  0  0  0  0  0
  188.6150  177.6280  143.3430 C   0  0  0  0  0  2  0  0  0  0  0  0
  187.6150  176.6570  145.3040 N   0  0  0  0  0  2  0  0  0  0  0  0
  189.5260  176.5360  143.8520 C   0  0  1  0  0  3  0  0  0  0  0  0
  188.9640  176.1230  145.2000 C   0  0  0  0  0  2  0  0  0  0  0  0
  187.5880  177.8270  144.4370 C   0  0  2  0  0  3  0  0  0  0  0  0
  189.5320  173.4520  140.9950 O   0  0  0  0  0  0  0  0  0  0  0  0
  188.3280  174.0650  141.3640 C   0  0  0  0  0  3  0  0  0  0  0  0
  189.5460  175.4090  142.9270 N   0  0  0  0  0  0  0  0  0  0  0  0
  188.3230  175.0300  142.2820 C   0  0  0  0  0  3  0  0  0  0  0  0
  190.7370  174.5650  142.7760 C   0  0  0  0  0  2  0  0  0  0  0  0
  190.7970  174.0090  141.3570 C   0  0  0  0  0  2  0  0  0  0  0  0
  1  6  1  0  0  0  0
  2  5  2  0  0  0  0
  3  1  2  0  0  0  0
  4  3  1  0  0  0  0
  5  1  1  0  0  0  0
  7  4  2  0  0  0  0
  7  2  1  0  0  0  0
  8 14  1  0  0  0  0
  9  8  2  0  0  0  0
 10 14  1  0  0  0  0
 10  2  1  0  0  0  0
 11 10  2  0  0  0  0
 12 15  2  0  0  0  0
 12 13  1  0  0  0  0
 13 11  1  0  0  0  0
 13  8  1  0  0  0  0
 15  9  1  0  0  0  0
 16 18  1  0  0  0  0
 16 20  1  0  0  0  0
 18 23  1  6  0  0  0
 18 19  1  0  0  0  0
 19 17  1  0  0  0  0
 20  3  1  6  0  0  0
 20 17  1  0  0  0  0
 21 26  1  0  0  0  0
 21 22  1  0  0  0  0
 22 24  2  0  0  0  0
 24 23  1  0  0  0  0
 25 23  1  0  0  0  0
 26 25  1  0  0  0  0
M  END
>  <MODEL>
6

>  <REMARK>
 VINA RESULT:      -6.8      3.751      6.358
  Name = 
  3 active torsions:
  status: ('A' for Active; 'I' for Inactive)
    1  A    between atoms: C_6  and  C_10
    2  A    between atoms: C_7  and  C_26
    3  A    between atoms: N_11  and  C_14
                            x       y       z     vdW  Elec       q    Type
                         _______ _______ _______ _____ _____    ______ ____

>  <TORSDO>
F 3

$$$$
=
 OpenBabel11042417193D

 26 30  0  0  1  0  0  0  0  0999 V2000
  185.9150  177.5870  140.2270 C   0  0  0  0  0  0  0  0  0  0  0  0
  183.8110  178.0220  141.3180 C   0  0  0  0  0  0  0  0  0  0  0  0
  186.5200  177.5220  141.4910 C   0  0  0  0  0  0  0  0  0  0  0  0
  185.7550  177.7040  142.6020 N   0  0  0  0  0  0  0  0  0  0  0  0
  184.5470  177.8410  140.1470 C   0  0  0  0  0  3  0  0  0  0  0  0
  186.6910  177.3940  138.9700 C   0  0  0  0  0  1  0  0  0  0  0  0
  184.4460  177.9480  142.5180 N   0  0  0  0  0  0  0  0  0  0  0  0
  180.4650  178.9270  141.7400 C   0  0  0  0  0  0  0  0  0  0  0  0
  179.2990  179.4030  142.1910 N   0  0  0  0  0  0  0  0  0  0  0  0
  182.3680  178.2910  141.2630 C   0  0  0  0  0  0  0  0  0  0  0  0
  181.5770  177.9160  140.2090 N   0  0  0  0  0  0  0  0  0  0  0  0
  179.1530  178.3790  140.1310 C   0  0  0  0  0  3  0  0  0  0  0  0
  180.4020  178.3530  140.5930 N   0  0  0  0  0  0  0  0  0  0  0  0
  181.6950  178.9450  142.2690 N   0  0  0  0  0  2  0  0  0  0  0  0
  178.4610  179.0520  141.1620 C   0  0  0  0  0  3  0  0  0  0  0  0
  188.2170  175.9100  142.3090 C   0  0  0  0  0  2  0  0  0  0  0  0
  188.6240  178.2770  142.4390 N   0  0  0  0  0  2  0  0  0  0  0  0
  189.3630  176.1450  143.2650 C   0  0  1  0  0  3  0  0  0  0  0  0
  189.7190  177.6140  143.1310 C   0  0  0  0  0  2  0  0  0  0  0  0
  187.9860  177.2450  141.6340 C   0  0  2  0  0  3  0  0  0  0  0  0
  188.4470  175.3150  147.2840 O   0  0  0  0  0  0  0  0  0  0  0  0
  189.3970  174.5410  146.6060 C   0  0  0  0  0  3  0  0  0  0  0  0
  188.9670  175.8250  144.6320 N   0  0  0  0  0  0  0  0  0  0  0  0
  189.6750  174.7910  145.3280 C   0  0  0  0  0  3  0  0  0  0  0  0
  187.7670  176.4160  145.2360 C   0  0  0  0  0  2  0  0  0  0  0  0
  187.9620  176.5470  146.7440 C   0  0  0  0  0  2  0  0  0  0  0  0
  1  3  1  0  0  0  0
  2  7  2  0  0  0  0
  3  4  2  0  0  0  0
  5  1  2  0  0  0  0
  5  2  1  0  0  0  0
  6  1  1  0  0  0  0
  7  4  1  0  0  0  0
  8  9  2  0  0  0  0
  8 14  1  0  0  0  0
 10  2  1  0  0  0  0
 10 14  1  0  0  0  0
 11 13  1  0  0  0  0
 11 10  2  0  0  0  0
 12 13  1  0  0  0  0
 12 15  2  0  0  0  0
 13  8  1  0  0  0  0
 15  9  1  0  0  0  0
 17 19  1  0  0  0  0
 18 16  1  6  0  0  0
 18 23  1  0  0  0  0
 19 18  1  0  0  0  0
 20  3  1  1  0  0  0
 20 16  1  0  0  0  0
 20 17  1  0  0  0  0
 22 21  1  0  0  0  0
 23 25  1  0  0  0  0
 23 24  1  0  0  0  0
 24 22  2  0  0  0  0
 25 26  1  0  0  0  0
 26 21  1  0  0  0  0
M  END
>  <MODEL>
7

>  <REMARK>
 VINA RESULT:      -6.7      4.302      7.286
  Name = 
  3 active torsions:
  status: ('A' for Active; 'I' for Inactive)
    1  A    between atoms: C_6  and  C_10
    2  A    between atoms: C_7  and  C_26
    3  A    between atoms: N_11  and  C_14
                            x       y       z     vdW  Elec       q    Type
                         _______ _______ _______ _____ _____    ______ ____

>  <TORSDO>
F 3

$$$$
=
 OpenBabel11042417193D

 26 30  0  0  1  0  0  0  0  0999 V2000
  190.3310  176.9220  145.7500 C   0  0  0  0  0  0  0  0  0  0  0  0
  191.9020  176.5160  143.9690 C   0  0  0  0  0  0  0  0  0  0  0  0
  189.2900  176.7640  144.8250 C   0  0  0  0  0  0  0  0  0  0  0  0
  189.5930  176.4890  143.5270 N   0  0  0  0  0  0  0  0  0  0  0  0
  191.6480  176.7970  145.3120 C   0  0  0  0  0  3  0  0  0  0  0  0
  190.0710  177.2210  147.1870 C   0  0  0  0  0  1  0  0  0  0  0  0
  190.8560  176.3700  143.1130 N   0  0  0  0  0  0  0  0  0  0  0  0
  194.9230  176.2260  142.2420 C   0  0  0  0  0  0  0  0  0  0  0  0
  195.8800  176.1440  141.3100 N   0  0  0  0  0  0  0  0  0  0  0  0
  193.2800  176.3780  143.4800 C   0  0  0  0  0  0  0  0  0  0  0  0
  194.3610  176.2510  144.3120 N   0  0  0  0  0  0  0  0  0  0  0  0
  196.6710  176.0250  143.4720 C   0  0  0  0  0  3  0  0  0  0  0  0
  195.3470  176.1600  143.4530 N   0  0  0  0  0  0  0  0  0  0  0  0
  193.5950  176.3680  142.1400 N   0  0  0  0  0  2  0  0  0  0  0  0
  196.9970  176.0150  142.0980 C   0  0  0  0  0  3  0  0  0  0  0  0
  186.9550  176.1060  144.3060 C   0  0  0  0  0  2  0  0  0  0  0  0
  187.4320  178.2750  145.2320 N   0  0  0  0  0  2  0  0  0  0  0  0
  185.7460  176.9880  144.1020 C   0  0  1  0  0  3  0  0  0  0  0  0
  186.0160  178.2510  144.8980 C   0  0  0  0  0  2  0  0  0  0  0  0
  187.8550  176.8810  145.2440 C   0  0  2  0  0  3  0  0  0  0  0  0
  185.2340  178.1100  140.0820 O   0  0  0  0  0  0  0  0  0  0  0  0
  184.2040  178.3220  141.0070 C   0  0  0  0  0  3  0  0  0  0  0  0
  185.5630  177.2910  142.6870 N   0  0  0  0  0  0  0  0  0  0  0  0
  184.3580  177.9510  142.2770 C   0  0  0  0  0  3  0  0  0  0  0  0
  186.4960  176.7890  141.6720 C   0  0  0  0  0  2  0  0  0  0  0  0
  186.5570  177.7650  140.5020 C   0  0  0  0  0  2  0  0  0  0  0  0
  1  6  1  0  0  0  0
  2  5  2  0  0  0  0
  3  1  2  0  0  0  0
  4  3  1  0  0  0  0
  5  1  1  0  0  0  0
  7  4  2  0  0  0  0
  7  2  1  0  0  0  0
  8 13  1  0  0  0  0
  9 15  1  0  0  0  0
  9  8  2  0  0  0  0
 10  2  1  0  0  0  0
 10 11  2  0  0  0  0
 13 12  1  0  0  0  0
 13 11  1  0  0  0  0
 14  8  1  0  0  0  0
 14 10  1  0  0  0  0
 15 12  2  0  0  0  0
 16 20  1  0  0  0  0
 17 20  1  0  0  0  0
 18 23  1  6  0  0  0
 18 16  1  0  0  0  0
 18 19  1  0  0  0  0
 19 17  1  0  0  0  0
 20  3  1  6  0  0  0
 21 26  1  0  0  0  0
 21 22  1  0  0  0  0
 22 24  2  0  0  0  0
 24 23  1  0  0  0  0
 25 23  1  0  0  0  0
 26 25  1  0  0  0  0
M  END
>  <MODEL>
8

>  <REMARK>
 VINA RESULT:      -6.6      2.776      8.328
  Name = 
  3 active torsions:
  status: ('A' for Active; 'I' for Inactive)
    1  A    between atoms: C_6  and  C_10
    2  A    between atoms: C_7  and  C_26
    3  A    between atoms: N_11  and  C_14
                            x       y       z     vdW  Elec       q    Type
                         _______ _______ _______ _____ _____    ______ ____

>  <TORSDO>
F 3

$$$$
=
 OpenBabel11042417193D

 26 30  0  0  1  0  0  0  0  0999 V2000
  187.8880  177.4910  145.4000 C   0  0  0  0  0  0  0  0  0  0  0  0
  186.6050  177.7450  143.3760 C   0  0  0  0  0  0  0  0  0  0  0  0
  189.0450  177.3820  144.6150 C   0  0  0  0  0  0  0  0  0  0  0  0
  188.9360  177.4610  143.2600 N   0  0  0  0  0  0  0  0  0  0  0  0
  186.6590  177.6730  144.7690 C   0  0  0  0  0  3  0  0  0  0  0  0
  187.9350  177.4170  146.8880 C   0  0  0  0  0  1  0  0  0  0  0  0
  187.7560  177.6350  142.6610 N   0  0  0  0  0  0  0  0  0  0  0  0
  183.8820  178.0870  141.2170 C   0  0  0  0  0  0  0  0  0  0  0  0
  183.0710  178.1450  140.1550 N   0  0  0  0  0  0  0  0  0  0  0  0
  185.3230  177.9360  142.6850 C   0  0  0  0  0  0  0  0  0  0  0  0
  184.1560  178.2290  143.3400 N   0  0  0  0  0  0  0  0  0  0  0  0
  182.0100  178.5440  142.1620 C   0  0  0  0  0  3  0  0  0  0  0  0
  183.3070  178.3070  142.3440 N   0  0  0  0  0  0  0  0  0  0  0  0
  185.1940  177.8340  141.3190 N   0  0  0  0  0  2  0  0  0  0  0  0
  181.8740  178.4380  140.7600 C   0  0  0  0  0  3  0  0  0  0  0  0
  191.4920  177.6410  144.3020 C   0  0  0  0  0  2  0  0  0  0  0  0
  190.6140  175.7900  145.5640 N   0  0  0  0  0  2  0  0  0  0  0  0
  192.5800  176.6020  144.4450 C   0  0  1  0  0  3  0  0  0  0  0  0
  192.0470  175.5780  145.4300 C   0  0  0  0  0  2  0  0  0  0  0  0
  190.3930  177.1930  145.2420 C   0  0  2  0  0  3  0  0  0  0  0  0
  193.5590  174.6420  140.8570 O   0  0  0  0  0  0  0  0  0  0  0  0
  194.5410  175.3530  141.5590 C   0  0  0  0  0  3  0  0  0  0  0  0
  192.8730  175.9840  143.1570 N   0  0  0  0  0  0  0  0  0  0  0  0
  194.2270  175.9890  142.6870 C   0  0  0  0  0  3  0  0  0  0  0  0
  191.8000  175.5170  142.2720 C   0  0  0  0  0  2  0  0  0  0  0  0
  192.2940  174.3340  141.4450 C   0  0  0  0  0  2  0  0  0  0  0  0
  1  6  1  0  0  0  0
  2  5  2  0  0  0  0
  3  1  2  0  0  0  0
  4  3  1  0  0  0  0
  5  1  1  0  0  0  0
  7  4  2  0  0  0  0
  7  2  1  0  0  0  0
  8 14  1  0  0  0  0
  8 13  1  0  0  0  0
  9 15  1  0  0  0  0
  9  8  2  0  0  0  0
 10 11  2  0  0  0  0
 10  2  1  0  0  0  0
 12 13  1  0  0  0  0
 13 11  1  0  0  0  0
 14 10  1  0  0  0  0
 15 12  2  0  0  0  0
 16 18  1  0  0  0  0
 16 20  1  0  0  0  0
 18 23  1  6  0  0  0
 18 19  1  0  0  0  0
 19 17  1  0  0  0  0
 20  3  1  6  0  0  0
 20 17  1  0  0  0  0
 21 26  1  0  0  0  0
 21 22  1  0  0  0  0
 22 24  2  0  0  0  0
 24 23  1  0  0  0  0
 25 23  1  0  0  0  0
 26 25  1  0  0  0  0
M  END
>  <MODEL>
9

>  <REMARK>
 VINA RESULT:      -6.6      2.179      3.306
  Name = 
  3 active torsions:
  status: ('A' for Active; 'I' for Inactive)
    1  A    between atoms: C_6  and  C_10
    2  A    between atoms: C_7  and  C_26
    3  A    between atoms: N_11  and  C_14
                            x       y       z     vdW  Elec       q    Type
                         _______ _______ _______ _____ _____    ______ ____

>  <TORSDO>
F 3

$$$$
