=
 OpenBabel11042415453D

 59 63  0  0  1  0  0  0  0  0999 V2000
  189.5210  171.5050  139.4780 C   0  0  0  0  0  2  0  0  0  0  0  0
  188.8880  173.3670  140.9730 C   0  0  0  0  0  2  0  0  0  0  0  0
  192.6930  173.4390  140.4190 C   0  0  0  0  0  3  0  0  0  0  0  0
  192.6580  176.1050  142.7570 N   0  0  0  0  0  0  0  0  0  0  0  0
  192.0730  175.1470  142.0090 C   0  0  0  0  0  0  0  0  0  0  0  0
  188.5610  172.6650  139.6660 C   0  0  0  0  0  2  0  0  0  0  0  0
  190.3400  173.7690  141.0630 C   0  0  0  0  0  0  0  0  0  0  0  0
  191.3360  173.0600  140.3160 C   0  0  0  0  0  0  0  0  0  0  0  0
  193.0150  174.4760  141.2870 C   0  0  0  0  0  0  0  0  0  0  0  0
  190.7200  174.8220  141.9380 C   0  0  0  0  0  0  0  0  0  0  0  0
  194.2080  175.0650  141.6270 C   0  0  0  0  0  0  0  0  0  0  0  0
  193.9670  176.0510  142.5230 N   0  0  0  0  0  2  0  0  0  0  0  0
  190.9400  172.0320  139.2760 C   0  0  1  0  0  3  0  0  0  0  0  0
  196.6110  174.4100  140.7390 C   0  0  0  0  0  0  0  0  0  0  0  0
  197.9360  174.0520  140.2400 C   0  0  0  0  0  1  0  0  0  0  0  0
  195.5160  174.7060  141.1460 C   0  0  0  0  0  0  0  0  0  0  0  0
  189.7330  175.5830  142.7130 C   0  0  0  0  0  3  0  0  0  0  0  0
  189.6150  175.4000  144.0230 C   0  0  0  0  0  3  0  0  0  0  0  0
  188.6030  176.0960  144.8270 C   0  0  0  0  0  0  0  0  0  0  0  0
  187.4320  176.5360  144.2050 C   0  0  0  0  0  3  0  0  0  0  0  0
  187.8360  177.0600  146.9150 C   0  0  0  0  0  3  0  0  0  0  0  0
  186.4530  177.2400  144.9250 C   0  0  0  0  0  0  0  0  0  0  0  0
  188.7970  176.3560  146.1900 C   0  0  0  0  0  3  0  0  0  0  0  0
  186.6670  177.5180  146.2860 C   0  0  0  0  0  0  0  0  0  0  0  0
  185.6250  178.2620  147.0690 C   0  0  0  0  0  3  0  0  0  0  0  0
  186.1260  179.6290  147.4790 C   0  0  0  0  0  1  0  0  0  0  0  0
  185.2230  177.4710  148.3020 C   0  0  0  0  0  1  0  0  0  0  0  0
  185.2600  177.6630  144.3140 O   0  0  0  0  0  0  0  0  0  0  0  0
  183.6230  179.2020  143.3660 C   0  0  0  0  0  2  0  0  0  0  0  0
  185.6330  177.6320  140.0170 O   0  0  0  0  0  1  0  0  0  0  0  0
  185.0140  178.1830  141.0890 N   0  0  0  0  0  0  0  0  0  0  0  0
  187.1160  178.6290  142.1580 C   0  0  0  0  0  2  0  0  0  0  0  0
  185.7240  179.9150  144.2060 F   0  0  0  0  0  0  0  0  0  0  0  0
  182.9400  178.2490  142.3900 C   0  0  0  0  0  2  0  0  0  0  0  0
  185.1100  178.8610  143.5480 C   0  0  1  0  0  0  0  0  0  0  0  0
  183.5770  178.4250  141.0190 C   0  0  0  0  0  2  0  0  0  0  0  0
  185.7830  178.6560  142.2110 C   0  0  0  0  0  0  0  0  0  0  0  0
  191.9120  170.8610  139.2060 C   0  0  0  0  0  2  0  0  0  0  0  0
  193.7200  168.7780  139.9220 O   0  0  0  0  0  0  0  0  0  0  0  0
  193.5630  169.7250  140.7400 C   0  0  0  0  0  0  0  0  0  0  0  0
  192.6990  170.8150  140.4230 N   0  0  0  0  0  2  0  0  0  0  0  0
  194.2460  169.7310  141.9590 O   0  0  0  0  0  0  0  0  0  0  0  0
  195.6610  169.8850  142.0530 C   0  0  1  0  0  3  0  0  0  0  0  0
  196.1500  170.8210  140.9480 C   0  0  0  0  0  2  0  0  0  0  0  0
  197.3340  170.2650  140.2120 C   0  0  0  0  0  3  0  0  0  0  0  0
  197.5300  170.4410  138.9130 C   0  0  0  0  0  3  0  0  0  0  0  0
  196.6350  171.1680  138.1440 O   0  0  0  0  0  1  0  0  0  0  0  0
  196.0140  170.4000  143.4560 C   0  0  1  0  0  3  0  0  0  0  0  0
  195.8600  172.7340  143.9750 O   0  0  0  0  0  0  0  0  0  0  0  0
  193.8270  171.5750  143.9420 N   0  0  0  0  0  2  0  0  0  0  0  0
  195.2520  171.6390  143.8200 C   0  0  0  0  0  0  0  0  0  0  0  0
  192.9780  172.6950  144.3250 C   0  0  0  0  0  3  0  0  0  0  0  0
  191.5200  172.2720  144.3990 C   0  0  0  0  0  1  0  0  0  0  0  0
  193.4240  173.2890  145.6500 C   0  0  0  0  0  1  0  0  0  0  0  0
  195.8340  169.3790  144.4330 O   0  0  0  0  0  0  0  0  0  0  0  0
  196.6170  169.3040  145.5890 C   0  0  0  0  0  0  0  0  0  0  0  0
  197.9350  169.2850  145.4730 C   0  0  0  0  0  2  0  0  0  0  0  0
  196.0060  169.2050  146.9500 C   0  0  0  0  0  2  0  0  0  0  0  0
  194.5670  168.7320  146.8410 C   0  0  0  0  0  1  0  0  0  0  0  0
  1  6  1  0  0  0  0
  2  7  1  0  0  0  0
  3  9  1  0  0  0  0
  5  4  2  0  0  0  0
  6  2  1  0  0  0  0
  7 10  2  0  0  0  0
  8  3  2  0  0  0  0
  8  7  1  0  0  0  0
  9 11  2  0  0  0  0
  9  5  1  0  0  0  0
 10  5  1  0  0  0  0
 10 17  1  0  0  0  0
 11 12  1  0  0  0  0
 12  4  1  0  0  0  0
 13 38  1  1  0  0  0
 13  1  1  0  0  0  0
 13  8  1  0  0  0  0
 14 16  3  0  0  0  0
 15 14  1  0  0  0  0
 16 11  1  0  0  0  0
 17 18  2  0  0  0  0
 18 19  1  0  0  0  0
 19 23  1  0  0  0  0
 20 19  2  0  0  0  0
 20 22  1  0  0  0  0
 22 24  2  0  0  0  0
 23 21  2  0  0  0  0
 24 21  1  0  0  0  0
 24 25  1  0  0  0  0
 25 26  1  0  0  0  0
 25 27  1  0  0  0  0
 28 22  1  0  0  0  0
 29 35  1  0  0  0  0
 30 31  1  0  0  0  0
 31 37  1  0  0  0  0
 32 37  2  0  0  0  0
 34 29  1  0  0  0  0
 35 33  1  1  0  0  0
 35 28  1  0  0  0  0
 36 31  1  0  0  0  0
 36 34  1  0  0  0  0
 37 35  1  0  0  0  0
 38 41  1  0  0  0  0
 39 40  2  0  0  0  0
 40 42  1  0  0  0  0
 41 40  1  0  0  0  0
 42 43  1  0  0  0  0
 43 44  1  6  0  0  0
 43 48  1  0  0  0  0
 45 44  1  0  0  0  0
 46 45  2  0  0  0  0
 47 46  1  0  0  0  0
 48 51  1  1  0  0  0
 48 55  1  0  0  0  0
 50 52  1  0  0  0  0
 51 50  1  0  0  0  0
 51 49  2  0  0  0  0
 52 53  1  0  0  0  0
 52 54  1  0  0  0  0
 55 56  1  0  0  0  0
 56 58  1  0  0  0  0
 57 56  2  0  0  0  0
 59 58  1  0  0  0  0
M  END
>  <MODEL>
1

>  <REMARK>
 VINA RESULT:      -6.3      0.000      0.000
  Name = 
  18 active torsions:
  status: ('A' for Active; 'I' for Inactive)
    1  A    between atoms: O_1  and  C_3
    2  A    between atoms: O_1  and  C_22
    3  A    between atoms: C_2  and  N_34
    4  A    between atoms: C_3  and  C_4
    5  A    between atoms: C_5  and  C_35
    6  A    between atoms: C_5  and  C_49
    7  A    between atoms: C_7  and  C_39
    8  A    between atoms: O_15  and  C_25
    9  A    between atoms: O_15  and  C_40
   10  A    between atoms: C_19  and  O_45
   11  A    between atoms: C_22  and  C_38
   12  A    between atoms: C_22  and  C_49
   13  A    between atoms: C_23  and  C_55
   14  A    between atoms: C_30  and  C_36
   15  A    between atoms: C_41  and  C_53
   16  A    between atoms: C_41  and  N_58
   17  A    between atoms: C_44  and  C_52
   18  A    between atoms: O_45  and  C_49
                            x       y       z     vdW  Elec       q    Type
                         _______ _______ _______ _____ _____    ______ ____

>  <TORSDO>
F 18

$$$$
=
 OpenBabel11042415453D

 59 63  0  0  1  0  0  0  0  0999 V2000
  190.4060  171.9240  139.8270 C   0  0  0  0  0  2  0  0  0  0  0  0
  189.7350  173.2340  141.8120 C   0  0  0  0  0  2  0  0  0  0  0  0
  193.2370  171.7590  142.4050 C   0  0  0  0  0  3  0  0  0  0  0  0
  192.9310  173.1720  145.6420 N   0  0  0  0  0  0  0  0  0  0  0  0
  192.4920  172.9030  144.3960 C   0  0  0  0  0  0  0  0  0  0  0  0
  189.8360  173.2500  140.2950 C   0  0  0  0  0  2  0  0  0  0  0  0
  191.0450  172.8770  142.4710 C   0  0  0  0  0  0  0  0  0  0  0  0
  192.0210  172.0960  141.7700 C   0  0  0  0  0  0  0  0  0  0  0  0
  193.4220  172.1700  143.7190 C   0  0  0  0  0  0  0  0  0  0  0  0
  191.2800  173.2730  143.8150 C   0  0  0  0  0  0  0  0  0  0  0  0
  194.4530  171.9990  144.6090 C   0  0  0  0  0  0  0  0  0  0  0  0
  194.1320  172.6140  145.7720 N   0  0  0  0  0  2  0  0  0  0  0  0
  191.8520  171.7840  140.2970 C   0  0  1  0  0  3  0  0  0  0  0  0
  196.7010  170.6710  144.1890 C   0  0  0  0  0  0  0  0  0  0  0  0
  197.9410  169.9380  143.9470 C   0  0  0  0  0  1  0  0  0  0  0  0
  195.6770  171.2750  144.3840 C   0  0  0  0  0  0  0  0  0  0  0  0
  190.3140  174.0820  144.5680 C   0  0  0  0  0  3  0  0  0  0  0  0
  189.4180  174.8300  143.9350 C   0  0  0  0  0  3  0  0  0  0  0  0
  188.4730  175.6990  144.6470 C   0  0  0  0  0  0  0  0  0  0  0  0
  187.3410  176.1610  143.9720 C   0  0  0  0  0  3  0  0  0  0  0  0
  187.8010  176.9610  146.6040 C   0  0  0  0  0  3  0  0  0  0  0  0
  186.4290  177.0250  144.5990 C   0  0  0  0  0  0  0  0  0  0  0  0
  188.6950  176.0980  145.9710 C   0  0  0  0  0  3  0  0  0  0  0  0
  186.6720  177.4410  145.9200 C   0  0  0  0  0  0  0  0  0  0  0  0
  185.7010  178.3570  146.6050 C   0  0  0  0  0  3  0  0  0  0  0  0
  186.2960  178.9300  147.8720 C   0  0  0  0  0  1  0  0  0  0  0  0
  184.4140  177.6180  146.9290 C   0  0  0  0  0  1  0  0  0  0  0  0
  185.2740  177.4740  143.9370 O   0  0  0  0  0  0  0  0  0  0  0  0
  183.7100  179.1280  143.0610 C   0  0  0  0  0  2  0  0  0  0  0  0
  185.4910  177.4660  139.6290 O   0  0  0  0  0  1  0  0  0  0  0  0
  184.9490  178.0450  140.7270 N   0  0  0  0  0  0  0  0  0  0  0  0
  187.1120  178.3390  141.7230 C   0  0  0  0  0  2  0  0  0  0  0  0
  185.8820  179.6910  143.8310 F   0  0  0  0  0  0  0  0  0  0  0  0
  182.9310  178.2330  142.1030 C   0  0  0  0  0  2  0  0  0  0  0  0
  185.1760  178.6880  143.1870 C   0  0  1  0  0  0  0  0  0  0  0  0
  183.5290  178.3820  140.7110 C   0  0  0  0  0  2  0  0  0  0  0  0
  185.7860  178.4540  141.8250 C   0  0  0  0  0  0  0  0  0  0  0  0
  192.3760  170.4030  139.9250 C   0  0  0  0  0  2  0  0  0  0  0  0
  192.8090  171.2290  137.2320 O   0  0  0  0  0  0  0  0  0  0  0  0
  193.8210  170.9230  137.9220 C   0  0  0  0  0  0  0  0  0  0  0  0
  193.6710  170.5350  139.2870 N   0  0  0  0  0  2  0  0  0  0  0  0
  195.1010  170.9740  137.3660 O   0  0  0  0  0  0  0  0  0  0  0  0
  196.2230  171.5220  138.0560 C   0  0  1  0  0  3  0  0  0  0  0  0
  197.5040  170.8440  137.5700 C   0  0  0  0  0  2  0  0  0  0  0  0
  197.2260  169.6060  136.7690 C   0  0  0  0  0  3  0  0  0  0  0  0
  197.4370  169.5240  135.4630 C   0  0  0  0  0  3  0  0  0  0  0  0
  197.9410  170.5990  134.7480 O   0  0  0  0  0  1  0  0  0  0  0  0
  196.2460  173.0420  137.8410 C   0  0  1  0  0  3  0  0  0  0  0  0
  197.7610  174.0750  139.3830 O   0  0  0  0  0  0  0  0  0  0  0  0
  195.4950  174.2270  139.9460 N   0  0  0  0  0  2  0  0  0  0  0  0
  196.5650  173.7940  139.0990 C   0  0  0  0  0  0  0  0  0  0  0  0
  195.6720  174.9310  141.2090 C   0  0  0  0  0  3  0  0  0  0  0  0
  194.3300  175.2920  141.8240 C   0  0  0  0  0  1  0  0  0  0  0  0
  196.4940  174.1050  142.1820 C   0  0  0  0  0  1  0  0  0  0  0  0
  197.1430  173.3940  136.7900 O   0  0  0  0  0  0  0  0  0  0  0  0
  196.7200  174.0700  135.6420 C   0  0  0  0  0  0  0  0  0  0  0  0
  197.6270  174.5160  134.7880 C   0  0  0  0  0  2  0  0  0  0  0  0
  195.2750  174.3400  135.3720 C   0  0  0  0  0  2  0  0  0  0  0  0
  194.6550  173.1630  134.6360 C   0  0  0  0  0  1  0  0  0  0  0  0
  1  6  1  0  0  0  0
  1 13  1  0  0  0  0
  2  7  1  0  0  0  0
  3  9  1  0  0  0  0
  4 12  1  0  0  0  0
  5  4  2  0  0  0  0
  6  2  1  0  0  0  0
  7 10  2  0  0  0  0
  8  3  2  0  0  0  0
  8  7  1  0  0  0  0
  9  5  1  0  0  0  0
  9 11  2  0  0  0  0
 10  5  1  0  0  0  0
 10 17  1  0  0  0  0
 11 12  1  0  0  0  0
 13 38  1  1  0  0  0
 13  8  1  0  0  0  0
 14 16  3  0  0  0  0
 15 14  1  0  0  0  0
 16 11  1  0  0  0  0
 18 17  2  0  0  0  0
 18 19  1  0  0  0  0
 19 23  1  0  0  0  0
 20 22  1  0  0  0  0
 20 19  2  0  0  0  0
 22 24  2  0  0  0  0
 23 21  2  0  0  0  0
 24 21  1  0  0  0  0
 24 25  1  0  0  0  0
 25 27  1  0  0  0  0
 25 26  1  0  0  0  0
 28 22  1  0  0  0  0
 29 35  1  0  0  0  0
 30 31  1  0  0  0  0
 31 37  1  0  0  0  0
 32 37  2  0  0  0  0
 34 29  1  0  0  0  0
 35 33  1  1  0  0  0
 35 28  1  0  0  0  0
 36 31  1  0  0  0  0
 36 34  1  0  0  0  0
 37 35  1  0  0  0  0
 39 40  2  0  0  0  0
 40 41  1  0  0  0  0
 41 38  1  0  0  0  0
 42 40  1  0  0  0  0
 42 43  1  0  0  0  0
 43 44  1  6  0  0  0
 45 44  1  0  0  0  0
 46 45  2  0  0  0  0
 47 46  1  0  0  0  0
 48 55  1  6  0  0  0
 48 43  1  0  0  0  0
 48 51  1  0  0  0  0
 50 52  1  0  0  0  0
 51 49  2  0  0  0  0
 51 50  1  0  0  0  0
 52 53  1  0  0  0  0
 52 54  1  0  0  0  0
 56 55  1  0  0  0  0
 57 56  2  0  0  0  0
 58 56  1  0  0  0  0
 59 58  1  0  0  0  0
M  END
>  <MODEL>
2

>  <REMARK>
 VINA RESULT:      -6.0      2.136      4.464
  Name = 
  18 active torsions:
  status: ('A' for Active; 'I' for Inactive)
    1  A    between atoms: O_1  and  C_3
    2  A    between atoms: O_1  and  C_22
    3  A    between atoms: C_2  and  N_34
    4  A    between atoms: C_3  and  C_4
    5  A    between atoms: C_5  and  C_35
    6  A    between atoms: C_5  and  C_49
    7  A    between atoms: C_7  and  C_39
    8  A    between atoms: O_15  and  C_25
    9  A    between atoms: O_15  and  C_40
   10  A    between atoms: C_19  and  O_45
   11  A    between atoms: C_22  and  C_38
   12  A    between atoms: C_22  and  C_49
   13  A    between atoms: C_23  and  C_55
   14  A    between atoms: C_30  and  C_36
   15  A    between atoms: C_41  and  C_53
   16  A    between atoms: C_41  and  N_58
   17  A    between atoms: C_44  and  C_52
   18  A    between atoms: O_45  and  C_49
                            x       y       z     vdW  Elec       q    Type
                         _______ _______ _______ _____ _____    ______ ____

>  <TORSDO>
F 18

$$$$
=
 OpenBabel11042415453D

 59 63  0  0  1  0  0  0  0  0999 V2000
  189.3330  171.6750  138.7360 C   0  0  0  0  0  2  0  0  0  0  0  0
  188.8500  173.4670  140.3680 C   0  0  0  0  0  2  0  0  0  0  0  0
  192.6590  173.0270  140.0750 C   0  0  0  0  0  3  0  0  0  0  0  0
  192.8130  175.4460  142.6630 N   0  0  0  0  0  0  0  0  0  0  0  0
  192.1610  174.6560  141.7860 C   0  0  0  0  0  0  0  0  0  0  0  0
  188.5330  172.9420  138.9770 C   0  0  0  0  0  2  0  0  0  0  0  0
  190.3320  173.6400  140.5930 C   0  0  0  0  0  0  0  0  0  0  0  0
  191.2750  172.8620  139.8450 C   0  0  0  0  0  0  0  0  0  0  0  0
  193.0540  173.9210  141.0620 C   0  0  0  0  0  0  0  0  0  0  0  0
  190.7850  174.5420  141.5930 C   0  0  0  0  0  0  0  0  0  0  0  0
  194.2860  174.2950  141.5380 C   0  0  0  0  0  0  0  0  0  0  0  0
  194.1160  175.2200  142.5120 N   0  0  0  0  0  2  0  0  0  0  0  0
  190.8230  172.0020  138.6830 C   0  0  1  0  0  3  0  0  0  0  0  0
  196.6370  173.3680  140.7570 C   0  0  0  0  0  0  0  0  0  0  0  0
  197.9390  172.8570  140.3350 C   0  0  0  0  0  1  0  0  0  0  0  0
  195.5660  173.7920  141.1100 C   0  0  0  0  0  0  0  0  0  0  0  0
  189.8560  175.3660  142.3750 C   0  0  0  0  0  3  0  0  0  0  0  0
  189.6100  175.0850  143.6490 C   0  0  0  0  0  3  0  0  0  0  0  0
  188.6450  175.8470  144.4510 C   0  0  0  0  0  0  0  0  0  0  0  0
  187.4790  176.3140  143.8400 C   0  0  0  0  0  3  0  0  0  0  0  0
  187.9650  176.9080  146.5220 C   0  0  0  0  0  3  0  0  0  0  0  0
  186.5450  177.0800  144.5570 C   0  0  0  0  0  0  0  0  0  0  0  0
  188.8810  176.1420  145.8000 C   0  0  0  0  0  3  0  0  0  0  0  0
  186.8010  177.3930  145.9030 C   0  0  0  0  0  0  0  0  0  0  0  0
  185.8080  178.2030  146.6830 C   0  0  0  0  0  3  0  0  0  0  0  0
  186.4250  178.7440  147.9530 C   0  0  0  0  0  1  0  0  0  0  0  0
  184.5880  177.3620  147.0220 C   0  0  0  0  0  1  0  0  0  0  0  0
  185.3570  177.5310  143.9580 O   0  0  0  0  0  0  0  0  0  0  0  0
  183.7500  179.1030  143.0100 C   0  0  0  0  0  2  0  0  0  0  0  0
  185.6960  177.4600  139.6580 O   0  0  0  0  0  1  0  0  0  0  0  0
  185.0990  178.0330  140.7310 N   0  0  0  0  0  0  0  0  0  0  0  0
  187.2190  178.4360  141.7800 C   0  0  0  0  0  2  0  0  0  0  0  0
  185.8740  179.7700  143.8290 F   0  0  0  0  0  0  0  0  0  0  0  0
  183.0370  178.1590  142.0470 C   0  0  0  0  0  2  0  0  0  0  0  0
  185.2300  178.7270  143.1840 C   0  0  1  0  0  0  0  0  0  0  0  0
  183.6670  178.3090  140.6700 C   0  0  0  0  0  2  0  0  0  0  0  0
  185.8870  178.4960  141.8440 C   0  0  0  0  0  0  0  0  0  0  0  0
  191.6230  170.7120  138.5590 C   0  0  0  0  0  2  0  0  0  0  0  0
  191.1110  170.8740  135.7610 O   0  0  0  0  0  0  0  0  0  0  0  0
  192.3140  170.9090  136.1400 C   0  0  0  0  0  0  0  0  0  0  0  0
  192.6320  170.8680  137.5300 N   0  0  0  0  0  2  0  0  0  0  0  0
  193.3490  171.0070  135.2070 O   0  0  0  0  0  0  0  0  0  0  0  0
  194.2830  172.0840  135.1980 C   0  0  1  0  0  3  0  0  0  0  0  0
  193.9620  173.0520  136.3370 C   0  0  0  0  0  2  0  0  0  0  0  0
  192.9920  174.1190  135.9230 C   0  0  0  0  0  3  0  0  0  0  0  0
  192.9840  175.3350  136.4490 C   0  0  0  0  0  3  0  0  0  0  0  0
  193.8920  175.7000  137.4310 O   0  0  0  0  0  1  0  0  0  0  0  0
  195.7050  171.5130  135.2970 C   0  0  1  0  0  3  0  0  0  0  0  0
  197.9380  172.3120  134.9600 O   0  0  0  0  0  0  0  0  0  0  0  0
  196.3870  173.9240  135.6480 N   0  0  0  0  0  2  0  0  0  0  0  0
  196.7540  172.5840  135.3000 C   0  0  0  0  0  0  0  0  0  0  0  0
  197.3150  175.0430  135.7240 C   0  0  0  0  0  3  0  0  0  0  0  0
  196.6630  176.3260  135.2360 C   0  0  0  0  0  1  0  0  0  0  0  0
  197.8390  175.2210  137.1380 C   0  0  0  0  0  1  0  0  0  0  0  0
  195.8330  170.6630  136.4340 O   0  0  0  0  0  0  0  0  0  0  0  0
  196.7530  169.6100  136.4800 C   0  0  0  0  0  0  0  0  0  0  0  0
  196.8690  168.8120  135.4320 C   0  0  0  0  0  2  0  0  0  0  0  0
  197.5790  169.3370  137.6960 C   0  0  0  0  0  2  0  0  0  0  0  0
  196.8610  169.8420  138.9360 C   0  0  0  0  0  1  0  0  0  0  0  0
  1  6  1  0  0  0  0
  2  7  1  0  0  0  0
  3  9  1  0  0  0  0
  5  4  2  0  0  0  0
  6  2  1  0  0  0  0
  7 10  2  0  0  0  0
  8  3  2  0  0  0  0
  8  7  1  0  0  0  0
  9 11  2  0  0  0  0
  9  5  1  0  0  0  0
 10  5  1  0  0  0  0
 10 17  1  0  0  0  0
 11 12  1  0  0  0  0
 12  4  1  0  0  0  0
 13 38  1  1  0  0  0
 13  1  1  0  0  0  0
 13  8  1  0  0  0  0
 14 16  3  0  0  0  0
 15 14  1  0  0  0  0
 16 11  1  0  0  0  0
 17 18  2  0  0  0  0
 18 19  1  0  0  0  0
 19 23  1  0  0  0  0
 20 19  2  0  0  0  0
 20 22  1  0  0  0  0
 22 24  2  0  0  0  0
 23 21  2  0  0  0  0
 24 21  1  0  0  0  0
 24 25  1  0  0  0  0
 25 27  1  0  0  0  0
 25 26  1  0  0  0  0
 28 22  1  0  0  0  0
 29 35  1  0  0  0  0
 30 31  1  0  0  0  0
 31 37  1  0  0  0  0
 32 37  2  0  0  0  0
 34 29  1  0  0  0  0
 35 33  1  1  0  0  0
 35 28  1  0  0  0  0
 36 31  1  0  0  0  0
 36 34  1  0  0  0  0
 37 35  1  0  0  0  0
 39 40  2  0  0  0  0
 40 41  1  0  0  0  0
 41 38  1  0  0  0  0
 42 40  1  0  0  0  0
 43 42  1  0  0  0  0
 43 48  1  0  0  0  0
 43 44  1  1  0  0  0
 45 44  1  0  0  0  0
 45 46  2  0  0  0  0
 46 47  1  0  0  0  0
 48 51  1  1  0  0  0
 48 55  1  0  0  0  0
 49 51  2  0  0  0  0
 50 52  1  0  0  0  0
 51 50  1  0  0  0  0
 52 54  1  0  0  0  0
 53 52  1  0  0  0  0
 55 56  1  0  0  0  0
 56 58  1  0  0  0  0
 57 56  2  0  0  0  0
 58 59  1  0  0  0  0
M  END
>  <MODEL>
3

>  <REMARK>
 VINA RESULT:      -5.8      2.943      4.836
  Name = 
  18 active torsions:
  status: ('A' for Active; 'I' for Inactive)
    1  A    between atoms: O_1  and  C_3
    2  A    between atoms: O_1  and  C_22
    3  A    between atoms: C_2  and  N_34
    4  A    between atoms: C_3  and  C_4
    5  A    between atoms: C_5  and  C_35
    6  A    between atoms: C_5  and  C_49
    7  A    between atoms: C_7  and  C_39
    8  A    between atoms: O_15  and  C_25
    9  A    between atoms: O_15  and  C_40
   10  A    between atoms: C_19  and  O_45
   11  A    between atoms: C_22  and  C_38
   12  A    between atoms: C_22  and  C_49
   13  A    between atoms: C_23  and  C_55
   14  A    between atoms: C_30  and  C_36
   15  A    between atoms: C_41  and  C_53
   16  A    between atoms: C_41  and  N_58
   17  A    between atoms: C_44  and  C_52
   18  A    between atoms: O_45  and  C_49
                            x       y       z     vdW  Elec       q    Type
                         _______ _______ _______ _____ _____    ______ ____

>  <TORSDO>
F 18

$$$$
=
 OpenBabel11042415453D

 59 63  0  0  1  0  0  0  0  0999 V2000
  189.3630  172.8560  145.3880 C   0  0  0  0  0  2  0  0  0  0  0  0
  190.1990  172.2970  143.1310 C   0  0  0  0  0  2  0  0  0  0  0  0
  192.4790  174.9730  144.6900 C   0  0  0  0  0  3  0  0  0  0  0  0
  194.1180  174.9460  141.5450 N   0  0  0  0  0  0  0  0  0  0  0  0
  193.1790  174.5340  142.4210 C   0  0  0  0  0  0  0  0  0  0  0  0
  189.7270  171.7170  144.4540 C   0  0  0  0  0  2  0  0  0  0  0  0
  191.3080  173.3060  143.3090 C   0  0  0  0  0  0  0  0  0  0  0  0
  191.4440  174.0230  144.5420 C   0  0  1  0  0  3  0  0  0  0  0  0
  193.3110  175.2050  143.6010 C   0  0  0  0  0  0  0  0  0  0  0  0
  192.1820  173.5790  142.2240 C   0  0  0  0  0  0  0  0  0  0  0  0
  194.3740  176.0520  143.4080 C   0  0  0  0  0  0  0  0  0  0  0  0
  194.8480  175.8800  142.1520 N   0  0  0  0  0  0  0  0  0  0  0  0
  190.6140  173.6490  145.7530 C   0  0  1  0  0  3  0  0  0  0  0  0
  195.3530  177.7860  145.1490 C   0  0  0  0  0  0  0  0  0  0  0  0
  195.8890  178.7510  146.1060 C   0  0  0  0  0  1  0  0  0  0  0  0
  194.9100  176.9940  144.3570 C   0  0  0  0  0  0  0  0  0  0  0  0
  192.0870  172.8610  140.9480 C   0  0  0  0  0  3  0  0  0  0  0  0
  193.0320  172.0040  140.5800 C   0  0  0  0  0  3  0  0  0  0  0  0
  193.0060  171.3090  139.2870 C   0  0  0  0  0  0  0  0  0  0  0  0
  192.3450  171.9080  138.2120 C   0  0  0  0  0  3  0  0  0  0  0  0
  193.5160  169.3980  137.8870 C   0  0  0  0  0  3  0  0  0  0  0  0
  192.2600  171.2640  136.9670 C   0  0  0  0  0  0  0  0  0  0  0  0
  193.5980  170.0510  139.1160 C   0  0  0  0  0  3  0  0  0  0  0  0
  192.8360  169.9910  136.8110 C   0  0  0  0  0  0  0  0  0  0  0  0
  192.7600  169.2960  135.4840 C   0  0  0  0  0  3  0  0  0  0  0  0
  191.7520  168.1690  135.5170 C   0  0  0  0  0  1  0  0  0  0  0  0
  194.1240  168.7540  135.0900 C   0  0  0  0  0  1  0  0  0  0  0  0
  191.6210  171.8710  135.8730 O   0  0  0  0  0  0  0  0  0  0  0  0
  189.7550  173.2510  135.1210 C   0  0  0  0  0  2  0  0  0  0  0  0
  188.8410  172.3670  139.1340 O   0  0  0  0  0  1  0  0  0  0  0  0
  189.0990  172.6150  137.8270 N   0  0  0  0  0  0  0  0  0  0  0  0
  189.5740  170.2990  137.4120 C   0  0  0  0  0  2  0  0  0  0  0  0
  189.8800  170.9180  134.7080 F   0  0  0  0  0  0  0  0  0  0  0  0
  189.7970  174.3180  136.2100 C   0  0  0  0  0  2  0  0  0  0  0  0
  190.2090  171.8810  135.6490 C   0  0  1  0  0  0  0  0  0  0  0  0
  188.7970  173.9390  137.2930 C   0  0  0  0  0  2  0  0  0  0  0  0
  189.5200  171.5510  136.9520 C   0  0  0  0  0  0  0  0  0  0  0  0
  190.2230  174.8580  146.5940 C   0  0  0  0  0  2  0  0  0  0  0  0
  189.3140  177.4700  147.2780 O   0  0  0  0  0  0  0  0  0  0  0  0
  188.7020  176.8580  146.3600 C   0  0  0  0  0  0  0  0  0  0  0  0
  189.1320  175.5620  145.9480 N   0  0  0  0  0  2  0  0  0  0  0  0
  187.6080  177.4460  145.7210 O   0  0  0  0  0  0  0  0  0  0  0  0
  186.7520  176.7280  144.8350 C   0  0  1  0  0  3  0  0  0  0  0  0
  185.2930  176.9750  145.2190 C   0  0  0  0  0  2  0  0  0  0  0  0
  185.1180  177.1740  146.6960 C   0  0  0  0  0  3  0  0  0  0  0  0
  185.0990  178.3690  147.2690 C   0  0  0  0  0  3  0  0  0  0  0  0
  185.2390  179.5280  146.5210 O   0  0  0  0  0  1  0  0  0  0  0  0
  187.0580  177.1550  143.3920 C   0  0  1  0  0  3  0  0  0  0  0  0
  186.1440  179.3420  143.0460 O   0  0  0  0  0  0  0  0  0  0  0  0
  184.9540  177.5880  142.0540 N   0  0  0  0  0  2  0  0  0  0  0  0
  186.0320  178.1020  142.8440 C   0  0  0  0  0  0  0  0  0  0  0  0
  183.8770  178.3950  141.4980 C   0  0  0  0  0  3  0  0  0  0  0  0
  183.4570  177.8770  140.1330 C   0  0  0  0  0  1  0  0  0  0  0  0
  182.6850  178.4360  142.4380 C   0  0  0  0  0  1  0  0  0  0  0  0
  188.3700  177.7010  143.2890 O   0  0  0  0  0  0  0  0  0  0  0  0
  189.4240  177.0080  142.6860 C   0  0  0  0  0  0  0  0  0  0  0  0
  189.1840  175.8330  142.1280 C   0  0  0  0  0  2  0  0  0  0  0  0
  190.8210  177.5380  142.6900 C   0  0  0  0  0  2  0  0  0  0  0  0
  191.0390  178.4210  143.9070 C   0  0  0  0  0  1  0  0  0  0  0  0
  1 13  1  0  0  0  0
  2  7  1  0  0  0  0
  2  6  1  0  0  0  0
  4 12  1  0  0  0  0
  4  5  2  0  0  0  0
  5  9  1  0  0  0  0
  6  1  1  0  0  0  0
  7  8  1  0  0  0  0
  8  3  1  1  0  0  0
  8 13  1  0  0  0  0
  9  3  2  0  0  0  0
 10  5  1  0  0  0  0
 10  7  2  0  0  0  0
 11  9  1  0  0  0  0
 11 16  1  0  0  0  0
 12 11  2  0  0  0  0
 13 38  1  6  0  0  0
 14 15  1  0  0  0  0
 16 14  3  0  0  0  0
 17 10  1  0  0  0  0
 18 17  2  0  0  0  0
 19 18  1  0  0  0  0
 20 19  2  0  0  0  0
 21 23  2  0  0  0  0
 22 20  1  0  0  0  0
 23 19  1  0  0  0  0
 24 22  2  0  0  0  0
 24 21  1  0  0  0  0
 25 26  1  0  0  0  0
 25 24  1  0  0  0  0
 27 25  1  0  0  0  0
 28 22  1  0  0  0  0
 29 35  1  0  0  0  0
 29 34  1  0  0  0  0
 31 30  1  0  0  0  0
 34 36  1  0  0  0  0
 35 33  1  6  0  0  0
 35 28  1  0  0  0  0
 35 37  1  0  0  0  0
 36 31  1  0  0  0  0
 37 32  2  0  0  0  0
 37 31  1  0  0  0  0
 40 39  2  0  0  0  0
 41 40  1  0  0  0  0
 41 38  1  0  0  0  0
 42 40  1  0  0  0  0
 43 44  1  1  0  0  0
 43 42  1  0  0  0  0
 44 45  1  0  0  0  0
 45 46  2  0  0  0  0
 47 46  1  0  0  0  0
 48 51  1  1  0  0  0
 48 43  1  0  0  0  0
 50 51  1  0  0  0  0
 51 49  2  0  0  0  0
 52 50  1  0  0  0  0
 52 54  1  0  0  0  0
 53 52  1  0  0  0  0
 55 48  1  0  0  0  0
 56 58  1  0  0  0  0
 56 55  1  0  0  0  0
 57 56  2  0  0  0  0
 58 59  1  0  0  0  0
M  END
>  <MODEL>
4

>  <REMARK>
 VINA RESULT:      -5.7      3.946     10.238
  Name = 
  18 active torsions:
  status: ('A' for Active; 'I' for Inactive)
    1  A    between atoms: O_1  and  C_3
    2  A    between atoms: O_1  and  C_22
    3  A    between atoms: C_2  and  N_34
    4  A    between atoms: C_3  and  C_4
    5  A    between atoms: C_5  and  C_35
    6  A    between atoms: C_5  and  C_49
    7  A    between atoms: C_7  and  C_39
    8  A    between atoms: O_15  and  C_25
    9  A    between atoms: O_15  and  C_40
   10  A    between atoms: C_19  and  O_45
   11  A    between atoms: C_22  and  C_38
   12  A    between atoms: C_22  and  C_49
   13  A    between atoms: C_23  and  C_55
   14  A    between atoms: C_30  and  C_36
   15  A    between atoms: C_41  and  C_53
   16  A    between atoms: C_41  and  N_58
   17  A    between atoms: C_44  and  C_52
   18  A    between atoms: O_45  and  C_49
                            x       y       z     vdW  Elec       q    Type
                         _______ _______ _______ _____ _____    ______ ____

>  <TORSDO>
F 18

$$$$
=
 OpenBabel11042415453D

 59 63  0  0  1  0  0  0  0  0999 V2000
  189.7730  171.4970  138.2340 C   0  0  0  0  0  2  0  0  0  0  0  0
  188.8790  173.2410  139.7400 C   0  0  0  0  0  2  0  0  0  0  0  0
  192.7130  173.1650  140.0400 C   0  0  0  0  0  3  0  0  0  0  0  0
  192.2390  175.5970  142.5770 N   0  0  0  0  0  0  0  0  0  0  0  0
  191.8070  174.7460  141.6250 C   0  0  0  0  0  0  0  0  0  0  0  0
  188.8300  172.6830  138.3280 C   0  0  0  0  0  2  0  0  0  0  0  0
  190.2860  173.5560  140.1860 C   0  0  0  0  0  0  0  0  0  0  0  0
  191.4020  172.8690  139.6050 C   0  0  0  0  0  0  0  0  0  0  0  0
  192.8650  174.0970  141.0590 C   0  0  0  0  0  0  0  0  0  0  0  0
  190.4940  174.5000  141.2260 C   0  0  0  0  0  0  0  0  0  0  0  0
  193.9690  174.5880  141.7110 C   0  0  0  0  0  0  0  0  0  0  0  0
  193.5650  175.4960  142.6300 N   0  0  0  0  0  2  0  0  0  0  0  0
  191.2160  171.9650  138.4030 C   0  0  1  0  0  3  0  0  0  0  0  0
  196.4880  173.8860  141.3140 C   0  0  0  0  0  0  0  0  0  0  0  0
  197.8800  173.4960  141.1050 C   0  0  0  0  0  1  0  0  0  0  0  0
  195.3400  174.2080  141.4920 C   0  0  0  0  0  0  0  0  0  0  0  0
  189.3830  175.2350  141.8420 C   0  0  0  0  0  3  0  0  0  0  0  0
  188.8580  176.2970  141.2430 C   0  0  0  0  0  3  0  0  0  0  0  0
  187.7870  177.0960  141.8510 C   0  0  0  0  0  0  0  0  0  0  0  0
  187.8890  177.4480  143.1980 C   0  0  0  0  0  3  0  0  0  0  0  0
  185.6330  178.2020  141.7420 C   0  0  0  0  0  3  0  0  0  0  0  0
  186.8710  178.1780  143.8330 C   0  0  0  0  0  0  0  0  0  0  0  0
  186.6540  177.4830  141.1220 C   0  0  0  0  0  3  0  0  0  0  0  0
  185.7270  178.5420  143.1020 C   0  0  0  0  0  0  0  0  0  0  0  0
  184.6360  179.3290  143.7650 C   0  0  0  0  0  3  0  0  0  0  0  0
  185.1980  180.5230  144.5020 C   0  0  0  0  0  1  0  0  0  0  0  0
  183.8590  178.4490  144.7300 C   0  0  0  0  0  1  0  0  0  0  0  0
  186.9780  178.5600  145.1810 O   0  0  0  0  0  0  0  0  0  0  0  0
  185.8180  178.1370  147.2840 C   0  0  0  0  0  2  0  0  0  0  0  0
  189.8240  178.7610  148.4160 O   0  0  0  0  0  1  0  0  0  0  0  0
  188.5420  178.5070  148.0590 N   0  0  0  0  0  0  0  0  0  0  0  0
  189.2490  176.9780  146.3500 C   0  0  0  0  0  2  0  0  0  0  0  0
  186.5650  176.3990  145.8540 F   0  0  0  0  0  0  0  0  0  0  0  0
  186.2540  179.3830  148.0490 C   0  0  0  0  0  2  0  0  0  0  0  0
  186.8970  177.6690  146.2960 C   0  0  1  0  0  0  0  0  0  0  0  0
  187.4660  179.0270  148.8980 C   0  0  0  0  0  2  0  0  0  0  0  0
  188.2520  177.6200  146.9620 C   0  0  0  0  0  0  0  0  0  0  0  0
  192.1430  170.7570  138.4260 C   0  0  0  0  0  2  0  0  0  0  0  0
  192.9110  168.1660  139.3320 O   0  0  0  0  0  0  0  0  0  0  0  0
  192.7860  169.0770  140.1970 C   0  0  0  0  0  0  0  0  0  0  0  0
  192.4380  170.4030  139.8010 N   0  0  0  0  0  2  0  0  0  0  0  0
  193.0020  168.8060  141.5500 O   0  0  0  0  0  0  0  0  0  0  0  0
  194.2890  168.8840  142.1590 C   0  0  1  0  0  3  0  0  0  0  0  0
  195.3690  168.9070  141.0760 C   0  0  0  0  0  2  0  0  0  0  0  0
  195.7330  170.3030  140.6630 C   0  0  0  0  0  3  0  0  0  0  0  0
  196.4950  170.5740  139.6130 C   0  0  0  0  0  3  0  0  0  0  0  0
  197.0070  169.5610  138.8170 O   0  0  0  0  0  1  0  0  0  0  0  0
  194.3390  170.1250  143.0610 C   0  0  1  0  0  3  0  0  0  0  0  0
  192.7450  169.5600  144.7590 O   0  0  0  0  0  0  0  0  0  0  0  0
  192.2280  171.4550  143.4860 N   0  0  0  0  0  2  0  0  0  0  0  0
  193.0600  170.3370  143.8160 C   0  0  0  0  0  0  0  0  0  0  0  0
  190.9480  171.7480  144.1160 C   0  0  0  0  0  3  0  0  0  0  0  0
  190.9650  173.1200  144.7690 C   0  0  0  0  0  1  0  0  0  0  0  0
  189.8120  171.6540  143.1130 C   0  0  0  0  0  1  0  0  0  0  0  0
  195.4550  170.0670  143.9460 O   0  0  0  0  0  0  0  0  0  0  0  0
  196.2960  171.1640  144.1610 C   0  0  0  0  0  0  0  0  0  0  0  0
  197.5770  171.0630  143.8470 C   0  0  0  0  0  2  0  0  0  0  0  0
  195.7970  172.4320  144.7750 C   0  0  0  0  0  2  0  0  0  0  0  0
  196.9660  173.3390  145.1200 C   0  0  0  0  0  1  0  0  0  0  0  0
  1  6  1  0  0  0  0
  1 13  1  0  0  0  0
  2  7  1  0  0  0  0
  3  9  1  0  0  0  0
  4 12  1  0  0  0  0
  5  4  2  0  0  0  0
  6  2  1  0  0  0  0
  7 10  2  0  0  0  0
  8  3  2  0  0  0  0
  8  7  1  0  0  0  0
  9  5  1  0  0  0  0
  9 11  2  0  0  0  0
 10  5  1  0  0  0  0
 10 17  1  0  0  0  0
 11 12  1  0  0  0  0
 13 38  1  1  0  0  0
 13  8  1  0  0  0  0
 14 16  3  0  0  0  0
 15 14  1  0  0  0  0
 16 11  1  0  0  0  0
 18 17  2  0  0  0  0
 18 19  1  0  0  0  0
 19 20  1  0  0  0  0
 20 22  2  0  0  0  0
 21 24  2  0  0  0  0
 22 28  1  0  0  0  0
 23 21  1  0  0  0  0
 23 19  2  0  0  0  0
 24 25  1  0  0  0  0
 24 22  1  0  0  0  0
 25 26  1  0  0  0  0
 25 27  1  0  0  0  0
 28 35  1  0  0  0  0
 29 34  1  0  0  0  0
 31 30  1  0  0  0  0
 31 36  1  0  0  0  0
 32 37  2  0  0  0  0
 34 36  1  0  0  0  0
 35 33  1  6  0  0  0
 35 37  1  0  0  0  0
 35 29  1  0  0  0  0
 37 31  1  0  0  0  0
 38 41  1  0  0  0  0
 39 40  2  0  0  0  0
 40 42  1  0  0  0  0
 41 40  1  0  0  0  0
 42 43  1  0  0  0  0
 43 44  1  6  0  0  0
 43 48  1  0  0  0  0
 45 44  1  0  0  0  0
 46 45  2  0  0  0  0
 47 46  1  0  0  0  0
 48 51  1  1  0  0  0
 48 55  1  0  0  0  0
 50 51  1  0  0  0  0
 50 52  1  0  0  0  0
 51 49  2  0  0  0  0
 52 53  1  0  0  0  0
 54 52  1  0  0  0  0
 55 56  1  0  0  0  0
 56 58  1  0  0  0  0
 57 56  2  0  0  0  0
 58 59  1  0  0  0  0
M  END
>  <MODEL>
5

>  <REMARK>
 VINA RESULT:      -5.7      1.980      3.378
  Name = 
  18 active torsions:
  status: ('A' for Active; 'I' for Inactive)
    1  A    between atoms: O_1  and  C_3
    2  A    between atoms: O_1  and  C_22
    3  A    between atoms: C_2  and  N_34
    4  A    between atoms: C_3  and  C_4
    5  A    between atoms: C_5  and  C_35
    6  A    between atoms: C_5  and  C_49
    7  A    between atoms: C_7  and  C_39
    8  A    between atoms: O_15  and  C_25
    9  A    between atoms: O_15  and  C_40
   10  A    between atoms: C_19  and  O_45
   11  A    between atoms: C_22  and  C_38
   12  A    between atoms: C_22  and  C_49
   13  A    between atoms: C_23  and  C_55
   14  A    between atoms: C_30  and  C_36
   15  A    between atoms: C_41  and  C_53
   16  A    between atoms: C_41  and  N_58
   17  A    between atoms: C_44  and  C_52
   18  A    between atoms: O_45  and  C_49
                            x       y       z     vdW  Elec       q    Type
                         _______ _______ _______ _____ _____    ______ ____

>  <TORSDO>
F 18

$$$$
=
 OpenBabel11042415453D

 59 63  0  0  1  0  0  0  0  0999 V2000
  188.9810  172.1270  137.9270 C   0  0  0  0  0  2  0  0  0  0  0  0
  189.0110  173.4490  140.0140 C   0  0  0  0  0  2  0  0  0  0  0  0
  192.5680  173.3200  138.5570 C   0  0  0  0  0  3  0  0  0  0  0  0
  193.4910  175.0620  141.5040 N   0  0  0  0  0  0  0  0  0  0  0  0
  192.6040  174.4650  140.6830 C   0  0  0  0  0  0  0  0  0  0  0  0
  188.3000  173.2510  138.6860 C   0  0  0  0  0  2  0  0  0  0  0  0
  190.4970  173.6530  139.8460 C   0  0  0  0  0  0  0  0  0  0  0  0
  191.1750  173.1320  138.6950 C   0  0  0  0  0  0  0  0  0  0  0  0
  193.2410  173.9770  139.5800 C   0  0  0  0  0  0  0  0  0  0  0  0
  191.2290  174.3180  140.8650 C   0  0  0  0  0  0  0  0  0  0  0  0
  194.5630  174.3010  139.7640 C   0  0  0  0  0  0  0  0  0  0  0  0
  194.6920  174.9570  140.9400 N   0  0  0  0  0  2  0  0  0  0  0  0
  190.3950  172.5460  137.5350 C   0  0  1  0  0  3  0  0  0  0  0  0
  196.5750  173.7260  138.1470 C   0  0  0  0  0  0  0  0  0  0  0  0
  197.6920  173.4050  137.2620 C   0  0  0  0  0  1  0  0  0  0  0  0
  195.6580  173.9900  138.8820 C   0  0  0  0  0  0  0  0  0  0  0  0
  190.5760  174.8770  142.0540 C   0  0  0  0  0  3  0  0  0  0  0  0
  189.4380  175.5520  141.9470 C   0  0  0  0  0  3  0  0  0  0  0  0
  188.7820  176.1780  143.1020 C   0  0  0  0  0  0  0  0  0  0  0  0
  189.5590  176.5430  144.2040 C   0  0  0  0  0  3  0  0  0  0  0  0
  186.7990  176.9410  144.2680 C   0  0  0  0  0  3  0  0  0  0  0  0
  188.9700  177.1090  145.3460 C   0  0  0  0  0  0  0  0  0  0  0  0
  187.3960  176.3860  143.1370 C   0  0  0  0  0  3  0  0  0  0  0  0
  187.5770  177.2920  145.3830 C   0  0  0  0  0  0  0  0  0  0  0  0
  186.9360  177.9030  146.5940 C   0  0  0  0  0  3  0  0  0  0  0  0
  186.2320  176.8540  147.4250 C   0  0  0  0  0  1  0  0  0  0  0  0
  185.9480  178.9820  146.1840 C   0  0  0  0  0  1  0  0  0  0  0  0
  189.7470  177.5040  146.4480 O   0  0  0  0  0  0  0  0  0  0  0  0
  192.0580  176.8070  146.7960 C   0  0  0  0  0  2  0  0  0  0  0  0
  190.1060  173.3140  145.4890 O   0  0  0  0  0  1  0  0  0  0  0  0
  190.7340  174.4190  145.9590 N   0  0  0  0  0  0  0  0  0  0  0  0
  188.9840  174.8160  147.5520 C   0  0  0  0  0  2  0  0  0  0  0  0
  190.4770  176.9470  148.5590 F   0  0  0  0  0  0  0  0  0  0  0  0
  192.3300  176.1980  145.4240 C   0  0  0  0  0  2  0  0  0  0  0  0
  190.5890  176.6370  147.2130 C   0  0  1  0  0  0  0  0  0  0  0  0
  192.0940  174.6970  145.5080 C   0  0  0  0  0  2  0  0  0  0  0  0
  190.1290  175.2160  146.9950 C   0  0  0  0  0  0  0  0  0  0  0  0
  191.1110  171.3720  136.8800 C   0  0  0  0  0  2  0  0  0  0  0  0
  191.4410  168.5430  136.7750 O   0  0  0  0  0  0  0  0  0  0  0  0
  191.8510  169.1440  137.8060 C   0  0  0  0  0  0  0  0  0  0  0  0
  191.7470  170.5640  137.9020 N   0  0  0  0  0  2  0  0  0  0  0  0
  192.4300  168.4320  138.8590 O   0  0  0  0  0  0  0  0  0  0  0  0
  193.8390  168.2720  139.0040 C   0  0  1  0  0  3  0  0  0  0  0  0
  194.5360  168.6570  137.6980 C   0  0  0  0  0  2  0  0  0  0  0  0
  195.0790  170.0550  137.7320 C   0  0  0  0  0  3  0  0  0  0  0  0
  195.1590  170.8280  136.6580 C   0  0  0  0  0  3  0  0  0  0  0  0
  194.7330  170.3810  135.4170 O   0  0  0  0  0  1  0  0  0  0  0  0
  194.3180  169.1170  140.1930 C   0  0  1  0  0  3  0  0  0  0  0  0
  192.9480  168.1810  141.9220 O   0  0  0  0  0  0  0  0  0  0  0  0
  192.7330  170.4900  141.6100 N   0  0  0  0  0  2  0  0  0  0  0  0
  193.2880  169.2120  141.2800 C   0  0  0  0  0  0  0  0  0  0  0  0
  191.7030  170.7100  142.6160 C   0  0  0  0  0  3  0  0  0  0  0  0
  192.0810  171.8550  143.5410 C   0  0  0  0  0  1  0  0  0  0  0  0
  190.3560  170.9770  141.9670 C   0  0  0  0  0  1  0  0  0  0  0  0
  195.5570  168.6290  140.6990 O   0  0  0  0  0  0  0  0  0  0  0  0
  196.4920  169.4620  141.3200 C   0  0  0  0  0  0  0  0  0  0  0  0
  197.4110  168.9250  142.1060 C   0  0  0  0  0  2  0  0  0  0  0  0
  196.4580  170.9470  141.1540 C   0  0  0  0  0  2  0  0  0  0  0  0
  197.7640  171.4330  140.5480 C   0  0  0  0  0  1  0  0  0  0  0  0
  1  6  1  0  0  0  0
  3  8  2  0  0  0  0
  3  9  1  0  0  0  0
  5 10  1  0  0  0  0
  5  4  2  0  0  0  0
  6  2  1  0  0  0  0
  7  2  1  0  0  0  0
  7 10  2  0  0  0  0
  8  7  1  0  0  0  0
  9 11  2  0  0  0  0
  9  5  1  0  0  0  0
 10 17  1  0  0  0  0
 11 12  1  0  0  0  0
 12  4  1  0  0  0  0
 13 38  1  1  0  0  0
 13  1  1  0  0  0  0
 13  8  1  0  0  0  0
 14 16  3  0  0  0  0
 15 14  1  0  0  0  0
 16 11  1  0  0  0  0
 18 17  2  0  0  0  0
 18 19  1  0  0  0  0
 19 23  2  0  0  0  0
 19 20  1  0  0  0  0
 20 22  2  0  0  0  0
 21 24  2  0  0  0  0
 22 24  1  0  0  0  0
 22 28  1  0  0  0  0
 23 21  1  0  0  0  0
 24 25  1  0  0  0  0
 25 26  1  0  0  0  0
 27 25  1  0  0  0  0
 28 35  1  0  0  0  0
 29 35  1  0  0  0  0
 30 31  1  0  0  0  0
 31 37  1  0  0  0  0
 34 36  1  0  0  0  0
 34 29  1  0  0  0  0
 35 33  1  1  0  0  0
 36 31  1  0  0  0  0
 37 35  1  0  0  0  0
 37 32  2  0  0  0  0
 38 41  1  0  0  0  0
 39 40  2  0  0  0  0
 40 41  1  0  0  0  0
 40 42  1  0  0  0  0
 42 43  1  0  0  0  0
 43 44  1  6  0  0  0
 43 48  1  0  0  0  0
 44 45  1  0  0  0  0
 46 45  2  0  0  0  0
 47 46  1  0  0  0  0
 48 55  1  1  0  0  0
 48 51  1  0  0  0  0
 50 52  1  0  0  0  0
 51 50  1  0  0  0  0
 51 49  2  0  0  0  0
 52 53  1  0  0  0  0
 54 52  1  0  0  0  0
 55 56  1  0  0  0  0
 56 57  2  0  0  0  0
 58 56  1  0  0  0  0
 59 58  1  0  0  0  0
M  END
>  <MODEL>
6

>  <REMARK>
 VINA RESULT:      -5.4      2.950      4.411
  Name = 
  18 active torsions:
  status: ('A' for Active; 'I' for Inactive)
    1  A    between atoms: O_1  and  C_3
    2  A    between atoms: O_1  and  C_22
    3  A    between atoms: C_2  and  N_34
    4  A    between atoms: C_3  and  C_4
    5  A    between atoms: C_5  and  C_35
    6  A    between atoms: C_5  and  C_49
    7  A    between atoms: C_7  and  C_39
    8  A    between atoms: O_15  and  C_25
    9  A    between atoms: O_15  and  C_40
   10  A    between atoms: C_19  and  O_45
   11  A    between atoms: C_22  and  C_38
   12  A    between atoms: C_22  and  C_49
   13  A    between atoms: C_23  and  C_55
   14  A    between atoms: C_30  and  C_36
   15  A    between atoms: C_41  and  C_53
   16  A    between atoms: C_41  and  N_58
   17  A    between atoms: C_44  and  C_52
   18  A    between atoms: O_45  and  C_49
                            x       y       z     vdW  Elec       q    Type
                         _______ _______ _______ _____ _____    ______ ____

>  <TORSDO>
F 18

$$$$
=
 OpenBabel11042415453D

 59 63  0  0  1  0  0  0  0  0999 V2000
  192.7220  176.7810  144.1740 C   0  0  0  0  0  2  0  0  0  0  0  0
  191.5110  175.9460  142.1880 C   0  0  0  0  0  2  0  0  0  0  0  0
  188.9590  177.1290  144.8110 C   0  0  0  0  0  3  0  0  0  0  0  0
  186.5340  175.9010  142.5340 N   0  0  0  0  0  0  0  0  0  0  0  0
  187.7970  176.1550  142.9320 C   0  0  0  0  0  0  0  0  0  0  0  0
  192.6380  176.8490  142.6600 C   0  0  0  0  0  2  0  0  0  0  0  0
  190.2030  176.2510  142.8770 C   0  0  0  0  0  0  0  0  0  0  0  0
  190.1910  176.8610  144.1740 C   0  0  1  0  0  3  0  0  0  0  0  0
  187.7920  176.7470  144.1610 C   0  0  0  0  0  0  0  0  0  0  0  0
  188.9830  175.8770  142.2530 C   0  0  0  0  0  0  0  0  0  0  0  0
  186.4650  176.8420  144.5010 C   0  0  0  0  0  0  0  0  0  0  0  0
  185.7190  176.3200  143.5000 N   0  0  0  0  0  0  0  0  0  0  0  0
  191.4670  177.3920  144.7930 C   0  0  1  0  0  3  0  0  0  0  0  0
  185.4730  177.8410  146.7400 C   0  0  0  0  0  0  0  0  0  0  0  0
  184.9310  178.4010  147.9760 C   0  0  0  0  0  1  0  0  0  0  0  0
  185.9240  177.3830  145.7210 C   0  0  0  0  0  0  0  0  0  0  0  0
  188.9470  175.2610  140.9220 C   0  0  0  0  0  3  0  0  0  0  0  0
  189.5540  174.1020  140.6950 C   0  0  0  0  0  3  0  0  0  0  0  0
  189.5930  173.4790  139.3660 C   0  0  0  0  0  0  0  0  0  0  0  0
  190.7440  172.7910  138.9770 C   0  0  0  0  0  3  0  0  0  0  0  0
  188.6070  173.0220  137.2000 C   0  0  0  0  0  3  0  0  0  0  0  0
  190.8430  172.2130  137.7010 C   0  0  0  0  0  0  0  0  0  0  0  0
  188.5190  173.5860  138.4720 C   0  0  0  0  0  3  0  0  0  0  0  0
  189.7710  172.3450  136.8010 C   0  0  0  0  0  0  0  0  0  0  0  0
  189.8600  171.7240  135.4380 C   0  0  0  0  0  3  0  0  0  0  0  0
  190.4510  170.3340  135.5120 C   0  0  0  0  0  1  0  0  0  0  0  0
  190.6980  172.5920  134.5140 C   0  0  0  0  0  1  0  0  0  0  0  0
  191.9860  171.4950  137.3110 O   0  0  0  0  0  0  0  0  0  0  0  0
  193.7620  171.9460  135.7010 C   0  0  0  0  0  2  0  0  0  0  0  0
  195.5090  169.2840  138.4540 O   0  0  0  0  0  1  0  0  0  0  0  0
  194.9740  170.1810  137.5910 N   0  0  0  0  0  0  0  0  0  0  0  0
  194.1470  171.5280  139.3970 C   0  0  0  0  0  2  0  0  0  0  0  0
  193.2720  173.3930  137.5150 F   0  0  0  0  0  0  0  0  0  0  0  0
  194.1090  170.5090  135.3230 C   0  0  0  0  0  2  0  0  0  0  0  0
  193.2940  172.0540  137.1600 C   0  0  1  0  0  0  0  0  0  0  0  0
  195.2900  170.0600  136.1720 C   0  0  0  0  0  2  0  0  0  0  0  0
  194.2340  171.3150  138.0830 C   0  0  0  0  0  0  0  0  0  0  0  0
  191.5070  177.2120  146.3050 C   0  0  0  0  0  2  0  0  0  0  0  0
  194.1200  176.0950  146.5150 O   0  0  0  0  0  0  0  0  0  0  0  0
  193.1360  175.3210  146.6760 C   0  0  0  0  0  0  0  0  0  0  0  0
  191.8040  175.8280  146.6180 N   0  0  0  0  0  2  0  0  0  0  0  0
  193.3360  173.9620  146.9300 O   0  0  0  0  0  0  0  0  0  0  0  0
  193.4640  172.9910  145.8930 C   0  0  1  0  0  3  0  0  0  0  0  0
  192.4700  173.3020  144.7730 C   0  0  0  0  0  2  0  0  0  0  0  0
  191.7350  172.0790  144.3090 C   0  0  0  0  0  3  0  0  0  0  0  0
  190.4220  172.0490  144.1240 C   0  0  0  0  0  3  0  0  0  0  0  0
  189.6390  173.1690  144.3510 O   0  0  0  0  0  1  0  0  0  0  0  0
  194.9180  172.9780  145.3990 C   0  0  1  0  0  3  0  0  0  0  0  0
  196.8980  171.7850  146.0300 O   0  0  0  0  0  0  0  0  0  0  0  0
  194.9250  170.5260  146.0240 N   0  0  0  0  0  2  0  0  0  0  0  0
  195.6550  171.7410  145.8190 C   0  0  0  0  0  0  0  0  0  0  0  0
  195.5250  169.2520  146.3950 C   0  0  0  0  0  3  0  0  0  0  0  0
  194.6160  168.4740  147.3310 C   0  0  0  0  0  1  0  0  0  0  0  0
  195.8510  168.4240  145.1650 C   0  0  0  0  0  1  0  0  0  0  0  0
  194.9770  173.1580  143.9870 O   0  0  0  0  0  0  0  0  0  0  0  0
  195.8990  174.0160  143.3800 C   0  0  0  0  0  0  0  0  0  0  0  0
  196.4110  173.6840  142.2070 C   0  0  0  0  0  2  0  0  0  0  0  0
  196.3540  175.2790  144.0390 C   0  0  0  0  0  2  0  0  0  0  0  0
  196.2950  176.4310  143.0510 C   0  0  0  0  0  1  0  0  0  0  0  0
  1 13  1  0  0  0  0
  2  6  1  0  0  0  0
  2  7  1  0  0  0  0
  4  5  2  0  0  0  0
  4 12  1  0  0  0  0
  5  9  1  0  0  0  0
  6  1  1  0  0  0  0
  7  8  1  0  0  0  0
  8 13  1  0  0  0  0
  8  3  1  6  0  0  0
  9 11  1  0  0  0  0
  9  3  2  0  0  0  0
 10  7  2  0  0  0  0
 10  5  1  0  0  0  0
 11 16  1  0  0  0  0
 12 11  2  0  0  0  0
 13 38  1  1  0  0  0
 14 15  1  0  0  0  0
 16 14  3  0  0  0  0
 17 10  1  0  0  0  0
 18 17  2  0  0  0  0
 19 18  1  0  0  0  0
 20 19  1  0  0  0  0
 21 23  1  0  0  0  0
 22 20  2  0  0  0  0
 23 19  2  0  0  0  0
 24 21  2  0  0  0  0
 24 22  1  0  0  0  0
 25 26  1  0  0  0  0
 25 24  1  0  0  0  0
 27 25  1  0  0  0  0
 28 22  1  0  0  0  0
 29 35  1  0  0  0  0
 31 37  1  0  0  0  0
 31 30  1  0  0  0  0
 34 29  1  0  0  0  0
 34 36  1  0  0  0  0
 35 28  1  0  0  0  0
 35 33  1  1  0  0  0
 35 37  1  0  0  0  0
 36 31  1  0  0  0  0
 37 32  2  0  0  0  0
 38 41  1  0  0  0  0
 39 40  2  0  0  0  0
 40 42  1  0  0  0  0
 41 40  1  0  0  0  0
 43 44  1  6  0  0  0
 43 42  1  0  0  0  0
 45 44  1  0  0  0  0
 46 45  2  0  0  0  0
 46 47  1  0  0  0  0
 48 55  1  6  0  0  0
 48 51  1  0  0  0  0
 48 43  1  0  0  0  0
 50 52  1  0  0  0  0
 51 50  1  0  0  0  0
 51 49  2  0  0  0  0
 52 53  1  0  0  0  0
 54 52  1  0  0  0  0
 56 55  1  0  0  0  0
 56 58  1  0  0  0  0
 57 56  2  0  0  0  0
 59 58  1  0  0  0  0
M  END
>  <MODEL>
7

>  <REMARK>
 VINA RESULT:      -5.2      3.065      9.122
  Name = 
  18 active torsions:
  status: ('A' for Active; 'I' for Inactive)
    1  A    between atoms: O_1  and  C_3
    2  A    between atoms: O_1  and  C_22
    3  A    between atoms: C_2  and  N_34
    4  A    between atoms: C_3  and  C_4
    5  A    between atoms: C_5  and  C_35
    6  A    between atoms: C_5  and  C_49
    7  A    between atoms: C_7  and  C_39
    8  A    between atoms: O_15  and  C_25
    9  A    between atoms: O_15  and  C_40
   10  A    between atoms: C_19  and  O_45
   11  A    between atoms: C_22  and  C_38
   12  A    between atoms: C_22  and  C_49
   13  A    between atoms: C_23  and  C_55
   14  A    between atoms: C_30  and  C_36
   15  A    between atoms: C_41  and  C_53
   16  A    between atoms: C_41  and  N_58
   17  A    between atoms: C_44  and  C_52
   18  A    between atoms: O_45  and  C_49
                            x       y       z     vdW  Elec       q    Type
                         _______ _______ _______ _____ _____    ______ ____

>  <TORSDO>
F 18

$$$$
=
 OpenBabel11042415453D

 59 63  0  0  1  0  0  0  0  0999 V2000
  191.1360  171.5030  143.6380 C   0  0  0  0  0  2  0  0  0  0  0  0
  192.9980  172.6150  142.4530 C   0  0  0  0  0  2  0  0  0  0  0  0
  192.2080  174.5720  145.6680 C   0  0  0  0  0  3  0  0  0  0  0  0
  194.6560  176.8540  144.4960 N   0  0  0  0  0  0  0  0  0  0  0  0
  193.9110  175.7340  144.4110 C   0  0  0  0  0  0  0  0  0  0  0  0
  192.4760  171.2810  142.9600 C   0  0  0  0  0  2  0  0  0  0  0  0
  193.0410  173.6650  143.5370 C   0  0  0  0  0  0  0  0  0  0  0  0
  192.1650  173.5760  144.6680 C   0  0  0  0  0  0  0  0  0  0  0  0
  193.0830  175.6360  145.4900 C   0  0  0  0  0  0  0  0  0  0  0  0
  193.9180  174.7740  143.4000 C   0  0  0  0  0  0  0  0  0  0  0  0
  193.3530  176.7530  146.2430 C   0  0  0  0  0  0  0  0  0  0  0  0
  194.3090  177.4790  145.6190 N   0  0  0  0  0  2  0  0  0  0  0  0
  191.3260  172.3360  144.9030 C   0  0  1  0  0  3  0  0  0  0  0  0
  192.2000  177.4380  148.5230 C   0  0  0  0  0  0  0  0  0  0  0  0
  191.5550  177.8110  149.7790 C   0  0  0  0  0  1  0  0  0  0  0  0
  192.7270  177.1280  147.4840 C   0  0  0  0  0  0  0  0  0  0  0  0
  194.8390  174.9010  142.2640 C   0  0  0  0  0  3  0  0  0  0  0  0
  194.3820  175.1800  141.0490 C   0  0  0  0  0  3  0  0  0  0  0  0
  195.2610  175.2580  139.8760 C   0  0  0  0  0  0  0  0  0  0  0  0
  194.6880  175.2560  138.6020 C   0  0  0  0  0  3  0  0  0  0  0  0
  197.4630  175.3290  138.8670 C   0  0  0  0  0  3  0  0  0  0  0  0
  195.4900  175.2900  137.4500 C   0  0  0  0  0  0  0  0  0  0  0  0
  196.6560  175.3020  140.0030 C   0  0  0  0  0  3  0  0  0  0  0  0
  196.8890  175.3090  137.5850 C   0  0  0  0  0  0  0  0  0  0  0  0
  197.7570  175.3550  136.3620 C   0  0  0  0  0  3  0  0  0  0  0  0
  197.1870  176.2980  135.3270 C   0  0  0  0  0  1  0  0  0  0  0  0
  197.9040  173.9650  135.7660 C   0  0  0  0  0  1  0  0  0  0  0  0
  194.9210  175.3160  136.1650 O   0  0  0  0  0  0  0  0  0  0  0  0
  192.8500  174.7300  135.0180 C   0  0  0  0  0  2  0  0  0  0  0  0
  192.7450  172.4700  138.5670 O   0  0  0  0  0  1  0  0  0  0  0  0
  192.7920  173.1530  137.3980 N   0  0  0  0  0  0  0  0  0  0  0  0
  195.0430  172.4290  136.9880 C   0  0  0  0  0  2  0  0  0  0  0  0
  194.9320  173.7130  134.5130 F   0  0  0  0  0  0  0  0  0  0  0  0
  191.8630  175.0380  136.1400 C   0  0  0  0  0  2  0  0  0  0  0  0
  194.1980  174.2380  135.5650 C   0  0  1  0  0  0  0  0  0  0  0  0
  191.5620  173.7450  136.8840 C   0  0  0  0  0  2  0  0  0  0  0  0
  193.9960  173.1640  136.6080 C   0  0  0  0  0  0  0  0  0  0  0  0
  189.9660  172.6540  145.5120 C   0  0  0  0  0  2  0  0  0  0  0  0
  188.9400  174.8890  146.9510 O   0  0  0  0  0  0  0  0  0  0  0  0
  188.9110  174.9390  145.6900 C   0  0  0  0  0  0  0  0  0  0  0  0
  189.4420  173.8660  144.9140 N   0  0  0  0  0  2  0  0  0  0  0  0
  188.3750  176.0500  145.0360 O   0  0  0  0  0  0  0  0  0  0  0  0
  187.1220  176.0190  144.3560 C   0  0  1  0  0  3  0  0  0  0  0  0
  186.0400  176.6360  145.2440 C   0  0  0  0  0  2  0  0  0  0  0  0
  186.6180  177.4040  146.3960 C   0  0  0  0  0  3  0  0  0  0  0  0
  186.3890  178.6950  146.5950 C   0  0  0  0  0  3  0  0  0  0  0  0
  185.5820  179.4220  145.7340 O   0  0  0  0  0  1  0  0  0  0  0  0
  187.2640  176.7500  143.0140 C   0  0  1  0  0  3  0  0  0  0  0  0
  189.4330  176.6000  142.0060 O   0  0  0  0  0  0  0  0  0  0  0  0
  187.9340  174.9010  141.4210 N   0  0  0  0  0  2  0  0  0  0  0  0
  188.2780  176.1060  142.1150 C   0  0  0  0  0  0  0  0  0  0  0  0
  188.8110  174.2010  140.4940 C   0  0  0  0  0  3  0  0  0  0  0  0
  189.0210  172.7600  140.9270 C   0  0  0  0  0  1  0  0  0  0  0  0
  188.2630  174.2530  139.0790 C   0  0  0  0  0  1  0  0  0  0  0  0
  186.0020  176.8720  142.3640 O   0  0  0  0  0  0  0  0  0  0  0  0
  185.5360  178.0880  141.8560 C   0  0  0  0  0  0  0  0  0  0  0  0
  185.6520  179.1800  142.5960 C   0  0  0  0  0  2  0  0  0  0  0  0
  184.8740  178.1840  140.5200 C   0  0  0  0  0  2  0  0  0  0  0  0
  183.3680  178.2890  140.6910 C   0  0  0  0  0  1  0  0  0  0  0  0
  1 13  1  0  0  0  0
  2  6  1  0  0  0  0
  2  7  1  0  0  0  0
  4 12  1  0  0  0  0
  5  4  2  0  0  0  0
  5  9  1  0  0  0  0
  6  1  1  0  0  0  0
  7  8  1  0  0  0  0
  8 13  1  0  0  0  0
  8  3  2  0  0  0  0
  9  3  1  0  0  0  0
  9 11  2  0  0  0  0
 10  7  2  0  0  0  0
 10  5  1  0  0  0  0
 11 16  1  0  0  0  0
 12 11  1  0  0  0  0
 13 38  1  6  0  0  0
 14 15  1  0  0  0  0
 16 14  3  0  0  0  0
 17 10  1  0  0  0  0
 18 17  2  0  0  0  0
 19 23  1  0  0  0  0
 19 18  1  0  0  0  0
 20 19  2  0  0  0  0
 21 23  2  0  0  0  0
 22 24  2  0  0  0  0
 22 20  1  0  0  0  0
 24 21  1  0  0  0  0
 25 24  1  0  0  0  0
 26 25  1  0  0  0  0
 27 25  1  0  0  0  0
 28 22  1  0  0  0  0
 29 35  1  0  0  0  0
 29 34  1  0  0  0  0
 31 30  1  0  0  0  0
 34 36  1  0  0  0  0
 35 33  1  6  0  0  0
 35 28  1  0  0  0  0
 35 37  1  0  0  0  0
 36 31  1  0  0  0  0
 37 32  2  0  0  0  0
 37 31  1  0  0  0  0
 40 39  2  0  0  0  0
 41 38  1  0  0  0  0
 41 40  1  0  0  0  0
 42 40  1  0  0  0  0
 43 42  1  0  0  0  0
 43 44  1  1  0  0  0
 44 45  1  0  0  0  0
 45 46  2  0  0  0  0
 47 46  1  0  0  0  0
 48 51  1  6  0  0  0
 48 43  1  0  0  0  0
 49 51  2  0  0  0  0
 50 51  1  0  0  0  0
 52 53  1  0  0  0  0
 52 50  1  0  0  0  0
 54 52  1  0  0  0  0
 55 48  1  0  0  0  0
 56 55  1  0  0  0  0
 56 57  2  0  0  0  0
 58 59  1  0  0  0  0
 58 56  1  0  0  0  0
M  END
>  <MODEL>
8

>  <REMARK>
 VINA RESULT:      -5.0      3.604     10.490
  Name = 
  18 active torsions:
  status: ('A' for Active; 'I' for Inactive)
    1  A    between atoms: O_1  and  C_3
    2  A    between atoms: O_1  and  C_22
    3  A    between atoms: C_2  and  N_34
    4  A    between atoms: C_3  and  C_4
    5  A    between atoms: C_5  and  C_35
    6  A    between atoms: C_5  and  C_49
    7  A    between atoms: C_7  and  C_39
    8  A    between atoms: O_15  and  C_25
    9  A    between atoms: O_15  and  C_40
   10  A    between atoms: C_19  and  O_45
   11  A    between atoms: C_22  and  C_38
   12  A    between atoms: C_22  and  C_49
   13  A    between atoms: C_23  and  C_55
   14  A    between atoms: C_30  and  C_36
   15  A    between atoms: C_41  and  C_53
   16  A    between atoms: C_41  and  N_58
   17  A    between atoms: C_44  and  C_52
   18  A    between atoms: O_45  and  C_49
                            x       y       z     vdW  Elec       q    Type
                         _______ _______ _______ _____ _____    ______ ____

>  <TORSDO>
F 18

$$$$
=
 OpenBabel11042415453D

 59 63  0  0  1  0  0  0  0  0999 V2000
  189.4660  173.6500  145.6520 C   0  0  0  0  0  2  0  0  0  0  0  0
  190.3950  172.6120  143.6120 C   0  0  0  0  0  2  0  0  0  0  0  0
  192.8050  175.3460  144.8400 C   0  0  0  0  0  3  0  0  0  0  0  0
  194.6400  174.5970  141.9000 N   0  0  0  0  0  0  0  0  0  0  0  0
  193.6110  174.4330  142.7550 C   0  0  0  0  0  0  0  0  0  0  0  0
  189.7840  172.3300  144.9740 C   0  0  0  0  0  2  0  0  0  0  0  0
  191.5780  173.5450  143.6940 C   0  0  0  0  0  0  0  0  0  0  0  0
  191.6980  174.4700  144.7820 C   0  0  1  0  0  3  0  0  0  0  0  0
  193.7250  175.3020  143.8000 C   0  0  0  0  0  0  0  0  0  0  0  0
  192.5450  173.5390  142.6540 C   0  0  0  0  0  0  0  0  0  0  0  0
  194.8730  176.0110  143.5440 C   0  0  0  0  0  0  0  0  0  0  0  0
  195.4110  175.5680  142.3840 N   0  0  0  0  0  0  0  0  0  0  0  0
  190.7580  174.3980  145.9690 C   0  0  1  0  0  3  0  0  0  0  0  0
  195.8910  177.9610  145.0140 C   0  0  0  0  0  0  0  0  0  0  0  0
  196.4510  179.0440  145.8180 C   0  0  0  0  0  1  0  0  0  0  0  0
  195.4290  177.0700  144.3460 C   0  0  0  0  0  0  0  0  0  0  0  0
  192.4690  172.6030  141.5260 C   0  0  0  0  0  3  0  0  0  0  0  0
  192.2190  173.0410  140.2980 C   0  0  0  0  0  3  0  0  0  0  0  0
  192.0760  172.1340  139.1520 C   0  0  0  0  0  0  0  0  0  0  0  0
  193.2170  171.5200  138.6310 C   0  0  0  0  0  3  0  0  0  0  0  0
  190.7370  171.0660  137.4370 C   0  0  0  0  0  3  0  0  0  0  0  0
  193.1350  170.6750  137.5120 C   0  0  0  0  0  0  0  0  0  0  0  0
  190.8320  171.8970  138.5520 C   0  0  0  0  0  3  0  0  0  0  0  0
  191.8870  170.4620  136.9010 C   0  0  0  0  0  0  0  0  0  0  0  0
  191.7840  169.5550  135.7100 C   0  0  0  0  0  3  0  0  0  0  0  0
  190.8190  170.1100  134.6870 C   0  0  0  0  0  1  0  0  0  0  0  0
  191.3370  168.1670  136.1380 C   0  0  0  0  0  1  0  0  0  0  0  0
  194.2730  170.0310  136.9980 O   0  0  0  0  0  0  0  0  0  0  0  0
  196.0820  169.4250  135.4790 C   0  0  0  0  0  2  0  0  0  0  0  0
  197.4360  172.9430  137.3530 O   0  0  0  0  0  1  0  0  0  0  0  0
  196.9890  171.8390  136.7060 N   0  0  0  0  0  0  0  0  0  0  0  0
  194.8740  172.8790  136.2520 C   0  0  0  0  0  2  0  0  0  0  0  0
  194.1590  170.6220  134.7760 F   0  0  0  0  0  0  0  0  0  0  0  0
  197.2350  169.4130  136.4780 C   0  0  0  0  0  2  0  0  0  0  0  0
  195.0150  170.4640  135.8550 C   0  0  1  0  0  0  0  0  0  0  0  0
  197.9340  170.7640  136.4230 C   0  0  0  0  0  2  0  0  0  0  0  0
  195.6500  171.7950  136.1780 C   0  0  0  0  0  0  0  0  0  0  0  0
  190.4250  175.7700  146.5400 C   0  0  0  0  0  2  0  0  0  0  0  0
  190.6480  177.8410  144.5940 O   0  0  0  0  0  0  0  0  0  0  0  0
  189.4930  177.4060  144.8590 C   0  0  0  0  0  0  0  0  0  0  0  0
  189.3200  176.3460  145.7980 N   0  0  0  0  0  2  0  0  0  0  0  0
  188.3700  177.9420  144.2250 O   0  0  0  0  0  0  0  0  0  0  0  0
  187.8770  177.4550  142.9790 C   0  0  1  0  0  3  0  0  0  0  0  0
  188.1020  175.9450  142.8940 C   0  0  0  0  0  2  0  0  0  0  0  0
  188.9720  175.5630  141.7320 C   0  0  0  0  0  3  0  0  0  0  0  0
  188.8190  174.4360  141.0510 C   0  0  0  0  0  3  0  0  0  0  0  0
  187.8240  173.5280  141.3780 O   0  0  0  0  0  1  0  0  0  0  0  0
  186.3950  177.8340  142.8460 C   0  0  1  0  0  3  0  0  0  0  0  0
  185.5450  179.8200  143.8830 O   0  0  0  0  0  0  0  0  0  0  0  0
  185.7780  177.9700  145.2970 N   0  0  0  0  0  2  0  0  0  0  0  0
  185.8960  178.6170  144.0240 C   0  0  0  0  0  0  0  0  0  0  0  0
  185.3430  178.6260  146.5220 C   0  0  0  0  0  3  0  0  0  0  0  0
  183.8270  178.6340  146.6270 C   0  0  0  0  0  1  0  0  0  0  0  0
  185.9540  177.9620  147.7430 C   0  0  0  0  0  1  0  0  0  0  0  0
  186.1550  178.5300  141.6270 O   0  0  0  0  0  0  0  0  0  0  0  0
  185.1540  178.1460  140.7300 C   0  0  0  0  0  0  0  0  0  0  0  0
  183.8880  178.2320  141.1050 C   0  0  0  0  0  2  0  0  0  0  0  0
  185.4740  177.6020  139.3750 C   0  0  0  0  0  2  0  0  0  0  0  0
  186.9190  177.1340  139.3300 C   0  0  0  0  0  1  0  0  0  0  0  0
  1 13  1  0  0  0  0
  2  7  1  0  0  0  0
  2  6  1  0  0  0  0
  4 12  1  0  0  0  0
  4  5  2  0  0  0  0
  5  9  1  0  0  0  0
  6  1  1  0  0  0  0
  7  8  1  0  0  0  0
  8  3  1  1  0  0  0
  8 13  1  0  0  0  0
  9  3  2  0  0  0  0
 10  5  1  0  0  0  0
 10  7  2  0  0  0  0
 11  9  1  0  0  0  0
 11 16  1  0  0  0  0
 12 11  2  0  0  0  0
 13 38  1  6  0  0  0
 14 15  1  0  0  0  0
 16 14  3  0  0  0  0
 17 10  1  0  0  0  0
 18 17  2  0  0  0  0
 19 18  1  0  0  0  0
 20 19  1  0  0  0  0
 21 23  1  0  0  0  0
 22 20  2  0  0  0  0
 23 19  2  0  0  0  0
 24 21  2  0  0  0  0
 24 22  1  0  0  0  0
 25 27  1  0  0  0  0
 25 24  1  0  0  0  0
 26 25  1  0  0  0  0
 28 22  1  0  0  0  0
 29 35  1  0  0  0  0
 29 34  1  0  0  0  0
 31 30  1  0  0  0  0
 35 33  1  6  0  0  0
 35 37  1  0  0  0  0
 35 28  1  0  0  0  0
 36 34  1  0  0  0  0
 36 31  1  0  0  0  0
 37 32  2  0  0  0  0
 37 31  1  0  0  0  0
 39 40  2  0  0  0  0
 40 41  1  0  0  0  0
 41 38  1  0  0  0  0
 42 40  1  0  0  0  0
 43 44  1  1  0  0  0
 43 42  1  0  0  0  0
 45 44  1  0  0  0  0
 46 47  1  0  0  0  0
 46 45  2  0  0  0  0
 48 55  1  6  0  0  0
 48 43  1  0  0  0  0
 48 51  1  0  0  0  0
 49 51  2  0  0  0  0
 50 52  1  0  0  0  0
 51 50  1  0  0  0  0
 52 53  1  0  0  0  0
 52 54  1  0  0  0  0
 56 57  2  0  0  0  0
 56 55  1  0  0  0  0
 58 56  1  0  0  0  0
 59 58  1  0  0  0  0
M  END
>  <MODEL>
9

>  <REMARK>
 VINA RESULT:      -5.0      3.819     10.920
  Name = 
  18 active torsions:
  status: ('A' for Active; 'I' for Inactive)
    1  A    between atoms: O_1  and  C_3
    2  A    between atoms: O_1  and  C_22
    3  A    between atoms: C_2  and  N_34
    4  A    between atoms: C_3  and  C_4
    5  A    between atoms: C_5  and  C_35
    6  A    between atoms: C_5  and  C_49
    7  A    between atoms: C_7  and  C_39
    8  A    between atoms: O_15  and  C_25
    9  A    between atoms: O_15  and  C_40
   10  A    between atoms: C_19  and  O_45
   11  A    between atoms: C_22  and  C_38
   12  A    between atoms: C_22  and  C_49
   13  A    between atoms: C_23  and  C_55
   14  A    between atoms: C_30  and  C_36
   15  A    between atoms: C_41  and  C_53
   16  A    between atoms: C_41  and  N_58
   17  A    between atoms: C_44  and  C_52
   18  A    between atoms: O_45  and  C_49
                            x       y       z     vdW  Elec       q    Type
                         _______ _______ _______ _____ _____    ______ ____

>  <TORSDO>
F 18

$$$$
