=
 OpenBabel11042418003D

 36 37  0  0  0  0  0  0  0  0999 V2000
  188.7890  178.0230  143.0540 C   0  0  0  0  0  3  0  0  0  0  0  0
  187.8970  177.0810  142.7230 C   0  0  0  0  0  0  0  0  0  0  0  0
  185.6970  177.4900  141.8440 N   0  0  0  0  0  0  0  0  0  0  0  0
  186.4530  177.3870  142.8990 C   0  0  0  0  0  0  0  0  0  0  0  0
  185.6110  178.9910  144.6540 C   0  0  0  0  0  0  0  0  0  0  0  0
  185.6740  176.6120  145.1280 C   0  0  0  0  0  3  0  0  0  0  0  0
  185.7850  180.0630  143.7880 O   0  0  0  0  0  1  0  0  0  0  0  0
  185.9040  177.6760  144.2430 C   0  0  0  0  0  0  0  0  0  0  0  0
  185.1170  179.2260  145.9420 C   0  0  0  0  0  3  0  0  0  0  0  0
  185.1780  176.8550  146.4090 C   0  0  0  0  0  3  0  0  0  0  0  0
  184.9040  178.1610  146.8190 C   0  0  0  0  0  3  0  0  0  0  0  0
  184.3680  177.8500  141.9180 O   0  0  0  0  0  0  0  0  0  0  0  0
  183.6660  178.2120  140.7420 C   0  0  0  0  0  1  0  0  0  0  0  0
  188.3720  175.8020  142.1500 C   0  0  0  0  0  3  0  0  0  0  0  0
  187.9410  174.6090  142.5420 C   0  0  0  0  0  3  0  0  0  0  0  0
  188.4530  173.3700  141.8920 C   0  0  0  0  0  2  0  0  0  0  0  0
  189.2410  172.5130  142.8720 C   0  0  0  0  0  2  0  0  0  0  0  0
  192.6020  173.6990  142.2140 C   0  0  0  0  0  3  0  0  0  0  0  0
  191.2900  173.4760  141.8310 C   0  0  0  0  0  3  0  0  0  0  0  0
  190.6500  172.8810  142.8550 N   0  0  0  0  0  0  0  0  0  0  0  0
  192.6570  173.2060  143.5090 C   0  0  0  0  0  0  0  0  0  0  0  0
  191.4620  172.7130  143.8800 N   0  0  0  0  0  0  0  0  0  0  0  0
  197.1140  174.8780  144.2750 O   0  0  0  0  0  0  0  0  0  0  0  0
  194.9740  174.0180  144.0060 N   0  0  0  0  0  2  0  0  0  0  0  0
  196.4810  173.3340  145.9560 C   0  0  0  0  0  1  0  0  0  0  0  0
  193.8380  173.2280  144.3790 C   0  0  0  0  0  0  0  0  0  0  0  0
  196.2150  174.1150  144.7150 C   0  0  0  0  0  0  0  0  0  0  0  0
  193.8340  172.5670  145.4530 O   0  0  0  0  0  0  0  0  0  0  0  0
  190.2650  177.8510  142.9160 C   0  0  0  0  0  2  0  0  0  0  0  0
  190.9350  178.1990  144.2320 C   0  0  0  0  0  2  0  0  0  0  0  0
  191.2350  176.9570  145.0040 C   0  0  0  0  0  0  0  0  0  0  0  0
  192.2660  176.3400  144.7940 O   0  0  0  0  0  0  0  0  0  0  0  0
  190.0660  176.3520  146.2180 P   0  0  0  0  0  0  0  0  0  0  0  0
  189.3620  174.9150  145.6690 O   0  0  0  0  0  0  0  0  0  0  0  0
  190.7820  176.0920  147.5230 O   0  0  0  0  0  1  0  0  0  0  0  0
  188.8560  177.5100  146.4580 O   0  0  0  0  0  1  0  0  0  0  0  0
  2  4  1  0  0  0  0
  2  1  2  0  0  0  0
  3 12  1  0  0  0  0
  3  4  2  0  0  0  0
  4  8  1  0  0  0  0
  5  9  1  0  0  0  0
  6 10  2  0  0  0  0
  7  5  1  0  0  0  0
  8  5  2  0  0  0  0
  8  6  1  0  0  0  0
  9 11  2  0  0  0  0
 10 11  1  0  0  0  0
 13 12  1  0  0  0  0
 14 15  2  0  0  0  0
 14  2  1  0  0  0  0
 16 15  1  0  0  0  0
 16 17  1  0  0  0  0
 18 21  1  0  0  0  0
 19 18  2  0  0  0  0
 19 20  1  0  0  0  0
 20 17  1  0  0  0  0
 20 22  1  0  0  0  0
 21 22  2  0  0  0  0
 21 26  1  0  0  0  0
 23 27  2  0  0  0  0
 24 26  1  0  0  0  0
 24 27  1  0  0  0  0
 26 28  2  0  0  0  0
 27 25  1  0  0  0  0
 29  1  1  0  0  0  0
 29 30  1  0  0  0  0
 30 31  1  0  0  0  0
 31 33  1  0  0  0  0
 32 31  2  0  0  0  0
 33 36  1  0  0  0  0
 33 35  1  0  0  0  0
 34 33  2  0  0  0  0
M  END
>  <MODEL>
1

>  <REMARK>
 VINA RESULT:      -6.7      0.000      0.000
  Name = 
  12 active torsions:
  status: ('A' for Active; 'I' for Inactive)
    1  A    between atoms: P_1  and  C_7
    2  A    between atoms: C_2  and  C_5
    3  A    between atoms: C_2  and  C_22
    4  A    between atoms: N_3  and  O_19
    5  A    between atoms: C_4  and  C_30
    6  A    between atoms: C_7  and  C_24
    7  A    between atoms: C_10  and  C_21
    8  A    between atoms: C_10  and  C_30
    9  A    between atoms: C_13  and  C_25
   10  A    between atoms: C_22  and  N_23
   11  A    between atoms: C_24  and  C_26
   12  A    between atoms: C_26  and  C_29
                            x       y       z     vdW  Elec       q    Type
                         _______ _______ _______ _____ _____    ______ ____

>  <TORSDO>
F 12

$$$$
=
 OpenBabel11042418003D

 36 37  0  0  0  0  0  0  0  0999 V2000
  187.3360  175.5770  142.0850 C   0  0  0  0  0  3  0  0  0  0  0  0
  187.2900  176.7410  142.7440 C   0  0  0  0  0  0  0  0  0  0  0  0
  185.0240  177.4090  142.2950 N   0  0  0  0  0  0  0  0  0  0  0  0
  185.9630  177.2490  143.1820 C   0  0  0  0  0  0  0  0  0  0  0  0
  185.7020  179.0280  144.9520 C   0  0  0  0  0  0  0  0  0  0  0  0
  185.5830  176.6860  145.5720 C   0  0  0  0  0  3  0  0  0  0  0  0
  185.8160  180.0280  143.9940 O   0  0  0  0  0  1  0  0  0  0  0  0
  185.7460  177.6690  144.5860 C   0  0  0  0  0  0  0  0  0  0  0  0
  185.5200  179.3850  146.2930 C   0  0  0  0  0  3  0  0  0  0  0  0
  185.3990  177.0500  146.9070 C   0  0  0  0  0  3  0  0  0  0  0  0
  185.3720  178.3980  147.2690 C   0  0  0  0  0  3  0  0  0  0  0  0
  183.7960  177.9520  142.6080 O   0  0  0  0  0  0  0  0  0  0  0  0
  182.8680  178.2450  141.5780 C   0  0  0  0  0  1  0  0  0  0  0  0
  188.5520  177.4480  143.0560 C   0  0  0  0  0  3  0  0  0  0  0  0
  189.1790  177.3630  144.2230 C   0  0  0  0  0  3  0  0  0  0  0  0
  190.4630  178.0870  144.4450 C   0  0  0  0  0  2  0  0  0  0  0  0
  191.6270  177.3690  143.7770 C   0  0  0  0  0  2  0  0  0  0  0  0
  192.9230  175.5320  146.6190 C   0  0  0  0  0  3  0  0  0  0  0  0
  192.0520  176.4470  146.0520 C   0  0  0  0  0  3  0  0  0  0  0  0
  192.3400  176.5420  144.7410 N   0  0  0  0  0  0  0  0  0  0  0  0
  193.7060  175.1160  145.5530 C   0  0  0  0  0  0  0  0  0  0  0  0
  193.3360  175.7400  144.4210 N   0  0  0  0  0  0  0  0  0  0  0  0
  194.9360  170.4560  145.4550 O   0  0  0  0  0  0  0  0  0  0  0  0
  194.4540  172.7260  145.5120 N   0  0  0  0  0  2  0  0  0  0  0  0
  196.8200  171.8260  145.8770 C   0  0  0  0  0  1  0  0  0  0  0  0
  194.7780  174.1170  145.6230 C   0  0  0  0  0  0  0  0  0  0  0  0
  195.3700  171.6270  145.6030 C   0  0  0  0  0  0  0  0  0  0  0  0
  195.9730  174.4950  145.7630 O   0  0  0  0  0  0  0  0  0  0  0  0
  188.6000  174.9480  141.6000 C   0  0  0  0  0  2  0  0  0  0  0  0
  188.3170  173.5220  141.1690 C   0  0  0  0  0  2  0  0  0  0  0  0
  189.5790  172.7240  141.1550 C   0  0  0  0  0  0  0  0  0  0  0  0
  190.1700  172.5320  140.1060 O   0  0  0  0  0  0  0  0  0  0  0  0
  190.2090  172.0170  142.6750 P   0  0  0  0  0  0  0  0  0  0  0  0
  191.4250  173.0090  143.3070 O   0  0  0  0  0  1  0  0  0  0  0  0
  189.0870  171.8980  143.6800 O   0  0  0  0  0  1  0  0  0  0  0  0
  190.8480  170.4830  142.3570 O   0  0  0  0  0  0  0  0  0  0  0  0
  1  2  2  0  0  0  0
  2 14  1  0  0  0  0
  2  4  1  0  0  0  0
  3 12  1  0  0  0  0
  3  4  2  0  0  0  0
  4  8  1  0  0  0  0
  5  9  1  0  0  0  0
  6 10  2  0  0  0  0
  7  5  1  0  0  0  0
  8  5  2  0  0  0  0
  8  6  1  0  0  0  0
  9 11  2  0  0  0  0
 10 11  1  0  0  0  0
 13 12  1  0  0  0  0
 14 15  2  0  0  0  0
 15 16  1  0  0  0  0
 17 16  1  0  0  0  0
 17 20  1  0  0  0  0
 19 18  2  0  0  0  0
 20 19  1  0  0  0  0
 21 26  1  0  0  0  0
 21 18  1  0  0  0  0
 22 20  1  0  0  0  0
 22 21  2  0  0  0  0
 23 27  2  0  0  0  0
 24 27  1  0  0  0  0
 24 26  1  0  0  0  0
 26 28  2  0  0  0  0
 27 25  1  0  0  0  0
 29  1  1  0  0  0  0
 30 29  1  0  0  0  0
 31 30  1  0  0  0  0
 31 33  1  0  0  0  0
 32 31  2  0  0  0  0
 33 34  1  0  0  0  0
 33 35  1  0  0  0  0
 36 33  2  0  0  0  0
M  END
>  <MODEL>
2

>  <REMARK>
 VINA RESULT:      -6.7      2.356      3.777
  Name = 
  12 active torsions:
  status: ('A' for Active; 'I' for Inactive)
    1  A    between atoms: P_1  and  C_7
    2  A    between atoms: C_2  and  C_5
    3  A    between atoms: C_2  and  C_22
    4  A    between atoms: N_3  and  O_19
    5  A    between atoms: C_4  and  C_30
    6  A    between atoms: C_7  and  C_24
    7  A    between atoms: C_10  and  C_21
    8  A    between atoms: C_10  and  C_30
    9  A    between atoms: C_13  and  C_25
   10  A    between atoms: C_22  and  N_23
   11  A    between atoms: C_24  and  C_26
   12  A    between atoms: C_26  and  C_29
                            x       y       z     vdW  Elec       q    Type
                         _______ _______ _______ _____ _____    ______ ____

>  <TORSDO>
F 12

$$$$
=
 OpenBabel11042418003D

 36 37  0  0  0  0  0  0  0  0999 V2000
  190.1180  174.8750  143.0850 C   0  0  0  0  0  3  0  0  0  0  0  0
  190.3710  174.6440  144.3790 C   0  0  0  0  0  0  0  0  0  0  0  0
  192.0360  172.9660  144.8150 N   0  0  0  0  0  0  0  0  0  0  0  0
  191.7470  174.2340  144.7650 C   0  0  0  0  0  0  0  0  0  0  0  0
  192.8290  175.6790  146.5270 C   0  0  0  0  0  0  0  0  0  0  0  0
  193.6120  175.7870  144.2340 C   0  0  0  0  0  3  0  0  0  0  0  0
  192.0110  175.1320  147.5080 O   0  0  0  0  0  1  0  0  0  0  0  0
  192.7410  175.2460  145.1900 C   0  0  0  0  0  0  0  0  0  0  0  0
  193.7650  176.6550  146.8850 C   0  0  0  0  0  3  0  0  0  0  0  0
  194.5460  176.7580  144.6000 C   0  0  0  0  0  3  0  0  0  0  0  0
  194.6200  177.1960  145.9230 C   0  0  0  0  0  3  0  0  0  0  0  0
  193.2620  172.5030  145.2420 O   0  0  0  0  0  0  0  0  0  0  0  0
  194.0860  171.7620  144.3600 C   0  0  0  0  0  1  0  0  0  0  0  0
  189.2980  174.8550  145.3760 C   0  0  0  0  0  3  0  0  0  0  0  0
  189.0380  176.0250  145.9490 C   0  0  0  0  0  3  0  0  0  0  0  0
  187.9190  176.1560  146.9240 C   0  0  0  0  0  2  0  0  0  0  0  0
  187.5160  177.6110  147.1140 C   0  0  0  0  0  2  0  0  0  0  0  0
  184.2610  178.5710  145.8410 C   0  0  0  0  0  3  0  0  0  0  0  0
  185.1550  178.3700  146.8800 C   0  0  0  0  0  3  0  0  0  0  0  0
  186.3080  177.9110  146.3590 N   0  0  0  0  0  0  0  0  0  0  0  0
  184.9800  178.2080  144.7120 C   0  0  0  0  0  0  0  0  0  0  0  0
  186.2210  177.8110  145.0470 N   0  0  0  0  0  0  0  0  0  0  0  0
  185.9490  177.6860  140.0180 O   0  0  0  0  0  0  0  0  0  0  0  0
  185.3750  177.9610  142.2510 N   0  0  0  0  0  2  0  0  0  0  0  0
  183.7320  178.4470  140.3520 C   0  0  0  0  0  1  0  0  0  0  0  0
  184.4850  178.2640  143.3330 C   0  0  0  0  0  0  0  0  0  0  0  0
  185.0660  178.0120  140.8530 C   0  0  0  0  0  0  0  0  0  0  0  0
  183.2800  178.5630  143.1150 O   0  0  0  0  0  0  0  0  0  0  0  0
  188.7860  175.3040  142.5640 C   0  0  0  0  0  2  0  0  0  0  0  0
  188.1230  174.1350  141.8610 C   0  0  0  0  0  2  0  0  0  0  0  0
  188.5270  174.0970  140.4250 C   0  0  0  0  0  0  0  0  0  0  0  0
  188.1060  174.9390  139.6480 O   0  0  0  0  0  0  0  0  0  0  0  0
  189.6020  172.7950  139.8290 P   0  0  0  0  0  0  0  0  0  0  0  0
  190.1220  171.8430  141.1270 O   0  0  0  0  0  1  0  0  0  0  0  0
  188.8510  171.9310  138.8430 O   0  0  0  0  0  0  0  0  0  0  0  0
  190.9470  173.4830  139.0670 O   0  0  0  0  0  1  0  0  0  0  0  0
  1  2  2  0  0  0  0
  2  4  1  0  0  0  0
  2 14  1  0  0  0  0
  3 12  1  0  0  0  0
  4  3  2  0  0  0  0
  4  8  1  0  0  0  0
  5  9  1  0  0  0  0
  5  7  1  0  0  0  0
  6 10  2  0  0  0  0
  6  8  1  0  0  0  0
  8  5  2  0  0  0  0
 10 11  1  0  0  0  0
 11  9  2  0  0  0  0
 13 12  1  0  0  0  0
 14 15  2  0  0  0  0
 15 16  1  0  0  0  0
 16 17  1  0  0  0  0
 18 19  2  0  0  0  0
 20 19  1  0  0  0  0
 20 17  1  0  0  0  0
 21 22  2  0  0  0  0
 21 18  1  0  0  0  0
 22 20  1  0  0  0  0
 23 27  2  0  0  0  0
 24 26  1  0  0  0  0
 25 27  1  0  0  0  0
 26 21  1  0  0  0  0
 27 24  1  0  0  0  0
 28 26  2  0  0  0  0
 29  1  1  0  0  0  0
 30 29  1  0  0  0  0
 31 30  1  0  0  0  0
 32 31  2  0  0  0  0
 33 31  1  0  0  0  0
 33 34  1  0  0  0  0
 35 33  2  0  0  0  0
 36 33  1  0  0  0  0
M  END
>  <MODEL>
3

>  <REMARK>
 VINA RESULT:      -6.6      3.183      8.704
  Name = 
  12 active torsions:
  status: ('A' for Active; 'I' for Inactive)
    1  A    between atoms: P_1  and  C_7
    2  A    between atoms: C_2  and  C_5
    3  A    between atoms: C_2  and  C_22
    4  A    between atoms: N_3  and  O_19
    5  A    between atoms: C_4  and  C_30
    6  A    between atoms: C_7  and  C_24
    7  A    between atoms: C_10  and  C_21
    8  A    between atoms: C_10  and  C_30
    9  A    between atoms: C_13  and  C_25
   10  A    between atoms: C_22  and  N_23
   11  A    between atoms: C_24  and  C_26
   12  A    between atoms: C_26  and  C_29
                            x       y       z     vdW  Elec       q    Type
                         _______ _______ _______ _____ _____    ______ ____

>  <TORSDO>
F 12

$$$$
=
 OpenBabel11042418003D

 36 37  0  0  0  0  0  0  0  0999 V2000
  187.1290  175.1550  142.3840 C   0  0  0  0  0  3  0  0  0  0  0  0
  187.1960  176.2140  143.1990 C   0  0  0  0  0  0  0  0  0  0  0  0
  185.1200  177.2070  142.5020 N   0  0  0  0  0  0  0  0  0  0  0  0
  185.9450  176.9680  143.4800 C   0  0  0  0  0  0  0  0  0  0  0  0
  185.8140  178.9100  145.0850 C   0  0  0  0  0  0  0  0  0  0  0  0
  185.3260  176.6660  145.8670 C   0  0  0  0  0  3  0  0  0  0  0  0
  186.1330  179.8000  144.0660 O   0  0  0  0  0  1  0  0  0  0  0  0
  185.6930  177.5310  144.8260 C   0  0  0  0  0  0  0  0  0  0  0  0
  185.5920  179.4000  146.3760 C   0  0  0  0  0  3  0  0  0  0  0  0
  185.1030  177.1640  147.1520 C   0  0  0  0  0  3  0  0  0  0  0  0
  185.2400  178.5290  147.4090 C   0  0  0  0  0  3  0  0  0  0  0  0
  183.9820  177.9670  142.6630 O   0  0  0  0  0  0  0  0  0  0  0  0
  183.1510  178.2440  141.5500 C   0  0  0  0  0  1  0  0  0  0  0  0
  188.4880  176.5620  143.8300 C   0  0  0  0  0  3  0  0  0  0  0  0
  189.1490  177.6900  143.5930 C   0  0  0  0  0  3  0  0  0  0  0  0
  190.4340  177.9740  144.2930 C   0  0  0  0  0  2  0  0  0  0  0  0
  190.5520  177.1720  145.5810 C   0  0  0  0  0  2  0  0  0  0  0  0
  193.6420  175.5210  146.5080 C   0  0  0  0  0  3  0  0  0  0  0  0
  192.3440  175.9200  146.7770 C   0  0  0  0  0  3  0  0  0  0  0  0
  191.8890  176.6120  145.7150 N   0  0  0  0  0  0  0  0  0  0  0  0
  193.8850  176.0200  145.2360 C   0  0  0  0  0  0  0  0  0  0  0  0
  192.8080  176.6780  144.7720 N   0  0  0  0  0  0  0  0  0  0  0  0
  196.3470  176.9540  141.1980 O   0  0  0  0  0  0  0  0  0  0  0  0
  195.2520  176.4480  143.1820 N   0  0  0  0  0  2  0  0  0  0  0  0
  197.5660  175.5110  142.6260 C   0  0  0  0  0  1  0  0  0  0  0  0
  195.1260  175.8440  144.4760 C   0  0  0  0  0  0  0  0  0  0  0  0
  196.3720  176.3390  142.2950 C   0  0  0  0  0  0  0  0  0  0  0  0
  196.0740  175.1790  144.9750 O   0  0  0  0  0  0  0  0  0  0  0  0
  188.3040  174.3050  142.0290 C   0  0  0  0  0  2  0  0  0  0  0  0
  188.6730  174.5420  140.5770 C   0  0  0  0  0  2  0  0  0  0  0  0
  188.8760  173.2410  139.8750 C   0  0  0  0  0  0  0  0  0  0  0  0
  187.9140  172.6030  139.4780 O   0  0  0  0  0  0  0  0  0  0  0  0
  190.5300  172.5950  139.6440 P   0  0  0  0  0  0  0  0  0  0  0  0
  190.4520  170.9620  139.2090 O   0  0  0  0  0  1  0  0  0  0  0  0
  191.2270  173.3710  138.5510 O   0  0  0  0  0  0  0  0  0  0  0  0
  191.3980  172.7480  141.0870 O   0  0  0  0  0  1  0  0  0  0  0  0
  1  2  2  0  0  0  0
  2  4  1  0  0  0  0
  2 14  1  0  0  0  0
  3 12  1  0  0  0  0
  3  4  2  0  0  0  0
  4  8  1  0  0  0  0
  5  9  1  0  0  0  0
  6 10  2  0  0  0  0
  7  5  1  0  0  0  0
  8  5  2  0  0  0  0
  8  6  1  0  0  0  0
  9 11  2  0  0  0  0
 10 11  1  0  0  0  0
 13 12  1  0  0  0  0
 15 14  2  0  0  0  0
 15 16  1  0  0  0  0
 16 17  1  0  0  0  0
 17 20  1  0  0  0  0
 18 19  2  0  0  0  0
 20 19  1  0  0  0  0
 21 18  1  0  0  0  0
 22 21  2  0  0  0  0
 22 20  1  0  0  0  0
 23 27  2  0  0  0  0
 24 26  1  0  0  0  0
 26 28  2  0  0  0  0
 26 21  1  0  0  0  0
 27 25  1  0  0  0  0
 27 24  1  0  0  0  0
 29  1  1  0  0  0  0
 30 29  1  0  0  0  0
 31 30  1  0  0  0  0
 32 31  2  0  0  0  0
 33 31  1  0  0  0  0
 33 36  1  0  0  0  0
 34 33  1  0  0  0  0
 35 33  2  0  0  0  0
M  END
>  <MODEL>
4

>  <REMARK>
 VINA RESULT:      -6.6      3.120      4.387
  Name = 
  12 active torsions:
  status: ('A' for Active; 'I' for Inactive)
    1  A    between atoms: P_1  and  C_7
    2  A    between atoms: C_2  and  C_5
    3  A    between atoms: C_2  and  C_22
    4  A    between atoms: N_3  and  O_19
    5  A    between atoms: C_4  and  C_30
    6  A    between atoms: C_7  and  C_24
    7  A    between atoms: C_10  and  C_21
    8  A    between atoms: C_10  and  C_30
    9  A    between atoms: C_13  and  C_25
   10  A    between atoms: C_22  and  N_23
   11  A    between atoms: C_24  and  C_26
   12  A    between atoms: C_26  and  C_29
                            x       y       z     vdW  Elec       q    Type
                         _______ _______ _______ _____ _____    ______ ____

>  <TORSDO>
F 12

$$$$
=
 OpenBabel11042418003D

 36 37  0  0  0  0  0  0  0  0999 V2000
  188.7540  177.9750  143.1880 C   0  0  0  0  0  3  0  0  0  0  0  0
  187.8690  177.0250  142.8610 C   0  0  0  0  0  0  0  0  0  0  0  0
  185.6470  177.3470  142.0040 N   0  0  0  0  0  0  0  0  0  0  0  0
  186.4230  177.3140  143.0480 C   0  0  0  0  0  0  0  0  0  0  0  0
  185.6120  178.9960  144.7440 C   0  0  0  0  0  0  0  0  0  0  0  0
  185.6720  176.6400  145.3190 C   0  0  0  0  0  3  0  0  0  0  0  0
  185.7790  180.0290  143.8300 O   0  0  0  0  0  1  0  0  0  0  0  0
  185.8940  177.6640  144.3870 C   0  0  0  0  0  0  0  0  0  0  0  0
  185.1360  179.2900  146.0260 C   0  0  0  0  0  3  0  0  0  0  0  0
  185.1930  176.9410  146.5960 C   0  0  0  0  0  3  0  0  0  0  0  0
  184.9310  178.2650  146.9520 C   0  0  0  0  0  3  0  0  0  0  0  0
  184.3130  177.6870  142.0850 O   0  0  0  0  0  0  0  0  0  0  0  0
  183.6880  178.3630  141.0080 C   0  0  0  0  0  1  0  0  0  0  0  0
  188.3550  175.7530  142.2820 C   0  0  0  0  0  3  0  0  0  0  0  0
  187.6220  174.6480  142.2000 C   0  0  0  0  0  3  0  0  0  0  0  0
  188.1810  173.4160  141.5750 C   0  0  0  0  0  2  0  0  0  0  0  0
  189.1290  173.7540  140.4330 C   0  0  0  0  0  2  0  0  0  0  0  0
  192.6560  172.9420  140.6160 C   0  0  0  0  0  3  0  0  0  0  0  0
  191.5150  173.2720  139.9040 C   0  0  0  0  0  3  0  0  0  0  0  0
  190.4950  173.3820  140.7750 N   0  0  0  0  0  0  0  0  0  0  0  0
  192.2200  172.8830  141.9310 C   0  0  0  0  0  0  0  0  0  0  0  0
  190.9040  173.1530  142.0070 N   0  0  0  0  0  0  0  0  0  0  0  0
  193.8330  169.5920  145.0620 O   0  0  0  0  0  0  0  0  0  0  0  0
  193.1220  171.2540  143.6060 N   0  0  0  0  0  2  0  0  0  0  0  0
  194.6400  171.7510  145.6030 C   0  0  0  0  0  1  0  0  0  0  0  0
  193.0630  172.5920  143.0950 C   0  0  0  0  0  0  0  0  0  0  0  0
  193.8560  170.8110  144.7540 C   0  0  0  0  0  0  0  0  0  0  0  0
  193.7370  173.5170  143.6230 O   0  0  0  0  0  0  0  0  0  0  0  0
  190.2300  177.8210  143.0380 C   0  0  0  0  0  2  0  0  0  0  0  0
  190.8770  177.8420  144.4100 C   0  0  0  0  0  2  0  0  0  0  0  0
  190.7120  176.5200  145.0820 C   0  0  0  0  0  0  0  0  0  0  0  0
  191.1520  175.5090  144.5600 O   0  0  0  0  0  0  0  0  0  0  0  0
  189.8360  176.4080  146.6390 P   0  0  0  0  0  0  0  0  0  0  0  0
  190.9270  176.5570  147.9230 O   0  0  0  0  0  1  0  0  0  0  0  0
  188.8110  177.5160  146.7230 O   0  0  0  0  0  0  0  0  0  0  0  0
  189.0570  174.9100  146.7390 O   0  0  0  0  0  1  0  0  0  0  0  0
  2  4  1  0  0  0  0
  2  1  2  0  0  0  0
  3 12  1  0  0  0  0
  3  4  2  0  0  0  0
  4  8  1  0  0  0  0
  5  9  1  0  0  0  0
  6 10  2  0  0  0  0
  7  5  1  0  0  0  0
  8  5  2  0  0  0  0
  8  6  1  0  0  0  0
  9 11  2  0  0  0  0
 10 11  1  0  0  0  0
 13 12  1  0  0  0  0
 14  2  1  0  0  0  0
 15 14  2  0  0  0  0
 16 15  1  0  0  0  0
 17 20  1  0  0  0  0
 17 16  1  0  0  0  0
 18 21  1  0  0  0  0
 19 18  2  0  0  0  0
 19 20  1  0  0  0  0
 20 22  1  0  0  0  0
 21 22  2  0  0  0  0
 21 26  1  0  0  0  0
 24 27  1  0  0  0  0
 26 24  1  0  0  0  0
 26 28  2  0  0  0  0
 27 23  2  0  0  0  0
 27 25  1  0  0  0  0
 29  1  1  0  0  0  0
 29 30  1  0  0  0  0
 30 31  1  0  0  0  0
 31 33  1  0  0  0  0
 32 31  2  0  0  0  0
 33 35  2  0  0  0  0
 33 36  1  0  0  0  0
 33 34  1  0  0  0  0
M  END
>  <MODEL>
5

>  <REMARK>
 VINA RESULT:      -6.4      1.328      1.923
  Name = 
  12 active torsions:
  status: ('A' for Active; 'I' for Inactive)
    1  A    between atoms: P_1  and  C_7
    2  A    between atoms: C_2  and  C_5
    3  A    between atoms: C_2  and  C_22
    4  A    between atoms: N_3  and  O_19
    5  A    between atoms: C_4  and  C_30
    6  A    between atoms: C_7  and  C_24
    7  A    between atoms: C_10  and  C_21
    8  A    between atoms: C_10  and  C_30
    9  A    between atoms: C_13  and  C_25
   10  A    between atoms: C_22  and  N_23
   11  A    between atoms: C_24  and  C_26
   12  A    between atoms: C_26  and  C_29
                            x       y       z     vdW  Elec       q    Type
                         _______ _______ _______ _____ _____    ______ ____

>  <TORSDO>
F 12

$$$$
=
 OpenBabel11042418003D

 36 37  0  0  0  0  0  0  0  0999 V2000
  190.9980  172.9790  144.5400 C   0  0  0  0  0  3  0  0  0  0  0  0
  191.2160  174.0730  145.2810 C   0  0  0  0  0  0  0  0  0  0  0  0
  192.8500  175.4980  146.3190 N   0  0  0  0  0  0  0  0  0  0  0  0
  192.6220  174.4470  145.5870 C   0  0  0  0  0  0  0  0  0  0  0  0
  194.3030  174.0750  143.7430 C   0  0  0  0  0  0  0  0  0  0  0  0
  194.2680  172.5860  145.6580 C   0  0  0  0  0  3  0  0  0  0  0  0
  193.8410  175.1970  143.0670 O   0  0  0  0  0  1  0  0  0  0  0  0
  193.7480  173.6980  144.9810 C   0  0  0  0  0  0  0  0  0  0  0  0
  195.3490  173.3280  143.1910 C   0  0  0  0  0  3  0  0  0  0  0  0
  195.3150  171.8480  145.1020 C   0  0  0  0  0  3  0  0  0  0  0  0
  195.8520  172.2150  143.8670 C   0  0  0  0  0  3  0  0  0  0  0  0
  194.1240  175.9570  146.5790 O   0  0  0  0  0  0  0  0  0  0  0  0
  194.5660  177.1790  146.0160 C   0  0  0  0  0  1  0  0  0  0  0  0
  190.0650  174.8930  145.7190 C   0  0  0  0  0  3  0  0  0  0  0  0
  189.4530  174.7450  146.8880 C   0  0  0  0  0  3  0  0  0  0  0  0
  188.3160  175.6340  147.2620 C   0  0  0  0  0  2  0  0  0  0  0  0
  188.5500  177.0620  146.7910 C   0  0  0  0  0  2  0  0  0  0  0  0
  185.4590  178.5830  145.6660 C   0  0  0  0  0  3  0  0  0  0  0  0
  186.3540  178.2310  146.6620 C   0  0  0  0  0  3  0  0  0  0  0  0
  187.3780  177.5690  146.0920 N   0  0  0  0  0  0  0  0  0  0  0  0
  186.0420  178.0900  144.5080 C   0  0  0  0  0  0  0  0  0  0  0  0
  187.2070  177.4780  144.7880 N   0  0  0  0  0  0  0  0  0  0  0  0
  182.1240  178.2940  141.7070 O   0  0  0  0  0  0  0  0  0  0  0  0
  184.0750  178.2110  142.9630 N   0  0  0  0  0  2  0  0  0  0  0  0
  184.1040  178.3520  140.4100 C   0  0  0  0  0  1  0  0  0  0  0  0
  185.4950  178.2260  143.1550 C   0  0  0  0  0  0  0  0  0  0  0  0
  183.3820  178.2880  141.7110 C   0  0  0  0  0  0  0  0  0  0  0  0
  186.2790  178.3700  142.1770 O   0  0  0  0  0  0  0  0  0  0  0  0
  189.6390  172.5000  144.1500 C   0  0  0  0  0  2  0  0  0  0  0  0
  189.6050  172.2540  142.6540 C   0  0  0  0  0  2  0  0  0  0  0  0
  188.9230  173.3850  141.9580 C   0  0  0  0  0  0  0  0  0  0  0  0
  188.3350  174.2360  142.6060 O   0  0  0  0  0  0  0  0  0  0  0  0
  188.9360  173.4770  140.1700 P   0  0  0  0  0  0  0  0  0  0  0  0
  190.5300  173.4510  139.6060 O   0  0  0  0  0  1  0  0  0  0  0  0
  188.1830  172.2970  139.5990 O   0  0  0  0  0  0  0  0  0  0  0  0
  188.1920  174.9130  139.6770 O   0  0  0  0  0  1  0  0  0  0  0  0
  1  2  2  0  0  0  0
  2  4  1  0  0  0  0
  2 14  1  0  0  0  0
  3 12  1  0  0  0  0
  4  3  2  0  0  0  0
  5  8  1  0  0  0  0
  7  5  1  0  0  0  0
  8  4  1  0  0  0  0
  8  6  2  0  0  0  0
  9  5  2  0  0  0  0
  9 11  1  0  0  0  0
 10  6  1  0  0  0  0
 11 10  2  0  0  0  0
 13 12  1  0  0  0  0
 14 15  2  0  0  0  0
 15 16  1  0  0  0  0
 17 16  1  0  0  0  0
 18 19  2  0  0  0  0
 20 19  1  0  0  0  0
 20 17  1  0  0  0  0
 21 22  2  0  0  0  0
 21 18  1  0  0  0  0
 22 20  1  0  0  0  0
 23 27  2  0  0  0  0
 24 26  1  0  0  0  0
 25 27  1  0  0  0  0
 26 21  1  0  0  0  0
 27 24  1  0  0  0  0
 28 26  2  0  0  0  0
 29  1  1  0  0  0  0
 30 29  1  0  0  0  0
 31 32  2  0  0  0  0
 31 30  1  0  0  0  0
 33 31  1  0  0  0  0
 34 33  1  0  0  0  0
 35 33  2  0  0  0  0
 36 33  1  0  0  0  0
M  END
>  <MODEL>
6

>  <REMARK>
 VINA RESULT:      -6.3      3.034      9.125
  Name = 
  12 active torsions:
  status: ('A' for Active; 'I' for Inactive)
    1  A    between atoms: P_1  and  C_7
    2  A    between atoms: C_2  and  C_5
    3  A    between atoms: C_2  and  C_22
    4  A    between atoms: N_3  and  O_19
    5  A    between atoms: C_4  and  C_30
    6  A    between atoms: C_7  and  C_24
    7  A    between atoms: C_10  and  C_21
    8  A    between atoms: C_10  and  C_30
    9  A    between atoms: C_13  and  C_25
   10  A    between atoms: C_22  and  N_23
   11  A    between atoms: C_24  and  C_26
   12  A    between atoms: C_26  and  C_29
                            x       y       z     vdW  Elec       q    Type
                         _______ _______ _______ _____ _____    ______ ____

>  <TORSDO>
F 12

$$$$
=
 OpenBabel11042418003D

 36 37  0  0  0  0  0  0  0  0999 V2000
  191.2360  172.7580  144.6820 C   0  0  0  0  0  3  0  0  0  0  0  0
  192.0140  173.7960  145.0150 C   0  0  0  0  0  0  0  0  0  0  0  0
  194.0110  172.6270  145.6680 N   0  0  0  0  0  0  0  0  0  0  0  0
  193.4890  173.6070  144.9890 C   0  0  0  0  0  0  0  0  0  0  0  0
  194.9310  175.6770  144.9650 C   0  0  0  0  0  0  0  0  0  0  0  0
  194.6150  174.4050  142.9230 C   0  0  0  0  0  3  0  0  0  0  0  0
  194.7330  175.8560  146.3280 O   0  0  0  0  0  1  0  0  0  0  0  0
  194.3590  174.5810  144.2900 C   0  0  0  0  0  0  0  0  0  0  0  0
  195.7270  176.5890  144.2650 C   0  0  0  0  0  3  0  0  0  0  0  0
  195.4140  175.3180  142.2320 C   0  0  0  0  0  3  0  0  0  0  0  0
  195.9660  176.4130  142.9000 C   0  0  0  0  0  3  0  0  0  0  0  0
  195.3730  172.4350  145.7610 O   0  0  0  0  0  0  0  0  0  0  0  0
  195.9650  171.2740  145.2040 C   0  0  0  0  0  1  0  0  0  0  0  0
  191.3880  175.0960  145.3410 C   0  0  0  0  0  3  0  0  0  0  0  0
  191.2250  176.0800  144.4650 C   0  0  0  0  0  3  0  0  0  0  0  0
  190.5570  177.3500  144.8710 C   0  0  0  0  0  2  0  0  0  0  0  0
  189.6050  177.1270  146.0370 C   0  0  0  0  0  2  0  0  0  0  0  0
  186.0340  176.7920  145.5240 C   0  0  0  0  0  3  0  0  0  0  0  0
  187.1690  176.6820  146.3090 C   0  0  0  0  0  3  0  0  0  0  0  0
  188.2280  177.0600  145.5690 N   0  0  0  0  0  0  0  0  0  0  0  0
  186.5140  177.2590  144.3100 C   0  0  0  0  0  0  0  0  0  0  0  0
  187.8490  177.4170  144.3580 N   0  0  0  0  0  0  0  0  0  0  0  0
  186.2460  177.5430  139.5050 O   0  0  0  0  0  0  0  0  0  0  0  0
  186.2660  177.4370  141.8240 N   0  0  0  0  0  2  0  0  0  0  0  0
  184.2400  178.2890  140.5170 C   0  0  0  0  0  1  0  0  0  0  0  0
  185.6970  177.5690  143.1330 C   0  0  0  0  0  0  0  0  0  0  0  0
  185.6230  177.7400  140.5800 C   0  0  0  0  0  0  0  0  0  0  0  0
  184.4980  177.9320  143.2840 O   0  0  0  0  0  0  0  0  0  0  0  0
  189.7450  172.8150  144.6540 C   0  0  0  0  0  2  0  0  0  0  0  0
  189.2500  172.3100  143.3130 C   0  0  0  0  0  2  0  0  0  0  0  0
  189.1240  173.4400  142.3460 C   0  0  0  0  0  0  0  0  0  0  0  0
  188.5640  174.4720  142.6810 O   0  0  0  0  0  0  0  0  0  0  0  0
  189.7640  173.2730  140.6820 P   0  0  0  0  0  0  0  0  0  0  0  0
  191.3500  173.8550  140.6170 O   0  0  0  0  0  1  0  0  0  0  0  0
  189.7480  171.8170  140.2790 O   0  0  0  0  0  1  0  0  0  0  0  0
  188.7970  174.1640  139.6180 O   0  0  0  0  0  0  0  0  0  0  0  0
  1  2  2  0  0  0  0
  2 14  1  0  0  0  0
  3 12  1  0  0  0  0
  4  2  1  0  0  0  0
  4  3  2  0  0  0  0
  5  7  1  0  0  0  0
  6  8  2  0  0  0  0
  8  5  1  0  0  0  0
  8  4  1  0  0  0  0
  9  5  2  0  0  0  0
 10 11  2  0  0  0  0
 10  6  1  0  0  0  0
 11  9  1  0  0  0  0
 13 12  1  0  0  0  0
 15 16  1  0  0  0  0
 15 14  2  0  0  0  0
 16 17  1  0  0  0  0
 18 19  2  0  0  0  0
 20 17  1  0  0  0  0
 20 19  1  0  0  0  0
 21 22  2  0  0  0  0
 21 18  1  0  0  0  0
 22 20  1  0  0  0  0
 23 27  2  0  0  0  0
 24 26  1  0  0  0  0
 25 27  1  0  0  0  0
 26 28  2  0  0  0  0
 26 21  1  0  0  0  0
 27 24  1  0  0  0  0
 29  1  1  0  0  0  0
 30 29  1  0  0  0  0
 31 32  2  0  0  0  0
 31 30  1  0  0  0  0
 33 31  1  0  0  0  0
 34 33  1  0  0  0  0
 35 33  1  0  0  0  0
 36 33  2  0  0  0  0
M  END
>  <MODEL>
7

>  <REMARK>
 VINA RESULT:      -6.2      2.788      8.860
  Name = 
  12 active torsions:
  status: ('A' for Active; 'I' for Inactive)
    1  A    between atoms: P_1  and  C_7
    2  A    between atoms: C_2  and  C_5
    3  A    between atoms: C_2  and  C_22
    4  A    between atoms: N_3  and  O_19
    5  A    between atoms: C_4  and  C_30
    6  A    between atoms: C_7  and  C_24
    7  A    between atoms: C_10  and  C_21
    8  A    between atoms: C_10  and  C_30
    9  A    between atoms: C_13  and  C_25
   10  A    between atoms: C_22  and  N_23
   11  A    between atoms: C_24  and  C_26
   12  A    between atoms: C_26  and  C_29
                            x       y       z     vdW  Elec       q    Type
                         _______ _______ _______ _____ _____    ______ ____

>  <TORSDO>
F 12

$$$$
=
 OpenBabel11042418003D

 36 37  0  0  0  0  0  0  0  0999 V2000
  193.8940  175.8380  146.1610 C   0  0  0  0  0  3  0  0  0  0  0  0
  192.5880  175.6200  145.9670 C   0  0  0  0  0  0  0  0  0  0  0  0
  191.9830  176.8570  147.9380 N   0  0  0  0  0  0  0  0  0  0  0  0
  191.6150  176.4030  146.7740 C   0  0  0  0  0  0  0  0  0  0  0  0
  189.1870  175.7190  146.7500 C   0  0  0  0  0  0  0  0  0  0  0  0
  189.9200  177.6070  145.4140 C   0  0  0  0  0  3  0  0  0  0  0  0
  189.4400  174.7110  147.6720 O   0  0  0  0  0  1  0  0  0  0  0  0
  190.2190  176.5720  146.3120 C   0  0  0  0  0  0  0  0  0  0  0  0
  187.8850  175.8950  146.2710 C   0  0  0  0  0  3  0  0  0  0  0  0
  188.6170  177.7790  144.9440 C   0  0  0  0  0  3  0  0  0  0  0  0
  187.6000  176.9210  145.3670 C   0  0  0  0  0  3  0  0  0  0  0  0
  191.1160  177.5200  148.7800 O   0  0  0  0  0  0  0  0  0  0  0  0
  191.6100  178.1600  149.9440 C   0  0  0  0  0  1  0  0  0  0  0  0
  192.1600  174.6570  144.9270 C   0  0  0  0  0  3  0  0  0  0  0  0
  191.6700  173.4520  145.1910 C   0  0  0  0  0  3  0  0  0  0  0  0
  191.2370  172.5540  144.0830 C   0  0  0  0  0  2  0  0  0  0  0  0
  191.2630  173.2750  142.7420 C   0  0  0  0  0  2  0  0  0  0  0  0
  187.7830  173.4220  141.7420 C   0  0  0  0  0  3  0  0  0  0  0  0
  188.9220  172.7190  142.0970 C   0  0  0  0  0  3  0  0  0  0  0  0
  189.9120  173.6050  142.3120 N   0  0  0  0  0  0  0  0  0  0  0  0
  188.1880  174.7480  141.7790 C   0  0  0  0  0  0  0  0  0  0  0  0
  189.4840  174.8380  142.1270 N   0  0  0  0  0  0  0  0  0  0  0  0
  184.7100  177.6990  143.3380 O   0  0  0  0  0  0  0  0  0  0  0  0
  186.3910  176.3400  142.4920 N   0  0  0  0  0  2  0  0  0  0  0  0
  185.3340  178.2170  141.1130 C   0  0  0  0  0  1  0  0  0  0  0  0
  187.3330  175.9070  141.5030 C   0  0  0  0  0  0  0  0  0  0  0  0
  185.4570  177.4190  142.3650 C   0  0  0  0  0  0  0  0  0  0  0  0
  187.4480  176.5190  140.4060 O   0  0  0  0  0  0  0  0  0  0  0  0
  194.9730  175.1310  145.4100 C   0  0  0  0  0  2  0  0  0  0  0  0
  195.7530  176.1390  144.5870 C   0  0  0  0  0  2  0  0  0  0  0  0
  196.1880  175.5290  143.2960 C   0  0  0  0  0  0  0  0  0  0  0  0
  197.3440  175.1690  143.1480 O   0  0  0  0  0  0  0  0  0  0  0  0
  195.0220  175.3550  141.9490 P   0  0  0  0  0  0  0  0  0  0  0  0
  193.6290  176.2580  142.2760 O   0  0  0  0  0  1  0  0  0  0  0  0
  195.6510  175.8540  140.6690 O   0  0  0  0  0  0  0  0  0  0  0  0
  194.6040  173.7260  141.7750 O   0  0  0  0  0  1  0  0  0  0  0  0
  2  1  2  0  0  0  0
  2  4  1  0  0  0  0
  3 12  1  0  0  0  0
  4  3  2  0  0  0  0
  5  7  1  0  0  0  0
  6  8  2  0  0  0  0
  8  5  1  0  0  0  0
  8  4  1  0  0  0  0
  9  5  2  0  0  0  0
 10 11  2  0  0  0  0
 10  6  1  0  0  0  0
 11  9  1  0  0  0  0
 12 13  1  0  0  0  0
 14 15  2  0  0  0  0
 14  2  1  0  0  0  0
 16 15  1  0  0  0  0
 17 16  1  0  0  0  0
 18 21  1  0  0  0  0
 18 19  2  0  0  0  0
 19 20  1  0  0  0  0
 20 17  1  0  0  0  0
 21 22  2  0  0  0  0
 22 20  1  0  0  0  0
 25 27  1  0  0  0  0
 26 21  1  0  0  0  0
 26 24  1  0  0  0  0
 27 24  1  0  0  0  0
 27 23  2  0  0  0  0
 28 26  2  0  0  0  0
 29  1  1  0  0  0  0
 30 29  1  0  0  0  0
 31 30  1  0  0  0  0
 32 31  2  0  0  0  0
 33 34  1  0  0  0  0
 33 31  1  0  0  0  0
 35 33  2  0  0  0  0
 36 33  1  0  0  0  0
M  END
>  <MODEL>
8

>  <REMARK>
 VINA RESULT:      -6.2      2.641      7.002
  Name = 
  12 active torsions:
  status: ('A' for Active; 'I' for Inactive)
    1  A    between atoms: P_1  and  C_7
    2  A    between atoms: C_2  and  C_5
    3  A    between atoms: C_2  and  C_22
    4  A    between atoms: N_3  and  O_19
    5  A    between atoms: C_4  and  C_30
    6  A    between atoms: C_7  and  C_24
    7  A    between atoms: C_10  and  C_21
    8  A    between atoms: C_10  and  C_30
    9  A    between atoms: C_13  and  C_25
   10  A    between atoms: C_22  and  N_23
   11  A    between atoms: C_24  and  C_26
   12  A    between atoms: C_26  and  C_29
                            x       y       z     vdW  Elec       q    Type
                         _______ _______ _______ _____ _____    ______ ____

>  <TORSDO>
F 12

$$$$
=
 OpenBabel11042418003D

 36 37  0  0  0  0  0  0  0  0999 V2000
  192.7540  175.3910  144.7960 C   0  0  0  0  0  3  0  0  0  0  0  0
  191.5700  174.7650  144.7890 C   0  0  0  0  0  0  0  0  0  0  0  0
  192.2730  172.5170  144.3100 N   0  0  0  0  0  0  0  0  0  0  0  0
  191.4520  173.4890  144.0360 C   0  0  0  0  0  0  0  0  0  0  0  0
  190.7990  173.8110  141.6210 C   0  0  0  0  0  0  0  0  0  0  0  0
  189.2350  172.7840  143.1640 C   0  0  0  0  0  3  0  0  0  0  0  0
  192.0470  174.3490  141.3330 O   0  0  0  0  0  1  0  0  0  0  0  0
  190.4880  173.3630  142.9190 C   0  0  0  0  0  0  0  0  0  0  0  0
  189.8520  173.6970  140.5970 C   0  0  0  0  0  3  0  0  0  0  0  0
  188.2970  172.6700  142.1370 C   0  0  0  0  0  3  0  0  0  0  0  0
  188.6020  173.1310  140.8550 C   0  0  0  0  0  3  0  0  0  0  0  0
  192.2800  171.3340  143.6020 O   0  0  0  0  0  0  0  0  0  0  0  0
  193.3600  171.0340  142.7350 C   0  0  0  0  0  1  0  0  0  0  0  0
  190.4470  175.3330  145.5680 C   0  0  0  0  0  3  0  0  0  0  0  0
  189.7040  174.6310  146.4160 C   0  0  0  0  0  3  0  0  0  0  0  0
  188.6080  175.2880  147.1820 C   0  0  0  0  0  2  0  0  0  0  0  0
  188.5440  176.7800  146.8900 C   0  0  0  0  0  2  0  0  0  0  0  0
  185.1860  177.7540  145.9360 C   0  0  0  0  0  3  0  0  0  0  0  0
  186.1460  177.4560  146.8880 C   0  0  0  0  0  3  0  0  0  0  0  0
  187.2830  177.1230  146.2480 N   0  0  0  0  0  0  0  0  0  0  0  0
  185.8500  177.5770  144.7310 C   0  0  0  0  0  0  0  0  0  0  0  0
  187.1220  177.1950  144.9420 N   0  0  0  0  0  0  0  0  0  0  0  0
  186.5080  177.5440  139.9550 O   0  0  0  0  0  0  0  0  0  0  0  0
  186.0820  177.5890  142.2380 N   0  0  0  0  0  2  0  0  0  0  0  0
  184.3400  178.3160  140.5120 C   0  0  0  0  0  1  0  0  0  0  0  0
  185.2720  177.7940  143.4010 C   0  0  0  0  0  0  0  0  0  0  0  0
  185.6880  177.7980  140.8760 C   0  0  0  0  0  0  0  0  0  0  0  0
  184.0640  178.1430  143.2950 O   0  0  0  0  0  0  0  0  0  0  0  0
  193.0120  176.6690  145.5210 C   0  0  0  0  0  2  0  0  0  0  0  0
  194.4980  176.9750  145.4840 C   0  0  0  0  0  2  0  0  0  0  0  0
  195.2830  175.7120  145.3560 C   0  0  0  0  0  0  0  0  0  0  0  0
  195.3230  174.9190  146.2830 O   0  0  0  0  0  0  0  0  0  0  0  0
  196.1990  175.3730  143.8550 P   0  0  0  0  0  0  0  0  0  0  0  0
  196.3440  176.7890  142.9410 O   0  0  0  0  0  0  0  0  0  0  0  0
  197.5770  174.8620  144.2080 O   0  0  0  0  0  1  0  0  0  0  0  0
  195.3790  174.2040  142.9490 O   0  0  0  0  0  1  0  0  0  0  0  0
  1 29  1  0  0  0  0
  2  1  2  0  0  0  0
  2 14  1  0  0  0  0
  4  3  2  0  0  0  0
  4  2  1  0  0  0  0
  5  8  1  0  0  0  0
  7  5  1  0  0  0  0
  8  6  2  0  0  0  0
  8  4  1  0  0  0  0
  9 11  1  0  0  0  0
  9  5  2  0  0  0  0
 10  6  1  0  0  0  0
 11 10  2  0  0  0  0
 12  3  1  0  0  0  0
 13 12  1  0  0  0  0
 14 15  2  0  0  0  0
 15 16  1  0  0  0  0
 17 16  1  0  0  0  0
 18 19  2  0  0  0  0
 20 19  1  0  0  0  0
 20 17  1  0  0  0  0
 21 22  2  0  0  0  0
 21 18  1  0  0  0  0
 22 20  1  0  0  0  0
 23 27  2  0  0  0  0
 24 26  1  0  0  0  0
 25 27  1  0  0  0  0
 26 21  1  0  0  0  0
 27 24  1  0  0  0  0
 28 26  2  0  0  0  0
 30 29  1  0  0  0  0
 31 30  1  0  0  0  0
 31 32  2  0  0  0  0
 33 35  1  0  0  0  0
 33 31  1  0  0  0  0
 34 33  2  0  0  0  0
 36 33  1  0  0  0  0
M  END
>  <MODEL>
9

>  <REMARK>
 VINA RESULT:      -6.1      2.707      8.046
  Name = 
  12 active torsions:
  status: ('A' for Active; 'I' for Inactive)
    1  A    between atoms: P_1  and  C_7
    2  A    between atoms: C_2  and  C_5
    3  A    between atoms: C_2  and  C_22
    4  A    between atoms: N_3  and  O_19
    5  A    between atoms: C_4  and  C_30
    6  A    between atoms: C_7  and  C_24
    7  A    between atoms: C_10  and  C_21
    8  A    between atoms: C_10  and  C_30
    9  A    between atoms: C_13  and  C_25
   10  A    between atoms: C_22  and  N_23
   11  A    between atoms: C_24  and  C_26
   12  A    between atoms: C_26  and  C_29
                            x       y       z     vdW  Elec       q    Type
                         _______ _______ _______ _____ _____    ______ ____

>  <TORSDO>
F 12

$$$$
