=
 OpenBabel11042417423D

 54 61  0  0  1  0  0  0  0  0999 V2000
  196.4060  173.8720  141.7810 C   0  0  0  0  0  0  0  0  0  0  0  0
  196.1340  173.9240  139.3570 C   0  0  0  0  0  3  0  0  0  0  0  0
  195.0170  173.7720  141.8870 C   0  0  0  0  0  0  0  0  0  0  0  0
  194.3050  173.7170  143.0210 N   0  0  0  0  0  2  0  0  0  0  0  0
  192.9020  173.6430  141.2240 C   0  0  0  0  0  3  0  0  0  0  0  0
  194.2060  173.7370  140.7790 C   0  0  0  0  0  0  0  0  0  0  0  0
  194.7290  173.8150  139.4710 C   0  0  0  0  0  0  0  0  0  0  0  0
  196.9620  173.9520  140.4960 C   0  0  0  0  0  3  0  0  0  0  0  0
  193.0160  173.6400  142.6160 C   0  0  0  0  0  0  0  0  0  0  0  0
  191.8690  173.5340  143.5490 C   0  0  0  0  0  0  0  0  0  0  0  0
  189.9770  175.3160  146.4820 C   0  0  2  0  0  3  0  0  0  0  0  0
  192.5380  175.5720  144.6330 O   0  0  0  0  0  0  0  0  0  0  0  0
  191.6240  174.5030  144.5580 C   0  0  0  0  0  0  0  0  0  0  0  0
  187.9280  176.7300  146.7260 C   0  0  0  0  0  0  0  0  0  0  0  0
  190.4790  174.3410  145.4140 C   0  0  0  0  0  0  0  0  0  0  0  0
  188.5010  175.6020  146.2810 C   0  0  0  0  0  3  0  0  0  0  0  0
  189.9710  172.2290  144.3020 C   0  0  0  0  0  3  0  0  0  0  0  0
  191.0380  172.4150  143.4360 C   0  0  0  0  0  3  0  0  0  0  0  0
  192.0760  176.2500  146.9890 C   0  0  0  0  0  2  0  0  0  0  0  0
  193.9350  177.1140  145.7160 C   0  0  0  0  0  2  0  0  0  0  0  0
  189.7020  173.1800  145.2760 C   0  0  0  0  0  3  0  0  0  0  0  0
  190.1620  177.3440  147.6990 C   0  0  0  0  0  2  0  0  0  0  0  0
  190.7260  176.5720  146.5940 N   0  0  2  0  0  0  0  0  0  0  0  0
  192.8910  176.3030  145.7660 C   0  0  0  0  0  0  0  0  0  0  0  0
  188.7650  177.8360  147.3250 C   0  0  0  0  0  2  0  0  0  0  0  0
  186.4670  176.9570  146.4470 C   0  0  1  0  0  3  0  0  0  0  0  0
  185.7810  177.3250  147.6070 O   0  0  0  0  0  1  0  0  0  0  0  0
  186.2800  177.9690  145.4140 N   0  0  0  0  0  0  0  0  0  0  0  0
  186.7780  178.1890  143.0360 C   0  0  0  0  0  3  0  0  0  0  0  0
  184.3490  178.3920  143.5860 N   0  0  0  0  0  2  0  0  0  0  0  0
  185.4170  179.1240  145.6890 C   0  0  0  0  0  2  0  0  0  0  0  0
  187.1680  177.9340  144.2900 C   0  0  0  0  0  2  0  0  0  0  0  0
  185.4150  178.4570  142.6700 N   0  0  0  0  0  0  0  0  0  0  0  0
  184.5150  179.5030  144.5100 C   0  0  0  0  0  2  0  0  0  0  0  0
  193.3310  172.6180  137.7390 C   0  0  0  0  0  3  0  0  0  0  0  0
  192.2820  173.8340  135.9270 C   0  0  0  0  0  3  0  0  0  0  0  0
  193.8870  173.8080  138.2410 C   0  0  0  0  0  0  0  0  0  0  0  0
  193.6300  175.0080  137.5570 C   0  0  0  0  0  3  0  0  0  0  0  0
  192.8330  175.0220  136.4090 C   0  0  0  0  0  3  0  0  0  0  0  0
  192.5340  172.6300  136.5910 C   0  0  0  0  0  3  0  0  0  0  0  0
  197.2440  173.9050  142.9430 N   0  0  0  0  0  0  0  0  0  0  0  0
  197.3200  175.0410  143.6920 O   0  0  0  0  0  0  0  0  0  0  0  0
  197.9160  176.0040  142.8650 C   0  0  0  0  0  2  0  0  0  0  0  0
  196.9830  177.0900  142.6310 N   0  0  0  0  0  1  0  0  0  0  0  0
  197.9410  172.6810  143.3560 C   0  0  0  0  0  2  0  0  0  0  0  0
  196.6190  170.3220  145.9780 C   0  0  0  0  0  2  0  0  0  0  0  0
  196.7180  172.7780  146.1320 C   0  0  0  0  0  1  0  0  0  0  0  0
  197.3890  169.1990  143.9640 C   0  0  0  0  0  0  0  0  0  0  0  0
  197.1050  170.4420  143.1630 C   0  0  1  0  0  3  0  0  0  0  0  0
  197.2840  171.5680  145.4100 C   0  0  2  0  0  3  0  0  0  0  0  0
  197.1590  169.1800  145.3370 O   0  0  0  0  0  0  0  0  0  0  0  0
  197.8170  168.1660  143.3890 O   0  0  0  0  0  0  0  0  0  0  0  0
  195.8090  170.2690  142.3870 C   0  0  0  0  0  1  0  0  0  0  0  0
  197.0370  171.6890  143.9580 N   0  0  0  0  0  0  0  0  0  0  0  0
  1  3  1  0  0  0  0
  1 41  1  0  0  0  0
  2  7  2  0  0  0  0
  2  8  1  0  0  0  0
  3  4  1  0  0  0  0
  5  9  2  0  0  0  0
  6  5  1  0  0  0  0
  6  3  2  0  0  0  0
  7  6  1  0  0  0  0
  8  1  2  0  0  0  0
  9  4  1  0  0  0  0
  9 10  1  0  0  0  0
 10 13  1  0  0  0  0
 11 16  1  6  0  0  0
 11 23  1  0  0  0  0
 12 24  1  0  0  0  0
 13 12  1  0  0  0  0
 13 15  2  0  0  0  0
 14 25  1  0  0  0  0
 15 11  1  0  0  0  0
 16 14  2  0  0  0  0
 17 21  2  0  0  0  0
 18 10  2  0  0  0  0
 18 17  1  0  0  0  0
 20 24  2  0  0  0  0
 21 15  1  0  0  0  0
 23 19  1  1  0  0  0
 23 22  1  0  0  0  0
 24 19  1  0  0  0  0
 25 22  1  0  0  0  0
 26 14  1  0  0  0  0
 26 27  1  1  0  0  0
 28 31  1  0  0  0  0
 28 26  1  0  0  0  0
 29 32  1  0  0  0  0
 30 34  1  0  0  0  0
 32 28  1  0  0  0  0
 33 29  2  0  0  0  0
 33 30  1  0  0  0  0
 34 31  1  0  0  0  0
 35 37  1  0  0  0  0
 36 39  2  0  0  0  0
 36 40  1  0  0  0  0
 37  7  1  0  0  0  0
 38 37  2  0  0  0  0
 39 38  1  0  0  0  0
 40 35  2  0  0  0  0
 41 45  1  0  0  0  0
 41 42  1  0  0  0  0
 43 42  1  0  0  0  0
 44 43  1  0  0  0  0
 45 54  1  0  0  0  0
 48 51  1  0  0  0  0
 49 53  1  1  0  0  0
 49 54  1  0  0  0  0
 49 48  1  0  0  0  0
 50 46  1  0  0  0  0
 50 47  1  1  0  0  0
 51 46  1  0  0  0  0
 52 48  2  0  0  0  0
 54 50  1  0  0  0  0
M  END
>  <MODEL>
1

>  <REMARK>
 VINA RESULT:      -8.1      0.000      0.000
  Name = 
  9 active torsions:
  status: ('A' for Active; 'I' for Inactive)
    1  A    between atoms: N_1  and  C_14
    2  A    between atoms: C_3  and  N_19
    3  A    between atoms: C_5  and  C_52
    4  A    between atoms: C_14  and  C_20
    5  A    between atoms: N_19  and  O_29
    6  A    between atoms: N_19  and  C_38
    7  A    between atoms: C_23  and  O_29
    8  A    between atoms: C_28  and  C_42
    9  A    between atoms: C_38  and  N_51
                            x       y       z     vdW  Elec       q    Type
                         _______ _______ _______ _____ _____    ______ ____

>  <TORSDO>
F 9

$$$$
=
 OpenBabel11042417423D

 54 61  0  0  1  0  0  0  0  0999 V2000
  195.5470  172.4610  139.4720 C   0  0  0  0  0  0  0  0  0  0  0  0
  195.1300  173.6210  137.3660 C   0  0  0  0  0  3  0  0  0  0  0  0
  194.2620  172.8320  139.8750 C   0  0  0  0  0  0  0  0  0  0  0  0
  193.6880  172.5650  141.0560 N   0  0  0  0  0  2  0  0  0  0  0  0
  192.2500  173.7620  139.7530 C   0  0  0  0  0  3  0  0  0  0  0  0
  193.4280  173.5600  139.0620 C   0  0  0  0  0  0  0  0  0  0  0  0
  193.8280  173.9870  137.7770 C   0  0  0  0  0  0  0  0  0  0  0  0
  195.9780  172.8690  138.2010 C   0  0  0  0  0  3  0  0  0  0  0  0
  192.4630  173.1340  140.9820 C   0  0  0  0  0  0  0  0  0  0  0  0
  191.4590  173.0650  142.0710 C   0  0  0  0  0  0  0  0  0  0  0  0
  190.1420  174.8510  145.3010 C   0  0  2  0  0  3  0  0  0  0  0  0
  192.4170  175.0130  143.1010 O   0  0  0  0  0  0  0  0  0  0  0  0
  191.4310  174.0080  143.1330 C   0  0  0  0  0  0  0  0  0  0  0  0
  188.2520  176.3810  145.8860 C   0  0  0  0  0  0  0  0  0  0  0  0
  190.4150  173.8870  144.1430 C   0  0  0  0  0  0  0  0  0  0  0  0
  188.6760  175.2370  145.3290 C   0  0  0  0  0  3  0  0  0  0  0  0
  189.6070  171.8550  143.0590 C   0  0  0  0  0  3  0  0  0  0  0  0
  190.5460  172.0060  142.0500 C   0  0  0  0  0  3  0  0  0  0  0  0
  192.3520  175.6290  145.5180 C   0  0  0  0  0  2  0  0  0  0  0  0
  194.0600  176.4210  144.0090 C   0  0  0  0  0  2  0  0  0  0  0  0
  189.5480  172.7840  144.0890 C   0  0  0  0  0  3  0  0  0  0  0  0
  190.6410  176.8140  146.5340 C   0  0  0  0  0  2  0  0  0  0  0  0
  190.9830  176.0510  145.3370 N   0  0  2  0  0  0  0  0  0  0  0  0
  192.9800  175.6770  144.1900 C   0  0  0  0  0  0  0  0  0  0  0  0
  189.2410  177.4080  146.3860 C   0  0  0  0  0  2  0  0  0  0  0  0
  186.7850  176.7110  145.8330 C   0  0  1  0  0  3  0  0  0  0  0  0
  186.2810  176.9880  147.1060 O   0  0  0  0  0  1  0  0  0  0  0  0
  186.5310  177.8350  144.9400 N   0  0  0  0  0  0  0  0  0  0  0  0
  186.6500  178.2560  142.5400 C   0  0  0  0  0  3  0  0  0  0  0  0
  184.3770  178.5990  143.5170 N   0  0  0  0  0  2  0  0  0  0  0  0
  185.8420  179.0220  145.4590 C   0  0  0  0  0  2  0  0  0  0  0  0
  187.2150  177.8430  143.6810 C   0  0  0  0  0  2  0  0  0  0  0  0
  185.2790  178.6700  142.4400 N   0  0  0  0  0  0  0  0  0  0  0  0
  184.7990  179.5920  144.4920 C   0  0  0  0  0  2  0  0  0  0  0  0
  193.3560  176.0850  136.4510 C   0  0  0  0  0  3  0  0  0  0  0  0
  191.3310  176.3030  135.1410 C   0  0  0  0  0  3  0  0  0  0  0  0
  192.9680  174.8010  136.8710 C   0  0  0  0  0  0  0  0  0  0  0  0
  191.7430  174.2880  136.4150 C   0  0  0  0  0  3  0  0  0  0  0  0
  190.9290  175.0320  135.5560 C   0  0  0  0  0  3  0  0  0  0  0  0
  192.5440  176.8310  135.5920 C   0  0  0  0  0  3  0  0  0  0  0  0
  196.4080  171.7000  140.3270 N   0  0  0  0  0  0  0  0  0  0  0  0
  196.2860  170.3440  140.3780 O   0  0  0  0  0  0  0  0  0  0  0  0
  196.3710  170.0040  141.7350 C   0  0  0  0  0  2  0  0  0  0  0  0
  195.0840  169.5190  142.1970 N   0  0  0  0  0  1  0  0  0  0  0  0
  197.4680  172.3900  141.0720 C   0  0  0  0  0  2  0  0  0  0  0  0
  197.4990  175.8370  142.5920 C   0  0  0  0  0  2  0  0  0  0  0  0
  197.4360  175.2940  140.1900 C   0  0  0  0  0  1  0  0  0  0  0  0
  197.5060  174.0500  144.2410 C   0  0  0  0  0  0  0  0  0  0  0  0
  196.8220  173.1390  143.2560 C   0  0  1  0  0  3  0  0  0  0  0  0
  197.7740  174.7470  141.5660 C   0  0  2  0  0  3  0  0  0  0  0  0
  197.8400  175.3530  143.8790 O   0  0  0  0  0  0  0  0  0  0  0  0
  197.7610  173.6420  145.4020 O   0  0  0  0  0  0  0  0  0  0  0  0
  195.3460  173.0260  143.6010 C   0  0  0  0  0  1  0  0  0  0  0  0
  196.9650  173.5410  141.8390 N   0  0  0  0  0  0  0  0  0  0  0  0
  1  3  1  0  0  0  0
  1 41  1  0  0  0  0
  2  7  2  0  0  0  0
  2  8  1  0  0  0  0
  3  4  1  0  0  0  0
  5  9  2  0  0  0  0
  6  5  1  0  0  0  0
  6  3  2  0  0  0  0
  7  6  1  0  0  0  0
  8  1  2  0  0  0  0
  9  4  1  0  0  0  0
  9 10  1  0  0  0  0
 10 13  1  0  0  0  0
 11 16  1  6  0  0  0
 11 23  1  0  0  0  0
 12 13  1  0  0  0  0
 12 24  1  0  0  0  0
 13 15  2  0  0  0  0
 14 25  1  0  0  0  0
 15 11  1  0  0  0  0
 16 14  2  0  0  0  0
 17 21  2  0  0  0  0
 18 10  2  0  0  0  0
 18 17  1  0  0  0  0
 20 24  2  0  0  0  0
 21 15  1  0  0  0  0
 23 19  1  1  0  0  0
 23 22  1  0  0  0  0
 24 19  1  0  0  0  0
 25 22  1  0  0  0  0
 26 14  1  0  0  0  0
 26 27  1  1  0  0  0
 28 31  1  0  0  0  0
 28 26  1  0  0  0  0
 29 32  1  0  0  0  0
 30 34  1  0  0  0  0
 32 28  1  0  0  0  0
 33 29  2  0  0  0  0
 33 30  1  0  0  0  0
 34 31  1  0  0  0  0
 35 37  1  0  0  0  0
 36 39  2  0  0  0  0
 36 40  1  0  0  0  0
 37  7  1  0  0  0  0
 38 37  2  0  0  0  0
 39 38  1  0  0  0  0
 40 35  2  0  0  0  0
 41 42  1  0  0  0  0
 41 45  1  0  0  0  0
 42 43  1  0  0  0  0
 43 44  1  0  0  0  0
 45 54  1  0  0  0  0
 46 51  1  0  0  0  0
 48 52  2  0  0  0  0
 49 53  1  1  0  0  0
 49 48  1  0  0  0  0
 50 47  1  6  0  0  0
 50 54  1  0  0  0  0
 50 46  1  0  0  0  0
 51 48  1  0  0  0  0
 54 49  1  0  0  0  0
M  END
>  <MODEL>
2

>  <REMARK>
 VINA RESULT:      -7.9      1.709      3.101
  Name = 
  9 active torsions:
  status: ('A' for Active; 'I' for Inactive)
    1  A    between atoms: N_1  and  C_14
    2  A    between atoms: C_3  and  N_19
    3  A    between atoms: C_5  and  C_52
    4  A    between atoms: C_14  and  C_20
    5  A    between atoms: N_19  and  O_29
    6  A    between atoms: N_19  and  C_38
    7  A    between atoms: C_23  and  O_29
    8  A    between atoms: C_28  and  C_42
    9  A    between atoms: C_38  and  N_51
                            x       y       z     vdW  Elec       q    Type
                         _______ _______ _______ _____ _____    ______ ____

>  <TORSDO>
F 9

$$$$
=
 OpenBabel11042417423D

 54 61  0  0  1  0  0  0  0  0999 V2000
  196.2440  173.5120  141.1870 C   0  0  0  0  0  0  0  0  0  0  0  0
  195.8230  174.1010  138.8570 C   0  0  0  0  0  3  0  0  0  0  0  0
  194.8670  173.6010  141.4080 C   0  0  0  0  0  0  0  0  0  0  0  0
  194.2340  173.4220  142.5750 N   0  0  0  0  0  2  0  0  0  0  0  0
  192.7210  173.9310  140.9450 C   0  0  0  0  0  3  0  0  0  0  0  0
  193.9900  173.9180  140.4000 C   0  0  0  0  0  0  0  0  0  0  0  0
  194.4310  174.1830  139.0860 C   0  0  0  0  0  0  0  0  0  0  0  0
  196.7180  173.7700  139.8920 C   0  0  0  0  0  3  0  0  0  0  0  0
  192.9260  173.6250  142.2930 C   0  0  0  0  0  0  0  0  0  0  0  0
  191.8410  173.5020  143.2970 C   0  0  0  0  0  0  0  0  0  0  0  0
  190.1390  175.2400  146.3690 C   0  0  2  0  0  3  0  0  0  0  0  0
  192.5740  175.5280  144.3620 O   0  0  0  0  0  0  0  0  0  0  0  0
  191.6600  174.4570  144.3320 C   0  0  0  0  0  0  0  0  0  0  0  0
  188.1070  176.6440  146.7650 C   0  0  0  0  0  0  0  0  0  0  0  0
  190.5740  174.2810  145.2570 C   0  0  0  0  0  0  0  0  0  0  0  0
  188.6530  175.5240  146.2680 C   0  0  0  0  0  3  0  0  0  0  0  0
  190.0000  172.1820  144.1530 C   0  0  0  0  0  3  0  0  0  0  0  0
  191.0070  172.3820  143.2220 C   0  0  0  0  0  3  0  0  0  0  0  0
  192.2650  176.1740  146.7510 C   0  0  0  0  0  2  0  0  0  0  0  0
  194.0350  177.0600  145.3730 C   0  0  0  0  0  2  0  0  0  0  0  0
  189.7920  173.1190  145.1560 C   0  0  0  0  0  3  0  0  0  0  0  0
  190.3990  177.2520  147.5980 C   0  0  0  0  0  2  0  0  0  0  0  0
  190.8910  176.4970  146.4490 N   0  0  2  0  0  0  0  0  0  0  0  0
  192.9980  176.2460  145.4790 C   0  0  0  0  0  0  0  0  0  0  0  0
  188.9790  177.7450  147.3230 C   0  0  0  0  0  2  0  0  0  0  0  0
  186.6310  176.8700  146.5830 C   0  0  1  0  0  3  0  0  0  0  0  0
  186.0250  177.2470  147.7840 O   0  0  0  0  0  1  0  0  0  0  0  0
  186.3740  177.8740  145.5580 N   0  0  0  0  0  0  0  0  0  0  0  0
  186.7600  178.0980  143.1600 C   0  0  0  0  0  3  0  0  0  0  0  0
  184.3540  178.2460  143.8170 N   0  0  0  0  0  2  0  0  0  0  0  0
  185.4980  179.0090  145.8680 C   0  0  0  0  0  2  0  0  0  0  0  0
  187.2120  177.8560  144.3960 C   0  0  0  0  0  2  0  0  0  0  0  0
  185.3760  178.3330  142.8540 N   0  0  0  0  0  0  0  0  0  0  0  0
  184.5350  179.3640  144.7310 C   0  0  0  0  0  2  0  0  0  0  0  0
  193.7400  175.7100  137.1950 C   0  0  0  0  0  3  0  0  0  0  0  0
  191.7900  175.2200  135.8460 C   0  0  0  0  0  3  0  0  0  0  0  0
  193.5190  174.5560  137.9670 C   0  0  0  0  0  0  0  0  0  0  0  0
  192.4120  173.7470  137.6610 C   0  0  0  0  0  3  0  0  0  0  0  0
  191.5530  174.0750  136.6080 C   0  0  0  0  0  3  0  0  0  0  0  0
  192.8820  176.0400  136.1420 C   0  0  0  0  0  3  0  0  0  0  0  0
  197.1500  173.1790  142.2450 N   0  0  0  0  0  0  0  0  0  0  0  0
  197.2210  173.9710  143.3520 O   0  0  0  0  0  0  0  0  0  0  0  0
  197.9410  175.1080  142.9610 C   0  0  0  0  0  2  0  0  0  0  0  0
  197.1850  176.3010  143.2930 N   0  0  0  0  0  1  0  0  0  0  0  0
  197.9290  171.9380  142.1550 C   0  0  0  0  0  2  0  0  0  0  0  0
  195.2040  169.3780  142.6220 C   0  0  0  0  0  2  0  0  0  0  0  0
  196.7170  169.5730  140.6870 C   0  0  0  0  0  1  0  0  0  0  0  0
  195.4220  170.9130  144.4940 C   0  0  0  0  0  0  0  0  0  0  0  0
  196.8730  171.1270  144.1490 C   0  0  1  0  0  3  0  0  0  0  0  0
  196.1400  170.3200  141.8780 C   0  0  2  0  0  3  0  0  0  0  0  0
  194.6320  170.0700  143.7170 O   0  0  0  0  0  0  0  0  0  0  0  0
  194.9250  171.4830  145.4980 O   0  0  0  0  0  0  0  0  0  0  0  0
  197.7500  170.3330  145.1040 C   0  0  0  0  0  1  0  0  0  0  0  0
  197.2340  170.7880  142.7550 N   0  0  0  0  0  0  0  0  0  0  0  0
  1  3  1  0  0  0  0
  1 41  1  0  0  0  0
  2  7  2  0  0  0  0
  2  8  1  0  0  0  0
  3  4  1  0  0  0  0
  5  9  2  0  0  0  0
  6  5  1  0  0  0  0
  6  3  2  0  0  0  0
  7  6  1  0  0  0  0
  8  1  2  0  0  0  0
  9  4  1  0  0  0  0
  9 10  1  0  0  0  0
 10 13  1  0  0  0  0
 11 16  1  6  0  0  0
 11 23  1  0  0  0  0
 12 24  1  0  0  0  0
 13 12  1  0  0  0  0
 13 15  2  0  0  0  0
 14 25  1  0  0  0  0
 15 11  1  0  0  0  0
 16 14  2  0  0  0  0
 17 21  2  0  0  0  0
 18 10  2  0  0  0  0
 18 17  1  0  0  0  0
 20 24  2  0  0  0  0
 21 15  1  0  0  0  0
 23 19  1  1  0  0  0
 23 22  1  0  0  0  0
 24 19  1  0  0  0  0
 25 22  1  0  0  0  0
 26 14  1  0  0  0  0
 26 27  1  1  0  0  0
 28 31  1  0  0  0  0
 28 26  1  0  0  0  0
 29 32  1  0  0  0  0
 30 34  1  0  0  0  0
 32 28  1  0  0  0  0
 33 29  2  0  0  0  0
 33 30  1  0  0  0  0
 34 31  1  0  0  0  0
 35 37  1  0  0  0  0
 36 40  1  0  0  0  0
 36 39  2  0  0  0  0
 37  7  1  0  0  0  0
 38 37  2  0  0  0  0
 39 38  1  0  0  0  0
 40 35  2  0  0  0  0
 41 42  1  0  0  0  0
 43 44  1  0  0  0  0
 43 42  1  0  0  0  0
 45 41  1  0  0  0  0
 45 54  1  0  0  0  0
 46 51  1  0  0  0  0
 48 52  2  0  0  0  0
 49 48  1  0  0  0  0
 49 53  1  1  0  0  0
 50 47  1  6  0  0  0
 50 46  1  0  0  0  0
 50 54  1  0  0  0  0
 51 48  1  0  0  0  0
 54 49  1  0  0  0  0
M  END
>  <MODEL>
3

>  <REMARK>
 VINA RESULT:      -7.9      1.049      1.754
  Name = 
  9 active torsions:
  status: ('A' for Active; 'I' for Inactive)
    1  A    between atoms: N_1  and  C_14
    2  A    between atoms: C_3  and  N_19
    3  A    between atoms: C_5  and  C_52
    4  A    between atoms: C_14  and  C_20
    5  A    between atoms: N_19  and  O_29
    6  A    between atoms: N_19  and  C_38
    7  A    between atoms: C_23  and  O_29
    8  A    between atoms: C_28  and  C_42
    9  A    between atoms: C_38  and  N_51
                            x       y       z     vdW  Elec       q    Type
                         _______ _______ _______ _____ _____    ______ ____

>  <TORSDO>
F 9

$$$$
=
 OpenBabel11042417423D

 54 61  0  0  1  0  0  0  0  0999 V2000
  190.9880  176.3360  144.4580 C   0  0  0  0  0  0  0  0  0  0  0  0
  189.1360  177.8510  143.9810 C   0  0  0  0  0  3  0  0  0  0  0  0
  190.4700  175.4750  143.4870 C   0  0  0  0  0  0  0  0  0  0  0  0
  190.9620  174.2790  143.1370 N   0  0  0  0  0  0  0  0  0  0  0  0
  189.0930  174.7320  141.9130 C   0  0  0  0  0  3  0  0  0  0  0  0
  189.3360  175.7820  142.7760 C   0  0  0  0  0  0  0  0  0  0  0  0
  188.6220  176.9790  142.9950 C   0  0  0  0  0  0  0  0  0  0  0  0
  190.3030  177.5350  144.7020 C   0  0  0  0  0  2  0  0  0  0  0  0
  190.1210  173.8260  142.1790 C   0  0  0  0  0  0  0  0  0  0  0  0
  190.2980  172.5310  141.4770 C   0  0  0  0  0  0  0  0  0  0  0  0
  190.1340  170.7560  137.9880 C   0  0  2  0  0  3  0  0  0  0  0  0
  189.5900  173.5340  139.4110 O   0  0  0  0  0  0  0  0  0  0  0  0
  190.0370  172.3830  140.0890 C   0  0  0  0  0  0  0  0  0  0  0  0
  191.7690  170.0560  136.2290 C   0  0  0  0  0  0  0  0  0  0  0  0
  190.2500  171.1010  139.4750 C   0  0  0  0  0  0  0  0  0  0  0  0
  191.3860  170.0430  137.5140 C   0  0  0  0  0  3  0  0  0  0  0  0
  190.8440  170.1780  141.6550 C   0  0  0  0  0  3  0  0  0  0  0  0
  190.7000  171.4280  142.2370 C   0  0  0  0  0  3  0  0  0  0  0  0
  188.5240  172.3910  137.4660 C   0  0  0  0  0  2  0  0  0  0  0  0
  188.2440  174.7440  137.9180 C   0  0  0  0  0  2  0  0  0  0  0  0
  190.6190  170.0210  140.2940 C   0  0  0  0  0  3  0  0  0  0  0  0
  189.6800  171.3650  135.7410 C   0  0  0  0  0  2  0  0  0  0  0  0
  189.8240  171.8810  137.1000 N   0  0  2  0  0  0  0  0  0  0  0  0
  188.7640  173.5850  138.2900 C   0  0  0  0  0  0  0  0  0  0  0  0
  191.0390  170.9070  135.2150 C   0  0  0  0  0  2  0  0  0  0  0  0
  193.0490  169.3620  135.8490 C   0  0  1  0  0  3  0  0  0  0  0  0
  193.0260  168.9540  134.5130 O   0  0  0  0  0  1  0  0  0  0  0  0
  194.2030  170.2190  136.0890 N   0  0  0  0  0  0  0  0  0  0  0  0
  195.1590  172.2280  135.0890 C   0  0  0  0  0  3  0  0  0  0  0  0
  194.5440  172.4890  137.4960 N   0  0  0  0  0  2  0  0  0  0  0  0
  194.9670  170.0620  137.3320 C   0  0  0  0  0  2  0  0  0  0  0  0
  194.7040  170.9740  134.9800 C   0  0  0  0  0  3  0  0  0  0  0  0
  195.1310  172.9770  136.3140 N   0  0  0  0  0  2  0  0  0  0  0  0
  195.3780  171.3950  137.9660 C   0  0  0  0  0  2  0  0  0  0  0  0
  187.3490  177.4650  140.8660 C   0  0  0  0  0  3  0  0  0  0  0  0
  184.9910  178.0080  140.9200 C   0  0  0  0  0  3  0  0  0  0  0  0
  187.3720  177.3430  142.2660 C   0  0  0  0  0  0  0  0  0  0  0  0
  186.1830  177.5680  142.9780 C   0  0  0  0  0  3  0  0  0  0  0  0
  184.9990  177.8980  142.3120 C   0  0  0  0  0  3  0  0  0  0  0  0
  186.1670  177.7950  140.1970 C   0  0  0  0  0  3  0  0  0  0  0  0
  192.1730  176.0070  145.1930 N   0  0  0  0  0  0  0  0  0  0  0  0
  192.1350  175.0240  146.1360 O   0  0  0  0  0  0  0  0  0  0  0  0
  192.0380  175.6820  147.3690 C   0  0  0  0  0  2  0  0  0  0  0  0
  190.7840  175.3340  148.0100 N   0  0  0  0  0  1  0  0  0  0  0  0
  193.4330  176.6790  144.8550 C   0  0  0  0  0  2  0  0  0  0  0  0
  196.7400  175.0500  144.0810 C   0  0  0  0  0  2  0  0  0  0  0  0
  195.4140  174.7710  146.1380 C   0  0  0  0  0  1  0  0  0  0  0  0
  195.9130  176.4660  142.2850 C   0  0  0  0  0  0  0  0  0  0  0  0
  194.5020  176.2350  142.7540 C   0  0  1  0  0  3  0  0  0  0  0  0
  195.6370  175.6650  144.9300 C   0  0  2  0  0  3  0  0  0  0  0  0
  196.9830  175.8900  142.9660 O   0  0  0  0  0  0  0  0  0  0  0  0
  196.1290  177.1660  141.2640 O   0  0  0  0  0  0  0  0  0  0  0  0
  193.8180  175.2240  141.8490 C   0  0  0  0  0  1  0  0  0  0  0  0
  194.3810  175.7930  144.1620 N   0  0  0  0  0  0  0  0  0  0  0  0
  1  8  1  0  0  0  0
  1 41  1  0  0  0  0
  2  8  1  0  0  0  0
  3  1  2  0  0  0  0
  4  3  1  0  0  0  0
  5  9  1  0  0  0  0
  5  6  2  0  0  0  0
  6  7  1  0  0  0  0
  6  3  1  0  0  0  0
  7  2  2  0  0  0  0
  9  4  2  0  0  0  0
 10  9  1  0  0  0  0
 10 18  1  0  0  0  0
 11 16  1  6  0  0  0
 11 15  1  0  0  0  0
 12 13  1  0  0  0  0
 13 10  2  0  0  0  0
 14 16  2  0  0  0  0
 15 13  1  0  0  0  0
 15 21  2  0  0  0  0
 17 18  2  0  0  0  0
 19 24  1  0  0  0  0
 20 24  2  0  0  0  0
 21 17  1  0  0  0  0
 23 22  1  6  0  0  0
 23 19  1  0  0  0  0
 23 11  1  0  0  0  0
 24 12  1  0  0  0  0
 25 22  1  0  0  0  0
 25 14  1  0  0  0  0
 26 27  1  6  0  0  0
 26 28  1  0  0  0  0
 26 14  1  0  0  0  0
 28 31  1  0  0  0  0
 29 33  1  0  0  0  0
 30 34  1  0  0  0  0
 31 34  1  0  0  0  0
 32 29  2  0  0  0  0
 32 28  1  0  0  0  0
 33 30  1  0  0  0  0
 35 37  1  0  0  0  0
 36 39  2  0  0  0  0
 37 38  2  0  0  0  0
 37  7  1  0  0  0  0
 39 38  1  0  0  0  0
 40 35  2  0  0  0  0
 40 36  1  0  0  0  0
 41 42  1  0  0  0  0
 42 43  1  0  0  0  0
 43 44  1  0  0  0  0
 45 41  1  0  0  0  0
 46 50  1  0  0  0  0
 48 49  1  0  0  0  0
 48 51  1  0  0  0  0
 49 53  1  6  0  0  0
 49 54  1  0  0  0  0
 50 47  1  1  0  0  0
 51 46  1  0  0  0  0
 52 48  2  0  0  0  0
 54 45  1  0  0  0  0
 54 50  1  0  0  0  0
M  END
>  <MODEL>
4

>  <REMARK>
 VINA RESULT:      -7.8      3.636      9.299
  Name = 
  9 active torsions:
  status: ('A' for Active; 'I' for Inactive)
    1  A    between atoms: N_1  and  C_14
    2  A    between atoms: C_3  and  N_19
    3  A    between atoms: C_5  and  C_52
    4  A    between atoms: C_14  and  C_20
    5  A    between atoms: N_19  and  O_29
    6  A    between atoms: N_19  and  C_38
    7  A    between atoms: C_23  and  O_29
    8  A    between atoms: C_28  and  C_42
    9  A    between atoms: C_38  and  N_51
                            x       y       z     vdW  Elec       q    Type
                         _______ _______ _______ _____ _____    ______ ____

>  <TORSDO>
F 9

$$$$
=
 OpenBabel11042417423D

 54 61  0  0  1  0  0  0  0  0999 V2000
  188.7270  176.4100  143.0740 C   0  0  0  0  0  0  0  0  0  0  0  0
  190.6530  177.5430  144.0530 C   0  0  0  0  0  3  0  0  0  0  0  0
  189.5800  175.3580  142.7330 C   0  0  0  0  0  0  0  0  0  0  0  0
  189.2450  174.2420  142.0710 N   0  0  0  0  0  0  0  0  0  0  0  0
  191.4710  174.2070  142.5650 C   0  0  0  0  0  3  0  0  0  0  0  0
  190.9180  175.3790  143.0420 C   0  0  0  0  0  0  0  0  0  0  0  0
  191.5100  176.4710  143.7120 C   0  0  0  0  0  0  0  0  0  0  0  0
  189.2810  177.5130  143.7400 C   0  0  0  0  0  2  0  0  0  0  0  0
  190.3980  173.5410  141.9680 C   0  0  0  0  0  0  0  0  0  0  0  0
  190.4940  172.2100  141.3220 C   0  0  0  0  0  0  0  0  0  0  0  0
  190.3620  170.3200  137.8920 C   0  0  2  0  0  3  0  0  0  0  0  0
  189.9970  173.1900  139.1850 O   0  0  0  0  0  0  0  0  0  0  0  0
  190.2980  172.0310  139.9270 C   0  0  0  0  0  0  0  0  0  0  0  0
  192.0220  169.4080  136.2570 C   0  0  0  0  0  0  0  0  0  0  0  0
  190.4260  170.7120  139.3710 C   0  0  0  0  0  0  0  0  0  0  0  0
  191.5680  169.4800  137.5180 C   0  0  0  0  0  3  0  0  0  0  0  0
  190.8110  169.8260  141.6120 C   0  0  0  0  0  3  0  0  0  0  0  0
  190.7500  171.1060  142.1410 C   0  0  0  0  0  3  0  0  0  0  0  0
  188.9410  172.0720  137.2210 C   0  0  0  0  0  2  0  0  0  0  0  0
  188.8540  174.4560  137.5750 C   0  0  0  0  0  2  0  0  0  0  0  0
  190.6480  169.6370  140.2470 C   0  0  0  0  0  3  0  0  0  0  0  0
  190.0920  170.8790  135.6030 C   0  0  0  0  0  2  0  0  0  0  0  0
  190.2070  171.4330  136.9490 N   0  0  2  0  0  0  0  0  0  0  0  0
  189.2430  173.2710  138.0160 C   0  0  0  0  0  0  0  0  0  0  0  0
  191.4300  170.2810  135.1740 C   0  0  0  0  0  2  0  0  0  0  0  0
  193.2510  168.5870  135.9780 C   0  0  1  0  0  3  0  0  0  0  0  0
  193.3710  168.3040  134.6150 O   0  0  0  0  0  1  0  0  0  0  0  0
  194.4530  169.2610  136.4550 N   0  0  0  0  0  0  0  0  0  0  0  0
  195.6230  171.3480  135.9810 C   0  0  0  0  0  3  0  0  0  0  0  0
  194.8840  171.1180  138.3560 N   0  0  0  0  0  2  0  0  0  0  0  0
  195.1250  168.7610  137.6600 C   0  0  0  0  0  2  0  0  0  0  0  0
  195.0780  170.1970  135.5690 C   0  0  0  0  0  3  0  0  0  0  0  0
  195.5790  171.8020  137.3430 N   0  0  0  0  0  2  0  0  0  0  0  0
  195.6000  169.8750  138.5980 C   0  0  0  0  0  2  0  0  0  0  0  0
  193.4000  176.9090  145.3310 C   0  0  0  0  0  3  0  0  0  0  0  0
  195.7090  176.6670  144.6460 C   0  0  0  0  0  3  0  0  0  0  0  0
  192.9610  176.5500  144.0440 C   0  0  0  0  0  0  0  0  0  0  0  0
  193.9250  176.2590  143.0650 C   0  0  0  0  0  3  0  0  0  0  0  0
  195.2890  176.3170  143.3620 C   0  0  0  0  0  3  0  0  0  0  0  0
  194.7640  176.9670  145.6300 C   0  0  0  0  0  3  0  0  0  0  0  0
  187.3330  176.3780  142.7480 N   0  0  0  0  0  0  0  0  0  0  0  0
  186.9390  176.4390  141.4450 O   0  0  0  0  0  0  0  0  0  0  0  0
  186.9870  177.7960  141.0960 C   0  0  0  0  0  2  0  0  0  0  0  0
  185.6770  178.2320  140.6520 N   0  0  0  0  0  1  0  0  0  0  0  0
  186.3520  176.1910  143.8240 C   0  0  0  0  0  2  0  0  0  0  0  0
  186.1910  177.7270  147.2600 C   0  0  0  0  0  2  0  0  0  0  0  0
  187.8540  176.0950  146.4600 C   0  0  0  0  0  1  0  0  0  0  0  0
  184.4540  178.5270  145.7590 C   0  0  0  0  0  0  0  0  0  0  0  0
  185.3390  178.2300  144.5780 C   0  0  1  0  0  3  0  0  0  0  0  0
  186.4720  176.6710  146.2000 C   0  0  2  0  0  3  0  0  0  0  0  0
  184.8920  178.2520  147.0520 O   0  0  0  0  0  0  0  0  0  0  0  0
  183.3220  179.0440  145.5810 O   0  0  0  0  0  0  0  0  0  0  0  0
  185.9490  179.5210  144.0550 C   0  0  0  0  0  1  0  0  0  0  0  0
  186.4170  177.2510  144.8420 N   0  0  0  0  0  0  0  0  0  0  0  0
  1  8  1  0  0  0  0
  3  6  1  0  0  0  0
  3  1  2  0  0  0  0
  4  3  1  0  0  0  0
  5  6  2  0  0  0  0
  6  7  1  0  0  0  0
  7 37  1  0  0  0  0
  7  2  2  0  0  0  0
  8  2  1  0  0  0  0
  9  4  2  0  0  0  0
  9  5  1  0  0  0  0
 10  9  1  0  0  0  0
 10 18  1  0  0  0  0
 11 16  1  6  0  0  0
 11 15  1  0  0  0  0
 12 13  1  0  0  0  0
 13 10  2  0  0  0  0
 14 16  2  0  0  0  0
 15 13  1  0  0  0  0
 15 21  2  0  0  0  0
 17 18  2  0  0  0  0
 19 24  1  0  0  0  0
 20 24  2  0  0  0  0
 21 17  1  0  0  0  0
 23 22  1  6  0  0  0
 23 19  1  0  0  0  0
 23 11  1  0  0  0  0
 24 12  1  0  0  0  0
 25 22  1  0  0  0  0
 25 14  1  0  0  0  0
 26 27  1  6  0  0  0
 26 14  1  0  0  0  0
 26 28  1  0  0  0  0
 28 31  1  0  0  0  0
 29 33  1  0  0  0  0
 30 34  1  0  0  0  0
 31 34  1  0  0  0  0
 32 29  2  0  0  0  0
 32 28  1  0  0  0  0
 33 30  1  0  0  0  0
 35 40  1  0  0  0  0
 36 40  2  0  0  0  0
 37 35  2  0  0  0  0
 38 39  2  0  0  0  0
 38 37  1  0  0  0  0
 39 36  1  0  0  0  0
 41  1  1  0  0  0  0
 41 45  1  0  0  0  0
 42 41  1  0  0  0  0
 43 42  1  0  0  0  0
 44 43  1  0  0  0  0
 45 54  1  0  0  0  0
 48 51  1  0  0  0  0
 49 53  1  1  0  0  0
 49 54  1  0  0  0  0
 49 48  1  0  0  0  0
 50 47  1  1  0  0  0
 50 46  1  0  0  0  0
 51 46  1  0  0  0  0
 52 48  2  0  0  0  0
 54 50  1  0  0  0  0
M  END
>  <MODEL>
5

>  <REMARK>
 VINA RESULT:      -7.8      4.176     11.016
  Name = 
  9 active torsions:
  status: ('A' for Active; 'I' for Inactive)
    1  A    between atoms: N_1  and  C_14
    2  A    between atoms: C_3  and  N_19
    3  A    between atoms: C_5  and  C_52
    4  A    between atoms: C_14  and  C_20
    5  A    between atoms: N_19  and  O_29
    6  A    between atoms: N_19  and  C_38
    7  A    between atoms: C_23  and  O_29
    8  A    between atoms: C_28  and  C_42
    9  A    between atoms: C_38  and  N_51
                            x       y       z     vdW  Elec       q    Type
                         _______ _______ _______ _____ _____    ______ ____

>  <TORSDO>
F 9

$$$$
=
 OpenBabel11042417423D

 54 61  0  0  1  0  0  0  0  0999 V2000
  192.5100  174.6260  145.2230 C   0  0  0  0  0  0  0  0  0  0  0  0
  190.8360  175.8730  146.4870 C   0  0  0  0  0  3  0  0  0  0  0  0
  191.6250  174.6300  144.1420 C   0  0  0  0  0  0  0  0  0  0  0  0
  191.8250  174.0580  142.9470 N   0  0  0  0  0  0  0  0  0  0  0  0
  189.7750  175.0560  142.9920 C   0  0  0  0  0  3  0  0  0  0  0  0
  190.3950  175.2370  144.2130 C   0  0  0  0  0  0  0  0  0  0  0  0
  189.9490  175.8800  145.3870 C   0  0  0  0  0  0  0  0  0  0  0  0
  192.0990  175.2560  146.4070 C   0  0  0  0  0  2  0  0  0  0  0  0
  190.6960  174.3160  142.2470 C   0  0  0  0  0  0  0  0  0  0  0  0
  190.4840  173.8870  140.8440 C   0  0  0  0  0  0  0  0  0  0  0  0
  192.2700  173.1970  137.4240 C   0  0  2  0  0  3  0  0  0  0  0  0
  192.8080  174.2630  140.3590 O   0  0  0  0  0  0  0  0  0  0  0  0
  191.5420  173.8550  139.8960 C   0  0  0  0  0  0  0  0  0  0  0  0
  193.0990  171.1900  136.1820 C   0  0  0  0  0  0  0  0  0  0  0  0
  191.2630  173.4090  138.5580 C   0  0  0  0  0  0  0  0  0  0  0  0
  192.0990  171.8160  136.8210 C   0  0  0  0  0  3  0  0  0  0  0  0
  188.9070  173.1740  139.1490 C   0  0  0  0  0  3  0  0  0  0  0  0
  189.1850  173.5430  140.4560 C   0  0  0  0  0  3  0  0  0  0  0  0
  193.8180  174.8140  138.1460 C   0  0  0  0  0  2  0  0  0  0  0  0
  194.8610  175.3920  140.2440 C   0  0  0  0  0  2  0  0  0  0  0  0
  189.9340  173.1110  138.2170 C   0  0  0  0  0  3  0  0  0  0  0  0
  194.4810  173.2530  136.5700 C   0  0  0  0  0  2  0  0  0  0  0  0
  193.6750  173.4270  137.7750 N   0  0  2  0  0  0  0  0  0  0  0  0
  193.8290  174.8520  139.6160 C   0  0  0  0  0  0  0  0  0  0  0  0
  194.4900  171.7810  136.1620 C   0  0  0  0  0  2  0  0  0  0  0  0
  192.8610  169.8030  135.6510 C   0  0  1  0  0  3  0  0  0  0  0  0
  193.9920  169.3110  134.9940 O   0  0  0  0  0  1  0  0  0  0  0  0
  192.4690  168.8910  136.7190 N   0  0  0  0  0  0  0  0  0  0  0  0
  193.2720  168.3250  138.9520 C   0  0  0  0  0  3  0  0  0  0  0  0
  190.9260  169.1800  138.9060 N   0  0  0  0  0  2  0  0  0  0  0  0
  191.1670  168.2170  136.6460 C   0  0  0  0  0  2  0  0  0  0  0  0
  193.4870  168.4800  137.6400 C   0  0  0  0  0  3  0  0  0  0  0  0
  192.0200  168.6200  139.5900 N   0  0  0  0  0  2  0  0  0  0  0  0
  190.4320  168.1660  137.9880 C   0  0  0  0  0  2  0  0  0  0  0  0
  187.7150  176.1560  146.5340 C   0  0  0  0  0  3  0  0  0  0  0  0
  186.1050  177.7870  145.7530 C   0  0  0  0  0  3  0  0  0  0  0  0
  188.6130  176.5280  145.5180 C   0  0  0  0  0  0  0  0  0  0  0  0
  188.2270  177.5350  144.6190 C   0  0  0  0  0  3  0  0  0  0  0  0
  186.9830  178.1620  144.7340 C   0  0  0  0  0  3  0  0  0  0  0  0
  186.4700  176.7810  146.6510 C   0  0  0  0  0  3  0  0  0  0  0  0
  193.7910  173.9920  145.1390 N   0  0  0  0  0  0  0  0  0  0  0  0
  194.9030  174.7410  144.8940 O   0  0  0  0  0  0  0  0  0  0  0  0
  195.7600  174.5170  145.9800 C   0  0  0  0  0  2  0  0  0  0  0  0
  197.0830  174.1710  145.4950 N   0  0  0  0  0  1  0  0  0  0  0  0
  193.8950  172.5520  145.4040 C   0  0  0  0  0  2  0  0  0  0  0  0
  193.2850  169.5810  143.1700 C   0  0  0  0  0  2  0  0  0  0  0  0
  191.5730  171.0750  144.1230 C   0  0  0  0  0  1  0  0  0  0  0  0
  195.6390  169.9890  143.6180 C   0  0  0  0  0  0  0  0  0  0  0  0
  195.3430  171.4480  143.8440 C   0  0  1  0  0  3  0  0  0  0  0  0
  193.0090  170.5990  144.2680 C   0  0  2  0  0  3  0  0  0  0  0  0
  194.6110  169.1020  143.3110 O   0  0  0  0  0  0  0  0  0  0  0  0
  196.8220  169.5700  143.6890 O   0  0  0  0  0  0  0  0  0  0  0  0
  195.7590  172.2510  142.6220 C   0  0  0  0  0  1  0  0  0  0  0  0
  193.9310  171.7500  144.1710 N   0  0  0  0  0  0  0  0  0  0  0  0
  1  8  1  0  0  0  0
  3  6  1  0  0  0  0
  3  1  2  0  0  0  0
  4  3  1  0  0  0  0
  5  6  2  0  0  0  0
  6  7  1  0  0  0  0
  7 37  1  0  0  0  0
  7  2  2  0  0  0  0
  8  2  1  0  0  0  0
  9  4  2  0  0  0  0
  9  5  1  0  0  0  0
 10  9  1  0  0  0  0
 11 16  1  1  0  0  0
 11 23  1  0  0  0  0
 11 15  1  0  0  0  0
 13 12  1  0  0  0  0
 13 10  2  0  0  0  0
 14 16  2  0  0  0  0
 15 13  1  0  0  0  0
 17 18  2  0  0  0  0
 18 10  1  0  0  0  0
 19 24  1  0  0  0  0
 21 15  2  0  0  0  0
 21 17  1  0  0  0  0
 23 22  1  6  0  0  0
 23 19  1  0  0  0  0
 24 20  2  0  0  0  0
 24 12  1  0  0  0  0
 25 14  1  0  0  0  0
 25 22  1  0  0  0  0
 26 27  1  1  0  0  0
 26 14  1  0  0  0  0
 26 28  1  0  0  0  0
 28 32  1  0  0  0  0
 29 33  1  0  0  0  0
 30 33  1  0  0  0  0
 31 28  1  0  0  0  0
 31 34  1  0  0  0  0
 32 29  2  0  0  0  0
 34 30  1  0  0  0  0
 35 40  1  0  0  0  0
 36 40  2  0  0  0  0
 37 35  2  0  0  0  0
 38 39  2  0  0  0  0
 38 37  1  0  0  0  0
 39 36  1  0  0  0  0
 41  1  1  0  0  0  0
 41 45  1  0  0  0  0
 42 41  1  0  0  0  0
 42 43  1  0  0  0  0
 44 43  1  0  0  0  0
 46 51  1  0  0  0  0
 46 50  1  0  0  0  0
 48 52  2  0  0  0  0
 48 49  1  0  0  0  0
 49 53  1  6  0  0  0
 49 54  1  0  0  0  0
 50 47  1  6  0  0  0
 51 48  1  0  0  0  0
 54 50  1  0  0  0  0
 54 45  1  0  0  0  0
M  END
>  <MODEL>
6

>  <REMARK>
 VINA RESULT:      -7.3      3.240      8.765
  Name = 
  9 active torsions:
  status: ('A' for Active; 'I' for Inactive)
    1  A    between atoms: N_1  and  C_14
    2  A    between atoms: C_3  and  N_19
    3  A    between atoms: C_5  and  C_52
    4  A    between atoms: C_14  and  C_20
    5  A    between atoms: N_19  and  O_29
    6  A    between atoms: N_19  and  C_38
    7  A    between atoms: C_23  and  O_29
    8  A    between atoms: C_28  and  C_42
    9  A    between atoms: C_38  and  N_51
                            x       y       z     vdW  Elec       q    Type
                         _______ _______ _______ _____ _____    ______ ____

>  <TORSDO>
F 9

$$$$
=
 OpenBabel11042417423D

 54 61  0  0  1  0  0  0  0  0999 V2000
  194.6020  170.8070  140.1370 C   0  0  0  0  0  0  0  0  0  0  0  0
  195.2980  169.2150  141.8500 C   0  0  0  0  0  3  0  0  0  0  0  0
  194.1530  171.6410  141.1640 C   0  0  0  0  0  0  0  0  0  0  0  0
  193.5530  172.8300  141.0190 N   0  0  0  0  0  0  0  0  0  0  0  0
  193.7340  172.3210  143.2340 C   0  0  0  0  0  3  0  0  0  0  0  0
  194.2740  171.2940  142.4870 C   0  0  1  0  0  3  0  0  0  0  0  0
  194.8480  170.0670  142.8840 C   0  0  0  0  0  0  0  0  0  0  0  0
  195.1770  169.5790  140.4960 C   0  0  0  0  0  3  0  0  0  0  0  0
  193.2950  173.2430  142.2820 C   0  0  0  0  0  0  0  0  0  0  0  0
  192.6520  174.5390  142.6060 C   0  0  0  0  0  0  0  0  0  0  0  0
  189.2330  176.4510  142.7330 C   0  0  2  0  0  3  0  0  0  0  0  0
  190.5270  173.6880  141.8760 O   0  0  0  0  0  0  0  0  0  0  0  0
  191.2640  174.7640  142.4080 C   0  0  0  0  0  0  0  0  0  0  0  0
  187.5540  177.0530  144.4870 C   0  0  0  0  0  0  0  0  0  0  0  0
  190.7080  176.0410  142.7640 C   0  0  0  0  0  0  0  0  0  0  0  0
  188.8270  177.0550  144.0630 C   0  0  0  0  0  3  0  0  0  0  0  0
  192.9410  176.8200  143.3690 C   0  0  0  0  0  3  0  0  0  0  0  0
  193.4670  175.5690  143.0860 C   0  0  0  0  0  3  0  0  0  0  0  0
  188.5970  175.0000  140.9930 C   0  0  0  0  0  2  0  0  0  0  0  0
  188.9460  172.6700  140.4730 C   0  0  0  0  0  2  0  0  0  0  0  0
  191.5810  177.0480  143.2060 C   0  0  0  0  0  3  0  0  0  0  0  0
  186.9510  175.9720  142.3000 C   0  0  0  0  0  2  0  0  0  0  0  0
  188.2920  175.3950  142.3470 N   0  0  2  0  0  0  0  0  0  0  0  0
  189.3790  173.7580  141.0880 C   0  0  0  0  0  0  0  0  0  0  0  0
  186.4860  176.3150  143.7140 C   0  0  0  0  0  2  0  0  0  0  0  0
  187.2420  177.6330  145.8390 C   0  0  1  0  0  3  0  0  0  0  0  0
  185.9160  177.3860  146.2020 O   0  0  0  0  0  1  0  0  0  0  0  0
  188.1440  177.1080  146.8580 N   0  0  0  0  0  0  0  0  0  0  0  0
  188.9830  174.9170  147.5240 C   0  0  0  0  0  3  0  0  0  0  0  0
  190.7730  176.5280  146.8590 N   0  0  0  0  0  2  0  0  0  0  0  0
  188.9780  178.0390  147.6270 C   0  0  0  0  0  2  0  0  0  0  0  0
  187.9660  175.7430  147.2540 C   0  0  0  0  0  3  0  0  0  0  0  0
  190.3640  175.2870  147.3800 N   0  0  0  0  0  2  0  0  0  0  0  0
  190.4110  177.5410  147.8380 C   0  0  0  0  0  2  0  0  0  0  0  0
  194.0400  168.7700  144.8970 C   0  0  0  0  0  3  0  0  0  0  0  0
  195.2600  168.8240  146.9870 C   0  0  0  0  0  3  0  0  0  0  0  0
  194.9760  169.6360  144.3060 C   0  0  0  0  0  0  0  0  0  0  0  0
  196.0510  170.0930  145.0860 C   0  0  0  0  0  3  0  0  0  0  0  0
  196.1940  169.6910  146.4170 C   0  0  0  0  0  3  0  0  0  0  0  0
  194.1800  168.3660  146.2270 C   0  0  0  0  0  3  0  0  0  0  0  0
  194.4730  171.1790  138.7600 N   0  0  0  0  0  0  0  0  0  0  0  0
  195.2720  172.1530  138.2430 O   0  0  0  0  0  0  0  0  0  0  0  0
  195.8230  171.6140  137.0720 C   0  0  0  0  0  2  0  0  0  0  0  0
  197.0880  170.9750  137.3780 N   0  0  0  0  0  1  0  0  0  0  0  0
  193.5350  170.4410  137.9050 C   0  0  0  0  0  2  0  0  0  0  0  0
  189.7950  170.0240  138.0750 C   0  0  0  0  0  2  0  0  0  0  0  0
  191.4600  168.9200  139.5170 C   0  0  0  0  0  1  0  0  0  0  0  0
  190.5180  171.5880  136.3610 C   0  0  0  0  0  0  0  0  0  0  0  0
  191.7680  171.8760  137.1510 C   0  0  1  0  0  3  0  0  0  0  0  0
  191.2620  169.6380  138.1920 C   0  0  2  0  0  3  0  0  0  0  0  0
  189.5860  170.6660  136.8300 O   0  0  0  0  0  0  0  0  0  0  0  0
  190.3040  172.1970  135.2820 O   0  0  0  0  0  0  0  0  0  0  0  0
  191.6280  173.2100  137.8660 C   0  0  0  0  0  1  0  0  0  0  0  0
  192.1340  170.8300  138.1320 N   0  0  0  0  0  0  0  0  0  0  0  0
  1  8  2  0  0  0  0
  1  3  1  0  0  0  0
  2  7  2  0  0  0  0
  3  6  1  0  0  0  0
  4  3  2  0  0  0  0
  4  9  1  0  0  0  0
  6  7  1  0  0  0  0
  6  5  1  6  0  0  0
  7 37  1  0  0  0  0
  8  2  1  0  0  0  0
  9 10  1  0  0  0  0
  9  5  2  0  0  0  0
 10 18  1  0  0  0  0
 11 15  1  0  0  0  0
 11 16  1  1  0  0  0
 12 13  1  0  0  0  0
 13 10  2  0  0  0  0
 13 15  1  0  0  0  0
 14 26  1  0  0  0  0
 15 21  2  0  0  0  0
 16 14  2  0  0  0  0
 18 17  2  0  0  0  0
 19 24  1  0  0  0  0
 20 24  2  0  0  0  0
 21 17  1  0  0  0  0
 22 23  1  0  0  0  0
 22 25  1  0  0  0  0
 23 19  1  6  0  0  0
 23 11  1  0  0  0  0
 24 12  1  0  0  0  0
 25 14  1  0  0  0  0
 26 27  1  1  0  0  0
 26 28  1  0  0  0  0
 28 32  1  0  0  0  0
 28 31  1  0  0  0  0
 30 33  1  0  0  0  0
 30 34  1  0  0  0  0
 31 34  1  0  0  0  0
 32 29  2  0  0  0  0
 33 29  1  0  0  0  0
 35 40  1  0  0  0  0
 37 35  2  0  0  0  0
 37 38  1  0  0  0  0
 38 39  2  0  0  0  0
 39 36  1  0  0  0  0
 40 36  2  0  0  0  0
 41  1  1  0  0  0  0
 42 41  1  0  0  0  0
 43 44  1  0  0  0  0
 43 42  1  0  0  0  0
 45 54  1  0  0  0  0
 45 41  1  0  0  0  0
 46 50  1  0  0  0  0
 48 51  1  0  0  0  0
 48 49  1  0  0  0  0
 49 53  1  1  0  0  0
 49 54  1  0  0  0  0
 50 47  1  1  0  0  0
 51 46  1  0  0  0  0
 52 48  2  0  0  0  0
 54 50  1  0  0  0  0
M  END
>  <MODEL>
7

>  <REMARK>
 VINA RESULT:      -7.3      3.378      6.734
  Name = 
  9 active torsions:
  status: ('A' for Active; 'I' for Inactive)
    1  A    between atoms: N_1  and  C_14
    2  A    between atoms: C_3  and  N_19
    3  A    between atoms: C_5  and  C_52
    4  A    between atoms: C_14  and  C_20
    5  A    between atoms: N_19  and  O_29
    6  A    between atoms: N_19  and  C_38
    7  A    between atoms: C_23  and  O_29
    8  A    between atoms: C_28  and  C_42
    9  A    between atoms: C_38  and  N_51
                            x       y       z     vdW  Elec       q    Type
                         _______ _______ _______ _____ _____    ______ ____

>  <TORSDO>
F 9

$$$$
=
 OpenBabel11042417423D

 54 61  0  0  1  0  0  0  0  0999 V2000
  187.2590  176.8830  141.5720 C   0  0  0  0  0  0  0  0  0  0  0  0
  186.0340  177.5590  139.5730 C   0  0  0  0  0  3  0  0  0  0  0  0
  187.8170  175.8460  140.8210 C   0  0  0  0  0  0  0  0  0  0  0  0
  188.6700  174.9120  141.2630 N   0  0  0  0  0  0  0  0  0  0  0  0
  188.2170  174.5630  139.0550 C   0  0  0  0  0  3  0  0  0  0  0  0
  187.5120  175.6660  139.4940 C   0  0  0  0  0  0  0  0  0  0  0  0
  186.6080  176.5110  138.8170 C   0  0  0  0  0  0  0  0  0  0  0  0
  186.3550  177.7430  140.9320 C   0  0  0  0  0  2  0  0  0  0  0  0
  188.9120  174.1280  140.1860 C   0  0  0  0  0  0  0  0  0  0  0  0
  189.8330  172.9670  140.2070 C   0  0  0  0  0  0  0  0  0  0  0  0
  192.9450  171.3430  138.4650 C   0  0  2  0  0  3  0  0  0  0  0  0
  190.9460  173.7910  138.2430 O   0  0  0  0  0  0  0  0  0  0  0  0
  190.8560  172.7970  139.2370 C   0  0  0  0  0  0  0  0  0  0  0  0
  195.4050  171.2110  138.8990 C   0  0  0  0  0  0  0  0  0  0  0  0
  191.7240  171.6550  139.3340 C   0  0  0  0  0  0  0  0  0  0  0  0
  194.1480  171.0430  139.3370 C   0  0  0  0  0  3  0  0  0  0  0  0
  190.4410  170.8690  141.2560 C   0  0  0  0  0  3  0  0  0  0  0  0
  189.6430  172.0020  141.2010 C   0  0  0  0  0  3  0  0  0  0  0  0
  192.1840  172.4560  136.5370 C   0  0  0  0  0  2  0  0  0  0  0  0
  191.2050  174.6090  136.0590 C   0  0  0  0  0  2  0  0  0  0  0  0
  191.4630  170.7020  140.3310 C   0  0  0  0  0  3  0  0  0  0  0  0
  194.4200  171.8720  136.6840 C   0  0  0  0  0  2  0  0  0  0  0  0
  193.2860  172.3590  137.4640 N   0  0  2  0  0  0  0  0  0  0  0  0
  191.4070  173.6390  136.9360 C   0  0  0  0  0  0  0  0  0  0  0  0
  195.6740  171.8470  137.5550 C   0  0  0  0  0  2  0  0  0  0  0  0
  196.5430  170.9330  139.8440 C   0  0  1  0  0  3  0  0  0  0  0  0
  197.6770  170.4940  139.1550 O   0  0  0  0  0  1  0  0  0  0  0  0
  196.8670  172.1110  140.6380 N   0  0  0  0  0  0  0  0  0  0  0  0
  197.8770  174.2950  140.2400 C   0  0  0  0  0  3  0  0  0  0  0  0
  195.5500  174.4050  141.1420 N   0  0  0  0  0  2  0  0  0  0  0  0
  196.3350  172.2270  142.0010 C   0  0  0  0  0  2  0  0  0  0  0  0
  197.9160  172.9600  140.1580 C   0  0  0  0  0  3  0  0  0  0  0  0
  196.7520  175.0250  140.7550 N   0  0  0  0  0  2  0  0  0  0  0  0
  195.8360  173.6350  142.3420 C   0  0  0  0  0  2  0  0  0  0  0  0
  184.9050  176.0410  137.0100 C   0  0  0  0  0  3  0  0  0  0  0  0
  185.5360  176.0410  134.6720 C   0  0  0  0  0  3  0  0  0  0  0  0
  186.2270  176.3390  137.3860 C   0  0  0  0  0  0  0  0  0  0  0  0
  187.1960  176.4760  136.3780 C   0  0  0  0  0  3  0  0  0  0  0  0
  186.8540  176.3290  135.0310 C   0  0  0  0  0  3  0  0  0  0  0  0
  184.5620  175.8930  135.6630 C   0  0  0  0  0  3  0  0  0  0  0  0
  187.5840  177.0640  142.9560 N   0  0  0  0  0  0  0  0  0  0  0  0
  188.7020  177.7610  143.3040 O   0  0  0  0  0  0  0  0  0  0  0  0
  189.5620  176.8280  143.9000 C   0  0  0  0  0  2  0  0  0  0  0  0
  190.8320  176.8180  143.1980 N   0  0  0  0  0  1  0  0  0  0  0  0
  186.6570  176.5650  143.9790 C   0  0  0  0  0  2  0  0  0  0  0  0
  185.5690  177.8500  147.3490 C   0  0  0  0  0  2  0  0  0  0  0  0
  187.5170  176.4140  146.8860 C   0  0  0  0  0  1  0  0  0  0  0  0
  184.1560  178.6060  145.5210 C   0  0  0  0  0  0  0  0  0  0  0  0
  185.3120  178.4610  144.5680 C   0  0  1  0  0  3  0  0  0  0  0  0
  186.1840  176.8930  146.3370 C   0  0  2  0  0  3  0  0  0  0  0  0
  184.3090  178.2810  146.8670 O   0  0  0  0  0  0  0  0  0  0  0  0
  183.0510  179.0410  145.1070 O   0  0  0  0  0  0  0  0  0  0  0  0
  185.9010  179.8290  144.2630 C   0  0  0  0  0  1  0  0  0  0  0  0
  186.3880  177.5570  145.0320 N   0  0  0  0  0  0  0  0  0  0  0  0
  1 41  1  0  0  0  0
  2  8  1  0  0  0  0
  3  4  1  0  0  0  0
  3  1  2  0  0  0  0
  5  6  2  0  0  0  0
  5  9  1  0  0  0  0
  6  3  1  0  0  0  0
  7  6  1  0  0  0  0
  7  2  2  0  0  0  0
  8  1  1  0  0  0  0
  9 10  1  0  0  0  0
  9  4  2  0  0  0  0
 10 18  1  0  0  0  0
 11 15  1  0  0  0  0
 11 16  1  1  0  0  0
 12 13  1  0  0  0  0
 13 15  1  0  0  0  0
 13 10  2  0  0  0  0
 14 16  2  0  0  0  0
 14 26  1  0  0  0  0
 15 21  2  0  0  0  0
 18 17  2  0  0  0  0
 19 24  1  0  0  0  0
 20 24  2  0  0  0  0
 21 17  1  0  0  0  0
 22 23  1  0  0  0  0
 22 25  1  0  0  0  0
 23 19  1  6  0  0  0
 23 11  1  0  0  0  0
 24 12  1  0  0  0  0
 25 14  1  0  0  0  0
 26 27  1  6  0  0  0
 26 28  1  0  0  0  0
 28 31  1  0  0  0  0
 29 33  1  0  0  0  0
 30 34  1  0  0  0  0
 31 34  1  0  0  0  0
 32 29  2  0  0  0  0
 32 28  1  0  0  0  0
 33 30  1  0  0  0  0
 35 37  1  0  0  0  0
 36 39  2  0  0  0  0
 36 40  1  0  0  0  0
 37  7  1  0  0  0  0
 38 37  2  0  0  0  0
 39 38  1  0  0  0  0
 40 35  2  0  0  0  0
 41 42  1  0  0  0  0
 41 45  1  0  0  0  0
 42 43  1  0  0  0  0
 44 43  1  0  0  0  0
 45 54  1  0  0  0  0
 48 51  1  0  0  0  0
 49 53  1  1  0  0  0
 49 54  1  0  0  0  0
 49 48  1  0  0  0  0
 50 47  1  1  0  0  0
 50 46  1  0  0  0  0
 51 46  1  0  0  0  0
 52 48  2  0  0  0  0
 54 50  1  0  0  0  0
M  END
>  <MODEL>
8

>  <REMARK>
 VINA RESULT:      -7.2      3.611     10.621
  Name = 
  9 active torsions:
  status: ('A' for Active; 'I' for Inactive)
    1  A    between atoms: N_1  and  C_14
    2  A    between atoms: C_3  and  N_19
    3  A    between atoms: C_5  and  C_52
    4  A    between atoms: C_14  and  C_20
    5  A    between atoms: N_19  and  O_29
    6  A    between atoms: N_19  and  C_38
    7  A    between atoms: C_23  and  O_29
    8  A    between atoms: C_28  and  C_42
    9  A    between atoms: C_38  and  N_51
                            x       y       z     vdW  Elec       q    Type
                         _______ _______ _______ _____ _____    ______ ____

>  <TORSDO>
F 9

$$$$
=
 OpenBabel11042417423D

 54 61  0  0  1  0  0  0  0  0999 V2000
  196.4790  171.5720  141.4870 C   0  0  0  0  0  0  0  0  0  0  0  0
  197.7010  170.2620  143.1440 C   0  0  0  0  0  3  0  0  0  0  0  0
  195.3760  171.5360  142.3430 C   0  0  0  0  0  0  0  0  0  0  0  0
  194.1680  172.0690  142.1100 N   0  0  0  0  0  0  0  0  0  0  0  0
  194.1800  171.0420  144.1460 C   0  0  0  0  0  3  0  0  0  0  0  0
  195.4210  170.9000  143.5590 C   0  0  1  0  0  3  0  0  0  0  0  0
  196.5820  170.2360  144.0090 C   0  0  0  0  0  0  0  0  0  0  0  0
  197.6510  170.9220  141.9010 C   0  0  0  0  0  3  0  0  0  0  0  0
  193.4390  171.7660  143.2090 C   0  0  0  0  0  0  0  0  0  0  0  0
  192.0300  172.1850  143.4000 C   0  0  0  0  0  0  0  0  0  0  0  0
  189.7100  174.9200  144.9800 C   0  0  2  0  0  3  0  0  0  0  0  0
  192.7450  174.0360  144.7550 O   0  0  0  0  0  0  0  0  0  0  0  0
  191.6790  173.3260  144.1700 C   0  0  0  0  0  0  0  0  0  0  0  0
  188.4800  176.9430  144.1750 C   0  0  0  0  0  0  0  0  0  0  0  0
  190.2910  173.6810  144.2940 C   0  0  0  0  0  0  0  0  0  0  0  0
  188.7510  175.6350  144.0500 C   0  0  0  0  0  3  0  0  0  0  0  0
  189.6900  171.7030  142.9960 C   0  0  0  0  0  3  0  0  0  0  0  0
  191.0310  171.3940  142.8230 C   0  0  0  0  0  3  0  0  0  0  0  0
  191.4460  175.1860  146.5470 C   0  0  0  0  0  2  0  0  0  0  0  0
  193.8570  175.1880  146.4700 C   0  0  0  0  0  2  0  0  0  0  0  0
  189.3310  172.8290  143.7240 C   0  0  0  0  0  3  0  0  0  0  0  0
  189.9740  176.9390  146.1950 C   0  0  0  0  0  2  0  0  0  0  0  0
  190.6940  175.8650  145.5180 N   0  0  2  0  0  0  0  0  0  0  0  0
  192.7180  174.7800  145.9330 C   0  0  0  0  0  0  0  0  0  0  0  0
  189.2370  177.7950  145.1670 C   0  0  0  0  0  2  0  0  0  0  0  0
  187.5500  177.5870  143.1820 C   0  0  1  0  0  3  0  0  0  0  0  0
  187.6240  176.9560  141.9370 O   0  0  0  0  0  1  0  0  0  0  0  0
  186.1750  177.5760  143.6660 N   0  0  0  0  0  0  0  0  0  0  0  0
  185.0520  177.7780  145.8220 C   0  0  0  0  0  3  0  0  0  0  0  0
  184.3890  179.5270  144.1670 N   0  0  0  0  0  2  0  0  0  0  0  0
  185.0740  177.6620  142.7000 C   0  0  0  0  0  2  0  0  0  0  0  0
  185.9610  177.1960  145.0310 C   0  0  0  0  0  3  0  0  0  0  0  0
  184.2420  178.8900  145.4120 N   0  0  0  0  0  2  0  0  0  0  0  0
  183.9390  178.5860  143.1520 C   0  0  0  0  0  2  0  0  0  0  0  0
  197.8720  168.9230  145.7410 C   0  0  0  0  0  3  0  0  0  0  0  0
  196.8070  168.1660  147.7790 C   0  0  0  0  0  3  0  0  0  0  0  0
  196.6700  169.5100  145.3080 C   0  0  0  0  0  0  0  0  0  0  0  0
  195.5380  169.4030  146.1320 C   0  0  0  0  0  3  0  0  0  0  0  0
  195.6040  168.7360  147.3590 C   0  0  0  0  0  3  0  0  0  0  0  0
  197.9410  168.2560  146.9670 C   0  0  0  0  0  3  0  0  0  0  0  0
  196.4220  172.2400  140.2210 N   0  0  0  0  0  0  0  0  0  0  0  0
  195.4820  171.8750  139.3040 O   0  0  0  0  0  0  0  0  0  0  0  0
  196.0950  170.9090  138.4950 C   0  0  0  0  0  2  0  0  0  0  0  0
  195.5090  169.6080  138.7610 N   0  0  0  0  0  1  0  0  0  0  0  0
  197.3260  173.3680  139.9670 C   0  0  0  0  0  2  0  0  0  0  0  0
  195.4160  176.3730  141.1980 C   0  0  0  0  0  2  0  0  0  0  0  0
  197.7530  175.8010  141.7300 C   0  0  0  0  0  1  0  0  0  0  0  0
  194.1260  174.9480  139.7090 C   0  0  0  0  0  0  0  0  0  0  0  0
  195.3990  174.4730  139.0620 C   0  0  1  0  0  3  0  0  0  0  0  0
  196.4340  175.2410  141.2270 C   0  0  2  0  0  3  0  0  0  0  0  0
  194.1700  175.8590  140.7610 O   0  0  0  0  0  0  0  0  0  0  0  0
  193.0160  174.5360  139.2880 O   0  0  0  0  0  0  0  0  0  0  0  0
  195.5860  175.1690  137.7230 C   0  0  0  0  0  1  0  0  0  0  0  0
  196.6170  174.6550  139.8830 N   0  0  0  0  0  0  0  0  0  0  0  0
  1  8  2  0  0  0  0
  1  3  1  0  0  0  0
  2  7  2  0  0  0  0
  3  6  1  0  0  0  0
  4  3  2  0  0  0  0
  4  9  1  0  0  0  0
  6  7  1  0  0  0  0
  6  5  1  6  0  0  0
  7 37  1  0  0  0  0
  8  2  1  0  0  0  0
  9 10  1  0  0  0  0
  9  5  2  0  0  0  0
 10 13  1  0  0  0  0
 11 16  1  6  0  0  0
 11 23  1  0  0  0  0
 12 24  1  0  0  0  0
 13 15  2  0  0  0  0
 13 12  1  0  0  0  0
 14 25  1  0  0  0  0
 15 11  1  0  0  0  0
 16 14  2  0  0  0  0
 17 21  2  0  0  0  0
 18 17  1  0  0  0  0
 18 10  2  0  0  0  0
 21 15  1  0  0  0  0
 23 22  1  1  0  0  0
 23 19  1  0  0  0  0
 24 20  2  0  0  0  0
 24 19  1  0  0  0  0
 25 22  1  0  0  0  0
 26 27  1  6  0  0  0
 26 28  1  0  0  0  0
 26 14  1  0  0  0  0
 28 32  1  0  0  0  0
 30 33  1  0  0  0  0
 31 34  1  0  0  0  0
 31 28  1  0  0  0  0
 32 29  2  0  0  0  0
 33 29  1  0  0  0  0
 34 30  1  0  0  0  0
 35 40  1  0  0  0  0
 37 35  2  0  0  0  0
 37 38  1  0  0  0  0
 38 39  2  0  0  0  0
 39 36  1  0  0  0  0
 40 36  2  0  0  0  0
 41  1  1  0  0  0  0
 42 41  1  0  0  0  0
 43 44  1  0  0  0  0
 43 42  1  0  0  0  0
 45 41  1  0  0  0  0
 46 50  1  0  0  0  0
 48 51  1  0  0  0  0
 49 53  1  6  0  0  0
 49 48  1  0  0  0  0
 49 54  1  0  0  0  0
 50 47  1  6  0  0  0
 51 46  1  0  0  0  0
 52 48  2  0  0  0  0
 54 45  1  0  0  0  0
 54 50  1  0  0  0  0
M  END
>  <MODEL>
9

>  <REMARK>
 VINA RESULT:      -7.2      2.484      5.593
  Name = 
  9 active torsions:
  status: ('A' for Active; 'I' for Inactive)
    1  A    between atoms: N_1  and  C_14
    2  A    between atoms: C_3  and  N_19
    3  A    between atoms: C_5  and  C_52
    4  A    between atoms: C_14  and  C_20
    5  A    between atoms: N_19  and  O_29
    6  A    between atoms: N_19  and  C_38
    7  A    between atoms: C_23  and  O_29
    8  A    between atoms: C_28  and  C_42
    9  A    between atoms: C_38  and  N_51
                            x       y       z     vdW  Elec       q    Type
                         _______ _______ _______ _____ _____    ______ ____

>  <TORSDO>
F 9

$$$$
