=
 OpenBabel11042415153D

 45 50  0  0  1  0  0  0  0  0999 V2000
  188.0730  174.5680  137.3130 C   0  0  0  0  0  3  0  0  0  0  0  0
  188.3810  174.6810  139.7080 C   0  0  0  0  0  3  0  0  0  0  0  0
  187.4470  175.7210  139.7910 C   0  0  0  0  0  0  0  0  0  0  0  0
  187.1380  175.6110  137.3760 C   0  0  0  0  0  0  0  0  0  0  0  0
  186.8300  176.1800  138.6200 C   0  0  0  0  0  3  0  0  0  0  0  0
  188.6960  174.1000  138.4720 C   0  0  0  0  0  0  0  0  0  0  0  0
  185.6470  178.9570  147.6150 C   0  0  0  0  0  3  0  0  0  0  0  0
  185.6930  180.0150  143.5040 O   0  0  0  0  0  1  0  0  0  0  0  0
  186.8150  176.1250  144.7310 C   0  0  0  0  0  3  0  0  0  0  0  0
  186.8270  176.4930  143.3870 C   0  0  0  0  0  0  0  0  0  0  0  0
  186.0570  178.7390  143.9260 C   0  0  0  0  0  0  0  0  0  0  0  0
  186.0200  177.6660  148.0020 C   0  0  0  0  0  3  0  0  0  0  0  0
  187.1120  176.3170  141.0950 C   0  0  0  0  0  0  0  0  0  0  0  0
  186.4190  177.0730  145.6900 C   0  0  0  0  0  0  0  0  0  0  0  0
  186.4550  177.7730  143.0030 C   0  0  0  0  0  0  0  0  0  0  0  0
  185.6570  179.3180  146.2650 C   0  0  0  0  0  3  0  0  0  0  0  0
  186.0390  178.3880  145.2890 C   0  0  0  0  0  0  0  0  0  0  0  0
  186.4050  176.7260  147.0420 C   0  0  0  0  0  3  0  0  0  0  0  0
  187.2000  175.6600  142.3280 C   0  0  0  0  0  3  0  0  0  0  0  0
  186.5780  177.9090  141.3350 S   0  0  0  0  0  0  0  0  0  0  0  0
  187.2460  176.7220  135.1230 N   0  0  0  0  0  1  0  0  0  0  0  0
  186.4830  176.0980  136.1510 C   0  0  0  0  0  0  0  0  0  0  0  0
  185.2380  175.9700  136.0020 O   0  0  0  0  0  0  0  0  0  0  0  0
  189.6430  173.0320  138.3730 N   0  0  0  0  0  2  0  0  0  0  0  0
  189.7730  170.7310  137.5850 C   0  0  0  0  0  1  0  0  0  0  0  0
  189.3380  171.6470  138.7140 C   0  0  1  0  0  3  0  0  0  0  0  0
  190.0780  171.2570  139.9770 C   0  0  0  0  0  2  0  0  0  0  0  0
  191.2370  172.1190  140.1610 N   0  0  0  0  0  2  0  0  0  0  0  0
  190.3790  173.0670  142.2500 C   0  0  0  0  0  3  0  0  0  0  0  0
  191.6590  174.6800  143.5340 C   0  0  0  0  0  0  0  0  0  0  0  0
  191.3960  172.9890  141.2870 C   0  0  0  0  0  0  0  0  0  0  0  0
  192.6770  174.6030  142.5730 C   0  0  0  0  0  3  0  0  0  0  0  0
  192.5660  173.7740  141.4500 C   0  0  0  0  0  0  0  0  0  0  0  0
  190.5070  173.9020  143.3590 C   0  0  0  0  0  3  0  0  0  0  0  0
  189.9650  177.7360  144.8540 C   0  0  0  0  0  2  0  0  0  0  0  0
  191.3400  177.9390  144.2120 C   0  0  2  0  0  3  0  0  0  0  0  0
  192.3750  175.2630  147.0770 C   0  0  0  0  0  1  0  0  0  0  0  0
  191.3130  175.0960  145.9990 C   0  0  2  0  0  3  0  0  0  0  0  0
  191.1990  178.0290  142.8270 O   0  0  0  0  0  1  0  0  0  0  0  0
  192.3830  176.8740  144.5650 C   0  0  0  0  0  2  0  0  0  0  0  0
  191.7950  175.5370  144.6850 N   0  0  0  0  0  0  0  0  0  0  0  0
  189.9980  175.7730  146.3900 C   0  0  0  0  0  2  0  0  0  0  0  0
  190.0520  177.2960  146.3090 C   0  0  0  0  0  2  0  0  0  0  0  0
  193.6420  173.7830  140.5490 O   0  0  0  0  0  0  0  0  0  0  0  0
  194.1250  174.9270  139.8590 C   0  0  0  0  0  1  0  0  0  0  0  0
  1  4  2  0  0  0  0
  1  6  1  0  0  0  0
  2  3  1  0  0  0  0
  3 13  1  0  0  0  0
  4  5  1  0  0  0  0
  5  3  2  0  0  0  0
  6  2  2  0  0  0  0
  7 12  1  0  0  0  0
  8 11  1  0  0  0  0
  9 14  1  0  0  0  0
 10  9  2  0  0  0  0
 11 17  1  0  0  0  0
 13 20  1  0  0  0  0
 13 19  2  0  0  0  0
 14 18  1  0  0  0  0
 15 10  1  0  0  0  0
 15 11  2  0  0  0  0
 16  7  2  0  0  0  0
 17 14  2  0  0  0  0
 17 16  1  0  0  0  0
 18 12  2  0  0  0  0
 19 10  1  0  0  0  0
 20 15  1  0  0  0  0
 21 22  1  0  0  0  0
 22  4  1  0  0  0  0
 23 22  2  0  0  0  0
 24  6  1  0  0  0  0
 24 26  1  0  0  0  0
 26 25  1  6  0  0  0
 26 27  1  0  0  0  0
 27 28  1  0  0  0  0
 28 31  1  0  0  0  0
 29 34  1  0  0  0  0
 30 41  1  0  0  0  0
 31 33  1  0  0  0  0
 31 29  2  0  0  0  0
 32 30  1  0  0  0  0
 33 32  2  0  0  0  0
 34 30  2  0  0  0  0
 35 43  1  0  0  0  0
 36 39  1  6  0  0  0
 36 40  1  0  0  0  0
 36 35  1  0  0  0  0
 38 42  1  0  0  0  0
 38 37  1  1  0  0  0
 40 41  1  0  0  0  0
 41 38  1  0  0  0  0
 43 42  1  0  0  0  0
 44 33  1  0  0  0  0
 45 44  1  0  0  0  0
M  END
>  <MODEL>
1

>  <REMARK>
 VINA RESULT:      -8.1      0.000      0.000
  Name = 
  9 active torsions:
  status: ('A' for Active; 'I' for Inactive)
    1  A    between atoms: N_7  and  C_31
    2  A    between atoms: N_7  and  C_43
    3  A    between atoms: N_9  and  C_23
    4  A    between atoms: N_9  and  C_26
    5  A    between atoms: C_11  and  C_16
    6  A    between atoms: C_18  and  C_34
    7  A    between atoms: C_20  and  N_38
    8  A    between atoms: O_22  and  C_39
    9  A    between atoms: C_26  and  C_43
                            x       y       z     vdW  Elec       q    Type
                         _______ _______ _______ _____ _____    ______ ____

>  <TORSDO>
F 9

$$$$
=
 OpenBabel11042415153D

 45 50  0  0  1  0  0  0  0  0999 V2000
  190.6950  172.5860  138.5390 C   0  0  0  0  0  3  0  0  0  0  0  0
  190.0500  173.4050  140.7210 C   0  0  0  0  0  3  0  0  0  0  0  0
  189.0440  174.1880  140.1410 C   0  0  0  0  0  0  0  0  0  0  0  0
  189.6950  173.3660  137.9420 C   0  0  0  0  0  0  0  0  0  0  0  0
  188.8730  174.1620  138.7510 C   0  0  0  0  0  3  0  0  0  0  0  0
  190.8770  172.6010  139.9240 C   0  0  0  0  0  0  0  0  0  0  0  0
  184.0700  178.9420  145.3940 C   0  0  0  0  0  3  0  0  0  0  0  0
  185.2760  178.6240  141.3360 O   0  0  0  0  0  1  0  0  0  0  0  0
  186.7110  175.8850  144.2220 C   0  0  0  0  0  3  0  0  0  0  0  0
  187.0990  175.8000  142.8860 C   0  0  0  0  0  0  0  0  0  0  0  0
  185.7370  177.7310  142.2990 C   0  0  0  0  0  0  0  0  0  0  0  0
  184.5540  178.0270  146.3340 C   0  0  0  0  0  3  0  0  0  0  0  0
  188.1710  175.0200  140.9870 C   0  0  0  0  0  0  0  0  0  0  0  0
  185.8260  176.9050  144.6070 C   0  0  0  0  0  0  0  0  0  0  0  0
  186.6170  176.7060  141.9530 C   0  0  0  0  0  0  0  0  0  0  0  0
  184.4580  178.8480  144.0550 C   0  0  0  0  0  3  0  0  0  0  0  0
  185.3340  177.8340  143.6440 C   0  0  0  0  0  0  0  0  0  0  0  0
  185.4290  177.0110  145.9420 C   0  0  0  0  0  3  0  0  0  0  0  0
  187.9740  174.8440  142.3600 C   0  0  0  0  0  3  0  0  0  0  0  0
  187.2640  176.3480  140.4470 S   0  0  0  0  0  0  0  0  0  0  0  0
  190.0120  172.2610  135.7050 N   0  0  0  0  0  1  0  0  0  0  0  0
  189.5070  173.3430  136.4820 C   0  0  0  0  0  0  0  0  0  0  0  0
  188.8990  174.2840  135.9050 O   0  0  0  0  0  0  0  0  0  0  0  0
  191.9050  171.7910  140.5020 N   0  0  0  0  0  2  0  0  0  0  0  0
  193.1450  169.7390  140.9350 C   0  0  0  0  0  1  0  0  0  0  0  0
  191.7750  170.3540  140.7210 C   0  0  1  0  0  3  0  0  0  0  0  0
  190.9240  170.1000  141.9490 C   0  0  0  0  0  2  0  0  0  0  0  0
  191.6860  170.4000  143.1530 N   0  0  0  0  0  2  0  0  0  0  0  0
  190.4190  172.1610  144.2870 C   0  0  0  0  0  3  0  0  0  0  0  0
  191.5000  174.1640  145.1300 C   0  0  0  0  0  0  0  0  0  0  0  0
  191.6430  171.6700  143.8120 C   0  0  0  0  0  0  0  0  0  0  0  0
  192.7250  173.6740  144.6560 C   0  0  0  0  0  3  0  0  0  0  0  0
  192.8190  172.4420  143.9970 C   0  0  0  0  0  0  0  0  0  0  0  0
  190.3470  173.3930  144.9380 C   0  0  0  0  0  3  0  0  0  0  0  0
  189.8880  177.4770  144.5170 C   0  0  0  0  0  2  0  0  0  0  0  0
  191.3980  177.3960  144.2760 C   0  0  2  0  0  3  0  0  0  0  0  0
  191.3180  176.2170  148.1550 C   0  0  0  0  0  1  0  0  0  0  0  0
  190.5670  175.5950  146.9870 C   0  0  2  0  0  3  0  0  0  0  0  0
  191.6390  176.8810  143.0030 O   0  0  0  0  0  1  0  0  0  0  0  0
  192.1790  176.5940  145.3230 C   0  0  0  0  0  2  0  0  0  0  0  0
  191.4260  175.4330  145.8090 N   0  0  0  0  0  0  0  0  0  0  0  0
  189.2840  176.3640  146.6640 C   0  0  0  0  0  2  0  0  0  0  0  0
  189.5350  177.7060  145.9810 C   0  0  0  0  0  2  0  0  0  0  0  0
  194.0950  172.0550  143.5580 O   0  0  0  0  0  0  0  0  0  0  0  0
  194.8380  172.6960  142.5300 C   0  0  0  0  0  1  0  0  0  0  0  0
  1  6  1  0  0  0  0
  3  2  1  0  0  0  0
  3 13  1  0  0  0  0
  4  1  2  0  0  0  0
  4  5  1  0  0  0  0
  5  3  2  0  0  0  0
  6 24  1  0  0  0  0
  6  2  2  0  0  0  0
  7 12  1  0  0  0  0
  8 11  1  0  0  0  0
  9 14  1  0  0  0  0
 10  9  2  0  0  0  0
 11 17  1  0  0  0  0
 13 19  2  0  0  0  0
 14 18  1  0  0  0  0
 15 11  2  0  0  0  0
 15 10  1  0  0  0  0
 16  7  2  0  0  0  0
 17 16  1  0  0  0  0
 17 14  2  0  0  0  0
 18 12  2  0  0  0  0
 19 10  1  0  0  0  0
 20 13  1  0  0  0  0
 20 15  1  0  0  0  0
 21 22  1  0  0  0  0
 22  4  1  0  0  0  0
 23 22  2  0  0  0  0
 24 26  1  0  0  0  0
 26 25  1  1  0  0  0
 26 27  1  0  0  0  0
 27 28  1  0  0  0  0
 28 31  1  0  0  0  0
 29 34  1  0  0  0  0
 30 41  1  0  0  0  0
 31 33  1  0  0  0  0
 31 29  2  0  0  0  0
 32 30  1  0  0  0  0
 33 32  2  0  0  0  0
 34 30  2  0  0  0  0
 35 43  1  0  0  0  0
 36 39  1  6  0  0  0
 36 35  1  0  0  0  0
 36 40  1  0  0  0  0
 38 37  1  1  0  0  0
 40 41  1  0  0  0  0
 41 38  1  0  0  0  0
 42 38  1  0  0  0  0
 43 42  1  0  0  0  0
 44 33  1  0  0  0  0
 45 44  1  0  0  0  0
M  END
>  <MODEL>
2

>  <REMARK>
 VINA RESULT:      -8.0      2.062      2.553
  Name = 
  9 active torsions:
  status: ('A' for Active; 'I' for Inactive)
    1  A    between atoms: N_7  and  C_31
    2  A    between atoms: N_7  and  C_43
    3  A    between atoms: N_9  and  C_23
    4  A    between atoms: N_9  and  C_26
    5  A    between atoms: C_11  and  C_16
    6  A    between atoms: C_18  and  C_34
    7  A    between atoms: C_20  and  N_38
    8  A    between atoms: O_22  and  C_39
    9  A    between atoms: C_26  and  C_43
                            x       y       z     vdW  Elec       q    Type
                         _______ _______ _______ _____ _____    ______ ____

>  <TORSDO>
F 9

$$$$
=
 OpenBabel11042415153D

 45 50  0  0  1  0  0  0  0  0999 V2000
  186.9630  177.9880  144.8690 C   0  0  0  0  0  3  0  0  0  0  0  0
  188.9930  177.3050  143.7480 C   0  0  0  0  0  3  0  0  0  0  0  0
  189.5430  176.8950  144.9690 C   0  0  0  0  0  0  0  0  0  0  0  0
  187.4980  177.5870  146.1010 C   0  0  0  0  0  0  0  0  0  0  0  0
  188.7880  177.0400  146.1410 C   0  0  0  0  0  3  0  0  0  0  0  0
  187.7020  177.8500  143.6930 C   0  0  0  0  0  0  0  0  0  0  0  0
  197.3370  173.1390  145.2440 C   0  0  0  0  0  3  0  0  0  0  0  0
  195.4640  176.8720  144.4790 O   0  0  0  0  0  1  0  0  0  0  0  0
  193.1550  173.4890  145.5380 C   0  0  0  0  0  3  0  0  0  0  0  0
  192.5580  174.7220  145.2790 C   0  0  0  0  0  0  0  0  0  0  0  0
  194.7200  175.7490  144.8300 C   0  0  0  0  0  0  0  0  0  0  0  0
  196.5580  172.0330  145.5940 C   0  0  0  0  0  3  0  0  0  0  0  0
  190.8930  176.3100  145.0160 C   0  0  0  0  0  0  0  0  0  0  0  0
  194.5520  173.3800  145.4430 C   0  0  0  0  0  0  0  0  0  0  0  0
  193.3310  175.8210  144.9340 C   0  0  0  0  0  0  0  0  0  0  0  0
  196.7330  174.3740  144.9900 C   0  0  0  0  0  3  0  0  0  0  0  0
  195.3420  174.5120  145.0870 C   0  0  0  0  0  0  0  0  0  0  0  0
  195.1690  172.1520  145.6940 C   0  0  0  0  0  3  0  0  0  0  0  0
  191.1850  174.9790  145.3310 C   0  0  0  0  0  3  0  0  0  0  0  0
  192.3320  177.1450  144.6820 S   0  0  0  0  0  0  0  0  0  0  0  0
  186.7620  178.9440  148.0860 N   0  0  0  0  0  1  0  0  0  0  0  0
  186.7120  177.7330  147.3370 C   0  0  0  0  0  0  0  0  0  0  0  0
  185.9890  176.7860  147.7460 O   0  0  0  0  0  0  0  0  0  0  0  0
  187.1260  178.2670  142.4520 N   0  0  0  0  0  2  0  0  0  0  0  0
  185.4460  178.1630  140.6900 C   0  0  0  0  0  1  0  0  0  0  0  0
  186.4110  177.3690  141.5510 C   0  0  1  0  0  3  0  0  0  0  0  0
  187.4000  176.6550  140.6510 C   0  0  0  0  0  2  0  0  0  0  0  0
  187.6060  175.2930  141.1200 N   0  0  0  0  0  2  0  0  0  0  0  0
  189.8270  174.6240  141.9060 C   0  0  0  0  0  3  0  0  0  0  0  0
  191.2510  173.1600  140.5960 C   0  0  0  0  0  0  0  0  0  0  0  0
  188.8270  174.5720  140.9230 C   0  0  0  0  0  0  0  0  0  0  0  0
  190.2530  173.1060  139.6130 C   0  0  0  0  0  3  0  0  0  0  0  0
  189.0450  173.8000  139.7530 C   0  0  0  0  0  0  0  0  0  0  0  0
  191.0240  173.9280  141.7450 C   0  0  0  0  0  3  0  0  0  0  0  0
  194.8120  173.6010  141.6350 C   0  0  0  0  0  2  0  0  0  0  0  0
  194.4850  173.8970  140.1690 C   0  0  2  0  0  3  0  0  0  0  0  0
  193.1820  170.0610  140.3410 C   0  0  0  0  0  1  0  0  0  0  0  0
  192.7440  171.2240  141.2190 C   0  0  2  0  0  3  0  0  0  0  0  0
  193.9900  175.1950  140.0540 O   0  0  0  0  0  1  0  0  0  0  0  0
  193.5220  172.9060  139.5080 C   0  0  0  0  0  2  0  0  0  0  0  0
  192.4860  172.4350  140.4330 N   0  0  0  0  0  0  0  0  0  0  0  0
  193.7320  171.4750  142.3610 C   0  0  0  0  0  2  0  0  0  0  0  0
  195.0380  172.1190  141.9030 C   0  0  0  0  0  2  0  0  0  0  0  0
  188.1210  173.6800  138.7030 O   0  0  0  0  0  0  0  0  0  0  0  0
  188.1150  174.4700  137.5220 C   0  0  0  0  0  1  0  0  0  0  0  0
  1  4  1  0  0  0  0
  2  3  2  0  0  0  0
  3 13  1  0  0  0  0
  3  5  1  0  0  0  0
  4  5  2  0  0  0  0
  4 22  1  0  0  0  0
  6  2  1  0  0  0  0
  6  1  2  0  0  0  0
  7 12  1  0  0  0  0
  8 11  1  0  0  0  0
 10 19  1  0  0  0  0
 10  9  2  0  0  0  0
 11 15  2  0  0  0  0
 11 17  1  0  0  0  0
 12 18  2  0  0  0  0
 13 19  2  0  0  0  0
 14  9  1  0  0  0  0
 14 18  1  0  0  0  0
 15 10  1  0  0  0  0
 16 17  1  0  0  0  0
 16  7  2  0  0  0  0
 17 14  2  0  0  0  0
 20 15  1  0  0  0  0
 20 13  1  0  0  0  0
 22 23  2  0  0  0  0
 22 21  1  0  0  0  0
 24  6  1  0  0  0  0
 26 25  1  6  0  0  0
 26 24  1  0  0  0  0
 27 28  1  0  0  0  0
 27 26  1  0  0  0  0
 30 34  2  0  0  0  0
 31 28  1  0  0  0  0
 31 29  2  0  0  0  0
 32 33  2  0  0  0  0
 32 30  1  0  0  0  0
 33 31  1  0  0  0  0
 34 29  1  0  0  0  0
 35 43  1  0  0  0  0
 36 39  1  1  0  0  0
 36 35  1  0  0  0  0
 38 37  1  6  0  0  0
 38 42  1  0  0  0  0
 40 36  1  0  0  0  0
 40 41  1  0  0  0  0
 41 30  1  0  0  0  0
 41 38  1  0  0  0  0
 43 42  1  0  0  0  0
 44 33  1  0  0  0  0
 45 44  1  0  0  0  0
M  END
>  <MODEL>
3

>  <REMARK>
 VINA RESULT:      -8.0      3.133      7.798
  Name = 
  9 active torsions:
  status: ('A' for Active; 'I' for Inactive)
    1  A    between atoms: N_7  and  C_31
    2  A    between atoms: N_7  and  C_43
    3  A    between atoms: N_9  and  C_23
    4  A    between atoms: N_9  and  C_26
    5  A    between atoms: C_11  and  C_16
    6  A    between atoms: C_18  and  C_34
    7  A    between atoms: C_20  and  N_38
    8  A    between atoms: O_22  and  C_39
    9  A    between atoms: C_26  and  C_43
                            x       y       z     vdW  Elec       q    Type
                         _______ _______ _______ _____ _____    ______ ____

>  <TORSDO>
F 9

$$$$
=
 OpenBabel11042415153D

 45 50  0  0  1  0  0  0  0  0999 V2000
  194.7300  174.8080  143.5250 C   0  0  0  0  0  3  0  0  0  0  0  0
  192.8730  174.9370  145.0670 C   0  0  0  0  0  3  0  0  0  0  0  0
  192.1590  175.7280  144.1580 C   0  0  0  0  0  0  0  0  0  0  0  0
  194.0320  175.6020  142.6050 C   0  0  0  0  0  0  0  0  0  0  0  0
  192.7460  176.0550  142.9290 C   0  0  0  0  0  3  0  0  0  0  0  0
  194.1580  174.4730  144.7540 C   0  0  0  0  0  0  0  0  0  0  0  0
  184.1610  178.6200  145.7750 C   0  0  0  0  0  3  0  0  0  0  0  0
  187.1630  176.0690  147.3570 O   0  0  0  0  0  1  0  0  0  0  0  0
  187.8270  178.1880  143.7560 C   0  0  0  0  0  3  0  0  0  0  0  0
  188.7980  177.3420  144.2900 C   0  0  0  0  0  0  0  0  0  0  0  0
  187.3650  176.7750  146.1750 C   0  0  0  0  0  0  0  0  0  0  0  0
  184.3990  179.3130  144.5840 C   0  0  0  0  0  3  0  0  0  0  0  0
  190.8040  176.2000  144.4890 C   0  0  0  0  0  0  0  0  0  0  0  0
  186.6070  178.3320  144.4370 C   0  0  0  0  0  0  0  0  0  0  0  0
  188.5640  176.6560  145.4720 C   0  0  0  0  0  0  0  0  0  0  0  0
  185.1410  177.7780  146.3070 C   0  0  0  0  0  3  0  0  0  0  0  0
  186.3700  177.6240  145.6520 C   0  0  0  0  0  0  0  0  0  0  0  0
  185.6180  179.1700  143.9170 C   0  0  0  0  0  3  0  0  0  0  0  0
  190.0530  177.0980  143.7230 C   0  0  0  0  0  3  0  0  0  0  0  0
  189.9080  175.7250  145.8490 S   0  0  0  0  0  0  0  0  0  0  0  0
  195.7570  176.8300  141.2500 N   0  0  0  0  0  1  0  0  0  0  0  0
  194.6400  175.9490  141.3100 C   0  0  0  0  0  0  0  0  0  0  0  0
  194.1740  175.4710  140.2410 O   0  0  0  0  0  0  0  0  0  0  0  0
  194.8960  173.6590  145.6700 N   0  0  0  0  0  2  0  0  0  0  0  0
  196.8280  172.2180  146.0280 C   0  0  0  0  0  1  0  0  0  0  0  0
  195.5020  172.3820  145.3090 C   0  0  1  0  0  3  0  0  0  0  0  0
  194.5800  171.2480  145.7140 C   0  0  0  0  0  2  0  0  0  0  0  0
  194.0210  170.6140  144.5290 N   0  0  0  0  0  2  0  0  0  0  0  0
  191.8360  171.5910  144.0090 C   0  0  0  0  0  3  0  0  0  0  0  0
  191.3860  172.6310  141.8640 C   0  0  0  0  0  0  0  0  0  0  0  0
  193.1490  171.2900  143.6170 C   0  0  0  0  0  0  0  0  0  0  0  0
  192.6980  172.3310  141.4690 C   0  0  0  0  0  3  0  0  0  0  0  0
  193.5870  171.6640  142.3200 C   0  0  0  0  0  0  0  0  0  0  0  0
  190.9650  172.2530  143.1450 C   0  0  0  0  0  3  0  0  0  0  0  0
  189.3300  171.7550  138.8710 C   0  0  0  0  0  2  0  0  0  0  0  0
  190.6160  172.5430  138.6100 C   0  0  2  0  0  3  0  0  0  0  0  0
  188.8010  175.1250  141.1570 C   0  0  0  0  0  1  0  0  0  0  0  0
  189.1280  173.6600  141.4070 C   0  0  2  0  0  3  0  0  0  0  0  0
  191.6990  171.6660  138.5610 O   0  0  0  0  0  1  0  0  0  0  0  0
  190.8970  173.6710  139.6090 C   0  0  0  0  0  2  0  0  0  0  0  0
  190.4880  173.3210  140.9730 N   0  0  0  0  0  0  0  0  0  0  0  0
  188.0770  172.7330  140.7910 C   0  0  0  0  0  2  0  0  0  0  0  0
  188.1610  172.6460  139.2700 C   0  0  0  0  0  2  0  0  0  0  0  0
  194.8730  171.4090  141.8180 O   0  0  0  0  0  0  0  0  0  0  0  0
  195.5840  172.2480  140.9200 C   0  0  0  0  0  1  0  0  0  0  0  0
  1  6  1  0  0  0  0
  3 13  1  0  0  0  0
  3  2  1  0  0  0  0
  4  5  1  0  0  0  0
  4  1  2  0  0  0  0
  5  3  2  0  0  0  0
  6  2  2  0  0  0  0
  6 24  1  0  0  0  0
  7 16  1  0  0  0  0
  9 10  2  0  0  0  0
  9 14  1  0  0  0  0
 10 15  1  0  0  0  0
 11  8  1  0  0  0  0
 12  7  2  0  0  0  0
 13 20  1  0  0  0  0
 14 17  1  0  0  0  0
 15 20  1  0  0  0  0
 15 11  2  0  0  0  0
 17 11  1  0  0  0  0
 17 16  2  0  0  0  0
 18 14  2  0  0  0  0
 18 12  1  0  0  0  0
 19 10  1  0  0  0  0
 19 13  2  0  0  0  0
 21 22  1  0  0  0  0
 22  4  1  0  0  0  0
 23 22  2  0  0  0  0
 26 24  1  0  0  0  0
 26 27  1  0  0  0  0
 26 25  1  1  0  0  0
 28 27  1  0  0  0  0
 30 34  1  0  0  0  0
 31 29  1  0  0  0  0
 31 28  1  0  0  0  0
 32 30  2  0  0  0  0
 32 33  1  0  0  0  0
 33 31  2  0  0  0  0
 34 29  2  0  0  0  0
 35 43  1  0  0  0  0
 36 39  1  1  0  0  0
 36 35  1  0  0  0  0
 36 40  1  0  0  0  0
 38 37  1  6  0  0  0
 40 41  1  0  0  0  0
 41 38  1  0  0  0  0
 41 30  1  0  0  0  0
 42 38  1  0  0  0  0
 43 42  1  0  0  0  0
 44 33  1  0  0  0  0
 45 44  1  0  0  0  0
M  END
>  <MODEL>
4

>  <REMARK>
 VINA RESULT:      -7.8      2.899      6.204
  Name = 
  9 active torsions:
  status: ('A' for Active; 'I' for Inactive)
    1  A    between atoms: N_7  and  C_31
    2  A    between atoms: N_7  and  C_43
    3  A    between atoms: N_9  and  C_23
    4  A    between atoms: N_9  and  C_26
    5  A    between atoms: C_11  and  C_16
    6  A    between atoms: C_18  and  C_34
    7  A    between atoms: C_20  and  N_38
    8  A    between atoms: O_22  and  C_39
    9  A    between atoms: C_26  and  C_43
                            x       y       z     vdW  Elec       q    Type
                         _______ _______ _______ _____ _____    ______ ____

>  <TORSDO>
F 9

$$$$
=
 OpenBabel11042415153D

 45 50  0  0  1  0  0  0  0  0999 V2000
  194.7430  174.9860  143.5080 C   0  0  0  0  0  3  0  0  0  0  0  0
  192.7930  175.1840  144.9240 C   0  0  0  0  0  3  0  0  0  0  0  0
  192.1500  175.9570  143.9480 C   0  0  0  0  0  0  0  0  0  0  0  0
  194.1160  175.7590  142.5220 C   0  0  0  0  0  0  0  0  0  0  0  0
  192.8200  176.2390  142.7500 C   0  0  0  0  0  3  0  0  0  0  0  0
  194.0890  174.6950  144.7080 C   0  0  0  0  0  0  0  0  0  0  0  0
  184.1700  178.8520  145.6410 C   0  0  0  0  0  3  0  0  0  0  0  0
  187.0560  178.6660  142.5320 O   0  0  0  0  0  1  0  0  0  0  0  0
  187.8710  176.9700  146.3210 C   0  0  0  0  0  3  0  0  0  0  0  0
  188.8070  176.9230  145.2890 C   0  0  0  0  0  0  0  0  0  0  0  0
  187.3060  178.1120  143.7840 C   0  0  0  0  0  0  0  0  0  0  0  0
  184.4570  178.2850  146.8860 C   0  0  0  0  0  3  0  0  0  0  0  0
  190.7840  176.4550  144.1770 C   0  0  0  0  0  0  0  0  0  0  0  0
  186.6350  177.5950  146.0860 C   0  0  0  0  0  0  0  0  0  0  0  0
  188.5220  177.4840  144.0530 C   0  0  0  0  0  0  0  0  0  0  0  0
  185.1110  178.7970  144.6080 C   0  0  0  0  0  3  0  0  0  0  0  0
  186.3470  178.1710  144.8140 C   0  0  0  0  0  0  0  0  0  0  0  0
  185.6860  177.6580  147.1090 C   0  0  0  0  0  3  0  0  0  0  0  0
  190.0750  176.3400  145.3770 C   0  0  0  0  0  3  0  0  0  0  0  0
  189.8370  177.2720  143.0320 S   0  0  0  0  0  0  0  0  0  0  0  0
  196.0290  176.7970  141.2620 N   0  0  0  0  0  1  0  0  0  0  0  0
  194.8110  176.0590  141.2590 C   0  0  0  0  0  0  0  0  0  0  0  0
  194.3310  175.6680  140.1610 O   0  0  0  0  0  0  0  0  0  0  0  0
  194.7560  173.9000  145.6930 N   0  0  0  0  0  2  0  0  0  0  0  0
  197.0990  173.7910  146.3530 C   0  0  0  0  0  1  0  0  0  0  0  0
  196.0210  173.2120  145.4560 C   0  0  1  0  0  3  0  0  0  0  0  0
  195.8650  171.7360  145.7640 C   0  0  0  0  0  2  0  0  0  0  0  0
  195.6710  170.9880  144.5300 N   0  0  0  0  0  2  0  0  0  0  0  0
  193.2640  170.7260  144.1650 C   0  0  0  0  0  3  0  0  0  0  0  0
  192.2080  171.4210  142.0940 C   0  0  0  0  0  0  0  0  0  0  0  0
  194.5190  171.1390  143.6940 C   0  0  0  0  0  0  0  0  0  0  0  0
  193.4620  171.8350  141.6210 C   0  0  0  0  0  3  0  0  0  0  0  0
  194.6210  171.7020  142.3960 C   0  0  0  0  0  0  0  0  0  0  0  0
  192.1230  170.8640  143.3770 C   0  0  0  0  0  3  0  0  0  0  0  0
  189.7080  174.1110  141.4140 C   0  0  0  0  0  2  0  0  0  0  0  0
  189.2540  172.9710  142.3300 C   0  0  2  0  0  3  0  0  0  0  0  0
  190.2580  170.7910  139.0620 C   0  0  0  0  0  1  0  0  0  0  0  0
  191.1440  171.7590  139.8310 C   0  0  2  0  0  3  0  0  0  0  0  0
  189.6900  173.2180  143.6310 O   0  0  0  0  0  1  0  0  0  0  0  0
  189.6910  171.5710  141.8850 C   0  0  0  0  0  2  0  0  0  0  0  0
  191.0270  171.5710  141.2820 N   0  0  0  0  0  0  0  0  0  0  0  0
  190.8930  173.2100  139.4150 C   0  0  0  0  0  2  0  0  0  0  0  0
  189.5730  173.7710  139.9360 C   0  0  0  0  0  2  0  0  0  0  0  0
  195.8220  172.1420  141.8180 O   0  0  0  0  0  0  0  0  0  0  0  0
  195.9860  172.5270  140.4610 C   0  0  0  0  0  1  0  0  0  0  0  0
  1  6  1  0  0  0  0
  3 13  1  0  0  0  0
  3  2  1  0  0  0  0
  4  5  1  0  0  0  0
  4  1  2  0  0  0  0
  5  3  2  0  0  0  0
  6  2  2  0  0  0  0
  6 24  1  0  0  0  0
  7 12  1  0  0  0  0
  8 11  1  0  0  0  0
 10 19  1  0  0  0  0
 10  9  2  0  0  0  0
 11 15  2  0  0  0  0
 11 17  1  0  0  0  0
 12 18  2  0  0  0  0
 13 19  2  0  0  0  0
 14  9  1  0  0  0  0
 14 18  1  0  0  0  0
 15 10  1  0  0  0  0
 16 17  1  0  0  0  0
 16  7  2  0  0  0  0
 17 14  2  0  0  0  0
 20 15  1  0  0  0  0
 20 13  1  0  0  0  0
 22 21  1  0  0  0  0
 22  4  1  0  0  0  0
 23 22  2  0  0  0  0
 26 24  1  0  0  0  0
 26 27  1  0  0  0  0
 26 25  1  1  0  0  0
 28 27  1  0  0  0  0
 30 34  1  0  0  0  0
 31 29  1  0  0  0  0
 31 28  1  0  0  0  0
 32 30  2  0  0  0  0
 32 33  1  0  0  0  0
 33 31  2  0  0  0  0
 34 29  2  0  0  0  0
 35 36  1  0  0  0  0
 36 39  1  1  0  0  0
 38 37  1  6  0  0  0
 38 41  1  0  0  0  0
 40 36  1  0  0  0  0
 41 40  1  0  0  0  0
 41 30  1  0  0  0  0
 42 38  1  0  0  0  0
 42 43  1  0  0  0  0
 43 35  1  0  0  0  0
 44 33  1  0  0  0  0
 45 44  1  0  0  0  0
M  END
>  <MODEL>
5

>  <REMARK>
 VINA RESULT:      -7.7      2.839      6.130
  Name = 
  9 active torsions:
  status: ('A' for Active; 'I' for Inactive)
    1  A    between atoms: N_7  and  C_31
    2  A    between atoms: N_7  and  C_43
    3  A    between atoms: N_9  and  C_23
    4  A    between atoms: N_9  and  C_26
    5  A    between atoms: C_11  and  C_16
    6  A    between atoms: C_18  and  C_34
    7  A    between atoms: C_20  and  N_38
    8  A    between atoms: O_22  and  C_39
    9  A    between atoms: C_26  and  C_43
                            x       y       z     vdW  Elec       q    Type
                         _______ _______ _______ _____ _____    ______ ____

>  <TORSDO>
F 9

$$$$
=
 OpenBabel11042415153D

 45 50  0  0  1  0  0  0  0  0999 V2000
  194.7440  174.3910  144.5780 C   0  0  0  0  0  3  0  0  0  0  0  0
  193.3090  176.3340  144.4840 C   0  0  0  0  0  3  0  0  0  0  0  0
  192.1800  175.5220  144.6510 C   0  0  0  0  0  0  0  0  0  0  0  0
  193.6260  173.5620  144.7420 C   0  0  0  0  0  0  0  0  0  0  0  0
  192.3480  174.1370  144.7790 C   0  0  0  0  0  3  0  0  0  0  0  0
  194.5940  175.7730  144.4490 C   0  0  0  0  0  0  0  0  0  0  0  0
  184.2970  179.0390  145.2920 C   0  0  0  0  0  3  0  0  0  0  0  0
  187.4160  178.3440  142.4980 O   0  0  0  0  0  1  0  0  0  0  0  0
  187.7930  177.0360  146.5030 C   0  0  0  0  0  3  0  0  0  0  0  0
  188.8070  176.8210  145.5710 C   0  0  0  0  0  0  0  0  0  0  0  0
  187.5220  177.9190  143.8190 C   0  0  0  0  0  0  0  0  0  0  0  0
  184.4390  178.5990  146.6120 C   0  0  0  0  0  3  0  0  0  0  0  0
  190.8360  176.1200  144.7000 C   0  0  0  0  0  0  0  0  0  0  0  0
  186.6260  177.7010  146.0920 C   0  0  0  0  0  0  0  0  0  0  0  0
  188.6660  177.2560  144.2620 C   0  0  0  0  0  0  0  0  0  0  0  0
  185.3150  178.8160  144.3620 C   0  0  0  0  0  3  0  0  0  0  0  0
  186.4860  178.1470  144.7450 C   0  0  0  0  0  0  0  0  0  0  0  0
  185.5990  177.9310  147.0110 C   0  0  0  0  0  3  0  0  0  0  0  0
  190.0210  176.1800  145.8360 C   0  0  0  0  0  3  0  0  0  0  0  0
  190.0450  176.8580  143.3930 S   0  0  0  0  0  0  0  0  0  0  0  0
  194.6630  171.5690  145.8710 N   0  0  0  0  0  1  0  0  0  0  0  0
  193.7930  172.1060  144.8790 C   0  0  0  0  0  0  0  0  0  0  0  0
  193.1690  171.3200  144.1170 O   0  0  0  0  0  0  0  0  0  0  0  0
  195.7560  176.5910  144.2860 N   0  0  0  0  0  2  0  0  0  0  0  0
  197.5750  175.4440  143.1400 C   0  0  0  0  0  1  0  0  0  0  0  0
  196.5820  176.5910  143.0840 C   0  0  1  0  0  3  0  0  0  0  0  0
  195.7030  176.4210  141.8610 C   0  0  0  0  0  2  0  0  0  0  0  0
  195.7440  175.0380  141.4070 N   0  0  0  0  0  2  0  0  0  0  0  0
  193.3290  174.9080  141.0220 C   0  0  0  0  0  3  0  0  0  0  0  0
  192.2180  172.7880  140.6200 C   0  0  0  0  0  0  0  0  0  0  0  0
  194.5690  174.2630  141.1460 C   0  0  0  0  0  0  0  0  0  0  0  0
  193.4570  172.1420  140.7430 C   0  0  0  0  0  3  0  0  0  0  0  0
  194.6340  172.8530  141.0060 C   0  0  0  0  0  0  0  0  0  0  0  0
  192.1680  174.1810  140.7640 C   0  0  0  0  0  3  0  0  0  0  0  0
  188.5380  173.3500  140.9240 C   0  0  0  0  0  2  0  0  0  0  0  0
  189.1810  172.4430  141.9760 C   0  0  2  0  0  3  0  0  0  0  0  0
  190.2660  170.4060  138.6420 C   0  0  0  0  0  1  0  0  0  0  0  0
  190.5520  171.8650  138.9650 C   0  0  2  0  0  3  0  0  0  0  0  0
  189.7400  173.2240  142.9870 O   0  0  0  0  0  1  0  0  0  0  0  0
  190.2240  171.4600  141.4330 C   0  0  0  0  0  2  0  0  0  0  0  0
  191.0190  172.0380  140.3450 N   0  0  0  0  0  0  0  0  0  0  0  0
  189.3540  172.7610  138.6440 C   0  0  0  0  0  2  0  0  0  0  0  0
  188.2030  172.6140  139.6340 C   0  0  0  0  0  2  0  0  0  0  0  0
  195.8150  172.1030  141.1170 O   0  0  0  0  0  0  0  0  0  0  0  0
  195.9780  170.9440  141.9220 C   0  0  0  0  0  1  0  0  0  0  0  0
  1  4  1  0  0  0  0
  2  3  2  0  0  0  0
  3 13  1  0  0  0  0
  3  5  1  0  0  0  0
  4  5  2  0  0  0  0
  4 22  1  0  0  0  0
  6  2  1  0  0  0  0
  6  1  2  0  0  0  0
  7 12  1  0  0  0  0
  8 11  1  0  0  0  0
 10 19  1  0  0  0  0
 10  9  2  0  0  0  0
 11 15  2  0  0  0  0
 11 17  1  0  0  0  0
 12 18  2  0  0  0  0
 13 19  2  0  0  0  0
 14  9  1  0  0  0  0
 14 18  1  0  0  0  0
 15 10  1  0  0  0  0
 16 17  1  0  0  0  0
 16  7  2  0  0  0  0
 17 14  2  0  0  0  0
 20 15  1  0  0  0  0
 20 13  1  0  0  0  0
 22 21  1  0  0  0  0
 23 22  2  0  0  0  0
 24  6  1  0  0  0  0
 26 25  1  1  0  0  0
 26 24  1  0  0  0  0
 27 26  1  0  0  0  0
 28 27  1  0  0  0  0
 29 31  1  0  0  0  0
 30 32  2  0  0  0  0
 30 34  1  0  0  0  0
 31 28  1  0  0  0  0
 32 33  1  0  0  0  0
 33 44  1  0  0  0  0
 33 31  2  0  0  0  0
 34 29  2  0  0  0  0
 35 36  1  0  0  0  0
 36 39  1  1  0  0  0
 38 37  1  1  0  0  0
 38 41  1  0  0  0  0
 40 36  1  0  0  0  0
 41 30  1  0  0  0  0
 41 40  1  0  0  0  0
 42 38  1  0  0  0  0
 42 43  1  0  0  0  0
 43 35  1  0  0  0  0
 44 45  1  0  0  0  0
M  END
>  <MODEL>
6

>  <REMARK>
 VINA RESULT:      -7.5      2.733      6.675
  Name = 
  9 active torsions:
  status: ('A' for Active; 'I' for Inactive)
    1  A    between atoms: N_7  and  C_31
    2  A    between atoms: N_7  and  C_43
    3  A    between atoms: N_9  and  C_23
    4  A    between atoms: N_9  and  C_26
    5  A    between atoms: C_11  and  C_16
    6  A    between atoms: C_18  and  C_34
    7  A    between atoms: C_20  and  N_38
    8  A    between atoms: O_22  and  C_39
    9  A    between atoms: C_26  and  C_43
                            x       y       z     vdW  Elec       q    Type
                         _______ _______ _______ _____ _____    ______ ____

>  <TORSDO>
F 9

$$$$
=
 OpenBabel11042415153D

 45 50  0  0  1  0  0  0  0  0999 V2000
  192.7720  173.5910  140.3870 C   0  0  0  0  0  3  0  0  0  0  0  0
  190.4580  173.6090  141.0850 C   0  0  0  0  0  3  0  0  0  0  0  0
  190.6870  174.7590  141.8510 C   0  0  0  0  0  0  0  0  0  0  0  0
  193.0200  174.7400  141.1500 C   0  0  0  0  0  0  0  0  0  0  0  0
  191.9710  175.3180  141.8780 C   0  0  0  0  0  3  0  0  0  0  0  0
  191.4970  173.0230  140.3490 C   0  0  0  0  0  0  0  0  0  0  0  0
  184.4440  178.4580  146.5720 C   0  0  0  0  0  3  0  0  0  0  0  0
  185.3100  177.1680  142.6210 O   0  0  0  0  0  1  0  0  0  0  0  0
  188.1600  176.6830  145.7090 C   0  0  0  0  0  3  0  0  0  0  0  0
  188.4270  176.2700  144.4050 C   0  0  0  0  0  0  0  0  0  0  0  0
  186.2350  177.0150  143.6500 C   0  0  0  0  0  0  0  0  0  0  0  0
  185.3980  178.2890  147.5800 C   0  0  0  0  0  3  0  0  0  0  0  0
  189.5860  175.3760  142.6100 C   0  0  0  0  0  0  0  0  0  0  0  0
  186.9160  177.2710  145.9920 C   0  0  0  0  0  0  0  0  0  0  0  0
  187.4800  176.4360  143.4050 C   0  0  0  0  0  0  0  0  0  0  0  0
  184.7160  178.0370  145.2670 C   0  0  0  0  0  3  0  0  0  0  0  0
  185.9460  177.4400  144.9610 C   0  0  0  0  0  0  0  0  0  0  0  0
  186.6310  177.6960  147.2920 C   0  0  0  0  0  3  0  0  0  0  0  0
  189.6180  175.6750  143.9760 C   0  0  0  0  0  3  0  0  0  0  0  0
  188.0940  175.8490  141.9580 S   0  0  0  0  0  0  0  0  0  0  0  0
  195.5240  174.5060  141.1320 N   0  0  0  0  0  1  0  0  0  0  0  0
  194.3670  175.3350  141.1830 C   0  0  0  0  0  0  0  0  0  0  0  0
  194.5070  176.5840  141.2600 O   0  0  0  0  0  0  0  0  0  0  0  0
  191.2770  171.8520  139.5570 N   0  0  0  0  0  2  0  0  0  0  0  0
  190.4990  169.5970  139.0640 C   0  0  0  0  0  1  0  0  0  0  0  0
  191.0750  170.5210  140.1200 C   0  0  1  0  0  3  0  0  0  0  0  0
  192.4010  169.9610  140.5930 C   0  0  0  0  0  2  0  0  0  0  0  0
  192.4080  169.8570  142.0450 N   0  0  0  0  0  2  0  0  0  0  0  0
  194.0550  171.3820  143.0240 C   0  0  0  0  0  3  0  0  0  0  0  0
  193.4060  173.1220  144.5870 C   0  0  0  0  0  0  0  0  0  0  0  0
  192.7240  170.9550  142.9080 C   0  0  0  0  0  0  0  0  0  0  0  0
  192.0750  172.6960  144.4720 C   0  0  0  0  0  3  0  0  0  0  0  0
  191.7140  171.6230  143.6490 C   0  0  0  0  0  0  0  0  0  0  0  0
  194.3930  172.4510  143.8530 C   0  0  0  0  0  3  0  0  0  0  0  0
  195.6890  176.0720  144.3960 C   0  0  0  0  0  2  0  0  0  0  0  0
  196.1460  174.9090  145.2800 C   0  0  2  0  0  3  0  0  0  0  0  0
  192.5890  175.6920  147.0620 C   0  0  0  0  0  1  0  0  0  0  0  0
  192.8340  175.3620  145.5970 C   0  0  2  0  0  3  0  0  0  0  0  0
  196.7610  173.9370  144.4910 O   0  0  0  0  0  1  0  0  0  0  0  0
  195.0440  174.2730  146.1340 C   0  0  0  0  0  2  0  0  0  0  0  0
  193.7550  174.2320  145.4370 N   0  0  0  0  0  0  0  0  0  0  0  0
  193.2860  176.5930  144.8080 C   0  0  0  0  0  2  0  0  0  0  0  0
  194.7230  177.0110  145.1070 C   0  0  0  0  0  2  0  0  0  0  0  0
  190.3540  171.2780  143.6170 O   0  0  0  0  0  0  0  0  0  0  0  0
  189.3170  171.9720  144.2960 C   0  0  0  0  0  1  0  0  0  0  0  0
  1  4  1  0  0  0  0
  2  3  2  0  0  0  0
  3  5  1  0  0  0  0
  3 13  1  0  0  0  0
  4 22  1  0  0  0  0
  4  5  2  0  0  0  0
  6  1  2  0  0  0  0
  6  2  1  0  0  0  0
  7 12  1  0  0  0  0
  8 11  1  0  0  0  0
  9 14  1  0  0  0  0
 10  9  2  0  0  0  0
 11 17  1  0  0  0  0
 13 19  2  0  0  0  0
 14 18  1  0  0  0  0
 15 11  2  0  0  0  0
 15 10  1  0  0  0  0
 16  7  2  0  0  0  0
 17 16  1  0  0  0  0
 17 14  2  0  0  0  0
 18 12  2  0  0  0  0
 19 10  1  0  0  0  0
 20 13  1  0  0  0  0
 20 15  1  0  0  0  0
 21 22  1  0  0  0  0
 22 23  2  0  0  0  0
 24 26  1  0  0  0  0
 24  6  1  0  0  0  0
 26 25  1  6  0  0  0
 26 27  1  0  0  0  0
 27 28  1  0  0  0  0
 28 31  1  0  0  0  0
 29 34  1  0  0  0  0
 30 41  1  0  0  0  0
 31 29  2  0  0  0  0
 31 33  1  0  0  0  0
 32 30  1  0  0  0  0
 33 32  2  0  0  0  0
 34 30  2  0  0  0  0
 35 43  1  0  0  0  0
 35 36  1  0  0  0  0
 36 39  1  6  0  0  0
 36 40  1  0  0  0  0
 38 37  1  1  0  0  0
 41 38  1  0  0  0  0
 41 40  1  0  0  0  0
 42 43  1  0  0  0  0
 42 38  1  0  0  0  0
 44 33  1  0  0  0  0
 44 45  1  0  0  0  0
M  END
>  <MODEL>
7

>  <REMARK>
 VINA RESULT:      -7.3      2.887      4.432
  Name = 
  9 active torsions:
  status: ('A' for Active; 'I' for Inactive)
    1  A    between atoms: N_7  and  C_31
    2  A    between atoms: N_7  and  C_43
    3  A    between atoms: N_9  and  C_23
    4  A    between atoms: N_9  and  C_26
    5  A    between atoms: C_11  and  C_16
    6  A    between atoms: C_18  and  C_34
    7  A    between atoms: C_20  and  N_38
    8  A    between atoms: O_22  and  C_39
    9  A    between atoms: C_26  and  C_43
                            x       y       z     vdW  Elec       q    Type
                         _______ _______ _______ _____ _____    ______ ____

>  <TORSDO>
F 9

$$$$
=
 OpenBabel11042415153D

 45 50  0  0  1  0  0  0  0  0999 V2000
  187.0170  177.8320  146.0030 C   0  0  0  0  0  3  0  0  0  0  0  0
  188.5950  176.3150  144.9770 C   0  0  0  0  0  3  0  0  0  0  0  0
  187.7560  176.1780  143.8640 C   0  0  0  0  0  0  0  0  0  0  0  0
  186.1640  177.7050  144.8990 C   0  0  0  0  0  0  0  0  0  0  0  0
  186.5420  176.8770  143.8330 C   0  0  0  0  0  3  0  0  0  0  0  0
  188.2310  177.1430  146.0480 C   0  0  0  0  0  0  0  0  0  0  0  0
  190.1420  170.8560  137.4670 C   0  0  0  0  0  3  0  0  0  0  0  0
  188.1720  174.5520  138.1650 O   0  0  0  0  0  1  0  0  0  0  0  0
  189.7130  172.2980  141.3960 C   0  0  0  0  0  3  0  0  0  0  0  0
  189.0590  173.5110  141.6050 C   0  0  0  0  0  0  0  0  0  0  0  0
  188.6870  173.7980  139.2150 C   0  0  0  0  0  0  0  0  0  0  0  0
  190.6460  170.1260  138.5470 C   0  0  0  0  0  3  0  0  0  0  0  0
  188.1520  175.3170  142.7370 C   0  0  0  0  0  0  0  0  0  0  0  0
  189.8570  171.8240  140.0820 C   0  0  0  0  0  0  0  0  0  0  0  0
  188.5610  174.2370  140.5330 C   0  0  0  0  0  0  0  0  0  0  0  0
  189.4920  172.0750  137.6820 C   0  0  0  0  0  3  0  0  0  0  0  0
  189.3430  172.5740  138.9830 C   0  0  0  0  0  0  0  0  0  0  0  0
  190.5050  170.6080  139.8510 C   0  0  0  0  0  3  0  0  0  0  0  0
  188.8380  174.1030  142.8520 C   0  0  0  0  0  3  0  0  0  0  0  0
  187.8310  175.6370  141.1020 S   0  0  0  0  0  0  0  0  0  0  0  0
  184.1130  178.4720  143.6620 N   0  0  0  0  0  1  0  0  0  0  0  0
  184.8870  178.4380  144.8570 C   0  0  0  0  0  0  0  0  0  0  0  0
  184.4690  179.0440  145.8790 O   0  0  0  0  0  0  0  0  0  0  0  0
  189.0800  177.2970  147.1890 N   0  0  0  0  0  2  0  0  0  0  0  0
  191.1960  177.5090  148.3790 C   0  0  0  0  0  1  0  0  0  0  0  0
  190.4630  176.8320  147.2360 C   0  0  1  0  0  3  0  0  0  0  0  0
  190.4890  175.3320  147.4550 C   0  0  0  0  0  2  0  0  0  0  0  0
  191.8400  174.8250  147.2650 N   0  0  0  0  0  2  0  0  0  0  0  0
  191.8870  173.8070  145.0390 C   0  0  0  0  0  3  0  0  0  0  0  0
  193.6050  174.3680  143.4200 C   0  0  0  0  0  0  0  0  0  0  0  0
  192.4510  174.6820  145.9790 C   0  0  0  0  0  0  0  0  0  0  0  0
  194.1700  175.2440  144.3580 C   0  0  0  0  0  3  0  0  0  0  0  0
  193.6170  175.4130  145.6320 C   0  0  0  0  0  0  0  0  0  0  0  0
  192.4560  173.6500  143.7760 C   0  0  0  0  0  3  0  0  0  0  0  0
  193.6660  171.7300  140.7750 C   0  0  0  0  0  2  0  0  0  0  0  0
  194.9370  171.8880  141.6140 C   0  0  2  0  0  3  0  0  0  0  0  0
  194.6670  175.6660  140.1660 C   0  0  0  0  0  1  0  0  0  0  0  0
  193.6120  174.9030  140.9540 C   0  0  2  0  0  3  0  0  0  0  0  0
  194.7980  171.1840  142.8090 O   0  0  0  0  0  1  0  0  0  0  0  0
  195.3470  173.3360  141.9020 C   0  0  0  0  0  2  0  0  0  0  0  0
  194.1890  174.2110  142.1120 N   0  0  0  0  0  0  0  0  0  0  0  0
  192.8090  173.9580  140.0570 C   0  0  0  0  0  2  0  0  0  0  0  0
  193.5910  172.7220  139.6220 C   0  0  0  0  0  2  0  0  0  0  0  0
  194.2700  176.3100  146.4920 O   0  0  0  0  0  0  0  0  0  0  0  0
  194.7000  177.6170  146.1400 C   0  0  0  0  0  1  0  0  0  0  0  0
  1  6  1  0  0  0  0
  2  6  2  0  0  0  0
  3  2  1  0  0  0  0
  4  1  2  0  0  0  0
  5  3  2  0  0  0  0
  5  4  1  0  0  0  0
  6 24  1  0  0  0  0
  7 16  2  0  0  0  0
  7 12  1  0  0  0  0
  8 11  1  0  0  0  0
  9 10  1  0  0  0  0
 10 19  1  0  0  0  0
 11 15  1  0  0  0  0
 12 18  2  0  0  0  0
 13 19  2  0  0  0  0
 13  3  1  0  0  0  0
 14  9  2  0  0  0  0
 15 20  1  0  0  0  0
 15 10  2  0  0  0  0
 16 17  1  0  0  0  0
 17 11  2  0  0  0  0
 17 14  1  0  0  0  0
 18 14  1  0  0  0  0
 20 13  1  0  0  0  0
 21 22  1  0  0  0  0
 22  4  1  0  0  0  0
 22 23  2  0  0  0  0
 24 26  1  0  0  0  0
 26 27  1  0  0  0  0
 26 25  1  1  0  0  0
 28 27  1  0  0  0  0
 29 31  1  0  0  0  0
 30 34  1  0  0  0  0
 30 32  2  0  0  0  0
 31 28  1  0  0  0  0
 32 33  1  0  0  0  0
 33 31  2  0  0  0  0
 33 44  1  0  0  0  0
 34 29  2  0  0  0  0
 35 36  1  0  0  0  0
 36 40  1  0  0  0  0
 36 39  1  1  0  0  0
 38 37  1  6  0  0  0
 38 41  1  0  0  0  0
 40 41  1  0  0  0  0
 41 30  1  0  0  0  0
 42 38  1  0  0  0  0
 43 42  1  0  0  0  0
 43 35  1  0  0  0  0
 45 44  1  0  0  0  0
M  END
>  <MODEL>
8

>  <REMARK>
 VINA RESULT:      -7.3      2.726      7.642
  Name = 
  9 active torsions:
  status: ('A' for Active; 'I' for Inactive)
    1  A    between atoms: N_7  and  C_31
    2  A    between atoms: N_7  and  C_43
    3  A    between atoms: N_9  and  C_23
    4  A    between atoms: N_9  and  C_26
    5  A    between atoms: C_11  and  C_16
    6  A    between atoms: C_18  and  C_34
    7  A    between atoms: C_20  and  N_38
    8  A    between atoms: O_22  and  C_39
    9  A    between atoms: C_26  and  C_43
                            x       y       z     vdW  Elec       q    Type
                         _______ _______ _______ _____ _____    ______ ____

>  <TORSDO>
F 9

$$$$
=
 OpenBabel11042415153D

 45 50  0  0  1  0  0  0  0  0999 V2000
  191.8510  172.0550  140.4730 C   0  0  0  0  0  3  0  0  0  0  0  0
  190.2680  173.8820  140.5300 C   0  0  0  0  0  3  0  0  0  0  0  0
  190.0850  173.6940  141.9060 C   0  0  0  0  0  0  0  0  0  0  0  0
  191.6780  171.8510  141.8480 C   0  0  0  0  0  0  0  0  0  0  0  0
  190.7940  172.6760  142.5570 C   0  0  0  0  0  3  0  0  0  0  0  0
  191.1520  173.0660  139.8090 C   0  0  0  0  0  0  0  0  0  0  0  0
  184.9250  178.8470  146.5710 C   0  0  0  0  0  3  0  0  0  0  0  0
  185.3260  177.1620  142.6940 O   0  0  0  0  0  1  0  0  0  0  0  0
  188.1760  176.3210  145.7040 C   0  0  0  0  0  3  0  0  0  0  0  0
  188.2920  175.7810  144.4240 C   0  0  0  0  0  0  0  0  0  0  0  0
  186.2530  176.8950  143.6970 C   0  0  0  0  0  0  0  0  0  0  0  0
  185.8770  178.5570  147.5530 C   0  0  0  0  0  3  0  0  0  0  0  0
  189.1650  174.5640  142.6570 C   0  0  0  0  0  0  0  0  0  0  0  0
  187.0860  177.1600  145.9890 C   0  0  0  0  0  0  0  0  0  0  0  0
  187.3480  176.0670  143.4500 C   0  0  0  0  0  0  0  0  0  0  0  0
  185.0440  178.2980  145.2910 C   0  0  0  0  0  3  0  0  0  0  0  0
  186.1180  177.4510  144.9840 C   0  0  0  0  0  0  0  0  0  0  0  0
  186.9540  177.7150  147.2640 C   0  0  0  0  0  3  0  0  0  0  0  0
  189.3220  174.9370  143.9970 C   0  0  0  0  0  3  0  0  0  0  0  0
  187.7620  175.2800  142.0270 S   0  0  0  0  0  0  0  0  0  0  0  0
  193.5760  170.2040  141.9440 N   0  0  0  0  0  1  0  0  0  0  0  0
  192.4200  170.7850  142.5410 C   0  0  0  0  0  0  0  0  0  0  0  0
  192.0370  170.3740  143.6690 O   0  0  0  0  0  0  0  0  0  0  0  0
  191.3540  173.2500  138.4050 N   0  0  0  0  0  2  0  0  0  0  0  0
  192.5050  172.6150  136.3540 C   0  0  0  0  0  1  0  0  0  0  0  0
  192.6600  173.1670  137.7590 C   0  0  1  0  0  3  0  0  0  0  0  0
  193.2790  174.5480  137.6790 C   0  0  0  0  0  2  0  0  0  0  0  0
  194.5200  174.5810  138.4400 N   0  0  0  0  0  2  0  0  0  0  0  0
  193.8130  175.2890  140.6750 C   0  0  0  0  0  3  0  0  0  0  0  0
  194.6250  174.1810  142.6760 C   0  0  0  0  0  0  0  0  0  0  0  0
  194.5710  174.4330  139.8630 C   0  0  0  0  0  0  0  0  0  0  0  0
  195.3830  173.3240  141.8650 C   0  0  0  0  0  3  0  0  0  0  0  0
  195.3740  173.4330  140.4700 C   0  0  0  0  0  0  0  0  0  0  0  0
  193.8390  175.1660  142.0640 C   0  0  0  0  0  3  0  0  0  0  0  0
  193.8180  176.3480  145.6100 C   0  0  0  0  0  2  0  0  0  0  0  0
  195.3030  176.1340  145.3040 C   0  0  2  0  0  3  0  0  0  0  0  0
  194.1920  172.2610  145.7620 C   0  0  0  0  0  1  0  0  0  0  0  0
  193.6020  173.2820  144.8010 C   0  0  2  0  0  3  0  0  0  0  0  0
  195.7070  177.0240  144.3110 O   0  0  0  0  0  1  0  0  0  0  0  0
  195.6840  174.7020  144.9140 C   0  0  0  0  0  2  0  0  0  0  0  0
  194.6450  174.0490  144.1110 N   0  0  0  0  0  0  0  0  0  0  0  0
  192.5800  174.1870  145.4920 C   0  0  0  0  0  2  0  0  0  0  0  0
  193.2130  175.2140  146.4270 C   0  0  0  0  0  2  0  0  0  0  0  0
  196.1770  172.5280  139.7590 O   0  0  0  0  0  0  0  0  0  0  0  0
  196.8170  171.3880  140.3150 C   0  0  0  0  0  1  0  0  0  0  0  0
  1  4  1  0  0  0  0
  2  3  2  0  0  0  0
  3  5  1  0  0  0  0
  3 13  1  0  0  0  0
  4 22  1  0  0  0  0
  4  5  2  0  0  0  0
  6  1  2  0  0  0  0
  6  2  1  0  0  0  0
  7 12  1  0  0  0  0
  8 11  1  0  0  0  0
  9 14  1  0  0  0  0
 10  9  2  0  0  0  0
 11 17  1  0  0  0  0
 13 19  2  0  0  0  0
 14 18  1  0  0  0  0
 15 11  2  0  0  0  0
 15 10  1  0  0  0  0
 16  7  2  0  0  0  0
 17 16  1  0  0  0  0
 17 14  2  0  0  0  0
 18 12  2  0  0  0  0
 19 10  1  0  0  0  0
 20 13  1  0  0  0  0
 20 15  1  0  0  0  0
 21 22  1  0  0  0  0
 22 23  2  0  0  0  0
 24  6  1  0  0  0  0
 26 25  1  6  0  0  0
 26 24  1  0  0  0  0
 27 26  1  0  0  0  0
 27 28  1  0  0  0  0
 28 31  1  0  0  0  0
 29 34  1  0  0  0  0
 30 41  1  0  0  0  0
 31 33  1  0  0  0  0
 31 29  2  0  0  0  0
 32 30  1  0  0  0  0
 33 32  2  0  0  0  0
 34 30  2  0  0  0  0
 35 43  1  0  0  0  0
 36 39  1  6  0  0  0
 36 35  1  0  0  0  0
 38 42  1  0  0  0  0
 38 37  1  1  0  0  0
 40 36  1  0  0  0  0
 41 38  1  0  0  0  0
 41 40  1  0  0  0  0
 42 43  1  0  0  0  0
 44 45  1  0  0  0  0
 44 33  1  0  0  0  0
M  END
>  <MODEL>
9

>  <REMARK>
 VINA RESULT:      -7.2      2.846      4.475
  Name = 
  9 active torsions:
  status: ('A' for Active; 'I' for Inactive)
    1  A    between atoms: N_7  and  C_31
    2  A    between atoms: N_7  and  C_43
    3  A    between atoms: N_9  and  C_23
    4  A    between atoms: N_9  and  C_26
    5  A    between atoms: C_11  and  C_16
    6  A    between atoms: C_18  and  C_34
    7  A    between atoms: C_20  and  N_38
    8  A    between atoms: O_22  and  C_39
    9  A    between atoms: C_26  and  C_43
                            x       y       z     vdW  Elec       q    Type
                         _______ _______ _______ _____ _____    ______ ____

>  <TORSDO>
F 9

$$$$
