=
 OpenBabel11042416143D

 33 39  0  0  1  0  0  0  0  0999 V2000
  196.8520  174.1100  144.6440 C   0  0  0  0  0  0  0  0  0  0  0  0
  191.6870  176.9470  144.9570 C   0  0  1  0  0  3  0  0  0  0  0  0
  188.7250  176.6940  146.8700 N   0  0  0  0  0  0  0  0  0  0  0  0
  195.6250  175.3230  142.9020 C   0  0  0  0  0  3  0  0  0  0  0  0
  195.3220  174.4700  146.3530 C   0  0  0  0  0  3  0  0  0  0  0  0
  196.6430  173.7940  146.0970 C   0  0  0  0  0  2  0  0  0  0  0  0
  194.9340  175.0330  145.2190 C   0  0  0  0  0  0  0  0  0  0  0  0
  189.3200  177.0440  144.1720 N   0  0  0  0  0  0  0  0  0  0  0  0
  190.3060  176.2660  144.9640 C   0  0  2  0  0  3  0  0  0  0  0  0
  190.9470  175.9260  147.5030 C   0  0  0  0  0  2  0  0  0  0  0  0
  193.7800  175.7740  144.9640 C   0  0  0  0  0  0  0  0  0  0  0  0
  194.1920  176.5630  141.3820 O   0  0  0  0  0  1  0  0  0  0  0  0
  187.8100  177.0330  146.0400 C   0  0  0  0  0  0  0  0  0  0  0  0
  192.6350  176.1200  145.7820 C   0  0  0  0  0  0  0  0  0  0  0  0
  186.9680  177.8030  144.0290 C   0  0  0  0  0  2  0  0  0  0  0  0
  186.7150  177.9590  146.3650 C   0  0  0  0  0  2  0  0  0  0  0  0
  192.2890  175.5730  146.9400 C   0  0  0  0  0  3  0  0  0  0  0  0
  192.2950  176.9500  143.6200 N   0  0  0  0  0  2  0  0  0  0  0  0
  189.8420  175.8920  146.4260 C   0  0  1  0  0  3  0  0  0  0  0  0
  186.0630  178.2530  145.0930 N   0  0  0  0  0  2  0  0  0  0  0  0
  187.9380  176.7740  144.6010 C   0  0  1  0  0  3  0  0  0  0  0  0
  195.8380  174.8230  144.2000 C   0  0  0  0  0  0  0  0  0  0  0  0
  194.4480  176.0590  142.6510 C   0  0  0  0  0  0  0  0  0  0  0  0
  193.5420  176.2700  143.7050 C   0  0  0  0  0  0  0  0  0  0  0  0
  197.9410  173.7200  143.8640 O   0  0  0  0  0  0  0  0  0  0  0  0
  197.9410  172.4920  143.1540 C   0  0  0  0  0  1  0  0  0  0  0  0
  189.4390  176.5670  142.7950 C   0  0  0  0  0  2  0  0  0  0  0  0
  190.2700  172.9420  141.8370 C   0  0  0  0  0  2  0  0  0  0  0  0
  189.2670  175.0560  142.7240 C   0  0  2  0  0  3  0  0  0  0  0  0
  190.4700  174.4440  142.0160 C   0  0  0  0  0  2  0  0  0  0  0  0
  187.8400  173.2380  141.9100 N   0  0  0  0  0  2  0  0  0  0  0  0
  188.9430  172.6850  141.1250 C   0  0  0  0  0  2  0  0  0  0  0  0
  187.9900  174.6900  141.9670 C   0  0  0  0  0  2  0  0  0  0  0  0
  1  6  1  0  0  0  0
  2 18  1  6  0  0  0
  2  9  1  0  0  0  0
  2 14  1  0  0  0  0
  4 22  1  0  0  0  0
  6  5  1  0  0  0  0
  7  5  2  0  0  0  0
  8 21  1  0  0  0  0
  9  8  1  1  0  0  0
  9 19  1  0  0  0  0
 11  7  1  0  0  0  0
 11 14  1  0  0  0  0
 12 23  1  0  0  0  0
 13 16  1  0  0  0  0
 13  3  2  0  0  0  0
 14 17  2  0  0  0  0
 15 20  1  0  0  0  0
 17 10  1  0  0  0  0
 18 24  1  0  0  0  0
 19  3  1  0  0  0  0
 19 10  1  1  0  0  0
 20 16  1  0  0  0  0
 21 15  1  6  0  0  0
 21 13  1  0  0  0  0
 22  1  2  0  0  0  0
 22  7  1  0  0  0  0
 23  4  2  0  0  0  0
 23 24  1  0  0  0  0
 24 11  2  0  0  0  0
 25  1  1  0  0  0  0
 26 25  1  0  0  0  0
 27  8  1  0  0  0  0
 28 30  1  0  0  0  0
 29 27  1  6  0  0  0
 30 29  1  0  0  0  0
 31 33  1  0  0  0  0
 32 28  1  0  0  0  0
 32 31  1  0  0  0  0
 33 29  1  0  0  0  0
M  END
>  <MODEL>
1

>  <REMARK>
 VINA RESULT:      -7.8      0.000      0.000
  Name = 
  3 active torsions:
  status: ('A' for Active; 'I' for Inactive)
    1  A    between atoms: C_1  and  O_13
    2  A    between atoms: C_3  and  C_7
    3  A    between atoms: C_7  and  N_11
                            x       y       z     vdW  Elec       q    Type
                         _______ _______ _______ _____ _____    ______ ____

>  <TORSDO>
F 3

$$$$
=
 OpenBabel11042416143D

 33 39  0  0  1  0  0  0  0  0999 V2000
  185.6360  177.6670  145.4210 C   0  0  0  0  0  0  0  0  0  0  0  0
  190.9540  175.1400  145.0150 C   0  0  1  0  0  3  0  0  0  0  0  0
  194.1440  175.6110  146.4630 N   0  0  0  0  0  0  0  0  0  0  0  0
  186.6660  176.4810  143.5380 C   0  0  0  0  0  3  0  0  0  0  0  0
  187.4200  177.4390  146.8900 C   0  0  0  0  0  3  0  0  0  0  0  0
  186.0370  178.0320  146.8200 C   0  0  0  0  0  2  0  0  0  0  0  0
  187.6710  176.8700  145.7210 C   0  0  0  0  0  0  0  0  0  0  0  0
  193.1810  175.1570  143.8900 N   0  0  0  0  0  0  0  0  0  0  0  0
  192.2780  175.8980  144.8050 C   0  0  2  0  0  3  0  0  0  0  0  0
  191.9970  176.2670  147.4050 C   0  0  0  0  0  2  0  0  0  0  0  0
  188.8180  176.1910  145.3110 C   0  0  0  0  0  0  0  0  0  0  0  0
  187.9330  175.2860  141.8430 O   0  0  0  0  0  1  0  0  0  0  0  0
  194.9460  175.3030  145.5130 C   0  0  0  0  0  0  0  0  0  0  0  0
  190.0880  175.9310  145.9560 C   0  0  0  0  0  0  0  0  0  0  0  0
  195.5280  174.5310  143.4130 C   0  0  0  0  0  2  0  0  0  0  0  0
  196.1300  174.4510  145.6880 C   0  0  0  0  0  2  0  0  0  0  0  0
  190.5680  176.5280  147.0400 C   0  0  0  0  0  3  0  0  0  0  0  0
  190.1580  175.0670  143.7820 N   0  0  0  0  0  2  0  0  0  0  0  0
  192.9270  176.3360  146.1760 C   0  0  1  0  0  3  0  0  0  0  0  0
  196.6060  174.1610  144.3400 N   0  0  0  0  0  2  0  0  0  0  0  0
  194.5930  175.5170  144.1040 C   0  0  1  0  0  3  0  0  0  0  0  0
  186.6160  177.0020  144.8430 C   0  0  0  0  0  0  0  0  0  0  0  0
  187.8360  175.8070  143.1280 C   0  0  0  0  0  0  0  0  0  0  0  0
  188.8980  175.6760  144.0390 C   0  0  0  0  0  0  0  0  0  0  0  0
  184.4240  177.9740  144.8040 O   0  0  0  0  0  0  0  0  0  0  0  0
  184.1870  179.2480  144.2280 C   0  0  0  0  0  1  0  0  0  0  0  0
  192.8330  175.5900  142.5370 C   0  0  0  0  0  2  0  0  0  0  0  0
  193.7320  173.7350  139.2980 C   0  0  0  0  0  2  0  0  0  0  0  0
  192.9080  174.4290  141.5560 C   0  0  2  0  0  3  0  0  0  0  0  0
  193.7320  174.8460  140.3440 C   0  0  0  0  0  2  0  0  0  0  0  0
  191.6010  172.8950  140.1610 N   0  0  0  0  0  2  0  0  0  0  0  0
  192.2930  173.3540  138.9580 C   0  0  0  0  0  2  0  0  0  0  0  0
  191.5100  174.0100  141.1010 C   0  0  0  0  0  2  0  0  0  0  0  0
  1  6  1  0  0  0  0
  2 18  1  6  0  0  0
  2 14  1  0  0  0  0
  4 22  1  0  0  0  0
  6  5  1  0  0  0  0
  7  5  2  0  0  0  0
  8 21  1  0  0  0  0
  9  8  1  1  0  0  0
  9  2  1  0  0  0  0
  9 19  1  0  0  0  0
 11  7  1  0  0  0  0
 11 14  1  0  0  0  0
 12 23  1  0  0  0  0
 13 16  1  0  0  0  0
 13  3  2  0  0  0  0
 14 17  2  0  0  0  0
 15 20  1  0  0  0  0
 17 10  1  0  0  0  0
 18 24  1  0  0  0  0
 19  3  1  0  0  0  0
 19 10  1  1  0  0  0
 20 16  1  0  0  0  0
 21 15  1  6  0  0  0
 21 13  1  0  0  0  0
 22  1  2  0  0  0  0
 22  7  1  0  0  0  0
 23  4  2  0  0  0  0
 23 24  1  0  0  0  0
 24 11  2  0  0  0  0
 25  1  1  0  0  0  0
 26 25  1  0  0  0  0
 27  8  1  0  0  0  0
 28 30  1  0  0  0  0
 29 27  1  1  0  0  0
 30 29  1  0  0  0  0
 31 33  1  0  0  0  0
 32 28  1  0  0  0  0
 32 31  1  0  0  0  0
 33 29  1  0  0  0  0
M  END
>  <MODEL>
2

>  <REMARK>
 VINA RESULT:      -7.6      2.995      7.279
  Name = 
  3 active torsions:
  status: ('A' for Active; 'I' for Inactive)
    1  A    between atoms: C_1  and  O_13
    2  A    between atoms: C_3  and  C_7
    3  A    between atoms: C_7  and  N_11
                            x       y       z     vdW  Elec       q    Type
                         _______ _______ _______ _____ _____    ______ ____

>  <TORSDO>
F 3

$$$$
=
 OpenBabel11042416143D

 33 39  0  0  1  0  0  0  0  0999 V2000
  185.4950  178.0770  144.5020 C   0  0  0  0  0  0  0  0  0  0  0  0
  190.3580  175.4520  142.4300 C   0  0  1  0  0  3  0  0  0  0  0  0
  191.1040  172.7280  140.3050 N   0  0  0  0  0  0  0  0  0  0  0  0
  187.7300  177.9140  145.4970 C   0  0  0  0  0  3  0  0  0  0  0  0
  185.9740  176.8890  142.5650 C   0  0  0  0  0  3  0  0  0  0  0  0
  184.8340  177.6030  143.2410 C   0  0  0  0  0  3  0  0  0  0  0  0
  187.0330  176.9890  143.3550 C   0  0  0  0  0  0  0  0  0  0  0  0
  192.0420  173.6410  142.7630 N   0  0  0  0  0  0  0  0  0  0  0  0
  190.6200  173.9350  142.4550 C   0  0  2  0  0  3  0  0  0  0  0  0
  189.0600  174.0500  140.3280 C   0  0  0  0  0  2  0  0  0  0  0  0
  188.3200  176.4910  143.1550 C   0  0  2  0  0  3  0  0  0  0  0  0
  190.0170  177.5790  146.2470 O   0  0  0  0  0  1  0  0  0  0  0  0
  192.1760  172.2440  140.8130 C   0  0  0  0  0  0  0  0  0  0  0  0
  188.9080  175.6850  142.1040 C   0  0  0  0  0  0  0  0  0  0  0  0
  193.9690  172.1660  142.2710 C   0  0  0  0  0  2  0  0  0  0  0  0
  193.3500  171.8520  140.0210 C   0  0  0  0  0  2  0  0  0  0  0  0
  188.2620  174.9920  141.1760 C   0  0  0  0  0  3  0  0  0  0  0  0
  190.5220  176.0620  143.7570 N   0  0  0  0  0  2  0  0  0  0  0  0
  190.0540  173.2190  141.1670 C   0  0  1  0  0  3  0  0  0  0  0  0
  194.4080  171.5940  140.9920 N   0  0  0  0  0  2  0  0  0  0  0  0
  192.4510  172.3220  142.2530 C   0  0  1  0  0  3  0  0  0  0  0  0
  186.7550  177.6930  144.5080 C   0  0  0  0  0  0  0  0  0  0  0  0
  189.0260  177.3940  145.2910 C   0  0  0  0  0  0  0  0  0  0  0  0
  189.2920  176.6860  144.1070 C   0  0  0  0  0  0  0  0  0  0  0  0
  184.8920  178.8090  145.5250 O   0  0  0  0  0  0  0  0  0  0  0  0
  184.2100  178.1680  146.5910 C   0  0  0  0  0  1  0  0  0  0  0  0
  192.1380  173.5820  144.2210 C   0  0  0  0  0  2  0  0  0  0  0  0
  194.2470  175.8220  146.5200 C   0  0  0  0  0  2  0  0  0  0  0  0
  193.3720  174.3220  144.7170 C   0  0  2  0  0  3  0  0  0  0  0  0
  193.0590  174.9850  146.0530 C   0  0  0  0  0  2  0  0  0  0  0  0
  194.9940  176.0860  144.2030 N   0  0  0  0  0  2  0  0  0  0  0  0
  194.6370  176.8090  145.4220 C   0  0  0  0  0  2  0  0  0  0  0  0
  193.8090  175.3870  143.7110 C   0  0  0  0  0  2  0  0  0  0  0  0
  1 22  1  0  0  0  0
  1 25  1  0  0  0  0
  2 14  1  1  0  0  0
  2  9  1  0  0  0  0
  2 18  1  0  0  0  0
  3 13  2  0  0  0  0
  3 19  1  0  0  0  0
  5  6  1  0  0  0  0
  5  7  2  0  0  0  0
  6  1  2  0  0  0  0
  7 22  1  0  0  0  0
  8 27  1  0  0  0  0
  9  8  1  6  0  0  0
 10 17  1  0  0  0  0
 11 14  1  1  0  0  0
 11  7  1  0  0  0  0
 11 24  1  0  0  0  0
 13 21  1  0  0  0  0
 16 13  1  0  0  0  0
 16 20  1  0  0  0  0
 17 14  2  0  0  0  0
 18 24  1  0  0  0  0
 19 10  1  6  0  0  0
 19  9  1  0  0  0  0
 20 15  1  0  0  0  0
 21 15  1  6  0  0  0
 21  8  1  0  0  0  0
 22  4  2  0  0  0  0
 23  4  1  0  0  0  0
 23 12  1  0  0  0  0
 24 23  2  0  0  0  0
 25 26  1  0  0  0  0
 29 27  1  6  0  0  0
 29 30  1  0  0  0  0
 30 28  1  0  0  0  0
 31 32  1  0  0  0  0
 32 28  1  0  0  0  0
 33 31  1  0  0  0  0
 33 29  1  0  0  0  0
M  END
>  <MODEL>
3

>  <REMARK>
 VINA RESULT:      -7.4      3.086      8.215
  Name = 
  3 active torsions:
  status: ('A' for Active; 'I' for Inactive)
    1  A    between atoms: C_1  and  O_13
    2  A    between atoms: C_3  and  C_7
    3  A    between atoms: C_7  and  N_11
                            x       y       z     vdW  Elec       q    Type
                         _______ _______ _______ _____ _____    ______ ____

>  <TORSDO>
F 3

$$$$
=
 OpenBabel11042416143D

 33 39  0  0  1  0  0  0  0  0999 V2000
  185.9490  178.0970  145.1850 C   0  0  0  0  0  0  0  0  0  0  0  0
  190.0990  174.6070  142.8560 C   0  0  1  0  0  3  0  0  0  0  0  0
  190.1920  171.5440  141.0950 N   0  0  0  0  0  0  0  0  0  0  0  0
  188.2870  177.7850  145.8540 C   0  0  0  0  0  3  0  0  0  0  0  0
  185.9740  176.6030  143.4080 C   0  0  0  0  0  3  0  0  0  0  0  0
  185.0430  177.5440  144.1250 C   0  0  0  0  0  3  0  0  0  0  0  0
  187.1530  176.6730  144.0090 C   0  0  0  0  0  0  0  0  0  0  0  0
  191.6130  172.6570  143.2160 N   0  0  0  0  0  0  0  0  0  0  0  0
  190.1990  173.0870  143.0790 C   0  0  2  0  0  3  0  0  0  0  0  0
  188.3320  173.1090  141.2120 C   0  0  0  0  0  2  0  0  0  0  0  0
  188.3290  175.9900  143.7010 C   0  0  2  0  0  3  0  0  0  0  0  0
  190.6170  177.2640  146.3030 O   0  0  0  0  0  1  0  0  0  0  0  0
  191.2760  171.0000  141.5090 C   0  0  0  0  0  0  0  0  0  0  0  0
  188.6480  174.9790  142.7150 C   0  0  0  0  0  0  0  0  0  0  0  0
  193.2650  170.8920  142.6820 C   0  0  0  0  0  2  0  0  0  0  0  0
  192.2550  170.3540  140.6240 C   0  0  0  0  0  2  0  0  0  0  0  0
  187.7880  174.2540  142.0100 C   0  0  0  0  0  3  0  0  0  0  0  0
  190.5430  175.3670  144.0320 N   0  0  0  0  0  2  0  0  0  0  0  0
  189.3560  172.2800  142.0150 C   0  0  1  0  0  3  0  0  0  0  0  0
  193.4250  170.0980  141.4580 N   0  0  0  0  0  2  0  0  0  0  0  0
  191.7910  171.2390  142.8630 C   0  0  1  0  0  3  0  0  0  0  0  0
  187.1450  177.5580  145.0650 C   0  0  0  0  0  0  0  0  0  0  0  0
  189.4690  177.0790  145.5440 C   0  0  0  0  0  0  0  0  0  0  0  0
  189.4600  176.1860  144.4580 C   0  0  0  0  0  0  0  0  0  0  0  0
  185.6020  179.0340  146.1590 O   0  0  0  0  0  0  0  0  0  0  0  0
  184.8150  178.6780  147.2830 C   0  0  0  0  0  1  0  0  0  0  0  0
  191.9410  172.7870  144.6350 C   0  0  0  0  0  2  0  0  0  0  0  0
  194.5520  175.1740  146.1290 C   0  0  0  0  0  2  0  0  0  0  0  0
  193.3010  173.4430  144.8230 C   0  0  2  0  0  3  0  0  0  0  0  0
  193.2310  174.4240  145.9880 C   0  0  0  0  0  2  0  0  0  0  0  0
  195.0330  174.8090  143.7560 N   0  0  0  0  0  2  0  0  0  0  0  0
  194.9120  175.8280  144.7970 C   0  0  0  0  0  2  0  0  0  0  0  0
  193.7270  174.1860  143.5570 C   0  0  0  0  0  2  0  0  0  0  0  0
  1 25  1  0  0  0  0
  2 14  1  1  0  0  0
  2  9  1  0  0  0  0
  2 18  1  0  0  0  0
  3 13  2  0  0  0  0
  3 19  1  0  0  0  0
  5  7  2  0  0  0  0
  5  6  1  0  0  0  0
  6  1  2  0  0  0  0
  7 22  1  0  0  0  0
  8 27  1  0  0  0  0
  9  8  1  6  0  0  0
 10 17  1  0  0  0  0
 11 14  1  1  0  0  0
 11  7  1  0  0  0  0
 11 24  1  0  0  0  0
 13 21  1  0  0  0  0
 16 20  1  0  0  0  0
 16 13  1  0  0  0  0
 17 14  2  0  0  0  0
 18 24  1  0  0  0  0
 19 10  1  6  0  0  0
 19  9  1  0  0  0  0
 20 15  1  0  0  0  0
 21 15  1  6  0  0  0
 21  8  1  0  0  0  0
 22  1  1  0  0  0  0
 22  4  2  0  0  0  0
 23  4  1  0  0  0  0
 23 12  1  0  0  0  0
 24 23  2  0  0  0  0
 25 26  1  0  0  0  0
 29 27  1  6  0  0  0
 29 30  1  0  0  0  0
 30 28  1  0  0  0  0
 31 32  1  0  0  0  0
 32 28  1  0  0  0  0
 33 31  1  0  0  0  0
 33 29  1  0  0  0  0
M  END
>  <MODEL>
4

>  <REMARK>
 VINA RESULT:      -7.2      3.071      8.062
  Name = 
  3 active torsions:
  status: ('A' for Active; 'I' for Inactive)
    1  A    between atoms: C_1  and  O_13
    2  A    between atoms: C_3  and  C_7
    3  A    between atoms: C_7  and  N_11
                            x       y       z     vdW  Elec       q    Type
                         _______ _______ _______ _____ _____    ______ ____

>  <TORSDO>
F 3

$$$$
=
 OpenBabel11042416143D

 33 39  0  0  1  0  0  0  0  0999 V2000
  189.8370  172.7030  137.2610 C   0  0  0  0  0  0  0  0  0  0  0  0
  187.8220  174.8250  142.3850 C   0  0  1  0  0  3  0  0  0  0  0  0
  186.9060  177.9850  143.6790 N   0  0  0  0  0  0  0  0  0  0  0  0
  190.1700  171.8640  139.5410 C   0  0  0  0  0  3  0  0  0  0  0  0
  188.5180  174.5260  137.8330 C   0  0  0  0  0  3  0  0  0  0  0  0
  189.1150  173.8550  136.6250 C   0  0  0  0  0  3  0  0  0  0  0  0
  188.8790  173.8270  138.8990 C   0  0  0  0  0  0  0  0  0  0  0  0
  188.4110  175.8270  144.5940 N   0  0  0  0  0  0  0  0  0  0  0  0
  188.4030  176.0440  143.1250 C   0  0  2  0  0  3  0  0  0  0  0  0
  186.9250  177.3100  141.3400 C   0  0  0  0  0  2  0  0  0  0  0  0
  188.5660  174.0560  140.2380 C   0  0  0  0  0  0  0  0  0  0  0  0
  190.3460  171.2770  141.8920 O   0  0  0  0  0  1  0  0  0  0  0  0
  187.2610  177.9120  144.9080 C   0  0  0  0  0  0  0  0  0  0  0  0
  187.8300  175.1080  140.9080 C   0  0  0  0  0  0  0  0  0  0  0  0
  188.0790  176.8810  146.8090 C   0  0  0  0  0  2  0  0  0  0  0  0
  186.4200  178.3590  146.0280 C   0  0  0  0  0  2  0  0  0  0  0  0
  187.4840  176.2850  140.4020 C   0  0  0  0  0  3  0  0  0  0  0  0
  188.6770  173.6380  142.5210 N   0  0  0  0  0  2  0  0  0  0  0  0
  187.7320  177.3930  142.6530 C   0  0  1  0  0  3  0  0  0  0  0  0
  187.0880  177.8780  147.2330 N   0  0  0  0  0  2  0  0  0  0  0  0
  188.4060  177.0990  145.3350 C   0  0  1  0  0  3  0  0  0  0  0  0
  189.6630  172.7430  138.5660 C   0  0  1  0  0  3  0  0  0  0  0  0
  189.8590  172.1120  140.8950 C   0  0  0  0  0  0  0  0  0  0  0  0
  189.0520  173.2190  141.2140 C   0  0  0  0  0  0  0  0  0  0  0  0
  190.5840  171.7300  136.5960 O   0  0  0  0  0  0  0  0  0  0  0  0
  190.1370  171.1560  135.3790 C   0  0  0  0  0  1  0  0  0  0  0  0
  189.6770  175.1620  144.8990 C   0  0  0  0  0  2  0  0  0  0  0  0
  192.8340  175.9130  142.8460 C   0  0  0  0  0  2  0  0  0  0  0  0
  190.8570  175.9710  144.3790 C   0  0  2  0  0  3  0  0  0  0  0  0
  191.5850  175.1680  143.3070 C   0  0  0  0  0  2  0  0  0  0  0  0
  192.9530  177.0810  144.9950 N   0  0  0  0  0  2  0  0  0  0  0  0
  193.7030  176.2480  144.0560 C   0  0  0  0  0  2  0  0  0  0  0  0
  191.8280  176.3050  145.5110 C   0  0  0  0  0  2  0  0  0  0  0  0
  1 22  1  0  0  0  0
  2 14  1  6  0  0  0
  2 18  1  0  0  0  0
  2  9  1  0  0  0  0
  3 13  2  0  0  0  0
  4 23  2  0  0  0  0
  5  7  2  0  0  0  0
  6  1  2  0  0  0  0
  6  5  1  0  0  0  0
  7 11  1  0  0  0  0
  8 27  1  0  0  0  0
  8 21  1  0  0  0  0
  9  8  1  1  0  0  0
 11 14  1  0  0  0  0
 11 24  2  0  0  0  0
 13 21  1  0  0  0  0
 13 16  1  0  0  0  0
 15 20  1  0  0  0  0
 16 20  1  0  0  0  0
 17 14  2  0  0  0  0
 17 10  1  0  0  0  0
 19 10  1  6  0  0  0
 19  9  1  0  0  0  0
 19  3  1  0  0  0  0
 21 15  1  1  0  0  0
 22  7  1  0  0  0  0
 22  4  1  1  0  0  0
 23 24  1  0  0  0  0
 23 12  1  0  0  0  0
 24 18  1  0  0  0  0
 25  1  1  0  0  0  0
 26 25  1  0  0  0  0
 28 30  1  0  0  0  0
 28 32  1  0  0  0  0
 29 27  1  1  0  0  0
 29 33  1  0  0  0  0
 30 29  1  0  0  0  0
 31 33  1  0  0  0  0
 32 31  1  0  0  0  0
M  END
>  <MODEL>
5

>  <REMARK>
 VINA RESULT:      -6.9      2.782      6.570
  Name = 
  3 active torsions:
  status: ('A' for Active; 'I' for Inactive)
    1  A    between atoms: C_1  and  O_13
    2  A    between atoms: C_3  and  C_7
    3  A    between atoms: C_7  and  N_11
                            x       y       z     vdW  Elec       q    Type
                         _______ _______ _______ _____ _____    ______ ____

>  <TORSDO>
F 3

$$$$
=
 OpenBabel11042416143D

 33 39  0  0  1  0  0  0  0  0999 V2000
  186.0910  178.0710  145.1320 C   0  0  0  0  0  0  0  0  0  0  0  0
  190.1020  174.5000  142.6870 C   0  0  1  0  0  3  0  0  0  0  0  0
  190.0730  171.5930  140.6760 N   0  0  0  0  0  0  0  0  0  0  0  0
  188.3680  177.5410  145.8680 C   0  0  0  0  0  3  0  0  0  0  0  0
  186.1000  176.7300  143.2370 C   0  0  0  0  0  3  0  0  0  0  0  0
  185.2000  177.6730  143.9910 C   0  0  0  0  0  3  0  0  0  0  0  0
  187.2510  176.6670  143.8890 C   0  0  0  0  0  0  0  0  0  0  0  0
  191.4650  172.4240  142.9410 N   0  0  0  0  0  0  0  0  0  0  0  0
  190.0900  172.9630  142.7830 C   0  0  2  0  0  3  0  0  0  0  0  0
  188.3190  173.2710  140.8490 C   0  0  0  0  0  2  0  0  0  0  0  0
  188.3920  175.9300  143.5730 C   0  0  2  0  0  3  0  0  0  0  0  0
  190.6350  176.8210  146.3660 O   0  0  0  0  0  1  0  0  0  0  0  0
  191.0970  170.9420  141.0870 C   0  0  0  0  0  0  0  0  0  0  0  0
  188.6880  174.9830  142.5180 C   0  0  0  0  0  0  0  0  0  0  0  0
  193.0180  170.5970  142.3280 C   0  0  0  0  0  2  0  0  0  0  0  0
  192.0720  170.3030  140.1910 C   0  0  0  0  0  2  0  0  0  0  0  0
  187.8160  174.3820  141.7190 C   0  0  0  0  0  3  0  0  0  0  0  0
  190.5410  175.1280  143.9410 N   0  0  0  0  0  2  0  0  0  0  0  0
  189.2460  172.3080  141.6200 C   0  0  1  0  0  3  0  0  0  0  0  0
  193.1810  169.8970  141.0480 N   0  0  0  0  0  2  0  0  0  0  0  0
  191.5630  171.0310  142.4770 C   0  0  1  0  0  3  0  0  0  0  0  0
  187.2520  177.4610  145.0160 C   0  0  0  0  0  0  0  0  0  0  0  0
  189.5140  176.7810  145.5470 C   0  0  0  0  0  0  0  0  0  0  0  0
  189.4960  175.9830  144.3900 C   0  0  0  0  0  0  0  0  0  0  0  0
  185.7620  178.9470  146.1670 O   0  0  0  0  0  0  0  0  0  0  0  0
  184.9630  178.5330  147.2630 C   0  0  0  0  0  1  0  0  0  0  0  0
  191.7330  172.4140  144.3780 C   0  0  0  0  0  2  0  0  0  0  0  0
  194.9380  174.4160  143.6960 C   0  0  0  0  0  2  0  0  0  0  0  0
  193.0070  173.1820  144.7010 C   0  0  2  0  0  3  0  0  0  0  0  0
  193.6030  173.7330  143.4120 C   0  0  0  0  0  2  0  0  0  0  0  0
  195.2440  173.0290  145.6900 N   0  0  0  0  0  2  0  0  0  0  0  0
  195.8600  173.4470  144.4320 C   0  0  0  0  0  2  0  0  0  0  0  0
  194.0290  172.2760  145.3880 C   0  0  0  0  0  2  0  0  0  0  0  0
  1 25  1  0  0  0  0
  2 14  1  1  0  0  0
  2  9  1  0  0  0  0
  2 18  1  0  0  0  0
  3 13  2  0  0  0  0
  3 19  1  0  0  0  0
  5  7  2  0  0  0  0
  5  6  1  0  0  0  0
  6  1  2  0  0  0  0
  7 22  1  0  0  0  0
  8 27  1  0  0  0  0
  9  8  1  6  0  0  0
 10 17  1  0  0  0  0
 11 14  1  1  0  0  0
 11  7  1  0  0  0  0
 11 24  1  0  0  0  0
 13 21  1  0  0  0  0
 16 20  1  0  0  0  0
 16 13  1  0  0  0  0
 17 14  2  0  0  0  0
 18 24  1  0  0  0  0
 19 10  1  6  0  0  0
 19  9  1  0  0  0  0
 20 15  1  0  0  0  0
 21 15  1  6  0  0  0
 21  8  1  0  0  0  0
 22  1  1  0  0  0  0
 22  4  2  0  0  0  0
 23  4  1  0  0  0  0
 23 12  1  0  0  0  0
 24 23  2  0  0  0  0
 25 26  1  0  0  0  0
 28 32  1  0  0  0  0
 29 27  1  6  0  0  0
 29 33  1  0  0  0  0
 30 28  1  0  0  0  0
 30 29  1  0  0  0  0
 32 31  1  0  0  0  0
 33 31  1  0  0  0  0
M  END
>  <MODEL>
6

>  <REMARK>
 VINA RESULT:      -6.8      3.150      8.091
  Name = 
  3 active torsions:
  status: ('A' for Active; 'I' for Inactive)
    1  A    between atoms: C_1  and  O_13
    2  A    between atoms: C_3  and  C_7
    3  A    between atoms: C_7  and  N_11
                            x       y       z     vdW  Elec       q    Type
                         _______ _______ _______ _____ _____    ______ ____

>  <TORSDO>
F 3

$$$$
=
 OpenBabel11042416143D

 33 39  0  0  1  0  0  0  0  0999 V2000
  186.2730  178.3050  145.2840 C   0  0  0  0  0  0  0  0  0  0  0  0
  189.9180  174.9240  142.1050 C   0  0  1  0  0  3  0  0  0  0  0  0
  189.6600  172.8040  139.2890 N   0  0  0  0  0  0  0  0  0  0  0  0
  188.3320  177.1580  145.9610 C   0  0  0  0  0  3  0  0  0  0  0  0
  186.2910  177.6100  143.0690 C   0  0  0  0  0  3  0  0  0  0  0  0
  185.4720  178.4400  144.0220 C   0  0  0  0  0  3  0  0  0  0  0  0
  187.3310  177.1390  143.7410 C   0  0  0  0  0  0  0  0  0  0  0  0
  190.8880  172.6470  141.7830 N   0  0  0  0  0  0  0  0  0  0  0  0
  189.6470  173.4600  141.7140 C   0  0  2  0  0  3  0  0  0  0  0  0
  188.1910  174.6580  139.8660 C   0  0  0  0  0  2  0  0  0  0  0  0
  188.3680  176.3260  143.2840 C   0  0  2  0  0  3  0  0  0  0  0  0
  190.3770  175.9060  146.3520 O   0  0  0  0  0  1  0  0  0  0  0  0
  190.5100  171.8790  139.5390 C   0  0  0  0  0  0  0  0  0  0  0  0
  188.6310  175.6960  142.0060 C   0  0  0  0  0  0  0  0  0  0  0  0
  192.1880  170.8230  140.7290 C   0  0  0  0  0  2  0  0  0  0  0  0
  191.4680  171.3610  138.5530 C   0  0  0  0  0  2  0  0  0  0  0  0
  187.7750  175.5350  141.0060 C   0  0  0  0  0  3  0  0  0  0  0  0
  190.3000  175.0570  143.5180 N   0  0  0  0  0  2  0  0  0  0  0  0
  188.8530  173.3520  140.3540 C   0  0  1  0  0  3  0  0  0  0  0  0
  192.3880  170.5160  139.3070 N   0  0  0  0  0  2  0  0  0  0  0  0
  190.8150  171.4620  140.9140 C   0  0  1  0  0  3  0  0  0  0  0  0
  187.3260  177.5480  145.0570 C   0  0  0  0  0  0  0  0  0  0  0  0
  189.3700  176.3240  145.4920 C   0  0  0  0  0  0  0  0  0  0  0  0
  189.3610  175.9240  144.1450 C   0  0  0  0  0  0  0  0  0  0  0  0
  185.9700  178.8810  146.5180 O   0  0  0  0  0  0  0  0  0  0  0  0
  184.9350  178.3680  147.3410 C   0  0  0  0  0  1  0  0  0  0  0  0
  190.9780  172.1610  143.1590 C   0  0  0  0  0  2  0  0  0  0  0  0
  194.1060  170.6410  144.7880 C   0  0  0  0  0  2  0  0  0  0  0  0
  192.4280  172.0810  143.6160 C   0  0  2  0  0  3  0  0  0  0  0  0
  192.6900  170.7090  144.2260 C   0  0  0  0  0  2  0  0  0  0  0  0
  194.1280  173.0730  145.0770 N   0  0  0  0  0  2  0  0  0  0  0  0
  194.3240  171.7970  145.7630 C   0  0  0  0  0  2  0  0  0  0  0  0
  192.7330  173.1640  144.6500 C   0  0  0  0  0  2  0  0  0  0  0  0
  1 25  1  0  0  0  0
  2 14  1  1  0  0  0
  2 18  1  0  0  0  0
  3 13  2  0  0  0  0
  3 19  1  0  0  0  0
  5  7  2  0  0  0  0
  5  6  1  0  0  0  0
  6  1  2  0  0  0  0
  7 22  1  0  0  0  0
  8 27  1  0  0  0  0
  9  8  1  6  0  0  0
  9  2  1  0  0  0  0
 10 17  1  0  0  0  0
 11 14  1  1  0  0  0
 11  7  1  0  0  0  0
 11 24  1  0  0  0  0
 13 21  1  0  0  0  0
 16 20  1  0  0  0  0
 16 13  1  0  0  0  0
 17 14  2  0  0  0  0
 18 24  1  0  0  0  0
 19 10  1  6  0  0  0
 19  9  1  0  0  0  0
 20 15  1  0  0  0  0
 21 15  1  6  0  0  0
 21  8  1  0  0  0  0
 22  1  1  0  0  0  0
 22  4  2  0  0  0  0
 23  4  1  0  0  0  0
 23 12  1  0  0  0  0
 24 23  2  0  0  0  0
 25 26  1  0  0  0  0
 28 32  1  0  0  0  0
 29 27  1  1  0  0  0
 29 30  1  0  0  0  0
 29 33  1  0  0  0  0
 30 28  1  0  0  0  0
 31 32  1  0  0  0  0
 33 31  1  0  0  0  0
M  END
>  <MODEL>
7

>  <REMARK>
 VINA RESULT:      -6.6      3.241      8.085
  Name = 
  3 active torsions:
  status: ('A' for Active; 'I' for Inactive)
    1  A    between atoms: C_1  and  O_13
    2  A    between atoms: C_3  and  C_7
    3  A    between atoms: C_7  and  N_11
                            x       y       z     vdW  Elec       q    Type
                         _______ _______ _______ _____ _____    ______ ____

>  <TORSDO>
F 3

$$$$
=
 OpenBabel11042416143D

 33 39  0  0  1  0  0  0  0  0999 V2000
  190.6840  171.2390  137.8990 C   0  0  0  0  0  0  0  0  0  0  0  0
  188.5570  173.9740  142.6760 C   0  0  1  0  0  3  0  0  0  0  0  0
  187.5260  177.2480  143.5200 N   0  0  0  0  0  0  0  0  0  0  0  0
  191.0250  170.7330  140.2730 C   0  0  0  0  0  3  0  0  0  0  0  0
  189.3010  173.0780  138.2100 C   0  0  0  0  0  3  0  0  0  0  0  0
  189.9300  172.2680  137.1080 C   0  0  0  0  0  3  0  0  0  0  0  0
  189.6760  172.5440  139.3630 C   0  0  0  0  0  0  0  0  0  0  0  0
  189.0940  175.2890  144.7280 N   0  0  0  0  0  0  0  0  0  0  0  0
  189.0910  175.3020  143.2430 C   0  0  2  0  0  3  0  0  0  0  0  0
  187.5860  176.2600  141.2960 C   0  0  0  0  0  2  0  0  0  0  0  0
  189.3450  172.9440  140.6570 C   0  0  0  0  0  0  0  0  0  0  0  0
  191.2020  170.4800  142.6840 O   0  0  0  0  0  1  0  0  0  0  0  0
  187.8720  177.3570  144.7490 C   0  0  0  0  0  0  0  0  0  0  0  0
  188.5680  174.0520  141.1740 C   0  0  0  0  0  0  0  0  0  0  0  0
  188.7090  176.6250  146.7760 C   0  0  0  0  0  2  0  0  0  0  0  0
  187.0080  177.9240  145.7940 C   0  0  0  0  0  2  0  0  0  0  0  0
  188.1880  175.1360  140.5100 C   0  0  0  0  0  3  0  0  0  0  0  0
  189.4490  172.8460  142.9760 N   0  0  0  0  0  2  0  0  0  0  0  0
  188.3800  176.5490  142.5880 C   0  0  1  0  0  3  0  0  0  0  0  0
  187.6810  177.6350  147.0560 N   0  0  0  0  0  2  0  0  0  0  0  0
  189.0410  176.6490  145.2870 C   0  0  1  0  0  3  0  0  0  0  0  0
  190.4980  171.4520  139.1850 C   0  0  1  0  0  3  0  0  0  0  0  0
  190.6950  171.1530  141.5790 C   0  0  0  0  0  0  0  0  0  0  0  0
  189.8500  172.2650  141.7400 C   0  0  0  0  0  0  0  0  0  0  0  0
  191.4680  170.2100  137.3770 O   0  0  0  0  0  0  0  0  0  0  0  0
  191.4120  169.8590  136.0040 C   0  0  0  0  0  1  0  0  0  0  0  0
  190.3790  174.7150  145.1260 C   0  0  0  0  0  2  0  0  0  0  0  0
  193.6560  175.2980  143.2110 C   0  0  0  0  0  2  0  0  0  0  0  0
  191.5360  175.5010  144.5260 C   0  0  2  0  0  3  0  0  0  0  0  0
  192.4300  174.5540  143.7330 C   0  0  0  0  0  2  0  0  0  0  0  0
  193.4640  176.9290  145.0280 N   0  0  0  0  0  2  0  0  0  0  0  0
  194.3690  175.9860  144.3730 C   0  0  0  0  0  2  0  0  0  0  0  0
  192.3580  176.1800  145.6210 C   0  0  0  0  0  2  0  0  0  0  0  0
  1 22  1  0  0  0  0
  2 14  1  6  0  0  0
  2 18  1  0  0  0  0
  2  9  1  0  0  0  0
  3 13  2  0  0  0  0
  4 23  2  0  0  0  0
  5  7  2  0  0  0  0
  6  1  2  0  0  0  0
  6  5  1  0  0  0  0
  7 11  1  0  0  0  0
  8 27  1  0  0  0  0
  8 21  1  0  0  0  0
  9  8  1  1  0  0  0
 11 14  1  0  0  0  0
 11 24  2  0  0  0  0
 13 21  1  0  0  0  0
 13 16  1  0  0  0  0
 15 20  1  0  0  0  0
 16 20  1  0  0  0  0
 17 14  2  0  0  0  0
 17 10  1  0  0  0  0
 19 10  1  6  0  0  0
 19  9  1  0  0  0  0
 19  3  1  0  0  0  0
 21 15  1  1  0  0  0
 22  7  1  0  0  0  0
 22  4  1  1  0  0  0
 23 24  1  0  0  0  0
 23 12  1  0  0  0  0
 24 18  1  0  0  0  0
 25  1  1  0  0  0  0
 26 25  1  0  0  0  0
 28 30  1  0  0  0  0
 28 32  1  0  0  0  0
 29 27  1  1  0  0  0
 29 33  1  0  0  0  0
 30 29  1  0  0  0  0
 31 33  1  0  0  0  0
 32 31  1  0  0  0  0
M  END
>  <MODEL>
8

>  <REMARK>
 VINA RESULT:      -6.5      2.797      6.316
  Name = 
  3 active torsions:
  status: ('A' for Active; 'I' for Inactive)
    1  A    between atoms: C_1  and  O_13
    2  A    between atoms: C_3  and  C_7
    3  A    between atoms: C_7  and  N_11
                            x       y       z     vdW  Elec       q    Type
                         _______ _______ _______ _____ _____    ______ ____

>  <TORSDO>
F 3

$$$$
=
 OpenBabel11042416143D

 33 39  0  0  1  0  0  0  0  0999 V2000
  190.9300  171.0850  139.3660 C   0  0  0  0  0  0  0  0  0  0  0  0
  190.9740  175.2460  143.5500 C   0  0  1  0  0  3  0  0  0  0  0  0
  191.9600  175.4780  146.9370 N   0  0  0  0  0  0  0  0  0  0  0  0
  189.4580  173.0240  139.6600 C   0  0  0  0  0  3  0  0  0  0  0  0
  192.2620  171.4720  141.2280 C   0  0  0  0  0  3  0  0  0  0  0  0
  192.1050  170.4970  140.0910 C   0  0  0  0  0  2  0  0  0  0  0  0
  191.3230  172.3960  141.0950 C   0  0  0  0  0  0  0  0  0  0  0  0
  189.7450  176.2880  145.4560 N   0  0  0  0  0  0  0  0  0  0  0  0
  190.4370  175.0630  144.9820 C   0  0  2  0  0  3  0  0  0  0  0  0
  192.7940  173.9080  145.2740 C   0  0  0  0  0  2  0  0  0  0  0  0
  191.0710  173.5050  141.9030 C   0  0  0  0  0  0  0  0  0  0  0  0
  188.1500  174.9970  140.2080 O   0  0  0  0  0  1  0  0  0  0  0  0
  191.1040  176.2890  147.4370 C   0  0  0  0  0  0  0  0  0  0  0  0
  191.6710  173.9810  143.1320 C   0  0  0  0  0  0  0  0  0  0  0  0
  189.3270  177.7680  147.3960 C   0  0  0  0  0  2  0  0  0  0  0  0
  191.4570  177.4020  148.3290 C   0  0  0  0  0  2  0  0  0  0  0  0
  192.4690  173.3000  143.9440 C   0  0  0  0  0  3  0  0  0  0  0  0
  189.8910  175.3920  142.5690 N   0  0  0  0  0  2  0  0  0  0  0  0
  191.5440  174.5010  145.9570 C   0  0  1  0  0  3  0  0  0  0  0  0
  190.2420  178.1990  148.4590 N   0  0  0  0  0  2  0  0  0  0  0  0
  189.7300  176.3740  146.9250 C   0  0  1  0  0  3  0  0  0  0  0  0
  190.5270  172.1720  139.9910 C   0  0  0  0  0  0  0  0  0  0  0  0
  189.2030  174.1360  140.4910 C   0  0  0  0  0  0  0  0  0  0  0  0
  190.0280  174.3510  141.6080 C   0  0  0  0  0  0  0  0  0  0  0  0
  190.3360  170.5780  138.2100 O   0  0  0  0  0  0  0  0  0  0  0  0
  190.0600  169.1940  138.0650 C   0  0  0  0  0  1  0  0  0  0  0  0
  188.3540  176.1610  145.0230 C   0  0  0  0  0  2  0  0  0  0  0  0
  186.0030  179.1840  144.7290 C   0  0  0  0  0  2  0  0  0  0  0  0
  187.8260  177.4850  144.4890 C   0  0  2  0  0  3  0  0  0  0  0  0
  186.6160  177.9140  145.3120 C   0  0  0  0  0  2  0  0  0  0  0  0
  186.9200  178.6370  142.5250 N   0  0  0  0  0  2  0  0  0  0  0  0
  185.6940  178.9680  143.2490 C   0  0  0  0  0  2  0  0  0  0  0  0
  187.4240  177.3580  143.0200 C   0  0  0  0  0  2  0  0  0  0  0  0
  1 22  2  0  0  0  0
  1  6  1  0  0  0  0
  2 18  1  6  0  0  0
  2  9  1  0  0  0  0
  3 13  2  0  0  0  0
  4 22  1  0  0  0  0
  4 23  2  0  0  0  0
  6  5  1  0  0  0  0
  7  5  2  0  0  0  0
  7 11  1  0  0  0  0
  8 21  1  0  0  0  0
  9  8  1  1  0  0  0
  9 19  1  0  0  0  0
 11 14  1  0  0  0  0
 12 23  1  0  0  0  0
 13 16  1  0  0  0  0
 14  2  1  0  0  0  0
 14 17  2  0  0  0  0
 15 20  1  0  0  0  0
 16 20  1  0  0  0  0
 17 10  1  0  0  0  0
 19 10  1  6  0  0  0
 19  3  1  0  0  0  0
 21 15  1  6  0  0  0
 21 13  1  0  0  0  0
 22  7  1  0  0  0  0
 23 24  1  0  0  0  0
 24 11  2  0  0  0  0
 24 18  1  0  0  0  0
 25  1  1  0  0  0  0
 26 25  1  0  0  0  0
 27  8  1  0  0  0  0
 28 30  1  0  0  0  0
 29 27  1  1  0  0  0
 29 30  1  0  0  0  0
 31 33  1  0  0  0  0
 31 32  1  0  0  0  0
 32 28  1  0  0  0  0
 33 29  1  0  0  0  0
M  END
>  <MODEL>
9

>  <REMARK>
 VINA RESULT:      -6.3      3.176      5.583
  Name = 
  3 active torsions:
  status: ('A' for Active; 'I' for Inactive)
    1  A    between atoms: C_1  and  O_13
    2  A    between atoms: C_3  and  C_7
    3  A    between atoms: C_7  and  N_11
                            x       y       z     vdW  Elec       q    Type
                         _______ _______ _______ _____ _____    ______ ____

>  <TORSDO>
F 3

$$$$
