=
 OpenBabel11042418193D

 35 41  0  0  1  0  0  0  0  0999 V2000
  191.1110  175.4040  144.7030 C   0  0  0  0  0  0  0  0  0  0  0  0
  190.6210  175.0950  146.0780 C   0  0  1  0  0  3  0  0  0  0  0  0
  192.9500  175.5950  146.0260 N   0  0  0  0  0  0  0  0  0  0  0  0
  192.4110  175.6520  144.7190 C   0  0  0  0  0  0  0  0  0  0  0  0
  191.8730  175.2700  146.9500 C   0  0  0  0  0  3  0  0  0  0  0  0
  195.8450  176.3950  143.9630 C   0  0  0  0  0  3  0  0  0  0  0  0
  195.5660  176.1850  141.0550 C   0  0  0  0  0  3  0  0  0  0  0  0
  193.2330  175.8510  143.5670 N   0  0  0  0  0  0  0  0  0  0  0  0
  196.8130  176.4630  141.6710 C   0  0  0  0  0  2  0  0  0  0  0  0
  194.5150  176.0260  141.9350 C   0  0  0  0  0  0  0  0  0  0  0  0
  196.9490  176.5660  143.0910 C   0  0  0  0  0  3  0  0  0  0  0  0
  194.6470  176.1270  143.3270 C   0  0  1  0  0  0  0  0  0  0  0  0
  193.1290  175.7540  142.1580 C   0  0  1  0  0  3  0  0  0  0  0  0
  189.8550  177.3090  146.9410 C   0  0  0  0  0  3  0  0  0  0  0  0
  188.1750  175.6300  146.4790 C   0  0  0  0  0  3  0  0  0  0  0  0
  189.5200  176.0270  146.4940 C   0  0  0  0  0  0  0  0  0  0  0  0
  187.5070  177.7990  147.3350 C   0  0  0  0  0  0  0  0  0  0  0  0
  187.1750  176.5140  146.8950 C   0  0  0  0  0  3  0  0  0  0  0  0
  188.8540  178.1920  147.3590 C   0  0  0  0  0  3  0  0  0  0  0  0
  186.4840  178.6630  147.7340 O   0  0  0  0  0  0  0  0  0  0  0  0
  185.1150  178.4220  147.4350 C   0  0  0  0  0  2  0  0  0  0  0  0
  184.7970  178.9570  146.0840 C   0  0  0  0  0  0  0  0  0  0  0  0
  185.7730  179.6200  145.3550 O   0  0  0  0  0  0  0  0  0  0  0  0
  183.6540  178.7770  145.5880 O   0  0  0  0  0  1  0  0  0  0  0  0
  189.6530  174.2510  143.1450 O   0  0  0  0  0  0  0  0  0  0  0  0
  188.4530  176.1710  142.5990 C   0  0  0  0  0  0  0  0  0  0  0  0
  188.4050  174.6850  142.6310 C   0  0  0  0  0  2  0  0  0  0  0  0
  189.5600  176.5580  143.1640 C   0  0  0  0  0  3  0  0  0  0  0  0
  190.2730  175.3980  143.5400 N   0  0  0  0  0  0  0  0  0  0  0  0
  186.0910  177.7590  140.1010 N   0  0  0  0  0  0  0  0  0  0  0  0
  185.0110  177.8020  142.2510 C   0  0  0  0  0  2  0  0  0  0  0  0
  187.4090  177.1020  142.0590 C   0  0  2  0  0  3  0  0  0  0  0  0
  186.0900  176.9230  142.8190 C   0  0  0  0  0  2  0  0  0  0  0  0
  187.1570  176.8740  140.5670 C   0  0  0  0  0  2  0  0  0  0  0  0
  185.0170  178.1590  140.9630 C   0  0  0  0  0  3  0  0  0  0  0  0
  1  4  2  0  0  0  0
  1  2  1  0  0  0  0
  2 16  1  1  0  0  0
  2  5  1  0  0  0  0
  3  5  2  0  0  0  0
  4  3  1  0  0  0  0
  7  9  1  0  0  0  0
  7 10  2  0  0  0  0
  8  4  1  0  0  0  0
  9 11  1  0  0  0  0
 10 12  1  0  0  0  0
 11  6  2  0  0  0  0
 12  8  1  0  0  0  0
 12  6  1  1  0  0  0
 13 10  1  6  0  0  0
 13 12  1  0  0  0  0
 13  8  1  0  0  0  0
 14 19  1  0  0  0  0
 15 16  1  0  0  0  0
 15 18  2  0  0  0  0
 16 14  2  0  0  0  0
 17 19  2  0  0  0  0
 17 20  1  0  0  0  0
 18 17  1  0  0  0  0
 21 20  1  0  0  0  0
 22 21  1  0  0  0  0
 23 22  2  0  0  0  0
 24 22  1  0  0  0  0
 25 29  1  0  0  0  0
 26 27  1  0  0  0  0
 26 28  2  0  0  0  0
 27 25  1  0  0  0  0
 28 29  1  0  0  0  0
 29  1  1  0  0  0  0
 30 34  1  0  0  0  0
 30 35  2  0  0  0  0
 31 33  1  0  0  0  0
 32 26  1  1  0  0  0
 32 33  1  0  0  0  0
 34 32  1  0  0  0  0
 35 31  1  0  0  0  0
M  END
>  <MODEL>
1

>  <REMARK>
 VINA RESULT:      -8.0      0.000      0.000
  Name = 
  7 active torsions:
  status: ('A' for Active; 'I' for Inactive)
    1  A    between atoms: C_3  and  N_26
    2  A    between atoms: N_5  and  C_33
    3  A    between atoms: C_6  and  C_19
    4  A    between atoms: C_10  and  C_12
    5  A    between atoms: O_13  and  C_24
    6  A    between atoms: O_13  and  C_27
    7  A    between atoms: C_25  and  C_27
                            x       y       z     vdW  Elec       q    Type
                         _______ _______ _______ _____ _____    ______ ____

>  <TORSDO>
F 7

$$$$
=
 OpenBabel11042418193D

 35 41  0  0  1  0  0  0  0  0999 V2000
  190.7200  176.6680  145.5770 C   0  0  0  0  0  0  0  0  0  0  0  0
  192.1230  176.7840  146.0720 C   0  0  1  0  0  3  0  0  0  0  0  0
  190.5380  176.6210  147.8430 N   0  0  0  0  0  0  0  0  0  0  0  0
  189.8750  176.6030  146.5930 C   0  0  0  0  0  0  0  0  0  0  0  0
  191.9710  176.7110  147.5970 C   0  0  0  0  0  3  0  0  0  0  0  0
  187.1330  178.6880  147.6200 C   0  0  0  0  0  3  0  0  0  0  0  0
  185.0480  177.1280  146.2790 C   0  0  0  0  0  3  0  0  0  0  0  0
  188.4500  176.6220  146.4910 N   0  0  0  0  0  0  0  0  0  0  0  0
  184.7530  178.3160  146.9970 C   0  0  0  0  0  2  0  0  0  0  0  0
  186.3840  176.7810  146.2720 C   0  0  0  0  0  0  0  0  0  0  0  0
  185.7710  179.0760  147.6520 C   0  0  0  0  0  3  0  0  0  0  0  0
  187.3820  177.5260  146.9140 C   0  0  1  0  0  0  0  0  0  0  0  0
  187.4190  175.8890  145.8510 C   0  0  1  0  0  3  0  0  0  0  0  0
  193.9290  175.9660  144.5540 C   0  0  0  0  0  3  0  0  0  0  0  0
  192.8450  174.3550  145.9990 C   0  0  0  0  0  3  0  0  0  0  0  0
  192.9870  175.6750  145.5460 C   0  0  0  0  0  0  0  0  0  0  0  0
  194.5970  173.6300  144.4850 C   0  0  0  0  0  0  0  0  0  0  0  0
  193.6500  173.3400  145.4720 C   0  0  0  0  0  3  0  0  0  0  0  0
  194.7310  174.9500  144.0260 C   0  0  0  0  0  3  0  0  0  0  0  0
  195.3940  172.5960  143.9860 O   0  0  0  0  0  0  0  0  0  0  0  0
  196.7750  172.4710  144.3000 C   0  0  0  0  0  2  0  0  0  0  0  0
  196.9390  172.2760  145.7650 C   0  0  0  0  0  0  0  0  0  0  0  0
  197.2100  173.3640  146.5810 O   0  0  0  0  0  1  0  0  0  0  0  0
  196.7980  171.1310  146.2690 O   0  0  0  0  0  0  0  0  0  0  0  0
  190.3630  175.4880  143.4880 O   0  0  0  0  0  0  0  0  0  0  0  0
  188.8000  177.0260  142.7020 C   0  0  0  0  0  0  0  0  0  0  0  0
  189.2820  175.6240  142.5820 C   0  0  0  0  0  2  0  0  0  0  0  0
  189.4450  177.6000  143.6750 C   0  0  0  0  0  3  0  0  0  0  0  0
  190.3650  176.6580  144.1890 N   0  0  0  0  0  0  0  0  0  0  0  0
  186.2170  177.4930  139.9720 N   0  0  0  0  0  0  0  0  0  0  0  0
  185.3840  178.5740  141.9530 C   0  0  0  0  0  2  0  0  0  0  0  0
  187.7260  177.6890  141.8920 C   0  0  2  0  0  3  0  0  0  0  0  0
  186.4960  177.9670  142.7620 C   0  0  0  0  0  2  0  0  0  0  0  0
  187.3050  176.8360  140.6940 C   0  0  0  0  0  2  0  0  0  0  0  0
  185.2570  178.3140  140.6490 C   0  0  0  0  0  3  0  0  0  0  0  0
  1  2  1  0  0  0  0
  1  4  2  0  0  0  0
  2 16  1  6  0  0  0
  2  5  1  0  0  0  0
  4  3  1  0  0  0  0
  5  3  2  0  0  0  0
  6 11  2  0  0  0  0
  7  9  1  0  0  0  0
  8  4  1  0  0  0  0
  8 12  1  0  0  0  0
  9 11  1  0  0  0  0
 10  7  2  0  0  0  0
 10 12  1  0  0  0  0
 12  6  1  6  0  0  0
 13 10  1  1  0  0  0
 13  8  1  0  0  0  0
 13 12  1  0  0  0  0
 14 16  1  0  0  0  0
 16 15  2  0  0  0  0
 17 18  2  0  0  0  0
 18 15  1  0  0  0  0
 19 17  1  0  0  0  0
 19 14  2  0  0  0  0
 20 21  1  0  0  0  0
 20 17  1  0  0  0  0
 21 22  1  0  0  0  0
 22 24  2  0  0  0  0
 22 23  1  0  0  0  0
 25 29  1  0  0  0  0
 26 28  2  0  0  0  0
 27 26  1  0  0  0  0
 27 25  1  0  0  0  0
 28 29  1  0  0  0  0
 29  1  1  0  0  0  0
 30 35  2  0  0  0  0
 30 34  1  0  0  0  0
 31 33  1  0  0  0  0
 32 26  1  1  0  0  0
 32 33  1  0  0  0  0
 34 32  1  0  0  0  0
 35 31  1  0  0  0  0
M  END
>  <MODEL>
2

>  <REMARK>
 VINA RESULT:      -7.8      2.865      7.540
  Name = 
  7 active torsions:
  status: ('A' for Active; 'I' for Inactive)
    1  A    between atoms: C_3  and  N_26
    2  A    between atoms: N_5  and  C_33
    3  A    between atoms: C_6  and  C_19
    4  A    between atoms: C_10  and  C_12
    5  A    between atoms: O_13  and  C_24
    6  A    between atoms: O_13  and  C_27
    7  A    between atoms: C_25  and  C_27
                            x       y       z     vdW  Elec       q    Type
                         _______ _______ _______ _____ _____    ______ ____

>  <TORSDO>
F 7

$$$$
=
 OpenBabel11042418193D

 35 41  0  0  1  0  0  0  0  0999 V2000
  191.6330  174.8880  145.8620 C   0  0  0  0  0  0  0  0  0  0  0  0
  190.6800  175.5380  146.8100 C   0  0  1  0  0  3  0  0  0  0  0  0
  192.9230  176.2840  147.1080 N   0  0  0  0  0  0  0  0  0  0  0  0
  192.8660  175.3150  146.0790 C   0  0  0  0  0  0  0  0  0  0  0  0
  191.5720  176.4990  147.6080 C   0  0  0  0  0  3  0  0  0  0  0  0
  195.5680  176.5320  144.0450 C   0  0  0  0  0  3  0  0  0  0  0  0
  197.0520  174.0070  143.9730 C   0  0  0  0  0  3  0  0  0  0  0  0
  194.0440  174.8060  145.4500 N   0  0  0  0  0  0  0  0  0  0  0  0
  197.5350  175.1810  143.3390 C   0  0  0  0  0  2  0  0  0  0  0  0
  195.8390  174.1610  144.6150 C   0  0  0  0  0  0  0  0  0  0  0  0
  196.8100  176.4130  143.3740 C   0  0  0  0  0  3  0  0  0  0  0  0
  195.1280  175.3680  144.6490 C   0  0  1  0  0  0  0  0  0  0  0  0
  194.7840  173.5990  145.3990 C   0  0  2  0  0  3  0  0  0  0  0  0
  188.2580  176.0000  146.4150 C   0  0  0  0  0  3  0  0  0  0  0  0
  189.8730  177.1810  145.0550 C   0  0  0  0  0  3  0  0  0  0  0  0
  189.5890  176.2680  146.0820 C   0  0  0  0  0  0  0  0  0  0  0  0
  187.5020  177.5660  144.7170 C   0  0  0  0  0  0  0  0  0  0  0  0
  188.8330  177.8280  144.3800 C   0  0  0  0  0  3  0  0  0  0  0  0
  187.2190  176.6450  145.7380 C   0  0  0  0  0  3  0  0  0  0  0  0
  186.4850  178.2360  144.0320 O   0  0  0  0  0  0  0  0  0  0  0  0
  185.7930  179.3490  144.5830 C   0  0  0  0  0  2  0  0  0  0  0  0
  184.3680  178.9900  144.8110 C   0  0  0  0  0  0  0  0  0  0  0  0
  183.9350  178.6530  146.0850 O   0  0  0  0  0  1  0  0  0  0  0  0
  183.5480  179.0230  143.8560 O   0  0  0  0  0  0  0  0  0  0  0  0
  190.3240  172.9600  145.1890 O   0  0  0  0  0  0  0  0  0  0  0  0
  190.2850  173.5710  142.9420 C   0  0  0  0  0  0  0  0  0  0  0  0
  189.5900  172.7770  143.9900 C   0  0  0  0  0  2  0  0  0  0  0  0
  191.2400  174.2500  143.5070 C   0  0  0  0  0  3  0  0  0  0  0  0
  191.2410  173.9200  144.8800 N   0  0  0  0  0  0  0  0  0  0  0  0
  189.2980  172.3750  139.4860 N   0  0  0  0  0  0  0  0  0  0  0  0
  188.3180  174.5480  139.8100 C   0  0  0  0  0  2  0  0  0  0  0  0
  189.9470  173.6390  141.4820 C   0  0  2  0  0  3  0  0  0  0  0  0
  188.7110  174.5180  141.2610 C   0  0  0  0  0  2  0  0  0  0  0  0
  189.6820  172.2530  140.8910 C   0  0  0  0  0  2  0  0  0  0  0  0
  188.5790  173.5170  139.0020 C   0  0  0  0  0  3  0  0  0  0  0  0
  1  4  2  0  0  0  0
  1  2  1  0  0  0  0
  2 16  1  6  0  0  0
  2  5  1  0  0  0  0
  3  5  2  0  0  0  0
  4  3  1  0  0  0  0
  7 10  2  0  0  0  0
  8  4  1  0  0  0  0
  9 11  1  0  0  0  0
  9  7  1  0  0  0  0
 10 12  1  0  0  0  0
 11  6  2  0  0  0  0
 12  6  1  1  0  0  0
 12 13  1  0  0  0  0
 12  8  1  0  0  0  0
 13 10  1  1  0  0  0
 13  8  1  0  0  0  0
 15 16  2  0  0  0  0
 16 14  1  0  0  0  0
 17 19  1  0  0  0  0
 18 17  2  0  0  0  0
 18 15  1  0  0  0  0
 19 14  2  0  0  0  0
 20 21  1  0  0  0  0
 20 17  1  0  0  0  0
 21 22  1  0  0  0  0
 22 23  1  0  0  0  0
 24 22  2  0  0  0  0
 26 28  2  0  0  0  0
 26 27  1  0  0  0  0
 27 25  1  0  0  0  0
 28 29  1  0  0  0  0
 29 25  1  0  0  0  0
 29  1  1  0  0  0  0
 30 34  1  0  0  0  0
 31 33  1  0  0  0  0
 32 26  1  1  0  0  0
 33 32  1  0  0  0  0
 34 32  1  0  0  0  0
 35 30  2  0  0  0  0
 35 31  1  0  0  0  0
M  END
>  <MODEL>
3

>  <REMARK>
 VINA RESULT:      -7.7      2.269      3.123
  Name = 
  7 active torsions:
  status: ('A' for Active; 'I' for Inactive)
    1  A    between atoms: C_3  and  N_26
    2  A    between atoms: N_5  and  C_33
    3  A    between atoms: C_6  and  C_19
    4  A    between atoms: C_10  and  C_12
    5  A    between atoms: O_13  and  C_24
    6  A    between atoms: O_13  and  C_27
    7  A    between atoms: C_25  and  C_27
                            x       y       z     vdW  Elec       q    Type
                         _______ _______ _______ _____ _____    ______ ____

>  <TORSDO>
F 7

$$$$
=
 OpenBabel11042418193D

 35 41  0  0  1  0  0  0  0  0999 V2000
  192.7360  175.1170  145.4880 C   0  0  0  0  0  0  0  0  0  0  0  0
  191.9530  175.5300  146.6900 C   0  0  1  0  0  3  0  0  0  0  0  0
  194.0240  176.6920  146.5030 N   0  0  0  0  0  0  0  0  0  0  0  0
  193.8860  175.7710  145.4380 C   0  0  0  0  0  0  0  0  0  0  0  0
  192.8280  176.6160  147.3310 C   0  0  0  0  0  3  0  0  0  0  0  0
  194.5120  176.1950  141.9240 C   0  0  0  0  0  3  0  0  0  0  0  0
  197.2970  175.2920  142.0030 C   0  0  0  0  0  3  0  0  0  0  0  0
  194.9380  175.5290  144.5030 N   0  0  0  0  0  0  0  0  0  0  0  0
  196.6860  175.7380  140.8030 C   0  0  0  0  0  2  0  0  0  0  0  0
  196.4730  175.3210  143.1100 C   0  0  0  0  0  0  0  0  0  0  0  0
  195.3250  176.1780  140.7650 C   0  0  0  0  0  3  0  0  0  0  0  0
  195.1400  175.7530  143.0730 C   0  0  1  0  0  0  0  0  0  0  0  0
  196.2890  175.0980  144.5100 C   0  0  1  0  0  3  0  0  0  0  0  0
  189.4620  175.4210  146.8180 C   0  0  0  0  0  3  0  0  0  0  0  0
  190.4520  177.1460  145.4390 C   0  0  0  0  0  3  0  0  0  0  0  0
  190.6000  176.0580  146.3130 C   0  0  0  0  0  0  0  0  0  0  0  0
  188.0380  176.9680  145.5980 C   0  0  0  0  0  0  0  0  0  0  0  0
  189.1770  177.6000  145.0890 C   0  0  0  0  0  3  0  0  0  0  0  0
  188.1870  175.8730  146.4640 C   0  0  0  0  0  3  0  0  0  0  0  0
  186.7770  177.4510  145.2380 O   0  0  0  0  0  0  0  0  0  0  0  0
  185.5970  177.1350  145.9660 C   0  0  0  0  0  2  0  0  0  0  0  0
  184.9680  178.3860  146.4650 C   0  0  0  0  0  0  0  0  0  0  0  0
  185.6020  179.1380  147.4430 O   0  0  0  0  0  1  0  0  0  0  0  0
  183.8770  178.7820  145.9770 O   0  0  0  0  0  0  0  0  0  0  0  0
  191.9500  172.8810  144.9770 O   0  0  0  0  0  0  0  0  0  0  0  0
  190.7650  173.5570  143.0890 C   0  0  0  0  0  0  0  0  0  0  0  0
  190.8740  172.5040  144.1350 C   0  0  0  0  0  2  0  0  0  0  0  0
  191.6000  174.5110  143.3790 C   0  0  0  0  0  3  0  0  0  0  0  0
  192.2910  174.1290  144.5500 N   0  0  0  0  0  0  0  0  0  0  0  0
  188.2370  174.8980  140.6080 N   0  0  0  0  0  2  0  0  0  0  0  0
  189.7020  173.4070  139.4180 C   0  0  0  0  0  3  0  0  0  0  0  0
  189.8340  173.5760  141.9140 C   0  0  2  0  0  3  0  0  0  0  0  0
  190.6080  173.3280  140.6150 C   0  0  0  0  0  2  0  0  0  0  0  0
  189.0840  174.9050  141.8000 C   0  0  0  0  0  2  0  0  0  0  0  0
  188.6080  174.1730  139.4290 C   0  0  0  0  0  3  0  0  0  0  0  0
  1  2  1  0  0  0  0
  2 16  1  6  0  0  0
  2  5  1  0  0  0  0
  3  5  2  0  0  0  0
  4  1  2  0  0  0  0
  4  3  1  0  0  0  0
  7 10  2  0  0  0  0
  8 13  1  0  0  0  0
  8  4  1  0  0  0  0
  9  7  1  0  0  0  0
 11  9  1  0  0  0  0
 11  6  2  0  0  0  0
 12  6  1  1  0  0  0
 12 10  1  0  0  0  0
 12  8  1  0  0  0  0
 12 13  1  0  0  0  0
 13 10  1  6  0  0  0
 15 16  1  0  0  0  0
 16 14  2  0  0  0  0
 17 19  2  0  0  0  0
 18 15  2  0  0  0  0
 18 17  1  0  0  0  0
 19 14  1  0  0  0  0
 20 17  1  0  0  0  0
 20 21  1  0  0  0  0
 21 22  1  0  0  0  0
 22 23  1  0  0  0  0
 24 22  2  0  0  0  0
 26 28  2  0  0  0  0
 26 27  1  0  0  0  0
 27 25  1  0  0  0  0
 28 29  1  0  0  0  0
 29 25  1  0  0  0  0
 29  1  1  0  0  0  0
 30 34  1  0  0  0  0
 31 35  2  0  0  0  0
 31 33  1  0  0  0  0
 32 26  1  1  0  0  0
 33 32  1  0  0  0  0
 34 32  1  0  0  0  0
 35 30  1  0  0  0  0
M  END
>  <MODEL>
4

>  <REMARK>
 VINA RESULT:      -7.6      2.050      3.024
  Name = 
  7 active torsions:
  status: ('A' for Active; 'I' for Inactive)
    1  A    between atoms: C_3  and  N_26
    2  A    between atoms: N_5  and  C_33
    3  A    between atoms: C_6  and  C_19
    4  A    between atoms: C_10  and  C_12
    5  A    between atoms: O_13  and  C_24
    6  A    between atoms: O_13  and  C_27
    7  A    between atoms: C_25  and  C_27
                            x       y       z     vdW  Elec       q    Type
                         _______ _______ _______ _____ _____    ______ ____

>  <TORSDO>
F 7

$$$$
=
 OpenBabel11042418193D

 35 41  0  0  1  0  0  0  0  0999 V2000
  188.8370  176.5590  142.1750 C   0  0  1  0  0  3  0  0  0  0  0  0
  187.7380  177.4000  141.6150 C   0  0  1  0  0  3  0  0  0  0  0  0
  187.9300  175.2940  140.5180 N   0  0  0  0  0  0  0  0  0  0  0  0
  188.9190  175.4110  141.5220 C   0  0  0  0  0  0  0  0  0  0  0  0
  187.1230  176.5070  140.5280 C   0  0  0  0  0  2  0  0  0  0  0  0
  190.0310  173.1190  144.0580 C   0  0  0  0  0  3  0  0  0  0  0  0
  192.1080  171.8500  142.4290 C   0  0  0  0  0  3  0  0  0  0  0  0
  189.9390  174.4260  141.7000 N   0  0  0  0  0  0  0  0  0  0  0  0
  191.8380  171.4340  143.7580 C   0  0  0  0  0  2  0  0  0  0  0  0
  191.3170  172.8900  141.9820 C   0  0  0  0  0  0  0  0  0  0  0  0
  190.8240  172.0550  144.5530 C   0  0  0  0  0  3  0  0  0  0  0  0
  190.3230  173.4980  142.7610 C   0  0  1  0  0  0  0  0  0  0  0  0
  190.9500  173.7920  140.9360 C   0  0  1  0  0  3  0  0  0  0  0  0
  186.4790  179.1200  142.9160 C   0  0  0  0  0  3  0  0  0  0  0  0
  186.0730  176.7890  143.4270 C   0  0  0  0  0  3  0  0  0  0  0  0
  186.7330  177.7670  142.6670 C   0  0  0  0  0  0  0  0  0  0  0  0
  184.8990  178.5170  144.6610 C   0  0  0  0  0  0  0  0  0  0  0  0
  185.1580  177.1650  144.4160 C   0  0  0  0  0  3  0  0  0  0  0  0
  185.5670  179.4940  143.9070 C   0  0  0  0  0  3  0  0  0  0  0  0
  183.9720  178.8600  145.6490 O   0  0  0  0  0  0  0  0  0  0  0  0
  184.0360  178.3450  146.9730 C   0  0  0  0  0  2  0  0  0  0  0  0
  185.4110  178.5170  147.5110 C   0  0  0  0  0  0  0  0  0  0  0  0
  185.9410  179.7900  147.6630 O   0  0  0  0  0  0  0  0  0  0  0  0
  186.0830  177.5110  147.8600 O   0  0  0  0  0  1  0  0  0  0  0  0
  189.2300  176.9360  144.5380 O   0  0  0  0  0  0  0  0  0  0  0  0
  191.5280  176.5990  144.3730 C   0  0  0  0  0  0  0  0  0  0  0  0
  190.3670  176.5770  145.3030 C   0  0  0  0  0  2  0  0  0  0  0  0
  191.0850  176.8130  143.1690 C   0  0  0  0  0  3  0  0  0  0  0  0
  189.6840  176.9730  143.2540 N   0  0  0  0  0  0  0  0  0  0  0  0
  194.6020  176.0340  146.5130 N   0  0  0  0  0  2  0  0  0  0  0  0
  194.8960  174.7890  144.4760 C   0  0  0  0  0  3  0  0  0  0  0  0
  192.9700  176.3730  144.7160 C   0  0  2  0  0  3  0  0  0  0  0  0
  193.4690  175.0660  144.0910 C   0  0  0  0  0  2  0  0  0  0  0  0
  193.1960  176.3160  146.2290 C   0  0  0  0  0  2  0  0  0  0  0  0
  195.3980  175.2300  145.6330 C   0  0  0  0  0  3  0  0  0  0  0  0
  1 29  1  6  0  0  0
  2  1  1  0  0  0  0
  2 16  1  1  0  0  0
  3  5  1  0  0  0  0
  3  4  2  0  0  0  0
  4  8  1  0  0  0  0
  4  1  1  0  0  0  0
  5  2  1  0  0  0  0
  6 11  2  0  0  0  0
  7  9  1  0  0  0  0
  8 12  1  0  0  0  0
  9 11  1  0  0  0  0
 10  7  2  0  0  0  0
 10 12  1  0  0  0  0
 12  6  1  6  0  0  0
 13  8  1  0  0  0  0
 13 10  1  1  0  0  0
 13 12  1  0  0  0  0
 14 19  1  0  0  0  0
 15 18  2  0  0  0  0
 16 14  2  0  0  0  0
 16 15  1  0  0  0  0
 17 20  1  0  0  0  0
 18 17  1  0  0  0  0
 19 17  2  0  0  0  0
 20 21  1  0  0  0  0
 21 22  1  0  0  0  0
 22 23  2  0  0  0  0
 22 24  1  0  0  0  0
 25 27  1  0  0  0  0
 26 27  1  0  0  0  0
 28 29  1  0  0  0  0
 28 26  2  0  0  0  0
 29 25  1  0  0  0  0
 31 35  2  0  0  0  0
 32 26  1  1  0  0  0
 32 34  1  0  0  0  0
 33 31  1  0  0  0  0
 33 32  1  0  0  0  0
 34 30  1  0  0  0  0
 35 30  1  0  0  0  0
M  END
>  <MODEL>
5

>  <REMARK>
 VINA RESULT:      -7.5      2.111      5.813
  Name = 
  7 active torsions:
  status: ('A' for Active; 'I' for Inactive)
    1  A    between atoms: C_3  and  N_26
    2  A    between atoms: N_5  and  C_33
    3  A    between atoms: C_6  and  C_19
    4  A    between atoms: C_10  and  C_12
    5  A    between atoms: O_13  and  C_24
    6  A    between atoms: O_13  and  C_27
    7  A    between atoms: C_25  and  C_27
                            x       y       z     vdW  Elec       q    Type
                         _______ _______ _______ _____ _____    ______ ____

>  <TORSDO>
F 7

$$$$
=
 OpenBabel11042418193D

 35 41  0  0  1  0  0  0  0  0999 V2000
  191.2500  175.1310  146.0760 C   0  0  0  0  0  0  0  0  0  0  0  0
  190.1630  175.7840  146.8640 C   0  0  1  0  0  3  0  0  0  0  0  0
  192.3270  176.5980  147.4370 N   0  0  0  0  0  0  0  0  0  0  0  0
  192.4320  175.5970  146.4430 C   0  0  0  0  0  0  0  0  0  0  0  0
  190.9160  176.7920  147.7430 C   0  0  0  0  0  3  0  0  0  0  0  0
  193.9450  172.4410  145.6250 C   0  0  0  0  0  3  0  0  0  0  0  0
  196.5050  173.5540  144.7390 C   0  0  0  0  0  3  0  0  0  0  0  0
  193.6960  175.1010  145.9970 N   0  0  0  0  0  0  0  0  0  0  0  0
  196.2370  172.1620  144.6950 C   0  0  0  0  0  2  0  0  0  0  0  0
  195.4680  174.3230  145.2290 C   0  0  0  0  0  0  0  0  0  0  0  0
  194.9870  171.6190  145.1280 C   0  0  0  0  0  3  0  0  0  0  0  0
  194.2430  173.7910  145.6540 C   0  0  1  0  0  0  0  0  0  0  0  0
  194.9440  175.6100  145.5610 C   0  0  2  0  0  3  0  0  0  0  0  0
  187.8030  176.2140  146.1700 C   0  0  0  0  0  3  0  0  0  0  0  0
  189.5680  177.3050  144.9240 C   0  0  0  0  0  3  0  0  0  0  0  0
  189.1650  176.4620  145.9710 C   0  0  0  0  0  0  0  0  0  0  0  0
  187.2520  177.6620  144.2970 C   0  0  0  0  0  0  0  0  0  0  0  0
  188.6150  177.9030  144.0950 C   0  0  0  0  0  3  0  0  0  0  0  0
  186.8500  176.8110  145.3390 C   0  0  0  0  0  3  0  0  0  0  0  0
  186.3230  178.2830  143.4580 O   0  0  0  0  0  0  0  0  0  0  0  0
  185.5460  177.5640  142.5080 C   0  0  0  0  0  2  0  0  0  0  0  0
  185.9620  177.9440  141.1320 C   0  0  0  0  0  0  0  0  0  0  0  0
  187.2870  177.8020  140.7460 O   0  0  0  0  0  1  0  0  0  0  0  0
  185.1080  178.3630  140.3070 O   0  0  0  0  0  0  0  0  0  0  0  0
  190.2060  173.0620  145.3590 O   0  0  0  0  0  0  0  0  0  0  0  0
  190.1920  173.6630  143.1090 C   0  0  0  0  0  0  0  0  0  0  0  0
  189.5510  172.7940  144.1310 C   0  0  0  0  0  2  0  0  0  0  0  0
  191.0350  174.4500  143.7100 C   0  0  0  0  0  3  0  0  0  0  0  0
  191.0160  174.1230  145.0840 N   0  0  0  0  0  0  0  0  0  0  0  0
  189.3540  172.3690  139.6490 N   0  0  0  0  0  0  0  0  0  0  0  0
  188.3390  174.5380  139.8790 C   0  0  0  0  0  2  0  0  0  0  0  0
  189.9110  173.6910  141.6360 C   0  0  2  0  0  3  0  0  0  0  0  0
  188.6750  174.5490  141.3440 C   0  0  0  0  0  2  0  0  0  0  0  0
  189.6840  172.2870  141.0710 C   0  0  0  0  0  2  0  0  0  0  0  0
  188.6430  173.4900  139.1080 C   0  0  0  0  0  3  0  0  0  0  0  0
  1  4  2  0  0  0  0
  1  2  1  0  0  0  0
  2 16  1  6  0  0  0
  2  5  1  0  0  0  0
  3  5  2  0  0  0  0
  4  3  1  0  0  0  0
  7 10  2  0  0  0  0
  8  4  1  0  0  0  0
  9  7  1  0  0  0  0
  9 11  1  0  0  0  0
 10 12  1  0  0  0  0
 11  6  2  0  0  0  0
 12  6  1  6  0  0  0
 12  8  1  0  0  0  0
 13 10  1  6  0  0  0
 13 12  1  0  0  0  0
 13  8  1  0  0  0  0
 15 16  2  0  0  0  0
 16 14  1  0  0  0  0
 17 19  1  0  0  0  0
 18 17  2  0  0  0  0
 18 15  1  0  0  0  0
 19 14  2  0  0  0  0
 20 17  1  0  0  0  0
 21 20  1  0  0  0  0
 22 21  1  0  0  0  0
 23 22  1  0  0  0  0
 24 22  2  0  0  0  0
 26 28  2  0  0  0  0
 26 27  1  0  0  0  0
 27 25  1  0  0  0  0
 28 29  1  0  0  0  0
 29 25  1  0  0  0  0
 29  1  1  0  0  0  0
 30 34  1  0  0  0  0
 31 33  1  0  0  0  0
 32 26  1  1  0  0  0
 33 32  1  0  0  0  0
 34 32  1  0  0  0  0
 35 30  2  0  0  0  0
 35 31  1  0  0  0  0
M  END
>  <MODEL>
6

>  <REMARK>
 VINA RESULT:      -7.5      2.675      3.920
  Name = 
  7 active torsions:
  status: ('A' for Active; 'I' for Inactive)
    1  A    between atoms: C_3  and  N_26
    2  A    between atoms: N_5  and  C_33
    3  A    between atoms: C_6  and  C_19
    4  A    between atoms: C_10  and  C_12
    5  A    between atoms: O_13  and  C_24
    6  A    between atoms: O_13  and  C_27
    7  A    between atoms: C_25  and  C_27
                            x       y       z     vdW  Elec       q    Type
                         _______ _______ _______ _____ _____    ______ ____

>  <TORSDO>
F 7

$$$$
=
 OpenBabel11042418193D

 35 41  0  0  1  0  0  0  0  0999 V2000
  192.6040  175.0740  145.6440 C   0  0  0  0  0  0  0  0  0  0  0  0
  191.6120  175.5860  146.6360 C   0  0  1  0  0  3  0  0  0  0  0  0
  193.7600  176.5850  146.8880 N   0  0  0  0  0  0  0  0  0  0  0  0
  193.7840  175.6390  145.8360 C   0  0  0  0  0  0  0  0  0  0  0  0
  192.4100  176.6270  147.4320 C   0  0  0  0  0  3  0  0  0  0  0  0
  195.4690  176.4150  142.7570 C   0  0  0  0  0  3  0  0  0  0  0  0
  197.8780  174.8500  143.3280 C   0  0  0  0  0  3  0  0  0  0  0  0
  194.9930  175.2870  145.1600 N   0  0  0  0  0  0  0  0  0  0  0  0
  197.7400  175.6080  142.1370 C   0  0  0  0  0  2  0  0  0  0  0  0
  196.7920  174.9170  144.1780 C   0  0  0  0  0  0  0  0  0  0  0  0
  196.5630  176.3710  141.8580 C   0  0  0  0  0  3  0  0  0  0  0  0
  195.6390  175.6650  143.9060 C   0  0  1  0  0  0  0  0  0  0  0  0
  196.1710  174.5390  145.4090 C   0  0  2  0  0  3  0  0  0  0  0  0
  190.6120  177.3060  145.1280 C   0  0  0  0  0  3  0  0  0  0  0  0
  189.1230  175.7090  146.1700 C   0  0  0  0  0  3  0  0  0  0  0  0
  190.4200  176.1990  145.9590 C   0  0  0  0  0  0  0  0  0  0  0  0
  188.2210  177.4210  144.7060 C   0  0  0  0  0  0  0  0  0  0  0  0
  188.0300  176.3170  145.5430 C   0  0  0  0  0  3  0  0  0  0  0  0
  189.5190  177.9150  144.5030 C   0  0  0  0  0  3  0  0  0  0  0  0
  187.1110  178.0000  144.0850 O   0  0  0  0  0  0  0  0  0  0  0  0
  185.7760  177.7370  144.5000 C   0  0  0  0  0  2  0  0  0  0  0  0
  185.0900  179.0170  144.8170 C   0  0  0  0  0  0  0  0  0  0  0  0
  184.0650  179.0410  145.7520 O   0  0  0  0  0  1  0  0  0  0  0  0
  185.4600  180.0860  144.2630 O   0  0  0  0  0  0  0  0  0  0  0  0
  191.7640  172.8880  145.0130 O   0  0  0  0  0  0  0  0  0  0  0  0
  191.0900  173.5810  142.8940 C   0  0  0  0  0  0  0  0  0  0  0  0
  190.8750  172.5640  143.9580 C   0  0  0  0  0  2  0  0  0  0  0  0
  191.9180  174.4780  143.3450 C   0  0  0  0  0  3  0  0  0  0  0  0
  192.2970  174.0890  144.6490 N   0  0  0  0  0  0  0  0  0  0  0  0
  189.3650  172.3370  139.7600 N   0  0  0  0  0  0  0  0  0  0  0  0
  188.5170  174.5390  140.2310 C   0  0  0  0  0  2  0  0  0  0  0  0
  190.4490  173.6280  141.5390 C   0  0  2  0  0  3  0  0  0  0  0  0
  189.2110  174.5300  141.5650 C   0  0  0  0  0  2  0  0  0  0  0  0
  190.0390  172.2360  141.0540 C   0  0  0  0  0  2  0  0  0  0  0  0
  188.5810  173.4850  139.4120 C   0  0  0  0  0  3  0  0  0  0  0  0
  1  4  2  0  0  0  0
  1  2  1  0  0  0  0
  2 16  1  6  0  0  0
  2  5  1  0  0  0  0
  3  5  2  0  0  0  0
  4  3  1  0  0  0  0
  7 10  2  0  0  0  0
  8 13  1  0  0  0  0
  8  4  1  0  0  0  0
  9  7  1  0  0  0  0
 11  9  1  0  0  0  0
 11  6  2  0  0  0  0
 12  6  1  1  0  0  0
 12 10  1  0  0  0  0
 12  8  1  0  0  0  0
 12 13  1  0  0  0  0
 13 10  1  1  0  0  0
 14 16  1  0  0  0  0
 16 15  2  0  0  0  0
 17 18  2  0  0  0  0
 18 15  1  0  0  0  0
 19 17  1  0  0  0  0
 19 14  2  0  0  0  0
 20 21  1  0  0  0  0
 20 17  1  0  0  0  0
 21 22  1  0  0  0  0
 22 23  1  0  0  0  0
 24 22  2  0  0  0  0
 26 28  2  0  0  0  0
 26 27  1  0  0  0  0
 27 25  1  0  0  0  0
 28 29  1  0  0  0  0
 29 25  1  0  0  0  0
 29  1  1  0  0  0  0
 30 34  1  0  0  0  0
 31 33  1  0  0  0  0
 32 33  1  0  0  0  0
 32 26  1  1  0  0  0
 34 32  1  0  0  0  0
 35 30  2  0  0  0  0
 35 31  1  0  0  0  0
M  END
>  <MODEL>
7

>  <REMARK>
 VINA RESULT:      -7.5      2.199      3.191
  Name = 
  7 active torsions:
  status: ('A' for Active; 'I' for Inactive)
    1  A    between atoms: C_3  and  N_26
    2  A    between atoms: N_5  and  C_33
    3  A    between atoms: C_6  and  C_19
    4  A    between atoms: C_10  and  C_12
    5  A    between atoms: O_13  and  C_24
    6  A    between atoms: O_13  and  C_27
    7  A    between atoms: C_25  and  C_27
                            x       y       z     vdW  Elec       q    Type
                         _______ _______ _______ _____ _____    ______ ____

>  <TORSDO>
F 7

$$$$
=
 OpenBabel11042418193D

 35 41  0  0  1  0  0  0  0  0999 V2000
  188.4620  176.1640  141.8610 C   0  0  1  0  0  3  0  0  0  0  0  0
  187.7740  177.4510  141.5510 C   0  0  1  0  0  3  0  0  0  0  0  0
  187.4280  175.7990  139.8700 N   0  0  0  0  0  0  0  0  0  0  0  0
  188.2600  175.2860  140.8920 C   0  0  0  0  0  0  0  0  0  0  0  0
  187.0560  177.1620  140.2250 C   0  0  0  0  0  2  0  0  0  0  0  0
  191.5500  173.9150  140.4250 C   0  0  0  0  0  3  0  0  0  0  0  0
  190.7520  171.1110  140.7110 C   0  0  0  0  0  3  0  0  0  0  0  0
  188.8790  174.0020  140.7930 N   0  0  0  0  0  0  0  0  0  0  0  0
  192.1030  171.4900  140.5030 C   0  0  0  0  0  2  0  0  0  0  0  0
  189.8630  172.1670  140.7650 C   0  0  0  0  0  0  0  0  0  0  0  0
  192.4920  172.8580  140.3620 C   0  0  0  0  0  3  0  0  0  0  0  0
  190.2440  173.5080  140.6270 C   0  0  1  0  0  0  0  0  0  0  0  0
  188.5230  172.6370  140.9280 C   0  0  2  0  0  3  0  0  0  0  0  0
  186.1130  176.8260  143.3080 C   0  0  0  0  0  3  0  0  0  0  0  0
  186.5590  179.1780  142.9550 C   0  0  0  0  0  3  0  0  0  0  0  0
  186.8070  177.8350  142.6340 C   0  0  0  0  0  0  0  0  0  0  0  0
  184.9450  178.4950  144.6330 C   0  0  0  0  0  0  0  0  0  0  0  0
  185.6350  179.5040  143.9530 C   0  0  0  0  0  3  0  0  0  0  0  0
  185.1870  177.1520  144.3040 C   0  0  0  0  0  3  0  0  0  0  0  0
  184.0360  178.8520  145.6330 O   0  0  0  0  0  0  0  0  0  0  0  0
  184.0670  178.2850  146.9360 C   0  0  0  0  0  2  0  0  0  0  0  0
  185.4380  178.4020  147.5000 C   0  0  0  0  0  0  0  0  0  0  0  0
  186.1790  177.2590  147.7600 O   0  0  0  0  0  1  0  0  0  0  0  0
  185.9390  179.5380  147.7090 O   0  0  0  0  0  0  0  0  0  0  0  0
  188.9620  174.9030  143.8720 O   0  0  0  0  0  0  0  0  0  0  0  0
  191.2210  175.4710  143.8580 C   0  0  0  0  0  0  0  0  0  0  0  0
  190.2290  174.4740  144.3420 C   0  0  0  0  0  2  0  0  0  0  0  0
  190.6100  176.3110  143.0740 C   0  0  0  0  0  3  0  0  0  0  0  0
  189.2460  175.9450  143.0410 N   0  0  0  0  0  0  0  0  0  0  0  0
  194.9260  176.0230  143.3010 N   0  0  0  0  0  0  0  0  0  0  0  0
  194.4460  176.5760  145.5920 C   0  0  0  0  0  2  0  0  0  0  0  0
  192.6890  175.5100  144.1590 C   0  0  2  0  0  3  0  0  0  0  0  0
  192.9710  176.4740  145.3170 C   0  0  0  0  0  2  0  0  0  0  0  0
  193.5110  175.9410  142.9430 C   0  0  0  0  0  2  0  0  0  0  0  0
  195.3450  176.3870  144.6230 C   0  0  0  0  0  3  0  0  0  0  0  0
  1 29  1  6  0  0  0
  2  1  1  0  0  0  0
  2 16  1  1  0  0  0
  3  5  1  0  0  0  0
  3  4  2  0  0  0  0
  4  1  1  0  0  0  0
  5  2  1  0  0  0  0
  7 10  2  0  0  0  0
  8  4  1  0  0  0  0
  8 13  1  0  0  0  0
  9  7  1  0  0  0  0
 11  6  2  0  0  0  0
 11  9  1  0  0  0  0
 12  6  1  1  0  0  0
 12 10  1  0  0  0  0
 12  8  1  0  0  0  0
 12 13  1  0  0  0  0
 13 10  1  1  0  0  0
 14 19  1  0  0  0  0
 15 18  2  0  0  0  0
 16 15  1  0  0  0  0
 16 14  2  0  0  0  0
 17 20  1  0  0  0  0
 18 17  1  0  0  0  0
 19 17  2  0  0  0  0
 20 21  1  0  0  0  0
 21 22  1  0  0  0  0
 22 24  2  0  0  0  0
 22 23  1  0  0  0  0
 25 27  1  0  0  0  0
 26 27  1  0  0  0  0
 28 26  2  0  0  0  0
 29 28  1  0  0  0  0
 29 25  1  0  0  0  0
 30 35  2  0  0  0  0
 32 26  1  6  0  0  0
 32 33  1  0  0  0  0
 33 31  1  0  0  0  0
 34 30  1  0  0  0  0
 34 32  1  0  0  0  0
 35 31  1  0  0  0  0
M  END
>  <MODEL>
8

>  <REMARK>
 VINA RESULT:      -7.4      2.098      5.803
  Name = 
  7 active torsions:
  status: ('A' for Active; 'I' for Inactive)
    1  A    between atoms: C_3  and  N_26
    2  A    between atoms: N_5  and  C_33
    3  A    between atoms: C_6  and  C_19
    4  A    between atoms: C_10  and  C_12
    5  A    between atoms: O_13  and  C_24
    6  A    between atoms: O_13  and  C_27
    7  A    between atoms: C_25  and  C_27
                            x       y       z     vdW  Elec       q    Type
                         _______ _______ _______ _____ _____    ______ ____

>  <TORSDO>
F 7

$$$$
=
 OpenBabel11042418193D

 35 41  0  0  1  0  0  0  0  0999 V2000
  188.9840  176.1820  145.0390 C   0  0  0  0  0  0  0  0  0  0  0  0
  187.7400  176.4910  145.8040 C   0  0  1  0  0  3  0  0  0  0  0  0
  189.6700  177.5310  146.7360 N   0  0  0  0  0  0  0  0  0  0  0  0
  190.0300  176.7620  145.6050 C   0  0  0  0  0  0  0  0  0  0  0  0
  188.2280  177.4300  146.9160 C   0  0  0  0  0  3  0  0  0  0  0  0
  192.6230  174.3070  146.0150 C   0  0  0  0  0  3  0  0  0  0  0  0
  194.5930  175.6630  144.3240 C   0  0  0  0  0  3  0  0  0  0  0  0
  191.3930  176.5720  145.2200 N   0  0  0  0  0  0  0  0  0  0  0  0
  194.8650  174.4140  144.9390 C   0  0  0  0  0  2  0  0  0  0  0  0
  193.3380  176.1720  144.5910 C   0  0  0  0  0  0  0  0  0  0  0  0
  193.9030  173.7520  145.7660 C   0  0  0  0  0  3  0  0  0  0  0  0
  192.3950  175.5240  145.4000 C   0  0  1  0  0  0  0  0  0  0  0  0
  192.3660  177.2040  144.4060 C   0  0  1  0  0  3  0  0  0  0  0  0
  186.2090  178.4000  145.3090 C   0  0  0  0  0  3  0  0  0  0  0  0
  186.2050  176.5200  143.7850 C   0  0  0  0  0  3  0  0  0  0  0  0
  186.7060  177.1470  144.9360 C   0  0  0  0  0  0  0  0  0  0  0  0
  184.7320  178.4030  143.3780 C   0  0  0  0  0  0  0  0  0  0  0  0
  185.2260  177.1480  143.0100 C   0  0  0  0  0  3  0  0  0  0  0  0
  185.2270  179.0270  144.5350 C   0  0  0  0  0  3  0  0  0  0  0  0
  183.7610  179.0110  142.5770 O   0  0  0  0  0  0  0  0  0  0  0  0
  183.0050  178.2920  141.6110 C   0  0  0  0  0  2  0  0  0  0  0  0
  181.6070  178.7990  141.5920 C   0  0  0  0  0  0  0  0  0  0  0  0
  181.0740  179.4010  142.7230 O   0  0  0  0  0  1  0  0  0  0  0  0
  180.9190  178.7140  140.5410 O   0  0  0  0  0  0  0  0  0  0  0  0
  189.4030  175.8640  142.6710 O   0  0  0  0  0  0  0  0  0  0  0  0
  189.9030  173.6010  142.9010 C   0  0  0  0  0  0  0  0  0  0  0  0
  190.0950  174.8000  142.0420 C   0  0  0  0  0  2  0  0  0  0  0  0
  189.2820  173.9680  143.9840 C   0  0  0  0  0  3  0  0  0  0  0  0
  189.0140  175.3500  143.8730 N   0  0  0  0  0  0  0  0  0  0  0  0
  190.8700  170.5300  140.9070 N   0  0  0  0  0  0  0  0  0  0  0  0
  192.3030  170.6230  142.8370 C   0  0  0  0  0  2  0  0  0  0  0  0
  190.3700  172.2030  142.6260 C   0  0  2  0  0  3  0  0  0  0  0  0
  191.7920  172.0000  143.1600 C   0  0  0  0  0  2  0  0  0  0  0  0
  190.3500  171.8780  141.1310 C   0  0  0  0  0  2  0  0  0  0  0  0
  191.8750  169.9630  141.7570 C   0  0  0  0  0  3  0  0  0  0  0  0
  1  4  2  0  0  0  0
  1  2  1  0  0  0  0
  2 16  1  6  0  0  0
  2  5  1  0  0  0  0
  3  5  2  0  0  0  0
  4  3  1  0  0  0  0
  7 10  2  0  0  0  0
  7  9  1  0  0  0  0
  8 12  1  0  0  0  0
  8  4  1  0  0  0  0
  9 11  1  0  0  0  0
 10 12  1  0  0  0  0
 11  6  2  0  0  0  0
 12  6  1  6  0  0  0
 13 10  1  1  0  0  0
 13  8  1  0  0  0  0
 13 12  1  0  0  0  0
 15 16  2  0  0  0  0
 16 14  1  0  0  0  0
 17 19  1  0  0  0  0
 18 17  2  0  0  0  0
 18 15  1  0  0  0  0
 19 14  2  0  0  0  0
 20 17  1  0  0  0  0
 21 20  1  0  0  0  0
 22 21  1  0  0  0  0
 22 23  1  0  0  0  0
 24 22  2  0  0  0  0
 25 29  1  0  0  0  0
 26 28  2  0  0  0  0
 27 25  1  0  0  0  0
 27 26  1  0  0  0  0
 29 28  1  0  0  0  0
 29  1  1  0  0  0  0
 30 34  1  0  0  0  0
 30 35  2  0  0  0  0
 31 33  1  0  0  0  0
 32 26  1  6  0  0  0
 32 33  1  0  0  0  0
 34 32  1  0  0  0  0
 35 31  1  0  0  0  0
M  END
>  <MODEL>
9

>  <REMARK>
 VINA RESULT:      -7.2      2.827      5.009
  Name = 
  7 active torsions:
  status: ('A' for Active; 'I' for Inactive)
    1  A    between atoms: C_3  and  N_26
    2  A    between atoms: N_5  and  C_33
    3  A    between atoms: C_6  and  C_19
    4  A    between atoms: C_10  and  C_12
    5  A    between atoms: O_13  and  C_24
    6  A    between atoms: O_13  and  C_27
    7  A    between atoms: C_25  and  C_27
                            x       y       z     vdW  Elec       q    Type
                         _______ _______ _______ _____ _____    ______ ____

>  <TORSDO>
F 7

$$$$
