=
 OpenBabel11042416413D

 55 59  0  0  1  0  0  0  0  0999 V2000
  190.9420  177.6180  144.3800 C   0  0  0  0  0  3  0  0  0  0  0  0
  190.5890  177.3540  143.0580 C   0  0  0  0  0  3  0  0  0  0  0  0
  187.3750  177.1260  144.7400 C   0  0  0  0  0  2  0  0  0  0  0  0
  188.7910  177.3980  144.3550 C   0  0  0  0  0  0  0  0  0  0  0  0
  186.5000  177.3790  143.5870 N   0  0  0  0  0  0  0  0  0  0  0  0
  189.8390  177.6530  145.1580 N   0  0  0  0  0  0  0  0  0  0  0  0
  185.9420  177.5150  141.2720 N   0  0  0  0  0  2  0  0  0  0  0  0
  186.8660  177.2400  142.3360 C   0  0  0  0  0  0  0  0  0  0  0  0
  188.2780  176.7990  141.9690 C   0  0  1  0  0  3  0  0  0  0  0  0
  189.2130  177.2130  143.0740 C   0  0  0  0  0  0  0  0  0  0  0  0
  188.3220  175.2760  141.7590 C   0  0  2  0  0  3  0  0  0  0  0  0
  189.0590  173.1470  138.8440 N   0  0  0  0  0  1  0  0  0  0  0  0
  189.8810  174.5490  142.3450 S   0  0  0  0  0  0  0  0  0  0  0  0
  188.6030  173.4420  140.1920 C   0  0  2  0  0  3  0  0  0  0  0  0
  188.2340  174.9050  140.2950 C   0  0  0  0  0  2  0  0  0  0  0  0
  189.7130  173.1470  141.1950 C   0  0  2  0  0  3  0  0  0  0  0  0
  189.3660  171.8970  141.9900 C   0  0  0  0  0  2  0  0  0  0  0  0
  190.5550  170.9580  142.0870 C   0  0  0  0  0  2  0  0  0  0  0  0
  190.7760  170.2830  140.8160 N   0  0  0  0  0  2  0  0  0  0  0  0
  193.0200  168.8330  140.8160 S   0  0  0  0  0  0  0  0  0  0  0  0
  192.0780  170.0630  140.2570 C   0  0  0  0  0  0  0  0  0  0  0  0
  192.5490  170.9230  139.2040 N   0  0  0  0  0  0  0  0  0  0  0  0
  191.8540  170.9420  137.9210 C   0  0  0  0  0  1  0  0  0  0  0  0
  194.1050  172.3520  138.1900 O   0  0  0  0  0  1  0  0  0  0  0  0
  193.6920  171.8170  139.4110 C   0  0  1  0  0  3  0  0  0  0  0  0
  193.3490  172.9330  140.3950 C   0  0  1  0  0  3  0  0  0  0  0  0
  194.0250  172.7280  141.6000 O   0  0  0  0  0  1  0  0  0  0  0  0
  195.1210  174.7900  140.9550 C   0  0  0  0  0  1  0  0  0  0  0  0
  193.8320  174.5440  139.7030 S   0  0  0  0  0  0  0  0  0  0  0  0
  182.3870  178.1500  140.3400 C   0  0  0  0  0  3  0  0  0  0  0  0
  184.5630  177.8980  141.3890 C   0  0  0  0  0  0  0  0  0  0  0  0
  181.8380  178.6070  141.5500 C   0  0  0  0  0  0  0  0  0  0  0  0
  182.6650  178.6940  142.6800 C   0  0  0  0  0  3  0  0  0  0  0  0
  184.0150  178.3440  142.5990 C   0  0  0  0  0  3  0  0  0  0  0  0
  183.7390  177.8030  140.2620 C   0  0  0  0  0  3  0  0  0  0  0  0
  180.0530  179.2730  142.9610 F   0  0  0  0  0  0  0  0  0  0  0  0
  180.3700  178.9450  141.6450 C   0  0  2  0  0  0  0  0  0  0  0  0
  179.6010  177.7720  141.2160 N   0  0  0  0  0  2  0  0  0  0  0  0
  178.9490  177.2540  142.2870 O   0  0  0  0  0  1  0  0  0  0  0  0
  180.0780  180.1450  140.7300 C   0  0  0  0  0  2  0  0  0  0  0  0
  178.1890  181.5890  140.4520 O   0  0  0  0  0  1  0  0  0  0  0  0
  178.6120  180.2630  140.3260 C   0  0  0  0  0  2  0  0  0  0  0  0
  190.2540  176.8550  147.4220 C   0  0  0  0  0  3  0  0  0  0  0  0
  189.8580  177.8120  146.5820 C   0  0  0  0  0  3  0  0  0  0  0  0
  190.6290  175.5560  146.9630 N   0  0  0  0  0  2  0  0  0  0  0  0
  191.8230  174.8940  147.4620 C   0  0  0  0  0  2  0  0  0  0  0  0
  192.3770  173.2490  144.8840 C   0  0  0  0  0  2  0  0  0  0  0  0
  193.8430  176.0030  146.5510 C   0  0  0  0  0  3  0  0  0  0  0  0
  194.7530  177.0530  144.6360 O   0  0  0  0  0  1  0  0  0  0  0  0
  194.8270  175.9030  145.4230 C   0  0  2  0  0  3  0  0  0  0  0  0
  192.9490  175.0350  146.4870 C   0  0  0  0  0  0  0  0  0  0  0  0
  194.3850  174.6890  144.5960 C   0  0  2  0  0  3  0  0  0  0  0  0
  193.2010  174.1880  145.3380 C   0  0  0  0  0  0  0  0  0  0  0  0
  196.4920  174.3610  145.1860 C   0  0  0  0  0  1  0  0  0  0  0  0
  195.3930  173.7240  144.6120 O   0  0  0  0  0  0  0  0  0  0  0  0
  1  6  1  0  0  0  0
  2 10  1  0  0  0  0
  2  1  2  0  0  0  0
  4  3  1  0  0  0  0
  4  6  1  0  0  0  0
  5  3  1  0  0  0  0
  6 44  1  0  0  0  0
  7 31  1  0  0  0  0
  7  8  1  0  0  0  0
  8  5  2  0  0  0  0
  9  8  1  1  0  0  0
  9 10  1  0  0  0  0
 10  4  2  0  0  0  0
 11 15  1  6  0  0  0
 11  9  1  0  0  0  0
 11 13  1  0  0  0  0
 14 12  1  6  0  0  0
 14 15  1  0  0  0  0
 14 16  1  0  0  0  0
 16 17  1  1  0  0  0
 16 13  1  0  0  0  0
 17 18  1  0  0  0  0
 19 18  1  0  0  0  0
 21 19  1  0  0  0  0
 21 20  2  0  0  0  0
 22 25  1  0  0  0  0
 22 21  1  0  0  0  0
 23 22  1  0  0  0  0
 25 24  1  6  0  0  0
 25 26  1  0  0  0  0
 26 27  1  1  0  0  0
 29 26  1  0  0  0  0
 29 28  1  0  0  0  0
 30 32  1  0  0  0  0
 31 34  2  0  0  0  0
 32 37  1  0  0  0  0
 32 33  2  0  0  0  0
 34 33  1  0  0  0  0
 35 30  2  0  0  0  0
 35 31  1  0  0  0  0
 37 36  1  1  0  0  0
 38 37  1  0  0  0  0
 38 39  1  0  0  0  0
 40 37  1  0  0  0  0
 42 41  1  0  0  0  0
 42 40  1  0  0  0  0
 44 43  2  0  0  0  0
 45 43  1  0  0  0  0
 45 46  1  0  0  0  0
 47 53  2  0  0  0  0
 50 49  1  6  0  0  0
 50 48  1  0  0  0  0
 51 48  2  0  0  0  0
 51 46  1  0  0  0  0
 52 55  1  1  0  0  0
 52 53  1  0  0  0  0
 52 50  1  0  0  0  0
 53 51  1  0  0  0  0
 55 54  1  0  0  0  0
M  END
>  <MODEL>
1

>  <REMARK>
 VINA RESULT:      -6.5      0.000      0.000
  Name = 
  19 active torsions:
  status: ('A' for Active; 'I' for Inactive)
    1  A    between atoms: N_2  and  C_46
    2  A    between atoms: N_2  and  C_48
    3  A    between atoms: C_8  and  C_39
    4  A    between atoms: C_9  and  N_33
    5  A    between atoms: C_14  and  C_24
    6  A    between atoms: C_14  and  S_37
    7  A    between atoms: C_16  and  C_18
    8  A    between atoms: C_18  and  N_38
    9  A    between atoms: C_18  and  C_47
   10  A    between atoms: C_20  and  N_32
   11  A    between atoms: C_22  and  C_26
   12  A    between atoms: C_22  and  N_32
   13  A    between atoms: C_23  and  C_46
   14  A    between atoms: C_23  and  C_53
   15  A    between atoms: C_24  and  N_52
   16  A    between atoms: N_28  and  C_43
   17  A    between atoms: C_45  and  C_47
   18  A    between atoms: C_48  and  N_52
   19  A    between atoms: C_49  and  O_51
                            x       y       z     vdW  Elec       q    Type
                         _______ _______ _______ _____ _____    ______ ____

>  <TORSDO>
F 19

$$$$
=
 OpenBabel11042416413D

 55 59  0  0  1  0  0  0  0  0999 V2000
  190.6640  177.7450  144.4810 C   0  0  0  0  0  3  0  0  0  0  0  0
  190.3800  177.5980  143.1250 C   0  0  0  0  0  3  0  0  0  0  0  0
  187.1320  176.9740  144.6330 C   0  0  0  0  0  2  0  0  0  0  0  0
  188.5370  177.3820  144.3400 C   0  0  0  0  0  0  0  0  0  0  0  0
  186.2830  177.2870  143.4750 N   0  0  0  0  0  0  0  0  0  0  0  0
  189.5350  177.6220  145.2100 N   0  0  0  0  0  0  0  0  0  0  0  0
  185.8010  177.6270  141.1640 N   0  0  0  0  0  2  0  0  0  0  0  0
  186.7030  177.3050  142.2340 C   0  0  0  0  0  0  0  0  0  0  0  0
  188.1560  177.0030  141.8860 C   0  0  1  0  0  3  0  0  0  0  0  0
  189.0180  177.3620  143.0660 C   0  0  0  0  0  0  0  0  0  0  0  0
  188.3190  175.5170  141.5230 C   0  0  2  0  0  3  0  0  0  0  0  0
  188.7330  173.7260  138.3310 N   0  0  0  0  0  1  0  0  0  0  0  0
  190.0240  174.9370  141.7600 S   0  0  0  0  0  0  0  0  0  0  0  0
  188.5000  173.8580  139.7590 C   0  0  2  0  0  3  0  0  0  0  0  0
  188.0070  175.2540  140.0660 C   0  0  0  0  0  2  0  0  0  0  0  0
  189.7970  173.6200  140.5240 C   0  0  2  0  0  3  0  0  0  0  0  0
  189.7300  172.2790  141.2400 C   0  0  0  0  0  2  0  0  0  0  0  0
  190.7970  171.3280  140.7290 C   0  0  0  0  0  2  0  0  0  0  0  0
  191.6000  171.9700  139.6990 N   0  0  0  0  0  2  0  0  0  0  0  0
  193.8350  170.5070  139.6300 S   0  0  0  0  0  0  0  0  0  0  0  0
  193.0340  171.9450  139.6880 C   0  0  0  0  0  0  0  0  0  0  0  0
  193.7620  173.1850  139.7250 N   0  0  0  0  0  0  0  0  0  0  0  0
  193.6210  174.0720  140.8750 C   0  0  0  0  0  1  0  0  0  0  0  0
  194.4320  174.8660  138.2360 O   0  0  0  0  0  1  0  0  0  0  0  0
  194.6810  173.5550  138.6450 C   0  0  1  0  0  3  0  0  0  0  0  0
  196.1360  173.3980  139.0790 C   0  0  1  0  0  3  0  0  0  0  0  0
  196.8510  172.7020  138.1020 O   0  0  0  0  0  1  0  0  0  0  0  0
  197.8680  174.4630  140.7430 C   0  0  0  0  0  1  0  0  0  0  0  0
  196.8930  175.0330  139.3240 S   0  0  0  0  0  0  0  0  0  0  0  0
  182.5140  178.6370  142.6090 C   0  0  0  0  0  3  0  0  0  0  0  0
  184.3940  177.8990  141.2600 C   0  0  0  0  0  0  0  0  0  0  0  0
  181.6460  178.4780  141.5160 C   0  0  0  0  0  0  0  0  0  0  0  0
  182.1700  178.0380  140.2920 C   0  0  0  0  0  3  0  0  0  0  0  0
  183.5310  177.7490  140.1660 C   0  0  0  0  0  3  0  0  0  0  0  0
  183.8760  178.3460  142.4800 C   0  0  0  0  0  3  0  0  0  0  0  0
  180.0050  179.6850  142.7290 F   0  0  0  0  0  0  0  0  0  0  0  0
  180.1840  178.8310  141.6440 C   0  0  2  0  0  0  0  0  0  0  0  0
  179.4280  177.5910  141.8460 N   0  0  0  0  0  2  0  0  0  0  0  0
  178.5690  177.4220  140.8090 O   0  0  0  0  0  1  0  0  0  0  0  0
  179.7310  179.5340  140.3550 C   0  0  0  0  0  2  0  0  0  0  0  0
  179.7480  181.7480  139.4420 O   0  0  0  0  0  1  0  0  0  0  0  0
  179.3590  181.0000  140.5570 C   0  0  0  0  0  2  0  0  0  0  0  0
  190.0840  176.7090  147.4010 C   0  0  0  0  0  3  0  0  0  0  0  0
  189.4900  177.6310  146.6420 C   0  0  0  0  0  3  0  0  0  0  0  0
  190.7580  175.5860  146.8330 N   0  0  0  0  0  2  0  0  0  0  0  0
  192.0110  175.0990  147.3870 C   0  0  0  0  0  2  0  0  0  0  0  0
  194.3250  177.0440  146.6650 C   0  0  0  0  0  2  0  0  0  0  0  0
  193.1690  173.8880  145.5600 C   0  0  0  0  0  3  0  0  0  0  0  0
  195.2590  173.0450  144.8450 O   0  0  0  0  0  1  0  0  0  0  0  0
  194.3080  174.0340  144.5950 C   0  0  2  0  0  3  0  0  0  0  0  0
  193.0440  174.9650  146.3120 C   0  0  0  0  0  0  0  0  0  0  0  0
  194.9180  175.4120  144.8820 C   0  0  2  0  0  3  0  0  0  0  0  0
  194.0570  175.9420  145.9700 C   0  0  0  0  0  0  0  0  0  0  0  0
  196.1060  176.4880  143.3580 C   0  0  0  0  0  1  0  0  0  0  0  0
  194.7960  176.2190  143.7500 O   0  0  0  0  0  0  0  0  0  0  0  0
  1  6  1  0  0  0  0
  2  1  2  0  0  0  0
  4  3  1  0  0  0  0
  4  6  1  0  0  0  0
  5  3  1  0  0  0  0
  6 44  1  0  0  0  0
  7 31  1  0  0  0  0
  7  8  1  0  0  0  0
  8  5  2  0  0  0  0
  9  8  1  1  0  0  0
  9 10  1  0  0  0  0
 10  2  1  0  0  0  0
 10  4  2  0  0  0  0
 11 15  1  6  0  0  0
 11 13  1  0  0  0  0
 11  9  1  0  0  0  0
 14 12  1  6  0  0  0
 14 15  1  0  0  0  0
 14 16  1  0  0  0  0
 16 17  1  1  0  0  0
 16 13  1  0  0  0  0
 18 17  1  0  0  0  0
 19 18  1  0  0  0  0
 20 21  2  0  0  0  0
 21 19  1  0  0  0  0
 21 22  1  0  0  0  0
 22 23  1  0  0  0  0
 25 24  1  1  0  0  0
 25 26  1  0  0  0  0
 25 22  1  0  0  0  0
 26 27  1  6  0  0  0
 26 29  1  0  0  0  0
 29 28  1  0  0  0  0
 31 35  2  0  0  0  0
 32 37  1  0  0  0  0
 32 30  2  0  0  0  0
 33 32  1  0  0  0  0
 34 33  2  0  0  0  0
 34 31  1  0  0  0  0
 35 30  1  0  0  0  0
 37 38  1  0  0  0  0
 37 36  1  1  0  0  0
 39 38  1  0  0  0  0
 40 42  1  0  0  0  0
 40 37  1  0  0  0  0
 41 42  1  0  0  0  0
 44 43  2  0  0  0  0
 45 46  1  0  0  0  0
 45 43  1  0  0  0  0
 48 51  2  0  0  0  0
 50 49  1  1  0  0  0
 50 52  1  0  0  0  0
 50 48  1  0  0  0  0
 51 46  1  0  0  0  0
 52 55  1  6  0  0  0
 52 53  1  0  0  0  0
 53 51  1  0  0  0  0
 53 47  2  0  0  0  0
 54 55  1  0  0  0  0
M  END
>  <MODEL>
2

>  <REMARK>
 VINA RESULT:      -6.4      1.243      1.947
  Name = 
  19 active torsions:
  status: ('A' for Active; 'I' for Inactive)
    1  A    between atoms: N_2  and  C_46
    2  A    between atoms: N_2  and  C_48
    3  A    between atoms: C_8  and  C_39
    4  A    between atoms: C_9  and  N_33
    5  A    between atoms: C_14  and  C_24
    6  A    between atoms: C_14  and  S_37
    7  A    between atoms: C_16  and  C_18
    8  A    between atoms: C_18  and  N_38
    9  A    between atoms: C_18  and  C_47
   10  A    between atoms: C_20  and  N_32
   11  A    between atoms: C_22  and  C_26
   12  A    between atoms: C_22  and  N_32
   13  A    between atoms: C_23  and  C_46
   14  A    between atoms: C_23  and  C_53
   15  A    between atoms: C_24  and  N_52
   16  A    between atoms: N_28  and  C_43
   17  A    between atoms: C_45  and  C_47
   18  A    between atoms: C_48  and  N_52
   19  A    between atoms: C_49  and  O_51
                            x       y       z     vdW  Elec       q    Type
                         _______ _______ _______ _____ _____    ______ ____

>  <TORSDO>
F 19

$$$$
=
 OpenBabel11042416413D

 55 59  0  0  1  0  0  0  0  0999 V2000
  190.0260  177.7990  144.6660 C   0  0  0  0  0  3  0  0  0  0  0  0
  189.7790  177.7400  143.2950 C   0  0  0  0  0  3  0  0  0  0  0  0
  186.5150  176.9210  144.6690 C   0  0  0  0  0  2  0  0  0  0  0  0
  187.9150  177.3880  144.4420 C   0  0  0  0  0  0  0  0  0  0  0  0
  185.6860  177.2910  143.5130 N   0  0  0  0  0  0  0  0  0  0  0  0
  188.8820  177.5940  145.3530 N   0  0  0  0  0  0  0  0  0  0  0  0
  185.2520  177.7790  141.2190 N   0  0  0  0  0  2  0  0  0  0  0  0
  186.1370  177.4080  142.2870 C   0  0  0  0  0  0  0  0  0  0  0  0
  187.6060  177.1710  141.9580 C   0  0  1  0  0  3  0  0  0  0  0  0
  188.4270  177.4710  143.1840 C   0  0  0  0  0  0  0  0  0  0  0  0
  187.8210  175.7200  141.4970 C   0  0  2  0  0  3  0  0  0  0  0  0
  188.8000  174.2060  138.2840 N   0  0  0  0  0  1  0  0  0  0  0  0
  189.4500  175.0810  141.9870 S   0  0  0  0  0  0  0  0  0  0  0  0
  188.3100  174.2190  139.6530 C   0  0  2  0  0  3  0  0  0  0  0  0
  187.7790  175.5930  139.9910 C   0  0  0  0  0  2  0  0  0  0  0  0
  189.4440  173.8830  140.6160 C   0  0  2  0  0  3  0  0  0  0  0  0
  189.2370  172.4860  141.1830 C   0  0  0  0  0  2  0  0  0  0  0  0
  190.2150  171.4960  140.5770 C   0  0  0  0  0  2  0  0  0  0  0  0
  190.6890  170.5640  141.5900 N   0  0  0  0  0  2  0  0  0  0  0  0
  190.8650  168.1660  140.4260 S   0  0  0  0  0  0  0  0  0  0  0  0
  191.4960  169.4180  141.2900 C   0  0  0  0  0  0  0  0  0  0  0  0
  192.8610  169.3760  141.7460 N   0  0  0  0  0  0  0  0  0  0  0  0
  193.9490  169.4700  140.7780 C   0  0  0  0  0  1  0  0  0  0  0  0
  192.4970  168.2080  143.7440 O   0  0  0  0  0  1  0  0  0  0  0  0
  193.1780  169.2840  143.1730 C   0  0  1  0  0  3  0  0  0  0  0  0
  194.6820  169.1420  143.3970 C   0  0  1  0  0  3  0  0  0  0  0  0
  195.2880  170.3990  143.3600 O   0  0  0  0  0  1  0  0  0  0  0  0
  194.5630  169.8800  145.9160 C   0  0  0  0  0  1  0  0  0  0  0  0
  195.0020  168.3700  145.0120 S   0  0  0  0  0  0  0  0  0  0  0  0
  181.6520  177.8390  140.2450 C   0  0  0  0  0  3  0  0  0  0  0  0
  183.8360  178.0050  141.2950 C   0  0  0  0  0  0  0  0  0  0  0  0
  181.0440  178.3960  141.3830 C   0  0  0  0  0  0  0  0  0  0  0  0
  181.8470  178.7430  142.4790 C   0  0  0  0  0  3  0  0  0  0  0  0
  183.2300  178.5510  142.4350 C   0  0  0  0  0  3  0  0  0  0  0  0
  183.0370  177.6500  140.2030 C   0  0  0  0  0  3  0  0  0  0  0  0
  178.9300  177.3510  141.1420 F   0  0  0  0  0  0  0  0  0  0  0  0
  179.5450  178.5630  141.4450 C   0  0  2  0  0  0  0  0  0  0  0  0
  179.1570  179.5860  140.4690 N   0  0  0  0  0  2  0  0  0  0  0  0
  178.2590  180.4260  141.0420 O   0  0  0  0  0  1  0  0  0  0  0  0
  179.1550  178.9990  142.8660 C   0  0  0  0  0  2  0  0  0  0  0  0
  177.9780  178.4290  144.8720 O   0  0  0  0  0  1  0  0  0  0  0  0
  178.4700  177.9010  143.6750 C   0  0  0  0  0  2  0  0  0  0  0  0
  189.4050  176.5450  147.4890 C   0  0  0  0  0  3  0  0  0  0  0  0
  188.8020  177.5010  146.7810 C   0  0  0  0  0  3  0  0  0  0  0  0
  190.1280  175.4860  146.8640 N   0  0  0  0  0  2  0  0  0  0  0  0
  191.5540  175.3090  147.0880 C   0  0  0  0  0  2  0  0  0  0  0  0
  194.5080  175.8600  146.2920 C   0  0  0  0  0  2  0  0  0  0  0  0
  191.6910  174.2980  144.8290 C   0  0  0  0  0  3  0  0  0  0  0  0
  192.8770  172.7480  143.4930 O   0  0  0  0  0  1  0  0  0  0  0  0
  192.6420  174.1090  143.6850 C   0  0  2  0  0  3  0  0  0  0  0  0
  192.2520  174.9890  145.8030 C   0  0  0  0  0  0  0  0  0  0  0  0
  193.9440  174.7970  144.1140 C   0  0  2  0  0  3  0  0  0  0  0  0
  193.6150  175.3380  145.4560 C   0  0  0  0  0  0  0  0  0  0  0  0
  194.9250  175.2600  142.1860 C   0  0  0  0  0  1  0  0  0  0  0  0
  194.2260  175.8470  143.2390 O   0  0  0  0  0  0  0  0  0  0  0  0
  1  6  1  0  0  0  0
  2  1  2  0  0  0  0
  4  3  1  0  0  0  0
  4  6  1  0  0  0  0
  5  3  1  0  0  0  0
  6 44  1  0  0  0  0
  7 31  1  0  0  0  0
  7  8  1  0  0  0  0
  8  5  2  0  0  0  0
  9  8  1  1  0  0  0
  9 10  1  0  0  0  0
 10  2  1  0  0  0  0
 10  4  2  0  0  0  0
 11 15  1  6  0  0  0
 11  9  1  0  0  0  0
 11 13  1  0  0  0  0
 14 12  1  6  0  0  0
 14 15  1  0  0  0  0
 14 16  1  0  0  0  0
 16 17  1  1  0  0  0
 16 13  1  0  0  0  0
 18 17  1  0  0  0  0
 18 19  1  0  0  0  0
 20 21  2  0  0  0  0
 21 19  1  0  0  0  0
 21 22  1  0  0  0  0
 22 25  1  0  0  0  0
 23 22  1  0  0  0  0
 25 26  1  0  0  0  0
 25 24  1  6  0  0  0
 26 27  1  1  0  0  0
 26 29  1  0  0  0  0
 29 28  1  0  0  0  0
 30 32  1  0  0  0  0
 31 34  2  0  0  0  0
 32 37  1  0  0  0  0
 32 33  2  0  0  0  0
 34 33  1  0  0  0  0
 35 30  2  0  0  0  0
 35 31  1  0  0  0  0
 37 36  1  6  0  0  0
 37 40  1  0  0  0  0
 38 39  1  0  0  0  0
 38 37  1  0  0  0  0
 40 42  1  0  0  0  0
 42 41  1  0  0  0  0
 44 43  2  0  0  0  0
 45 46  1  0  0  0  0
 45 43  1  0  0  0  0
 48 51  2  0  0  0  0
 50 49  1  1  0  0  0
 50 52  1  0  0  0  0
 50 48  1  0  0  0  0
 51 46  1  0  0  0  0
 52 55  1  6  0  0  0
 52 53  1  0  0  0  0
 53 51  1  0  0  0  0
 53 47  2  0  0  0  0
 54 55  1  0  0  0  0
M  END
>  <MODEL>
3

>  <REMARK>
 VINA RESULT:      -5.9      1.893      2.820
  Name = 
  19 active torsions:
  status: ('A' for Active; 'I' for Inactive)
    1  A    between atoms: N_2  and  C_46
    2  A    between atoms: N_2  and  C_48
    3  A    between atoms: C_8  and  C_39
    4  A    between atoms: C_9  and  N_33
    5  A    between atoms: C_14  and  C_24
    6  A    between atoms: C_14  and  S_37
    7  A    between atoms: C_16  and  C_18
    8  A    between atoms: C_18  and  N_38
    9  A    between atoms: C_18  and  C_47
   10  A    between atoms: C_20  and  N_32
   11  A    between atoms: C_22  and  C_26
   12  A    between atoms: C_22  and  N_32
   13  A    between atoms: C_23  and  C_46
   14  A    between atoms: C_23  and  C_53
   15  A    between atoms: C_24  and  N_52
   16  A    between atoms: N_28  and  C_43
   17  A    between atoms: C_45  and  C_47
   18  A    between atoms: C_48  and  N_52
   19  A    between atoms: C_49  and  O_51
                            x       y       z     vdW  Elec       q    Type
                         _______ _______ _______ _____ _____    ______ ____

>  <TORSDO>
F 19

$$$$
=
 OpenBabel11042416413D

 55 59  0  0  1  0  0  0  0  0999 V2000
  190.9620  178.0100  145.0890 C   0  0  0  0  0  3  0  0  0  0  0  0
  190.7790  178.0750  143.7090 C   0  0  0  0  0  3  0  0  0  0  0  0
  187.5230  176.9130  144.8330 C   0  0  0  0  0  2  0  0  0  0  0  0
  188.8950  177.4890  144.7230 C   0  0  0  0  0  0  0  0  0  0  0  0
  186.7200  177.3450  143.6800 N   0  0  0  0  0  0  0  0  0  0  0  0
  189.8070  177.6630  145.6960 N   0  0  0  0  0  0  0  0  0  0  0  0
  186.3520  178.0350  141.4270 N   0  0  0  0  0  2  0  0  0  0  0  0
  187.2140  177.6150  142.4950 C   0  0  0  0  0  0  0  0  0  0  0  0
  188.7080  177.5070  142.2170 C   0  0  1  0  0  3  0  0  0  0  0  0
  189.4540  177.7320  143.5050 C   0  0  0  0  0  0  0  0  0  0  0  0
  189.0420  176.1270  141.6260 C   0  0  2  0  0  3  0  0  0  0  0  0
  189.7590  172.8410  143.1280 N   0  0  0  0  0  1  0  0  0  0  0  0
  187.5560  175.2460  141.0630 S   0  0  0  0  0  0  0  0  0  0  0  0
  189.6720  173.8230  142.0600 C   0  0  2  0  0  3  0  0  0  0  0  0
  189.6840  175.2160  142.6480 C   0  0  0  0  0  2  0  0  0  0  0  0
  188.3750  173.6340  141.2810 C   0  0  2  0  0  3  0  0  0  0  0  0
  188.6810  173.0480  139.9110 C   0  0  0  0  0  2  0  0  0  0  0  0
  189.6610  171.8920  140.0140 C   0  0  0  0  0  2  0  0  0  0  0  0
  190.4410  171.7760  138.7910 N   0  0  0  0  0  2  0  0  0  0  0  0
  191.3990  173.6790  137.1780 S   0  0  0  0  0  0  0  0  0  0  0  0
  191.5250  172.6550  138.4620 C   0  0  0  0  0  0  0  0  0  0  0  0
  192.7190  172.6360  139.2660 N   0  0  0  0  0  0  0  0  0  0  0  0
  193.5580  171.4420  139.2840 C   0  0  0  0  0  1  0  0  0  0  0  0
  193.1540  173.5100  141.3950 O   0  0  0  0  0  1  0  0  0  0  0  0
  193.1320  173.8130  140.0330 C   0  0  1  0  0  3  0  0  0  0  0  0
  194.4990  174.3190  139.5770 C   0  0  1  0  0  3  0  0  0  0  0  0
  194.3410  175.4270  138.7420 O   0  0  0  0  0  1  0  0  0  0  0  0
  196.7970  175.5260  139.9830 C   0  0  0  0  0  1  0  0  0  0  0  0
  195.5010  174.7920  141.0180 S   0  0  0  0  0  0  0  0  0  0  0  0
  182.9100  178.6580  142.7240 C   0  0  0  0  0  3  0  0  0  0  0  0
  184.9210  178.1610  141.4550 C   0  0  0  0  0  0  0  0  0  0  0  0
  182.1190  178.4500  141.5820 C   0  0  0  0  0  0  0  0  0  0  0  0
  182.7460  178.1080  140.3750 C   0  0  0  0  0  3  0  0  0  0  0  0
  184.1340  177.9630  140.3130 C   0  0  0  0  0  3  0  0  0  0  0  0
  184.3000  178.5100  142.6590 C   0  0  0  0  0  3  0  0  0  0  0  0
  179.9840  177.4500  141.3390 F   0  0  0  0  0  0  0  0  0  0  0  0
  180.6240  178.6490  141.6420 C   0  0  2  0  0  0  0  0  0  0  0  0
  180.2580  179.6800  140.6650 N   0  0  0  0  0  2  0  0  0  0  0  0
  179.3150  179.1810  139.8270 O   0  0  0  0  0  1  0  0  0  0  0  0
  180.2400  179.0930  143.0630 C   0  0  0  0  0  2  0  0  0  0  0  0
  178.4010  178.0880  144.2200 O   0  0  0  0  0  1  0  0  0  0  0  0
  178.7360  179.1000  143.3150 C   0  0  0  0  0  2  0  0  0  0  0  0
  190.6340  176.8740  147.8480 C   0  0  0  0  0  3  0  0  0  0  0  0
  189.6730  177.4210  147.1020 C   0  0  0  0  0  3  0  0  0  0  0  0
  191.8620  176.4180  147.2800 N   0  0  0  0  0  2  0  0  0  0  0  0
  192.0240  175.0430  146.8380 C   0  0  0  0  0  2  0  0  0  0  0  0
  192.9170  172.7960  144.8840 C   0  0  0  0  0  2  0  0  0  0  0  0
  194.3260  175.7440  146.2410 C   0  0  0  0  0  3  0  0  0  0  0  0
  195.7700  176.2360  144.4340 O   0  0  0  0  0  1  0  0  0  0  0  0
  195.5140  175.3030  145.4390 C   0  0  2  0  0  3  0  0  0  0  0  0
  193.3480  174.8610  146.1640 C   0  0  0  0  0  0  0  0  0  0  0  0
  195.1110  173.9660  144.8040 C   0  0  2  0  0  3  0  0  0  0  0  0
  193.7360  173.7490  145.3190 C   0  0  0  0  0  0  0  0  0  0  0  0
  196.8280  172.7010  144.2170 C   0  0  0  0  0  1  0  0  0  0  0  0
  195.9540  172.9570  145.2720 O   0  0  0  0  0  0  0  0  0  0  0  0
  1  6  1  0  0  0  0
  2  1  2  0  0  0  0
  4  3  1  0  0  0  0
  4  6  1  0  0  0  0
  5  3  1  0  0  0  0
  6 44  1  0  0  0  0
  7 31  1  0  0  0  0
  7  8  1  0  0  0  0
  8  5  2  0  0  0  0
  9  8  1  1  0  0  0
  9 10  1  0  0  0  0
 10  2  1  0  0  0  0
 10  4  2  0  0  0  0
 11  9  1  0  0  0  0
 11 15  1  1  0  0  0
 13 16  1  0  0  0  0
 13 11  1  0  0  0  0
 14 15  1  0  0  0  0
 14 12  1  1  0  0  0
 16 17  1  6  0  0  0
 16 14  1  0  0  0  0
 17 18  1  0  0  0  0
 19 18  1  0  0  0  0
 20 21  2  0  0  0  0
 21 19  1  0  0  0  0
 21 22  1  0  0  0  0
 22 23  1  0  0  0  0
 22 25  1  0  0  0  0
 25 24  1  1  0  0  0
 26 27  1  6  0  0  0
 26 25  1  0  0  0  0
 26 29  1  0  0  0  0
 28 29  1  0  0  0  0
 31 35  2  0  0  0  0
 32 37  1  0  0  0  0
 32 30  2  0  0  0  0
 33 32  1  0  0  0  0
 34 33  2  0  0  0  0
 34 31  1  0  0  0  0
 35 30  1  0  0  0  0
 37 36  1  6  0  0  0
 37 40  1  0  0  0  0
 38 37  1  0  0  0  0
 39 38  1  0  0  0  0
 40 42  1  0  0  0  0
 42 41  1  0  0  0  0
 44 43  2  0  0  0  0
 45 43  1  0  0  0  0
 46 45  1  0  0  0  0
 47 53  2  0  0  0  0
 50 49  1  6  0  0  0
 50 48  1  0  0  0  0
 51 48  2  0  0  0  0
 51 46  1  0  0  0  0
 52 55  1  1  0  0  0
 52 53  1  0  0  0  0
 52 50  1  0  0  0  0
 53 51  1  0  0  0  0
 54 55  1  0  0  0  0
M  END
>  <MODEL>
4

>  <REMARK>
 VINA RESULT:      -5.9      1.677      2.216
  Name = 
  19 active torsions:
  status: ('A' for Active; 'I' for Inactive)
    1  A    between atoms: N_2  and  C_46
    2  A    between atoms: N_2  and  C_48
    3  A    between atoms: C_8  and  C_39
    4  A    between atoms: C_9  and  N_33
    5  A    between atoms: C_14  and  C_24
    6  A    between atoms: C_14  and  S_37
    7  A    between atoms: C_16  and  C_18
    8  A    between atoms: C_18  and  N_38
    9  A    between atoms: C_18  and  C_47
   10  A    between atoms: C_20  and  N_32
   11  A    between atoms: C_22  and  C_26
   12  A    between atoms: C_22  and  N_32
   13  A    between atoms: C_23  and  C_46
   14  A    between atoms: C_23  and  C_53
   15  A    between atoms: C_24  and  N_52
   16  A    between atoms: N_28  and  C_43
   17  A    between atoms: C_45  and  C_47
   18  A    between atoms: C_48  and  N_52
   19  A    between atoms: C_49  and  O_51
                            x       y       z     vdW  Elec       q    Type
                         _______ _______ _______ _____ _____    ______ ____

>  <TORSDO>
F 19

$$$$
=
 OpenBabel11042416413D

 55 59  0  0  1  0  0  0  0  0999 V2000
  190.9190  177.8520  144.9790 C   0  0  0  0  0  3  0  0  0  0  0  0
  190.6770  177.9170  143.6080 C   0  0  0  0  0  3  0  0  0  0  0  0
  187.4140  176.9550  144.8880 C   0  0  0  0  0  2  0  0  0  0  0  0
  188.8110  177.4500  144.7110 C   0  0  0  0  0  0  0  0  0  0  0  0
  186.5860  177.4230  143.7680 N   0  0  0  0  0  0  0  0  0  0  0  0
  189.7740  177.5780  145.6400 N   0  0  0  0  0  0  0  0  0  0  0  0
  186.1560  178.1160  141.5270 N   0  0  0  0  0  2  0  0  0  0  0  0
  187.0400  177.6550  142.5600 C   0  0  0  0  0  0  0  0  0  0  0  0
  188.5120  177.4590  142.2160 C   0  0  1  0  0  3  0  0  0  0  0  0
  189.3270  177.6510  143.4670 C   0  0  0  0  0  0  0  0  0  0  0  0
  188.7390  176.0580  141.6250 C   0  0  2  0  0  3  0  0  0  0  0  0
  190.8100  173.1880  142.6480 N   0  0  0  0  0  1  0  0  0  0  0  0
  187.4030  174.9060  142.0620 S   0  0  0  0  0  0  0  0  0  0  0  0
  189.9550  173.9600  141.7630 C   0  0  2  0  0  3  0  0  0  0  0  0
  190.0050  175.4200  142.1530 C   0  0  0  0  0  2  0  0  0  0  0  0
  188.5130  173.4750  141.8730 C   0  0  2  0  0  3  0  0  0  0  0  0
  188.1300  172.7170  140.6110 C   0  0  0  0  0  2  0  0  0  0  0  0
  189.3480  172.4320  139.7490 C   0  0  0  0  0  2  0  0  0  0  0  0
  188.9430  171.8960  138.4580 N   0  0  0  0  0  2  0  0  0  0  0  0
  190.0750  170.8290  136.2860 S   0  0  0  0  0  0  0  0  0  0  0  0
  189.6870  172.1070  137.2500 C   0  0  0  0  0  0  0  0  0  0  0  0
  190.0840  173.4410  136.8880 N   0  0  0  0  0  0  0  0  0  0  0  0
  189.0660  174.4350  136.5630 C   0  0  0  0  0  1  0  0  0  0  0  0
  192.1810  173.1580  137.8950 O   0  0  0  0  0  1  0  0  0  0  0  0
  191.4950  173.8350  136.8850 C   0  0  1  0  0  3  0  0  0  0  0  0
  192.1410  173.5660  135.5280 C   0  0  1  0  0  3  0  0  0  0  0  0
  191.1910  173.7050  134.5140 O   0  0  0  0  0  1  0  0  0  0  0  0
  192.7170  176.0250  136.2530 C   0  0  0  0  0  1  0  0  0  0  0  0
  193.5000  174.7400  135.2400 S   0  0  0  0  0  0  0  0  0  0  0  0
  182.5750  178.3640  140.5150 C   0  0  0  0  0  3  0  0  0  0  0  0
  184.7380  178.3240  141.6180 C   0  0  0  0  0  0  0  0  0  0  0  0
  181.9440  178.6940  141.7270 C   0  0  0  0  0  0  0  0  0  0  0  0
  182.7260  178.8250  142.8840 C   0  0  0  0  0  3  0  0  0  0  0  0
  184.1100  178.6440  142.8300 C   0  0  0  0  0  3  0  0  0  0  0  0
  183.9600  178.1850  140.4640 C   0  0  0  0  0  3  0  0  0  0  0  0
  180.0700  179.2120  143.0820 F   0  0  0  0  0  0  0  0  0  0  0  0
  180.4440  178.8480  141.7910 C   0  0  2  0  0  0  0  0  0  0  0  0
  179.8340  177.5650  141.4290 N   0  0  0  0  0  2  0  0  0  0  0  0
  178.9320  177.2190  142.3820 O   0  0  0  0  0  1  0  0  0  0  0  0
  180.0170  179.9450  140.8020 C   0  0  0  0  0  2  0  0  0  0  0  0
  178.1420  180.4930  139.4180 O   0  0  0  0  0  1  0  0  0  0  0  0
  178.5060  180.1390  140.7210 C   0  0  0  0  0  2  0  0  0  0  0  0
  190.3930  176.4170  147.6920 C   0  0  0  0  0  3  0  0  0  0  0  0
  189.6900  177.3540  147.0530 C   0  0  0  0  0  3  0  0  0  0  0  0
  191.2420  175.5060  146.9950 N   0  0  0  0  0  2  0  0  0  0  0  0
  192.6880  175.5610  147.1370 C   0  0  0  0  0  2  0  0  0  0  0  0
  194.7360  177.2330  145.5020 C   0  0  0  0  0  2  0  0  0  0  0  0
  193.2290  174.0420  145.2540 C   0  0  0  0  0  3  0  0  0  0  0  0
  194.9960  172.9730  144.1020 O   0  0  0  0  0  1  0  0  0  0  0  0
  194.0390  173.9810  143.9930 C   0  0  2  0  0  3  0  0  0  0  0  0
  193.3570  175.2160  145.8430 C   0  0  0  0  0  0  0  0  0  0  0  0
  194.7390  175.3410  143.8860 C   0  0  2  0  0  3  0  0  0  0  0  0
  194.2490  176.0690  145.0830 C   0  0  0  0  0  0  0  0  0  0  0  0
  195.4650  176.1730  141.9690 C   0  0  0  0  0  1  0  0  0  0  0  0
  194.3110  175.9960  142.7290 O   0  0  0  0  0  0  0  0  0  0  0  0
  1  6  1  0  0  0  0
  2  1  2  0  0  0  0
  4  3  1  0  0  0  0
  4  6  1  0  0  0  0
  5  3  1  0  0  0  0
  6 44  1  0  0  0  0
  7 31  1  0  0  0  0
  7  8  1  0  0  0  0
  8  5  2  0  0  0  0
  9  8  1  1  0  0  0
  9 10  1  0  0  0  0
 10  2  1  0  0  0  0
 10  4  2  0  0  0  0
 11 13  1  0  0  0  0
 11 15  1  1  0  0  0
 11  9  1  0  0  0  0
 14 16  1  0  0  0  0
 14 15  1  0  0  0  0
 14 12  1  1  0  0  0
 16 17  1  6  0  0  0
 16 13  1  0  0  0  0
 18 17  1  0  0  0  0
 19 18  1  0  0  0  0
 20 21  2  0  0  0  0
 21 19  1  0  0  0  0
 22 21  1  0  0  0  0
 23 22  1  0  0  0  0
 25 22  1  0  0  0  0
 25 24  1  1  0  0  0
 26 27  1  6  0  0  0
 26 25  1  0  0  0  0
 29 26  1  0  0  0  0
 29 28  1  0  0  0  0
 30 32  1  0  0  0  0
 31 34  2  0  0  0  0
 32 37  1  0  0  0  0
 32 33  2  0  0  0  0
 34 33  1  0  0  0  0
 35 30  2  0  0  0  0
 35 31  1  0  0  0  0
 37 36  1  1  0  0  0
 38 37  1  0  0  0  0
 38 39  1  0  0  0  0
 40 37  1  0  0  0  0
 41 42  1  0  0  0  0
 42 40  1  0  0  0  0
 44 43  2  0  0  0  0
 45 46  1  0  0  0  0
 45 43  1  0  0  0  0
 48 51  2  0  0  0  0
 50 49  1  1  0  0  0
 50 48  1  0  0  0  0
 51 46  1  0  0  0  0
 52 55  1  6  0  0  0
 52 50  1  0  0  0  0
 52 53  1  0  0  0  0
 53 47  2  0  0  0  0
 53 51  1  0  0  0  0
 54 55  1  0  0  0  0
M  END
>  <MODEL>
5

>  <REMARK>
 VINA RESULT:      -5.9      1.948      2.696
  Name = 
  19 active torsions:
  status: ('A' for Active; 'I' for Inactive)
    1  A    between atoms: N_2  and  C_46
    2  A    between atoms: N_2  and  C_48
    3  A    between atoms: C_8  and  C_39
    4  A    between atoms: C_9  and  N_33
    5  A    between atoms: C_14  and  C_24
    6  A    between atoms: C_14  and  S_37
    7  A    between atoms: C_16  and  C_18
    8  A    between atoms: C_18  and  N_38
    9  A    between atoms: C_18  and  C_47
   10  A    between atoms: C_20  and  N_32
   11  A    between atoms: C_22  and  C_26
   12  A    between atoms: C_22  and  N_32
   13  A    between atoms: C_23  and  C_46
   14  A    between atoms: C_23  and  C_53
   15  A    between atoms: C_24  and  N_52
   16  A    between atoms: N_28  and  C_43
   17  A    between atoms: C_45  and  C_47
   18  A    between atoms: C_48  and  N_52
   19  A    between atoms: C_49  and  O_51
                            x       y       z     vdW  Elec       q    Type
                         _______ _______ _______ _____ _____    ______ ____

>  <TORSDO>
F 19

$$$$
=
 OpenBabel11042416413D

 55 59  0  0  1  0  0  0  0  0999 V2000
  196.3560  172.7120  145.8510 C   0  0  0  0  0  3  0  0  0  0  0  0
  196.4020  174.0350  145.4170 C   0  0  0  0  0  3  0  0  0  0  0  0
  192.9110  173.1940  144.8530 C   0  0  0  0  0  2  0  0  0  0  0  0
  194.3330  173.2450  145.3030 C   0  0  0  0  0  0  0  0  0  0  0  0
  192.3490  174.5520  144.8620 N   0  0  0  0  0  0  0  0  0  0  0  0
  195.0910  172.2460  145.7870 N   0  0  0  0  0  0  0  0  0  0  0  0
  192.4130  176.9310  144.6990 N   0  0  0  0  0  2  0  0  0  0  0  0
  193.0480  175.6430  144.6670 C   0  0  0  0  0  0  0  0  0  0  0  0
  194.5500  175.5860  144.4160 C   0  0  1  0  0  3  0  0  0  0  0  0
  195.1000  174.3460  145.0680 C   0  0  0  0  0  0  0  0  0  0  0  0
  194.8380  175.5820  142.9050 C   0  0  2  0  0  3  0  0  0  0  0  0
  197.9340  175.8060  140.9210 N   0  0  0  0  0  1  0  0  0  0  0  0
  194.8340  173.9020  142.2120 S   0  0  0  0  0  0  0  0  0  0  0  0
  196.4980  175.7960  141.1460 C   0  0  2  0  0  3  0  0  0  0  0  0
  196.2080  176.1410  142.5900 C   0  0  0  0  0  2  0  0  0  0  0  0
  195.9320  174.4120  140.8520 C   0  0  2  0  0  3  0  0  0  0  0  0
  195.1290  174.4510  139.5600 C   0  0  0  0  0  2  0  0  0  0  0  0
  195.8350  173.6930  138.4500 C   0  0  0  0  0  2  0  0  0  0  0  0
  196.5860  174.6090  137.6040 N   0  0  0  0  0  2  0  0  0  0  0  0
  196.7390  176.3890  135.6180 S   0  0  0  0  0  0  0  0  0  0  0  0
  196.1550  175.0070  136.2960 C   0  0  0  0  0  0  0  0  0  0  0  0
  195.2120  174.1850  135.5830 N   0  0  0  0  0  0  0  0  0  0  0  0
  195.5530  172.8010  135.2700 C   0  0  0  0  0  1  0  0  0  0  0  0
  193.1700  173.7120  134.5370 O   0  0  0  0  0  1  0  0  0  0  0  0
  193.8950  174.7010  135.2030 C   0  0  1  0  0  3  0  0  0  0  0  0
  193.1230  175.1990  136.4230 C   0  0  1  0  0  3  0  0  0  0  0  0
  192.9590  176.5830  136.3480 O   0  0  0  0  0  1  0  0  0  0  0  0
  191.9240  173.4500  137.9730 C   0  0  0  0  0  1  0  0  0  0  0  0
  191.4890  174.4040  136.4930 S   0  0  0  0  0  0  0  0  0  0  0  0
  188.8680  177.7440  143.8730 C   0  0  0  0  0  3  0  0  0  0  0  0
  191.0150  177.2110  144.8750 C   0  0  0  0  0  0  0  0  0  0  0  0
  188.2600  177.7470  145.1390 C   0  0  0  0  0  0  0  0  0  0  0  0
  189.0430  177.4680  146.2690 C   0  0  0  0  0  3  0  0  0  0  0  0
  190.4080  177.2050  146.1380 C   0  0  0  0  0  3  0  0  0  0  0  0
  190.2360  177.4820  143.7450 C   0  0  0  0  0  3  0  0  0  0  0  0
  186.4520  179.2140  144.6930 F   0  0  0  0  0  0  0  0  0  0  0  0
  186.7760  177.9900  145.2740 C   0  0  2  0  0  0  0  0  0  0  0  0
  186.4400  178.0030  146.7020 N   0  0  0  0  0  2  0  0  0  0  0  0
  185.0940  177.9070  146.8410 O   0  0  0  0  0  1  0  0  0  0  0  0
  186.0220  176.8610  144.5540 C   0  0  0  0  0  2  0  0  0  0  0  0
  184.2510  177.7860  143.2340 O   0  0  0  0  0  1  0  0  0  0  0  0
  185.5370  177.2440  143.1580 C   0  0  0  0  0  2  0  0  0  0  0  0
  194.6710  169.9300  145.1560 C   0  0  0  0  0  3  0  0  0  0  0  0
  194.7110  170.8940  146.0770 C   0  0  0  0  0  2  0  0  0  0  0  0
  194.9400  170.1900  143.7790 N   0  0  0  0  0  0  0  0  0  0  0  0
  194.8610  169.1360  142.7810 C   0  0  0  0  0  2  0  0  0  0  0  0
  194.3100  168.6230  139.7650 C   0  0  0  0  0  2  0  0  0  0  0  0
  192.4020  169.4100  142.6380 C   0  0  0  0  0  3  0  0  0  0  0  0
  190.3940  168.3650  141.9500 O   0  0  0  0  0  1  0  0  0  0  0  0
  191.2770  169.4010  141.6450 C   0  0  2  0  0  3  0  0  0  0  0  0
  193.5610  169.2080  142.0420 C   0  0  0  0  0  0  0  0  0  0  0  0
  191.9300  169.1310  140.2840 C   0  0  2  0  0  3  0  0  0  0  0  0
  193.3740  169.0330  140.6160 C   0  0  0  0  0  0  0  0  0  0  0  0
  191.1290  169.6790  138.2970 C   0  0  0  0  0  1  0  0  0  0  0  0
  191.7140  170.2210  139.4400 O   0  0  0  0  0  0  0  0  0  0  0  0
  2  1  2  0  0  0  0
  3  5  1  0  0  0  0
  3  4  1  0  0  0  0
  4  6  1  0  0  0  0
  6  1  1  0  0  0  0
  6 44  1  0  0  0  0
  7 31  1  0  0  0  0
  8  7  1  0  0  0  0
  8  5  2  0  0  0  0
  9  8  1  6  0  0  0
  9 10  1  0  0  0  0
 10  4  2  0  0  0  0
 10  2  1  0  0  0  0
 11 15  1  1  0  0  0
 11  9  1  0  0  0  0
 13 11  1  0  0  0  0
 14 12  1  1  0  0  0
 14 15  1  0  0  0  0
 16 17  1  6  0  0  0
 16 14  1  0  0  0  0
 16 13  1  0  0  0  0
 18 17  1  0  0  0  0
 19 18  1  0  0  0  0
 20 21  2  0  0  0  0
 21 19  1  0  0  0  0
 22 21  1  0  0  0  0
 23 22  1  0  0  0  0
 25 24  1  1  0  0  0
 25 22  1  0  0  0  0
 25 26  1  0  0  0  0
 26 27  1  6  0  0  0
 26 29  1  0  0  0  0
 29 28  1  0  0  0  0
 30 32  1  0  0  0  0
 31 34  2  0  0  0  0
 32 37  1  0  0  0  0
 32 33  2  0  0  0  0
 34 33  1  0  0  0  0
 35 30  2  0  0  0  0
 35 31  1  0  0  0  0
 37 36  1  6  0  0  0
 37 38  1  0  0  0  0
 38 39  1  0  0  0  0
 40 37  1  0  0  0  0
 42 41  1  0  0  0  0
 42 40  1  0  0  0  0
 43 44  1  0  0  0  0
 45 43  2  0  0  0  0
 46 45  1  0  0  0  0
 47 53  2  0  0  0  0
 50 49  1  1  0  0  0
 50 48  1  0  0  0  0
 51 48  2  0  0  0  0
 51 46  1  0  0  0  0
 52 55  1  6  0  0  0
 52 53  1  0  0  0  0
 52 50  1  0  0  0  0
 53 51  1  0  0  0  0
 54 55  1  0  0  0  0
M  END
>  <MODEL>
6

>  <REMARK>
 VINA RESULT:      -5.7      4.093      7.324
  Name = 
  19 active torsions:
  status: ('A' for Active; 'I' for Inactive)
    1  A    between atoms: N_2  and  C_46
    2  A    between atoms: N_2  and  C_48
    3  A    between atoms: C_8  and  C_39
    4  A    between atoms: C_9  and  N_33
    5  A    between atoms: C_14  and  C_24
    6  A    between atoms: C_14  and  S_37
    7  A    between atoms: C_16  and  C_18
    8  A    between atoms: C_18  and  N_38
    9  A    between atoms: C_18  and  C_47
   10  A    between atoms: C_20  and  N_32
   11  A    between atoms: C_22  and  C_26
   12  A    between atoms: C_22  and  N_32
   13  A    between atoms: C_23  and  C_46
   14  A    between atoms: C_23  and  C_53
   15  A    between atoms: C_24  and  N_52
   16  A    between atoms: N_28  and  C_43
   17  A    between atoms: C_45  and  C_47
   18  A    between atoms: C_48  and  N_52
   19  A    between atoms: C_49  and  O_51
                            x       y       z     vdW  Elec       q    Type
                         _______ _______ _______ _____ _____    ______ ____

>  <TORSDO>
F 19

$$$$
=
 OpenBabel11042416413D

 55 59  0  0  1  0  0  0  0  0999 V2000
  190.7300  176.9350  145.7470 C   0  0  0  0  0  3  0  0  0  0  0  0
  191.7410  177.0400  144.7930 C   0  0  0  0  0  3  0  0  0  0  0  0
  190.5740  173.6390  144.2610 C   0  0  0  0  0  2  0  0  0  0  0  0
  190.7300  175.0710  144.6500 C   0  0  0  0  0  0  0  0  0  0  0  0
  191.0350  173.4570  142.8780 N   0  0  0  0  0  0  0  0  0  0  0  0
  190.1150  175.7370  145.6430 N   0  0  0  0  0  0  0  0  0  0  0  0
  192.3500  173.9340  140.9470 N   0  0  0  0  0  2  0  0  0  0  0  0
  191.9660  174.1820  142.3080 C   0  0  0  0  0  0  0  0  0  0  0  0
  192.6590  175.3130  143.0590 C   0  0  1  0  0  3  0  0  0  0  0  0
  191.7210  175.8350  144.1140 C   0  0  0  0  0  0  0  0  0  0  0  0
  193.9670  174.8090  143.6920 C   0  0  2  0  0  3  0  0  0  0  0  0
  197.4820  175.8780  143.4250 N   0  0  0  0  0  1  0  0  0  0  0  0
  194.1890  175.4260  145.3870 S   0  0  0  0  0  0  0  0  0  0  0  0
  196.3840  175.0060  143.8070 C   0  0  2  0  0  3  0  0  0  0  0  0
  195.1840  175.2850  142.9310 C   0  0  0  0  0  2  0  0  0  0  0  0
  195.9980  175.2580  145.2600 C   0  0  2  0  0  3  0  0  0  0  0  0
  196.4450  174.0860  146.1200 C   0  0  0  0  0  2  0  0  0  0  0  0
  197.1160  173.0130  145.2810 C   0  0  0  0  0  2  0  0  0  0  0  0
  197.0470  171.7240  145.9540 N   0  0  0  0  0  2  0  0  0  0  0  0
  195.4360  169.6690  146.5210 S   0  0  0  0  0  0  0  0  0  0  0  0
  196.2700  170.6210  145.4670 C   0  0  0  0  0  0  0  0  0  0  0  0
  196.2240  170.3600  144.0530 N   0  0  0  0  0  0  0  0  0  0  0  0
  197.3580  169.7120  143.4010 C   0  0  0  0  0  1  0  0  0  0  0  0
  195.3370  171.7180  142.3610 O   0  0  0  0  0  1  0  0  0  0  0  0
  195.0370  170.6930  143.2610 C   0  0  1  0  0  3  0  0  0  0  0  0
  194.5070  169.4690  142.5180 C   0  0  1  0  0  3  0  0  0  0  0  0
  194.6010  168.3410  143.3340 O   0  0  0  0  0  1  0  0  0  0  0  0
  192.3040  170.2310  143.7300 C   0  0  0  0  0  1  0  0  0  0  0  0
  192.7690  169.7280  142.0500 S   0  0  0  0  0  0  0  0  0  0  0  0
  189.9690  171.7080  139.1340 C   0  0  0  0  0  3  0  0  0  0  0  0
  191.8630  172.9020  140.0750 C   0  0  0  0  0  0  0  0  0  0  0  0
  190.8330  170.9090  138.3660 C   0  0  0  0  0  0  0  0  0  0  0  0
  192.2160  171.1270  138.4550 C   0  0  0  0  0  3  0  0  0  0  0  0
  192.7260  172.1120  139.3030 C   0  0  0  0  0  3  0  0  0  0  0  0
  190.4830  172.6930  139.9830 C   0  0  0  0  0  3  0  0  0  0  0  0
  188.8870  169.8560  137.5150 F   0  0  0  0  0  0  0  0  0  0  0  0
  190.2770  169.8730  137.4190 C   0  0  2  0  0  0  0  0  0  0  0  0
  190.8270  168.5670  137.7930 N   0  0  0  0  0  2  0  0  0  0  0  0
  190.2640  168.1660  138.9600 O   0  0  0  0  0  1  0  0  0  0  0  0
  190.6900  170.2420  135.9860 C   0  0  0  0  0  2  0  0  0  0  0  0
  191.3610  172.0550  134.5730 O   0  0  0  0  0  1  0  0  0  0  0  0
  190.5700  171.7320  135.6790 C   0  0  0  0  0  2  0  0  0  0  0  0
  188.0220  175.9990  146.8620 C   0  0  0  0  0  3  0  0  0  0  0  0
  189.0920  175.2740  146.5330 C   0  0  0  0  0  3  0  0  0  0  0  0
  187.8480  177.3380  146.4020 N   0  0  0  0  0  2  0  0  0  0  0  0
  186.5320  177.8570  146.0660 C   0  0  0  0  0  2  0  0  0  0  0  0
  184.9890  179.7760  144.1690 C   0  0  0  0  0  2  0  0  0  0  0  0
  186.7760  176.7380  143.8680 C   0  0  0  0  0  3  0  0  0  0  0  0
  187.4910  177.0410  141.6340 O   0  0  0  0  0  1  0  0  0  0  0  0
  186.3610  176.8710  142.4330 C   0  0  2  0  0  3  0  0  0  0  0  0
  186.2660  177.7100  144.6010 C   0  0  0  0  0  0  0  0  0  0  0  0
  185.4960  178.1350  142.3690 C   0  0  2  0  0  3  0  0  0  0  0  0
  185.4730  178.6010  143.7780 C   0  0  0  0  0  0  0  0  0  0  0  0
  183.9270  178.6440  140.8950 C   0  0  0  0  0  1  0  0  0  0  0  0
  184.2040  177.7950  141.9650 O   0  0  0  0  0  0  0  0  0  0  0  0
  2  1  2  0  0  0  0
  3  4  1  0  0  0  0
  4  6  1  0  0  0  0
  5  3  1  0  0  0  0
  6  1  1  0  0  0  0
  6 44  1  0  0  0  0
  7  8  1  0  0  0  0
  8  5  2  0  0  0  0
  9  8  1  1  0  0  0
  9 11  1  0  0  0  0
  9 10  1  0  0  0  0
 10  4  2  0  0  0  0
 10  2  1  0  0  0  0
 11 15  1  6  0  0  0
 11 13  1  0  0  0  0
 14 12  1  6  0  0  0
 14 16  1  0  0  0  0
 15 14  1  0  0  0  0
 16 13  1  0  0  0  0
 16 17  1  1  0  0  0
 18 19  1  0  0  0  0
 18 17  1  0  0  0  0
 21 19  1  0  0  0  0
 21 20  2  0  0  0  0
 22 21  1  0  0  0  0
 23 22  1  0  0  0  0
 25 24  1  6  0  0  0
 25 22  1  0  0  0  0
 26 25  1  0  0  0  0
 26 27  1  1  0  0  0
 29 26  1  0  0  0  0
 29 28  1  0  0  0  0
 30 35  1  0  0  0  0
 31  7  1  0  0  0  0
 32 33  1  0  0  0  0
 32 30  2  0  0  0  0
 33 34  2  0  0  0  0
 34 31  1  0  0  0  0
 35 31  2  0  0  0  0
 37 36  1  1  0  0  0
 37 38  1  0  0  0  0
 37 32  1  0  0  0  0
 38 39  1  0  0  0  0
 40 37  1  0  0  0  0
 41 42  1  0  0  0  0
 42 40  1  0  0  0  0
 44 43  2  0  0  0  0
 45 43  1  0  0  0  0
 46 45  1  0  0  0  0
 48 51  2  0  0  0  0
 50 49  1  6  0  0  0
 50 48  1  0  0  0  0
 51 46  1  0  0  0  0
 52 55  1  1  0  0  0
 52 50  1  0  0  0  0
 52 53  1  0  0  0  0
 53 47  2  0  0  0  0
 53 51  1  0  0  0  0
 54 55  1  0  0  0  0
M  END
>  <MODEL>
7

>  <REMARK>
 VINA RESULT:      -5.6      3.831      8.864
  Name = 
  19 active torsions:
  status: ('A' for Active; 'I' for Inactive)
    1  A    between atoms: N_2  and  C_46
    2  A    between atoms: N_2  and  C_48
    3  A    between atoms: C_8  and  C_39
    4  A    between atoms: C_9  and  N_33
    5  A    between atoms: C_14  and  C_24
    6  A    between atoms: C_14  and  S_37
    7  A    between atoms: C_16  and  C_18
    8  A    between atoms: C_18  and  N_38
    9  A    between atoms: C_18  and  C_47
   10  A    between atoms: C_20  and  N_32
   11  A    between atoms: C_22  and  C_26
   12  A    between atoms: C_22  and  N_32
   13  A    between atoms: C_23  and  C_46
   14  A    between atoms: C_23  and  C_53
   15  A    between atoms: C_24  and  N_52
   16  A    between atoms: N_28  and  C_43
   17  A    between atoms: C_45  and  C_47
   18  A    between atoms: C_48  and  N_52
   19  A    between atoms: C_49  and  O_51
                            x       y       z     vdW  Elec       q    Type
                         _______ _______ _______ _____ _____    ______ ____

>  <TORSDO>
F 19

$$$$
=
 OpenBabel11042416413D

 55 59  0  0  1  0  0  0  0  0999 V2000
  196.0990  172.7400  145.7570 C   0  0  0  0  0  3  0  0  0  0  0  0
  196.0950  174.1070  145.4810 C   0  0  0  0  0  3  0  0  0  0  0  0
  192.6690  173.1820  144.6900 C   0  0  0  0  0  2  0  0  0  0  0  0
  194.0720  173.2430  145.1970 C   0  0  0  0  0  0  0  0  0  0  0  0
  192.0410  174.5020  144.8350 N   0  0  0  0  0  0  0  0  0  0  0  0
  194.8610  172.2280  145.5910 N   0  0  0  0  0  0  0  0  0  0  0  0
  191.9940  176.8840  144.9510 N   0  0  0  0  0  2  0  0  0  0  0  0
  192.6920  175.6390  144.7950 C   0  0  0  0  0  0  0  0  0  0  0  0
  194.2030  175.6800  144.5970 C   0  0  1  0  0  3  0  0  0  0  0  0
  194.7910  174.3970  145.1210 C   0  0  0  0  0  0  0  0  0  0  0  0
  194.5400  175.8660  143.1080 C   0  0  2  0  0  3  0  0  0  0  0  0
  197.7070  176.1800  141.2530 N   0  0  0  0  0  1  0  0  0  0  0  0
  194.4680  174.3010  142.1880 S   0  0  0  0  0  0  0  0  0  0  0  0
  196.2660  176.2230  141.4380 C   0  0  2  0  0  3  0  0  0  0  0  0
  195.9470  176.3830  142.9080 C   0  0  0  0  0  2  0  0  0  0  0  0
  195.6360  174.9270  140.9400 C   0  0  2  0  0  3  0  0  0  0  0  0
  194.8810  175.1900  139.6460 C   0  0  0  0  0  2  0  0  0  0  0  0
  194.7410  173.9220  138.8230 C   0  0  0  0  0  2  0  0  0  0  0  0
  193.3810  173.7870  138.3210 N   0  0  0  0  0  2  0  0  0  0  0  0
  191.9140  172.8940  136.2750 S   0  0  0  0  0  0  0  0  0  0  0  0
  193.0380  173.9010  136.9340 C   0  0  0  0  0  0  0  0  0  0  0  0
  193.6810  174.9040  136.1270 N   0  0  0  0  0  0  0  0  0  0  0  0
  193.4330  176.3170  136.3970 C   0  0  0  0  0  1  0  0  0  0  0  0
  195.2720  175.6710  134.5870 O   0  0  0  0  0  1  0  0  0  0  0  0
  194.6190  174.5330  135.0640 C   0  0  1  0  0  3  0  0  0  0  0  0
  195.6330  173.5030  135.5570 C   0  0  1  0  0  3  0  0  0  0  0  0
  195.3510  172.2550  134.9980 O   0  0  0  0  0  1  0  0  0  0  0  0
  197.7370  174.5000  136.7730 C   0  0  0  0  0  1  0  0  0  0  0  0
  197.3140  174.0060  135.0800 S   0  0  0  0  0  0  0  0  0  0  0  0
  188.6570  177.2300  146.5810 C   0  0  0  0  0  3  0  0  0  0  0  0
  190.5790  177.0790  145.1050 C   0  0  0  0  0  0  0  0  0  0  0  0
  187.8140  177.4780  145.4850 C   0  0  0  0  0  0  0  0  0  0  0  0
  188.3710  177.5350  144.2000 C   0  0  0  0  0  3  0  0  0  0  0  0
  189.7410  177.3360  144.0110 C   0  0  0  0  0  3  0  0  0  0  0  0
  190.0270  177.0290  146.3890 C   0  0  0  0  0  3  0  0  0  0  0  0
  186.1560  179.0450  146.1320 F   0  0  0  0  0  0  0  0  0  0  0  0
  186.3410  177.7340  145.6960 C   0  0  2  0  0  0  0  0  0  0  0  0
  185.8500  176.7910  146.7060 N   0  0  0  0  0  2  0  0  0  0  0  0
  184.5250  177.0030  146.9020 O   0  0  0  0  0  1  0  0  0  0  0  0
  185.6070  177.5260  144.3620 C   0  0  0  0  0  2  0  0  0  0  0  0
  185.5480  179.7670  143.5200 O   0  0  0  0  0  1  0  0  0  0  0  0
  184.7390  178.7120  143.9510 C   0  0  0  0  0  2  0  0  0  0  0  0
  194.2950  170.0500  144.6580 C   0  0  0  0  0  3  0  0  0  0  0  0
  194.5390  170.8370  145.7070 C   0  0  0  0  0  3  0  0  0  0  0  0
  194.2670  170.5580  143.3250 N   0  0  0  0  0  2  0  0  0  0  0  0
  193.4790  169.9130  142.2870 C   0  0  0  0  0  2  0  0  0  0  0  0
  192.1860  170.4050  139.5030 C   0  0  0  0  0  2  0  0  0  0  0  0
  191.5180  171.3190  142.8550 C   0  0  0  0  0  3  0  0  0  0  0  0
  189.1700  171.5060  142.6440 O   0  0  0  0  0  1  0  0  0  0  0  0
  190.3780  172.0540  142.2150 C   0  0  2  0  0  3  0  0  0  0  0  0
  192.2810  170.7430  141.9450 C   0  0  0  0  0  0  0  0  0  0  0  0
  190.5350  171.8250  140.7060 C   0  0  2  0  0  3  0  0  0  0  0  0
  191.7650  170.9990  140.6160 C   0  0  0  0  0  0  0  0  0  0  0  0
  189.5380  173.7360  140.2080 C   0  0  0  0  0  1  0  0  0  0  0  0
  190.7430  173.0500  140.0690 O   0  0  0  0  0  0  0  0  0  0  0  0
  2  1  2  0  0  0  0
  3  5  1  0  0  0  0
  3  4  1  0  0  0  0
  4  6  1  0  0  0  0
  6 44  1  0  0  0  0
  6  1  1  0  0  0  0
  7 31  1  0  0  0  0
  8  5  2  0  0  0  0
  8  7  1  0  0  0  0
  9  8  1  6  0  0  0
  9 10  1  0  0  0  0
 10  4  2  0  0  0  0
 10  2  1  0  0  0  0
 11 15  1  1  0  0  0
 11  9  1  0  0  0  0
 13 11  1  0  0  0  0
 14 12  1  1  0  0  0
 14 15  1  0  0  0  0
 16 17  1  6  0  0  0
 16 14  1  0  0  0  0
 16 13  1  0  0  0  0
 18 17  1  0  0  0  0
 19 18  1  0  0  0  0
 20 21  2  0  0  0  0
 21 19  1  0  0  0  0
 22 23  1  0  0  0  0
 22 21  1  0  0  0  0
 25 24  1  1  0  0  0
 25 26  1  0  0  0  0
 25 22  1  0  0  0  0
 26 27  1  6  0  0  0
 29 26  1  0  0  0  0
 29 28  1  0  0  0  0
 31 35  2  0  0  0  0
 32 37  1  0  0  0  0
 32 30  2  0  0  0  0
 33 32  1  0  0  0  0
 34 33  2  0  0  0  0
 34 31  1  0  0  0  0
 35 30  1  0  0  0  0
 37 36  1  1  0  0  0
 37 38  1  0  0  0  0
 38 39  1  0  0  0  0
 40 37  1  0  0  0  0
 41 42  1  0  0  0  0
 42 40  1  0  0  0  0
 43 44  2  0  0  0  0
 45 43  1  0  0  0  0
 46 45  1  0  0  0  0
 47 53  2  0  0  0  0
 50 49  1  1  0  0  0
 50 48  1  0  0  0  0
 51 46  1  0  0  0  0
 51 48  2  0  0  0  0
 52 55  1  6  0  0  0
 52 50  1  0  0  0  0
 53 52  1  0  0  0  0
 53 51  1  0  0  0  0
 55 54  1  0  0  0  0
M  END
>  <MODEL>
8

>  <REMARK>
 VINA RESULT:      -5.6      3.717      6.876
  Name = 
  19 active torsions:
  status: ('A' for Active; 'I' for Inactive)
    1  A    between atoms: N_2  and  C_46
    2  A    between atoms: N_2  and  C_48
    3  A    between atoms: C_8  and  C_39
    4  A    between atoms: C_9  and  N_33
    5  A    between atoms: C_14  and  C_24
    6  A    between atoms: C_14  and  S_37
    7  A    between atoms: C_16  and  C_18
    8  A    between atoms: C_18  and  N_38
    9  A    between atoms: C_18  and  C_47
   10  A    between atoms: C_20  and  N_32
   11  A    between atoms: C_22  and  C_26
   12  A    between atoms: C_22  and  N_32
   13  A    between atoms: C_23  and  C_46
   14  A    between atoms: C_23  and  C_53
   15  A    between atoms: C_24  and  N_52
   16  A    between atoms: N_28  and  C_43
   17  A    between atoms: C_45  and  C_47
   18  A    between atoms: C_48  and  N_52
   19  A    between atoms: C_49  and  O_51
                            x       y       z     vdW  Elec       q    Type
                         _______ _______ _______ _____ _____    ______ ____

>  <TORSDO>
F 19

$$$$
=
 OpenBabel11042416413D

 55 59  0  0  1  0  0  0  0  0999 V2000
  196.6280  171.2390  141.6490 C   0  0  0  0  0  3  0  0  0  0  0  0
  196.6420  172.6150  141.4230 C   0  0  0  0  0  3  0  0  0  0  0  0
  193.0770  171.9360  141.6230 C   0  0  0  0  0  2  0  0  0  0  0  0
  194.5660  171.8890  141.7080 C   0  0  0  0  0  0  0  0  0  0  0  0
  192.6110  173.2840  141.9790 N   0  0  0  0  0  0  0  0  0  0  0  0
  195.3600  170.8110  141.8310 N   0  0  0  0  0  0  0  0  0  0  0  0
  192.7690  175.6560  142.1700 N   0  0  0  0  0  2  0  0  0  0  0  0
  193.3030  174.3800  141.7850 C   0  0  0  0  0  0  0  0  0  0  0  0
  194.6940  174.3390  141.1630 C   0  0  1  0  0  3  0  0  0  0  0  0
  195.3140  172.9990  141.4610 C   0  0  0  0  0  0  0  0  0  0  0  0
  194.6060  174.5740  139.6460 C   0  0  2  0  0  3  0  0  0  0  0  0
  197.0830  175.5140  137.0860 N   0  0  0  0  0  1  0  0  0  0  0  0
  194.6270  173.0170  138.7090 S   0  0  0  0  0  0  0  0  0  0  0  0
  195.7550  175.2610  137.6200 C   0  0  2  0  0  3  0  0  0  0  0  0
  195.7850  175.3680  139.1280 C   0  0  0  0  0  2  0  0  0  0  0  0
  195.2970  173.8570  137.2390 C   0  0  2  0  0  3  0  0  0  0  0  0
  194.2070  173.9440  136.1810 C   0  0  0  0  0  2  0  0  0  0  0  0
  193.8190  172.5660  135.6760 C   0  0  0  0  0  2  0  0  0  0  0  0
  192.3830  172.3640  135.7990 N   0  0  0  0  0  2  0  0  0  0  0  0
  191.5740  169.9420  135.0160 S   0  0  0  0  0  0  0  0  0  0  0  0
  191.7920  171.1080  136.1580 C   0  0  0  0  0  0  0  0  0  0  0  0
  191.3970  170.8770  137.5230 N   0  0  0  0  0  0  0  0  0  0  0  0
  192.3050  170.1810  138.4290 C   0  0  0  0  0  1  0  0  0  0  0  0
  189.3340  170.2960  138.4690 O   0  0  0  0  0  1  0  0  0  0  0  0
  190.1140  171.3680  138.0320 C   0  0  1  0  0  3  0  0  0  0  0  0
  190.3180  172.3760  139.1610 C   0  0  1  0  0  3  0  0  0  0  0  0
  191.0350  173.4770  138.6900 O   0  0  0  0  0  1  0  0  0  0  0  0
  188.2040  173.5890  138.1780 C   0  0  0  0  0  1  0  0  0  0  0  0
  188.7070  172.9350  139.7940 S   0  0  0  0  0  0  0  0  0  0  0  0
  190.1540  176.7710  144.5840 C   0  0  0  0  0  3  0  0  0  0  0  0
  191.4740  175.9290  142.7280 C   0  0  0  0  0  0  0  0  0  0  0  0
  188.9660  176.5140  143.8780 C   0  0  0  0  0  0  0  0  0  0  0  0
  189.0490  175.9720  142.5880 C   0  0  0  0  0  3  0  0  0  0  0  0
  190.2910  175.6800  142.0180 C   0  0  0  0  0  3  0  0  0  0  0  0
  191.3950  176.4770  144.0130 C   0  0  0  0  0  3  0  0  0  0  0  0
  186.6410  176.0570  143.9250 F   0  0  0  0  0  0  0  0  0  0  0  0
  187.6280  176.8690  144.4790 C   0  0  2  0  0  0  0  0  0  0  0  0
  187.3500  178.2780  144.1820 N   0  0  0  0  0  2  0  0  0  0  0  0
  186.3730  178.3490  143.2440 O   0  0  0  0  0  1  0  0  0  0  0  0
  187.6910  176.6400  145.9970 C   0  0  0  0  0  2  0  0  0  0  0  0
  185.5440  176.8560  147.0360 O   0  0  0  0  0  1  0  0  0  0  0  0
  186.7420  177.5340  146.7900 C   0  0  0  0  0  2  0  0  0  0  0  0
  194.4640  168.9490  143.1220 C   0  0  0  0  0  3  0  0  0  0  0  0
  194.9860  169.4380  141.9960 C   0  0  0  0  0  3  0  0  0  0  0  0
  194.3020  169.7550  144.2890 N   0  0  0  0  0  2  0  0  0  0  0  0
  195.4010  169.9710  145.2170 C   0  0  0  0  0  2  0  0  0  0  0  0
  193.4220  172.3620  145.3810 C   0  0  0  0  0  2  0  0  0  0  0  0
  196.9270  171.9020  145.5070 C   0  0  0  0  0  3  0  0  0  0  0  0
  197.4170  173.7670  146.8760 O   0  0  0  0  0  1  0  0  0  0  0  0
  196.9160  173.3970  145.6280 C   0  0  2  0  0  3  0  0  0  0  0  0
  195.7060  171.4310  145.3390 C   0  0  0  0  0  0  0  0  0  0  0  0
  195.4410  173.8080  145.5290 C   0  0  2  0  0  3  0  0  0  0  0  0
  194.7420  172.5130  145.3350 C   0  0  0  0  0  0  0  0  0  0  0  0
  196.4580  175.3070  144.2590 C   0  0  0  0  0  1  0  0  0  0  0  0
  195.2580  174.6140  144.4040 O   0  0  0  0  0  0  0  0  0  0  0  0
  1  6  1  0  0  0  0
  2 10  1  0  0  0  0
  2  1  2  0  0  0  0
  3  4  1  0  0  0  0
  3  5  1  0  0  0  0
  4  6  1  0  0  0  0
  6 44  1  0  0  0  0
  7 31  1  0  0  0  0
  8  5  2  0  0  0  0
  8  7  1  0  0  0  0
  9 10  1  6  0  0  0
  9  8  1  0  0  0  0
 10  4  2  0  0  0  0
 11 15  1  6  0  0  0
 11  9  1  0  0  0  0
 13 11  1  0  0  0  0
 14 12  1  1  0  0  0
 14 15  1  0  0  0  0
 16 17  1  6  0  0  0
 16 14  1  0  0  0  0
 16 13  1  0  0  0  0
 18 19  1  0  0  0  0
 18 17  1  0  0  0  0
 19 21  1  0  0  0  0
 20 21  2  0  0  0  0
 21 22  1  0  0  0  0
 22 25  1  0  0  0  0
 22 23  1  0  0  0  0
 25 24  1  1  0  0  0
 25 26  1  0  0  0  0
 26 27  1  6  0  0  0
 26 29  1  0  0  0  0
 28 29  1  0  0  0  0
 31 35  2  0  0  0  0
 32 37  1  0  0  0  0
 32 30  2  0  0  0  0
 33 32  1  0  0  0  0
 34 33  2  0  0  0  0
 34 31  1  0  0  0  0
 35 30  1  0  0  0  0
 37 36  1  6  0  0  0
 37 40  1  0  0  0  0
 38 37  1  0  0  0  0
 39 38  1  0  0  0  0
 40 42  1  0  0  0  0
 42 41  1  0  0  0  0
 43 45  1  0  0  0  0
 44 43  2  0  0  0  0
 45 46  1  0  0  0  0
 46 51  1  0  0  0  0
 48 50  1  0  0  0  0
 50 49  1  1  0  0  0
 51 48  2  0  0  0  0
 52 55  1  6  0  0  0
 52 50  1  0  0  0  0
 53 51  1  0  0  0  0
 53 47  2  0  0  0  0
 53 52  1  0  0  0  0
 54 55  1  0  0  0  0
M  END
>  <MODEL>
9

>  <REMARK>
 VINA RESULT:      -5.6      4.221      6.970
  Name = 
  19 active torsions:
  status: ('A' for Active; 'I' for Inactive)
    1  A    between atoms: N_2  and  C_46
    2  A    between atoms: N_2  and  C_48
    3  A    between atoms: C_8  and  C_39
    4  A    between atoms: C_9  and  N_33
    5  A    between atoms: C_14  and  C_24
    6  A    between atoms: C_14  and  S_37
    7  A    between atoms: C_16  and  C_18
    8  A    between atoms: C_18  and  N_38
    9  A    between atoms: C_18  and  C_47
   10  A    between atoms: C_20  and  N_32
   11  A    between atoms: C_22  and  C_26
   12  A    between atoms: C_22  and  N_32
   13  A    between atoms: C_23  and  C_46
   14  A    between atoms: C_23  and  C_53
   15  A    between atoms: C_24  and  N_52
   16  A    between atoms: N_28  and  C_43
   17  A    between atoms: C_45  and  C_47
   18  A    between atoms: C_48  and  N_52
   19  A    between atoms: C_49  and  O_51
                            x       y       z     vdW  Elec       q    Type
                         _______ _______ _______ _____ _____    ______ ____

>  <TORSDO>
F 19

$$$$
