=
 OpenBabel11042417243D

 56 60  0  0  1  0  0  0  0  0999 V2000
  189.4460  174.3160  144.0130 C   0  0  2  0  0  3  0  0  0  0  0  0
  188.7120  175.6540  144.0230 C   0  0  0  0  0  2  0  0  0  0  0  0
  190.6830  174.7400  146.0180 C   0  0  2  0  0  3  0  0  0  0  0  0
  190.7830  174.5050  144.5750 N   0  0  0  0  0  2  0  0  0  0  0  0
  189.7840  176.4570  147.4380 O   0  0  0  0  0  0  0  0  0  0  0  0
  189.7270  175.8710  146.3230 C   0  0  0  0  0  0  0  0  0  0  0  0
  188.7040  176.2220  145.3720 N   0  0  0  0  0  0  0  0  0  0  0  0
  192.8340  175.9480  145.8340 C   0  0  0  0  0  0  0  0  0  0  0  0
  194.9340  174.9090  144.4330 C   0  0  0  0  0  0  0  0  0  0  0  0
  192.0760  175.0290  146.5720 C   0  0  1  0  0  0  0  0  0  0  0  0
  194.1760  173.9210  145.1680 C   0  0  0  0  0  3  0  0  0  0  0  0
  193.4950  176.9270  145.1610 C   0  0  0  0  0  3  0  0  0  0  0  0
  192.2690  175.1030  147.9400 F   0  0  0  0  0  0  0  0  0  0  0  0
  193.1560  174.5210  145.8380 C   0  0  0  0  0  0  0  0  0  0  0  0
  194.5940  176.3410  144.4400 C   0  0  0  0  0  3  0  0  0  0  0  0
  196.2520  173.2610  143.3440 O   0  0  0  0  0  0  0  0  0  0  0  0
  196.1110  174.4760  143.6490 C   0  0  0  0  0  0  0  0  0  0  0  0
  197.1340  175.4620  143.1710 C   0  0  0  0  0  2  0  0  0  0  0  0
  197.9410  175.0170  140.9140 N   0  0  0  0  0  1  0  0  0  0  0  0
  196.9530  175.7520  141.6900 C   0  0  0  0  0  2  0  0  0  0  0  0
  189.6310  172.6760  140.0340 C   0  0  0  0  0  3  0  0  0  0  0  0
  189.0280  173.9180  140.2400 C   0  0  0  0  0  3  0  0  0  0  0  0
  188.9630  174.4570  141.5270 C   0  0  0  0  0  3  0  0  0  0  0  0
  189.5110  173.7640  142.6180 C   0  0  0  0  0  0  0  0  0  0  0  0
  190.1700  171.9720  141.1120 C   0  0  0  0  0  0  0  0  0  0  0  0
  190.1140  172.5150  142.4030 C   0  0  0  0  0  3  0  0  0  0  0  0
  190.7430  170.6190  140.8870 C   0  0  0  0  0  2  0  0  0  0  0  0
  191.1190  170.4120  139.4250 C   0  0  0  0  0  2  0  0  0  0  0  0
  192.6310  170.4370  139.2760 C   0  0  0  0  0  2  0  0  0  0  0  0
  193.0290  170.6360  137.8230 C   0  0  0  0  0  2  0  0  0  0  0  0
  193.5840  171.9750  137.6470 N   0  0  0  0  0  0  0  0  0  0  0  0
  195.8260  171.4860  138.0610 O   0  0  0  0  0  0  0  0  0  0  0  0
  194.8540  172.2670  138.2500 C   0  0  0  0  0  0  0  0  0  0  0  0
  190.8360  174.3570  136.4860 C   0  0  0  0  0  2  0  0  0  0  0  0
  191.6120  173.3210  137.2500 C   0  0  0  0  0  2  0  0  0  0  0  0
  193.4320  173.5290  135.7010 N   0  0  0  0  0  0  0  0  0  0  0  0
  192.8600  172.9750  136.8990 C   0  0  0  0  0  0  0  0  0  0  0  0
  191.2470  174.3730  135.0170 C   0  0  0  0  0  2  0  0  0  0  0  0
  192.7570  174.5700  134.9290 C   0  0  0  0  0  2  0  0  0  0  0  0
  195.4330  174.5350  138.5970 O   0  0  0  0  0  0  0  0  0  0  0  0
  195.0380  173.4500  139.1080 C   0  0  0  0  0  0  0  0  0  0  0  0
  194.7640  173.3480  140.4820 O   0  0  0  0  0  0  0  0  0  0  0  0
  193.5080  173.5420  141.0820 C   0  0  0  0  0  3  0  0  0  0  0  0
  192.9130  174.7180  141.1840 C   0  0  0  0  0  2  0  0  0  0  0  0
  187.8060  177.3390  145.6300 C   0  0  0  0  0  2  0  0  0  0  0  0
  186.6420  176.9060  146.5150 C   0  0  0  0  0  2  0  0  0  0  0  0
  185.8280  178.0480  146.9120 N   0  0  0  0  0  2  0  0  0  0  0  0
  184.4590  177.8090  146.4730 C   0  0  0  0  0  2  0  0  0  0  0  0
  184.0580  178.8210  145.4110 C   0  0  0  0  0  2  0  0  0  0  0  0
  184.4650  178.3220  144.0360 C   0  0  0  0  0  2  0  0  0  0  0  0
  185.1400  179.3770  143.3020 N   0  0  0  0  0  0  0  0  0  0  0  0
  185.5240  180.3050  144.2130 O   0  0  0  0  0  1  0  0  0  0  0  0
  186.3550  178.7880  142.7620 C   0  0  0  0  0  2  0  0  0  0  0  0
  186.0290  177.9230  141.5930 C   0  0  0  0  0  0  0  0  0  0  0  0
  186.3650  176.7080  141.5910 O   0  0  0  0  0  1  0  0  0  0  0  0
  185.4040  178.4690  140.4800 O   0  0  0  0  0  0  0  0  0  0  0  0
  1 24  1  6  0  0  0
  1  2  1  0  0  0  0
  1  4  1  0  0  0  0
  2  7  1  0  0  0  0
  3  4  1  6  0  0  0
  3  6  1  0  0  0  0
  3 10  1  0  0  0  0
  6  5  2  0  0  0  0
  7 45  1  0  0  0  0
  7  6  1  0  0  0  0
  8 14  1  0  0  0  0
  8 10  1  0  0  0  0
  9 15  2  0  0  0  0
  9 11  1  0  0  0  0
 10 13  1  1  0  0  0
 11 14  2  0  0  0  0
 12  8  2  0  0  0  0
 14 10  1  0  0  0  0
 15 12  1  0  0  0  0
 16 17  2  0  0  0  0
 17  9  1  0  0  0  0
 18 17  1  0  0  0  0
 19 20  1  0  0  0  0
 20 18  1  0  0  0  0
 21 22  2  0  0  0  0
 21 25  1  0  0  0  0
 22 23  1  0  0  0  0
 23 24  2  0  0  0  0
 25 26  2  0  0  0  0
 26 24  1  0  0  0  0
 27 25  1  0  0  0  0
 28 27  1  0  0  0  0
 29 28  1  0  0  0  0
 30 29  1  0  0  0  0
 31 30  1  0  0  0  0
 31 33  1  0  0  0  0
 32 33  2  0  0  0  0
 33 41  1  0  0  0  0
 34 35  1  0  0  0  0
 36 37  2  0  0  0  0
 37 35  1  0  0  0  0
 37 31  1  0  0  0  0
 38 34  1  0  0  0  0
 39 38  1  0  0  0  0
 39 36  1  0  0  0  0
 40 41  2  0  0  0  0
 41 42  1  0  0  0  0
 42 43  1  0  0  0  0
 43 44  2  0  0  0  0
 45 46  1  0  0  0  0
 46 47  1  0  0  0  0
 48 47  1  0  0  0  0
 49 48  1  0  0  0  0
 50 49  1  0  0  0  0
 51 50  1  0  0  0  0
 51 52  1  0  0  0  0
 53 51  1  0  0  0  0
 54 53  1  0  0  0  0
 55 54  1  0  0  0  0
 56 54  2  0  0  0  0
M  END
>  <MODEL>
1

>  <REMARK>
 VINA RESULT:      -5.8      0.000      0.000
  Name = 
  23 active torsions:
  status: ('A' for Active; 'I' for Inactive)
    1  A    between atoms: C_6  and  C_15
    2  A    between atoms: C_6  and  N_56
    3  A    between atoms: C_8  and  C_44
    4  A    between atoms: N_9  and  C_15
    5  A    between atoms: N_9  and  C_31
    6  A    between atoms: C_10  and  C_22
    7  A    between atoms: C_13  and  N_23
    8  A    between atoms: C_13  and  C_30
    9  A    between atoms: C_14  and  O_33
   10  A    between atoms: C_16  and  C_48
   11  A    between atoms: C_17  and  N_23
   12  A    between atoms: C_24  and  C_35
   13  A    between atoms: C_25  and  C_41
   14  A    between atoms: C_28  and  C_31
   15  A    between atoms: C_28  and  C_34
   16  A    between atoms: C_30  and  C_47
   17  A    between atoms: O_33  and  C_36
   18  A    between atoms: C_34  and  N_43
   19  A    between atoms: C_36  and  C_55
   20  A    between atoms: C_37  and  C_39
   21  A    between atoms: C_39  and  C_47
   22  A    between atoms: C_41  and  C_48
   23  A    between atoms: N_43  and  C_44
                            x       y       z     vdW  Elec       q    Type
                         _______ _______ _______ _____ _____    ______ ____

>  <TORSDO>
F 23

$$$$
=
 OpenBabel11042417243D

 56 60  0  0  1  0  0  0  0  0999 V2000
  189.1090  175.1510  144.0360 C   0  0  2  0  0  3  0  0  0  0  0  0
  190.0560  174.7130  142.9220 C   0  0  0  0  0  2  0  0  0  0  0  0
  187.5880  176.2910  142.5810 C   0  0  2  0  0  3  0  0  0  0  0  0
  188.5370  176.4510  143.6870 N   0  0  0  0  0  2  0  0  0  0  0  0
  187.7130  175.6640  140.2650 O   0  0  0  0  0  0  0  0  0  0  0  0
  188.2250  175.5720  141.4140 C   0  0  0  0  0  0  0  0  0  0  0  0
  189.3660  174.7200  141.6310 N   0  0  0  0  0  0  0  0  0  0  0  0
  186.0420  178.1850  142.9640 C   0  0  0  0  0  0  0  0  0  0  0  0
  183.5680  178.2570  141.8150 C   0  0  0  0  0  0  0  0  0  0  0  0
  187.0730  177.6680  142.1680 C   0  0  1  0  0  0  0  0  0  0  0  0
  184.5940  177.7050  140.9580 C   0  0  0  0  0  3  0  0  0  0  0  0
  185.1280  178.7050  143.8250 C   0  0  0  0  0  3  0  0  0  0  0  0
  187.9600  178.6200  141.6990 F   0  0  0  0  0  0  0  0  0  0  0  0
  185.7910  177.7100  141.6040 C   0  0  0  0  0  0  0  0  0  0  0  0
  183.8400  178.7280  143.1820 C   0  0  0  0  0  3  0  0  0  0  0  0
  181.8880  177.8780  140.1790 O   0  0  0  0  0  0  0  0  0  0  0  0
  182.1860  178.3700  141.3010 C   0  0  0  0  0  0  0  0  0  0  0  0
  181.1070  179.0320  142.1050 C   0  0  0  0  0  2  0  0  0  0  0  0
  178.9510  179.5210  141.0780 N   0  0  0  0  0  1  0  0  0  0  0  0
  179.7400  178.4850  141.7280 C   0  0  0  0  0  2  0  0  0  0  0  0
  191.2260  175.3550  147.7820 C   0  0  0  0  0  3  0  0  0  0  0  0
  189.8870  174.9610  147.7680 C   0  0  0  0  0  3  0  0  0  0  0  0
  189.1920  174.8930  146.5580 C   0  0  0  0  0  3  0  0  0  0  0  0
  189.8340  175.2060  145.3500 C   0  0  0  0  0  0  0  0  0  0  0  0
  191.8730  175.6790  146.5880 C   0  0  0  0  0  0  0  0  0  0  0  0
  191.1810  175.6020  145.3720 C   0  0  0  0  0  3  0  0  0  0  0  0
  193.2770  176.1650  146.6280 C   0  0  0  0  0  2  0  0  0  0  0  0
  193.6450  176.9070  145.3490 C   0  0  0  0  0  2  0  0  0  0  0  0
  195.1340  176.7700  145.0870 C   0  0  0  0  0  2  0  0  0  0  0  0
  195.6030  175.3480  145.3530 C   0  0  0  0  0  2  0  0  0  0  0  0
  195.5260  174.5700  144.1200 N   0  0  0  0  0  0  0  0  0  0  0  0
  197.3260  175.5250  142.9860 O   0  0  0  0  0  0  0  0  0  0  0  0
  196.1360  175.1100  142.9380 C   0  0  0  0  0  0  0  0  0  0  0  0
  192.7740  171.9270  144.2560 C   0  0  0  0  0  2  0  0  0  0  0  0
  193.5110  173.2370  144.2720 C   0  0  0  0  0  2  0  0  0  0  0  0
  195.5940  172.0780  144.0010 N   0  0  0  0  0  0  0  0  0  0  0  0
  194.8410  173.2990  144.0980 C   0  0  0  0  0  0  0  0  0  0  0  0
  193.6630  170.7950  144.7620 C   0  0  0  0  0  2  0  0  0  0  0  0
  194.9470  170.7710  143.9380 C   0  0  0  0  0  2  0  0  0  0  0  0
  194.3920  175.9840  141.5990 O   0  0  0  0  0  0  0  0  0  0  0  0
  195.3890  175.2140  141.6730 C   0  0  0  0  0  0  0  0  0  0  0  0
  195.8090  174.4560  140.5670 O   0  0  0  0  0  0  0  0  0  0  0  0
  195.0570  173.4540  139.9280 C   0  0  0  0  0  3  0  0  0  0  0  0
  194.4680  172.4570  140.5640 C   0  0  0  0  0  2  0  0  0  0  0  0
  190.0190  174.0580  140.5110 C   0  0  0  0  0  2  0  0  0  0  0  0
  190.7600  172.8100  140.9770 C   0  0  0  0  0  2  0  0  0  0  0  0
  190.0890  171.5980  140.5230 N   0  0  0  0  0  2  0  0  0  0  0  0
  191.1060  170.6410  140.1040 C   0  0  0  0  0  2  0  0  0  0  0  0
  191.4950  170.8820  138.6540 C   0  0  0  0  0  2  0  0  0  0  0  0
  190.2500  171.0410  137.8000 C   0  0  0  0  0  2  0  0  0  0  0  0
  190.6050  171.5600  136.4910 N   0  0  0  0  0  0  0  0  0  0  0  0
  190.6840  170.4960  135.6550 O   0  0  0  0  0  1  0  0  0  0  0  0
  189.4750  172.3620  136.0490 C   0  0  0  0  0  2  0  0  0  0  0  0
  189.5020  173.6960  136.7120 C   0  0  0  0  0  0  0  0  0  0  0  0
  190.5610  174.3810  136.7110 O   0  0  0  0  0  0  0  0  0  0  0  0
  188.3770  174.1620  137.3780 O   0  0  0  0  0  1  0  0  0  0  0  0
  1 24  1  1  0  0  0
  2  1  1  0  0  0  0
  3  6  1  6  0  0  0
  3  4  1  0  0  0  0
  4  1  1  0  0  0  0
  5  6  2  0  0  0  0
  6  7  1  0  0  0  0
  7  2  1  0  0  0  0
  8 12  1  0  0  0  0
  9 15  1  0  0  0  0
 10 13  1  6  0  0  0
 10  3  1  0  0  0  0
 10  8  1  0  0  0  0
 11 14  1  0  0  0  0
 11  9  2  0  0  0  0
 14 10  1  0  0  0  0
 14  8  2  0  0  0  0
 15 12  2  0  0  0  0
 16 17  2  0  0  0  0
 17  9  1  0  0  0  0
 17 18  1  0  0  0  0
 19 20  1  0  0  0  0
 20 18  1  0  0  0  0
 22 21  1  0  0  0  0
 23 22  2  0  0  0  0
 24 26  2  0  0  0  0
 24 23  1  0  0  0  0
 25 27  1  0  0  0  0
 25 21  2  0  0  0  0
 26 25  1  0  0  0  0
 28 27  1  0  0  0  0
 29 28  1  0  0  0  0
 29 30  1  0  0  0  0
 31 30  1  0  0  0  0
 33 32  2  0  0  0  0
 33 31  1  0  0  0  0
 34 35  1  0  0  0  0
 34 38  1  0  0  0  0
 36 37  2  0  0  0  0
 37 31  1  0  0  0  0
 37 35  1  0  0  0  0
 39 36  1  0  0  0  0
 39 38  1  0  0  0  0
 40 41  2  0  0  0  0
 41 33  1  0  0  0  0
 42 41  1  0  0  0  0
 43 44  2  0  0  0  0
 43 42  1  0  0  0  0
 45 46  1  0  0  0  0
 45  7  1  0  0  0  0
 47 46  1  0  0  0  0
 48 47  1  0  0  0  0
 49 48  1  0  0  0  0
 50 49  1  0  0  0  0
 51 50  1  0  0  0  0
 52 51  1  0  0  0  0
 53 51  1  0  0  0  0
 53 54  1  0  0  0  0
 54 56  1  0  0  0  0
 55 54  2  0  0  0  0
M  END
>  <MODEL>
2

>  <REMARK>
 VINA RESULT:      -5.7      2.881      9.119
  Name = 
  23 active torsions:
  status: ('A' for Active; 'I' for Inactive)
    1  A    between atoms: C_6  and  C_15
    2  A    between atoms: C_6  and  N_56
    3  A    between atoms: C_8  and  C_44
    4  A    between atoms: N_9  and  C_15
    5  A    between atoms: N_9  and  C_31
    6  A    between atoms: C_10  and  C_22
    7  A    between atoms: C_13  and  N_23
    8  A    between atoms: C_13  and  C_30
    9  A    between atoms: C_14  and  O_33
   10  A    between atoms: C_16  and  C_48
   11  A    between atoms: C_17  and  N_23
   12  A    between atoms: C_24  and  C_35
   13  A    between atoms: C_25  and  C_41
   14  A    between atoms: C_28  and  C_31
   15  A    between atoms: C_28  and  C_34
   16  A    between atoms: C_30  and  C_47
   17  A    between atoms: O_33  and  C_36
   18  A    between atoms: C_34  and  N_43
   19  A    between atoms: C_36  and  C_55
   20  A    between atoms: C_37  and  C_39
   21  A    between atoms: C_39  and  C_47
   22  A    between atoms: C_41  and  C_48
   23  A    between atoms: N_43  and  C_44
                            x       y       z     vdW  Elec       q    Type
                         _______ _______ _______ _____ _____    ______ ____

>  <TORSDO>
F 23

$$$$
=
 OpenBabel11042417243D

 56 60  0  0  1  0  0  0  0  0999 V2000
  191.6430  173.1880  145.0860 C   0  0  2  0  0  3  0  0  0  0  0  0
  193.1680  173.2520  145.1110 C   0  0  0  0  0  2  0  0  0  0  0  0
  191.5390  171.1920  143.7690 C   0  0  2  0  0  3  0  0  0  0  0  0
  191.2140  172.6210  143.8080 N   0  0  0  0  0  2  0  0  0  0  0  0
  193.5440  169.8680  143.7460 O   0  0  0  0  0  0  0  0  0  0  0  0
  192.9990  170.9540  144.0840 C   0  0  0  0  0  0  0  0  0  0  0  0
  193.7400  171.9330  144.8370 N   0  0  0  0  0  0  0  0  0  0  0  0
  192.0930  170.9070  141.3750 C   0  0  0  0  0  0  0  0  0  0  0  0
  191.3020  172.7310  139.5040 C   0  0  0  0  0  0  0  0  0  0  0  0
  191.1720  170.6380  142.3950 C   0  0  1  0  0  0  0  0  0  0  0  0
  190.3220  172.4960  140.5410 C   0  0  0  0  0  3  0  0  0  0  0  0
  193.0620  171.0860  140.4380 C   0  0  0  0  0  3  0  0  0  0  0  0
  190.5610  169.4000  142.2960 F   0  0  0  0  0  0  0  0  0  0  0  0
  190.7930  171.5750  141.4250 C   0  0  0  0  0  0  0  0  0  0  0  0
  192.6070  172.0510  139.4710 C   0  0  0  0  0  3  0  0  0  0  0  0
  189.7870  173.8670  138.0710 O   0  0  0  0  0  0  0  0  0  0  0  0
  190.9860  173.6830  138.4180 C   0  0  0  0  0  0  0  0  0  0  0  0
  192.0620  174.4720  137.7350 C   0  0  0  0  0  2  0  0  0  0  0  0
  192.5850  174.1000  135.3820 N   0  0  0  0  0  1  0  0  0  0  0  0
  191.6770  174.7770  136.2960 C   0  0  0  0  0  2  0  0  0  0  0  0
  189.9320  177.0840  145.7570 C   0  0  0  0  0  3  0  0  0  0  0  0
  191.2200  176.9780  145.2310 C   0  0  0  0  0  3  0  0  0  0  0  0
  191.7840  175.7200  145.0110 C   0  0  0  0  0  3  0  0  0  0  0  0
  191.0580  174.5540  145.3030 C   0  0  0  0  0  0  0  0  0  0  0  0
  189.2040  175.9320  146.0630 C   0  0  0  0  0  0  0  0  0  0  0  0
  189.7640  174.6680  145.8340 C   0  0  0  0  0  3  0  0  0  0  0  0
  187.8620  176.0620  146.6890 C   0  0  0  0  0  2  0  0  0  0  0  0
  187.4860  177.5230  146.8990 C   0  0  0  0  0  2  0  0  0  0  0  0
  186.0080  177.7180  146.6080 C   0  0  0  0  0  2  0  0  0  0  0  0
  185.5460  176.7900  145.4960 C   0  0  0  0  0  2  0  0  0  0  0  0
  185.7890  177.4200  144.2020 N   0  0  0  0  0  0  0  0  0  0  0  0
  184.7260  179.4580  144.5940 O   0  0  0  0  0  0  0  0  0  0  0  0
  184.9320  178.4990  143.8010 C   0  0  0  0  0  0  0  0  0  0  0  0
  188.0050  175.1580  142.0690 C   0  0  0  0  0  2  0  0  0  0  0  0
  186.9040  175.6710  142.9540 C   0  0  0  0  0  3  0  0  0  0  0  0
  187.9420  177.8330  143.0080 N   0  0  0  0  0  2  0  0  0  0  0  0
  186.8570  176.9530  143.3500 C   0  0  0  0  0  0  0  0  0  0  0  0
  189.2990  175.9310  142.3060 C   0  0  0  0  0  2  0  0  0  0  0  0
  189.0250  177.4200  142.1200 C   0  0  0  0  0  2  0  0  0  0  0  0
  183.0220  178.2860  142.4200 O   0  0  0  0  0  0  0  0  0  0  0  0
  184.2640  178.4970  142.4880 C   0  0  0  0  0  0  0  0  0  0  0  0
  185.0270  178.7370  141.3330 O   0  0  0  0  0  0  0  0  0  0  0  0
  185.1130  177.8880  140.2170 C   0  0  0  0  0  3  0  0  0  0  0  0
  186.2520  177.5180  139.6580 C   0  0  0  0  0  2  0  0  0  0  0  0
  195.1570  171.7400  145.1070 C   0  0  0  0  0  2  0  0  0  0  0  0
  196.0070  172.3310  143.9870 C   0  0  0  0  0  2  0  0  0  0  0  0
  196.7140  173.5240  144.4350 N   0  0  0  0  0  2  0  0  0  0  0  0
  197.9390  173.6510  143.6550 C   0  0  0  0  0  2  0  0  0  0  0  0
  197.6290  174.1820  142.2650 C   0  0  0  0  0  2  0  0  0  0  0  0
  197.1140  175.6080  142.3540 C   0  0  0  0  0  2  0  0  0  0  0  0
  196.3270  175.9290  141.1770 N   0  0  0  0  0  0  0  0  0  0  0  0
  197.1270  175.7230  140.1020 O   0  0  0  0  0  1  0  0  0  0  0  0
  195.2670  174.9350  141.1100 C   0  0  0  0  0  2  0  0  0  0  0  0
  194.1060  175.3670  141.9390 C   0  0  0  0  0  0  0  0  0  0  0  0
  194.2640  176.2210  142.8520 O   0  0  0  0  0  1  0  0  0  0  0  0
  192.8600  174.7880  141.7410 O   0  0  0  0  0  0  0  0  0  0  0  0
  1  2  1  0  0  0  0
  1 24  1  6  0  0  0
  3  4  1  6  0  0  0
  3  6  1  0  0  0  0
  4  1  1  0  0  0  0
  5  6  2  0  0  0  0
  6  7  1  0  0  0  0
  7 45  1  0  0  0  0
  7  2  1  0  0  0  0
  8 14  1  0  0  0  0
  8 10  1  0  0  0  0
  9 11  1  0  0  0  0
 10 13  1  6  0  0  0
 10  3  1  0  0  0  0
 11 14  2  0  0  0  0
 12  8  2  0  0  0  0
 14 10  1  0  0  0  0
 15  9  2  0  0  0  0
 15 12  1  0  0  0  0
 16 17  2  0  0  0  0
 17  9  1  0  0  0  0
 18 17  1  0  0  0  0
 19 20  1  0  0  0  0
 20 18  1  0  0  0  0
 21 25  1  0  0  0  0
 22 21  2  0  0  0  0
 23 22  1  0  0  0  0
 23 24  2  0  0  0  0
 24 26  1  0  0  0  0
 25 27  1  0  0  0  0
 26 25  2  0  0  0  0
 27 28  1  0  0  0  0
 29 28  1  0  0  0  0
 30 29  1  0  0  0  0
 31 30  1  0  0  0  0
 33 31  1  0  0  0  0
 33 32  2  0  0  0  0
 34 38  1  0  0  0  0
 34 35  1  0  0  0  0
 35 37  2  0  0  0  0
 36 37  1  0  0  0  0
 37 31  1  0  0  0  0
 39 38  1  0  0  0  0
 39 36  1  0  0  0  0
 40 41  2  0  0  0  0
 41 33  1  0  0  0  0
 42 41  1  0  0  0  0
 43 42  1  0  0  0  0
 44 43  2  0  0  0  0
 46 47  1  0  0  0  0
 46 45  1  0  0  0  0
 48 47  1  0  0  0  0
 49 50  1  0  0  0  0
 49 48  1  0  0  0  0
 51 50  1  0  0  0  0
 52 51  1  0  0  0  0
 53 51  1  0  0  0  0
 53 54  1  0  0  0  0
 54 55  1  0  0  0  0
 56 54  2  0  0  0  0
M  END
>  <MODEL>
3

>  <REMARK>
 VINA RESULT:      -5.7      2.393      9.137
  Name = 
  23 active torsions:
  status: ('A' for Active; 'I' for Inactive)
    1  A    between atoms: C_6  and  C_15
    2  A    between atoms: C_6  and  N_56
    3  A    between atoms: C_8  and  C_44
    4  A    between atoms: N_9  and  C_15
    5  A    between atoms: N_9  and  C_31
    6  A    between atoms: C_10  and  C_22
    7  A    between atoms: C_13  and  N_23
    8  A    between atoms: C_13  and  C_30
    9  A    between atoms: C_14  and  O_33
   10  A    between atoms: C_16  and  C_48
   11  A    between atoms: C_17  and  N_23
   12  A    between atoms: C_24  and  C_35
   13  A    between atoms: C_25  and  C_41
   14  A    between atoms: C_28  and  C_31
   15  A    between atoms: C_28  and  C_34
   16  A    between atoms: C_30  and  C_47
   17  A    between atoms: O_33  and  C_36
   18  A    between atoms: C_34  and  N_43
   19  A    between atoms: C_36  and  C_55
   20  A    between atoms: C_37  and  C_39
   21  A    between atoms: C_39  and  C_47
   22  A    between atoms: C_41  and  C_48
   23  A    between atoms: N_43  and  C_44
                            x       y       z     vdW  Elec       q    Type
                         _______ _______ _______ _____ _____    ______ ____

>  <TORSDO>
F 23

$$$$
=
 OpenBabel11042417243D

 56 60  0  0  1  0  0  0  0  0999 V2000
  190.0500  171.6810  141.9810 C   0  0  2  0  0  3  0  0  0  0  0  0
  190.0700  171.8670  140.4660 C   0  0  0  0  0  2  0  0  0  0  0  0
  189.1720  173.8590  142.4460 C   0  0  2  0  0  3  0  0  0  0  0  0
  190.3240  172.9690  142.6190 N   0  0  0  0  0  2  0  0  0  0  0  0
  188.0780  174.9440  140.6020 O   0  0  0  0  0  0  0  0  0  0  0  0
  188.7800  173.9700  140.9900 C   0  0  0  0  0  0  0  0  0  0  0  0
  189.1410  172.9250  140.0670 N   0  0  0  0  0  0  0  0  0  0  0  0
  189.6200  175.2680  144.4300 C   0  0  0  0  0  0  0  0  0  0  0  0
  187.6040  176.5530  145.7470 C   0  0  0  0  0  0  0  0  0  0  0  0
  189.5110  175.2260  143.0340 C   0  0  1  0  0  0  0  0  0  0  0  0
  187.4400  176.5270  144.3110 C   0  0  0  0  0  3  0  0  0  0  0  0
  189.8330  175.2460  145.7730 C   0  0  0  0  0  3  0  0  0  0  0  0
  190.3950  176.0580  142.3710 F   0  0  0  0  0  0  0  0  0  0  0  0
  188.4860  175.8750  143.7350 C   0  0  0  0  0  0  0  0  0  0  0  0
  188.7520  175.9340  146.4300 C   0  0  0  0  0  3  0  0  0  0  0  0
  186.2670  176.7630  147.6990 O   0  0  0  0  0  0  0  0  0  0  0  0
  186.5890  177.2380  146.5760 C   0  0  0  0  0  0  0  0  0  0  0  0
  185.9490  178.5170  146.1260 C   0  0  0  0  0  2  0  0  0  0  0  0
  184.2060  179.1720  144.5530 N   0  0  0  0  0  1  0  0  0  0  0  0
  184.5270  178.2710  145.6490 C   0  0  0  0  0  2  0  0  0  0  0  0
  192.9230  168.7230  143.2250 C   0  0  0  0  0  3  0  0  0  0  0  0
  191.9850  168.4020  142.2430 C   0  0  0  0  0  3  0  0  0  0  0  0
  191.0490  169.3540  141.8340 C   0  0  0  0  0  3  0  0  0  0  0  0
  191.0510  170.6410  142.3950 C   0  0  0  0  0  0  0  0  0  0  0  0
  192.9280  169.9950  143.7990 C   0  0  0  0  0  0  0  0  0  0  0  0
  191.9970  170.9560  143.3830 C   0  0  0  0  0  3  0  0  0  0  0  0
  193.8870  170.2980  144.8940 C   0  0  0  0  0  2  0  0  0  0  0  0
  195.3220  170.3240  144.3850 C   0  0  0  0  0  2  0  0  0  0  0  0
  195.4560  171.3580  143.2800 C   0  0  0  0  0  2  0  0  0  0  0  0
  196.3130  172.5290  143.7340 C   0  0  0  0  0  2  0  0  0  0  0  0
  195.4700  173.7040  143.9300 N   0  0  0  0  0  0  0  0  0  0  0  0
  196.1610  174.2820  146.0810 O   0  0  0  0  0  0  0  0  0  0  0  0
  195.2030  174.1310  145.2740 C   0  0  0  0  0  0  0  0  0  0  0  0
  193.1670  174.6950  141.0500 C   0  0  0  0  0  2  0  0  0  0  0  0
  193.7670  173.9880  142.2330 C   0  0  0  0  0  2  0  0  0  0  0  0
  195.6430  175.4830  142.1880 N   0  0  0  0  0  0  0  0  0  0  0  0
  194.9140  174.4020  142.7950 C   0  0  0  0  0  0  0  0  0  0  0  0
  194.2530  175.3320  140.1880 C   0  0  0  0  0  2  0  0  0  0  0  0
  195.1070  176.2440  141.0630 C   0  0  0  0  0  2  0  0  0  0  0  0
  192.9940  173.4250  145.7430 O   0  0  0  0  0  0  0  0  0  0  0  0
  193.8270  174.3730  145.7400 C   0  0  0  0  0  0  0  0  0  0  0  0
  193.4700  175.6590  146.1780 O   0  0  0  0  0  0  0  0  0  0  0  0
  193.5270  176.8330  145.4080 C   0  0  0  0  0  3  0  0  0  0  0  0
  192.7400  177.0750  144.3740 C   0  0  0  0  0  2  0  0  0  0  0  0
  188.8120  173.0400  138.6540 C   0  0  0  0  0  2  0  0  0  0  0  0
  190.0310  172.7420  137.7880 C   0  0  0  0  0  2  0  0  0  0  0  0
  190.8500  173.9320  137.6030 N   0  0  0  0  0  2  0  0  0  0  0  0
  192.2230  173.5100  137.3550 C   0  0  0  0  0  2  0  0  0  0  0  0
  192.4920  172.1670  138.0140 C   0  0  0  0  0  2  0  0  0  0  0  0
  193.9810  171.8690  138.0020 C   0  0  0  0  0  2  0  0  0  0  0  0
  194.5080  171.9040  139.3540 N   0  0  0  0  0  0  0  0  0  0  0  0
  193.8500  170.9500  140.0570 O   0  0  0  0  0  1  0  0  0  0  0  0
  195.8960  171.4790  139.2630 C   0  0  0  0  0  2  0  0  0  0  0  0
  196.8010  172.6610  139.3400 C   0  0  0  0  0  0  0  0  0  0  0  0
  197.2520  173.0410  140.4540 O   0  0  0  0  0  1  0  0  0  0  0  0
  197.1030  173.3780  138.1900 O   0  0  0  0  0  0  0  0  0  0  0  0
  1 24  1  6  0  0  0
  1  4  1  0  0  0  0
  2  1  1  0  0  0  0
  3  6  1  6  0  0  0
  3  4  1  0  0  0  0
  3 10  1  0  0  0  0
  5  6  2  0  0  0  0
  7  2  1  0  0  0  0
  7  6  1  0  0  0  0
  8 12  1  0  0  0  0
  9 15  1  0  0  0  0
  9 17  1  0  0  0  0
 10 13  1  6  0  0  0
 10 14  1  0  0  0  0
 10  8  1  0  0  0  0
 11  9  2  0  0  0  0
 12 15  2  0  0  0  0
 14 11  1  0  0  0  0
 14  8  2  0  0  0  0
 17 16  2  0  0  0  0
 18 17  1  0  0  0  0
 19 20  1  0  0  0  0
 20 18  1  0  0  0  0
 21 25  1  0  0  0  0
 22 21  2  0  0  0  0
 23 22  1  0  0  0  0
 23 24  2  0  0  0  0
 24 26  1  0  0  0  0
 25 27  1  0  0  0  0
 26 25  2  0  0  0  0
 28 27  1  0  0  0  0
 29 30  1  0  0  0  0
 29 28  1  0  0  0  0
 30 31  1  0  0  0  0
 31 33  1  0  0  0  0
 33 41  1  0  0  0  0
 33 32  2  0  0  0  0
 34 35  1  0  0  0  0
 35 37  1  0  0  0  0
 36 37  2  0  0  0  0
 37 31  1  0  0  0  0
 38 34  1  0  0  0  0
 38 39  1  0  0  0  0
 39 36  1  0  0  0  0
 41 40  2  0  0  0  0
 41 42  1  0  0  0  0
 43 42  1  0  0  0  0
 44 43  2  0  0  0  0
 45  7  1  0  0  0  0
 46 45  1  0  0  0  0
 47 46  1  0  0  0  0
 48 47  1  0  0  0  0
 48 49  1  0  0  0  0
 50 49  1  0  0  0  0
 50 51  1  0  0  0  0
 51 52  1  0  0  0  0
 53 54  1  0  0  0  0
 53 51  1  0  0  0  0
 54 55  1  0  0  0  0
 56 54  2  0  0  0  0
M  END
>  <MODEL>
4

>  <REMARK>
 VINA RESULT:      -5.6      2.386      8.291
  Name = 
  23 active torsions:
  status: ('A' for Active; 'I' for Inactive)
    1  A    between atoms: C_6  and  C_15
    2  A    between atoms: C_6  and  N_56
    3  A    between atoms: C_8  and  C_44
    4  A    between atoms: N_9  and  C_15
    5  A    between atoms: N_9  and  C_31
    6  A    between atoms: C_10  and  C_22
    7  A    between atoms: C_13  and  N_23
    8  A    between atoms: C_13  and  C_30
    9  A    between atoms: C_14  and  O_33
   10  A    between atoms: C_16  and  C_48
   11  A    between atoms: C_17  and  N_23
   12  A    between atoms: C_24  and  C_35
   13  A    between atoms: C_25  and  C_41
   14  A    between atoms: C_28  and  C_31
   15  A    between atoms: C_28  and  C_34
   16  A    between atoms: C_30  and  C_47
   17  A    between atoms: O_33  and  C_36
   18  A    between atoms: C_34  and  N_43
   19  A    between atoms: C_36  and  C_55
   20  A    between atoms: C_37  and  C_39
   21  A    between atoms: C_39  and  C_47
   22  A    between atoms: C_41  and  C_48
   23  A    between atoms: N_43  and  C_44
                            x       y       z     vdW  Elec       q    Type
                         _______ _______ _______ _____ _____    ______ ____

>  <TORSDO>
F 23

$$$$
=
 OpenBabel11042417243D

 56 60  0  0  1  0  0  0  0  0999 V2000
  189.6000  174.2850  144.1660 C   0  0  2  0  0  3  0  0  0  0  0  0
  188.9200  175.6460  144.0500 C   0  0  0  0  0  2  0  0  0  0  0  0
  190.5660  174.7160  146.3130 C   0  0  2  0  0  3  0  0  0  0  0  0
  190.8540  174.4440  144.9020 N   0  0  0  0  0  2  0  0  0  0  0  0
  189.5430  176.4950  147.5640 O   0  0  0  0  0  0  0  0  0  0  0  0
  189.6180  175.8850  146.4630 C   0  0  0  0  0  0  0  0  0  0  0  0
  188.7470  176.2470  145.3740 N   0  0  0  0  0  0  0  0  0  0  0  0
  192.6420  176.0400  146.5540 C   0  0  0  0  0  0  0  0  0  0  0  0
  194.9260  175.3610  145.2230 C   0  0  0  0  0  0  0  0  0  0  0  0
  191.8800  174.9730  147.0470 C   0  0  1  0  0  0  0  0  0  0  0  0
  194.1690  174.2260  145.7010 C   0  0  0  0  0  3  0  0  0  0  0  0
  193.2970  177.1520  146.1260 C   0  0  0  0  0  3  0  0  0  0  0  0
  191.9400  174.8190  148.4210 F   0  0  0  0  0  0  0  0  0  0  0  0
  193.0540  174.6520  146.3540 C   0  0  0  0  0  0  0  0  0  0  0  0
  194.4940  176.7520  145.4330 C   0  0  0  0  0  3  0  0  0  0  0  0
  196.9210  174.1420  144.8080 O   0  0  0  0  0  0  0  0  0  0  0  0
  196.1960  175.1280  144.5030 C   0  0  0  0  0  0  0  0  0  0  0  0
  196.6320  176.0220  143.3810 C   0  0  0  0  0  2  0  0  0  0  0  0
  196.2440  176.5740  141.0380 N   0  0  0  0  0  1  0  0  0  0  0  0
  195.6730  175.9210  142.2060 C   0  0  0  0  0  2  0  0  0  0  0  0
  190.2580  172.5480  140.2800 C   0  0  0  0  0  3  0  0  0  0  0  0
  189.8700  173.8850  140.3800 C   0  0  0  0  0  3  0  0  0  0  0  0
  189.6540  174.4560  141.6360 C   0  0  0  0  0  3  0  0  0  0  0  0
  189.8360  173.6990  142.8030 C   0  0  0  0  0  0  0  0  0  0  0  0
  190.4310  171.7800  141.4330 C   0  0  0  0  0  0  0  0  0  0  0  0
  190.2240  172.3540  142.6950 C   0  0  0  0  0  3  0  0  0  0  0  0
  190.7730  170.3400  141.3060 C   0  0  0  0  0  2  0  0  0  0  0  0
  190.8220  169.9060  139.8460 C   0  0  0  0  0  2  0  0  0  0  0  0
  192.2320  169.4690  139.4880 C   0  0  0  0  0  2  0  0  0  0  0  0
  192.8280  170.3780  138.4250 C   0  0  0  0  0  2  0  0  0  0  0  0
  194.0200  171.0330  138.9550 N   0  0  0  0  0  0  0  0  0  0  0  0
  194.7290  172.1060  137.0100 O   0  0  0  0  0  0  0  0  0  0  0  0
  195.0420  171.4320  138.0300 C   0  0  0  0  0  0  0  0  0  0  0  0
  194.0280  172.7090  142.3850 C   0  0  0  0  0  2  0  0  0  0  0  0
  193.8860  172.4520  140.9120 C   0  0  0  0  0  3  0  0  0  0  0  0
  194.7120  170.2200  141.2110 N   0  0  0  0  0  2  0  0  0  0  0  0
  194.1630  171.2540  140.3750 C   0  0  0  0  0  0  0  0  0  0  0  0
  195.1300  171.8410  142.9860 C   0  0  0  0  0  2  0  0  0  0  0  0
  194.8420  170.3800  142.6570 C   0  0  0  0  0  2  0  0  0  0  0  0
  196.8120  169.8620  138.0100 O   0  0  0  0  0  0  0  0  0  0  0  0
  196.4500  171.0500  138.2340 C   0  0  0  0  0  0  0  0  0  0  0  0
  197.3660  172.0220  138.6700 O   0  0  0  0  0  0  0  0  0  0  0  0
  197.9320  172.0960  139.9540 C   0  0  0  0  0  3  0  0  0  0  0  0
  197.6910  173.0730  140.8100 C   0  0  0  0  0  2  0  0  0  0  0  0
  187.8640  177.3980  145.4850 C   0  0  0  0  0  2  0  0  0  0  0  0
  186.6610  177.0750  146.3650 C   0  0  0  0  0  2  0  0  0  0  0  0
  185.8800  178.2720  146.6510 N   0  0  0  0  0  2  0  0  0  0  0  0
  184.4800  177.9850  146.3640 C   0  0  0  0  0  2  0  0  0  0  0  0
  184.0040  178.8060  145.1760 C   0  0  0  0  0  2  0  0  0  0  0  0
  184.5160  178.1980  143.8830 C   0  0  0  0  0  2  0  0  0  0  0  0
  185.1610  179.2160  143.0730 N   0  0  0  0  0  0  0  0  0  0  0  0
  185.5910  180.1790  143.9240 O   0  0  0  0  0  1  0  0  0  0  0  0
  186.3470  178.5950  142.5050 C   0  0  0  0  0  2  0  0  0  0  0  0
  186.0220  177.9800  141.1870 C   0  0  0  0  0  0  0  0  0  0  0  0
  186.7000  177.0070  140.7590 O   0  0  0  0  0  1  0  0  0  0  0  0
  185.0070  178.5140  140.4050 O   0  0  0  0  0  0  0  0  0  0  0  0
  1 24  1  6  0  0  0
  1  4  1  0  0  0  0
  2  1  1  0  0  0  0
  2  7  1  0  0  0  0
  3  4  1  6  0  0  0
  3  6  1  0  0  0  0
  3 10  1  0  0  0  0
  6  5  2  0  0  0  0
  7 45  1  0  0  0  0
  7  6  1  0  0  0  0
  8 10  1  0  0  0  0
  9 15  2  0  0  0  0
  9 11  1  0  0  0  0
 10 13  1  1  0  0  0
 11 14  2  0  0  0  0
 12  8  2  0  0  0  0
 14  8  1  0  0  0  0
 14 10  1  0  0  0  0
 15 12  1  0  0  0  0
 17 16  2  0  0  0  0
 17  9  1  0  0  0  0
 18 17  1  0  0  0  0
 19 20  1  0  0  0  0
 20 18  1  0  0  0  0
 21 22  2  0  0  0  0
 21 25  1  0  0  0  0
 22 23  1  0  0  0  0
 23 24  2  0  0  0  0
 25 26  2  0  0  0  0
 26 24  1  0  0  0  0
 27 25  1  0  0  0  0
 28 27  1  0  0  0  0
 29 28  1  0  0  0  0
 30 31  1  0  0  0  0
 30 29  1  0  0  0  0
 31 37  1  0  0  0  0
 32 33  2  0  0  0  0
 33 41  1  0  0  0  0
 33 31  1  0  0  0  0
 34 38  1  0  0  0  0
 35 34  1  0  0  0  0
 36 39  1  0  0  0  0
 37 35  2  0  0  0  0
 37 36  1  0  0  0  0
 39 38  1  0  0  0  0
 40 41  2  0  0  0  0
 41 42  1  0  0  0  0
 42 43  1  0  0  0  0
 43 44  2  0  0  0  0
 45 46  1  0  0  0  0
 46 47  1  0  0  0  0
 48 47  1  0  0  0  0
 49 48  1  0  0  0  0
 50 49  1  0  0  0  0
 51 50  1  0  0  0  0
 51 52  1  0  0  0  0
 53 51  1  0  0  0  0
 54 53  1  0  0  0  0
 55 54  1  0  0  0  0
 56 54  2  0  0  0  0
M  END
>  <MODEL>
5

>  <REMARK>
 VINA RESULT:      -5.5      1.751      2.728
  Name = 
  23 active torsions:
  status: ('A' for Active; 'I' for Inactive)
    1  A    between atoms: C_6  and  C_15
    2  A    between atoms: C_6  and  N_56
    3  A    between atoms: C_8  and  C_44
    4  A    between atoms: N_9  and  C_15
    5  A    between atoms: N_9  and  C_31
    6  A    between atoms: C_10  and  C_22
    7  A    between atoms: C_13  and  N_23
    8  A    between atoms: C_13  and  C_30
    9  A    between atoms: C_14  and  O_33
   10  A    between atoms: C_16  and  C_48
   11  A    between atoms: C_17  and  N_23
   12  A    between atoms: C_24  and  C_35
   13  A    between atoms: C_25  and  C_41
   14  A    between atoms: C_28  and  C_31
   15  A    between atoms: C_28  and  C_34
   16  A    between atoms: C_30  and  C_47
   17  A    between atoms: O_33  and  C_36
   18  A    between atoms: C_34  and  N_43
   19  A    between atoms: C_36  and  C_55
   20  A    between atoms: C_37  and  C_39
   21  A    between atoms: C_39  and  C_47
   22  A    between atoms: C_41  and  C_48
   23  A    between atoms: N_43  and  C_44
                            x       y       z     vdW  Elec       q    Type
                         _______ _______ _______ _____ _____    ______ ____

>  <TORSDO>
F 23

$$$$
=
 OpenBabel11042417243D

 56 60  0  0  1  0  0  0  0  0999 V2000
  191.8290  172.0430  143.6540 C   0  0  2  0  0  3  0  0  0  0  0  0
  193.1210  171.4130  144.1690 C   0  0  0  0  0  2  0  0  0  0  0  0
  191.3040  170.2510  142.1570 C   0  0  2  0  0  3  0  0  0  0  0  0
  191.6480  171.6730  142.2510 N   0  0  0  0  0  2  0  0  0  0  0  0
  192.4040  168.1660  142.6210 O   0  0  0  0  0  0  0  0  0  0  0  0
  192.3130  169.3950  142.8880 C   0  0  0  0  0  0  0  0  0  0  0  0
  193.1100  169.9670  143.9430 N   0  0  0  0  0  0  0  0  0  0  0  0
  192.3610  170.1160  139.9230 C   0  0  0  0  0  0  0  0  0  0  0  0
  192.1750  172.1690  138.1340 C   0  0  0  0  0  0  0  0  0  0  0  0
  191.2120  169.8600  140.6840 C   0  0  1  0  0  0  0  0  0  0  0  0
  190.9690  171.9520  138.9020 C   0  0  0  0  0  3  0  0  0  0  0  0
  193.5290  170.2690  139.2450 C   0  0  0  0  0  3  0  0  0  0  0  0
  190.5360  168.7090  140.3210 F   0  0  0  0  0  0  0  0  0  0  0  0
  191.1460  170.9130  139.7620 C   0  0  0  0  0  0  0  0  0  0  0  0
  193.3900  171.3570  138.3120 C   0  0  0  0  0  3  0  0  0  0  0  0
  192.2220  174.4490  137.4720 O   0  0  0  0  0  0  0  0  0  0  0  0
  192.1970  173.2400  137.1150 C   0  0  0  0  0  0  0  0  0  0  0  0
  192.2260  172.9210  135.6500 C   0  0  0  0  0  2  0  0  0  0  0  0
  189.8020  172.9230  135.3910 N   0  0  0  0  0  1  0  0  0  0  0  0
  191.0020  172.1140  135.2490 C   0  0  0  0  0  2  0  0  0  0  0  0
  191.9560  176.3130  144.2090 C   0  0  0  0  0  3  0  0  0  0  0  0
  192.2740  175.7700  142.9630 C   0  0  0  0  0  3  0  0  0  0  0  0
  192.2360  174.3870  142.7740 C   0  0  0  0  0  3  0  0  0  0  0  0
  191.8680  173.5350  143.8270 C   0  0  0  0  0  0  0  0  0  0  0  0
  191.5990  175.4750  145.2670 C   0  0  0  0  0  0  0  0  0  0  0  0
  191.5510  174.0870  145.0780 C   0  0  0  0  0  3  0  0  0  0  0  0
  191.3330  176.0630  146.6060 C   0  0  0  0  0  2  0  0  0  0  0  0
  190.4490  175.1520  147.4480 C   0  0  0  0  0  2  0  0  0  0  0  0
  189.0030  175.6100  147.3540 C   0  0  0  0  0  2  0  0  0  0  0  0
  188.9240  177.1020  147.0780 C   0  0  0  0  0  2  0  0  0  0  0  0
  187.9710  177.3500  145.9990 N   0  0  0  0  0  0  0  0  0  0  0  0
  186.5670  178.8490  147.1040 O   0  0  0  0  0  0  0  0  0  0  0  0
  186.6700  177.8460  146.3450 C   0  0  0  0  0  0  0  0  0  0  0  0
  189.1870  177.8200  142.4110 C   0  0  0  0  0  2  0  0  0  0  0  0
  188.8030  178.0680  143.8420 C   0  0  0  0  0  3  0  0  0  0  0  0
  188.0930  175.7870  144.0570 N   0  0  0  0  0  2  0  0  0  0  0  0
  188.3350  177.0850  144.6270 C   0  0  0  0  0  0  0  0  0  0  0  0
  188.3470  176.6970  141.8080 C   0  0  0  0  0  2  0  0  0  0  0  0
  188.4770  175.4580  142.6880 C   0  0  0  0  0  2  0  0  0  0  0  0
  184.8720  176.3230  146.5640 O   0  0  0  0  0  0  0  0  0  0  0  0
  185.4470  177.1910  145.8510 C   0  0  0  0  0  0  0  0  0  0  0  0
  184.9390  177.5520  144.5920 O   0  0  0  0  0  0  0  0  0  0  0  0
  184.6760  178.8640  144.1590 C   0  0  0  0  0  3  0  0  0  0  0  0
  185.5750  179.6440  143.5850 C   0  0  0  0  0  2  0  0  0  0  0  0
  194.1180  169.1690  144.6250 C   0  0  0  0  0  2  0  0  0  0  0  0
  194.7060  169.9320  145.8060 C   0  0  0  0  0  2  0  0  0  0  0  0
  196.1620  169.9550  145.7470 N   0  0  0  0  0  2  0  0  0  0  0  0
  196.6130  171.3030  146.0720 C   0  0  0  0  0  2  0  0  0  0  0  0
  197.1140  172.0090  144.8230 C   0  0  0  0  0  2  0  0  0  0  0  0
  197.3810  173.4730  145.1240 C   0  0  0  0  0  2  0  0  0  0  0  0
  196.9890  174.2950  143.9930 N   0  0  0  0  0  0  0  0  0  0  0  0
  196.7680  173.4520  142.9540 O   0  0  0  0  0  1  0  0  0  0  0  0
  195.7040  174.8810  144.3400 C   0  0  0  0  0  2  0  0  0  0  0  0
  195.7760  176.3670  144.2440 C   0  0  0  0  0  0  0  0  0  0  0  0
  195.1130  177.0850  145.0390 O   0  0  0  0  0  1  0  0  0  0  0  0
  196.5320  176.9600  143.2420 O   0  0  0  0  0  0  0  0  0  0  0  0
  1 24  1  6  0  0  0
  1  2  1  0  0  0  0
  3  4  1  6  0  0  0
  3  6  1  0  0  0  0
  4  1  1  0  0  0  0
  5  6  2  0  0  0  0
  6  7  1  0  0  0  0
  7  2  1  0  0  0  0
  7 45  1  0  0  0  0
  8 10  1  0  0  0  0
  9 15  2  0  0  0  0
  9 11  1  0  0  0  0
 10 13  1  6  0  0  0
 10  3  1  0  0  0  0
 11 14  2  0  0  0  0
 12  8  2  0  0  0  0
 14  8  1  0  0  0  0
 14 10  1  0  0  0  0
 15 12  1  0  0  0  0
 17 16  2  0  0  0  0
 17  9  1  0  0  0  0
 18 17  1  0  0  0  0
 20 19  1  0  0  0  0
 20 18  1  0  0  0  0
 21 25  1  0  0  0  0
 22 21  2  0  0  0  0
 23 22  1  0  0  0  0
 23 24  2  0  0  0  0
 24 26  1  0  0  0  0
 25 27  1  0  0  0  0
 26 25  2  0  0  0  0
 27 28  1  0  0  0  0
 29 28  1  0  0  0  0
 30 29  1  0  0  0  0
 31 33  1  0  0  0  0
 31 30  1  0  0  0  0
 33 32  2  0  0  0  0
 34 35  1  0  0  0  0
 35 37  2  0  0  0  0
 36 37  1  0  0  0  0
 37 31  1  0  0  0  0
 38 34  1  0  0  0  0
 38 39  1  0  0  0  0
 39 36  1  0  0  0  0
 41 33  1  0  0  0  0
 41 40  2  0  0  0  0
 42 41  1  0  0  0  0
 43 42  1  0  0  0  0
 44 43  2  0  0  0  0
 45 46  1  0  0  0  0
 47 46  1  0  0  0  0
 47 48  1  0  0  0  0
 49 50  1  0  0  0  0
 49 48  1  0  0  0  0
 51 53  1  0  0  0  0
 51 50  1  0  0  0  0
 52 51  1  0  0  0  0
 54 53  1  0  0  0  0
 54 55  1  0  0  0  0
 56 54  2  0  0  0  0
M  END
>  <MODEL>
6

>  <REMARK>
 VINA RESULT:      -5.5      3.015      9.611
  Name = 
  23 active torsions:
  status: ('A' for Active; 'I' for Inactive)
    1  A    between atoms: C_6  and  C_15
    2  A    between atoms: C_6  and  N_56
    3  A    between atoms: C_8  and  C_44
    4  A    between atoms: N_9  and  C_15
    5  A    between atoms: N_9  and  C_31
    6  A    between atoms: C_10  and  C_22
    7  A    between atoms: C_13  and  N_23
    8  A    between atoms: C_13  and  C_30
    9  A    between atoms: C_14  and  O_33
   10  A    between atoms: C_16  and  C_48
   11  A    between atoms: C_17  and  N_23
   12  A    between atoms: C_24  and  C_35
   13  A    between atoms: C_25  and  C_41
   14  A    between atoms: C_28  and  C_31
   15  A    between atoms: C_28  and  C_34
   16  A    between atoms: C_30  and  C_47
   17  A    between atoms: O_33  and  C_36
   18  A    between atoms: C_34  and  N_43
   19  A    between atoms: C_36  and  C_55
   20  A    between atoms: C_37  and  C_39
   21  A    between atoms: C_39  and  C_47
   22  A    between atoms: C_41  and  C_48
   23  A    between atoms: N_43  and  C_44
                            x       y       z     vdW  Elec       q    Type
                         _______ _______ _______ _____ _____    ______ ____

>  <TORSDO>
F 23

$$$$
=
 OpenBabel11042417243D

 56 60  0  0  1  0  0  0  0  0999 V2000
  189.6650  174.2700  143.7880 C   0  0  2  0  0  3  0  0  0  0  0  0
  189.2170  175.6910  143.4570 C   0  0  0  0  0  2  0  0  0  0  0  0
  190.5910  174.8340  145.9220 C   0  0  2  0  0  3  0  0  0  0  0  0
  190.8940  174.3330  144.5780 N   0  0  0  0  0  2  0  0  0  0  0  0
  189.8110  176.9000  146.8690 O   0  0  0  0  0  0  0  0  0  0  0  0
  189.8370  176.1430  145.8610 C   0  0  0  0  0  0  0  0  0  0  0  0
  189.0840  176.4830  144.6810 N   0  0  0  0  0  0  0  0  0  0  0  0
  192.8420  175.8410  146.1260 C   0  0  0  0  0  0  0  0  0  0  0  0
  195.0420  174.6380  145.0480 C   0  0  0  0  0  0  0  0  0  0  0  0
  191.8950  174.9830  146.7010 C   0  0  1  0  0  0  0  0  0  0  0  0
  194.0910  173.7110  145.6180 C   0  0  0  0  0  3  0  0  0  0  0  0
  193.6870  176.7670  145.6010 C   0  0  0  0  0  3  0  0  0  0  0  0
  191.8680  175.0140  148.0840 F   0  0  0  0  0  0  0  0  0  0  0  0
  193.0310  174.3910  146.1350 C   0  0  0  0  0  0  0  0  0  0  0  0
  194.8330  176.0950  145.0460 C   0  0  0  0  0  3  0  0  0  0  0  0
  197.2680  174.8840  144.2560 O   0  0  0  0  0  0  0  0  0  0  0  0
  196.2880  174.1130  144.4490 C   0  0  0  0  0  0  0  0  0  0  0  0
  196.4330  172.6640  144.0950 C   0  0  0  0  0  2  0  0  0  0  0  0
  196.7200  171.4690  146.2010 N   0  0  0  0  0  1  0  0  0  0  0  0
  197.4160  171.9760  145.0280 C   0  0  0  0  0  2  0  0  0  0  0  0
  190.2220  171.9430  140.2060 C   0  0  0  0  0  3  0  0  0  0  0  0
  189.7770  173.2630  140.1080 C   0  0  0  0  0  3  0  0  0  0  0  0
  189.5930  174.0250  141.2640 C   0  0  0  0  0  3  0  0  0  0  0  0
  189.8640  173.4770  142.5280 C   0  0  0  0  0  0  0  0  0  0  0  0
  190.4840  171.3840  141.4570 C   0  0  0  0  0  0  0  0  0  0  0  0
  190.3090  172.1490  142.6180 C   0  0  0  0  0  3  0  0  0  0  0  0
  190.8880  169.9560  141.5480 C   0  0  0  0  0  2  0  0  0  0  0  0
  191.2300  169.3870  140.1770 C   0  0  0  0  0  2  0  0  0  0  0  0
  192.7250  169.1380  140.0840 C   0  0  0  0  0  2  0  0  0  0  0  0
  193.3420  169.9530  138.9590 C   0  0  0  0  0  2  0  0  0  0  0  0
  194.3260  170.8800  139.5100 N   0  0  0  0  0  0  0  0  0  0  0  0
  196.2270  170.0550  138.4410 O   0  0  0  0  0  0  0  0  0  0  0  0
  195.7060  170.4850  139.5060 C   0  0  0  0  0  0  0  0  0  0  0  0
  193.2420  174.5300  139.7880 C   0  0  0  0  0  2  0  0  0  0  0  0
  193.6740  173.1970  139.2470 C   0  0  0  0  0  3  0  0  0  0  0  0
  193.8510  172.3370  141.4800 N   0  0  0  0  0  2  0  0  0  0  0  0
  193.9100  172.1500  140.0550 C   0  0  0  0  0  0  0  0  0  0  0  0
  193.8060  174.7590  141.1880 C   0  0  0  0  0  2  0  0  0  0  0  0
  193.4000  173.5900  142.0800 C   0  0  0  0  0  2  0  0  0  0  0  0
  196.3260  169.7100  141.6550 O   0  0  0  0  0  0  0  0  0  0  0  0
  196.5220  170.5470  140.7310 C   0  0  0  0  0  0  0  0  0  0  0  0
  197.5110  171.5390  140.8430 O   0  0  0  0  0  0  0  0  0  0  0  0
  197.4410  172.8310  140.2960 C   0  0  0  0  0  3  0  0  0  0  0  0
  197.7310  173.9320  140.9670 C   0  0  0  0  0  2  0  0  0  0  0  0
  188.3920  177.7600  144.5880 C   0  0  0  0  0  2  0  0  0  0  0  0
  187.1580  177.6450  143.7000 C   0  0  0  0  0  2  0  0  0  0  0  0
  185.9710  178.1510  144.3770 N   0  0  0  0  0  2  0  0  0  0  0  0
  184.8000  177.5090  143.7910 C   0  0  0  0  0  2  0  0  0  0  0  0
  184.5620  178.0260  142.3820 C   0  0  0  0  0  2  0  0  0  0  0  0
  183.1100  178.4380  142.2160 C   0  0  0  0  0  2  0  0  0  0  0  0
  182.8150  178.6750  140.8150 N   0  0  0  0  0  0  0  0  0  0  0  0
  183.8570  178.1750  140.1050 O   0  0  0  0  0  1  0  0  0  0  0  0
  181.6560  177.8550  140.4970 C   0  0  0  0  0  2  0  0  0  0  0  0
  180.4020  178.6070  140.7850 C   0  0  0  0  0  0  0  0  0  0  0  0
  180.0830  179.6000  140.0760 O   0  0  0  0  0  0  0  0  0  0  0  0
  179.6120  178.2480  141.8680 O   0  0  0  0  0  1  0  0  0  0  0  0
  1 24  1  6  0  0  0
  1  4  1  0  0  0  0
  2  1  1  0  0  0  0
  2  7  1  0  0  0  0
  3  4  1  6  0  0  0
  3 10  1  0  0  0  0
  6  3  1  0  0  0  0
  6  5  2  0  0  0  0
  7  6  1  0  0  0  0
  8 14  1  0  0  0  0
  8 10  1  0  0  0  0
  9 11  1  0  0  0  0
 10 13  1  1  0  0  0
 11 14  2  0  0  0  0
 12  8  2  0  0  0  0
 14 10  1  0  0  0  0
 15  9  2  0  0  0  0
 15 12  1  0  0  0  0
 16 17  2  0  0  0  0
 17  9  1  0  0  0  0
 18 17  1  0  0  0  0
 18 20  1  0  0  0  0
 20 19  1  0  0  0  0
 21 25  1  0  0  0  0
 22 21  2  0  0  0  0
 22 23  1  0  0  0  0
 23 24  2  0  0  0  0
 24 26  1  0  0  0  0
 25 27  1  0  0  0  0
 25 26  2  0  0  0  0
 28 27  1  0  0  0  0
 29 28  1  0  0  0  0
 30 31  1  0  0  0  0
 30 29  1  0  0  0  0
 31 37  1  0  0  0  0
 32 33  2  0  0  0  0
 33 31  1  0  0  0  0
 33 41  1  0  0  0  0
 34 38  1  0  0  0  0
 35 34  1  0  0  0  0
 35 37  2  0  0  0  0
 36 39  1  0  0  0  0
 37 36  1  0  0  0  0
 38 39  1  0  0  0  0
 41 42  1  0  0  0  0
 41 40  2  0  0  0  0
 43 42  1  0  0  0  0
 43 44  2  0  0  0  0
 45  7  1  0  0  0  0
 46 47  1  0  0  0  0
 46 45  1  0  0  0  0
 48 47  1  0  0  0  0
 49 48  1  0  0  0  0
 50 49  1  0  0  0  0
 51 50  1  0  0  0  0
 52 51  1  0  0  0  0
 53 54  1  0  0  0  0
 53 51  1  0  0  0  0
 54 56  1  0  0  0  0
 55 54  2  0  0  0  0
M  END
>  <MODEL>
7

>  <REMARK>
 VINA RESULT:      -5.3      2.332      3.270
  Name = 
  23 active torsions:
  status: ('A' for Active; 'I' for Inactive)
    1  A    between atoms: C_6  and  C_15
    2  A    between atoms: C_6  and  N_56
    3  A    between atoms: C_8  and  C_44
    4  A    between atoms: N_9  and  C_15
    5  A    between atoms: N_9  and  C_31
    6  A    between atoms: C_10  and  C_22
    7  A    between atoms: C_13  and  N_23
    8  A    between atoms: C_13  and  C_30
    9  A    between atoms: C_14  and  O_33
   10  A    between atoms: C_16  and  C_48
   11  A    between atoms: C_17  and  N_23
   12  A    between atoms: C_24  and  C_35
   13  A    between atoms: C_25  and  C_41
   14  A    between atoms: C_28  and  C_31
   15  A    between atoms: C_28  and  C_34
   16  A    between atoms: C_30  and  C_47
   17  A    between atoms: O_33  and  C_36
   18  A    between atoms: C_34  and  N_43
   19  A    between atoms: C_36  and  C_55
   20  A    between atoms: C_37  and  C_39
   21  A    between atoms: C_39  and  C_47
   22  A    between atoms: C_41  and  C_48
   23  A    between atoms: N_43  and  C_44
                            x       y       z     vdW  Elec       q    Type
                         _______ _______ _______ _____ _____    ______ ____

>  <TORSDO>
F 23

$$$$
=
 OpenBabel11042417243D

 56 60  0  0  1  0  0  0  0  0999 V2000
  189.6730  172.1850  141.3560 C   0  0  2  0  0  3  0  0  0  0  0  0
  189.6610  172.6430  139.9000 C   0  0  0  0  0  2  0  0  0  0  0  0
  188.8740  174.2630  142.2360 C   0  0  2  0  0  3  0  0  0  0  0  0
  190.0020  173.3270  142.2090 N   0  0  0  0  0  2  0  0  0  0  0  0
  187.7690  175.6940  140.6540 O   0  0  0  0  0  0  0  0  0  0  0  0
  188.4500  174.6480  140.8370 C   0  0  0  0  0  0  0  0  0  0  0  0
  188.7550  173.7800  139.7290 N   0  0  0  0  0  0  0  0  0  0  0  0
  189.2700  175.3120  144.4420 C   0  0  0  0  0  0  0  0  0  0  0  0
  187.2600  176.5570  145.8060 C   0  0  0  0  0  0  0  0  0  0  0  0
  189.2690  175.4910  143.0520 C   0  0  1  0  0  0  0  0  0  0  0  0
  187.2100  176.7630  144.3760 C   0  0  0  0  0  3  0  0  0  0  0  0
  189.3720  175.0690  145.7760 C   0  0  0  0  0  3  0  0  0  0  0  0
  190.2660  176.3320  142.5890 F   0  0  0  0  0  0  0  0  0  0  0  0
  188.2450  176.1140  143.7760 C   0  0  0  0  0  0  0  0  0  0  0  0
  188.2990  175.7430  146.4580 C   0  0  0  0  0  3  0  0  0  0  0  0
  186.5590  177.6530  147.7930 O   0  0  0  0  0  0  0  0  0  0  0  0
  186.2380  177.1970  146.6620 C   0  0  0  0  0  0  0  0  0  0  0  0
  184.8200  177.3520  146.1990 C   0  0  0  0  0  2  0  0  0  0  0  0
  184.1030  178.8910  144.4490 N   0  0  0  0  0  1  0  0  0  0  0  0
  184.5250  178.7990  145.8390 C   0  0  0  0  0  2  0  0  0  0  0  0
  192.4670  168.9620  141.9560 C   0  0  0  0  0  3  0  0  0  0  0  0
  191.7690  169.0530  140.7510 C   0  0  0  0  0  3  0  0  0  0  0  0
  190.8600  170.0940  140.5480 C   0  0  0  0  0  3  0  0  0  0  0  0
  190.6510  171.0610  141.5440 C   0  0  0  0  0  0  0  0  0  0  0  0
  192.2610  169.9110  142.9580 C   0  0  0  0  0  0  0  0  0  0  0  0
  191.3570  170.9620  142.7530 C   0  0  0  0  0  3  0  0  0  0  0  0
  192.9590  169.7600  144.2620 C   0  0  0  0  0  2  0  0  0  0  0  0
  194.4710  169.8410  144.0950 C   0  0  0  0  0  2  0  0  0  0  0  0
  194.9910  171.1100  144.7480 C   0  0  0  0  0  2  0  0  0  0  0  0
  193.8820  172.1390  144.8940 C   0  0  0  0  0  2  0  0  0  0  0  0
  194.2750  173.3790  144.2300 N   0  0  0  0  0  0  0  0  0  0  0  0
  194.5110  172.5590  142.0600 O   0  0  0  0  0  0  0  0  0  0  0  0
  194.9750  173.2860  142.9810 C   0  0  0  0  0  0  0  0  0  0  0  0
  192.6200  176.7350  144.9890 C   0  0  0  0  0  2  0  0  0  0  0  0
  192.9520  175.4010  144.3830 C   0  0  0  0  0  3  0  0  0  0  0  0
  194.8430  175.1950  145.8450 N   0  0  0  0  0  2  0  0  0  0  0  0
  193.9760  174.6570  144.8310 C   0  0  0  0  0  0  0  0  0  0  0  0
  193.8750  177.4130  145.5330 C   0  0  0  0  0  2  0  0  0  0  0  0
  194.5640  176.4650  146.5100 C   0  0  0  0  0  2  0  0  0  0  0  0
  197.3280  173.3640  142.7420 O   0  0  0  0  0  0  0  0  0  0  0  0
  196.2410  174.0050  142.7590 C   0  0  0  0  0  0  0  0  0  0  0  0
  196.2120  175.3960  142.5640 O   0  0  0  0  0  0  0  0  0  0  0  0
  195.9610  176.0470  141.3440 C   0  0  0  0  0  3  0  0  0  0  0  0
  194.9750  175.7230  140.5260 C   0  0  0  0  0  2  0  0  0  0  0  0
  188.3950  174.1600  138.3710 C   0  0  0  0  0  2  0  0  0  0  0  0
  189.3270  173.5020  137.3590 C   0  0  0  0  0  2  0  0  0  0  0  0
  190.0530  174.5000  136.5850 N   0  0  0  0  0  2  0  0  0  0  0  0
  191.1740  173.8420  135.9250 C   0  0  0  0  0  2  0  0  0  0  0  0
  192.4730  174.1480  136.6540 C   0  0  0  0  0  2  0  0  0  0  0  0
  193.2740  172.8730  136.8480 C   0  0  0  0  0  2  0  0  0  0  0  0
  193.9560  172.9020  138.1290 N   0  0  0  0  0  0  0  0  0  0  0  0
  193.1680  172.2350  139.0080 O   0  0  0  0  0  1  0  0  0  0  0  0
  195.1670  172.1140  137.9660 C   0  0  0  0  0  2  0  0  0  0  0  0
  196.3690  172.9790  138.1380 C   0  0  0  0  0  0  0  0  0  0  0  0
  196.8780  173.5600  137.1420 O   0  0  0  0  0  0  0  0  0  0  0  0
  196.9610  173.1010  139.3880 O   0  0  0  0  0  1  0  0  0  0  0  0
  1 24  1  6  0  0  0
  1  4  1  0  0  0  0
  2  1  1  0  0  0  0
  3  6  1  6  0  0  0
  3 10  1  0  0  0  0
  4  3  1  0  0  0  0
  5  6  2  0  0  0  0
  7  2  1  0  0  0  0
  7  6  1  0  0  0  0
  8 12  1  0  0  0  0
  9 15  1  0  0  0  0
  9 17  1  0  0  0  0
 10 13  1  6  0  0  0
 10 14  1  0  0  0  0
 10  8  1  0  0  0  0
 11  9  2  0  0  0  0
 12 15  2  0  0  0  0
 14 11  1  0  0  0  0
 14  8  2  0  0  0  0
 17 16  2  0  0  0  0
 18 17  1  0  0  0  0
 19 20  1  0  0  0  0
 20 18  1  0  0  0  0
 21 25  1  0  0  0  0
 22 21  2  0  0  0  0
 23 22  1  0  0  0  0
 23 24  2  0  0  0  0
 24 26  1  0  0  0  0
 25 27  1  0  0  0  0
 26 25  2  0  0  0  0
 28 27  1  0  0  0  0
 28 29  1  0  0  0  0
 29 30  1  0  0  0  0
 31 37  1  0  0  0  0
 31 30  1  0  0  0  0
 32 33  2  0  0  0  0
 33 31  1  0  0  0  0
 34 38  1  0  0  0  0
 35 37  2  0  0  0  0
 35 34  1  0  0  0  0
 36 39  1  0  0  0  0
 37 36  1  0  0  0  0
 38 39  1  0  0  0  0
 40 41  2  0  0  0  0
 41 33  1  0  0  0  0
 42 41  1  0  0  0  0
 43 42  1  0  0  0  0
 44 43  2  0  0  0  0
 45  7  1  0  0  0  0
 46 45  1  0  0  0  0
 47 46  1  0  0  0  0
 48 47  1  0  0  0  0
 48 49  1  0  0  0  0
 49 50  1  0  0  0  0
 50 51  1  0  0  0  0
 51 52  1  0  0  0  0
 53 51  1  0  0  0  0
 53 54  1  0  0  0  0
 54 56  1  0  0  0  0
 55 54  2  0  0  0  0
M  END
>  <MODEL>
8

>  <REMARK>
 VINA RESULT:      -5.2      2.209      8.405
  Name = 
  23 active torsions:
  status: ('A' for Active; 'I' for Inactive)
    1  A    between atoms: C_6  and  C_15
    2  A    between atoms: C_6  and  N_56
    3  A    between atoms: C_8  and  C_44
    4  A    between atoms: N_9  and  C_15
    5  A    between atoms: N_9  and  C_31
    6  A    between atoms: C_10  and  C_22
    7  A    between atoms: C_13  and  N_23
    8  A    between atoms: C_13  and  C_30
    9  A    between atoms: C_14  and  O_33
   10  A    between atoms: C_16  and  C_48
   11  A    between atoms: C_17  and  N_23
   12  A    between atoms: C_24  and  C_35
   13  A    between atoms: C_25  and  C_41
   14  A    between atoms: C_28  and  C_31
   15  A    between atoms: C_28  and  C_34
   16  A    between atoms: C_30  and  C_47
   17  A    between atoms: O_33  and  C_36
   18  A    between atoms: C_34  and  N_43
   19  A    between atoms: C_36  and  C_55
   20  A    between atoms: C_37  and  C_39
   21  A    between atoms: C_39  and  C_47
   22  A    between atoms: C_41  and  C_48
   23  A    between atoms: N_43  and  C_44
                            x       y       z     vdW  Elec       q    Type
                         _______ _______ _______ _____ _____    ______ ____

>  <TORSDO>
F 23

$$$$
=
 OpenBabel11042417243D

 56 60  0  0  1  0  0  0  0  0999 V2000
  190.8960  171.9710  143.7980 C   0  0  2  0  0  3  0  0  0  0  0  0
  192.3160  171.7100  144.2930 C   0  0  0  0  0  2  0  0  0  0  0  0
  191.0300  170.4450  141.9600 C   0  0  2  0  0  3  0  0  0  0  0  0
  190.8730  171.8510  142.3400 N   0  0  0  0  0  2  0  0  0  0  0  0
  192.7600  168.7850  142.1240 O   0  0  0  0  0  0  0  0  0  0  0  0
  192.2560  169.8370  142.6030 C   0  0  0  0  0  0  0  0  0  0  0  0
  192.7970  170.4150  143.8060 N   0  0  0  0  0  0  0  0  0  0  0  0
  191.6490  171.4630  139.7910 C   0  0  0  0  0  0  0  0  0  0  0  0
  189.8930  173.0210  138.3980 C   0  0  0  0  0  0  0  0  0  0  0  0
  191.0980  170.3480  140.4380 C   0  0  1  0  0  0  0  0  0  0  0  0
  189.2760  171.8910  139.0560 C   0  0  0  0  0  3  0  0  0  0  0  0
  192.2930  172.5080  139.2080 C   0  0  0  0  0  3  0  0  0  0  0  0
  191.4030  169.1380  139.8400 F   0  0  0  0  0  0  0  0  0  0  0  0
  190.2180  171.1680  139.7200 C   0  0  0  0  0  0  0  0  0  0  0  0
  191.3350  173.3020  138.4820 C   0  0  0  0  0  3  0  0  0  0  0  0
  188.2450  174.7150  138.1640 O   0  0  0  0  0  0  0  0  0  0  0  0
  189.0520  173.9320  137.5920 C   0  0  0  0  0  0  0  0  0  0  0  0
  189.1610  173.9760  136.0980 C   0  0  0  0  0  2  0  0  0  0  0  0
  189.8760  175.8130  134.6650 N   0  0  0  0  0  1  0  0  0  0  0  0
  188.8320  175.3640  135.5730 C   0  0  0  0  0  2  0  0  0  0  0  0
  189.5450  175.8760  145.0160 C   0  0  0  0  0  3  0  0  0  0  0  0
  189.3180  174.7780  145.8470 C   0  0  0  0  0  3  0  0  0  0  0  0
  189.7510  173.5080  145.4600 C   0  0  0  0  0  3  0  0  0  0  0  0
  190.4280  173.3270  144.2440 C   0  0  0  0  0  0  0  0  0  0  0  0
  190.2060  175.7070  143.7980 C   0  0  0  0  0  0  0  0  0  0  0  0
  190.6510  174.4360  143.4120 C   0  0  0  0  0  3  0  0  0  0  0  0
  190.3760  176.8740  142.8920 C   0  0  0  0  0  2  0  0  0  0  0  0
  189.4230  178.0040  143.2570 C   0  0  0  0  0  2  0  0  0  0  0  0
  188.2440  178.0100  142.3000 C   0  0  0  0  0  2  0  0  0  0  0  0
  187.2080  179.0400  142.7210 C   0  0  0  0  0  2  0  0  0  0  0  0
  186.0360  178.3600  143.2660 N   0  0  0  0  0  0  0  0  0  0  0  0
  185.2780  177.3390  141.3120 O   0  0  0  0  0  0  0  0  0  0  0  0
  184.9910  177.9790  142.3600 C   0  0  0  0  0  0  0  0  0  0  0  0
  185.8410  178.8580  147.0470 C   0  0  0  0  0  2  0  0  0  0  0  0
  185.9420  179.1050  145.5680 C   0  0  0  0  0  2  0  0  0  0  0  0
  185.9430  176.7410  145.1630 N   0  0  0  0  0  0  0  0  0  0  0  0
  185.9370  178.0960  144.6820 C   0  0  0  0  0  0  0  0  0  0  0  0
  186.4620  177.5140  147.4180 C   0  0  0  0  0  2  0  0  0  0  0  0
  185.8060  176.4200  146.5810 C   0  0  0  0  0  2  0  0  0  0  0  0
  183.3080  179.1130  143.5780 O   0  0  0  0  0  0  0  0  0  0  0  0
  183.5870  178.3440  142.6160 C   0  0  0  0  0  0  0  0  0  0  0  0
  182.5830  177.8320  141.7780 O   0  0  0  0  0  0  0  0  0  0  0  0
  181.8860  178.5580  140.7970 C   0  0  0  0  0  3  0  0  0  0  0  0
  180.5980  178.4040  140.5440 C   0  0  0  0  0  2  0  0  0  0  0  0
  194.0040  169.8710  144.4100 C   0  0  0  0  0  2  0  0  0  0  0  0
  195.0440  170.9660  144.6240 C   0  0  0  0  0  2  0  0  0  0  0  0
  195.6860  170.8370  145.9260 N   0  0  0  0  0  2  0  0  0  0  0  0
  196.6310  171.9360  146.0820 C   0  0  0  0  0  2  0  0  0  0  0  0
  196.3500  173.0260  145.0610 C   0  0  0  0  0  2  0  0  0  0  0  0
  196.1220  174.3520  145.7630 C   0  0  0  0  0  2  0  0  0  0  0  0
  195.4880  175.2940  144.8580 N   0  0  0  0  0  0  0  0  0  0  0  0
  195.7230  174.8480  143.6000 O   0  0  0  0  0  1  0  0  0  0  0  0
  194.0560  175.1780  145.0860 C   0  0  0  0  0  2  0  0  0  0  0  0
  193.6150  176.1790  146.0980 C   0  0  0  0  0  0  0  0  0  0  0  0
  194.2680  177.2440  146.2600 O   0  0  0  0  0  0  0  0  0  0  0  0
  192.5140  175.9130  146.9010 O   0  0  0  0  0  1  0  0  0  0  0  0
  1 24  1  6  0  0  0
  1  2  1  0  0  0  0
  3  4  1  6  0  0  0
  3  6  1  0  0  0  0
  4  1  1  0  0  0  0
  5  6  2  0  0  0  0
  6  7  1  0  0  0  0
  7  2  1  0  0  0  0
  7 45  1  0  0  0  0
  8 10  1  0  0  0  0
  9 15  2  0  0  0  0
  9 11  1  0  0  0  0
 10 13  1  6  0  0  0
 10  3  1  0  0  0  0
 11 14  2  0  0  0  0
 12  8  2  0  0  0  0
 14  8  1  0  0  0  0
 14 10  1  0  0  0  0
 15 12  1  0  0  0  0
 17 16  2  0  0  0  0
 17  9  1  0  0  0  0
 18 17  1  0  0  0  0
 19 20  1  0  0  0  0
 20 18  1  0  0  0  0
 21 22  1  0  0  0  0
 23 22  2  0  0  0  0
 24 23  1  0  0  0  0
 25 21  2  0  0  0  0
 26 25  1  0  0  0  0
 26 24  2  0  0  0  0
 27 28  1  0  0  0  0
 27 25  1  0  0  0  0
 29 30  1  0  0  0  0
 29 28  1  0  0  0  0
 30 31  1  0  0  0  0
 31 37  1  0  0  0  0
 32 33  2  0  0  0  0
 33 41  1  0  0  0  0
 33 31  1  0  0  0  0
 34 38  1  0  0  0  0
 35 34  1  0  0  0  0
 36 39  1  0  0  0  0
 37 36  2  0  0  0  0
 37 35  1  0  0  0  0
 39 38  1  0  0  0  0
 41 40  2  0  0  0  0
 42 41  1  0  0  0  0
 43 42  1  0  0  0  0
 44 43  2  0  0  0  0
 45 46  1  0  0  0  0
 46 47  1  0  0  0  0
 47 48  1  0  0  0  0
 49 50  1  0  0  0  0
 49 48  1  0  0  0  0
 51 53  1  0  0  0  0
 51 50  1  0  0  0  0
 52 51  1  0  0  0  0
 53 54  1  0  0  0  0
 54 55  2  0  0  0  0
 54 56  1  0  0  0  0
M  END
>  <MODEL>
9

>  <REMARK>
 VINA RESULT:      -5.1      3.000      9.896
  Name = 
  23 active torsions:
  status: ('A' for Active; 'I' for Inactive)
    1  A    between atoms: C_6  and  C_15
    2  A    between atoms: C_6  and  N_56
    3  A    between atoms: C_8  and  C_44
    4  A    between atoms: N_9  and  C_15
    5  A    between atoms: N_9  and  C_31
    6  A    between atoms: C_10  and  C_22
    7  A    between atoms: C_13  and  N_23
    8  A    between atoms: C_13  and  C_30
    9  A    between atoms: C_14  and  O_33
   10  A    between atoms: C_16  and  C_48
   11  A    between atoms: C_17  and  N_23
   12  A    between atoms: C_24  and  C_35
   13  A    between atoms: C_25  and  C_41
   14  A    between atoms: C_28  and  C_31
   15  A    between atoms: C_28  and  C_34
   16  A    between atoms: C_30  and  C_47
   17  A    between atoms: O_33  and  C_36
   18  A    between atoms: C_34  and  N_43
   19  A    between atoms: C_36  and  C_55
   20  A    between atoms: C_37  and  C_39
   21  A    between atoms: C_39  and  C_47
   22  A    between atoms: C_41  and  C_48
   23  A    between atoms: N_43  and  C_44
                            x       y       z     vdW  Elec       q    Type
                         _______ _______ _______ _____ _____    ______ ____

>  <TORSDO>
F 23

$$$$
