=
 OpenBabel11042416533D

 35 38  0  0  1  0  0  0  0  0999 V2000
  184.7910  178.6040  146.1610 C   0  0  0  0  0  0  0  0  0  0  0  0
  186.2360  178.5530  143.7650 C   0  0  0  0  0  0  0  0  0  0  0  0
  184.1820  179.0050  144.9700 C   0  0  0  0  0  3  0  0  0  0  0  0
  186.8570  178.1440  144.9600 C   0  0  0  0  0  0  0  0  0  0  0  0
  184.9040  178.9810  143.7750 C   0  0  0  0  0  3  0  0  0  0  0  0
  186.1220  178.1800  146.1570 C   0  0  0  0  0  3  0  0  0  0  0  0
  184.0930  178.6290  147.3210 F   0  0  0  0  0  0  0  0  0  0  0  0
  188.2040  177.7420  144.9220 O   0  0  0  0  0  0  0  0  0  0  0  0
  188.1980  175.7620  146.3920 C   0  0  0  0  0  3  0  0  0  0  0  0
  190.9170  176.1770  146.8860 C   0  0  0  0  0  0  0  0  0  0  0  0
  188.8520  176.8520  145.7930 C   0  0  0  0  0  0  0  0  0  0  0  0
  188.8950  174.8950  147.2380 C   0  0  0  0  0  3  0  0  0  0  0  0
  190.2540  175.1030  147.4860 C   0  0  0  0  0  3  0  0  0  0  0  0
  190.2150  177.0480  146.0440 C   0  0  0  0  0  3  0  0  0  0  0  0
  192.3620  176.4070  147.1570 C   0  0  0  0  0  2  0  0  0  0  0  0
  193.2050  175.3800  146.4100 C   0  0  0  0  0  2  0  0  0  0  0  0
  195.1860  175.7530  143.4200 C   0  0  0  0  0  2  0  0  0  0  0  0
  194.3570  176.0270  145.6480 C   0  0  1  0  0  0  0  0  0  0  0  0
  197.2730  174.9170  144.0570 C   0  0  0  0  0  1  0  0  0  0  0  0
  193.9960  176.2600  144.2000 C   0  0  0  0  0  2  0  0  0  0  0  0
  194.7340  177.2290  146.2520 O   0  0  0  0  0  1  0  0  0  0  0  0
  195.5450  175.0850  145.6240 C   0  0  0  0  0  2  0  0  0  0  0  0
  195.8420  174.7430  144.2380 N   0  0  0  0  0  0  0  0  0  0  0  0
  186.9910  178.5600  142.4760 C   0  0  0  0  0  2  0  0  0  0  0  0
  186.5640  177.3850  141.6200 C   0  0  0  0  0  2  0  0  0  0  0  0
  187.7690  176.5230  141.3060 C   0  0  0  0  0  2  0  0  0  0  0  0
  187.9040  175.4450  142.3280 C   0  0  0  0  0  0  0  0  0  0  0  0
  189.1720  174.8180  142.5680 N   0  0  0  0  0  0  0  0  0  0  0  0
  190.6770  173.6590  144.1240 C   0  0  0  0  0  2  0  0  0  0  0  0
  191.5580  174.5500  141.9870 C   0  0  0  0  0  0  0  0  0  0  0  0
  190.2840  175.1680  141.7800 N   0  0  0  0  0  2  0  0  0  0  0  0
  189.2730  173.7170  143.5300 C   0  0  0  0  0  2  0  0  0  0  0  0
  191.7100  173.4780  143.0180 C   0  0  0  0  0  2  0  0  0  0  0  0
  192.5390  174.8780  141.2700 O   0  0  0  0  0  0  0  0  0  0  0  0
  186.8900  175.1080  142.9990 O   0  0  0  0  0  0  0  0  0  0  0  0
  1  7  1  0  0  0  0
  2  5  2  0  0  0  0
  2  4  1  0  0  0  0
  3  1  2  0  0  0  0
  4  6  2  0  0  0  0
  5  3  1  0  0  0  0
  6  1  1  0  0  0  0
  8  4  1  0  0  0  0
  8 11  1  0  0  0  0
  9 12  1  0  0  0  0
 10 15  1  0  0  0  0
 10 13  1  0  0  0  0
 11 14  1  0  0  0  0
 11  9  2  0  0  0  0
 12 13  2  0  0  0  0
 14 10  2  0  0  0  0
 16 15  1  0  0  0  0
 17 20  1  0  0  0  0
 17 23  1  0  0  0  0
 18 21  1  1  0  0  0
 18 16  1  0  0  0  0
 19 23  1  0  0  0  0
 20 18  1  0  0  0  0
 22 18  1  0  0  0  0
 23 22  1  0  0  0  0
 24  2  1  0  0  0  0
 25 24  1  0  0  0  0
 26 25  1  0  0  0  0
 26 27  1  0  0  0  0
 27 28  1  0  0  0  0
 27 35  2  0  0  0  0
 28 32  1  0  0  0  0
 30 33  1  0  0  0  0
 31 30  1  0  0  0  0
 31 28  1  0  0  0  0
 32 29  1  0  0  0  0
 33 29  1  0  0  0  0
 34 30  2  0  0  0  0
M  END
>  <MODEL>
1

>  <REMARK>
 VINA RESULT:      -8.0      0.000      0.000
  Name = 
  9 active torsions:
  status: ('A' for Active; 'I' for Inactive)
    1  A    between atoms: O_2  and  C_18
    2  A    between atoms: O_2  and  C_26
    3  A    between atoms: C_3  and  C_20
    4  A    between atoms: C_4  and  C_6
    5  A    between atoms: C_4  and  C_11
    6  A    between atoms: C_6  and  C_20
    7  A    between atoms: C_7  and  C_34
    8  A    between atoms: C_21  and  C_27
    9  A    between atoms: C_27  and  C_34
                            x       y       z     vdW  Elec       q    Type
                         _______ _______ _______ _____ _____    ______ ____

>  <TORSDO>
F 9

$$$$
=
 OpenBabel11042416533D

 35 38  0  0  1  0  0  0  0  0999 V2000
  184.6930  178.5100  146.7490 C   0  0  0  0  0  0  0  0  0  0  0  0
  185.9300  178.5760  144.2400 C   0  0  0  0  0  0  0  0  0  0  0  0
  183.9580  178.8700  145.6180 C   0  0  0  0  0  3  0  0  0  0  0  0
  186.6780  178.2090  145.3740 C   0  0  0  0  0  0  0  0  0  0  0  0
  184.5760  178.9050  144.3670 C   0  0  0  0  0  3  0  0  0  0  0  0
  186.0460  178.1850  146.6290 C   0  0  0  0  0  3  0  0  0  0  0  0
  184.0960  178.4780  147.9640 F   0  0  0  0  0  0  0  0  0  0  0  0
  188.0430  177.9070  145.2180 O   0  0  0  0  0  0  0  0  0  0  0  0
  188.2510  175.6910  146.2810 C   0  0  0  0  0  3  0  0  0  0  0  0
  190.9150  176.2830  146.8840 C   0  0  0  0  0  0  0  0  0  0  0  0
  188.7850  176.9370  145.9110 C   0  0  0  0  0  0  0  0  0  0  0  0
  189.0400  174.7540  146.9540 C   0  0  0  0  0  3  0  0  0  0  0  0
  190.3710  175.0510  147.2580 C   0  0  0  0  0  3  0  0  0  0  0  0
  190.1210  177.2220  146.2150 C   0  0  0  0  0  3  0  0  0  0  0  0
  192.3300  176.6050  147.2150 C   0  0  0  0  0  2  0  0  0  0  0  0
  193.2620  175.5740  146.5880 C   0  0  0  0  0  2  0  0  0  0  0  0
  194.9170  175.8950  143.4000 C   0  0  0  0  0  2  0  0  0  0  0  0
  194.3140  176.2210  145.6930 C   0  0  1  0  0  0  0  0  0  0  0  0
  197.0770  175.1220  143.8420 C   0  0  0  0  0  1  0  0  0  0  0  0
  193.8020  176.4020  144.2840 C   0  0  0  0  0  2  0  0  0  0  0  0
  194.7230  177.4490  146.2200 O   0  0  0  0  0  1  0  0  0  0  0  0
  195.5150  175.3030  145.5740 C   0  0  0  0  0  2  0  0  0  0  0  0
  195.6770  174.9250  144.1740 N   0  0  0  0  0  0  0  0  0  0  0  0
  186.5700  178.6450  142.8920 C   0  0  0  0  0  2  0  0  0  0  0  0
  186.5790  177.2710  142.2530 C   0  0  0  0  0  2  0  0  0  0  0  0
  187.7640  177.1560  141.3160 C   0  0  0  0  0  2  0  0  0  0  0  0
  189.0030  176.8700  142.0960 C   0  0  0  0  0  0  0  0  0  0  0  0
  189.3320  175.5280  142.4810 N   0  0  0  0  0  0  0  0  0  0  0  0
  191.0550  173.8690  143.0380 C   0  0  0  0  0  2  0  0  0  0  0  0
  188.7360  173.1320  142.5710 C   0  0  0  0  0  0  0  0  0  0  0  0
  188.4410  174.4790  142.1870 N   0  0  0  0  0  2  0  0  0  0  0  0
  190.5190  175.2730  143.3020 C   0  0  0  0  0  2  0  0  0  0  0  0
  189.9810  172.8300  143.3410 C   0  0  0  0  0  2  0  0  0  0  0  0
  187.9240  172.2100  142.2990 O   0  0  0  0  0  0  0  0  0  0  0  0
  189.7740  177.8240  142.3920 O   0  0  0  0  0  0  0  0  0  0  0  0
  1  7  1  0  0  0  0
  2  5  2  0  0  0  0
  2  4  1  0  0  0  0
  3  1  2  0  0  0  0
  4  6  2  0  0  0  0
  5  3  1  0  0  0  0
  6  1  1  0  0  0  0
  8  4  1  0  0  0  0
  8 11  1  0  0  0  0
  9 12  1  0  0  0  0
 10 15  1  0  0  0  0
 10 13  1  0  0  0  0
 11 14  1  0  0  0  0
 11  9  2  0  0  0  0
 12 13  2  0  0  0  0
 14 10  2  0  0  0  0
 16 15  1  0  0  0  0
 17 23  1  0  0  0  0
 17 20  1  0  0  0  0
 18 21  1  1  0  0  0
 18 16  1  0  0  0  0
 19 23  1  0  0  0  0
 20 18  1  0  0  0  0
 22 18  1  0  0  0  0
 23 22  1  0  0  0  0
 24  2  1  0  0  0  0
 25 24  1  0  0  0  0
 26 27  1  0  0  0  0
 26 25  1  0  0  0  0
 27 35  2  0  0  0  0
 27 28  1  0  0  0  0
 28 32  1  0  0  0  0
 29 32  1  0  0  0  0
 29 33  1  0  0  0  0
 30 33  1  0  0  0  0
 31 28  1  0  0  0  0
 31 30  1  0  0  0  0
 34 30  2  0  0  0  0
M  END
>  <MODEL>
2

>  <REMARK>
 VINA RESULT:      -7.9      1.105      1.487
  Name = 
  9 active torsions:
  status: ('A' for Active; 'I' for Inactive)
    1  A    between atoms: O_2  and  C_18
    2  A    between atoms: O_2  and  C_26
    3  A    between atoms: C_3  and  C_20
    4  A    between atoms: C_4  and  C_6
    5  A    between atoms: C_4  and  C_11
    6  A    between atoms: C_6  and  C_20
    7  A    between atoms: C_7  and  C_34
    8  A    between atoms: C_21  and  C_27
    9  A    between atoms: C_27  and  C_34
                            x       y       z     vdW  Elec       q    Type
                         _______ _______ _______ _____ _____    ______ ____

>  <TORSDO>
F 9

$$$$
=
 OpenBabel11042416533D

 35 38  0  0  1  0  0  0  0  0999 V2000
  184.8180  178.5180  146.6610 C   0  0  0  0  0  0  0  0  0  0  0  0
  186.0660  178.2890  144.1670 C   0  0  0  0  0  0  0  0  0  0  0  0
  184.0740  178.6820  145.4910 C   0  0  0  0  0  3  0  0  0  0  0  0
  186.8230  178.1180  145.3410 C   0  0  0  0  0  0  0  0  0  0  0  0
  184.6980  178.5700  144.2470 C   0  0  0  0  0  3  0  0  0  0  0  0
  186.1850  178.2410  146.5870 C   0  0  0  0  0  3  0  0  0  0  0  0
  184.2150  178.6290  147.8680 F   0  0  0  0  0  0  0  0  0  0  0  0
  188.2010  177.8600  145.2280 O   0  0  0  0  0  0  0  0  0  0  0  0
  188.3700  175.7530  146.5000 C   0  0  0  0  0  3  0  0  0  0  0  0
  191.1270  176.1560  146.7100 C   0  0  0  0  0  0  0  0  0  0  0  0
  188.9480  176.9020  145.9320 C   0  0  0  0  0  0  0  0  0  0  0  0
  189.1630  174.8210  147.1740 C   0  0  0  0  0  3  0  0  0  0  0  0
  190.5410  175.0230  147.2820 C   0  0  0  0  0  3  0  0  0  0  0  0
  190.3300  177.0910  146.0400 C   0  0  0  0  0  3  0  0  0  0  0  0
  192.5940  176.3790  146.8330 C   0  0  0  0  0  2  0  0  0  0  0  0
  193.1850  176.7330  145.4720 C   0  0  0  0  0  2  0  0  0  0  0  0
  196.1520  174.7070  145.1650 C   0  0  0  0  0  2  0  0  0  0  0  0
  193.9390  175.5620  144.8510 C   0  0  1  0  0  0  0  0  0  0  0  0
  196.8760  175.1520  142.9880 C   0  0  0  0  0  1  0  0  0  0  0  0
  194.8250  174.8780  145.8650 C   0  0  0  0  0  2  0  0  0  0  0  0
  193.0480  174.6440  144.2900 O   0  0  0  0  0  1  0  0  0  0  0  0
  194.8750  176.0730  143.7730 C   0  0  0  0  0  2  0  0  0  0  0  0
  196.2450  175.7490  144.1520 N   0  0  0  0  0  0  0  0  0  0  0  0
  186.7110  178.1970  142.8230 C   0  0  0  0  0  2  0  0  0  0  0  0
  186.2750  176.9240  142.1250 C   0  0  0  0  0  2  0  0  0  0  0  0
  187.0630  175.7520  142.6730 C   0  0  0  0  0  2  0  0  0  0  0  0
  188.0040  175.2420  141.6340 C   0  0  0  0  0  0  0  0  0  0  0  0
  188.9710  174.2320  141.9550 N   0  0  0  0  0  0  0  0  0  0  0  0
  190.3660  172.3520  141.2110 C   0  0  0  0  0  2  0  0  0  0  0  0
  190.0500  172.7740  143.6320 C   0  0  0  0  0  0  0  0  0  0  0  0
  189.0860  173.7710  143.2790 N   0  0  0  0  0  2  0  0  0  0  0  0
  189.9310  173.7890  140.9390 C   0  0  0  0  0  2  0  0  0  0  0  0
  190.9910  172.2450  142.5980 C   0  0  0  0  0  2  0  0  0  0  0  0
  190.1360  172.3770  144.8230 O   0  0  0  0  0  0  0  0  0  0  0  0
  187.9220  175.6940  140.4590 O   0  0  0  0  0  0  0  0  0  0  0  0
  1  7  1  0  0  0  0
  2  5  2  0  0  0  0
  2  4  1  0  0  0  0
  3  1  2  0  0  0  0
  4  6  2  0  0  0  0
  5  3  1  0  0  0  0
  6  1  1  0  0  0  0
  8  4  1  0  0  0  0
  8 11  1  0  0  0  0
  9 12  1  0  0  0  0
 10 15  1  0  0  0  0
 10 13  1  0  0  0  0
 11 14  1  0  0  0  0
 11  9  2  0  0  0  0
 12 13  2  0  0  0  0
 14 10  2  0  0  0  0
 16 15  1  0  0  0  0
 17 20  1  0  0  0  0
 18 21  1  6  0  0  0
 18 16  1  0  0  0  0
 18 20  1  0  0  0  0
 19 23  1  0  0  0  0
 22 23  1  0  0  0  0
 22 18  1  0  0  0  0
 23 17  1  0  0  0  0
 24  2  1  0  0  0  0
 25 26  1  0  0  0  0
 25 24  1  0  0  0  0
 27 28  1  0  0  0  0
 27 26  1  0  0  0  0
 28 31  1  0  0  0  0
 29 33  1  0  0  0  0
 30 34  2  0  0  0  0
 31 30  1  0  0  0  0
 32 29  1  0  0  0  0
 32 28  1  0  0  0  0
 33 30  1  0  0  0  0
 35 27  2  0  0  0  0
M  END
>  <MODEL>
3

>  <REMARK>
 VINA RESULT:      -7.7      1.386      1.762
  Name = 
  9 active torsions:
  status: ('A' for Active; 'I' for Inactive)
    1  A    between atoms: O_2  and  C_18
    2  A    between atoms: O_2  and  C_26
    3  A    between atoms: C_3  and  C_20
    4  A    between atoms: C_4  and  C_6
    5  A    between atoms: C_4  and  C_11
    6  A    between atoms: C_6  and  C_20
    7  A    between atoms: C_7  and  C_34
    8  A    between atoms: C_21  and  C_27
    9  A    between atoms: C_27  and  C_34
                            x       y       z     vdW  Elec       q    Type
                         _______ _______ _______ _____ _____    ______ ____

>  <TORSDO>
F 9

$$$$
=
 OpenBabel11042416533D

 35 38  0  0  1  0  0  0  0  0999 V2000
  182.8940  178.2730  141.6980 C   0  0  0  0  0  0  0  0  0  0  0  0
  185.6780  178.5200  141.8240 C   0  0  0  0  0  0  0  0  0  0  0  0
  183.6760  177.9210  140.5960 C   0  0  0  0  0  3  0  0  0  0  0  0
  184.8980  178.8740  142.9410 C   0  0  0  0  0  0  0  0  0  0  0  0
  185.0650  178.0460  140.6600 C   0  0  0  0  0  3  0  0  0  0  0  0
  183.5000  178.7510  142.8620 C   0  0  0  0  0  3  0  0  0  0  0  0
  181.5460  178.1540  141.6380 F   0  0  0  0  0  0  0  0  0  0  0  0
  185.5410  179.3700  144.0890 O   0  0  0  0  0  0  0  0  0  0  0  0
  184.7100  178.9310  146.3690 C   0  0  0  0  0  3  0  0  0  0  0  0
  186.8700  177.2050  146.7740 C   0  0  0  0  0  0  0  0  0  0  0  0
  185.6490  178.7450  145.3410 C   0  0  0  0  0  0  0  0  0  0  0  0
  184.8550  178.2690  147.5910 C   0  0  0  0  0  3  0  0  0  0  0  0
  185.9370  177.4080  147.7940 C   0  0  0  0  0  3  0  0  0  0  0  0
  186.7260  177.8750  145.5530 C   0  0  0  0  0  3  0  0  0  0  0  0
  188.0290  176.2970  146.9920 C   0  0  0  0  0  2  0  0  0  0  0  0
  188.5840  175.8250  145.6530 C   0  0  0  0  0  2  0  0  0  0  0  0
  191.8870  175.8090  147.0990 C   0  0  0  0  0  2  0  0  0  0  0  0
  189.9740  175.2130  145.7910 C   0  0  1  0  0  0  0  0  0  0  0  0
  193.2680  176.2850  145.2750 C   0  0  0  0  0  1  0  0  0  0  0  0
  190.4720  175.2940  147.2150 C   0  0  0  0  0  2  0  0  0  0  0  0
  189.9740  173.8860  145.3530 O   0  0  0  0  0  1  0  0  0  0  0  0
  190.9660  176.0110  144.9680 C   0  0  0  0  0  2  0  0  0  0  0  0
  191.9710  176.5720  145.8630 N   0  0  0  0  0  0  0  0  0  0  0  0
  187.1640  178.6660  141.8550 C   0  0  0  0  0  2  0  0  0  0  0  0
  187.8120  177.5210  141.1020 C   0  0  0  0  0  2  0  0  0  0  0  0
  188.6630  176.7060  142.0540 C   0  0  0  0  0  2  0  0  0  0  0  0
  188.0780  175.3430  142.2190 C   0  0  0  0  0  0  0  0  0  0  0  0
  188.9000  174.1740  142.0960 N   0  0  0  0  0  0  0  0  0  0  0  0
  189.3210  171.8330  142.7080 C   0  0  0  0  0  2  0  0  0  0  0  0
  191.0970  173.1590  141.5980 C   0  0  0  0  0  0  0  0  0  0  0  0
  190.2550  174.3080  141.7420 N   0  0  0  0  0  2  0  0  0  0  0  0
  188.2970  172.8420  142.1970 C   0  0  0  0  0  2  0  0  0  0  0  0
  190.5260  171.7880  141.7740 C   0  0  0  0  0  2  0  0  0  0  0  0
  192.3050  173.3020  141.2800 O   0  0  0  0  0  0  0  0  0  0  0  0
  186.8520  175.2330  142.4940 O   0  0  0  0  0  0  0  0  0  0  0  0
  1  6  1  0  0  0  0
  2 24  1  0  0  0  0
  2  4  1  0  0  0  0
  3  5  1  0  0  0  0
  3  1  2  0  0  0  0
  4  8  1  0  0  0  0
  5  2  2  0  0  0  0
  6  4  2  0  0  0  0
  7  1  1  0  0  0  0
  8 11  1  0  0  0  0
  9 12  1  0  0  0  0
 10 15  1  0  0  0  0
 10 13  1  0  0  0  0
 11 14  1  0  0  0  0
 11  9  2  0  0  0  0
 12 13  2  0  0  0  0
 14 10  2  0  0  0  0
 16 18  1  0  0  0  0
 16 15  1  0  0  0  0
 17 20  1  0  0  0  0
 18 21  1  6  0  0  0
 18 20  1  0  0  0  0
 19 23  1  0  0  0  0
 22 18  1  0  0  0  0
 22 23  1  0  0  0  0
 23 17  1  0  0  0  0
 25 24  1  0  0  0  0
 25 26  1  0  0  0  0
 26 27  1  0  0  0  0
 27 35  2  0  0  0  0
 28 32  1  0  0  0  0
 28 27  1  0  0  0  0
 30 31  1  0  0  0  0
 30 33  1  0  0  0  0
 31 28  1  0  0  0  0
 32 29  1  0  0  0  0
 33 29  1  0  0  0  0
 34 30  2  0  0  0  0
M  END
>  <MODEL>
4

>  <REMARK>
 VINA RESULT:      -7.6      2.277      3.723
  Name = 
  9 active torsions:
  status: ('A' for Active; 'I' for Inactive)
    1  A    between atoms: O_2  and  C_18
    2  A    between atoms: O_2  and  C_26
    3  A    between atoms: C_3  and  C_20
    4  A    between atoms: C_4  and  C_6
    5  A    between atoms: C_4  and  C_11
    6  A    between atoms: C_6  and  C_20
    7  A    between atoms: C_7  and  C_34
    8  A    between atoms: C_21  and  C_27
    9  A    between atoms: C_27  and  C_34
                            x       y       z     vdW  Elec       q    Type
                         _______ _______ _______ _____ _____    ______ ____

>  <TORSDO>
F 9

$$$$
=
 OpenBabel11042416533D

 35 38  0  0  1  0  0  0  0  0999 V2000
  184.4440  178.6330  145.5600 C   0  0  0  0  0  0  0  0  0  0  0  0
  186.2980  178.5030  143.4680 C   0  0  0  0  0  0  0  0  0  0  0  0
  184.0340  178.8790  144.2470 C   0  0  0  0  0  3  0  0  0  0  0  0
  186.7190  178.2500  144.7870 C   0  0  0  0  0  0  0  0  0  0  0  0
  184.9600  178.8160  143.2040 C   0  0  0  0  0  3  0  0  0  0  0  0
  185.7790  178.3240  145.8280 C   0  0  0  0  0  3  0  0  0  0  0  0
  183.5470  178.6970  146.5720 F   0  0  0  0  0  0  0  0  0  0  0  0
  188.0750  177.9610  145.0220 O   0  0  0  0  0  0  0  0  0  0  0  0
  188.2310  176.1780  146.7190 C   0  0  0  0  0  3  0  0  0  0  0  0
  190.1210  174.8840  145.1190 C   0  0  0  0  0  0  0  0  0  0  0  0
  188.6190  176.7580  145.5000 C   0  0  0  0  0  0  0  0  0  0  0  0
  188.7900  174.9680  147.1390 C   0  0  0  0  0  3  0  0  0  0  0  0
  189.7370  174.3220  146.3400 C   0  0  0  0  0  3  0  0  0  0  0  0
  189.5630  176.0990  144.7040 C   0  0  0  0  0  3  0  0  0  0  0  0
  191.1370  174.2030  144.2710 C   0  0  0  0  0  2  0  0  0  0  0  0
  191.7640  175.1990  143.3030 C   0  0  0  0  0  2  0  0  0  0  0  0
  194.4470  175.2240  145.7120 C   0  0  0  0  0  2  0  0  0  0  0  0
  193.1820  175.5840  143.7130 C   0  0  1  0  0  0  0  0  0  0  0  0
  194.6460  177.4860  146.2630 C   0  0  0  0  0  1  0  0  0  0  0  0
  193.8290  174.4980  144.5410 C   0  0  0  0  0  2  0  0  0  0  0  0
  193.9620  175.8630  142.5870 O   0  0  0  0  0  1  0  0  0  0  0  0
  193.1400  176.8070  144.6080 C   0  0  0  0  0  2  0  0  0  0  0  0
  193.6900  176.4510  145.9110 N   0  0  0  0  0  0  0  0  0  0  0  0
  187.2710  178.4650  142.3350 C   0  0  0  0  0  2  0  0  0  0  0  0
  186.8840  177.3740  141.3570 C   0  0  0  0  0  2  0  0  0  0  0  0
  188.0450  176.4170  141.1800 C   0  0  0  0  0  2  0  0  0  0  0  0
  187.7480  175.1240  141.8620 C   0  0  0  0  0  0  0  0  0  0  0  0
  188.5710  173.9710  141.6360 N   0  0  0  0  0  0  0  0  0  0  0  0
  189.4800  171.8470  142.4690 C   0  0  0  0  0  2  0  0  0  0  0  0
  190.4520  172.8980  140.4470 C   0  0  0  0  0  0  0  0  0  0  0  0
  189.6230  174.0360  140.7040 N   0  0  0  0  0  2  0  0  0  0  0  0
  188.2260  172.6920  142.2640 C   0  0  0  0  0  2  0  0  0  0  0  0
  190.1730  171.6000  141.1340 C   0  0  0  0  0  2  0  0  0  0  0  0
  191.3870  172.9790  139.6090 O   0  0  0  0  0  0  0  0  0  0  0  0
  186.7750  175.0650  142.6630 O   0  0  0  0  0  0  0  0  0  0  0  0
  1  6  1  0  0  0  0
  1  7  1  0  0  0  0
  2  4  1  0  0  0  0
  3  1  2  0  0  0  0
  4  8  1  0  0  0  0
  4  6  2  0  0  0  0
  5  2  2  0  0  0  0
  5  3  1  0  0  0  0
  8 11  1  0  0  0  0
  9 12  1  0  0  0  0
 10 13  1  0  0  0  0
 11  9  2  0  0  0  0
 13 12  2  0  0  0  0
 14 10  2  0  0  0  0
 14 11  1  0  0  0  0
 15 10  1  0  0  0  0
 16 18  1  0  0  0  0
 16 15  1  0  0  0  0
 17 23  1  0  0  0  0
 18 21  1  6  0  0  0
 18 20  1  0  0  0  0
 18 22  1  0  0  0  0
 20 17  1  0  0  0  0
 22 23  1  0  0  0  0
 23 19  1  0  0  0  0
 24  2  1  0  0  0  0
 25 24  1  0  0  0  0
 26 25  1  0  0  0  0
 26 27  1  0  0  0  0
 27 35  2  0  0  0  0
 28 27  1  0  0  0  0
 28 32  1  0  0  0  0
 30 31  1  0  0  0  0
 30 33  1  0  0  0  0
 31 28  1  0  0  0  0
 32 29  1  0  0  0  0
 33 29  1  0  0  0  0
 34 30  2  0  0  0  0
M  END
>  <MODEL>
5

>  <REMARK>
 VINA RESULT:      -7.5      1.570      2.069
  Name = 
  9 active torsions:
  status: ('A' for Active; 'I' for Inactive)
    1  A    between atoms: O_2  and  C_18
    2  A    between atoms: O_2  and  C_26
    3  A    between atoms: C_3  and  C_20
    4  A    between atoms: C_4  and  C_6
    5  A    between atoms: C_4  and  C_11
    6  A    between atoms: C_6  and  C_20
    7  A    between atoms: C_7  and  C_34
    8  A    between atoms: C_21  and  C_27
    9  A    between atoms: C_27  and  C_34
                            x       y       z     vdW  Elec       q    Type
                         _______ _______ _______ _____ _____    ______ ____

>  <TORSDO>
F 9

$$$$
=
 OpenBabel11042416533D

 35 38  0  0  1  0  0  0  0  0999 V2000
  189.7150  174.9490  147.2230 C   0  0  0  0  0  0  0  0  0  0  0  0
  191.8840  176.2700  146.0480 C   0  0  0  0  0  0  0  0  0  0  0  0
  190.7860  175.3700  148.0130 C   0  0  0  0  0  3  0  0  0  0  0  0
  190.8070  175.8520  145.2440 C   0  0  0  0  0  0  0  0  0  0  0  0
  191.8690  176.0280  147.4260 C   0  0  0  0  0  3  0  0  0  0  0  0
  189.7270  175.1840  145.8460 C   0  0  0  0  0  3  0  0  0  0  0  0
  188.6650  174.3090  147.7900 F   0  0  0  0  0  0  0  0  0  0  0  0
  190.8610  176.0890  143.8590 O   0  0  0  0  0  0  0  0  0  0  0  0
  189.4680  175.0880  142.0870 C   0  0  0  0  0  3  0  0  0  0  0  0
  187.8720  177.3820  142.1110 C   0  0  0  0  0  0  0  0  0  0  0  0
  189.7830  176.1420  142.9610 C   0  0  0  0  0  0  0  0  0  0  0  0
  188.3710  175.1850  141.2270 C   0  0  0  0  0  3  0  0  0  0  0  0
  187.5750  176.3330  141.2370 C   0  0  0  0  0  3  0  0  0  0  0  0
  188.9750  177.2840  142.9670 C   0  0  0  0  0  3  0  0  0  0  0  0
  187.0310  178.6090  142.1160 C   0  0  0  0  0  2  0  0  0  0  0  0
  185.5550  178.2330  142.1760 C   0  0  0  0  0  2  0  0  0  0  0  0
  185.9170  179.1270  145.6500 C   0  0  0  0  0  2  0  0  0  0  0  0
  184.9570  178.4730  143.5580 C   0  0  1  0  0  0  0  0  0  0  0  0
  185.3980  177.1410  146.7670 C   0  0  0  0  0  1  0  0  0  0  0  0
  185.6310  179.6310  144.2560 C   0  0  0  0  0  2  0  0  0  0  0  0
  183.5810  178.6980  143.4680 O   0  0  0  0  0  1  0  0  0  0  0  0
  185.2100  177.2650  144.4390 C   0  0  0  0  0  2  0  0  0  0  0  0
  186.0280  177.6770  145.5740 N   0  0  0  0  0  0  0  0  0  0  0  0
  193.0660  176.9550  145.4440 C   0  0  0  0  0  2  0  0  0  0  0  0
  194.3210  176.5990  146.2160 C   0  0  0  0  0  2  0  0  0  0  0  0
  194.9590  175.3690  145.6040 C   0  0  0  0  0  2  0  0  0  0  0  0
  195.1610  175.5750  144.1400 C   0  0  0  0  0  0  0  0  0  0  0  0
  194.3590  174.8660  143.1850 N   0  0  0  0  0  0  0  0  0  0  0  0
  193.3360  174.7880  140.9540 C   0  0  0  0  0  2  0  0  0  0  0  0
  192.6210  173.1800  142.6980 C   0  0  0  0  0  0  0  0  0  0  0  0
  193.4250  173.9120  143.6280 N   0  0  0  0  0  2  0  0  0  0  0  0
  194.6140  175.0320  141.7510 C   0  0  0  0  0  2  0  0  0  0  0  0
  192.8030  173.3860  141.2280 C   0  0  0  0  0  2  0  0  0  0  0  0
  191.7930  172.3300  143.1160 O   0  0  0  0  0  0  0  0  0  0  0  0
  196.0310  176.4010  143.7530 O   0  0  0  0  0  0  0  0  0  0  0  0
  1  7  1  0  0  0  0
  1  3  1  0  0  0  0
  2  5  1  0  0  0  0
  4  6  1  0  0  0  0
  4  2  2  0  0  0  0
  5  3  2  0  0  0  0
  6  1  2  0  0  0  0
  8  4  1  0  0  0  0
  9 11  1  0  0  0  0
 10 15  1  0  0  0  0
 10 14  1  0  0  0  0
 11 14  2  0  0  0  0
 11  8  1  0  0  0  0
 12 13  1  0  0  0  0
 12  9  2  0  0  0  0
 13 10  2  0  0  0  0
 15 16  1  0  0  0  0
 16 18  1  0  0  0  0
 18 21  1  6  0  0  0
 18 20  1  0  0  0  0
 18 22  1  0  0  0  0
 20 17  1  0  0  0  0
 22 23  1  0  0  0  0
 23 17  1  0  0  0  0
 23 19  1  0  0  0  0
 24  2  1  0  0  0  0
 24 25  1  0  0  0  0
 26 25  1  0  0  0  0
 27 26  1  0  0  0  0
 28 31  1  0  0  0  0
 28 27  1  0  0  0  0
 29 33  1  0  0  0  0
 29 32  1  0  0  0  0
 30 34  2  0  0  0  0
 30 31  1  0  0  0  0
 32 28  1  0  0  0  0
 33 30  1  0  0  0  0
 35 27  2  0  0  0  0
M  END
>  <MODEL>
6

>  <REMARK>
 VINA RESULT:      -7.3      2.272      7.288
  Name = 
  9 active torsions:
  status: ('A' for Active; 'I' for Inactive)
    1  A    between atoms: O_2  and  C_18
    2  A    between atoms: O_2  and  C_26
    3  A    between atoms: C_3  and  C_20
    4  A    between atoms: C_4  and  C_6
    5  A    between atoms: C_4  and  C_11
    6  A    between atoms: C_6  and  C_20
    7  A    between atoms: C_7  and  C_34
    8  A    between atoms: C_21  and  C_27
    9  A    between atoms: C_27  and  C_34
                            x       y       z     vdW  Elec       q    Type
                         _______ _______ _______ _____ _____    ______ ____

>  <TORSDO>
F 9

$$$$
=
 OpenBabel11042416533D

 35 38  0  0  1  0  0  0  0  0999 V2000
  184.8100  178.5990  146.5230 C   0  0  0  0  0  0  0  0  0  0  0  0
  186.0730  178.1960  144.0580 C   0  0  0  0  0  0  0  0  0  0  0  0
  184.0690  178.6610  145.3420 C   0  0  0  0  0  3  0  0  0  0  0  0
  186.8270  178.1280  145.2450 C   0  0  0  0  0  0  0  0  0  0  0  0
  184.7000  178.4620  144.1120 C   0  0  0  0  0  3  0  0  0  0  0  0
  186.1810  178.3380  146.4750 C   0  0  0  0  0  3  0  0  0  0  0  0
  184.2010  178.7940  147.7170 F   0  0  0  0  0  0  0  0  0  0  0  0
  188.2090  177.8830  145.1570 O   0  0  0  0  0  0  0  0  0  0  0  0
  188.3740  175.8380  146.5270 C   0  0  0  0  0  3  0  0  0  0  0  0
  191.1400  176.2090  146.6650 C   0  0  0  0  0  0  0  0  0  0  0  0
  188.9560  176.9490  145.8930 C   0  0  0  0  0  0  0  0  0  0  0  0
  189.1660  174.9280  147.2310 C   0  0  0  0  0  3  0  0  0  0  0  0
  190.5490  175.1150  147.3020 C   0  0  0  0  0  3  0  0  0  0  0  0
  190.3430  177.1230  145.9650 C   0  0  0  0  0  3  0  0  0  0  0  0
  192.6110  176.4160  146.7480 C   0  0  0  0  0  2  0  0  0  0  0  0
  193.1680  176.7780  145.3750 C   0  0  0  0  0  2  0  0  0  0  0  0
  192.7310  173.4300  144.1100 C   0  0  0  0  0  2  0  0  0  0  0  0
  193.6960  175.5560  144.6300 C   0  0  1  0  0  0  0  0  0  0  0  0
  194.2400  172.1790  145.3820 C   0  0  0  0  0  1  0  0  0  0  0  0
  192.6130  174.9040  143.8040 C   0  0  0  0  0  2  0  0  0  0  0  0
  194.7790  175.9040  143.8190 O   0  0  0  0  0  1  0  0  0  0  0  0
  194.1370  174.5030  145.6280 C   0  0  0  0  0  2  0  0  0  0  0  0
  193.3260  173.3070  145.4320 N   0  0  0  0  0  0  0  0  0  0  0  0
  186.7250  178.0110  142.7280 C   0  0  0  0  0  2  0  0  0  0  0  0
  186.6730  176.5510  142.3250 C   0  0  0  0  0  2  0  0  0  0  0  0
  187.8370  176.2370  141.4070 C   0  0  0  0  0  2  0  0  0  0  0  0
  188.5060  174.9780  141.8460 C   0  0  0  0  0  0  0  0  0  0  0  0
  188.8840  173.9780  140.8900 N   0  0  0  0  0  0  0  0  0  0  0  0
  190.3850  172.1390  140.2610 C   0  0  0  0  0  2  0  0  0  0  0  0
  188.9030  173.1620  138.5580 C   0  0  0  0  0  0  0  0  0  0  0  0
  188.5520  174.1490  139.5330 N   0  0  0  0  0  2  0  0  0  0  0  0
  189.4820  172.7200  141.3450 C   0  0  0  0  0  2  0  0  0  0  0  0
  189.5870  171.9020  138.9830 C   0  0  0  0  0  2  0  0  0  0  0  0
  188.5960  173.3350  137.3510 O   0  0  0  0  0  0  0  0  0  0  0  0
  188.7600  174.8160  143.0710 O   0  0  0  0  0  0  0  0  0  0  0  0
  1  7  1  0  0  0  0
  2  5  2  0  0  0  0
  2  4  1  0  0  0  0
  3  1  2  0  0  0  0
  4  6  2  0  0  0  0
  5  3  1  0  0  0  0
  6  1  1  0  0  0  0
  8  4  1  0  0  0  0
  8 11  1  0  0  0  0
  9 12  1  0  0  0  0
 10 15  1  0  0  0  0
 10 13  1  0  0  0  0
 11 14  1  0  0  0  0
 11  9  2  0  0  0  0
 12 13  2  0  0  0  0
 14 10  2  0  0  0  0
 16 15  1  0  0  0  0
 17 23  1  0  0  0  0
 18 21  1  6  0  0  0
 18 16  1  0  0  0  0
 18 22  1  0  0  0  0
 19 23  1  0  0  0  0
 20 17  1  0  0  0  0
 20 18  1  0  0  0  0
 23 22  1  0  0  0  0
 24  2  1  0  0  0  0
 25 24  1  0  0  0  0
 26 27  1  0  0  0  0
 26 25  1  0  0  0  0
 27 35  2  0  0  0  0
 28 32  1  0  0  0  0
 28 27  1  0  0  0  0
 29 32  1  0  0  0  0
 30 33  1  0  0  0  0
 30 31  1  0  0  0  0
 31 28  1  0  0  0  0
 33 29  1  0  0  0  0
 34 30  2  0  0  0  0
M  END
>  <MODEL>
7

>  <REMARK>
 VINA RESULT:      -7.3      2.062      2.269
  Name = 
  9 active torsions:
  status: ('A' for Active; 'I' for Inactive)
    1  A    between atoms: O_2  and  C_18
    2  A    between atoms: O_2  and  C_26
    3  A    between atoms: C_3  and  C_20
    4  A    between atoms: C_4  and  C_6
    5  A    between atoms: C_4  and  C_11
    6  A    between atoms: C_6  and  C_20
    7  A    between atoms: C_7  and  C_34
    8  A    between atoms: C_21  and  C_27
    9  A    between atoms: C_27  and  C_34
                            x       y       z     vdW  Elec       q    Type
                         _______ _______ _______ _____ _____    ______ ____

>  <TORSDO>
F 9

$$$$
=
 OpenBabel11042416533D

 35 38  0  0  1  0  0  0  0  0999 V2000
  184.5680  178.5970  146.1150 C   0  0  0  0  0  0  0  0  0  0  0  0
  187.1970  177.6790  146.3860 C   0  0  0  0  0  0  0  0  0  0  0  0
  184.9980  178.0610  147.3300 C   0  0  0  0  0  3  0  0  0  0  0  0
  186.7740  178.2210  145.1580 C   0  0  0  0  0  0  0  0  0  0  0  0
  186.3090  177.6010  147.4650 C   0  0  0  0  0  3  0  0  0  0  0  0
  185.4490  178.6730  145.0340 C   0  0  0  0  0  3  0  0  0  0  0  0
  183.2950  179.0410  145.9820 F   0  0  0  0  0  0  0  0  0  0  0  0
  187.6830  178.2640  144.0860 O   0  0  0  0  0  0  0  0  0  0  0  0
  186.9070  178.1780  141.7470 C   0  0  0  0  0  3  0  0  0  0  0  0
  188.1140  175.6710  141.4870 C   0  0  0  0  0  0  0  0  0  0  0  0
  187.5700  177.6110  142.8480 C   0  0  0  0  0  0  0  0  0  0  0  0
  186.8400  177.4930  140.5300 C   0  0  0  0  0  3  0  0  0  0  0  0
  187.4410  176.2380  140.4020 C   0  0  0  0  0  3  0  0  0  0  0  0
  188.1740  176.3570  142.7060 C   0  0  0  0  0  3  0  0  0  0  0  0
  188.7460  174.3300  141.3550 C   0  0  0  0  0  2  0  0  0  0  0  0
  190.2060  174.3940  141.7920 C   0  0  0  0  0  2  0  0  0  0  0  0
  190.4560  170.8040  142.0130 C   0  0  0  0  0  2  0  0  0  0  0  0
  190.9470  173.0910  141.5110 C   0  0  1  0  0  0  0  0  0  0  0  0
  192.2890  170.4850  143.4270 C   0  0  0  0  0  1  0  0  0  0  0  0
  189.9870  171.9720  141.1800 C   0  0  0  0  0  2  0  0  0  0  0  0
  191.8670  173.2620  140.4730 O   0  0  0  0  0  1  0  0  0  0  0  0
  191.6790  172.6420  142.7600 C   0  0  0  0  0  2  0  0  0  0  0  0
  191.1490  171.3470  143.1720 N   0  0  0  0  0  0  0  0  0  0  0  0
  188.5870  177.1580  146.5520 C   0  0  0  0  0  2  0  0  0  0  0  0
  188.5510  175.6740  146.8560 C   0  0  0  0  0  2  0  0  0  0  0  0
  189.7050  174.9860  146.1540 C   0  0  0  0  0  2  0  0  0  0  0  0
  190.9880  175.3230  146.8360 C   0  0  0  0  0  0  0  0  0  0  0  0
  192.1410  175.7090  146.0740 N   0  0  0  0  0  0  0  0  0  0  0  0
  194.2480  176.9640  145.9500 C   0  0  0  0  0  2  0  0  0  0  0  0
  193.2240  176.0620  143.8820 C   0  0  0  0  0  0  0  0  0  0  0  0
  192.0860  175.6960  144.6680 N   0  0  0  0  0  2  0  0  0  0  0  0
  193.4120  175.9740  146.7550 C   0  0  0  0  0  2  0  0  0  0  0  0
  194.5130  176.4150  144.5520 C   0  0  0  0  0  2  0  0  0  0  0  0
  193.1530  176.0420  142.6260 O   0  0  0  0  0  0  0  0  0  0  0  0
  191.0400  175.2890  148.0950 O   0  0  0  0  0  0  0  0  0  0  0  0
  1  3  1  0  0  0  0
  2 24  1  0  0  0  0
  2  5  1  0  0  0  0
  3  5  2  0  0  0  0
  4  2  2  0  0  0  0
  6  4  1  0  0  0  0
  6  1  2  0  0  0  0
  7  1  1  0  0  0  0
  8  4  1  0  0  0  0
  9 11  1  0  0  0  0
 10 14  1  0  0  0  0
 11  8  1  0  0  0  0
 12  9  2  0  0  0  0
 13 12  1  0  0  0  0
 13 10  2  0  0  0  0
 14 11  2  0  0  0  0
 15 10  1  0  0  0  0
 15 16  1  0  0  0  0
 17 23  1  0  0  0  0
 18 21  1  6  0  0  0
 18 16  1  0  0  0  0
 18 22  1  0  0  0  0
 20 18  1  0  0  0  0
 20 17  1  0  0  0  0
 22 23  1  0  0  0  0
 23 19  1  0  0  0  0
 24 25  1  0  0  0  0
 26 27  1  0  0  0  0
 26 25  1  0  0  0  0
 27 35  2  0  0  0  0
 28 32  1  0  0  0  0
 28 27  1  0  0  0  0
 29 32  1  0  0  0  0
 30 33  1  0  0  0  0
 30 31  1  0  0  0  0
 31 28  1  0  0  0  0
 33 29  1  0  0  0  0
 34 30  2  0  0  0  0
M  END
>  <MODEL>
8

>  <REMARK>
 VINA RESULT:      -7.3      1.955      5.094
  Name = 
  9 active torsions:
  status: ('A' for Active; 'I' for Inactive)
    1  A    between atoms: O_2  and  C_18
    2  A    between atoms: O_2  and  C_26
    3  A    between atoms: C_3  and  C_20
    4  A    between atoms: C_4  and  C_6
    5  A    between atoms: C_4  and  C_11
    6  A    between atoms: C_6  and  C_20
    7  A    between atoms: C_7  and  C_34
    8  A    between atoms: C_21  and  C_27
    9  A    between atoms: C_27  and  C_34
                            x       y       z     vdW  Elec       q    Type
                         _______ _______ _______ _____ _____    ______ ____

>  <TORSDO>
F 9

$$$$
=
 OpenBabel11042416533D

 35 38  0  0  1  0  0  0  0  0999 V2000
  189.7930  174.8920  147.0990 C   0  0  0  0  0  0  0  0  0  0  0  0
  191.6370  176.3920  145.6220 C   0  0  0  0  0  0  0  0  0  0  0  0
  190.7440  175.6740  147.7580 C   0  0  0  0  0  3  0  0  0  0  0  0
  190.6800  175.6090  144.9490 C   0  0  0  0  0  0  0  0  0  0  0  0
  191.6640  176.4210  147.0210 C   0  0  0  0  0  3  0  0  0  0  0  0
  189.7640  174.8560  145.7030 C   0  0  0  0  0  3  0  0  0  0  0  0
  188.9010  174.1650  147.8130 F   0  0  0  0  0  0  0  0  0  0  0  0
  190.6930  175.5820  143.5430 O   0  0  0  0  0  0  0  0  0  0  0  0
  189.2020  174.9580  141.6810 C   0  0  0  0  0  3  0  0  0  0  0  0
  187.8420  177.3760  142.0220 C   0  0  0  0  0  0  0  0  0  0  0  0
  189.6230  175.8550  142.6770 C   0  0  0  0  0  0  0  0  0  0  0  0
  188.1170  175.2720  140.8570 C   0  0  0  0  0  3  0  0  0  0  0  0
  187.4390  176.4820  141.0260 C   0  0  0  0  0  3  0  0  0  0  0  0
  188.9320  177.0610  142.8410 C   0  0  0  0  0  3  0  0  0  0  0  0
  187.1270  178.6690  142.1960 C   0  0  0  0  0  2  0  0  0  0  0  0
  185.6240  178.4620  142.0460 C   0  0  0  0  0  2  0  0  0  0  0  0
  185.6080  179.1900  145.5770 C   0  0  0  0  0  2  0  0  0  0  0  0
  184.8940  178.5660  143.3810 C   0  0  1  0  0  0  0  0  0  0  0  0
  185.2010  177.1040  146.5480 C   0  0  0  0  0  1  0  0  0  0  0  0
  185.3880  179.7420  144.1890 C   0  0  0  0  0  2  0  0  0  0  0  0
  183.5140  178.6620  143.1810 O   0  0  0  0  0  1  0  0  0  0  0  0
  185.1930  177.3400  144.2210 C   0  0  0  0  0  2  0  0  0  0  0  0
  185.8700  177.7650  145.4410 N   0  0  0  0  0  0  0  0  0  0  0  0
  192.6490  177.1830  144.8600 C   0  0  0  0  0  2  0  0  0  0  0  0
  194.0360  176.6220  145.1060 C   0  0  0  0  0  2  0  0  0  0  0  0
  194.4520  175.7670  143.9260 C   0  0  0  0  0  2  0  0  0  0  0  0
  195.8910  175.3920  144.0530 C   0  0  0  0  0  0  0  0  0  0  0  0
  196.2690  174.0860  144.5110 N   0  0  0  0  0  0  0  0  0  0  0  0
  197.9080  172.2570  144.5120 C   0  0  0  0  0  2  0  0  0  0  0  0
  195.6240  171.8700  145.3930 C   0  0  0  0  0  0  0  0  0  0  0  0
  195.2770  173.1750  144.9180 N   0  0  0  0  0  2  0  0  0  0  0  0
  197.6850  173.7560  144.6910 C   0  0  0  0  0  2  0  0  0  0  0  0
  197.0620  171.4770  145.5120 C   0  0  0  0  0  2  0  0  0  0  0  0
  194.7210  171.0720  145.7520 O   0  0  0  0  0  0  0  0  0  0  0  0
  196.7730  176.2320  143.7270 O   0  0  0  0  0  0  0  0  0  0  0  0
  1  3  1  0  0  0  0
  1  7  1  0  0  0  0
  2  5  1  0  0  0  0
  4  2  2  0  0  0  0
  4  6  1  0  0  0  0
  5  3  2  0  0  0  0
  6  1  2  0  0  0  0
  8  4  1  0  0  0  0
  9 11  1  0  0  0  0
 10 15  1  0  0  0  0
 10 14  1  0  0  0  0
 11 14  2  0  0  0  0
 11  8  1  0  0  0  0
 12 13  1  0  0  0  0
 12  9  2  0  0  0  0
 13 10  2  0  0  0  0
 16 15  1  0  0  0  0
 16 18  1  0  0  0  0
 18 21  1  6  0  0  0
 18 20  1  0  0  0  0
 18 22  1  0  0  0  0
 20 17  1  0  0  0  0
 22 23  1  0  0  0  0
 23 17  1  0  0  0  0
 23 19  1  0  0  0  0
 24 25  1  0  0  0  0
 24  2  1  0  0  0  0
 26 27  1  0  0  0  0
 26 25  1  0  0  0  0
 27 28  1  0  0  0  0
 28 32  1  0  0  0  0
 28 31  1  0  0  0  0
 29 32  1  0  0  0  0
 29 33  1  0  0  0  0
 30 33  1  0  0  0  0
 30 34  2  0  0  0  0
 31 30  1  0  0  0  0
 35 27  2  0  0  0  0
M  END
>  <MODEL>
9

>  <REMARK>
 VINA RESULT:      -7.2      2.565      7.737
  Name = 
  9 active torsions:
  status: ('A' for Active; 'I' for Inactive)
    1  A    between atoms: O_2  and  C_18
    2  A    between atoms: O_2  and  C_26
    3  A    between atoms: C_3  and  C_20
    4  A    between atoms: C_4  and  C_6
    5  A    between atoms: C_4  and  C_11
    6  A    between atoms: C_6  and  C_20
    7  A    between atoms: C_7  and  C_34
    8  A    between atoms: C_21  and  C_27
    9  A    between atoms: C_27  and  C_34
                            x       y       z     vdW  Elec       q    Type
                         _______ _______ _______ _____ _____    ______ ____

>  <TORSDO>
F 9

$$$$
