=
 OpenBabel11042419263D

 40 45  0  0  1  0  0  0  0  0999 V2000
  194.9590  174.4260  145.1160 C   0  0  0  0  0  0  0  0  0  0  0  0
  195.8070  174.0050  146.1480 C   0  0  0  0  0  3  0  0  0  0  0  0
  197.6970  174.2870  144.7860 N   0  0  0  0  0  0  0  0  0  0  0  0
  196.9350  174.7140  143.7470 C   0  0  0  0  0  3  0  0  0  0  0  0
  195.5450  174.7880  143.8810 C   0  0  0  0  0  0  0  0  0  0  0  0
  197.1490  173.9440  145.9510 N   0  0  0  0  0  0  0  0  0  0  0  0
  192.4800  176.1370  142.8420 C   0  0  0  0  0  0  0  0  0  0  0  0
  194.7320  175.3410  142.7450 C   0  0  2  0  0  3  0  0  0  0  0  0
  193.8220  176.3870  143.2080 N   0  0  0  0  0  2  0  0  0  0  0  0
  193.7670  174.0050  141.9140 S   0  0  0  0  0  0  0  0  0  0  0  0
  189.9520  175.4350  142.0170 C   0  0  0  0  0  0  0  0  0  0  0  0
  192.2790  174.9520  142.1580 C   0  0  0  0  0  0  0  0  0  0  0  0
  191.4180  177.0040  143.1370 C   0  0  0  0  0  3  0  0  0  0  0  0
  190.1410  176.6280  142.7080 C   0  0  0  0  0  0  0  0  0  0  0  0
  187.8520  176.7240  142.3600 C   0  0  0  0  0  0  0  0  0  0  0  0
  188.3310  175.2650  141.6380 S   0  0  0  0  0  0  0  0  0  0  0  0
  188.9690  177.3610  142.9080 C   0  0  0  0  0  3  0  0  0  0  0  0
  191.0050  174.5660  141.7220 C   0  0  0  0  0  3  0  0  0  0  0  0
  185.6240  176.6240  143.1180 O   0  0  0  0  0  0  0  0  0  0  0  0
  186.4550  177.2140  142.3810 C   0  0  0  0  0  0  0  0  0  0  0  0
  186.0010  178.3010  141.6210 O   0  0  0  0  0  0  0  0  0  0  0  0
  183.8400  178.3500  140.5880 C   0  0  0  0  0  1  0  0  0  0  0  0
  185.3290  178.1860  140.3750 C   0  0  0  0  0  2  0  0  0  0  0  0
  192.9430  175.5150  146.1230 C   0  0  0  0  0  3  0  0  0  0  0  0
  191.5730  175.5550  146.3870 C   0  0  0  0  0  3  0  0  0  0  0  0
  191.2700  173.4790  145.1640 C   0  0  0  0  0  0  0  0  0  0  0  0
  192.6490  173.4510  144.9080 C   0  0  0  0  0  3  0  0  0  0  0  0
  190.7300  174.5470  145.9060 C   0  0  0  0  0  0  0  0  0  0  0  0
  193.4950  174.4690  145.3710 C   0  0  0  0  0  0  0  0  0  0  0  0
  190.4040  172.4000  144.6570 C   0  0  0  0  0  3  0  0  0  0  0  0
  190.8040  171.5890  143.7310 N   0  0  0  0  0  2  0  0  0  0  0  0
  189.2740  174.6150  146.2320 C   0  0  0  0  0  2  0  0  0  0  0  0
  188.9540  175.9250  146.7680 N   0  0  0  0  0  2  0  0  0  0  0  0
  187.7640  176.3890  146.0620 C   0  0  0  0  0  2  0  0  0  0  0  0
  186.7420  176.8870  146.9860 N   0  0  0  0  0  0  0  0  0  0  0  0
  185.5290  178.9670  146.7470 C   0  0  1  0  0  3  0  0  0  0  0  0
  185.6270  179.5430  145.4800 O   0  0  0  0  0  1  0  0  0  0  0  0
  184.5570  177.8170  146.7000 C   0  0  0  0  0  2  0  0  0  0  0  0
  185.4150  176.6030  146.4460 C   0  0  0  0  0  2  0  0  0  0  0  0
  186.8600  178.3390  147.1150 C   0  0  0  0  0  2  0  0  0  0  0  0
  1 29  1  0  0  0  0
  1  2  1  0  0  0  0
  3  6  1  0  0  0  0
  4  5  1  0  0  0  0
  4  3  2  0  0  0  0
  5  1  2  0  0  0  0
  6  2  2  0  0  0  0
  7 13  1  0  0  0  0
  7  9  1  0  0  0  0
  8  9  1  0  0  0  0
  8  5  1  1  0  0  0
 10 12  1  0  0  0  0
 10  8  1  0  0  0  0
 11 14  1  0  0  0  0
 12  7  2  0  0  0  0
 14 17  1  0  0  0  0
 14 13  2  0  0  0  0
 15 20  1  0  0  0  0
 15 17  2  0  0  0  0
 16 11  1  0  0  0  0
 16 15  1  0  0  0  0
 18 11  2  0  0  0  0
 18 12  1  0  0  0  0
 20 19  2  0  0  0  0
 21 20  1  0  0  0  0
 23 22  1  0  0  0  0
 23 21  1  0  0  0  0
 24 25  1  0  0  0  0
 26 28  1  0  0  0  0
 27 26  2  0  0  0  0
 27 29  1  0  0  0  0
 28 32  1  0  0  0  0
 28 25  2  0  0  0  0
 29 24  2  0  0  0  0
 30 26  1  0  0  0  0
 31 30  2  0  0  0  0
 32 33  1  0  0  0  0
 34 33  1  0  0  0  0
 34 35  1  0  0  0  0
 35 40  1  0  0  0  0
 36 37  1  6  0  0  0
 36 40  1  0  0  0  0
 38 36  1  0  0  0  0
 39 38  1  0  0  0  0
 39 35  1  0  0  0  0
M  END
>  <MODEL>
1

>  <REMARK>
 VINA RESULT:      -7.5      0.000      0.000
  Name = 
  10 active torsions:
  status: ('A' for Active; 'I' for Inactive)
    1  A    between atoms: C_2  and  C_36
    2  A    between atoms: N_3  and  C_10
    3  A    between atoms: C_6  and  C_30
    4  A    between atoms: C_8  and  C_27
    5  A    between atoms: C_8  and  O_37
    6  A    between atoms: C_10  and  N_32
    7  A    between atoms: C_14  and  N_32
    8  A    between atoms: C_14  and  C_34
    9  A    between atoms: C_25  and  C_26
   10  A    between atoms: C_31  and  O_37
                            x       y       z     vdW  Elec       q    Type
                         _______ _______ _______ _____ _____    ______ ____

>  <TORSDO>
F 10

$$$$
=
 OpenBabel11042419263D

 40 45  0  0  1  0  0  0  0  0999 V2000
  186.1190  178.2770  145.4900 C   0  0  0  0  0  0  0  0  0  0  0  0
  185.5820  178.9410  146.6000 C   0  0  0  0  0  3  0  0  0  0  0  0
  187.4150  178.3240  147.9270 N   0  0  0  0  0  0  0  0  0  0  0  0
  187.9970  177.6690  146.8910 C   0  0  0  0  0  3  0  0  0  0  0  0
  187.3620  177.6210  145.6460 C   0  0  0  0  0  0  0  0  0  0  0  0
  186.2430  178.9410  147.7850 N   0  0  0  0  0  0  0  0  0  0  0  0
  189.7640  175.2840  144.6160 C   0  0  0  0  0  0  0  0  0  0  0  0
  188.0650  176.9610  144.4940 C   0  0  2  0  0  3  0  0  0  0  0  0
  188.3930  175.5710  144.8030 N   0  0  0  0  0  2  0  0  0  0  0  0
  189.6060  177.8750  144.0510 S   0  0  0  0  0  0  0  0  0  0  0  0
  192.4620  174.9710  144.1800 C   0  0  0  0  0  0  0  0  0  0  0  0
  190.5310  176.3640  144.2180 C   0  0  0  0  0  0  0  0  0  0  0  0
  190.3270  174.0140  144.8130 C   0  0  0  0  0  3  0  0  0  0  0  0
  191.7020  173.8780  144.5850 C   0  0  0  0  0  0  0  0  0  0  0  0
  193.7860  172.8800  144.4250 C   0  0  0  0  0  0  0  0  0  0  0  0
  194.0550  174.4970  143.9890 S   0  0  0  0  0  0  0  0  0  0  0  0
  192.4330  172.6970  144.7270 C   0  0  0  0  0  3  0  0  0  0  0  0
  191.9070  176.2380  143.9860 C   0  0  0  0  0  3  0  0  0  0  0  0
  195.1260  171.2360  143.3990 O   0  0  0  0  0  0  0  0  0  0  0  0
  194.8480  171.8480  144.4630 C   0  0  0  0  0  0  0  0  0  0  0  0
  195.5630  171.5100  145.6200 O   0  0  0  0  0  0  0  0  0  0  0  0
  196.9820  173.3470  146.2110 C   0  0  0  0  0  1  0  0  0  0  0  0
  196.9130  171.8760  145.8650 C   0  0  0  0  0  2  0  0  0  0  0  0
  183.9920  178.6160  144.2140 C   0  0  0  0  0  3  0  0  0  0  0  0
  183.2610  178.6150  143.0260 C   0  0  0  0  0  3  0  0  0  0  0  0
  185.2450  177.9420  141.7980 C   0  0  0  0  0  0  0  0  0  0  0  0
  185.9670  177.9460  143.0000 C   0  0  0  0  0  3  0  0  0  0  0  0
  183.8800  178.2870  141.8140 C   0  0  0  0  0  0  0  0  0  0  0  0
  185.3570  178.2930  144.2140 C   0  0  0  0  0  0  0  0  0  0  0  0
  185.9160  177.5820  140.5360 C   0  0  0  0  0  3  0  0  0  0  0  0
  187.2010  177.6610  140.4060 N   0  0  0  0  0  2  0  0  0  0  0  0
  183.0550  178.2730  140.5700 C   0  0  0  0  0  2  0  0  0  0  0  0
  181.7620  178.8790  140.8330 N   0  0  0  0  0  2  0  0  0  0  0  0
  180.7600  178.0120  140.2220 C   0  0  0  0  0  2  0  0  0  0  0  0
  179.3990  178.4940  140.4710 N   0  0  0  0  0  0  0  0  0  0  0  0
  177.8370  177.5340  142.0500 C   0  0  1  0  0  3  0  0  0  0  0  0
  178.4190  176.6610  142.9700 O   0  0  0  0  0  1  0  0  0  0  0  0
  178.1360  178.9550  142.4500 C   0  0  0  0  0  2  0  0  0  0  0  0
  179.3840  179.3120  141.6810 C   0  0  0  0  0  2  0  0  0  0  0  0
  178.5070  177.3580  140.7000 C   0  0  0  0  0  2  0  0  0  0  0  0
  1  5  2  0  0  0  0
  1  2  1  0  0  0  0
  2  6  2  0  0  0  0
  4  3  2  0  0  0  0
  5  4  1  0  0  0  0
  6  3  1  0  0  0  0
  7  9  1  0  0  0  0
  7 13  1  0  0  0  0
  8  9  1  0  0  0  0
  8  5  1  1  0  0  0
 10 12  1  0  0  0  0
 10  8  1  0  0  0  0
 11 14  1  0  0  0  0
 12  7  2  0  0  0  0
 14 17  1  0  0  0  0
 14 13  2  0  0  0  0
 15 20  1  0  0  0  0
 15 17  2  0  0  0  0
 16 11  1  0  0  0  0
 16 15  1  0  0  0  0
 18 11  2  0  0  0  0
 18 12  1  0  0  0  0
 19 20  2  0  0  0  0
 20 21  1  0  0  0  0
 21 23  1  0  0  0  0
 23 22  1  0  0  0  0
 25 24  2  0  0  0  0
 26 28  2  0  0  0  0
 26 27  1  0  0  0  0
 27 29  2  0  0  0  0
 28 25  1  0  0  0  0
 29 24  1  0  0  0  0
 29  1  1  0  0  0  0
 30 26  1  0  0  0  0
 31 30  2  0  0  0  0
 32 33  1  0  0  0  0
 32 28  1  0  0  0  0
 34 35  1  0  0  0  0
 34 33  1  0  0  0  0
 35 40  1  0  0  0  0
 35 39  1  0  0  0  0
 36 38  1  0  0  0  0
 36 37  1  1  0  0  0
 39 38  1  0  0  0  0
 40 36  1  0  0  0  0
M  END
>  <MODEL>
2

>  <REMARK>
 VINA RESULT:      -7.4      4.312      8.891
  Name = 
  10 active torsions:
  status: ('A' for Active; 'I' for Inactive)
    1  A    between atoms: C_2  and  C_36
    2  A    between atoms: N_3  and  C_10
    3  A    between atoms: C_6  and  C_30
    4  A    between atoms: C_8  and  C_27
    5  A    between atoms: C_8  and  O_37
    6  A    between atoms: C_10  and  N_32
    7  A    between atoms: C_14  and  N_32
    8  A    between atoms: C_14  and  C_34
    9  A    between atoms: C_25  and  C_26
   10  A    between atoms: C_31  and  O_37
                            x       y       z     vdW  Elec       q    Type
                         _______ _______ _______ _____ _____    ______ ____

>  <TORSDO>
F 10

$$$$
=
 OpenBabel11042419263D

 40 45  0  0  1  0  0  0  0  0999 V2000
  192.3740  170.8390  142.4870 C   0  0  0  0  0  0  0  0  0  0  0  0
  192.4070  169.4390  142.5030 C   0  0  0  0  0  3  0  0  0  0  0  0
  190.5210  169.3220  141.1140 N   0  0  0  0  0  0  0  0  0  0  0  0
  190.4360  170.6750  141.0460 C   0  0  0  0  0  3  0  0  0  0  0  0
  191.3550  171.4710  141.7370 C   0  0  0  0  0  0  0  0  0  0  0  0
  191.4780  168.7230  141.8200 N   0  0  0  0  0  0  0  0  0  0  0  0
  189.7500  174.4540  142.6400 C   0  0  0  0  0  0  0  0  0  0  0  0
  191.2890  172.9630  141.5810 C   0  0  2  0  0  3  0  0  0  0  0  0
  190.8650  173.6050  142.8230 N   0  0  0  0  0  2  0  0  0  0  0  0
  190.1380  173.4330  140.2180 S   0  0  0  0  0  0  0  0  0  0  0  0
  187.5860  176.0410  142.0340 C   0  0  0  0  0  0  0  0  0  0  0  0
  189.2560  174.4880  141.3480 C   0  0  0  0  0  0  0  0  0  0  0  0
  189.1700  175.2110  143.6680 C   0  0  0  0  0  3  0  0  0  0  0  0
  188.0700  176.0110  143.3380 C   0  0  0  0  0  0  0  0  0  0  0  0
  186.3210  177.5080  143.5930 C   0  0  0  0  0  0  0  0  0  0  0  0
  186.2800  177.0830  141.9510 S   0  0  0  0  0  0  0  0  0  0  0  0
  187.3680  176.8300  144.2240 C   0  0  0  0  0  3  0  0  0  0  0  0
  188.1570  175.2870  141.0060 C   0  0  0  0  0  3  0  0  0  0  0  0
  185.4380  179.6720  143.8910 O   0  0  0  0  0  0  0  0  0  0  0  0
  185.3770  178.4590  144.2220 C   0  0  0  0  0  0  0  0  0  0  0  0
  184.4150  178.0880  145.1730 O   0  0  0  0  0  0  0  0  0  0  0  0
  185.1340  178.4930  147.4220 C   0  0  0  0  0  1  0  0  0  0  0  0
  184.7110  177.4520  146.4070 C   0  0  0  0  0  2  0  0  0  0  0  0
  193.2450  171.7800  144.6370 C   0  0  0  0  0  3  0  0  0  0  0  0
  194.1950  172.4950  145.3670 C   0  0  0  0  0  3  0  0  0  0  0  0
  195.4880  172.8580  143.3450 C   0  0  0  0  0  0  0  0  0  0  0  0
  194.5240  172.1390  142.6230 C   0  0  0  0  0  3  0  0  0  0  0  0
  195.3210  173.0300  144.7320 C   0  0  0  0  0  0  0  0  0  0  0  0
  193.4040  171.5830  143.2580 C   0  0  0  0  0  0  0  0  0  0  0  0
  196.6590  173.4230  142.6510 C   0  0  0  0  0  3  0  0  0  0  0  0
  196.5760  174.5140  141.9600 N   0  0  0  0  0  2  0  0  0  0  0  0
  196.2990  173.8100  145.5470 C   0  0  0  0  0  2  0  0  0  0  0  0
  195.6290  174.9360  146.1710 N   0  0  0  0  0  2  0  0  0  0  0  0
  195.3820  175.9150  145.1190 C   0  0  0  0  0  2  0  0  0  0  0  0
  194.2510  176.7890  145.4420 N   0  0  0  0  0  0  0  0  0  0  0  0
  191.9660  176.0640  145.7670 C   0  0  1  0  0  3  0  0  0  0  0  0
  191.8240  174.6870  145.9460 O   0  0  0  0  0  1  0  0  0  0  0  0
  192.4760  176.6840  147.0420 C   0  0  0  0  0  2  0  0  0  0  0  0
  193.9750  176.7200  146.8740 C   0  0  0  0  0  2  0  0  0  0  0  0
  193.0540  176.3250  144.7420 C   0  0  0  0  0  2  0  0  0  0  0  0
  1  2  1  0  0  0  0
  1 29  1  0  0  0  0
  3  6  1  0  0  0  0
  4  3  2  0  0  0  0
  4  5  1  0  0  0  0
  5  1  2  0  0  0  0
  6  2  2  0  0  0  0
  7  9  1  0  0  0  0
  7 13  1  0  0  0  0
  8  5  1  1  0  0  0
  8  9  1  0  0  0  0
 10 12  1  0  0  0  0
 10  8  1  0  0  0  0
 11 14  1  0  0  0  0
 12  7  2  0  0  0  0
 14 13  2  0  0  0  0
 14 17  1  0  0  0  0
 15 20  1  0  0  0  0
 15 17  2  0  0  0  0
 16 11  1  0  0  0  0
 16 15  1  0  0  0  0
 18 12  1  0  0  0  0
 18 11  2  0  0  0  0
 19 20  2  0  0  0  0
 20 21  1  0  0  0  0
 21 23  1  0  0  0  0
 23 22  1  0  0  0  0
 24 25  1  0  0  0  0
 26 28  1  0  0  0  0
 27 29  1  0  0  0  0
 27 26  2  0  0  0  0
 28 25  2  0  0  0  0
 28 32  1  0  0  0  0
 29 24  2  0  0  0  0
 30 26  1  0  0  0  0
 31 30  2  0  0  0  0
 32 33  1  0  0  0  0
 34 35  1  0  0  0  0
 34 33  1  0  0  0  0
 35 39  1  0  0  0  0
 36 37  1  1  0  0  0
 36 38  1  0  0  0  0
 39 38  1  0  0  0  0
 40 35  1  0  0  0  0
 40 36  1  0  0  0  0
M  END
>  <MODEL>
3

>  <REMARK>
 VINA RESULT:      -7.2      2.483      5.650
  Name = 
  10 active torsions:
  status: ('A' for Active; 'I' for Inactive)
    1  A    between atoms: C_2  and  C_36
    2  A    between atoms: N_3  and  C_10
    3  A    between atoms: C_6  and  C_30
    4  A    between atoms: C_8  and  C_27
    5  A    between atoms: C_8  and  O_37
    6  A    between atoms: C_10  and  N_32
    7  A    between atoms: C_14  and  N_32
    8  A    between atoms: C_14  and  C_34
    9  A    between atoms: C_25  and  C_26
   10  A    between atoms: C_31  and  O_37
                            x       y       z     vdW  Elec       q    Type
                         _______ _______ _______ _____ _____    ______ ____

>  <TORSDO>
F 10

$$$$
=
 OpenBabel11042419263D

 40 45  0  0  1  0  0  0  0  0999 V2000
  186.5710  177.9720  144.4250 C   0  0  0  0  0  0  0  0  0  0  0  0
  185.8780  178.7580  145.3540 C   0  0  0  0  0  3  0  0  0  0  0  0
  184.0720  179.0110  143.8800 N   0  0  0  0  0  0  0  0  0  0  0  0
  184.6820  178.2480  142.9370 C   0  0  0  0  0  3  0  0  0  0  0  0
  185.9510  177.7140  143.1800 C   0  0  0  0  0  0  0  0  0  0  0  0
  184.6530  179.2570  145.0530 N   0  0  0  0  0  0  0  0  0  0  0  0
  187.9840  174.9250  142.5660 C   0  0  0  0  0  0  0  0  0  0  0  0
  186.5690  176.8080  142.1550 C   0  0  2  0  0  3  0  0  0  0  0  0
  186.6700  175.4380  142.6550 N   0  0  0  0  0  2  0  0  0  0  0  0
  188.2430  177.4110  141.6650 S   0  0  0  0  0  0  0  0  0  0  0  0
  190.6100  174.1530  142.2920 C   0  0  0  0  0  0  0  0  0  0  0  0
  188.9180  175.8140  142.0650 C   0  0  0  0  0  0  0  0  0  0  0  0
  188.3390  173.6230  142.9490 C   0  0  0  0  0  3  0  0  0  0  0  0
  189.6800  173.2520  142.8010 C   0  0  0  0  0  0  0  0  0  0  0  0
  191.5880  171.9380  142.8610 C   0  0  0  0  0  0  0  0  0  0  0  0
  192.1140  173.4230  142.2320 S   0  0  0  0  0  0  0  0  0  0  0  0
  190.2160  172.0040  143.1260 C   0  0  0  0  0  3  0  0  0  0  0  0
  190.2630  175.4520  141.9110 C   0  0  0  0  0  3  0  0  0  0  0  0
  192.9900  170.2170  142.0730 O   0  0  0  0  0  0  0  0  0  0  0  0
  192.4750  170.7730  143.0780 C   0  0  0  0  0  0  0  0  0  0  0  0
  192.7760  170.2490  144.3430 O   0  0  0  0  0  0  0  0  0  0  0  0
  194.8090  169.2700  145.1460 C   0  0  0  0  0  1  0  0  0  0  0  0
  193.4370  169.0120  144.5630 C   0  0  0  0  0  2  0  0  0  0  0  0
  189.0670  178.1500  144.4000 C   0  0  0  0  0  3  0  0  0  0  0  0
  190.3350  177.6640  144.7200 C   0  0  0  0  0  3  0  0  0  0  0  0
  189.3300  175.7500  145.8260 C   0  0  0  0  0  0  0  0  0  0  0  0
  188.0620  176.2490  145.4950 C   0  0  0  0  0  3  0  0  0  0  0  0
  190.4750  176.4710  145.4380 C   0  0  0  0  0  0  0  0  0  0  0  0
  187.9150  177.4540  144.7930 C   0  0  0  0  0  0  0  0  0  0  0  0
  189.4520  174.4850  146.5720 C   0  0  0  0  0  3  0  0  0  0  0  0
  188.9270  174.3380  147.7460 N   0  0  0  0  0  2  0  0  0  0  0  0
  191.8510  175.9730  145.7390 C   0  0  0  0  0  2  0  0  0  0  0  0
  192.7700  176.4260  144.7110 N   0  0  0  0  0  2  0  0  0  0  0  0
  193.9640  176.9070  145.3980 C   0  0  0  0  0  2  0  0  0  0  0  0
  195.1480  176.1170  145.0500 N   0  0  0  0  0  0  0  0  0  0  0  0
  195.3580  173.7190  145.3050 C   0  0  1  0  0  3  0  0  0  0  0  0
  194.1470  173.0590  145.5140 O   0  0  0  0  0  1  0  0  0  0  0  0
  195.4880  174.0770  143.8470 C   0  0  0  0  0  2  0  0  0  0  0  0
  194.9470  175.4820  143.7500 C   0  0  0  0  0  2  0  0  0  0  0  0
  195.3340  175.0500  146.0330 C   0  0  0  0  0  2  0  0  0  0  0  0
  1 29  1  0  0  0  0
  1  2  1  0  0  0  0
  3  6  1  0  0  0  0
  4  5  1  0  0  0  0
  4  3  2  0  0  0  0
  5  1  2  0  0  0  0
  6  2  2  0  0  0  0
  7  9  1  0  0  0  0
  7 13  1  0  0  0  0
  8  9  1  0  0  0  0
  8  5  1  1  0  0  0
 10 12  1  0  0  0  0
 10  8  1  0  0  0  0
 11 14  1  0  0  0  0
 12  7  2  0  0  0  0
 14 13  2  0  0  0  0
 14 17  1  0  0  0  0
 15 20  1  0  0  0  0
 15 17  2  0  0  0  0
 16 11  1  0  0  0  0
 16 15  1  0  0  0  0
 18 12  1  0  0  0  0
 18 11  2  0  0  0  0
 19 20  2  0  0  0  0
 20 21  1  0  0  0  0
 21 23  1  0  0  0  0
 23 22  1  0  0  0  0
 24 25  2  0  0  0  0
 24 29  1  0  0  0  0
 25 28  1  0  0  0  0
 26 30  1  0  0  0  0
 27 26  1  0  0  0  0
 28 32  1  0  0  0  0
 28 26  2  0  0  0  0
 29 27  2  0  0  0  0
 30 31  2  0  0  0  0
 33 34  1  0  0  0  0
 33 32  1  0  0  0  0
 35 34  1  0  0  0  0
 35 40  1  0  0  0  0
 36 37  1  6  0  0  0
 36 40  1  0  0  0  0
 38 36  1  0  0  0  0
 39 38  1  0  0  0  0
 39 35  1  0  0  0  0
M  END
>  <MODEL>
4

>  <REMARK>
 VINA RESULT:      -7.0      3.428      8.256
  Name = 
  10 active torsions:
  status: ('A' for Active; 'I' for Inactive)
    1  A    between atoms: C_2  and  C_36
    2  A    between atoms: N_3  and  C_10
    3  A    between atoms: C_6  and  C_30
    4  A    between atoms: C_8  and  C_27
    5  A    between atoms: C_8  and  O_37
    6  A    between atoms: C_10  and  N_32
    7  A    between atoms: C_14  and  N_32
    8  A    between atoms: C_14  and  C_34
    9  A    between atoms: C_25  and  C_26
   10  A    between atoms: C_31  and  O_37
                            x       y       z     vdW  Elec       q    Type
                         _______ _______ _______ _____ _____    ______ ____

>  <TORSDO>
F 10

$$$$
=
 OpenBabel11042419263D

 40 45  0  0  1  0  0  0  0  0999 V2000
  194.9560  175.3800  142.0040 C   0  0  0  0  0  0  0  0  0  0  0  0
  196.2660  175.8560  142.1360 C   0  0  0  0  0  3  0  0  0  0  0  0
  195.7920  176.7440  144.2540 N   0  0  0  0  0  0  0  0  0  0  0  0
  194.5100  176.3020  144.1980 C   0  0  0  0  0  3  0  0  0  0  0  0
  194.0540  175.6150  143.0690 C   0  0  0  0  0  0  0  0  0  0  0  0
  196.6440  176.5270  143.2530 N   0  0  0  0  0  0  0  0  0  0  0  0
  190.6500  176.2320  143.6350 C   0  0  0  0  0  0  0  0  0  0  0  0
  192.6570  175.0650  143.0650 C   0  0  2  0  0  3  0  0  0  0  0  0
  191.6880  176.0910  142.6860 N   0  0  0  0  0  2  0  0  0  0  0  0
  192.2140  174.3780  144.7200 S   0  0  0  0  0  0  0  0  0  0  0  0
  188.7460  176.3210  145.6180 C   0  0  0  0  0  0  0  0  0  0  0  0
  190.7660  175.4120  144.7430 C   0  0  0  0  0  0  0  0  0  0  0  0
  189.5790  177.1260  143.4900 C   0  0  0  0  0  3  0  0  0  0  0  0
  188.6220  177.1540  144.5110 C   0  0  0  0  0  0  0  0  0  0  0  0
  186.7250  177.7680  145.6910 C   0  0  0  0  0  0  0  0  0  0  0  0
  187.4580  176.5810  146.6540 S   0  0  0  0  0  0  0  0  0  0  0  0
  187.4910  177.9730  144.5390 C   0  0  0  0  0  3  0  0  0  0  0  0
  189.8130  175.4320  145.7700 C   0  0  0  0  0  3  0  0  0  0  0  0
  185.4480  179.1840  147.0750 O   0  0  0  0  0  0  0  0  0  0  0  0
  185.4640  178.4570  146.0480 C   0  0  0  0  0  0  0  0  0  0  0  0
  184.2790  178.3440  145.3070 O   0  0  0  0  0  0  0  0  0  0  0  0
  184.0660  178.2170  142.9240 C   0  0  0  0  0  1  0  0  0  0  0  0
  183.9810  179.1050  144.1470 C   0  0  0  0  0  2  0  0  0  0  0  0
  194.3200  173.2830  140.7960 C   0  0  0  0  0  3  0  0  0  0  0  0
  193.9880  172.5910  139.6300 C   0  0  0  0  0  3  0  0  0  0  0  0
  194.1930  174.6420  138.3460 C   0  0  0  0  0  0  0  0  0  0  0  0
  194.5270  175.3240  139.5250 C   0  0  0  0  0  3  0  0  0  0  0  0
  193.9150  173.2620  138.4050 C   0  0  0  0  0  0  0  0  0  0  0  0
  194.5820  174.6590  140.7590 C   0  0  0  0  0  0  0  0  0  0  0  0
  194.1330  175.3680  137.0660 C   0  0  0  0  0  3  0  0  0  0  0  0
  193.0640  175.9940  136.6910 N   0  0  0  0  0  2  0  0  0  0  0  0
  193.5810  172.4790  137.1780 C   0  0  0  0  0  2  0  0  0  0  0  0
  192.3080  171.8060  137.3580 N   0  0  0  0  0  2  0  0  0  0  0  0
  191.2740  172.7390  136.9220 C   0  0  0  0  0  2  0  0  0  0  0  0
  189.9900  172.4740  137.5760 N   0  0  0  0  0  0  0  0  0  0  0  0
  189.5080  172.8420  139.9190 C   0  0  1  0  0  3  0  0  0  0  0  0
  190.4450  173.6400  140.5760 O   0  0  0  0  0  1  0  0  0  0  0  0
  188.6070  173.7140  139.0830 C   0  0  0  0  0  2  0  0  0  0  0  0
  189.2460  173.7220  137.7160 C   0  0  0  0  0  2  0  0  0  0  0  0
  190.2220  171.9490  138.9220 C   0  0  0  0  0  2  0  0  0  0  0  0
  1  2  2  0  0  0  0
  1  5  1  0  0  0  0
  2  6  1  0  0  0  0
  4  3  1  0  0  0  0
  5  4  2  0  0  0  0
  6  3  2  0  0  0  0
  7 12  1  0  0  0  0
  8  5  1  1  0  0  0
  8 10  1  0  0  0  0
  9  8  1  0  0  0  0
  9  7  1  0  0  0  0
 10 12  1  0  0  0  0
 11 18  1  0  0  0  0
 11 16  1  0  0  0  0
 12 18  2  0  0  0  0
 13  7  2  0  0  0  0
 13 14  1  0  0  0  0
 14 17  1  0  0  0  0
 14 11  2  0  0  0  0
 15 20  1  0  0  0  0
 15 16  1  0  0  0  0
 17 15  2  0  0  0  0
 20 19  2  0  0  0  0
 21 20  1  0  0  0  0
 22 23  1  0  0  0  0
 23 21  1  0  0  0  0
 25 24  2  0  0  0  0
 26 28  2  0  0  0  0
 26 27  1  0  0  0  0
 27 29  2  0  0  0  0
 28 25  1  0  0  0  0
 29 24  1  0  0  0  0
 29  1  1  0  0  0  0
 30 26  1  0  0  0  0
 31 30  2  0  0  0  0
 32 33  1  0  0  0  0
 32 28  1  0  0  0  0
 34 33  1  0  0  0  0
 34 35  1  0  0  0  0
 35 39  1  0  0  0  0
 35 40  1  0  0  0  0
 36 37  1  6  0  0  0
 38 36  1  0  0  0  0
 39 38  1  0  0  0  0
 40 36  1  0  0  0  0
M  END
>  <MODEL>
5

>  <REMARK>
 VINA RESULT:      -7.0      3.486      6.404
  Name = 
  10 active torsions:
  status: ('A' for Active; 'I' for Inactive)
    1  A    between atoms: C_2  and  C_36
    2  A    between atoms: N_3  and  C_10
    3  A    between atoms: C_6  and  C_30
    4  A    between atoms: C_8  and  C_27
    5  A    between atoms: C_8  and  O_37
    6  A    between atoms: C_10  and  N_32
    7  A    between atoms: C_14  and  N_32
    8  A    between atoms: C_14  and  C_34
    9  A    between atoms: C_25  and  C_26
   10  A    between atoms: C_31  and  O_37
                            x       y       z     vdW  Elec       q    Type
                         _______ _______ _______ _____ _____    ______ ____

>  <TORSDO>
F 10

$$$$
=
 OpenBabel11042419263D

 40 45  0  0  1  0  0  0  0  0999 V2000
  195.3170  175.1480  143.4630 C   0  0  0  0  0  0  0  0  0  0  0  0
  196.1610  174.6990  144.4860 C   0  0  0  0  0  3  0  0  0  0  0  0
  194.5890  175.2930  146.1220 N   0  0  0  0  0  0  0  0  0  0  0  0
  193.7170  175.7370  145.1820 C   0  0  0  0  0  3  0  0  0  0  0  0
  194.0600  175.6840  143.8270 C   0  0  0  0  0  0  0  0  0  0  0  0
  195.7750  174.7890  145.7840 N   0  0  0  0  0  0  0  0  0  0  0  0
  190.8530  176.9630  143.2150 C   0  0  0  0  0  0  0  0  0  0  0  0
  193.0460  176.1050  142.8020 C   0  0  2  0  0  3  0  0  0  0  0  0
  192.2410  177.2240  143.2860 N   0  0  0  0  0  2  0  0  0  0  0  0
  191.9410  174.6970  142.3510 S   0  0  0  0  0  0  0  0  0  0  0  0
  188.2150  176.2230  142.9800 C   0  0  0  0  0  0  0  0  0  0  0  0
  190.5260  175.7040  142.7430 C   0  0  0  0  0  0  0  0  0  0  0  0
  189.8670  177.8870  143.5880 C   0  0  0  0  0  3  0  0  0  0  0  0
  188.5310  177.4900  143.4600 C   0  0  0  0  0  0  0  0  0  0  0  0
  186.2180  177.5970  143.5390 C   0  0  0  0  0  0  0  0  0  0  0  0
  186.5510  176.0460  142.9390 S   0  0  0  0  0  0  0  0  0  0  0  0
  187.4190  178.2720  143.7790 C   0  0  0  0  0  3  0  0  0  0  0  0
  189.1930  175.2970  142.6100 C   0  0  0  0  0  3  0  0  0  0  0  0
  184.0550  178.1430  142.7820 O   0  0  0  0  0  0  0  0  0  0  0  0
  184.8500  178.1210  143.7570 C   0  0  0  0  0  0  0  0  0  0  0  0
  184.3880  178.5990  144.9910 O   0  0  0  0  0  0  0  0  0  0  0  0
  185.4910  178.8600  147.1010 C   0  0  0  0  0  1  0  0  0  0  0  0
  184.6270  177.9650  146.2390 C   0  0  0  0  0  2  0  0  0  0  0  0
  196.4870  176.1020  141.4660 C   0  0  0  0  0  3  0  0  0  0  0  0
  196.9130  176.0210  140.1400 C   0  0  0  0  0  3  0  0  0  0  0  0
  195.9230  173.8120  139.9480 C   0  0  0  0  0  0  0  0  0  0  0  0
  195.4990  173.9070  141.2810 C   0  0  0  0  0  3  0  0  0  0  0  0
  196.6430  174.8800  139.3780 C   0  0  0  0  0  0  0  0  0  0  0  0
  195.7850  175.0410  142.0560 C   0  0  0  0  0  0  0  0  0  0  0  0
  195.6160  172.6050  139.1610 C   0  0  0  0  0  3  0  0  0  0  0  0
  194.4340  172.0790  139.1610 N   0  0  0  0  0  2  0  0  0  0  0  0
  197.0940  174.8460  137.9540 C   0  0  0  0  0  2  0  0  0  0  0  0
  196.1270  175.5320  137.1180 N   0  0  0  0  0  2  0  0  0  0  0  0
  196.8780  176.1670  136.0400 C   0  0  0  0  0  2  0  0  0  0  0  0
  196.0250  176.4730  134.8890 N   0  0  0  0  0  0  0  0  0  0  0  0
  193.6150  176.6820  134.9450 C   0  0  1  0  0  3  0  0  0  0  0  0
  193.0820  176.8100  136.2280 O   0  0  0  0  0  1  0  0  0  0  0  0
  194.2170  177.9950  134.5200 C   0  0  0  0  0  2  0  0  0  0  0  0
  195.6720  177.8900  134.9050 C   0  0  0  0  0  2  0  0  0  0  0  0
  194.7800  175.7110  134.9810 C   0  0  0  0  0  2  0  0  0  0  0  0
  1  5  2  0  0  0  0
  1  2  1  0  0  0  0
  2  6  2  0  0  0  0
  4  3  2  0  0  0  0
  5  4  1  0  0  0  0
  6  3  1  0  0  0  0
  7  9  1  0  0  0  0
  7 13  1  0  0  0  0
  8  9  1  0  0  0  0
  8  5  1  1  0  0  0
 10 12  1  0  0  0  0
 10  8  1  0  0  0  0
 11 14  1  0  0  0  0
 12  7  2  0  0  0  0
 14 13  2  0  0  0  0
 14 17  1  0  0  0  0
 15 20  1  0  0  0  0
 15 17  2  0  0  0  0
 16 11  1  0  0  0  0
 16 15  1  0  0  0  0
 18 12  1  0  0  0  0
 18 11  2  0  0  0  0
 19 20  2  0  0  0  0
 20 21  1  0  0  0  0
 21 23  1  0  0  0  0
 23 22  1  0  0  0  0
 24 29  1  0  0  0  0
 25 24  2  0  0  0  0
 26 27  1  0  0  0  0
 27 29  2  0  0  0  0
 28 26  2  0  0  0  0
 28 25  1  0  0  0  0
 29  1  1  0  0  0  0
 30 26  1  0  0  0  0
 31 30  2  0  0  0  0
 32 28  1  0  0  0  0
 33 32  1  0  0  0  0
 34 33  1  0  0  0  0
 35 39  1  0  0  0  0
 35 40  1  0  0  0  0
 35 34  1  0  0  0  0
 36 40  1  0  0  0  0
 36 37  1  1  0  0  0
 38 39  1  0  0  0  0
 38 36  1  0  0  0  0
M  END
>  <MODEL>
6

>  <REMARK>
 VINA RESULT:      -6.9      4.157      7.580
  Name = 
  10 active torsions:
  status: ('A' for Active; 'I' for Inactive)
    1  A    between atoms: C_2  and  C_36
    2  A    between atoms: N_3  and  C_10
    3  A    between atoms: C_6  and  C_30
    4  A    between atoms: C_8  and  C_27
    5  A    between atoms: C_8  and  O_37
    6  A    between atoms: C_10  and  N_32
    7  A    between atoms: C_14  and  N_32
    8  A    between atoms: C_14  and  C_34
    9  A    between atoms: C_25  and  C_26
   10  A    between atoms: C_31  and  O_37
                            x       y       z     vdW  Elec       q    Type
                         _______ _______ _______ _____ _____    ______ ____

>  <TORSDO>
F 10

$$$$
=
 OpenBabel11042419263D

 40 45  0  0  1  0  0  0  0  0999 V2000
  188.6760  176.0390  145.2960 C   0  0  0  0  0  0  0  0  0  0  0  0
  188.2630  175.6400  146.5730 C   0  0  0  0  0  3  0  0  0  0  0  0
  190.4360  174.9480  147.1220 N   0  0  0  0  0  0  0  0  0  0  0  0
  190.9060  175.3220  145.9050 C   0  0  0  0  0  3  0  0  0  0  0  0
  190.0380  175.8710  144.9550 C   0  0  0  0  0  0  0  0  0  0  0  0
  189.1530  175.1030  147.4460 N   0  0  0  0  0  0  0  0  0  0  0  0
  192.1620  175.2100  142.2450 C   0  0  0  0  0  0  0  0  0  0  0  0
  190.5980  176.3520  143.6480 C   0  0  2  0  0  3  0  0  0  0  0  0
  190.8360  175.2370  142.7330 N   0  0  0  0  0  2  0  0  0  0  0  0
  192.1700  177.2830  143.9060 S   0  0  0  0  0  0  0  0  0  0  0  0
  194.7860  175.3690  141.4360 C   0  0  0  0  0  0  0  0  0  0  0  0
  192.9810  176.2060  142.7440 C   0  0  0  0  0  0  0  0  0  0  0  0
  192.6350  174.2600  141.3280 C   0  0  0  0  0  3  0  0  0  0  0  0
  193.9730  174.3600  140.9300 C   0  0  0  0  0  0  0  0  0  0  0  0
  195.9530  173.8690  139.8320 C   0  0  0  0  0  0  0  0  0  0  0  0
  196.3170  175.2300  140.7760 S   0  0  0  0  0  0  0  0  0  0  0  0
  194.6160  173.5090  140.0290 C   0  0  0  0  0  3  0  0  0  0  0  0
  194.3210  176.3160  142.3520 C   0  0  0  0  0  3  0  0  0  0  0  0
  197.7360  172.3760  139.4550 O   0  0  0  0  0  0  0  0  0  0  0  0
  196.9280  173.1950  138.9450 C   0  0  0  0  0  0  0  0  0  0  0  0
  197.0080  173.4200  137.5630 O   0  0  0  0  0  0  0  0  0  0  0  0
  197.4330  175.6610  136.8330 C   0  0  0  0  0  1  0  0  0  0  0  0
  196.4290  174.5310  136.8950 C   0  0  0  0  0  2  0  0  0  0  0  0
  187.3000  175.9130  143.2090 C   0  0  0  0  0  3  0  0  0  0  0  0
  186.3680  176.4500  142.3190 C   0  0  0  0  0  3  0  0  0  0  0  0
  186.1560  178.4220  143.7210 C   0  0  0  0  0  0  0  0  0  0  0  0
  187.0950  177.8710  144.6050 C   0  0  0  0  0  3  0  0  0  0  0  0
  185.7870  177.6980  142.5710 C   0  0  0  0  0  0  0  0  0  0  0  0
  187.6660  176.6120  144.3680 C   0  0  0  0  0  0  0  0  0  0  0  0
  185.5660  179.7430  144.0010 C   0  0  0  0  0  3  0  0  0  0  0  0
  184.5540  179.8780  144.7960 N   0  0  0  0  0  2  0  0  0  0  0  0
  184.8130  178.2470  141.5800 C   0  0  0  0  0  2  0  0  0  0  0  0
  183.4600  177.9190  141.9910 N   0  0  0  0  0  2  0  0  0  0  0  0
  182.5830  178.2960  140.8880 C   0  0  0  0  0  2  0  0  0  0  0  0
  181.1680  178.1640  141.2470 N   0  0  0  0  0  0  0  0  0  0  0  0
  179.4970  179.9000  141.0290 C   0  0  1  0  0  3  0  0  0  0  0  0
  179.8890  180.9720  140.2260 O   0  0  0  0  0  1  0  0  0  0  0  0
  179.1180  178.7330  140.1560 C   0  0  0  0  0  2  0  0  0  0  0  0
  180.3800  177.9150  140.0440 C   0  0  0  0  0  2  0  0  0  0  0  0
  180.6890  179.4160  141.8330 C   0  0  0  0  0  2  0  0  0  0  0  0
  1  2  1  0  0  0  0
  2  6  2  0  0  0  0
  3  6  1  0  0  0  0
  4  3  2  0  0  0  0
  5  1  2  0  0  0  0
  5  4  1  0  0  0  0
  7  9  1  0  0  0  0
  7 12  1  0  0  0  0
  8 10  1  0  0  0  0
  8  5  1  1  0  0  0
  9  8  1  0  0  0  0
 11 18  1  0  0  0  0
 12 10  1  0  0  0  0
 13  7  2  0  0  0  0
 14 13  1  0  0  0  0
 14 11  2  0  0  0  0
 15 17  2  0  0  0  0
 15 16  1  0  0  0  0
 16 11  1  0  0  0  0
 17 14  1  0  0  0  0
 18 12  2  0  0  0  0
 20 19  2  0  0  0  0
 20 15  1  0  0  0  0
 21 20  1  0  0  0  0
 22 23  1  0  0  0  0
 23 21  1  0  0  0  0
 24 29  1  0  0  0  0
 25 28  1  0  0  0  0
 25 24  2  0  0  0  0
 26 30  1  0  0  0  0
 26 27  1  0  0  0  0
 28 26  2  0  0  0  0
 29 27  2  0  0  0  0
 29  1  1  0  0  0  0
 30 31  2  0  0  0  0
 32 33  1  0  0  0  0
 32 28  1  0  0  0  0
 34 35  1  0  0  0  0
 34 33  1  0  0  0  0
 35 40  1  0  0  0  0
 36 37  1  6  0  0  0
 36 40  1  0  0  0  0
 38 36  1  0  0  0  0
 39 38  1  0  0  0  0
 39 35  1  0  0  0  0
M  END
>  <MODEL>
7

>  <REMARK>
 VINA RESULT:      -6.9      4.434      7.895
  Name = 
  10 active torsions:
  status: ('A' for Active; 'I' for Inactive)
    1  A    between atoms: C_2  and  C_36
    2  A    between atoms: N_3  and  C_10
    3  A    between atoms: C_6  and  C_30
    4  A    between atoms: C_8  and  C_27
    5  A    between atoms: C_8  and  O_37
    6  A    between atoms: C_10  and  N_32
    7  A    between atoms: C_14  and  N_32
    8  A    between atoms: C_14  and  C_34
    9  A    between atoms: C_25  and  C_26
   10  A    between atoms: C_31  and  O_37
                            x       y       z     vdW  Elec       q    Type
                         _______ _______ _______ _____ _____    ______ ____

>  <TORSDO>
F 10

$$$$
=
 OpenBabel11042419263D

 40 45  0  0  1  0  0  0  0  0999 V2000
  193.2390  174.7030  145.1150 C   0  0  0  0  0  0  0  0  0  0  0  0
  194.5390  175.1660  145.3500 C   0  0  0  0  0  3  0  0  0  0  0  0
  193.7600  176.7350  146.9100 N   0  0  0  0  0  0  0  0  0  0  0  0
  192.4770  176.3280  146.7390 C   0  0  0  0  0  3  0  0  0  0  0  0
  192.1790  175.3070  145.8320 C   0  0  0  0  0  0  0  0  0  0  0  0
  194.7610  176.1700  146.2360 N   0  0  0  0  0  0  0  0  0  0  0  0
  189.0530  175.6800  144.2900 C   0  0  0  0  0  0  0  0  0  0  0  0
  190.7630  174.8200  145.7220 C   0  0  2  0  0  3  0  0  0  0  0  0
  190.2640  174.9540  144.3550 N   0  0  0  0  0  2  0  0  0  0  0  0
  189.6570  175.7410  146.8760 S   0  0  0  0  0  0  0  0  0  0  0  0
  186.7110  177.1160  144.4190 C   0  0  0  0  0  0  0  0  0  0  0  0
  188.5950  176.1500  145.5070 C   0  0  0  0  0  0  0  0  0  0  0  0
  188.3530  175.9210  143.0980 C   0  0  0  0  0  3  0  0  0  0  0  0
  187.1630  176.6530  143.1880 C   0  0  0  0  0  0  0  0  0  0  0  0
  185.2180  177.7210  142.5240 C   0  0  0  0  0  0  0  0  0  0  0  0
  185.2740  177.9470  144.2040 S   0  0  0  0  0  0  0  0  0  0  0  0
  186.3350  176.9870  142.1140 C   0  0  0  0  0  3  0  0  0  0  0  0
  187.4050  176.8830  145.6080 C   0  0  0  0  0  3  0  0  0  0  0  0
  184.4290  178.6530  140.5090 O   0  0  0  0  0  0  0  0  0  0  0  0
  184.1320  178.2360  141.6590 C   0  0  0  0  0  0  0  0  0  0  0  0
  182.7860  178.2900  142.0480 O   0  0  0  0  0  0  0  0  0  0  0  0
  180.6330  179.3340  141.9450 C   0  0  0  0  0  1  0  0  0  0  0  0
  181.7100  178.6000  141.1760 C   0  0  0  0  0  2  0  0  0  0  0  0
  192.8700  173.9100  142.7700 C   0  0  0  0  0  3  0  0  0  0  0  0
  192.6610  172.8930  141.8370 C   0  0  0  0  0  3  0  0  0  0  0  0
  192.7680  171.2360  143.6090 C   0  0  0  0  0  0  0  0  0  0  0  0
  192.9740  172.2680  144.5360 C   0  0  0  0  0  3  0  0  0  0  0  0
  192.6170  171.5560  142.2460 C   0  0  0  0  0  0  0  0  0  0  0  0
  193.0400  173.6090  144.1290 C   0  0  0  0  0  0  0  0  0  0  0  0
  192.7130  169.8360  144.0650 C   0  0  0  0  0  3  0  0  0  0  0  0
  193.6170  169.3430  144.8490 N   0  0  0  0  0  2  0  0  0  0  0  0
  192.3670  170.5010  141.2190 C   0  0  0  0  0  2  0  0  0  0  0  0
  191.0910  170.7420  140.5710 N   0  0  0  0  0  2  0  0  0  0  0  0
  191.2710  170.4300  139.1570 C   0  0  0  0  0  2  0  0  0  0  0  0
  190.5900  171.3990  138.2940 N   0  0  0  0  0  0  0  0  0  0  0  0
  189.4870  173.4160  139.0490 C   0  0  1  0  0  3  0  0  0  0  0  0
  189.8090  173.7890  140.3540 O   0  0  0  0  0  1  0  0  0  0  0  0
  190.6220  173.7850  138.1290 C   0  0  0  0  0  2  0  0  0  0  0  0
  191.4690  172.5390  138.0510 C   0  0  0  0  0  2  0  0  0  0  0  0
  189.3950  171.9040  138.9690 C   0  0  0  0  0  2  0  0  0  0  0  0
  1  2  2  0  0  0  0
  1  5  1  0  0  0  0
  2  6  1  0  0  0  0
  4  3  1  0  0  0  0
  5  4  2  0  0  0  0
  6  3  2  0  0  0  0
  7  9  1  0  0  0  0
  7 12  1  0  0  0  0
  8  5  1  6  0  0  0
  8 10  1  0  0  0  0
  9  8  1  0  0  0  0
 11 18  1  0  0  0  0
 12 18  2  0  0  0  0
 12 10  1  0  0  0  0
 13 14  1  0  0  0  0
 13  7  2  0  0  0  0
 14 11  2  0  0  0  0
 15 16  1  0  0  0  0
 16 11  1  0  0  0  0
 17 15  2  0  0  0  0
 17 14  1  0  0  0  0
 19 20  2  0  0  0  0
 20 21  1  0  0  0  0
 20 15  1  0  0  0  0
 23 22  1  0  0  0  0
 23 21  1  0  0  0  0
 24 29  1  0  0  0  0
 25 28  1  0  0  0  0
 25 24  2  0  0  0  0
 26 30  1  0  0  0  0
 26 27  1  0  0  0  0
 28 26  2  0  0  0  0
 29 27  2  0  0  0  0
 29  1  1  0  0  0  0
 30 31  2  0  0  0  0
 32 28  1  0  0  0  0
 33 32  1  0  0  0  0
 34 33  1  0  0  0  0
 35 40  1  0  0  0  0
 35 34  1  0  0  0  0
 36 37  1  1  0  0  0
 38 36  1  0  0  0  0
 39 38  1  0  0  0  0
 39 35  1  0  0  0  0
 40 36  1  0  0  0  0
M  END
>  <MODEL>
8

>  <REMARK>
 VINA RESULT:      -6.9      3.019      5.868
  Name = 
  10 active torsions:
  status: ('A' for Active; 'I' for Inactive)
    1  A    between atoms: C_2  and  C_36
    2  A    between atoms: N_3  and  C_10
    3  A    between atoms: C_6  and  C_30
    4  A    between atoms: C_8  and  C_27
    5  A    between atoms: C_8  and  O_37
    6  A    between atoms: C_10  and  N_32
    7  A    between atoms: C_14  and  N_32
    8  A    between atoms: C_14  and  C_34
    9  A    between atoms: C_25  and  C_26
   10  A    between atoms: C_31  and  O_37
                            x       y       z     vdW  Elec       q    Type
                         _______ _______ _______ _____ _____    ______ ____

>  <TORSDO>
F 10

$$$$
=
 OpenBabel11042419263D

 40 45  0  0  1  0  0  0  0  0999 V2000
  187.3890  176.6390  144.2050 C   0  0  0  0  0  0  0  0  0  0  0  0
  186.2440  176.8280  143.4210 C   0  0  0  0  0  3  0  0  0  0  0  0
  185.1370  177.8940  145.1930 N   0  0  0  0  0  0  0  0  0  0  0  0
  186.2150  177.7550  146.0050 C   0  0  0  0  0  3  0  0  0  0  0  0
  187.3680  177.1170  145.5370 C   0  0  0  0  0  0  0  0  0  0  0  0
  185.1510  177.4450  143.9390 N   0  0  0  0  0  0  0  0  0  0  0  0
  190.8500  176.7660  145.7470 C   0  0  0  0  0  0  0  0  0  0  0  0
  188.5750  177.0470  146.4270 C   0  0  2  0  0  3  0  0  0  0  0  0
  189.7420  177.6430  145.7800 N   0  0  0  0  0  2  0  0  0  0  0  0
  188.9520  175.3010  146.8920 S   0  0  0  0  0  0  0  0  0  0  0  0
  192.8570  174.8860  145.8030 C   0  0  0  0  0  0  0  0  0  0  0  0
  190.6130  175.5160  146.2910 C   0  0  0  0  0  0  0  0  0  0  0  0
  192.0990  177.1090  145.2090 C   0  0  0  0  0  3  0  0  0  0  0  0
  193.1060  176.1380  145.2490 C   0  0  0  0  0  0  0  0  0  0  0  0
  195.1790  175.1480  144.9520 C   0  0  0  0  0  0  0  0  0  0  0  0
  194.2420  173.9530  145.7070 S   0  0  0  0  0  0  0  0  0  0  0  0
  194.4060  176.2980  144.7660 C   0  0  0  0  0  3  0  0  0  0  0  0
  191.6140  174.5370  146.3360 C   0  0  0  0  0  3  0  0  0  0  0  0
  197.2920  174.1410  145.2190 O   0  0  0  0  0  0  0  0  0  0  0  0
  196.5970  174.9640  144.5670 C   0  0  0  0  0  0  0  0  0  0  0  0
  197.2150  175.6570  143.5170 O   0  0  0  0  0  0  0  0  0  0  0  0
  196.4230  176.6340  141.4790 C   0  0  0  0  0  1  0  0  0  0  0  0
  196.9900  175.3960  142.1400 C   0  0  0  0  0  2  0  0  0  0  0  0
  189.4450  176.6590  142.7790 C   0  0  0  0  0  3  0  0  0  0  0  0
  190.5360  176.0170  142.1900 C   0  0  0  0  0  3  0  0  0  0  0  0
  189.8690  173.9220  143.2190 C   0  0  0  0  0  0  0  0  0  0  0  0
  188.7760  174.5790  143.8030 C   0  0  0  0  0  3  0  0  0  0  0  0
  190.7590  174.6540  142.4100 C   0  0  0  0  0  0  0  0  0  0  0  0
  188.5590  175.9490  143.6020 C   0  0  0  0  0  0  0  0  0  0  0  0
  190.0760  172.4830  143.4560 C   0  0  0  0  0  3  0  0  0  0  0  0
  189.7360  171.9240  144.5730 N   0  0  0  0  0  2  0  0  0  0  0  0
  191.9230  174.0010  141.7400 C   0  0  0  0  0  2  0  0  0  0  0  0
  191.6440  173.8380  140.3250 N   0  0  0  0  0  2  0  0  0  0  0  0
  191.4810  172.4070  140.0910 C   0  0  0  0  0  2  0  0  0  0  0  0
  190.3500  172.1260  139.2030 N   0  0  0  0  0  0  0  0  0  0  0  0
  188.2600  173.3450  139.1650 C   0  0  1  0  0  3  0  0  0  0  0  0
  188.3000  174.5680  139.8360 O   0  0  0  0  0  1  0  0  0  0  0  0
  188.9410  173.4850  137.8280 C   0  0  0  0  0  2  0  0  0  0  0  0
  190.3660  173.0600  138.0810 C   0  0  0  0  0  2  0  0  0  0  0  0
  189.0950  172.3310  139.9240 C   0  0  0  0  0  2  0  0  0  0  0  0
  1  5  1  0  0  0  0
  2  6  1  0  0  0  0
  2  1  2  0  0  0  0
  3  4  1  0  0  0  0
  5  4  2  0  0  0  0
  6  3  2  0  0  0  0
  7  9  1  0  0  0  0
  7 12  1  0  0  0  0
  8  5  1  6  0  0  0
  8 10  1  0  0  0  0
  9  8  1  0  0  0  0
 11 18  1  0  0  0  0
 12 18  2  0  0  0  0
 12 10  1  0  0  0  0
 13 14  1  0  0  0  0
 13  7  2  0  0  0  0
 14 11  2  0  0  0  0
 15 16  1  0  0  0  0
 16 11  1  0  0  0  0
 17 15  2  0  0  0  0
 17 14  1  0  0  0  0
 20 15  1  0  0  0  0
 20 19  2  0  0  0  0
 21 20  1  0  0  0  0
 22 23  1  0  0  0  0
 23 21  1  0  0  0  0
 24 29  1  0  0  0  0
 25 28  1  0  0  0  0
 25 24  2  0  0  0  0
 26 30  1  0  0  0  0
 26 27  1  0  0  0  0
 28 26  2  0  0  0  0
 29 27  2  0  0  0  0
 29  1  1  0  0  0  0
 30 31  2  0  0  0  0
 32 28  1  0  0  0  0
 33 32  1  0  0  0  0
 34 33  1  0  0  0  0
 35 40  1  0  0  0  0
 35 34  1  0  0  0  0
 36 37  1  1  0  0  0
 36 40  1  0  0  0  0
 38 39  1  0  0  0  0
 38 36  1  0  0  0  0
 39 35  1  0  0  0  0
M  END
>  <MODEL>
9

>  <REMARK>
 VINA RESULT:      -6.8      3.647      8.089
  Name = 
  10 active torsions:
  status: ('A' for Active; 'I' for Inactive)
    1  A    between atoms: C_2  and  C_36
    2  A    between atoms: N_3  and  C_10
    3  A    between atoms: C_6  and  C_30
    4  A    between atoms: C_8  and  C_27
    5  A    between atoms: C_8  and  O_37
    6  A    between atoms: C_10  and  N_32
    7  A    between atoms: C_14  and  N_32
    8  A    between atoms: C_14  and  C_34
    9  A    between atoms: C_25  and  C_26
   10  A    between atoms: C_31  and  O_37
                            x       y       z     vdW  Elec       q    Type
                         _______ _______ _______ _____ _____    ______ ____

>  <TORSDO>
F 10

$$$$
