=
 OpenBabel11042416003D

 52 56  0  0  1  0  0  0  0  0999 V2000
  190.2610  171.3680  141.5260 C   0  0  2  0  0  3  0  0  0  0  0  0
  190.7600  170.2440  142.1870 O   0  0  0  0  0  1  0  0  0  0  0  0
  190.4380  171.1990  140.1240 O   0  0  0  0  0  0  0  0  0  0  0  0
  188.6680  172.4780  139.0320 C   0  0  0  0  0  3  0  0  0  0  0  0
  188.2660  173.4320  138.0990 C   0  0  0  0  0  3  0  0  0  0  0  0
  190.0240  172.1440  139.1750 C   0  0  0  0  0  0  0  0  0  0  0  0
  190.9830  172.7700  138.3560 C   0  0  0  0  0  0  0  0  0  0  0  0
  191.4960  174.4080  136.6260 O   0  0  0  0  0  1  0  0  0  0  0  0
  189.2160  174.0680  137.3000 C   0  0  0  0  0  3  0  0  0  0  0  0
  190.5690  173.7480  137.4250 C   0  0  0  0  0  0  0  0  0  0  0  0
  192.4340  172.4110  138.5390 C   0  0  1  0  0  3  0  0  0  0  0  0
  192.9620  171.5830  137.3820 C   0  0  0  0  0  1  0  0  0  0  0  0
  193.3070  173.6390  138.7710 C   0  0  0  0  0  2  0  0  0  0  0  0
  197.1510  175.5100  139.8230 C   0  0  0  0  0  2  0  0  0  0  0  0
  197.1710  175.6710  141.3310 C   0  0  0  0  0  2  0  0  0  0  0  0
  196.3390  174.5240  141.8900 C   0  0  2  0  0  3  0  0  0  0  0  0
  196.5880  174.3280  137.2740 O   0  0  0  0  0  0  0  0  0  0  0  0
  194.4620  173.6260  137.8820 N   0  0  0  0  0  2  0  0  0  0  0  0
  196.0960  174.5600  139.5400 N   0  0  0  0  0  0  0  0  0  0  0  0
  195.5420  173.9500  140.7310 C   0  0  0  0  0  2  0  0  0  0  0  0
  195.7490  174.1700  138.2020 C   0  0  0  0  0  0  0  0  0  0  0  0
  195.4280  174.9910  143.0160 C   0  0  0  0  0  2  0  0  0  0  0  0
  196.1780  175.3590  144.1520 O   0  0  0  0  0  0  0  0  0  0  0  0
  194.9350  175.4530  146.2660 C   0  0  0  0  0  1  0  0  0  0  0  0
  195.7240  174.6170  145.2660 C   0  0  0  0  0  3  0  0  0  0  0  0
  196.8270  173.8060  145.9370 C   0  0  0  0  0  1  0  0  0  0  0  0
  190.9840  172.5530  141.9690 N   0  0  0  0  0  2  0  0  0  0  0  0
  188.6210  173.2870  142.5700 C   0  0  0  0  0  2  0  0  0  0  0  0
  189.4370  174.4480  142.0210 C   0  0  0  0  0  2  0  0  0  0  0  0
  190.1140  173.3590  142.8190 C   0  0  0  0  0  0  0  0  0  0  0  0
  190.6510  173.8780  144.1410 C   0  0  0  0  0  2  0  0  0  0  0  0
  192.0050  174.5310  143.9560 C   0  0  0  0  0  2  0  0  0  0  0  0
  191.9240  175.9680  144.4200 C   0  0  0  0  0  2  0  0  0  0  0  0
  191.8260  176.8880  143.2200 C   0  0  0  0  0  2  0  0  0  0  0  0
  190.6300  177.8080  143.3760 C   0  0  0  0  0  2  0  0  0  0  0  0
  188.6990  177.6120  144.9900 C   0  0  0  0  0  0  0  0  0  0  0  0
  184.9230  177.1490  142.9210 O   0  0  0  0  0  1  0  0  0  0  0  0
  185.6220  178.3520  143.0980 C   0  0  1  0  0  3  0  0  0  0  0  0
  189.1400  177.7320  147.3500 O   0  0  0  0  0  1  0  0  0  0  0  0
  184.6220  178.2490  145.9270 O   0  0  0  0  0  1  0  0  0  0  0  0
  186.8250  177.7770  146.7320 C   0  0  1  0  0  3  0  0  0  0  0  0
  188.2380  177.2580  146.3950 C   0  0  1  0  0  3  0  0  0  0  0  0
  190.0200  177.6330  144.7300 C   0  0  0  0  0  3  0  0  0  0  0  0
  185.8210  177.6240  145.5820 C   0  0  2  0  0  3  0  0  0  0  0  0
  187.6380  177.5630  143.9120 C   0  0  2  0  0  3  0  0  0  0  0  0
  186.3460  177.1240  147.8690 O   0  0  0  0  0  1  0  0  0  0  0  0
  187.9880  178.0900  142.6580 O   0  0  0  0  0  0  0  0  0  0  0  0
  186.4220  178.3070  144.3630 C   0  0  1  0  0  3  0  0  0  0  0  0
  186.7590  178.4910  142.0760 C   0  0  1  0  0  3  0  0  0  0  0  0
  185.7010  178.2760  139.9320 O   0  0  0  0  0  0  0  0  0  0  0  0
  186.5070  177.7930  140.7720 C   0  0  0  0  0  0  0  0  0  0  0  0
  187.2040  176.6330  140.4680 O   0  0  0  0  0  1  0  0  0  0  0  0
  1 27  1  0  0  0  0
  1  2  1  1  0  0  0
  3  1  1  0  0  0  0
  4  6  1  0  0  0  0
  5  4  2  0  0  0  0
  6  3  1  0  0  0  0
  7 11  1  0  0  0  0
  7  6  2  0  0  0  0
  8 10  1  0  0  0  0
  9 10  2  0  0  0  0
  9  5  1  0  0  0  0
 10  7  1  0  0  0  0
 11 12  1  6  0  0  0
 11 13  1  0  0  0  0
 14 15  1  0  0  0  0
 15 16  1  0  0  0  0
 16 22  1  1  0  0  0
 17 21  2  0  0  0  0
 18 21  1  0  0  0  0
 18 13  1  0  0  0  0
 19 14  1  0  0  0  0
 19 20  1  0  0  0  0
 20 16  1  0  0  0  0
 21 19  1  0  0  0  0
 22 23  1  0  0  0  0
 23 25  1  0  0  0  0
 25 26  1  0  0  0  0
 25 24  1  0  0  0  0
 27 30  1  0  0  0  0
 28 30  1  0  0  0  0
 29 28  1  0  0  0  0
 29 30  1  0  0  0  0
 30 31  1  0  0  0  0
 32 31  1  0  0  0  0
 32 33  1  0  0  0  0
 34 35  1  0  0  0  0
 34 33  1  0  0  0  0
 35 43  1  0  0  0  0
 36 42  1  0  0  0  0
 38 37  1  6  0  0  0
 38 48  1  0  0  0  0
 41 46  1  1  0  0  0
 42 41  1  0  0  0  0
 42 39  1  1  0  0  0
 43 36  2  0  0  0  0
 44 40  1  1  0  0  0
 44 41  1  0  0  0  0
 45 47  1  6  0  0  0
 45 48  1  0  0  0  0
 45 36  1  0  0  0  0
 48 44  1  0  0  0  0
 49 47  1  0  0  0  0
 49 38  1  0  0  0  0
 50 51  2  0  0  0  0
 51 49  1  0  0  0  0
 52 51  1  0  0  0  0
M  END
>  <MODEL>
1

>  <REMARK>
 VINA RESULT:      -7.1      0.000      0.000
  Name = 
  17 active torsions:
  status: ('A' for Active; 'I' for Inactive)
    1  A    between atoms: O_1  and  C_8
    2  A    between atoms: O_1  and  C_26
    3  A    between atoms: O_7  and  C_9
    4  A    between atoms: O_7  and  C_23
    5  A    between atoms: C_8  and  N_40
    6  A    between atoms: C_9  and  C_12
    7  A    between atoms: C_10  and  C_31
    8  A    between atoms: C_10  and  C_39
    9  A    between atoms: C_16  and  C_18
   10  A    between atoms: C_16  and  N_35
   11  A    between atoms: C_18  and  C_28
   12  A    between atoms: C_20  and  C_39
   13  A    between atoms: C_20  and  C_43
   14  A    between atoms: C_29  and  C_31
   15  A    between atoms: C_34  and  C_48
   16  A    between atoms: N_40  and  C_44
   17  A    between atoms: C_43  and  C_44
                            x       y       z     vdW  Elec       q    Type
                         _______ _______ _______ _____ _____    ______ ____

>  <TORSDO>
F 17

$$$$
=
 OpenBabel11042416003D

 52 56  0  0  1  0  0  0  0  0999 V2000
  194.6090  176.6560  145.6650 C   0  0  2  0  0  3  0  0  0  0  0  0
  194.9280  177.9230  146.1570 O   0  0  0  0  0  1  0  0  0  0  0  0
  195.6080  176.2540  144.7350 O   0  0  0  0  0  0  0  0  0  0  0  0
  196.3270  174.1830  145.8090 C   0  0  0  0  0  3  0  0  0  0  0  0
  196.8010  172.8750  145.7180 C   0  0  0  0  0  3  0  0  0  0  0  0
  196.1030  174.9450  144.6520 C   0  0  0  0  0  0  0  0  0  0  0  0
  196.3740  174.3860  143.3890 C   0  0  0  0  0  0  0  0  0  0  0  0
  197.0830  172.4630  142.0700 O   0  0  0  0  0  1  0  0  0  0  0  0
  197.0530  172.3120  144.4660 C   0  0  0  0  0  3  0  0  0  0  0  0
  196.8380  173.0540  143.3040 C   0  0  0  0  0  0  0  0  0  0  0  0
  196.1080  175.2140  142.1590 C   0  0  1  0  0  3  0  0  0  0  0  0
  197.3820  175.5120  141.3910 C   0  0  0  0  0  1  0  0  0  0  0  0
  195.0620  174.5770  141.2510 C   0  0  0  0  0  2  0  0  0  0  0  0
  192.5090  173.1910  137.9420 C   0  0  0  0  0  2  0  0  0  0  0  0
  191.3050  172.5080  138.5640 C   0  0  0  0  0  2  0  0  0  0  0  0
  191.0630  173.2060  139.8950 C   0  0  2  0  0  3  0  0  0  0  0  0
  194.6400  175.0810  137.6380 O   0  0  0  0  0  0  0  0  0  0  0  0
  195.1550  175.1180  139.9000 N   0  0  0  0  0  2  0  0  0  0  0  0
  193.1140  173.9690  139.0030 N   0  0  0  0  0  0  0  0  0  0  0  0
  192.3180  174.0010  140.2130 C   0  0  0  0  0  2  0  0  0  0  0  0
  194.3080  174.7400  138.8060 C   0  0  0  0  0  0  0  0  0  0  0  0
  190.7390  172.2090  140.9990 C   0  0  0  0  0  2  0  0  0  0  0  0
  191.7370  172.2180  141.9940 O   0  0  0  0  0  0  0  0  0  0  0  0
  192.9260  170.6900  143.5030 C   0  0  0  0  0  1  0  0  0  0  0  0
  191.6430  171.0310  142.7550 C   0  0  0  0  0  3  0  0  0  0  0  0
  191.1100  169.8470  141.9580 C   0  0  0  0  0  1  0  0  0  0  0  0
  193.3140  176.7070  144.9970 N   0  0  0  0  0  2  0  0  0  0  0  0
  192.8820  174.7210  146.5310 C   0  0  0  0  0  2  0  0  0  0  0  0
  192.2400  174.5150  145.1670 C   0  0  0  0  0  2  0  0  0  0  0  0
  192.3530  175.9050  145.7460 C   0  0  0  0  0  0  0  0  0  0  0  0
  190.9920  176.4960  146.0670 C   0  0  0  0  0  2  0  0  0  0  0  0
  189.9590  175.4050  146.2550 C   0  0  0  0  0  2  0  0  0  0  0  0
  189.0500  175.7830  147.4030 C   0  0  0  0  0  2  0  0  0  0  0  0
  187.6650  176.0970  146.8770 C   0  0  0  0  0  2  0  0  0  0  0  0
  187.5470  177.5830  146.6020 C   0  0  0  0  0  2  0  0  0  0  0  0
  186.0120  177.8550  144.6160 C   0  0  0  0  0  0  0  0  0  0  0  0
  187.8160  176.3510  140.9780 O   0  0  0  0  0  1  0  0  0  0  0  0
  188.0940  177.5830  141.5860 C   0  0  1  0  0  3  0  0  0  0  0  0
  183.8650  178.8880  144.9400 O   0  0  0  0  0  1  0  0  0  0  0  0
  185.4530  178.4710  140.4670 O   0  0  0  0  0  1  0  0  0  0  0  0
  184.4930  178.5140  142.6580 C   0  0  1  0  0  3  0  0  0  0  0  0
  184.5850  178.0200  144.1170 C   0  0  1  0  0  3  0  0  0  0  0  0
  186.2380  177.8830  145.9430 C   0  0  0  0  0  3  0  0  0  0  0  0
  185.5160  177.8600  141.7200 C   0  0  2  0  0  3  0  0  0  0  0  0
  187.0080  177.3210  143.6110 C   0  0  2  0  0  3  0  0  0  0  0  0
  183.2010  178.2990  142.1730 O   0  0  0  0  0  1  0  0  0  0  0  0
  188.3620  177.3640  143.9810 O   0  0  0  0  0  0  0  0  0  0  0  0
  186.8930  178.0810  142.3290 C   0  0  1  0  0  3  0  0  0  0  0  0
  189.0740  177.4180  142.7570 C   0  0  1  0  0  3  0  0  0  0  0  0
  191.2400  176.4630  142.3590 O   0  0  0  0  0  0  0  0  0  0  0  0
  190.0210  176.2650  142.6120 C   0  0  0  0  0  0  0  0  0  0  0  0
  189.5620  174.9700  142.8070 O   0  0  0  0  0  1  0  0  0  0  0  0
  1  2  1  6  0  0  0
  3  1  1  0  0  0  0
  5  4  1  0  0  0  0
  6  3  1  0  0  0  0
  6  4  2  0  0  0  0
  7  6  1  0  0  0  0
  8 10  1  0  0  0  0
  9  5  2  0  0  0  0
 10  7  2  0  0  0  0
 10  9  1  0  0  0  0
 11 12  1  6  0  0  0
 11  7  1  0  0  0  0
 13 11  1  0  0  0  0
 14 15  1  0  0  0  0
 14 19  1  0  0  0  0
 15 16  1  0  0  0  0
 16 20  1  0  0  0  0
 16 22  1  1  0  0  0
 17 21  2  0  0  0  0
 18 13  1  0  0  0  0
 19 20  1  0  0  0  0
 21 19  1  0  0  0  0
 21 18  1  0  0  0  0
 22 23  1  0  0  0  0
 23 25  1  0  0  0  0
 25 24  1  0  0  0  0
 26 25  1  0  0  0  0
 27  1  1  0  0  0  0
 27 30  1  0  0  0  0
 29 30  1  0  0  0  0
 29 28  1  0  0  0  0
 30 31  1  0  0  0  0
 30 28  1  0  0  0  0
 31 32  1  0  0  0  0
 32 33  1  0  0  0  0
 34 33  1  0  0  0  0
 35 34  1  0  0  0  0
 36 43  2  0  0  0  0
 38 37  1  1  0  0  0
 38 48  1  0  0  0  0
 38 49  1  0  0  0  0
 41 46  1  6  0  0  0
 41 42  1  0  0  0  0
 42 36  1  0  0  0  0
 42 39  1  1  0  0  0
 43 35  1  0  0  0  0
 44 40  1  6  0  0  0
 44 48  1  0  0  0  0
 44 41  1  0  0  0  0
 45 47  1  1  0  0  0
 45 36  1  0  0  0  0
 48 45  1  0  0  0  0
 49 47  1  0  0  0  0
 50 51  2  0  0  0  0
 51 49  1  0  0  0  0
 51 52  1  0  0  0  0
M  END
>  <MODEL>
2

>  <REMARK>
 VINA RESULT:      -6.9      1.933      5.876
  Name = 
  17 active torsions:
  status: ('A' for Active; 'I' for Inactive)
    1  A    between atoms: O_1  and  C_8
    2  A    between atoms: O_1  and  C_26
    3  A    between atoms: O_7  and  C_9
    4  A    between atoms: O_7  and  C_23
    5  A    between atoms: C_8  and  N_40
    6  A    between atoms: C_9  and  C_12
    7  A    between atoms: C_10  and  C_31
    8  A    between atoms: C_10  and  C_39
    9  A    between atoms: C_16  and  C_18
   10  A    between atoms: C_16  and  N_35
   11  A    between atoms: C_18  and  C_28
   12  A    between atoms: C_20  and  C_39
   13  A    between atoms: C_20  and  C_43
   14  A    between atoms: C_29  and  C_31
   15  A    between atoms: C_34  and  C_48
   16  A    between atoms: N_40  and  C_44
   17  A    between atoms: C_43  and  C_44
                            x       y       z     vdW  Elec       q    Type
                         _______ _______ _______ _____ _____    ______ ____

>  <TORSDO>
F 17

$$$$
=
 OpenBabel11042416003D

 52 56  0  0  1  0  0  0  0  0999 V2000
  193.1560  176.4860  143.8500 C   0  0  2  0  0  3  0  0  0  0  0  0
  192.1190  177.3410  143.4720 O   0  0  0  0  0  1  0  0  0  0  0  0
  193.7410  175.9210  142.6830 O   0  0  0  0  0  0  0  0  0  0  0  0
  196.0210  176.5200  143.3200 C   0  0  0  0  0  3  0  0  0  0  0  0
  197.3960  176.4330  143.1110 C   0  0  0  0  0  3  0  0  0  0  0  0
  195.1250  175.8550  142.4690 C   0  0  0  0  0  0  0  0  0  0  0  0
  195.6230  175.1050  141.3860 C   0  0  0  0  0  0  0  0  0  0  0  0
  197.5420  174.2480  140.1520 O   0  0  0  0  0  1  0  0  0  0  0  0
  197.8930  175.6760  142.0510 C   0  0  0  0  0  3  0  0  0  0  0  0
  197.0180  175.0080  141.1920 C   0  0  0  0  0  0  0  0  0  0  0  0
  194.6450  174.3820  140.4970 C   0  0  1  0  0  3  0  0  0  0  0  0
  194.6910  174.8970  139.0700 C   0  0  0  0  0  1  0  0  0  0  0  0
  194.8390  172.8710  140.5350 C   0  0  0  0  0  2  0  0  0  0  0  0
  191.5600  171.1110  142.8900 C   0  0  0  0  0  2  0  0  0  0  0  0
  190.5000  170.6540  141.9050 C   0  0  0  0  0  2  0  0  0  0  0  0
  191.2420  170.2700  140.6320 C   0  0  2  0  0  3  0  0  0  0  0  0
  194.1720  171.6530  143.9340 O   0  0  0  0  0  0  0  0  0  0  0  0
  195.0100  172.4090  141.9070 N   0  0  0  0  0  2  0  0  0  0  0  0
  192.7650  171.3100  142.1100 N   0  0  0  0  0  0  0  0  0  0  0  0
  192.6390  170.8560  140.7400 C   0  0  0  0  0  2  0  0  0  0  0  0
  193.9900  171.7780  142.6930 C   0  0  0  0  0  0  0  0  0  0  0  0
  190.5200  170.7750  139.3910 C   0  0  0  0  0  2  0  0  0  0  0  0
  189.8910  172.0110  139.6410 O   0  0  0  0  0  0  0  0  0  0  0  0
  191.1530  173.5450  138.1990 C   0  0  0  0  0  1  0  0  0  0  0  0
  189.8660  172.7670  138.4480 C   0  0  0  0  0  3  0  0  0  0  0  0
  188.6280  173.6480  138.3210 C   0  0  0  0  0  1  0  0  0  0  0  0
  192.6250  175.4220  144.6930 N   0  0  0  0  0  2  0  0  0  0  0  0
  193.9560  176.7740  146.3910 C   0  0  0  0  0  2  0  0  0  0  0  0
  194.2830  175.2920  146.4870 C   0  0  0  0  0  2  0  0  0  0  0  0
  192.8940  175.7340  146.0920 C   0  0  0  0  0  0  0  0  0  0  0  0
  191.8630  175.3620  147.1420 C   0  0  0  0  0  2  0  0  0  0  0  0
  191.1520  176.5940  147.6620 C   0  0  0  0  0  2  0  0  0  0  0  0
  190.2140  177.1080  146.5930 C   0  0  0  0  0  2  0  0  0  0  0  0
  188.8580  177.4010  147.1990 C   0  0  0  0  0  2  0  0  0  0  0  0
  187.8580  176.3550  146.7480 C   0  0  0  0  0  2  0  0  0  0  0  0
  186.3620  177.1410  144.8730 C   0  0  0  0  0  0  0  0  0  0  0  0
  187.5870  175.5110  141.0530 O   0  0  0  0  0  1  0  0  0  0  0  0
  188.1890  176.5890  141.7180 C   0  0  1  0  0  3  0  0  0  0  0  0
  184.5550  178.6450  145.3810 O   0  0  0  0  0  1  0  0  0  0  0  0
  185.8110  178.1800  140.8090 O   0  0  0  0  0  1  0  0  0  0  0  0
  184.9790  178.2970  143.0480 C   0  0  1  0  0  3  0  0  0  0  0  0
  185.0020  177.6890  144.4670 C   0  0  1  0  0  3  0  0  0  0  0  0
  186.6400  177.0150  146.1850 C   0  0  0  0  0  3  0  0  0  0  0  0
  185.7690  177.4820  142.0160 C   0  0  2  0  0  3  0  0  0  0  0  0
  187.1520  176.4540  143.7820 C   0  0  2  0  0  3  0  0  0  0  0  0
  183.6570  178.4430  142.6250 O   0  0  0  0  0  1  0  0  0  0  0  0
  188.4880  176.1350  144.0770 O   0  0  0  0  0  0  0  0  0  0  0  0
  187.1800  177.3110  142.5570 C   0  0  1  0  0  3  0  0  0  0  0  0
  189.1420  176.1020  142.8200 C   0  0  1  0  0  3  0  0  0  0  0  0
  189.3810  173.7410  143.1790 O   0  0  0  0  0  1  0  0  0  0  0  0
  189.7640  174.7640  142.5510 C   0  0  0  0  0  0  0  0  0  0  0  0
  190.7350  174.6430  141.5670 O   0  0  0  0  0  0  0  0  0  0  0  0
  1  2  1  6  0  0  0
  1 27  1  0  0  0  0
  3  1  1  0  0  0  0
  5  4  1  0  0  0  0
  6  3  1  0  0  0  0
  6  4  2  0  0  0  0
  7  6  1  0  0  0  0
  8 10  1  0  0  0  0
  9  5  2  0  0  0  0
 10  7  2  0  0  0  0
 10  9  1  0  0  0  0
 11 12  1  6  0  0  0
 11 13  1  0  0  0  0
 11  7  1  0  0  0  0
 13 18  1  0  0  0  0
 15 14  1  0  0  0  0
 16 22  1  6  0  0  0
 16 20  1  0  0  0  0
 16 15  1  0  0  0  0
 18 21  1  0  0  0  0
 19 21  1  0  0  0  0
 19 14  1  0  0  0  0
 20 19  1  0  0  0  0
 21 17  2  0  0  0  0
 22 23  1  0  0  0  0
 24 25  1  0  0  0  0
 25 23  1  0  0  0  0
 26 25  1  0  0  0  0
 27 30  1  0  0  0  0
 28 29  1  0  0  0  0
 30 28  1  0  0  0  0
 30 29  1  0  0  0  0
 30 31  1  0  0  0  0
 31 32  1  0  0  0  0
 33 34  1  0  0  0  0
 33 32  1  0  0  0  0
 35 34  1  0  0  0  0
 36 43  2  0  0  0  0
 38 37  1  1  0  0  0
 38 48  1  0  0  0  0
 38 49  1  0  0  0  0
 41 46  1  6  0  0  0
 41 42  1  0  0  0  0
 42 36  1  0  0  0  0
 42 39  1  1  0  0  0
 43 35  1  0  0  0  0
 44 40  1  6  0  0  0
 44 48  1  0  0  0  0
 44 41  1  0  0  0  0
 45 47  1  1  0  0  0
 45 36  1  0  0  0  0
 48 45  1  0  0  0  0
 49 47  1  0  0  0  0
 51 49  1  0  0  0  0
 51 50  1  0  0  0  0
 52 51  2  0  0  0  0
M  END
>  <MODEL>
3

>  <REMARK>
 VINA RESULT:      -6.9      2.085      6.093
  Name = 
  17 active torsions:
  status: ('A' for Active; 'I' for Inactive)
    1  A    between atoms: O_1  and  C_8
    2  A    between atoms: O_1  and  C_26
    3  A    between atoms: O_7  and  C_9
    4  A    between atoms: O_7  and  C_23
    5  A    between atoms: C_8  and  N_40
    6  A    between atoms: C_9  and  C_12
    7  A    between atoms: C_10  and  C_31
    8  A    between atoms: C_10  and  C_39
    9  A    between atoms: C_16  and  C_18
   10  A    between atoms: C_16  and  N_35
   11  A    between atoms: C_18  and  C_28
   12  A    between atoms: C_20  and  C_39
   13  A    between atoms: C_20  and  C_43
   14  A    between atoms: C_29  and  C_31
   15  A    between atoms: C_34  and  C_48
   16  A    between atoms: N_40  and  C_44
   17  A    between atoms: C_43  and  C_44
                            x       y       z     vdW  Elec       q    Type
                         _______ _______ _______ _____ _____    ______ ____

>  <TORSDO>
F 17

$$$$
=
 OpenBabel11042416003D

 52 56  0  0  1  0  0  0  0  0999 V2000
  191.0670  172.2300  144.5550 C   0  0  2  0  0  3  0  0  0  0  0  0
  189.6970  172.0270  144.7350 O   0  0  0  0  0  1  0  0  0  0  0  0
  191.3150  173.6230  144.4130 O   0  0  0  0  0  0  0  0  0  0  0  0
  190.4700  174.6140  146.4790 C   0  0  0  0  0  3  0  0  0  0  0  0
  190.6400  175.4680  147.5670 C   0  0  0  0  0  3  0  0  0  0  0  0
  191.4700  174.4940  145.5010 C   0  0  0  0  0  0  0  0  0  0  0  0
  192.6480  175.2570  145.6150 C   0  0  0  0  0  0  0  0  0  0  0  0
  193.9860  176.8470  146.8880 O   0  0  0  0  0  1  0  0  0  0  0  0
  191.8150  176.2100  147.6930 C   0  0  0  0  0  3  0  0  0  0  0  0
  192.8200  176.1070  146.7300 C   0  0  0  0  0  0  0  0  0  0  0  0
  193.7170  175.0990  144.5650 C   0  0  1  0  0  3  0  0  0  0  0  0
  194.0460  176.4180  143.8910 C   0  0  0  0  0  1  0  0  0  0  0  0
  194.9760  174.4420  145.1180 C   0  0  0  0  0  2  0  0  0  0  0  0
  195.1050  170.8390  142.5900 C   0  0  0  0  0  2  0  0  0  0  0  0
  195.9430  171.1790  141.3720 C   0  0  0  0  0  2  0  0  0  0  0  0
  196.9640  172.2100  141.8350 C   0  0  2  0  0  3  0  0  0  0  0  0
  194.2460  170.8490  145.3240 O   0  0  0  0  0  0  0  0  0  0  0  0
  194.6800  173.1080  145.6270 N   0  0  0  0  0  2  0  0  0  0  0  0
  195.3970  171.8640  143.5710 N   0  0  0  0  0  0  0  0  0  0  0  0
  196.4810  172.7400  143.1750 C   0  0  0  0  0  2  0  0  0  0  0  0
  194.7640  171.9010  144.8580 C   0  0  0  0  0  0  0  0  0  0  0  0
  197.1270  173.3300  140.8180 C   0  0  0  0  0  2  0  0  0  0  0  0
  195.9210  173.5630  140.1260 O   0  0  0  0  0  0  0  0  0  0  0  0
  197.1710  175.6670  139.9430 C   0  0  0  0  0  1  0  0  0  0  0  0
  195.8520  174.9260  139.7610 C   0  0  0  0  0  3  0  0  0  0  0  0
  194.6840  175.6630  140.4060 C   0  0  0  0  0  1  0  0  0  0  0  0
  191.5070  171.5310  143.3540 N   0  0  0  0  0  2  0  0  0  0  0  0
  191.9000  172.0270  140.8880 C   0  0  0  0  0  2  0  0  0  0  0  0
  192.3360  173.1940  141.7620 C   0  0  0  0  0  2  0  0  0  0  0  0
  191.1700  172.3300  142.1810 C   0  0  0  0  0  0  0  0  0  0  0  0
  189.8610  173.1000  142.1650 C   0  0  0  0  0  2  0  0  0  0  0  0
  190.0290  174.4360  141.4730 C   0  0  0  0  0  2  0  0  0  0  0  0
  189.4520  175.5210  142.3560 C   0  0  0  0  0  2  0  0  0  0  0  0
  190.5490  176.4810  142.7700 C   0  0  0  0  0  2  0  0  0  0  0  0
  189.9380  177.7990  143.2040 C   0  0  0  0  0  2  0  0  0  0  0  0
  188.1170  177.7910  144.9520 C   0  0  0  0  0  0  0  0  0  0  0  0
  184.1760  177.6820  143.1600 O   0  0  0  0  0  1  0  0  0  0  0  0
  184.9960  178.8140  143.2750 C   0  0  1  0  0  3  0  0  0  0  0  0
  188.7340  177.8770  147.2740 O   0  0  0  0  0  1  0  0  0  0  0  0
  184.1960  178.8140  146.1690 O   0  0  0  0  0  1  0  0  0  0  0  0
  186.3960  178.1390  146.8210 C   0  0  1  0  0  3  0  0  0  0  0  0
  187.7260  177.4870  146.3900 C   0  0  1  0  0  3  0  0  0  0  0  0
  189.4120  177.6870  144.6000 C   0  0  0  0  0  3  0  0  0  0  0  0
  185.3030  178.0780  145.7460 C   0  0  2  0  0  3  0  0  0  0  0  0
  186.9820  177.8400  143.9530 C   0  0  2  0  0  3  0  0  0  0  0  0
  185.9400  177.5370  147.9950 O   0  0  0  0  0  1  0  0  0  0  0  0
  187.2900  178.3280  142.6720 O   0  0  0  0  0  0  0  0  0  0  0  0
  185.8770  178.6980  144.4810 C   0  0  1  0  0  3  0  0  0  0  0  0
  186.0660  178.8420  142.1740 C   0  0  1  0  0  3  0  0  0  0  0  0
  186.2870  177.1620  140.4750 O   0  0  0  0  0  1  0  0  0  0  0  0
  185.6570  178.1680  140.8980 C   0  0  0  0  0  0  0  0  0  0  0  0
  184.5460  178.6250  140.2040 O   0  0  0  0  0  0  0  0  0  0  0  0
  1  2  1  6  0  0  0
  3  1  1  0  0  0  0
  3  6  1  0  0  0  0
  4  5  1  0  0  0  0
  5  9  2  0  0  0  0
  6  7  1  0  0  0  0
  6  4  2  0  0  0  0
  7 10  2  0  0  0  0
 10  8  1  0  0  0  0
 10  9  1  0  0  0  0
 11 12  1  1  0  0  0
 11 13  1  0  0  0  0
 11  7  1  0  0  0  0
 13 18  1  0  0  0  0
 14 19  1  0  0  0  0
 15 16  1  0  0  0  0
 15 14  1  0  0  0  0
 16 22  1  6  0  0  0
 16 20  1  0  0  0  0
 19 21  1  0  0  0  0
 20 19  1  0  0  0  0
 21 17  2  0  0  0  0
 21 18  1  0  0  0  0
 23 22  1  0  0  0  0
 25 24  1  0  0  0  0
 25 23  1  0  0  0  0
 25 26  1  0  0  0  0
 27  1  1  0  0  0  0
 28 29  1  0  0  0  0
 28 30  1  0  0  0  0
 29 30  1  0  0  0  0
 30 27  1  0  0  0  0
 31 30  1  0  0  0  0
 32 31  1  0  0  0  0
 32 33  1  0  0  0  0
 33 34  1  0  0  0  0
 34 35  1  0  0  0  0
 35 43  1  0  0  0  0
 36 42  1  0  0  0  0
 38 37  1  6  0  0  0
 38 48  1  0  0  0  0
 41 46  1  1  0  0  0
 42 41  1  0  0  0  0
 42 39  1  1  0  0  0
 43 36  2  0  0  0  0
 44 40  1  1  0  0  0
 44 41  1  0  0  0  0
 45 47  1  6  0  0  0
 45 48  1  0  0  0  0
 45 36  1  0  0  0  0
 48 44  1  0  0  0  0
 49 47  1  0  0  0  0
 49 38  1  0  0  0  0
 50 51  1  0  0  0  0
 51 49  1  0  0  0  0
 52 51  2  0  0  0  0
M  END
>  <MODEL>
4

>  <REMARK>
 VINA RESULT:      -6.8      2.425      5.036
  Name = 
  17 active torsions:
  status: ('A' for Active; 'I' for Inactive)
    1  A    between atoms: O_1  and  C_8
    2  A    between atoms: O_1  and  C_26
    3  A    between atoms: O_7  and  C_9
    4  A    between atoms: O_7  and  C_23
    5  A    between atoms: C_8  and  N_40
    6  A    between atoms: C_9  and  C_12
    7  A    between atoms: C_10  and  C_31
    8  A    between atoms: C_10  and  C_39
    9  A    between atoms: C_16  and  C_18
   10  A    between atoms: C_16  and  N_35
   11  A    between atoms: C_18  and  C_28
   12  A    between atoms: C_20  and  C_39
   13  A    between atoms: C_20  and  C_43
   14  A    between atoms: C_29  and  C_31
   15  A    between atoms: C_34  and  C_48
   16  A    between atoms: N_40  and  C_44
   17  A    between atoms: C_43  and  C_44
                            x       y       z     vdW  Elec       q    Type
                         _______ _______ _______ _____ _____    ______ ____

>  <TORSDO>
F 17

$$$$
=
 OpenBabel11042416003D

 52 56  0  0  1  0  0  0  0  0999 V2000
  190.1080  172.4130  143.7760 C   0  0  2  0  0  3  0  0  0  0  0  0
  189.4110  171.9120  144.8770 O   0  0  0  0  0  1  0  0  0  0  0  0
  190.2830  173.8150  143.9370 O   0  0  0  0  0  0  0  0  0  0  0  0
  192.5960  174.2820  144.5660 C   0  0  0  0  0  3  0  0  0  0  0  0
  193.5190  174.8620  145.4340 C   0  0  0  0  0  3  0  0  0  0  0  0
  191.2190  174.3800  144.8160 C   0  0  0  0  0  0  0  0  0  0  0  0
  190.7680  175.0580  145.9640 C   0  0  0  0  0  0  0  0  0  0  0  0
  191.2940  176.3640  147.9540 O   0  0  0  0  0  1  0  0  0  0  0  0
  193.0750  175.5520  146.5630 C   0  0  0  0  0  3  0  0  0  0  0  0
  191.7090  175.6580  146.8300 C   0  0  0  0  0  0  0  0  0  0  0  0
  189.2850  175.1690  146.2040 C   0  0  1  0  0  3  0  0  0  0  0  0
  188.8950  174.6630  147.5810 C   0  0  0  0  0  1  0  0  0  0  0  0
  188.7680  176.5850  145.9790 C   0  0  0  0  0  2  0  0  0  0  0  0
  185.4180  179.4130  145.5730 C   0  0  0  0  0  2  0  0  0  0  0  0
  184.9990  179.4010  144.1140 C   0  0  0  0  0  2  0  0  0  0  0  0
  185.2980  178.0000  143.5990 C   0  0  2  0  0  3  0  0  0  0  0  0
  186.3740  178.4100  148.0800 O   0  0  0  0  0  0  0  0  0  0  0  0
  187.9650  177.0260  147.1120 N   0  0  0  0  0  2  0  0  0  0  0  0
  186.2210  178.2230  145.7630 N   0  0  0  0  0  0  0  0  0  0  0  0
  186.2200  177.3430  144.6130 C   0  0  0  0  0  2  0  0  0  0  0  0
  186.8310  177.8990  147.0220 C   0  0  0  0  0  0  0  0  0  0  0  0
  185.9270  178.0350  142.2140 C   0  0  0  0  0  2  0  0  0  0  0  0
  186.3260  176.7460  141.8080 O   0  0  0  0  0  0  0  0  0  0  0  0
  188.3500  175.4840  141.2300 C   0  0  0  0  0  1  0  0  0  0  0  0
  187.6150  176.8190  141.2340 C   0  0  0  0  0  3  0  0  0  0  0  0
  188.4670  177.9430  141.8120 C   0  0  0  0  0  1  0  0  0  0  0  0
  189.3460  172.1540  142.5600 N   0  0  0  0  0  2  0  0  0  0  0  0
  190.8100  170.1650  141.9400 C   0  0  0  0  0  2  0  0  0  0  0  0
  191.6340  171.4370  142.0750 C   0  0  0  0  0  2  0  0  0  0  0  0
  190.2100  171.5090  141.5780 C   0  0  0  0  0  0  0  0  0  0  0  0
  190.1390  171.9550  140.1290 C   0  0  0  0  0  2  0  0  0  0  0  0
  191.2110  171.2790  139.3010 C   0  0  0  0  0  2  0  0  0  0  0  0
  191.6820  172.2370  138.2290 C   0  0  0  0  0  2  0  0  0  0  0  0
  192.2360  173.4920  138.8720 C   0  0  0  0  0  2  0  0  0  0  0  0
  193.6160  173.2120  139.4340 C   0  0  0  0  0  2  0  0  0  0  0  0
  195.0590  174.4980  141.0580 C   0  0  0  0  0  0  0  0  0  0  0  0
  197.7360  171.8850  143.2400 O   0  0  0  0  0  1  0  0  0  0  0  0
  196.3710  172.0710  143.5040 C   0  0  1  0  0  3  0  0  0  0  0  0
  194.7790  176.8800  141.2280 O   0  0  0  0  0  1  0  0  0  0  0  0
  197.1980  174.6960  144.7030 O   0  0  0  0  0  1  0  0  0  0  0  0
  196.1920  175.8890  142.8900 C   0  0  1  0  0  3  0  0  0  0  0  0
  195.6800  175.8340  141.4360 C   0  0  1  0  0  3  0  0  0  0  0  0
  194.1920  174.4580  140.0280 C   0  0  0  0  0  3  0  0  0  0  0  0
  196.9030  174.6070  143.3430 C   0  0  2  0  0  3  0  0  0  0  0  0
  195.7290  173.2690  141.6320 C   0  0  2  0  0  3  0  0  0  0  0  0
  197.0450  176.9840  143.0440 O   0  0  0  0  0  1  0  0  0  0  0  0
  195.0510  172.0490  141.4750 O   0  0  0  0  0  0  0  0  0  0  0  0
  195.9470  173.4500  143.1010 C   0  0  1  0  0  3  0  0  0  0  0  0
  195.5000  171.2410  142.5500 C   0  0  1  0  0  3  0  0  0  0  0  0
  196.2550  168.9790  142.8240 O   0  0  0  0  0  1  0  0  0  0  0  0
  196.1470  169.9780  142.0640 C   0  0  0  0  0  0  0  0  0  0  0  0
  196.5860  169.8920  140.7500 O   0  0  0  0  0  0  0  0  0  0  0  0
  1  3  1  0  0  0  0
  1  2  1  1  0  0  0
  3  6  1  0  0  0  0
  4  6  2  0  0  0  0
  4  5  1  0  0  0  0
  5  9  2  0  0  0  0
  6  7  1  0  0  0  0
  7 11  1  0  0  0  0
  7 10  2  0  0  0  0
  9 10  1  0  0  0  0
 10  8  1  0  0  0  0
 11 12  1  1  0  0  0
 13 11  1  0  0  0  0
 13 18  1  0  0  0  0
 14 19  1  0  0  0  0
 15 14  1  0  0  0  0
 16 22  1  6  0  0  0
 16 15  1  0  0  0  0
 16 20  1  0  0  0  0
 19 21  1  0  0  0  0
 20 19  1  0  0  0  0
 21 18  1  0  0  0  0
 21 17  2  0  0  0  0
 23 22  1  0  0  0  0
 24 25  1  0  0  0  0
 25 23  1  0  0  0  0
 25 26  1  0  0  0  0
 27  1  1  0  0  0  0
 28 29  1  0  0  0  0
 30 28  1  0  0  0  0
 30 29  1  0  0  0  0
 30 27  1  0  0  0  0
 31 30  1  0  0  0  0
 32 31  1  0  0  0  0
 33 34  1  0  0  0  0
 33 32  1  0  0  0  0
 34 35  1  0  0  0  0
 35 43  1  0  0  0  0
 36 42  1  0  0  0  0
 38 37  1  6  0  0  0
 41 46  1  6  0  0  0
 41 44  1  0  0  0  0
 42 39  1  1  0  0  0
 42 41  1  0  0  0  0
 43 36  2  0  0  0  0
 44 40  1  1  0  0  0
 45 36  1  1  0  0  0
 45 48  1  0  0  0  0
 47 45  1  0  0  0  0
 47 49  1  0  0  0  0
 48 44  1  0  0  0  0
 48 38  1  0  0  0  0
 49 38  1  0  0  0  0
 51 49  1  0  0  0  0
 51 50  1  0  0  0  0
 52 51  2  0  0  0  0
M  END
>  <MODEL>
5

>  <REMARK>
 VINA RESULT:      -6.7      2.766      9.767
  Name = 
  17 active torsions:
  status: ('A' for Active; 'I' for Inactive)
    1  A    between atoms: O_1  and  C_8
    2  A    between atoms: O_1  and  C_26
    3  A    between atoms: O_7  and  C_9
    4  A    between atoms: O_7  and  C_23
    5  A    between atoms: C_8  and  N_40
    6  A    between atoms: C_9  and  C_12
    7  A    between atoms: C_10  and  C_31
    8  A    between atoms: C_10  and  C_39
    9  A    between atoms: C_16  and  C_18
   10  A    between atoms: C_16  and  N_35
   11  A    between atoms: C_18  and  C_28
   12  A    between atoms: C_20  and  C_39
   13  A    between atoms: C_20  and  C_43
   14  A    between atoms: C_29  and  C_31
   15  A    between atoms: C_34  and  C_48
   16  A    between atoms: N_40  and  C_44
   17  A    between atoms: C_43  and  C_44
                            x       y       z     vdW  Elec       q    Type
                         _______ _______ _______ _____ _____    ______ ____

>  <TORSDO>
F 17

$$$$
=
 OpenBabel11042416003D

 52 56  0  0  1  0  0  0  0  0999 V2000
  195.3540  176.0440  143.6410 C   0  0  2  0  0  3  0  0  0  0  0  0
  195.1520  176.4660  142.3260 O   0  0  0  0  0  1  0  0  0  0  0  0
  196.5530  175.2810  143.7040 O   0  0  0  0  0  0  0  0  0  0  0  0
  196.8030  173.8260  145.6490 C   0  0  0  0  0  3  0  0  0  0  0  0
  196.8530  172.5480  146.2040 C   0  0  0  0  0  3  0  0  0  0  0  0
  196.6240  173.9990  144.2680 C   0  0  0  0  0  0  0  0  0  0  0  0
  196.5090  172.8700  143.4350 C   0  0  0  0  0  0  0  0  0  0  0  0
  196.3990  170.4450  143.2170 O   0  0  0  0  0  1  0  0  0  0  0  0
  196.7200  171.4270  145.3850 C   0  0  0  0  0  3  0  0  0  0  0  0
  196.5430  171.5790  144.0080 C   0  0  0  0  0  0  0  0  0  0  0  0
  196.2980  173.0780  141.9590 C   0  0  1  0  0  3  0  0  0  0  0  0
  197.3230  172.3270  141.1290 C   0  0  0  0  0  1  0  0  0  0  0  0
  194.8810  172.7220  141.5230 C   0  0  0  0  0  2  0  0  0  0  0  0
  191.2910  170.9340  139.7060 C   0  0  0  0  0  2  0  0  0  0  0  0
  190.0890  171.5130  140.4290 C   0  0  0  0  0  2  0  0  0  0  0  0
  190.4940  172.9150  140.8680 C   0  0  2  0  0  3  0  0  0  0  0  0
  193.9020  170.8330  138.5310 O   0  0  0  0  0  0  0  0  0  0  0  0
  194.8870  172.1040  140.2030 N   0  0  0  0  0  2  0  0  0  0  0  0
  192.4040  171.8040  140.0280 N   0  0  0  0  0  0  0  0  0  0  0  0
  192.0060  172.9960  140.7480 C   0  0  0  0  0  2  0  0  0  0  0  0
  193.7340  171.5610  139.5470 C   0  0  0  0  0  0  0  0  0  0  0  0
  190.0300  173.2120  142.2860 C   0  0  0  0  0  2  0  0  0  0  0  0
  191.1060  173.6380  143.0900 O   0  0  0  0  0  0  0  0  0  0  0  0
  192.2490  171.8130  144.2680 C   0  0  0  0  0  1  0  0  0  0  0  0
  191.1410  172.8600  144.2680 C   0  0  0  0  0  3  0  0  0  0  0  0
  189.7870  172.2640  144.6350 C   0  0  0  0  0  1  0  0  0  0  0  0
  194.2290  175.2180  144.0640 N   0  0  0  0  0  2  0  0  0  0  0  0
  194.2190  176.5820  146.2140 C   0  0  0  0  0  2  0  0  0  0  0  0
  193.5380  175.2360  146.4110 C   0  0  0  0  0  2  0  0  0  0  0  0
  193.4590  175.9350  145.0740 C   0  0  0  0  0  0  0  0  0  0  0  0
  192.0410  176.3700  144.7480 C   0  0  0  0  0  2  0  0  0  0  0  0
  192.0240  177.3060  143.5570 C   0  0  0  0  0  2  0  0  0  0  0  0
  190.8070  178.1990  143.6530 C   0  0  0  0  0  2  0  0  0  0  0  0
  190.0850  178.2260  142.3220 C   0  0  0  0  0  2  0  0  0  0  0  0
  189.0190  177.1480  142.2960 C   0  0  0  0  0  2  0  0  0  0  0  0
  186.8580  177.8880  143.3710 C   0  0  0  0  0  0  0  0  0  0  0  0
  187.0600  177.6730  147.6910 O   0  0  0  0  0  1  0  0  0  0  0  0
  186.8590  176.5910  146.8220 C   0  0  1  0  0  3  0  0  0  0  0  0
  185.0280  178.5550  141.9610 O   0  0  0  0  0  1  0  0  0  0  0  0
  184.0600  177.6390  146.5350 O   0  0  0  0  0  1  0  0  0  0  0  0
  184.5050  178.3300  144.2880 C   0  0  1  0  0  3  0  0  0  0  0  0
  185.5750  178.6940  143.2380 C   0  0  1  0  0  3  0  0  0  0  0  0
  187.6580  177.7680  142.2940 C   0  0  0  0  0  3  0  0  0  0  0  0
  185.0730  178.1020  145.6950 C   0  0  2  0  0  3  0  0  0  0  0  0
  187.3090  177.5860  144.7830 C   0  0  2  0  0  3  0  0  0  0  0  0
  183.5300  179.3290  144.3270 O   0  0  0  0  0  1  0  0  0  0  0  0
  188.3620  176.6690  144.9260 O   0  0  0  0  0  0  0  0  0  0  0  0
  186.1620  177.0460  145.5770 C   0  0  1  0  0  3  0  0  0  0  0  0
  188.1850  176.1080  146.2170 C   0  0  1  0  0  3  0  0  0  0  0  0
  189.8370  177.4970  147.2670 O   0  0  0  0  0  0  0  0  0  0  0  0
  189.3820  176.3350  147.0910 C   0  0  0  0  0  0  0  0  0  0  0  0
  189.9640  175.2630  147.7510 O   0  0  0  0  0  1  0  0  0  0  0  0
  1  2  1  6  0  0  0
  1  3  1  0  0  0  0
  1 27  1  0  0  0  0
  3  6  1  0  0  0  0
  4  5  1  0  0  0  0
  6  4  2  0  0  0  0
  7 10  2  0  0  0  0
  7  6  1  0  0  0  0
  8 10  1  0  0  0  0
  9  5  2  0  0  0  0
 10  9  1  0  0  0  0
 11 12  1  6  0  0  0
 11  7  1  0  0  0  0
 13 11  1  0  0  0  0
 14 19  1  0  0  0  0
 14 15  1  0  0  0  0
 15 16  1  0  0  0  0
 16 22  1  1  0  0  0
 17 21  2  0  0  0  0
 18 13  1  0  0  0  0
 19 20  1  0  0  0  0
 20 16  1  0  0  0  0
 21 19  1  0  0  0  0
 21 18  1  0  0  0  0
 22 23  1  0  0  0  0
 23 25  1  0  0  0  0
 25 24  1  0  0  0  0
 25 26  1  0  0  0  0
 27 30  1  0  0  0  0
 28 29  1  0  0  0  0
 30 28  1  0  0  0  0
 30 29  1  0  0  0  0
 31 30  1  0  0  0  0
 32 33  1  0  0  0  0
 32 31  1  0  0  0  0
 34 33  1  0  0  0  0
 35 34  1  0  0  0  0
 38 37  1  1  0  0  0
 41 46  1  1  0  0  0
 41 44  1  0  0  0  0
 42 39  1  6  0  0  0
 42 36  1  0  0  0  0
 42 41  1  0  0  0  0
 43 35  1  0  0  0  0
 43 36  2  0  0  0  0
 44 40  1  1  0  0  0
 45 36  1  6  0  0  0
 45 47  1  0  0  0  0
 45 48  1  0  0  0  0
 47 49  1  0  0  0  0
 48 44  1  0  0  0  0
 48 38  1  0  0  0  0
 49 38  1  0  0  0  0
 49 51  1  0  0  0  0
 51 50  2  0  0  0  0
 51 52  1  0  0  0  0
M  END
>  <MODEL>
6

>  <REMARK>
 VINA RESULT:      -6.7      2.216      6.026
  Name = 
  17 active torsions:
  status: ('A' for Active; 'I' for Inactive)
    1  A    between atoms: O_1  and  C_8
    2  A    between atoms: O_1  and  C_26
    3  A    between atoms: O_7  and  C_9
    4  A    between atoms: O_7  and  C_23
    5  A    between atoms: C_8  and  N_40
    6  A    between atoms: C_9  and  C_12
    7  A    between atoms: C_10  and  C_31
    8  A    between atoms: C_10  and  C_39
    9  A    between atoms: C_16  and  C_18
   10  A    between atoms: C_16  and  N_35
   11  A    between atoms: C_18  and  C_28
   12  A    between atoms: C_20  and  C_39
   13  A    between atoms: C_20  and  C_43
   14  A    between atoms: C_29  and  C_31
   15  A    between atoms: C_34  and  C_48
   16  A    between atoms: N_40  and  C_44
   17  A    between atoms: C_43  and  C_44
                            x       y       z     vdW  Elec       q    Type
                         _______ _______ _______ _____ _____    ______ ____

>  <TORSDO>
F 17

$$$$
=
 OpenBabel11042416003D

 52 56  0  0  1  0  0  0  0  0999 V2000
  191.0610  176.2690  146.6190 C   0  0  2  0  0  3  0  0  0  0  0  0
  190.9610  176.8250  147.8960 O   0  0  0  0  0  1  0  0  0  0  0  0
  189.8360  175.6220  146.2970 O   0  0  0  0  0  0  0  0  0  0  0  0
  189.8160  173.2490  145.7240 C   0  0  0  0  0  3  0  0  0  0  0  0
  189.6910  172.2360  144.7740 C   0  0  0  0  0  3  0  0  0  0  0  0
  189.7310  174.5980  145.3450 C   0  0  0  0  0  0  0  0  0  0  0  0
  189.5320  174.9290  143.9920 C   0  0  0  0  0  0  0  0  0  0  0  0
  189.1600  174.1900  141.6990 O   0  0  0  0  0  1  0  0  0  0  0  0
  189.4760  172.5600  143.4340 C   0  0  0  0  0  3  0  0  0  0  0  0
  189.3900  173.8960  143.0380 C   0  0  0  0  0  0  0  0  0  0  0  0
  189.4240  176.3820  143.6100 C   0  0  1  0  0  3  0  0  0  0  0  0
  190.2580  176.7090  142.3850 C   0  0  0  0  0  1  0  0  0  0  0  0
  187.9770  176.8210  143.4160 C   0  0  0  0  0  2  0  0  0  0  0  0
  184.0820  178.2930  141.9850 C   0  0  0  0  0  2  0  0  0  0  0  0
  183.3250  178.8010  143.1980 C   0  0  0  0  0  2  0  0  0  0  0  0
  184.3790  179.3090  144.1730 C   0  0  2  0  0  3  0  0  0  0  0  0
  186.3120  177.7360  140.2740 O   0  0  0  0  0  0  0  0  0  0  0  0
  187.7280  177.1720  142.0240 N   0  0  0  0  0  2  0  0  0  0  0  0
  185.4670  178.1900  142.3980 N   0  0  0  0  0  0  0  0  0  0  0  0
  185.7150  178.7530  143.7090 C   0  0  0  0  0  2  0  0  0  0  0  0
  186.4970  177.7090  141.5220 C   0  0  0  0  0  0  0  0  0  0  0  0
  184.0660  178.8890  145.6020 C   0  0  0  0  0  2  0  0  0  0  0  0
  185.1310  179.2130  146.4670 O   0  0  0  0  0  0  0  0  0  0  0  0
  187.0700  177.8610  147.1270 C   0  0  0  0  0  1  0  0  0  0  0  0
  185.5570  178.0430  147.1350 C   0  0  0  0  0  3  0  0  0  0  0  0
  184.8240  176.7880  146.6750 C   0  0  0  0  0  1  0  0  0  0  0  0
  192.1460  175.2960  146.5960 N   0  0  0  0  0  2  0  0  0  0  0  0
  192.9800  176.9840  144.8820 C   0  0  0  0  0  2  0  0  0  0  0  0
  193.0990  175.5610  144.3580 C   0  0  0  0  0  2  0  0  0  0  0  0
  193.2650  175.8390  145.8330 C   0  0  0  0  0  0  0  0  0  0  0  0
  194.6810  175.5630  146.3040 C   0  0  0  0  0  2  0  0  0  0  0  0
  195.2960  174.4180  145.5270 C   0  0  0  0  0  2  0  0  0  0  0  0
  196.6290  174.0630  146.1480 C   0  0  0  0  0  2  0  0  0  0  0  0
  196.8150  172.5600  146.1370 C   0  0  0  0  0  2  0  0  0  0  0  0
  196.8270  172.0560  144.7070 C   0  0  0  0  0  2  0  0  0  0  0  0
  194.7660  171.3440  143.4340 C   0  0  0  0  0  0  0  0  0  0  0  0
  194.4750  173.3500  139.6070 O   0  0  0  0  0  1  0  0  0  0  0  0
  194.1450  173.9030  140.8520 C   0  0  1  0  0  3  0  0  0  0  0  0
  193.2680  169.7570  144.4410 O   0  0  0  0  0  1  0  0  0  0  0  0
  191.6670  172.2150  140.6880 O   0  0  0  0  0  1  0  0  0  0  0  0
  192.4730  170.7880  142.4300 C   0  0  1  0  0  3  0  0  0  0  0  0
  193.6970  170.2830  143.2220 C   0  0  1  0  0  3  0  0  0  0  0  0
  195.6310  171.1940  144.4550 C   0  0  0  0  0  3  0  0  0  0  0  0
  192.8350  171.6960  141.2480 C   0  0  2  0  0  3  0  0  0  0  0  0
  194.9970  172.2930  142.2780 C   0  0  2  0  0  3  0  0  0  0  0  0
  191.7270  169.6970  141.9790 O   0  0  0  0  0  1  0  0  0  0  0  0
  195.8180  173.4040  142.5290 O   0  0  0  0  0  0  0  0  0  0  0  0
  193.6890  172.8310  141.7940 C   0  0  1  0  0  3  0  0  0  0  0  0
  195.3980  174.3860  141.5970 C   0  0  1  0  0  3  0  0  0  0  0  0
  196.7080  176.0410  140.4540 O   0  0  0  0  0  1  0  0  0  0  0  0
  196.5200  174.8200  140.7010 C   0  0  0  0  0  0  0  0  0  0  0  0
  197.3880  173.8720  140.1790 O   0  0  0  0  0  0  0  0  0  0  0  0
  1  2  1  1  0  0  0
  3  1  1  0  0  0  0
  5  4  2  0  0  0  0
  6  4  1  0  0  0  0
  6  3  1  0  0  0  0
  7  6  2  0  0  0  0
  8 10  1  0  0  0  0
  9  5  1  0  0  0  0
 10  9  2  0  0  0  0
 10  7  1  0  0  0  0
 11 12  1  6  0  0  0
 11  7  1  0  0  0  0
 13 11  1  0  0  0  0
 14 19  1  0  0  0  0
 14 15  1  0  0  0  0
 15 16  1  0  0  0  0
 16 22  1  1  0  0  0
 17 21  2  0  0  0  0
 18 13  1  0  0  0  0
 19 20  1  0  0  0  0
 20 16  1  0  0  0  0
 21 18  1  0  0  0  0
 21 19  1  0  0  0  0
 22 23  1  0  0  0  0
 23 25  1  0  0  0  0
 24 25  1  0  0  0  0
 26 25  1  0  0  0  0
 27  1  1  0  0  0  0
 28 30  1  0  0  0  0
 29 28  1  0  0  0  0
 29 30  1  0  0  0  0
 30 31  1  0  0  0  0
 30 27  1  0  0  0  0
 32 33  1  0  0  0  0
 32 31  1  0  0  0  0
 34 33  1  0  0  0  0
 35 34  1  0  0  0  0
 36 43  2  0  0  0  0
 38 37  1  6  0  0  0
 38 49  1  0  0  0  0
 38 48  1  0  0  0  0
 41 46  1  6  0  0  0
 41 42  1  0  0  0  0
 42 36  1  0  0  0  0
 42 39  1  1  0  0  0
 43 35  1  0  0  0  0
 44 40  1  1  0  0  0
 44 48  1  0  0  0  0
 44 41  1  0  0  0  0
 45 47  1  1  0  0  0
 45 36  1  0  0  0  0
 48 45  1  0  0  0  0
 49 47  1  0  0  0  0
 50 51  1  0  0  0  0
 51 49  1  0  0  0  0
 52 51  2  0  0  0  0
M  END
>  <MODEL>
7

>  <REMARK>
 VINA RESULT:      -6.7      2.947      9.178
  Name = 
  17 active torsions:
  status: ('A' for Active; 'I' for Inactive)
    1  A    between atoms: O_1  and  C_8
    2  A    between atoms: O_1  and  C_26
    3  A    between atoms: O_7  and  C_9
    4  A    between atoms: O_7  and  C_23
    5  A    between atoms: C_8  and  N_40
    6  A    between atoms: C_9  and  C_12
    7  A    between atoms: C_10  and  C_31
    8  A    between atoms: C_10  and  C_39
    9  A    between atoms: C_16  and  C_18
   10  A    between atoms: C_16  and  N_35
   11  A    between atoms: C_18  and  C_28
   12  A    between atoms: C_20  and  C_39
   13  A    between atoms: C_20  and  C_43
   14  A    between atoms: C_29  and  C_31
   15  A    between atoms: C_34  and  C_48
   16  A    between atoms: N_40  and  C_44
   17  A    between atoms: C_43  and  C_44
                            x       y       z     vdW  Elec       q    Type
                         _______ _______ _______ _____ _____    ______ ____

>  <TORSDO>
F 17

$$$$
=
 OpenBabel11042416003D

 52 56  0  0  1  0  0  0  0  0999 V2000
  189.3000  172.4840  142.1460 C   0  0  2  0  0  3  0  0  0  0  0  0
  187.9690  172.1900  142.4440 O   0  0  0  0  0  1  0  0  0  0  0  0
  189.6190  171.9470  140.8670 O   0  0  0  0  0  0  0  0  0  0  0  0
  188.3100  173.3220  139.3320 C   0  0  0  0  0  3  0  0  0  0  0  0
  188.2140  174.0620  138.1540 C   0  0  0  0  0  3  0  0  0  0  0  0
  189.5090  172.6760  139.6750 C   0  0  0  0  0  0  0  0  0  0  0  0
  190.6170  172.7650  138.8120 C   0  0  0  0  0  0  0  0  0  0  0  0
  191.6040  173.6630  136.7720 O   0  0  0  0  0  1  0  0  0  0  0  0
  189.3170  174.1670  137.3060 C   0  0  0  0  0  3  0  0  0  0  0  0
  190.5170  173.5290  137.6280 C   0  0  0  0  0  0  0  0  0  0  0  0
  191.8990  172.0800  139.2080 C   0  0  1  0  0  3  0  0  0  0  0  0
  192.2550  170.9520  138.2580 C   0  0  0  0  0  1  0  0  0  0  0  0
  193.0580  173.0610  139.3460 C   0  0  0  0  0  2  0  0  0  0  0  0
  196.9500  175.1180  139.4120 C   0  0  0  0  0  2  0  0  0  0  0  0
  197.0140  175.9100  140.7040 C   0  0  0  0  0  2  0  0  0  0  0  0
  196.1860  175.1320  141.7190 C   0  0  2  0  0  3  0  0  0  0  0  0
  196.3030  172.9700  137.6300 O   0  0  0  0  0  0  0  0  0  0  0  0
  194.1870  172.6420  138.5250 N   0  0  0  0  0  2  0  0  0  0  0  0
  195.8770  174.1610  139.5870 N   0  0  0  0  0  0  0  0  0  0  0  0
  195.3510  174.1340  140.9360 C   0  0  0  0  0  2  0  0  0  0  0  0
  195.4880  173.2440  138.5540 C   0  0  0  0  0  0  0  0  0  0  0  0
  195.3120  176.0570  142.5540 C   0  0  0  0  0  2  0  0  0  0  0  0
  195.2720  175.6350  143.8980 O   0  0  0  0  0  0  0  0  0  0  0  0
  194.2650  176.0890  146.0900 C   0  0  0  0  0  1  0  0  0  0  0  0
  194.4080  176.4840  144.6250 C   0  0  0  0  0  3  0  0  0  0  0  0
  193.0580  176.6890  143.9490 C   0  0  0  0  0  1  0  0  0  0  0  0
  190.1680  171.8870  143.1540 N   0  0  0  0  0  2  0  0  0  0  0  0
  192.4340  173.0450  143.2250 C   0  0  0  0  0  2  0  0  0  0  0  0
  192.1460  172.3150  144.5280 C   0  0  0  0  0  2  0  0  0  0  0  0
  191.0130  172.9230  143.7370 C   0  0  0  0  0  0  0  0  0  0  0  0
  190.3600  174.0760  144.4790 C   0  0  0  0  0  2  0  0  0  0  0  0
  189.7960  173.6140  145.8070 C   0  0  0  0  0  2  0  0  0  0  0  0
  189.3600  174.8240  146.6020 C   0  0  0  0  0  2  0  0  0  0  0  0
  190.4640  175.8600  146.6060 C   0  0  0  0  0  2  0  0  0  0  0  0
  189.9300  177.1800  146.0830 C   0  0  0  0  0  2  0  0  0  0  0  0
  187.4910  177.8080  146.2530 C   0  0  0  0  0  0  0  0  0  0  0  0
  185.4120  177.1920  142.5050 O   0  0  0  0  0  1  0  0  0  0  0  0
  186.2460  178.2770  142.8150 C   0  0  1  0  0  3  0  0  0  0  0  0
  186.6530  178.6600  148.3400 O   0  0  0  0  0  1  0  0  0  0  0  0
  183.9470  179.2760  144.4670 O   0  0  0  0  0  1  0  0  0  0  0  0
  185.1420  178.8090  146.4870 C   0  0  1  0  0  3  0  0  0  0  0  0
  186.2850  178.0180  147.1560 C   0  0  1  0  0  3  0  0  0  0  0  0
  188.6860  177.5600  146.8220 C   0  0  0  0  0  3  0  0  0  0  0  0
  184.8910  178.4140  145.0260 C   0  0  2  0  0  3  0  0  0  0  0  0
  187.1890  177.5420  144.7950 C   0  0  2  0  0  3  0  0  0  0  0  0
  183.9690  178.6520  147.2280 O   0  0  0  0  0  1  0  0  0  0  0  0
  188.2810  177.5600  143.9120 O   0  0  0  0  0  0  0  0  0  0  0  0
  186.2130  178.5550  144.2860 C   0  0  1  0  0  3  0  0  0  0  0  0
  187.7270  177.9040  142.6530 C   0  0  1  0  0  3  0  0  0  0  0  0
  188.7620  175.8840  141.8730 O   0  0  0  0  0  1  0  0  0  0  0  0
  187.9890  176.8470  141.6220 C   0  0  0  0  0  0  0  0  0  0  0  0
  187.3370  176.9040  140.3980 O   0  0  0  0  0  0  0  0  0  0  0  0
  1  2  1  1  0  0  0
  1 27  1  0  0  0  0
  3  1  1  0  0  0  0
  4  6  1  0  0  0  0
  5  4  2  0  0  0  0
  6  3  1  0  0  0  0
  7 11  1  0  0  0  0
  7  6  2  0  0  0  0
  8 10  1  0  0  0  0
  9 10  2  0  0  0  0
  9  5  1  0  0  0  0
 10  7  1  0  0  0  0
 11 12  1  6  0  0  0
 11 13  1  0  0  0  0
 14 19  1  0  0  0  0
 14 15  1  0  0  0  0
 15 16  1  0  0  0  0
 16 22  1  6  0  0  0
 17 21  2  0  0  0  0
 18 21  1  0  0  0  0
 18 13  1  0  0  0  0
 19 20  1  0  0  0  0
 20 16  1  0  0  0  0
 21 19  1  0  0  0  0
 22 23  1  0  0  0  0
 23 25  1  0  0  0  0
 25 24  1  0  0  0  0
 26 25  1  0  0  0  0
 27 30  1  0  0  0  0
 28 30  1  0  0  0  0
 28 29  1  0  0  0  0
 30 31  1  0  0  0  0
 30 29  1  0  0  0  0
 31 32  1  0  0  0  0
 32 33  1  0  0  0  0
 33 34  1  0  0  0  0
 35 34  1  0  0  0  0
 35 43  1  0  0  0  0
 36 43  2  0  0  0  0
 36 42  1  0  0  0  0
 38 37  1  1  0  0  0
 38 48  1  0  0  0  0
 41 42  1  0  0  0  0
 41 46  1  1  0  0  0
 42 39  1  1  0  0  0
 44 40  1  6  0  0  0
 44 41  1  0  0  0  0
 45 47  1  6  0  0  0
 45 36  1  0  0  0  0
 48 45  1  0  0  0  0
 48 44  1  0  0  0  0
 49 38  1  0  0  0  0
 49 47  1  0  0  0  0
 51 50  1  0  0  0  0
 51 49  1  0  0  0  0
 52 51  2  0  0  0  0
M  END
>  <MODEL>
8

>  <REMARK>
 VINA RESULT:      -6.7      1.392      2.030
  Name = 
  17 active torsions:
  status: ('A' for Active; 'I' for Inactive)
    1  A    between atoms: O_1  and  C_8
    2  A    between atoms: O_1  and  C_26
    3  A    between atoms: O_7  and  C_9
    4  A    between atoms: O_7  and  C_23
    5  A    between atoms: C_8  and  N_40
    6  A    between atoms: C_9  and  C_12
    7  A    between atoms: C_10  and  C_31
    8  A    between atoms: C_10  and  C_39
    9  A    between atoms: C_16  and  C_18
   10  A    between atoms: C_16  and  N_35
   11  A    between atoms: C_18  and  C_28
   12  A    between atoms: C_20  and  C_39
   13  A    between atoms: C_20  and  C_43
   14  A    between atoms: C_29  and  C_31
   15  A    between atoms: C_34  and  C_48
   16  A    between atoms: N_40  and  C_44
   17  A    between atoms: C_43  and  C_44
                            x       y       z     vdW  Elec       q    Type
                         _______ _______ _______ _____ _____    ______ ____

>  <TORSDO>
F 17

$$$$
=
 OpenBabel11042416003D

 52 56  0  0  1  0  0  0  0  0999 V2000
  190.4370  172.7630  142.2290 C   0  0  2  0  0  3  0  0  0  0  0  0
  190.7340  171.7480  143.1390 O   0  0  0  0  0  1  0  0  0  0  0  0
  189.9720  173.9040  142.9410 O   0  0  0  0  0  0  0  0  0  0  0  0
  191.9270  175.3420  142.6780 C   0  0  0  0  0  3  0  0  0  0  0  0
  192.7550  176.3560  143.1570 C   0  0  0  0  0  3  0  0  0  0  0  0
  190.8200  174.9100  143.4250 C   0  0  0  0  0  0  0  0  0  0  0  0
  190.5540  175.4980  144.6760 C   0  0  0  0  0  0  0  0  0  0  0  0
  191.1300  177.1610  146.3620 O   0  0  0  0  0  1  0  0  0  0  0  0
  192.4820  176.9540  144.3880 C   0  0  0  0  0  3  0  0  0  0  0  0
  191.3870  176.5370  145.1460 C   0  0  0  0  0  0  0  0  0  0  0  0
  189.3490  175.0340  145.4520 C   0  0  1  0  0  3  0  0  0  0  0  0
  189.6900  174.7350  146.9000 C   0  0  0  0  0  1  0  0  0  0  0  0
  188.1880  176.0170  145.3580 C   0  0  0  0  0  2  0  0  0  0  0  0
  184.9080  178.8610  146.0930 C   0  0  0  0  0  2  0  0  0  0  0  0
  184.4160  179.3330  144.7380 C   0  0  0  0  0  2  0  0  0  0  0  0
  184.6450  178.1750  143.7760 C   0  0  2  0  0  3  0  0  0  0  0  0
  185.9600  177.0800  148.0760 O   0  0  0  0  0  0  0  0  0  0  0  0
  187.4570  176.0720  146.6180 N   0  0  0  0  0  2  0  0  0  0  0  0
  185.6840  177.6650  145.8370 N   0  0  0  0  0  0  0  0  0  0  0  0
  185.5970  177.2110  144.4650 C   0  0  0  0  0  2  0  0  0  0  0  0
  186.3470  176.9400  146.8830 C   0  0  0  0  0  0  0  0  0  0  0  0
  185.2040  178.6550  142.4450 C   0  0  0  0  0  2  0  0  0  0  0  0
  186.6110  178.7230  142.4840 O   0  0  0  0  0  0  0  0  0  0  0  0
  186.0620  177.5720  140.3860 C   0  0  0  0  0  1  0  0  0  0  0  0
  187.1370  178.1000  141.3290 C   0  0  0  0  0  3  0  0  0  0  0  0
  188.1950  177.0490  141.6420 C   0  0  0  0  0  1  0  0  0  0  0  0
  189.4000  172.3050  141.3130 N   0  0  0  0  0  2  0  0  0  0  0  0
  188.2840  173.6900  139.4900 C   0  0  0  0  0  2  0  0  0  0  0  0
  188.7320  172.3360  138.9590 C   0  0  0  0  0  2  0  0  0  0  0  0
  189.5240  173.0210  140.0480 C   0  0  0  0  0  0  0  0  0  0  0  0
  190.9040  173.4340  139.5670 C   0  0  0  0  0  2  0  0  0  0  0  0
  191.6130  172.2750  138.8980 C   0  0  0  0  0  2  0  0  0  0  0  0
  193.0870  172.3450  139.2290 C   0  0  0  0  0  2  0  0  0  0  0  0
  193.4280  171.3010  140.2720 C   0  0  0  0  0  2  0  0  0  0  0  0
  194.9070  171.3680  140.5990 C   0  0  0  0  0  2  0  0  0  0  0  0
  195.5930  173.4560  141.8400 C   0  0  0  0  0  0  0  0  0  0  0  0
  196.2940  172.6670  146.0400 O   0  0  0  0  0  1  0  0  0  0  0  0
  195.0410  172.8190  145.4300 C   0  0  1  0  0  3  0  0  0  0  0  0
  195.7360  175.5310  140.6340 O   0  0  0  0  0  1  0  0  0  0  0  0
  195.6710  175.7540  145.3920 O   0  0  0  0  0  1  0  0  0  0  0  0
  195.9330  175.7100  143.0150 C   0  0  1  0  0  3  0  0  0  0  0  0
  196.1970  174.8500  141.7620 C   0  0  1  0  0  3  0  0  0  0  0  0
  195.3500  172.7930  140.6940 C   0  0  0  0  0  3  0  0  0  0  0  0
  196.0670  174.9370  144.3330 C   0  0  2  0  0  3  0  0  0  0  0  0
  195.6430  172.7870  143.1960 C   0  0  2  0  0  3  0  0  0  0  0  0
  196.7970  176.8070  143.0190 O   0  0  0  0  0  1  0  0  0  0  0  0
  194.9050  171.6020  143.3420 O   0  0  0  0  0  0  0  0  0  0  0  0
  195.1450  173.7300  144.2460 C   0  0  1  0  0  3  0  0  0  0  0  0
  194.6040  171.5260  144.7250 C   0  0  1  0  0  3  0  0  0  0  0  0
  194.6480  169.8170  146.4100 O   0  0  0  0  0  1  0  0  0  0  0  0
  195.1450  170.2720  145.3450 C   0  0  0  0  0  0  0  0  0  0  0  0
  196.1680  169.5800  144.7140 O   0  0  0  0  0  0  0  0  0  0  0  0
  1  3  1  0  0  0  0
  1  2  1  1  0  0  0
  3  6  1  0  0  0  0
  4  5  2  0  0  0  0
  4  6  1  0  0  0  0
  5  9  1  0  0  0  0
  6  7  2  0  0  0  0
  7 10  1  0  0  0  0
  7 11  1  0  0  0  0
  9 10  2  0  0  0  0
 10  8  1  0  0  0  0
 11 12  1  1  0  0  0
 13 11  1  0  0  0  0
 13 18  1  0  0  0  0
 15 14  1  0  0  0  0
 16 22  1  6  0  0  0
 16 20  1  0  0  0  0
 16 15  1  0  0  0  0
 18 21  1  0  0  0  0
 19 14  1  0  0  0  0
 19 21  1  0  0  0  0
 20 19  1  0  0  0  0
 21 17  2  0  0  0  0
 22 23  1  0  0  0  0
 24 25  1  0  0  0  0
 25 26  1  0  0  0  0
 25 23  1  0  0  0  0
 27  1  1  0  0  0  0
 28 30  1  0  0  0  0
 29 28  1  0  0  0  0
 29 30  1  0  0  0  0
 30 27  1  0  0  0  0
 31 30  1  0  0  0  0
 32 33  1  0  0  0  0
 32 31  1  0  0  0  0
 33 34  1  0  0  0  0
 34 35  1  0  0  0  0
 35 43  1  0  0  0  0
 38 37  1  6  0  0  0
 41 46  1  1  0  0  0
 41 44  1  0  0  0  0
 42 39  1  6  0  0  0
 42 36  1  0  0  0  0
 42 41  1  0  0  0  0
 43 36  2  0  0  0  0
 44 40  1  1  0  0  0
 45 36  1  6  0  0  0
 45 47  1  0  0  0  0
 45 48  1  0  0  0  0
 47 49  1  0  0  0  0
 48 44  1  0  0  0  0
 48 38  1  0  0  0  0
 49 51  1  0  0  0  0
 49 38  1  0  0  0  0
 51 50  1  0  0  0  0
 52 51  2  0  0  0  0
M  END
>  <MODEL>
9

>  <REMARK>
 VINA RESULT:      -6.6      2.641      9.601
  Name = 
  17 active torsions:
  status: ('A' for Active; 'I' for Inactive)
    1  A    between atoms: O_1  and  C_8
    2  A    between atoms: O_1  and  C_26
    3  A    between atoms: O_7  and  C_9
    4  A    between atoms: O_7  and  C_23
    5  A    between atoms: C_8  and  N_40
    6  A    between atoms: C_9  and  C_12
    7  A    between atoms: C_10  and  C_31
    8  A    between atoms: C_10  and  C_39
    9  A    between atoms: C_16  and  C_18
   10  A    between atoms: C_16  and  N_35
   11  A    between atoms: C_18  and  C_28
   12  A    between atoms: C_20  and  C_39
   13  A    between atoms: C_20  and  C_43
   14  A    between atoms: C_29  and  C_31
   15  A    between atoms: C_34  and  C_48
   16  A    between atoms: N_40  and  C_44
   17  A    between atoms: C_43  and  C_44
                            x       y       z     vdW  Elec       q    Type
                         _______ _______ _______ _____ _____    ______ ____

>  <TORSDO>
F 17

$$$$
