=
 OpenBabel11042414173D

 45 51  0  0  1  0  0  0  0  0999 V2000
  188.0850  177.9220  144.7050 C   0  0  2  0  0  3  0  0  0  0  0  0
  189.0680  176.1620  143.5160 C   0  0  0  0  0  2  0  0  0  0  0  0
  188.5380  175.1170  147.7700 O   0  0  0  0  0  1  0  0  0  0  0  0
  186.8870  177.4530  145.5710 C   0  0  1  0  0  0  0  0  0  0  0  0
  186.0290  176.4260  144.8280 C   0  0  0  0  0  1  0  0  0  0  0  0
  187.6880  178.1090  143.3630 O   0  0  0  0  0  0  0  0  0  0  0  0
  187.4010  176.8270  146.8660 C   0  0  0  0  0  2  0  0  0  0  0  0
  190.4480  177.8000  144.4940 O   0  0  0  0  0  1  0  0  0  0  0  0
  189.5200  176.2190  146.0330 C   0  0  1  0  0  3  0  0  0  0  0  0
  189.3150  177.0150  144.7200 C   0  0  1  0  0  0  0  0  0  0  0  0
  188.3320  177.1140  142.5920 C   0  0  2  0  0  3  0  0  0  0  0  0
  188.2630  175.6900  146.5730 N   0  0  0  0  0  0  0  0  0  0  0  0
  190.2040  173.9700  145.5450 O   0  0  0  0  0  0  0  0  0  0  0  0
  190.5550  175.1390  145.8690 C   0  0  0  0  0  0  0  0  0  0  0  0
  191.9400  175.4660  146.0310 N   0  0  0  0  0  2  0  0  0  0  0  0
  195.1370  175.0480  144.7790 C   0  0  0  0  0  0  0  0  0  0  0  0
  193.0350  174.1240  144.2470 C   0  0  0  0  0  2  0  0  0  0  0  0
  194.8650  174.7860  142.6080 N   0  0  0  0  0  0  0  0  0  0  0  0
  196.1090  175.7920  144.1440 C   0  0  0  0  0  3  0  0  0  0  0  0
  194.4070  174.4570  143.8250 C   0  0  0  0  0  0  0  0  0  0  0  0
  194.4080  175.2300  146.0470 C   0  0  0  0  0  2  0  0  0  0  0  0
  196.7280  176.1370  141.7620 C   0  0  0  0  0  1  0  0  0  0  0  0
  195.9400  175.5390  142.8240 N   0  0  0  0  0  0  0  0  0  0  0  0
  193.0470  174.5580  145.7350 C   0  0  1  0  0  3  0  0  0  0  0  0
  187.3240  176.3670  141.7130 C   0  0  1  0  0  3  0  0  0  0  0  0
  186.1570  177.2620  141.3200 C   0  0  0  0  0  1  0  0  0  0  0  0
  187.9520  175.7740  140.5270 N   0  0  0  0  0  0  0  0  0  0  0  0
  188.2850  174.5250  140.3550 C   0  0  0  0  0  0  0  0  0  0  0  0
  191.1640  173.3780  139.6470 N   0  0  0  0  0  2  0  0  0  0  0  0
  188.8830  174.1180  139.0710 C   0  0  0  0  0  0  0  0  0  0  0  0
  190.1180  173.6450  138.8890 N   0  0  0  0  0  0  0  0  0  0  0  0
  191.5860  172.8950  137.4830 C   0  0  0  0  0  0  0  0  0  0  0  0
  192.1110  172.9010  138.7870 C   0  0  0  0  0  3  0  0  0  0  0  0
  190.3160  173.3830  137.6330 C   0  0  0  0  0  0  0  0  0  0  0  0
  189.2040  173.6670  136.8640 C   0  0  0  0  0  3  0  0  0  0  0  0
  188.2700  174.1500  137.8100 C   0  0  0  0  0  3  0  0  0  0  0  0
  193.2450  172.5840  135.3830 N   0  0  0  0  0  0  0  0  0  0  0  0
  192.2950  171.6400  135.1750 O   0  0  0  0  0  0  0  0  0  0  0  0
  192.2470  172.4610  136.2560 C   0  0  0  0  0  0  0  0  0  0  0  0
  188.0570  173.5320  141.3810 C   0  0  0  0  0  0  0  0  0  0  0  0
  187.8730  172.7370  142.2000 N   0  0  0  0  0  0  0  0  0  0  0  0
  186.0430  178.6930  145.8920 C   0  0  0  0  0  2  0  0  0  0  0  0
  184.5750  178.5060  145.6660 C   0  0  0  0  0  0  0  0  0  0  0  0
  184.0170  178.8060  144.4320 O   0  0  0  0  0  0  0  0  0  0  0  0
  183.8480  178.0580  146.5900 O   0  0  0  0  0  1  0  0  0  0  0  0
  1  6  1  6  0  0  0
  1 10  1  0  0  0  0
  1  4  1  0  0  0  0
  2 10  1  0  0  0  0
  4  5  1  6  0  0  0
  4 42  1  0  0  0  0
  4  7  1  0  0  0  0
  9 14  1  6  0  0  0
  9 12  1  0  0  0  0
 10  8  1  6  0  0  0
 10  9  1  0  0  0  0
 11 25  1  1  0  0  0
 11  6  1  0  0  0  0
 11  2  1  0  0  0  0
 12  7  1  0  0  0  0
 12  3  1  0  0  0  0
 13 14  2  0  0  0  0
 14 15  1  0  0  0  0
 16 21  1  0  0  0  0
 17 24  1  0  0  0  0
 18 23  1  0  0  0  0
 18 20  2  0  0  0  0
 19 16  2  0  0  0  0
 20 17  1  0  0  0  0
 20 16  1  0  0  0  0
 22 23  1  0  0  0  0
 23 19  1  0  0  0  0
 24 15  1  6  0  0  0
 24 21  1  0  0  0  0
 25 26  1  6  0  0  0
 27 25  1  0  0  0  0
 28 27  2  0  0  0  0
 28 40  1  0  0  0  0
 30 28  1  0  0  0  0
 31 30  1  0  0  0  0
 31 29  1  0  0  0  0
 32 34  1  0  0  0  0
 32 33  2  0  0  0  0
 33 29  1  0  0  0  0
 34 31  1  0  0  0  0
 35 34  2  0  0  0  0
 35 36  1  0  0  0  0
 36 30  2  0  0  0  0
 37 39  2  0  0  0  0
 38 37  1  0  0  0  0
 38 39  1  0  0  0  0
 39 32  1  0  0  0  0
 40 41  3  0  0  0  0
 43 42  1  0  0  0  0
 43 45  1  0  0  0  0
 44 43  2  0  0  0  0
M  END
>  <MODEL>
1

>  <REMARK>
 VINA RESULT:      -7.9      0.000      0.000
  Name = 
  9 active torsions:
  status: ('A' for Active; 'I' for Inactive)
    1  A    between atoms: C_6  and  C_37
    2  A    between atoms: C_8  and  C_37
    3  A    between atoms: C_9  and  C_44
    4  A    between atoms: C_13  and  C_41
    5  A    between atoms: C_16  and  C_44
    6  A    between atoms: C_26  and  C_27
    7  A    between atoms: N_28  and  C_42
    8  A    between atoms: N_31  and  C_38
    9  A    between atoms: C_38  and  C_39
                            x       y       z     vdW  Elec       q    Type
                         _______ _______ _______ _____ _____    ______ ____

>  <TORSDO>
F 9

$$$$
=
 OpenBabel11042414173D

 45 51  0  0  1  0  0  0  0  0999 V2000
  195.9300  171.4990  143.5220 C   0  0  2  0  0  3  0  0  0  0  0  0
  194.1180  172.6170  142.5510 C   0  0  0  0  0  2  0  0  0  0  0  0
  192.7980  168.9900  144.6900 O   0  0  0  0  0  1  0  0  0  0  0  0
  195.6760  171.1430  145.0100 C   0  0  1  0  0  0  0  0  0  0  0  0
  194.9680  172.2830  145.7440 C   0  0  0  0  0  1  0  0  0  0  0  0
  196.3440  172.8430  143.3940 O   0  0  0  0  0  0  0  0  0  0  0  0
  194.8150  169.8850  145.0990 C   0  0  0  0  0  2  0  0  0  0  0  0
  195.2660  170.9880  141.2980 O   0  0  0  0  0  1  0  0  0  0  0  0
  193.8050  170.1150  142.9820 C   0  0  1  0  0  3  0  0  0  0  0  0
  194.7580  171.2650  142.5700 C   0  0  1  0  0  0  0  0  0  0  0  0
  195.3080  173.5400  142.7310 C   0  0  2  0  0  3  0  0  0  0  0  0
  193.5410  170.0930  144.4250 N   0  0  0  0  0  0  0  0  0  0  0  0
  192.3270  169.2700  141.2900 O   0  0  0  0  0  0  0  0  0  0  0  0
  192.5310  170.1400  142.1820 C   0  0  0  0  0  0  0  0  0  0  0  0
  191.5350  171.1250  142.4820 N   0  0  0  0  0  2  0  0  0  0  0  0
  189.1280  172.8930  140.7380 C   0  0  0  0  0  0  0  0  0  0  0  0
  189.1830  171.8460  142.8490 C   0  0  0  0  0  2  0  0  0  0  0  0
  188.0520  174.0510  142.2730 N   0  0  0  0  0  0  0  0  0  0  0  0
  188.9300  174.1630  140.2390 C   0  0  0  0  0  3  0  0  0  0  0  0
  188.5880  172.8610  141.9630 C   0  0  0  0  0  0  0  0  0  0  0  0
  190.1980  171.8980  140.5430 C   0  0  0  0  0  2  0  0  0  0  0  0
  187.7900  176.1930  141.1080 C   0  0  0  0  0  1  0  0  0  0  0  0
  188.2080  174.8050  141.1880 N   0  0  0  0  0  0  0  0  0  0  0  0
  190.1940  171.1510  141.9010 C   0  0  1  0  0  3  0  0  0  0  0  0
  194.9200  174.8050  143.5030 C   0  0  1  0  0  3  0  0  0  0  0  0
  195.2890  176.0640  142.7320 C   0  0  0  0  0  1  0  0  0  0  0  0
  193.5010  174.8160  143.8760 N   0  0  0  0  0  0  0  0  0  0  0  0
  192.9660  175.3950  144.9150 C   0  0  0  0  0  0  0  0  0  0  0  0
  190.6430  177.4540  144.2270 N   0  0  0  0  0  2  0  0  0  0  0  0
  191.5060  175.3150  145.1010 C   0  0  0  0  0  0  0  0  0  0  0  0
  190.6140  176.2520  144.7710 N   0  0  0  0  0  0  0  0  0  0  0  0
  188.5280  176.8330  144.7130 C   0  0  0  0  0  0  0  0  0  0  0  0
  189.3370  177.8490  144.1750 C   0  0  0  0  0  3  0  0  0  0  0  0
  189.4150  175.8540  145.0690 C   0  0  0  0  0  0  0  0  0  0  0  0
  189.4150  174.5930  145.6320 C   0  0  0  0  0  3  0  0  0  0  0  0
  190.7860  174.2460  145.6520 C   0  0  0  0  0  3  0  0  0  0  0  0
  185.8680  176.7630  144.2940 N   0  0  0  0  0  0  0  0  0  0  0  0
  185.9700  176.8870  145.6400 O   0  0  0  0  0  0  0  0  0  0  0  0
  187.0750  176.8290  144.8510 C   0  0  0  0  0  0  0  0  0  0  0  0
  193.7660  176.1310  145.8680 C   0  0  0  0  0  0  0  0  0  0  0  0
  194.4070  176.7220  146.6280 N   0  0  0  0  0  0  0  0  0  0  0  0
  197.0430  170.8850  145.6560 C   0  0  0  0  0  2  0  0  0  0  0  0
  197.2030  169.5040  146.2130 C   0  0  0  0  0  0  0  0  0  0  0  0
  196.7770  169.2200  147.5020 O   0  0  0  0  0  1  0  0  0  0  0  0
  197.7070  168.5940  145.5040 O   0  0  0  0  0  0  0  0  0  0  0  0
  1  6  1  1  0  0  0
  1  4  1  0  0  0  0
  2 10  1  0  0  0  0
  2 11  1  0  0  0  0
  4  7  1  0  0  0  0
  4 42  1  0  0  0  0
  4  5  1  1  0  0  0
  9 14  1  6  0  0  0
  9 12  1  0  0  0  0
 10  8  1  6  0  0  0
 10  9  1  0  0  0  0
 10  1  1  0  0  0  0
 11  6  1  0  0  0  0
 11 25  1  1  0  0  0
 12  3  1  0  0  0  0
 12  7  1  0  0  0  0
 13 14  2  0  0  0  0
 14 15  1  0  0  0  0
 16 20  1  0  0  0  0
 19 16  2  0  0  0  0
 19 23  1  0  0  0  0
 20 18  2  0  0  0  0
 20 17  1  0  0  0  0
 21 16  1  0  0  0  0
 21 24  1  0  0  0  0
 22 23  1  0  0  0  0
 23 18  1  0  0  0  0
 24 15  1  1  0  0  0
 24 17  1  0  0  0  0
 25 26  1  6  0  0  0
 25 27  1  0  0  0  0
 27 28  2  0  0  0  0
 28 30  1  0  0  0  0
 28 40  1  0  0  0  0
 29 31  1  0  0  0  0
 30 36  2  0  0  0  0
 31 34  1  0  0  0  0
 31 30  1  0  0  0  0
 32 39  1  0  0  0  0
 32 34  1  0  0  0  0
 33 29  1  0  0  0  0
 33 32  2  0  0  0  0
 34 35  2  0  0  0  0
 35 36  1  0  0  0  0
 37 39  2  0  0  0  0
 37 38  1  0  0  0  0
 39 38  1  0  0  0  0
 40 41  3  0  0  0  0
 42 43  1  0  0  0  0
 43 44  1  0  0  0  0
 45 43  2  0  0  0  0
M  END
>  <MODEL>
2

>  <REMARK>
 VINA RESULT:      -7.6      3.716      9.218
  Name = 
  9 active torsions:
  status: ('A' for Active; 'I' for Inactive)
    1  A    between atoms: C_6  and  C_37
    2  A    between atoms: C_8  and  C_37
    3  A    between atoms: C_9  and  C_44
    4  A    between atoms: C_13  and  C_41
    5  A    between atoms: C_16  and  C_44
    6  A    between atoms: C_26  and  C_27
    7  A    between atoms: N_28  and  C_42
    8  A    between atoms: N_31  and  C_38
    9  A    between atoms: C_38  and  C_39
                            x       y       z     vdW  Elec       q    Type
                         _______ _______ _______ _____ _____    ______ ____

>  <TORSDO>
F 9

$$$$
=
 OpenBabel11042414173D

 45 51  0  0  1  0  0  0  0  0999 V2000
  189.6150  177.6720  144.9820 C   0  0  2  0  0  3  0  0  0  0  0  0
  190.4940  176.1860  143.4010 C   0  0  0  0  0  2  0  0  0  0  0  0
  192.0940  175.3640  147.4310 O   0  0  0  0  0  1  0  0  0  0  0  0
  189.0760  176.9440  146.2410 C   0  0  1  0  0  0  0  0  0  0  0  0
  188.3340  175.6580  145.8680 C   0  0  0  0  0  1  0  0  0  0  0  0
  188.6650  177.6310  143.9370 O   0  0  0  0  0  0  0  0  0  0  0  0
  190.2360  176.5960  147.1710 C   0  0  0  0  0  2  0  0  0  0  0  0
  191.6020  178.2240  143.8020 O   0  0  0  0  0  1  0  0  0  0  0  0
  191.9010  176.5660  145.5030 C   0  0  1  0  0  3  0  0  0  0  0  0
  190.9490  177.1640  144.4370 C   0  0  1  0  0  0  0  0  0  0  0  0
  189.1980  176.8080  142.9170 C   0  0  2  0  0  3  0  0  0  0  0  0
  191.1950  175.7390  146.4870 N   0  0  0  0  0  0  0  0  0  0  0  0
  194.1120  176.4320  144.5780 O   0  0  0  0  0  0  0  0  0  0  0  0
  193.0450  175.8230  144.8680 C   0  0  0  0  0  0  0  0  0  0  0  0
  192.9270  174.4120  144.6470 N   0  0  0  0  0  2  0  0  0  0  0  0
  194.0640  171.2070  144.0220 C   0  0  0  0  0  0  0  0  0  0  0  0
  194.8060  172.9680  145.4020 C   0  0  0  0  0  2  0  0  0  0  0  0
  194.8230  170.4860  145.9620 N   0  0  0  0  0  0  0  0  0  0  0  0
  193.6380  169.9040  144.1790 C   0  0  0  0  0  3  0  0  0  0  0  0
  194.7730  171.5240  145.1130 C   0  0  0  0  0  0  0  0  0  0  0  0
  193.4760  172.3760  143.3450 C   0  0  0  0  0  2  0  0  0  0  0  0
  193.9840  168.1820  145.9360 C   0  0  0  0  0  1  0  0  0  0  0  0
  194.1880  169.4920  145.3450 N   0  0  0  0  0  0  0  0  0  0  0  0
  194.0190  173.5490  144.2000 C   0  0  1  0  0  3  0  0  0  0  0  0
  188.1880  175.7360  142.4980 C   0  0  1  0  0  3  0  0  0  0  0  0
  186.7690  176.2850  142.4780 C   0  0  0  0  0  1  0  0  0  0  0  0
  188.5300  175.1220  141.2100 N   0  0  0  0  0  0  0  0  0  0  0  0
  188.8270  173.8710  140.9890 C   0  0  0  0  0  0  0  0  0  0  0  0
  191.4040  172.5280  139.7030 N   0  0  0  0  0  2  0  0  0  0  0  0
  189.1160  173.4410  139.6090 C   0  0  0  0  0  0  0  0  0  0  0  0
  190.2480  172.8820  139.1760 N   0  0  0  0  0  0  0  0  0  0  0  0
  191.3350  172.0480  137.4980 C   0  0  0  0  0  0  0  0  0  0  0  0
  192.1160  171.9950  138.6660 C   0  0  0  0  0  3  0  0  0  0  0  0
  190.1630  172.6250  137.9070 C   0  0  0  0  0  0  0  0  0  0  0  0
  188.9420  173.0020  137.3840 C   0  0  0  0  0  3  0  0  0  0  0  0
  188.2600  173.5370  138.5020 C   0  0  0  0  0  3  0  0  0  0  0  0
  192.5180  170.9100  135.3620 N   0  0  0  0  0  0  0  0  0  0  0  0
  191.4380  171.5300  134.8290 O   0  0  0  0  0  0  0  0  0  0  0  0
  191.6960  171.5860  136.1610 C   0  0  0  0  0  0  0  0  0  0  0  0
  188.8520  172.8980  142.0590 C   0  0  0  0  0  0  0  0  0  0  0  0
  188.8750  172.1210  142.9140 N   0  0  0  0  0  0  0  0  0  0  0  0
  188.1140  177.9070  146.9470 C   0  0  0  0  0  2  0  0  0  0  0  0
  186.6710  177.5240  146.8280 C   0  0  0  0  0  0  0  0  0  0  0  0
  186.0650  176.7780  147.8280 O   0  0  0  0  0  1  0  0  0  0  0  0
  186.0010  177.8950  145.8300 O   0  0  0  0  0  0  0  0  0  0  0  0
  1  6  1  6  0  0  0
  1  4  1  0  0  0  0
  2 10  1  0  0  0  0
  4  5  1  6  0  0  0
  4 42  1  0  0  0  0
  4  7  1  0  0  0  0
  9 14  1  6  0  0  0
  9 12  1  0  0  0  0
 10  8  1  6  0  0  0
 10  1  1  0  0  0  0
 10  9  1  0  0  0  0
 11 25  1  1  0  0  0
 11  2  1  0  0  0  0
 11  6  1  0  0  0  0
 12  7  1  0  0  0  0
 12  3  1  0  0  0  0
 13 14  2  0  0  0  0
 15 14  1  0  0  0  0
 16 19  2  0  0  0  0
 16 20  1  0  0  0  0
 19 23  1  0  0  0  0
 20 17  1  0  0  0  0
 20 18  2  0  0  0  0
 21 16  1  0  0  0  0
 21 24  1  0  0  0  0
 23 22  1  0  0  0  0
 23 18  1  0  0  0  0
 24 15  1  1  0  0  0
 24 17  1  0  0  0  0
 25 26  1  6  0  0  0
 27 25  1  0  0  0  0
 28 27  2  0  0  0  0
 28 40  1  0  0  0  0
 30 28  1  0  0  0  0
 31 30  1  0  0  0  0
 31 29  1  0  0  0  0
 32 34  1  0  0  0  0
 32 33  2  0  0  0  0
 33 29  1  0  0  0  0
 34 31  1  0  0  0  0
 35 34  2  0  0  0  0
 35 36  1  0  0  0  0
 36 30  2  0  0  0  0
 37 39  2  0  0  0  0
 38 37  1  0  0  0  0
 38 39  1  0  0  0  0
 39 32  1  0  0  0  0
 40 41  3  0  0  0  0
 43 42  1  0  0  0  0
 43 44  1  0  0  0  0
 45 43  2  0  0  0  0
M  END
>  <MODEL>
3

>  <REMARK>
 VINA RESULT:      -7.5      2.301      3.023
  Name = 
  9 active torsions:
  status: ('A' for Active; 'I' for Inactive)
    1  A    between atoms: C_6  and  C_37
    2  A    between atoms: C_8  and  C_37
    3  A    between atoms: C_9  and  C_44
    4  A    between atoms: C_13  and  C_41
    5  A    between atoms: C_16  and  C_44
    6  A    between atoms: C_26  and  C_27
    7  A    between atoms: N_28  and  C_42
    8  A    between atoms: N_31  and  C_38
    9  A    between atoms: C_38  and  C_39
                            x       y       z     vdW  Elec       q    Type
                         _______ _______ _______ _____ _____    ______ ____

>  <TORSDO>
F 9

$$$$
=
 OpenBabel11042414173D

 45 51  0  0  1  0  0  0  0  0999 V2000
  194.4280  172.6900  141.5150 C   0  0  2  0  0  3  0  0  0  0  0  0
  192.7670  173.1120  143.1090 C   0  0  0  0  0  2  0  0  0  0  0  0
  195.6650  176.4340  142.9020 O   0  0  0  0  0  1  0  0  0  0  0  0
  194.6450  173.8890  140.5560 C   0  0  1  0  0  0  0  0  0  0  0  0
  193.3150  174.5330  140.1570 C   0  0  0  0  0  1  0  0  0  0  0  0
  193.3150  171.9200  141.1090 O   0  0  0  0  0  0  0  0  0  0  0  0
  195.5220  174.9400  141.2340 C   0  0  0  0  0  2  0  0  0  0  0  0
  194.7190  171.9670  143.7600 O   0  0  0  0  0  1  0  0  0  0  0  0
  194.9940  174.3240  143.4470 C   0  0  1  0  0  3  0  0  0  0  0  0
  194.2570  173.0400  142.9920 C   0  0  1  0  0  0  0  0  0  0  0  0
  192.3140  172.0790  142.0950 C   0  0  2  0  0  3  0  0  0  0  0  0
  194.8950  175.4070  142.4630 N   0  0  0  0  0  0  0  0  0  0  0  0
  195.3360  174.7060  145.7920 O   0  0  0  0  0  0  0  0  0  0  0  0
  194.5420  174.7680  144.8120 C   0  0  0  0  0  0  0  0  0  0  0  0
  193.2250  175.3080  144.9720 N   0  0  0  0  0  2  0  0  0  0  0  0
  190.6290  175.6760  147.2270 C   0  0  0  0  0  0  0  0  0  0  0  0
  191.8600  177.1750  145.8870 C   0  0  0  0  0  2  0  0  0  0  0  0
  189.3660  177.2720  146.3820 N   0  0  0  0  0  0  0  0  0  0  0  0
  189.3150  175.2870  147.3700 C   0  0  0  0  0  3  0  0  0  0  0  0
  190.6240  176.8740  146.6290 C   0  0  0  0  0  0  0  0  0  0  0  0
  191.8780  174.9220  147.0160 C   0  0  0  0  0  2  0  0  0  0  0  0
  187.1370  176.3530  146.8260 C   0  0  0  0  0  1  0  0  0  0  0  0
  188.5860  176.3280  146.9020 N   0  0  0  0  0  0  0  0  0  0  0  0
  192.7270  175.9280  146.1980 C   0  0  1  0  0  3  0  0  0  0  0  0
  190.9790  172.4740  141.4560 C   0  0  1  0  0  3  0  0  0  0  0  0
  189.9360  171.3780  141.6200 C   0  0  0  0  0  1  0  0  0  0  0  0
  190.4760  173.7550  141.9660 N   0  0  0  0  0  0  0  0  0  0  0  0
  189.5750  174.5220  141.4150 C   0  0  0  0  0  0  0  0  0  0  0  0
  186.7620  175.5190  142.5090 N   0  0  0  0  0  2  0  0  0  0  0  0
  189.1810  175.7650  142.1020 C   0  0  0  0  0  0  0  0  0  0  0  0
  187.9540  176.0820  142.5220 N   0  0  0  0  0  0  0  0  0  0  0  0
  186.6950  177.5390  143.5120 C   0  0  0  0  0  0  0  0  0  0  0  0
  185.9410  176.4170  143.1290 C   0  0  0  0  0  3  0  0  0  0  0  0
  187.9640  177.2490  143.0890 C   0  0  0  0  0  0  0  0  0  0  0  0
  189.2240  177.8130  143.0920 C   0  0  0  0  0  3  0  0  0  0  0  0
  190.0180  176.8370  142.4430 C   0  0  0  0  0  3  0  0  0  0  0  0
  185.7480  179.9770  144.1620 N   0  0  0  0  0  0  0  0  0  0  0  0
  185.9580  179.3910  145.3650 O   0  0  0  0  0  0  0  0  0  0  0  0
  186.2260  178.7350  144.2060 C   0  0  0  0  0  0  0  0  0  0  0  0
  188.9400  174.1660  140.1660 C   0  0  0  0  0  0  0  0  0  0  0  0
  188.4310  173.8790  139.1680 N   0  0  0  0  0  0  0  0  0  0  0  0
  195.3510  173.3510  139.3050 C   0  0  0  0  0  2  0  0  0  0  0  0
  196.2250  174.3540  138.6180 C   0  0  0  0  0  0  0  0  0  0  0  0
  197.5950  174.3460  138.8330 O   0  0  0  0  0  1  0  0  0  0  0  0
  195.7190  175.1950  137.8300 O   0  0  0  0  0  0  0  0  0  0  0  0
  1  6  1  6  0  0  0
  1 10  1  0  0  0  0
  4  5  1  6  0  0  0
  4  7  1  0  0  0  0
  4  1  1  0  0  0  0
  6 11  1  0  0  0  0
  7 12  1  0  0  0  0
  9 14  1  1  0  0  0
 10  2  1  0  0  0  0
 10  9  1  0  0  0  0
 10  8  1  1  0  0  0
 11 25  1  6  0  0  0
 11  2  1  0  0  0  0
 12  3  1  0  0  0  0
 12  9  1  0  0  0  0
 14 15  1  0  0  0  0
 14 13  2  0  0  0  0
 16 19  2  0  0  0  0
 17 24  1  0  0  0  0
 17 20  1  0  0  0  0
 18 20  2  0  0  0  0
 18 23  1  0  0  0  0
 20 16  1  0  0  0  0
 21 16  1  0  0  0  0
 22 23  1  0  0  0  0
 23 19  1  0  0  0  0
 24 15  1  6  0  0  0
 24 21  1  0  0  0  0
 25 26  1  1  0  0  0
 25 27  1  0  0  0  0
 28 27  2  0  0  0  0
 28 30  1  0  0  0  0
 29 31  1  0  0  0  0
 29 33  1  0  0  0  0
 30 36  2  0  0  0  0
 30 31  1  0  0  0  0
 31 34  1  0  0  0  0
 32 39  1  0  0  0  0
 33 32  2  0  0  0  0
 34 35  2  0  0  0  0
 34 32  1  0  0  0  0
 36 35  1  0  0  0  0
 37 39  2  0  0  0  0
 37 38  1  0  0  0  0
 39 38  1  0  0  0  0
 40 28  1  0  0  0  0
 41 40  3  0  0  0  0
 42  4  1  0  0  0  0
 43 44  1  0  0  0  0
 43 42  1  0  0  0  0
 45 43  2  0  0  0  0
M  END
>  <MODEL>
4

>  <REMARK>
 VINA RESULT:      -7.4      2.919      8.174
  Name = 
  9 active torsions:
  status: ('A' for Active; 'I' for Inactive)
    1  A    between atoms: C_6  and  C_37
    2  A    between atoms: C_8  and  C_37
    3  A    between atoms: C_9  and  C_44
    4  A    between atoms: C_13  and  C_41
    5  A    between atoms: C_16  and  C_44
    6  A    between atoms: C_26  and  C_27
    7  A    between atoms: N_28  and  C_42
    8  A    between atoms: N_31  and  C_38
    9  A    between atoms: C_38  and  C_39
                            x       y       z     vdW  Elec       q    Type
                         _______ _______ _______ _____ _____    ______ ____

>  <TORSDO>
F 9

$$$$
=
 OpenBabel11042414173D

 45 51  0  0  1  0  0  0  0  0999 V2000
  190.7000  170.7920  139.5940 C   0  0  2  0  0  3  0  0  0  0  0  0
  190.8560  172.0050  141.5890 C   0  0  0  0  0  2  0  0  0  0  0  0
  194.8300  170.6610  140.2200 O   0  0  0  0  0  1  0  0  0  0  0  0
  191.7080  171.2840  138.5220 C   0  0  1  0  0  0  0  0  0  0  0  0
  191.8100  172.8110  138.5110 C   0  0  0  0  0  1  0  0  0  0  0  0
  189.5550  171.6190  139.6190 O   0  0  0  0  0  0  0  0  0  0  0  0
  193.0890  170.6960  138.8060 C   0  0  0  0  0  2  0  0  0  0  0  0
  190.5320  169.6750  141.6840 O   0  0  0  0  0  1  0  0  0  0  0  0
  192.7550  170.3580  141.1140 C   0  0  1  0  0  3  0  0  0  0  0  0
  191.2420  170.6780  141.0180 C   0  0  1  0  0  0  0  0  0  0  0  0
  189.5650  172.3100  140.8530 C   0  0  2  0  0  3  0  0  0  0  0  0
  193.5500  171.0970  140.1280 N   0  0  0  0  0  0  0  0  0  0  0  0
  193.3340  169.5830  143.3110 O   0  0  0  0  0  0  0  0  0  0  0  0
  193.2740  170.5590  142.5120 C   0  0  0  0  0  0  0  0  0  0  0  0
  193.7470  171.8530  142.9040 N   0  0  0  0  0  2  0  0  0  0  0  0
  194.1660  173.9870  145.5940 C   0  0  0  0  0  0  0  0  0  0  0  0
  195.6170  173.1120  143.9550 C   0  0  0  0  0  2  0  0  0  0  0  0
  195.6510  175.4680  144.9170 N   0  0  0  0  0  0  0  0  0  0  0  0
  193.7360  175.2290  146.0110 C   0  0  0  0  0  3  0  0  0  0  0  0
  195.3190  174.1670  144.9390 C   0  0  0  0  0  0  0  0  0  0  0  0
  193.4480  172.7640  145.1900 C   0  0  0  0  0  2  0  0  0  0  0  0
  194.6770  177.5220  145.8370 C   0  0  0  0  0  1  0  0  0  0  0  0
  194.7140  176.0850  145.6320 N   0  0  0  0  0  0  0  0  0  0  0  0
  194.4290  172.1390  144.1650 C   0  0  1  0  0  3  0  0  0  0  0  0
  189.3900  173.8160  140.6360 C   0  0  1  0  0  3  0  0  0  0  0  0
  188.6410  174.1100  139.3450 C   0  0  0  0  0  1  0  0  0  0  0  0
  188.7410  174.4710  141.7780 N   0  0  0  0  0  0  0  0  0  0  0  0
  189.3090  175.2280  142.6770 C   0  0  0  0  0  0  0  0  0  0  0  0
  186.4950  176.7030  142.5600 N   0  0  0  0  0  2  0  0  0  0  0  0
  188.4740  175.8210  143.7370 C   0  0  0  0  0  0  0  0  0  0  0  0
  187.2950  176.4230  143.5710 N   0  0  0  0  0  0  0  0  0  0  0  0
  185.6230  177.4320  144.5100 C   0  0  0  0  0  0  0  0  0  0  0  0
  185.4270  177.3420  143.1210 C   0  0  0  0  0  3  0  0  0  0  0  0
  186.8330  176.8260  144.7160 C   0  0  0  0  0  0  0  0  0  0  0  0
  187.6870  176.5160  145.7550 C   0  0  0  0  0  3  0  0  0  0  0  0
  188.7610  175.8590  145.1090 C   0  0  0  0  0  3  0  0  0  0  0  0
  184.3620  178.1810  146.7700 N   0  0  0  0  0  0  0  0  0  0  0  0
  183.6840  178.8390  145.7990 O   0  0  0  0  0  0  0  0  0  0  0  0
  184.7340  178.0310  145.5010 C   0  0  0  0  0  0  0  0  0  0  0  0
  190.7250  175.5160  142.6390 C   0  0  0  0  0  0  0  0  0  0  0  0
  191.8570  175.7500  142.6080 N   0  0  0  0  0  0  0  0  0  0  0  0
  191.2020  170.7910  137.1610 C   0  0  0  0  0  2  0  0  0  0  0  0
  190.6580  171.8770  136.2840 C   0  0  0  0  0  0  0  0  0  0  0  0
  191.4780  172.4940  135.3520 O   0  0  0  0  0  0  0  0  0  0  0  0
  189.4500  172.2160  136.3790 O   0  0  0  0  0  1  0  0  0  0  0  0
  1  6  1  1  0  0  0
  1 10  1  0  0  0  0
  4  5  1  1  0  0  0
  4  7  1  0  0  0  0
  4  1  1  0  0  0  0
  6 11  1  0  0  0  0
  7 12  1  0  0  0  0
  9 14  1  1  0  0  0
 10  9  1  0  0  0  0
 10  2  1  0  0  0  0
 10  8  1  1  0  0  0
 11 25  1  6  0  0  0
 11  2  1  0  0  0  0
 12  3  1  0  0  0  0
 12  9  1  0  0  0  0
 14 15  1  0  0  0  0
 14 13  2  0  0  0  0
 16 19  2  0  0  0  0
 17 24  1  0  0  0  0
 17 20  1  0  0  0  0
 18 20  2  0  0  0  0
 18 23  1  0  0  0  0
 20 16  1  0  0  0  0
 21 16  1  0  0  0  0
 23 22  1  0  0  0  0
 23 19  1  0  0  0  0
 24 15  1  6  0  0  0
 24 21  1  0  0  0  0
 25 26  1  6  0  0  0
 25 27  1  0  0  0  0
 27 28  2  0  0  0  0
 28 30  1  0  0  0  0
 29 33  1  0  0  0  0
 29 31  1  0  0  0  0
 30 36  2  0  0  0  0
 31 30  1  0  0  0  0
 31 34  1  0  0  0  0
 32 34  1  0  0  0  0
 32 39  1  0  0  0  0
 33 32  2  0  0  0  0
 34 35  2  0  0  0  0
 36 35  1  0  0  0  0
 38 37  1  0  0  0  0
 39 38  1  0  0  0  0
 39 37  2  0  0  0  0
 40 28  1  0  0  0  0
 41 40  3  0  0  0  0
 42  4  1  0  0  0  0
 43 45  1  0  0  0  0
 43 42  1  0  0  0  0
 44 43  2  0  0  0  0
M  END
>  <MODEL>
5

>  <REMARK>
 VINA RESULT:      -7.3      2.749      8.220
  Name = 
  9 active torsions:
  status: ('A' for Active; 'I' for Inactive)
    1  A    between atoms: C_6  and  C_37
    2  A    between atoms: C_8  and  C_37
    3  A    between atoms: C_9  and  C_44
    4  A    between atoms: C_13  and  C_41
    5  A    between atoms: C_16  and  C_44
    6  A    between atoms: C_26  and  C_27
    7  A    between atoms: N_28  and  C_42
    8  A    between atoms: N_31  and  C_38
    9  A    between atoms: C_38  and  C_39
                            x       y       z     vdW  Elec       q    Type
                         _______ _______ _______ _____ _____    ______ ____

>  <TORSDO>
F 9

$$$$
=
 OpenBabel11042414173D

 45 51  0  0  1  0  0  0  0  0999 V2000
  194.7890  174.8340  143.3470 C   0  0  2  0  0  3  0  0  0  0  0  0
  192.4590  175.0250  143.2360 C   0  0  0  0  0  2  0  0  0  0  0  0
  193.8290  171.1770  141.5660 O   0  0  0  0  0  1  0  0  0  0  0  0
  195.2430  173.4820  143.9560 C   0  0  1  0  0  0  0  0  0  0  0  0
  194.3610  173.0780  145.1390 C   0  0  0  0  0  1  0  0  0  0  0  0
  194.4390  175.7480  144.3660 O   0  0  0  0  0  0  0  0  0  0  0  0
  195.1750  172.3890  142.8910 C   0  0  0  0  0  2  0  0  0  0  0  0
  193.7630  175.8210  141.4440 O   0  0  0  0  0  1  0  0  0  0  0  0
  193.5470  173.4390  141.5490 C   0  0  1  0  0  3  0  0  0  0  0  0
  193.6350  174.7630  142.3490 C   0  0  1  0  0  0  0  0  0  0  0  0
  193.0440  175.9590  144.2780 C   0  0  2  0  0  3  0  0  0  0  0  0
  193.8170  172.2610  142.3800 N   0  0  0  0  0  0  0  0  0  0  0  0
  192.1170  173.7790  139.6510 O   0  0  0  0  0  0  0  0  0  0  0  0
  192.2350  173.3190  140.8210 C   0  0  0  0  0  0  0  0  0  0  0  0
  191.1460  172.6320  141.4490 N   0  0  0  0  0  2  0  0  0  0  0  0
  189.3600  172.3660  138.5000 C   0  0  0  0  0  0  0  0  0  0  0  0
  189.0470  173.5710  140.5010 C   0  0  0  0  0  2  0  0  0  0  0  0
  188.5520  174.3850  138.1420 N   0  0  0  0  0  0  0  0  0  0  0  0
  189.5190  172.6470  137.1600 C   0  0  0  0  0  3  0  0  0  0  0  0
  188.7750  173.4320  139.0600 C   0  0  0  0  0  0  0  0  0  0  0  0
  190.1430  171.5590  139.4520 C   0  0  0  0  0  2  0  0  0  0  0  0
  188.9060  174.5800  135.7230 C   0  0  0  0  0  1  0  0  0  0  0  0
  188.9460  173.8620  136.9840 N   0  0  0  0  0  0  0  0  0  0  0  0
  189.8850  172.2990  140.7890 C   0  0  1  0  0  3  0  0  0  0  0  0
  192.3750  175.7600  145.6420 C   0  0  1  0  0  3  0  0  0  0  0  0
  193.2410  176.2980  146.7710 C   0  0  0  0  0  1  0  0  0  0  0  0
  191.0290  176.3410  145.6920 N   0  0  0  0  0  0  0  0  0  0  0  0
  189.8930  175.6990  145.6470 C   0  0  0  0  0  0  0  0  0  0  0  0
  187.6650  176.3560  143.4780 N   0  0  0  0  0  2  0  0  0  0  0  0
  188.6390  176.4670  145.7410 C   0  0  0  0  0  0  0  0  0  0  0  0
  187.7680  176.6810  144.7520 N   0  0  0  0  0  0  0  0  0  0  0  0
  185.8960  177.5890  144.1460 C   0  0  0  0  0  0  0  0  0  0  0  0
  186.4890  176.9160  143.0650 C   0  0  0  0  0  3  0  0  0  0  0  0
  186.7710  177.3940  145.1810 C   0  0  0  0  0  0  0  0  0  0  0  0
  186.9030  177.7160  146.5170 C   0  0  0  0  0  3  0  0  0  0  0  0
  188.1280  177.1080  146.8780 C   0  0  0  0  0  3  0  0  0  0  0  0
  183.5590  178.7700  143.5130 N   0  0  0  0  0  0  0  0  0  0  0  0
  183.7000  179.0420  144.8320 O   0  0  0  0  0  0  0  0  0  0  0  0
  184.6340  178.3220  144.1580 C   0  0  0  0  0  0  0  0  0  0  0  0
  189.8410  174.2590  145.5350 C   0  0  0  0  0  0  0  0  0  0  0  0
  189.8010  173.1070  145.4480 N   0  0  0  0  0  0  0  0  0  0  0  0
  196.6910  173.6580  144.4290 C   0  0  0  0  0  2  0  0  0  0  0  0
  197.0280  172.8770  145.6620 C   0  0  0  0  0  0  0  0  0  0  0  0
  197.1920  171.5020  145.5910 O   0  0  0  0  0  0  0  0  0  0  0  0
  197.1830  173.4710  146.7600 O   0  0  0  0  0  1  0  0  0  0  0  0
  1  4  1  0  0  0  0
  1  6  1  1  0  0  0
  2 11  1  0  0  0  0
  3 12  1  0  0  0  0
  4 42  1  0  0  0  0
  4  5  1  1  0  0  0
  7  4  1  0  0  0  0
  9 14  1  1  0  0  0
  9 10  1  0  0  0  0
  9 12  1  0  0  0  0
 10  8  1  6  0  0  0
 10  2  1  0  0  0  0
 10  1  1  0  0  0  0
 11  6  1  0  0  0  0
 11 25  1  1  0  0  0
 12  7  1  0  0  0  0
 13 14  2  0  0  0  0
 14 15  1  0  0  0  0
 16 20  1  0  0  0  0
 16 21  1  0  0  0  0
 17 24  1  0  0  0  0
 18 20  2  0  0  0  0
 19 16  2  0  0  0  0
 20 17  1  0  0  0  0
 21 24  1  0  0  0  0
 22 23  1  0  0  0  0
 23 19  1  0  0  0  0
 23 18  1  0  0  0  0
 24 15  1  6  0  0  0
 25 27  1  0  0  0  0
 25 26  1  1  0  0  0
 28 27  2  0  0  0  0
 28 30  1  0  0  0  0
 29 31  1  0  0  0  0
 30 36  2  0  0  0  0
 31 34  1  0  0  0  0
 31 30  1  0  0  0  0
 32 39  1  0  0  0  0
 32 34  1  0  0  0  0
 33 29  1  0  0  0  0
 33 32  2  0  0  0  0
 34 35  2  0  0  0  0
 35 36  1  0  0  0  0
 37 39  2  0  0  0  0
 37 38  1  0  0  0  0
 39 38  1  0  0  0  0
 40 28  1  0  0  0  0
 41 40  3  0  0  0  0
 42 43  1  0  0  0  0
 43 45  1  0  0  0  0
 44 43  2  0  0  0  0
M  END
>  <MODEL>
6

>  <REMARK>
 VINA RESULT:      -7.3      2.887      8.854
  Name = 
  9 active torsions:
  status: ('A' for Active; 'I' for Inactive)
    1  A    between atoms: C_6  and  C_37
    2  A    between atoms: C_8  and  C_37
    3  A    between atoms: C_9  and  C_44
    4  A    between atoms: C_13  and  C_41
    5  A    between atoms: C_16  and  C_44
    6  A    between atoms: C_26  and  C_27
    7  A    between atoms: N_28  and  C_42
    8  A    between atoms: N_31  and  C_38
    9  A    between atoms: C_38  and  C_39
                            x       y       z     vdW  Elec       q    Type
                         _______ _______ _______ _____ _____    ______ ____

>  <TORSDO>
F 9

$$$$
=
 OpenBabel11042414173D

 45 51  0  0  1  0  0  0  0  0999 V2000
  195.7850  173.1550  143.7940 C   0  0  2  0  0  3  0  0  0  0  0  0
  193.7610  174.1550  143.1740 C   0  0  0  0  0  2  0  0  0  0  0  0
  193.6040  169.7750  142.6620 O   0  0  0  0  0  1  0  0  0  0  0  0
  195.5810  171.9530  144.7510 C   0  0  1  0  0  0  0  0  0  0  0  0
  194.4940  172.2430  145.7890 C   0  0  0  0  0  1  0  0  0  0  0  0
  195.7360  174.3740  144.5060 O   0  0  0  0  0  0  0  0  0  0  0  0
  195.1820  170.7160  143.9480 C   0  0  0  0  0  2  0  0  0  0  0  0
  195.4540  173.8910  141.5590 O   0  0  0  0  0  1  0  0  0  0  0  0
  194.2740  171.8840  142.1140 C   0  0  1  0  0  3  0  0  0  0  0  0
  194.8120  173.2460  142.6190 C   0  0  1  0  0  0  0  0  0  0  0  0
  194.5650  175.0530  144.0940 C   0  0  2  0  0  3  0  0  0  0  0  0
  193.9520  170.9650  143.2100 N   0  0  0  0  0  0  0  0  0  0  0  0
  193.2680  171.9000  139.9340 O   0  0  0  0  0  0  0  0  0  0  0  0
  193.1100  172.0630  141.1760 C   0  0  0  0  0  0  0  0  0  0  0  0
  191.8170  172.3650  141.7140 N   0  0  0  0  0  2  0  0  0  0  0  0
  188.9670  174.0970  140.8010 C   0  0  0  0  0  0  0  0  0  0  0  0
  189.3590  171.9990  141.8010 C   0  0  0  0  0  2  0  0  0  0  0  0
  187.4930  173.6320  142.3730 N   0  0  0  0  0  0  0  0  0  0  0  0
  188.3160  175.2690  141.1220 C   0  0  0  0  0  3  0  0  0  0  0  0
  188.4470  173.1330  141.5720 C   0  0  0  0  0  0  0  0  0  0  0  0
  190.3380  173.8070  140.3450 C   0  0  0  0  0  2  0  0  0  0  0  0
  186.4710  175.8390  142.6860 C   0  0  0  0  0  1  0  0  0  0  0  0
  187.3800  174.9140  142.0350 N   0  0  0  0  0  0  0  0  0  0  0  0
  190.5810  172.3950  140.9350 C   0  0  1  0  0  3  0  0  0  0  0  0
  193.7370  175.4950  145.3050 C   0  0  1  0  0  3  0  0  0  0  0  0
  194.5380  176.4020  146.2270 C   0  0  0  0  0  1  0  0  0  0  0  0
  192.4740  176.1310  144.9130 N   0  0  0  0  0  0  0  0  0  0  0  0
  191.3930  176.2440  145.6340 C   0  0  0  0  0  0  0  0  0  0  0  0
  188.5650  176.9770  146.8870 N   0  0  0  0  0  2  0  0  0  0  0  0
  190.2290  176.9470  145.0670 C   0  0  0  0  0  0  0  0  0  0  0  0
  189.0780  177.2020  145.6930 N   0  0  0  0  0  0  0  0  0  0  0  0
  187.1060  178.0920  145.5750 C   0  0  0  0  0  0  0  0  0  0  0  0
  187.3170  177.5290  146.8450 C   0  0  0  0  0  3  0  0  0  0  0  0
  188.2710  177.8420  144.9020 C   0  0  0  0  0  0  0  0  0  0  0  0
  188.8340  178.0670  143.6610 C   0  0  0  0  0  3  0  0  0  0  0  0
  190.1160  177.4780  143.7740 C   0  0  0  0  0  3  0  0  0  0  0  0
  185.2680  179.4100  144.1120 N   0  0  0  0  0  0  0  0  0  0  0  0
  184.6670  179.2720  145.3180 O   0  0  0  0  0  0  0  0  0  0  0  0
  185.9170  178.7880  145.0930 C   0  0  0  0  0  0  0  0  0  0  0  0
  191.3230  175.7190  146.9800 C   0  0  0  0  0  0  0  0  0  0  0  0
  191.2650  175.2970  148.0550 N   0  0  0  0  0  0  0  0  0  0  0  0
  196.9170  171.7040  145.4620 C   0  0  0  0  0  2  0  0  0  0  0  0
  197.1900  170.2620  145.7600 C   0  0  0  0  0  0  0  0  0  0  0  0
  196.5970  169.6540  146.8570 O   0  0  0  0  0  1  0  0  0  0  0  0
  197.9410  169.5930  145.0040 O   0  0  0  0  0  0  0  0  0  0  0  0
  1  6  1  1  0  0  0
  1  4  1  0  0  0  0
  2 11  1  0  0  0  0
  3 12  1  0  0  0  0
  4 42  1  0  0  0  0
  4  5  1  1  0  0  0
  7  4  1  0  0  0  0
  9 14  1  1  0  0  0
  9 10  1  0  0  0  0
  9 12  1  0  0  0  0
 10  8  1  6  0  0  0
 10  2  1  0  0  0  0
 10  1  1  0  0  0  0
 11  6  1  0  0  0  0
 11 25  1  1  0  0  0
 12  7  1  0  0  0  0
 13 14  2  0  0  0  0
 14 15  1  0  0  0  0
 16 19  2  0  0  0  0
 16 20  1  0  0  0  0
 19 23  1  0  0  0  0
 20 17  1  0  0  0  0
 20 18  2  0  0  0  0
 21 16  1  0  0  0  0
 21 24  1  0  0  0  0
 23 18  1  0  0  0  0
 23 22  1  0  0  0  0
 24 15  1  1  0  0  0
 24 17  1  0  0  0  0
 25 26  1  6  0  0  0
 27 25  1  0  0  0  0
 27 28  2  0  0  0  0
 28 40  1  0  0  0  0
 30 28  1  0  0  0  0
 30 31  1  0  0  0  0
 31 29  1  0  0  0  0
 32 33  2  0  0  0  0
 33 29  1  0  0  0  0
 34 32  1  0  0  0  0
 34 31  1  0  0  0  0
 35 36  1  0  0  0  0
 35 34  2  0  0  0  0
 36 30  2  0  0  0  0
 37 39  2  0  0  0  0
 37 38  1  0  0  0  0
 39 38  1  0  0  0  0
 39 32  1  0  0  0  0
 40 41  3  0  0  0  0
 42 43  1  0  0  0  0
 43 44  1  0  0  0  0
 45 43  2  0  0  0  0
M  END
>  <MODEL>
7

>  <REMARK>
 VINA RESULT:      -7.2      3.253      9.265
  Name = 
  9 active torsions:
  status: ('A' for Active; 'I' for Inactive)
    1  A    between atoms: C_6  and  C_37
    2  A    between atoms: C_8  and  C_37
    3  A    between atoms: C_9  and  C_44
    4  A    between atoms: C_13  and  C_41
    5  A    between atoms: C_16  and  C_44
    6  A    between atoms: C_26  and  C_27
    7  A    between atoms: N_28  and  C_42
    8  A    between atoms: N_31  and  C_38
    9  A    between atoms: C_38  and  C_39
                            x       y       z     vdW  Elec       q    Type
                         _______ _______ _______ _____ _____    ______ ____

>  <TORSDO>
F 9

$$$$
=
 OpenBabel11042414173D

 45 51  0  0  1  0  0  0  0  0999 V2000
  195.7160  175.5860  143.1790 C   0  0  2  0  0  3  0  0  0  0  0  0
  193.5070  175.7290  142.4190 C   0  0  0  0  0  2  0  0  0  0  0  0
  195.6490  172.3870  140.4890 O   0  0  0  0  0  1  0  0  0  0  0  0
  196.1010  174.1460  143.6080 C   0  0  1  0  0  0  0  0  0  0  0  0
  194.9600  173.4650  144.3660 C   0  0  0  0  0  1  0  0  0  0  0  0
  195.0060  176.2410  144.2100 O   0  0  0  0  0  0  0  0  0  0  0  0
  196.4420  173.3150  142.3720 C   0  0  0  0  0  2  0  0  0  0  0  0
  195.1870  176.9390  141.2990 O   0  0  0  0  0  1  0  0  0  0  0  0
  195.1730  174.5880  140.8480 C   0  0  1  0  0  3  0  0  0  0  0  0
  194.9060  175.7040  141.8890 C   0  0  1  0  0  0  0  0  0  0  0  0
  193.6800  176.4250  143.7550 C   0  0  2  0  0  3  0  0  0  0  0  0
  195.3040  173.2640  141.4650 N   0  0  0  0  0  0  0  0  0  0  0  0
  194.3220  175.2910  138.7160 O   0  0  0  0  0  0  0  0  0  0  0  0
  194.1410  174.5940  139.7540 C   0  0  0  0  0  0  0  0  0  0  0  0
  192.9810  173.7620  139.8800 N   0  0  0  0  0  2  0  0  0  0  0  0
  190.5420  171.7270  138.5130 C   0  0  0  0  0  0  0  0  0  0  0  0
  192.5600  172.6350  137.7040 C   0  0  0  0  0  2  0  0  0  0  0  0
  191.6380  170.3110  137.2290 N   0  0  0  0  0  0  0  0  0  0  0  0
  190.0000  170.4760  138.7150 C   0  0  0  0  0  3  0  0  0  0  0  0
  191.5240  171.5920  137.6140 C   0  0  0  0  0  0  0  0  0  0  0  0
  190.7100  172.8980  139.3930 C   0  0  0  0  0  2  0  0  0  0  0  0
  190.4410  168.2330  137.7410 C   0  0  0  0  0  1  0  0  0  0  0  0
  190.6590  169.6630  137.8560 N   0  0  0  0  0  0  0  0  0  0  0  0
  191.9960  173.5470  138.8220 C   0  0  1  0  0  3  0  0  0  0  0  0
  192.6730  175.9090  144.7870 C   0  0  1  0  0  3  0  0  0  0  0  0
  193.1530  176.1610  146.2090 C   0  0  0  0  0  1  0  0  0  0  0  0
  191.3310  176.4660  144.5810 N   0  0  0  0  0  0  0  0  0  0  0  0
  190.2600  175.8200  144.2080 C   0  0  0  0  0  0  0  0  0  0  0  0
  187.8850  176.2790  146.2710 N   0  0  0  0  0  2  0  0  0  0  0  0
  188.9910  176.5590  144.0850 C   0  0  0  0  0  0  0  0  0  0  0  0
  188.0550  176.6860  145.0280 N   0  0  0  0  0  0  0  0  0  0  0  0
  186.1320  177.5200  145.5770 C   0  0  0  0  0  0  0  0  0  0  0  0
  186.6770  176.7910  146.6480 C   0  0  0  0  0  3  0  0  0  0  0  0
  187.0680  177.4050  144.5850 C   0  0  0  0  0  0  0  0  0  0  0  0
  187.2740  177.8200  143.2850 C   0  0  0  0  0  3  0  0  0  0  0  0
  188.5340  177.2630  142.9610 C   0  0  0  0  0  3  0  0  0  0  0  0
  183.9650  178.9530  144.8650 N   0  0  0  0  0  0  0  0  0  0  0  0
  183.7350  178.6640  146.1690 O   0  0  0  0  0  0  0  0  0  0  0  0
  184.8620  178.2380  145.5400 C   0  0  0  0  0  0  0  0  0  0  0  0
  190.2870  174.4000  143.9410 C   0  0  0  0  0  0  0  0  0  0  0  0
  190.3060  173.2640  143.7260 N   0  0  0  0  0  0  0  0  0  0  0  0
  197.3310  174.2550  144.5170 C   0  0  0  0  0  2  0  0  0  0  0  0
  197.3510  173.2610  145.6370 C   0  0  0  0  0  0  0  0  0  0  0  0
  197.5660  171.9170  145.3710 O   0  0  0  0  0  0  0  0  0  0  0  0
  197.1920  173.6470  146.8240 O   0  0  0  0  0  1  0  0  0  0  0  0
  1  4  1  0  0  0  0
  1  6  1  1  0  0  0
  2 11  1  0  0  0  0
  3 12  1  0  0  0  0
  4  5  1  1  0  0  0
  4 42  1  0  0  0  0
  7  4  1  0  0  0  0
  9 14  1  6  0  0  0
  9 12  1  0  0  0  0
  9 10  1  0  0  0  0
 10  8  1  6  0  0  0
 10  2  1  0  0  0  0
 10  1  1  0  0  0  0
 11  6  1  0  0  0  0
 11 25  1  1  0  0  0
 12  7  1  0  0  0  0
 13 14  2  0  0  0  0
 14 15  1  0  0  0  0
 16 19  2  0  0  0  0
 16 21  1  0  0  0  0
 17 24  1  0  0  0  0
 18 20  2  0  0  0  0
 18 23  1  0  0  0  0
 20 17  1  0  0  0  0
 20 16  1  0  0  0  0
 22 23  1  0  0  0  0
 23 19  1  0  0  0  0
 24 21  1  0  0  0  0
 24 15  1  1  0  0  0
 25 26  1  1  0  0  0
 27 25  1  0  0  0  0
 28 27  2  0  0  0  0
 29 33  1  0  0  0  0
 30 28  1  0  0  0  0
 30 31  1  0  0  0  0
 31 29  1  0  0  0  0
 32 33  2  0  0  0  0
 34 31  1  0  0  0  0
 34 32  1  0  0  0  0
 35 34  2  0  0  0  0
 36 35  1  0  0  0  0
 36 30  2  0  0  0  0
 37 39  2  0  0  0  0
 37 38  1  0  0  0  0
 39 32  1  0  0  0  0
 39 38  1  0  0  0  0
 40 28  1  0  0  0  0
 41 40  3  0  0  0  0
 42 43  1  0  0  0  0
 43 45  1  0  0  0  0
 44 43  2  0  0  0  0
M  END
>  <MODEL>
8

>  <REMARK>
 VINA RESULT:      -7.2      3.094      9.112
  Name = 
  9 active torsions:
  status: ('A' for Active; 'I' for Inactive)
    1  A    between atoms: C_6  and  C_37
    2  A    between atoms: C_8  and  C_37
    3  A    between atoms: C_9  and  C_44
    4  A    between atoms: C_13  and  C_41
    5  A    between atoms: C_16  and  C_44
    6  A    between atoms: C_26  and  C_27
    7  A    between atoms: N_28  and  C_42
    8  A    between atoms: N_31  and  C_38
    9  A    between atoms: C_38  and  C_39
                            x       y       z     vdW  Elec       q    Type
                         _______ _______ _______ _____ _____    ______ ____

>  <TORSDO>
F 9

$$$$
=
 OpenBabel11042414173D

 45 51  0  0  1  0  0  0  0  0999 V2000
  193.2630  175.1590  143.4980 C   0  0  2  0  0  3  0  0  0  0  0  0
  191.0330  175.4280  142.8390 C   0  0  0  0  0  2  0  0  0  0  0  0
  191.7710  171.3520  144.3630 O   0  0  0  0  0  1  0  0  0  0  0  0
  193.3910  174.5300  144.9100 C   0  0  1  0  0  0  0  0  0  0  0  0
  192.3470  175.1020  145.8720 C   0  0  0  0  0  1  0  0  0  0  0  0
  193.0090  176.5460  143.5900 O   0  0  0  0  0  0  0  0  0  0  0  0
  193.2050  173.0170  144.8180 C   0  0  0  0  0  2  0  0  0  0  0  0
  192.6190  174.7020  141.2570 O   0  0  0  0  0  1  0  0  0  0  0  0
  191.9360  173.0340  142.8320 C   0  0  1  0  0  3  0  0  0  0  0  0
  192.2090  174.5390  142.5830 C   0  0  1  0  0  0  0  0  0  0  0  0
  191.6940  176.7640  143.1180 C   0  0  2  0  0  3  0  0  0  0  0  0
  191.8990  172.6980  144.2600 N   0  0  0  0  0  0  0  0  0  0  0  0
  189.6000  172.4870  142.7420 O   0  0  0  0  0  0  0  0  0  0  0  0
  190.6950  172.5710  142.1180 C   0  0  0  0  0  0  0  0  0  0  0  0
  190.7610  172.2810  140.7170 N   0  0  0  0  0  2  0  0  0  0  0  0
  189.2250  172.5840  137.6330 C   0  0  0  0  0  0  0  0  0  0  0  0
  188.6230  173.1900  139.8300 C   0  0  0  0  0  2  0  0  0  0  0  0
  188.1800  174.5240  137.7080 N   0  0  0  0  0  0  0  0  0  0  0  0
  189.4330  173.2170  136.4260 C   0  0  0  0  0  3  0  0  0  0  0  0
  188.4670  173.3980  138.3800 C   0  0  0  0  0  0  0  0  0  0  0  0
  190.0440  171.6530  138.4280 C   0  0  0  0  0  2  0  0  0  0  0  0
  188.6640  175.3730  135.4590 C   0  0  0  0  0  1  0  0  0  0  0  0
  188.7160  174.3630  136.5010 N   0  0  0  0  0  0  0  0  0  0  0  0
  189.6020  171.9900  139.8750 C   0  0  1  0  0  3  0  0  0  0  0  0
  190.8830  177.5880  144.1230 C   0  0  1  0  0  3  0  0  0  0  0  0
  191.4320  179.0010  144.2560 C   0  0  0  0  0  1  0  0  0  0  0  0
  189.4530  177.6100  143.7980 N   0  0  0  0  0  0  0  0  0  0  0  0
  188.4550  177.4880  144.6300 C   0  0  0  0  0  0  0  0  0  0  0  0
  187.3450  178.0380  141.7030 N   0  0  0  0  0  2  0  0  0  0  0  0
  187.0790  177.5650  144.1090 C   0  0  0  0  0  0  0  0  0  0  0  0
  186.7260  177.8060  142.8440 N   0  0  0  0  0  0  0  0  0  0  0  0
  185.1060  178.0440  141.4260 C   0  0  0  0  0  0  0  0  0  0  0  0
  186.3470  178.1930  140.7840 C   0  0  0  0  0  3  0  0  0  0  0  0
  185.4320  177.8010  142.7330 C   0  0  0  0  0  0  0  0  0  0  0  0
  184.8100  177.5510  143.9400 C   0  0  0  0  0  3  0  0  0  0  0  0
  185.8930  177.3990  144.8380 C   0  0  0  0  0  3  0  0  0  0  0  0
  182.7730  177.5450  140.1720 N   0  0  0  0  0  0  0  0  0  0  0  0
  182.6620  178.8460  140.5360 O   0  0  0  0  0  0  0  0  0  0  0  0
  183.7760  178.1250  140.8280 C   0  0  0  0  0  0  0  0  0  0  0  0
  188.6710  177.3050  146.0490 C   0  0  0  0  0  0  0  0  0  0  0  0
  188.8420  177.1620  147.1830 N   0  0  0  0  0  0  0  0  0  0  0  0
  194.7980  174.8520  145.4270 C   0  0  0  0  0  2  0  0  0  0  0  0
  195.8660  174.7660  144.3810 C   0  0  0  0  0  0  0  0  0  0  0  0
  196.4120  175.9240  143.8460 O   0  0  0  0  0  0  0  0  0  0  0  0
  196.2850  173.6420  143.9990 O   0  0  0  0  0  1  0  0  0  0  0  0
  1  6  1  1  0  0  0
  1  4  1  0  0  0  0
  2 11  1  0  0  0  0
  4 42  1  0  0  0  0
  4  5  1  1  0  0  0
  7  4  1  0  0  0  0
  9 14  1  1  0  0  0
  9 12  1  0  0  0  0
 10  8  1  6  0  0  0
 10  9  1  0  0  0  0
 10  2  1  0  0  0  0
 10  1  1  0  0  0  0
 11  6  1  0  0  0  0
 11 25  1  1  0  0  0
 12  3  1  0  0  0  0
 12  7  1  0  0  0  0
 14 13  2  0  0  0  0
 15 14  1  0  0  0  0
 16 20  1  0  0  0  0
 16 21  1  0  0  0  0
 17 24  1  0  0  0  0
 18 20  2  0  0  0  0
 19 23  1  0  0  0  0
 19 16  2  0  0  0  0
 20 17  1  0  0  0  0
 21 24  1  0  0  0  0
 22 23  1  0  0  0  0
 23 18  1  0  0  0  0
 24 15  1  1  0  0  0
 25 26  1  6  0  0  0
 27 25  1  0  0  0  0
 27 28  2  0  0  0  0
 28 40  1  0  0  0  0
 29 31  1  0  0  0  0
 30 28  1  0  0  0  0
 30 36  2  0  0  0  0
 31 30  1  0  0  0  0
 32 34  1  0  0  0  0
 33 32  2  0  0  0  0
 33 29  1  0  0  0  0
 34 31  1  0  0  0  0
 34 35  2  0  0  0  0
 35 36  1  0  0  0  0
 37 38  1  0  0  0  0
 37 39  2  0  0  0  0
 38 39  1  0  0  0  0
 39 32  1  0  0  0  0
 40 41  3  0  0  0  0
 43 42  1  0  0  0  0
 44 43  2  0  0  0  0
 45 43  1  0  0  0  0
M  END
>  <MODEL>
9

>  <REMARK>
 VINA RESULT:      -7.1      2.860      7.980
  Name = 
  9 active torsions:
  status: ('A' for Active; 'I' for Inactive)
    1  A    between atoms: C_6  and  C_37
    2  A    between atoms: C_8  and  C_37
    3  A    between atoms: C_9  and  C_44
    4  A    between atoms: C_13  and  C_41
    5  A    between atoms: C_16  and  C_44
    6  A    between atoms: C_26  and  C_27
    7  A    between atoms: N_28  and  C_42
    8  A    between atoms: N_31  and  C_38
    9  A    between atoms: C_38  and  C_39
                            x       y       z     vdW  Elec       q    Type
                         _______ _______ _______ _____ _____    ______ ____

>  <TORSDO>
F 9

$$$$
