=
 OpenBabel11042416053D

 64 71  0  0  1  0  0  0  0  0999 V2000
  187.6870  177.9120  144.3680 C   0  0  2  0  0  3  0  0  0  0  0  0
  185.9600  177.3800  142.1290 C   0  0  0  0  0  3  0  0  0  0  0  0
  184.0350  178.2870  143.4050 C   0  0  0  0  0  3  0  0  0  0  0  0
  185.6850  178.9490  145.5410 C   0  0  0  0  0  0  0  0  0  0  0  0
  183.5220  178.8920  144.5540 C   0  0  0  0  0  3  0  0  0  0  0  0
  185.4000  178.0190  143.3270 C   0  0  0  0  0  0  0  0  0  0  0  0
  184.3520  179.2100  145.5830 N   0  0  0  0  0  0  0  0  0  0  0  0
  187.2800  177.2470  142.0070 C   0  0  0  0  0  0  0  0  0  0  0  0
  186.4100  179.2440  146.5250 O   0  0  0  0  0  0  0  0  0  0  0  0
  186.2420  178.3440  144.4040 C   0  0  2  0  0  3  0  0  0  0  0  0
  188.1330  177.7180  143.0200 O   0  0  0  0  0  0  0  0  0  0  0  0
  188.3570  174.6250  139.5800 C   0  0  1  0  0  3  0  0  0  0  0  0
  188.0600  174.6480  137.2030 O   0  0  0  0  0  1  0  0  0  0  0  0
  187.1560  177.1280  139.5530 C   0  0  0  0  0  3  0  0  0  0  0  0
  186.9930  176.3710  138.4540 C   0  0  0  0  0  3  0  0  0  0  0  0
  187.4160  174.9220  138.4150 C   0  0  2  0  0  3  0  0  0  0  0  0
  190.2760  173.3940  141.4400 C   0  0  0  0  0  2  0  0  0  0  0  0
  189.8700  174.6650  141.8740 O   0  0  0  0  0  0  0  0  0  0  0  0
  187.7590  175.1110  140.8400 N   0  0  2  0  0  0  0  0  0  0  0  0
  188.7010  173.2670  139.6340 O   0  0  0  0  0  0  0  0  0  0  0  0
  190.0690  173.2870  139.9270 C   0  0  2  0  0  3  0  0  0  0  0  0
  187.8440  176.5840  140.7880 C   0  0  2  0  0  3  0  0  0  0  0  0
  188.4750  174.5870  142.0230 C   0  0  0  0  0  2  0  0  0  0  0  0
  190.7940  172.1310  139.2200 C   0  0  2  0  0  3  0  0  0  0  0  0
  191.0290  170.9000  140.1100 C   0  0  0  0  0  1  0  0  0  0  0  0
  193.0910  172.0190  139.2090 O   0  0  0  0  0  1  0  0  0  0  0  0
  192.0360  172.6470  138.6280 N   0  0  0  0  0  0  0  0  0  0  0  0
  192.8710  171.0440  136.6750 O   0  0  0  0  0  0  0  0  0  0  0  0
  190.7200  172.1910  136.3490 O   0  0  0  0  0  0  0  0  0  0  0  0
  192.1100  172.3210  136.9180 S   0  0  0  0  0  0  0  0  0  0  0  0
  193.4060  174.7070  137.1540 C   0  0  0  0  0  2  0  0  0  0  0  0
  193.0270  176.0500  136.7190 N   0  0  0  0  0  2  0  0  0  0  0  0
  191.9040  174.4860  134.9080 S   0  0  0  0  0  0  0  0  0  0  0  0
  191.9870  177.2020  134.8490 C   0  0  0  0  0  1  0  0  0  0  0  0
  192.8040  176.0000  135.2830 C   0  0  1  0  0  3  0  0  0  0  0  0
  192.9630  173.6730  136.1270 C   0  0  2  0  0  3  0  0  0  0  0  0
  187.8200  176.6650  145.1070 N   0  0  0  0  0  2  0  0  0  0  0  0
  191.2310  176.9470  148.6430 F   0  0  0  0  0  0  0  0  0  0  0  0
  190.6840  176.3210  147.5380 C   0  0  2  0  0  0  0  0  0  0  0  0
  189.3210  176.7690  147.0220 C   0  0  2  0  0  3  0  0  0  0  0  0
  191.7200  176.0640  144.2600 C   0  0  0  0  0  1  0  0  0  0  0  0
  189.2080  176.5240  145.5200 C   0  0  1  0  0  3  0  0  0  0  0  0
  189.6480  175.2230  145.2000 O   0  0  0  0  0  0  0  0  0  0  0  0
  190.7420  174.9220  147.6910 O   0  0  0  0  0  0  0  0  0  0  0  0
  189.1510  178.1300  147.2840 O   0  0  0  0  0  1  0  0  0  0  0  0
  191.0610  175.1480  145.2910 C   0  0  2  0  0  0  0  0  0  0  0  0
  191.5900  175.4830  146.7100 C   0  0  1  0  0  3  0  0  0  0  0  0
  191.4460  173.7040  144.9560 C   0  0  0  0  0  2  0  0  0  0  0  0
  192.7950  173.5810  144.2570 C   0  0  0  0  0  2  0  0  0  0  0  0
  193.8080  172.9890  145.2170 C   0  0  0  0  0  2  0  0  0  0  0  0
  195.1690  172.8690  144.5500 C   0  0  2  0  0  3  0  0  0  0  0  0
  196.8070  171.0400  144.0640 O   0  0  0  0  0  0  0  0  0  0  0  0
  195.2920  170.8290  145.7700 O   0  0  0  0  0  1  0  0  0  0  0  0
  195.7560  171.5290  144.8330 C   0  0  0  0  0  0  0  0  0  0  0  0
  196.9020  173.7510  146.4140 O   0  0  0  0  0  0  0  0  0  0  0  0
  196.2740  174.1620  145.1100 S   0  0  0  0  0  0  0  0  0  0  0  0
  195.4860  175.4260  145.3120 O   0  0  0  0  0  0  0  0  0  0  0  0
  197.5140  174.4070  143.9190 N   0  0  0  0  0  2  0  0  0  0  0  0
  197.9410  175.5390  141.5420 O   0  0  0  0  0  0  0  0  0  0  0  0
  196.9310  175.5020  142.6690 P   0  0  2  0  0  0  0  0  0  0  0  0
  196.7640  177.0690  143.2920 O   0  0  0  0  0  1  0  0  0  0  0  0
  195.0240  175.6500  140.6980 C   0  0  0  0  0  2  0  0  0  0  0  0
  195.3210  174.9550  142.0140 C   0  0  0  0  0  3  0  0  0  0  0  0
  194.3660  176.1320  141.9690 C   0  0  0  0  0  2  0  0  0  0  0  0
  1 10  1  0  0  0  0
  1 37  1  1  0  0  0
  2  6  1  0  0  0  0
  3  5  1  0  0  0  0
  4  7  1  0  0  0  0
  4  9  2  0  0  0  0
  5  7  2  0  0  0  0
  6  3  2  0  0  0  0
  8  2  2  0  0  0  0
  8 11  1  0  0  0  0
 10  6  1  1  0  0  0
 10  4  1  0  0  0  0
 11  1  1  0  0  0  0
 12 20  1  1  0  0  0
 12 19  1  0  0  0  0
 14 22  1  0  0  0  0
 15 14  2  0  0  0  0
 16 13  1  6  0  0  0
 16 15  1  0  0  0  0
 16 12  1  0  0  0  0
 17 18  1  0  0  0  0
 18 23  1  0  0  0  0
 19 23  1  1  0  0  0
 20 21  1  0  0  0  0
 21 24  1  1  0  0  0
 21 17  1  0  0  0  0
 22 19  1  0  0  0  0
 22  8  1  1  0  0  0
 24 25  1  1  0  0  0
 27 26  1  0  0  0  0
 27 24  1  0  0  0  0
 28 30  2  0  0  0  0
 29 30  2  0  0  0  0
 30 27  1  0  0  0  0
 32 31  1  0  0  0  0
 33 35  1  0  0  0  0
 33 36  1  0  0  0  0
 35 34  1  1  0  0  0
 35 32  1  0  0  0  0
 36 30  1  1  0  0  0
 36 31  1  0  0  0  0
 39 44  1  0  0  0  0
 39 38  1  1  0  0  0
 40 45  1  6  0  0  0
 40 39  1  0  0  0  0
 42 37  1  1  0  0  0
 42 40  1  0  0  0  0
 43 46  1  0  0  0  0
 43 42  1  0  0  0  0
 46 41  1  6  0  0  0
 46 47  1  0  0  0  0
 47 39  1  0  0  0  0
 47 44  1  1  0  0  0
 48 46  1  0  0  0  0
 49 48  1  0  0  0  0
 49 50  1  0  0  0  0
 51 54  1  0  0  0  0
 51 56  1  0  0  0  0
 51 50  1  1  0  0  0
 52 54  2  0  0  0  0
 54 53  1  0  0  0  0
 56 57  2  0  0  0  0
 56 55  2  0  0  0  0
 58 56  1  0  0  0  0
 60 59  2  6  0  0  0
 60 61  1  0  0  0  0
 60 58  1  0  0  0  0
 62 64  1  0  0  0  0
 62 63  1  0  0  0  0
 63 60  1  0  0  0  0
 64 63  1  0  0  0  0
M  END
>  <MODEL>
1

>  <REMARK>
 VINA RESULT:      -7.3      0.000      0.000
  Name = 
  16 active torsions:
  status: ('A' for Active; 'I' for Inactive)
    1  A    between atoms: C_1  and  N_43
    2  A    between atoms: C_6  and  C_50
    3  A    between atoms: C_6  and  C_56
    4  A    between atoms: C_7  and  N_41
    5  A    between atoms: C_7  and  C_51
    6  A    between atoms: P_15  and  C_22
    7  A    between atoms: P_15  and  N_64
    8  A    between atoms: C_32  and  C_52
    9  A    between atoms: C_38  and  N_43
   10  A    between atoms: N_41  and  S_57
   11  A    between atoms: S_46  and  C_62
   12  A    between atoms: S_46  and  N_64
   13  A    between atoms: C_49  and  C_62
   14  A    between atoms: C_56  and  C_63
   15  A    between atoms: S_57  and  C_59
   16  A    between atoms: C_62  and  C_63
                            x       y       z     vdW  Elec       q    Type
                         _______ _______ _______ _____ _____    ______ ____

>  <TORSDO>
F 16

$$$$
=
 OpenBabel11042416053D

 64 71  0  0  1  0  0  0  0  0999 V2000
  195.4780  173.2670  142.4520 C   0  0  2  0  0  3  0  0  0  0  0  0
  195.4310  176.1440  142.4540 C   0  0  0  0  0  3  0  0  0  0  0  0
  196.9510  176.1650  140.4940 C   0  0  0  0  0  3  0  0  0  0  0  0
  196.9190  173.3890  140.3620 C   0  0  0  0  0  0  0  0  0  0  0  0
  197.6730  175.4790  139.5150 C   0  0  0  0  0  3  0  0  0  0  0  0
  196.1950  175.4420  141.4140 C   0  0  0  0  0  0  0  0  0  0  0  0
  197.6360  174.1210  139.4690 N   0  0  0  0  0  0  0  0  0  0  0  0
  194.6090  175.4570  143.2460 C   0  0  0  0  0  0  0  0  0  0  0  0
  196.9300  172.1340  140.2920 O   0  0  0  0  0  0  0  0  0  0  0  0
  196.1760  174.0390  141.3600 C   0  0  2  0  0  3  0  0  0  0  0  0
  194.4720  174.0670  143.0850 O   0  0  0  0  0  0  0  0  0  0  0  0
  191.9160  176.3860  145.6570 C   0  0  1  0  0  3  0  0  0  0  0  0
  192.1930  177.0750  147.9340 O   0  0  0  0  0  1  0  0  0  0  0  0
  194.6880  176.2720  145.5650 C   0  0  0  0  0  3  0  0  0  0  0  0
  194.1280  176.2950  146.7870 C   0  0  0  0  0  3  0  0  0  0  0  0
  192.6370  176.1510  146.9820 C   0  0  2  0  0  3  0  0  0  0  0  0
  189.9050  176.8440  143.5590 C   0  0  0  0  0  2  0  0  0  0  0  0
  191.2050  176.7830  143.0320 O   0  0  0  0  0  0  0  0  0  0  0  0
  192.5320  175.5580  144.6010 N   0  0  2  0  0  0  0  0  0  0  0  0
  190.5360  176.1720  145.7740 O   0  0  0  0  0  0  0  0  0  0  0  0
  189.9770  177.2240  145.0390 C   0  0  2  0  0  3  0  0  0  0  0  0
  193.8420  176.1760  144.3130 C   0  0  2  0  0  3  0  0  0  0  0  0
  191.6960  175.5140  143.3820 C   0  0  0  0  0  2  0  0  0  0  0  0
  188.6670  177.7040  145.6850 C   0  0  2  0  0  3  0  0  0  0  0  0
  188.7840  178.0070  147.1870 C   0  0  0  0  0  1  0  0  0  0  0  0
  187.4940  175.8720  146.4330 O   0  0  0  0  0  1  0  0  0  0  0  0
  187.6100  176.7280  145.3840 N   0  0  0  0  0  0  0  0  0  0  0  0
  185.1340  177.1010  146.2820 O   0  0  0  0  0  0  0  0  0  0  0  0
  186.2300  179.0060  145.1790 O   0  0  0  0  0  0  0  0  0  0  0  0
  186.0660  177.5070  145.1710 S   0  0  0  0  0  0  0  0  0  0  0  0
  186.4930  176.6910  142.6070 C   0  0  0  0  0  2  0  0  0  0  0  0
  186.2110  177.3490  141.3320 N   0  0  0  0  0  2  0  0  0  0  0  0
  184.2950  178.2470  142.9170 S   0  0  0  0  0  0  0  0  0  0  0  0
  184.5070  178.7000  140.2460 C   0  0  0  0  0  1  0  0  0  0  0  0
  184.7860  177.6400  141.2940 C   0  0  1  0  0  3  0  0  0  0  0  0
  185.3840  176.9810  143.6100 C   0  0  2  0  0  3  0  0  0  0  0  0
  196.4660  172.8580  143.4400 N   0  0  0  0  0  2  0  0  0  0  0  0
  195.1640  169.5650  146.8570 F   0  0  0  0  0  0  0  0  0  0  0  0
  195.1190  170.0440  145.5610 C   0  0  2  0  0  0  0  0  0  0  0  0
  195.7040  171.4180  145.2500 C   0  0  2  0  0  3  0  0  0  0  0  0
  196.4960  168.9080  142.6120 C   0  0  0  0  0  1  0  0  0  0  0  0
  196.2000  171.4760  143.8070 C   0  0  1  0  0  3  0  0  0  0  0  0
  195.2280  170.9510  142.9320 O   0  0  0  0  0  0  0  0  0  0  0  0
  193.8200  169.9070  145.0350 O   0  0  0  0  0  0  0  0  0  0  0  0
  196.7670  171.6750  146.1170 O   0  0  0  0  0  1  0  0  0  0  0  0
  195.1740  169.5380  143.0500 C   0  0  2  0  0  0  0  0  0  0  0  0
  194.8130  169.0690  144.4820 C   0  0  1  0  0  3  0  0  0  0  0  0
  194.0810  169.0590  142.0900 C   0  0  0  0  0  2  0  0  0  0  0  0
  194.5670  168.8790  140.6570 C   0  0  0  0  0  2  0  0  0  0  0  0
  194.1080  170.0550  139.8180 C   0  0  0  0  0  2  0  0  0  0  0  0
  192.5940  170.0520  139.6760 C   0  0  2  0  0  3  0  0  0  0  0  0
  190.8950  168.7660  138.3620 O   0  0  0  0  0  1  0  0  0  0  0  0
  193.0490  168.9680  137.6070 O   0  0  0  0  0  0  0  0  0  0  0  0
  192.1970  169.2380  138.4920 C   0  0  0  0  0  0  0  0  0  0  0  0
  191.7660  172.0480  138.0690 O   0  0  0  0  0  0  0  0  0  0  0  0
  191.9600  171.7190  139.5250 S   0  0  0  0  0  0  0  0  0  0  0  0
  192.9520  172.6770  140.1250 O   0  0  0  0  0  0  0  0  0  0  0  0
  190.4380  171.8280  140.3550 N   0  0  0  0  0  2  0  0  0  0  0  0
  191.9080  171.7320  142.5780 O   0  0  0  0  0  1  0  0  0  0  0  0
  190.6100  171.2140  141.9960 P   0  0  2  0  0  0  0  0  0  0  0  0
  190.6640  169.5210  141.9870 O   0  0  0  0  0  0  0  0  0  0  0  0
  189.3550  173.2290  143.3770 C   0  0  0  0  0  2  0  0  0  0  0  0
  189.2240  171.7530  143.0480 C   0  0  0  0  0  3  0  0  0  0  0  0
  189.7550  172.1910  144.4000 C   0  0  0  0  0  2  0  0  0  0  0  0
  1 11  1  0  0  0  0
  1 37  1  1  0  0  0
  2  8  2  0  0  0  0
  3  6  2  0  0  0  0
  5  3  1  0  0  0  0
  6  2  1  0  0  0  0
  7  5  2  0  0  0  0
  7  4  1  0  0  0  0
  9  4  2  0  0  0  0
 10  4  1  1  0  0  0
 10  6  1  0  0  0  0
 10  1  1  0  0  0  0
 11  8  1  0  0  0  0
 12 20  1  1  0  0  0
 12 16  1  0  0  0  0
 14 15  2  0  0  0  0
 15 16  1  0  0  0  0
 16 13  1  1  0  0  0
 17 21  1  0  0  0  0
 18 23  1  0  0  0  0
 18 17  1  0  0  0  0
 19 23  1  6  0  0  0
 19 12  1  0  0  0  0
 21 24  1  1  0  0  0
 21 20  1  0  0  0  0
 22  8  1  6  0  0  0
 22 19  1  0  0  0  0
 22 14  1  0  0  0  0
 24 25  1  1  0  0  0
 27 24  1  0  0  0  0
 27 26  1  0  0  0  0
 30 29  2  0  0  0  0
 30 27  1  0  0  0  0
 30 28  2  0  0  0  0
 31 36  1  0  0  0  0
 32 31  1  0  0  0  0
 33 36  1  0  0  0  0
 35 34  1  6  0  0  0
 35 32  1  0  0  0  0
 35 33  1  0  0  0  0
 36 30  1  1  0  0  0
 39 38  1  1  0  0  0
 40 39  1  0  0  0  0
 40 45  1  1  0  0  0
 42 37  1  6  0  0  0
 42 40  1  0  0  0  0
 43 46  1  0  0  0  0
 43 42  1  0  0  0  0
 44 39  1  0  0  0  0
 46 41  1  6  0  0  0
 46 47  1  0  0  0  0
 47 44  1  6  0  0  0
 47 39  1  0  0  0  0
 48 46  1  0  0  0  0
 49 48  1  0  0  0  0
 50 49  1  0  0  0  0
 51 50  1  6  0  0  0
 52 54  1  0  0  0  0
 53 54  2  0  0  0  0
 54 51  1  0  0  0  0
 55 56  2  0  0  0  0
 56 51  1  0  0  0  0
 56 57  2  0  0  0  0
 56 58  1  0  0  0  0
 58 60  1  0  0  0  0
 60 61  2  6  0  0  0
 60 59  1  0  0  0  0
 60 63  1  0  0  0  0
 62 64  1  0  0  0  0
 63 62  1  0  0  0  0
 63 64  1  0  0  0  0
M  END
>  <MODEL>
2

>  <REMARK>
 VINA RESULT:      -7.1      3.412      9.238
  Name = 
  16 active torsions:
  status: ('A' for Active; 'I' for Inactive)
    1  A    between atoms: C_1  and  N_43
    2  A    between atoms: C_6  and  C_50
    3  A    between atoms: C_6  and  C_56
    4  A    between atoms: C_7  and  N_41
    5  A    between atoms: C_7  and  C_51
    6  A    between atoms: P_15  and  C_22
    7  A    between atoms: P_15  and  N_64
    8  A    between atoms: C_32  and  C_52
    9  A    between atoms: C_38  and  N_43
   10  A    between atoms: N_41  and  S_57
   11  A    between atoms: S_46  and  C_62
   12  A    between atoms: S_46  and  N_64
   13  A    between atoms: C_49  and  C_62
   14  A    between atoms: C_56  and  C_63
   15  A    between atoms: S_57  and  C_59
   16  A    between atoms: C_62  and  C_63
                            x       y       z     vdW  Elec       q    Type
                         _______ _______ _______ _____ _____    ______ ____

>  <TORSDO>
F 16

$$$$
=
 OpenBabel11042416053D

 64 71  0  0  1  0  0  0  0  0999 V2000
  187.3150  176.7200  144.9630 C   0  0  2  0  0  3  0  0  0  0  0  0
  189.2160  177.4870  146.9820 C   0  0  0  0  0  3  0  0  0  0  0  0
  187.4900  178.9070  148.0590 C   0  0  0  0  0  3  0  0  0  0  0  0
  185.5790  178.0900  146.2150 C   0  0  0  0  0  0  0  0  0  0  0  0
  186.1780  179.3840  148.1170 C   0  0  0  0  0  3  0  0  0  0  0  0
  187.8410  177.9990  147.0630 C   0  0  0  0  0  0  0  0  0  0  0  0
  185.2610  178.9650  147.2050 N   0  0  0  0  0  0  0  0  0  0  0  0
  189.5110  176.5220  146.1130 C   0  0  0  0  0  0  0  0  0  0  0  0
  184.7010  177.7450  145.3830 O   0  0  0  0  0  0  0  0  0  0  0  0
  186.8840  177.5830  146.1230 C   0  0  2  0  0  3  0  0  0  0  0  0
  188.5110  175.9950  145.2780 O   0  0  0  0  0  0  0  0  0  0  0  0
  193.1080  176.1940  145.1730 C   0  0  1  0  0  3  0  0  0  0  0  0
  194.9380  175.6730  146.6280 O   0  0  0  0  0  1  0  0  0  0  0  0
  191.5020  175.9090  147.4200 C   0  0  0  0  0  3  0  0  0  0  0  0
  192.8180  176.0710  147.6380 C   0  0  0  0  0  3  0  0  0  0  0  0
  193.7710  176.4390  146.5260 C   0  0  2  0  0  3  0  0  0  0  0  0
  192.5430  175.8430  142.3070 C   0  0  0  0  0  2  0  0  0  0  0  0
  191.3910  175.6750  143.0900 O   0  0  0  0  0  0  0  0  0  0  0  0
  191.7760  176.8320  145.1480 N   0  0  2  0  0  0  0  0  0  0  0  0
  193.9240  176.6090  144.1130 O   0  0  0  0  0  0  0  0  0  0  0  0
  193.7820  175.5870  143.1680 C   0  0  2  0  0  3  0  0  0  0  0  0
  190.9170  176.0130  146.0260 C   0  0  2  0  0  3  0  0  0  0  0  0
  191.2210  176.8870  143.7790 C   0  0  0  0  0  2  0  0  0  0  0  0
  195.1010  175.3540  142.4140 C   0  0  2  0  0  3  0  0  0  0  0  0
  196.3550  175.7630  143.2040 C   0  0  0  0  0  1  0  0  0  0  0  0
  195.6200  177.2290  141.1870 O   0  0  0  0  0  1  0  0  0  0  0  0
  195.0170  176.0140  141.1040 N   0  0  0  0  0  0  0  0  0  0  0  0
  197.1800  175.7350  139.5820 O   0  0  0  0  0  0  0  0  0  0  0  0
  196.0580  173.6800  140.3330 O   0  0  0  0  0  0  0  0  0  0  0  0
  195.8460  175.1000  139.8750 S   0  0  0  0  0  0  0  0  0  0  0  0
  193.4670  174.5430  138.6710 C   0  0  0  0  0  2  0  0  0  0  0  0
  193.1160  173.5530  137.6540 N   0  0  0  0  0  2  0  0  0  0  0  0
  195.6260  174.1510  137.0790 S   0  0  0  0  0  0  0  0  0  0  0  0
  193.9800  172.5660  135.6080 C   0  0  0  0  0  1  0  0  0  0  0  0
  193.9590  173.7960  136.4950 C   0  0  1  0  0  3  0  0  0  0  0  0
  194.8500  175.1170  138.3960 C   0  0  2  0  0  3  0  0  0  0  0  0
  187.5550  177.5740  143.8090 N   0  0  0  0  0  2  0  0  0  0  0  0
  185.3460  177.5410  139.4110 F   0  0  0  0  0  0  0  0  0  0  0  0
  186.3750  177.1550  140.2500 C   0  0  2  0  0  0  0  0  0  0  0  0
  186.5060  177.8060  141.6230 C   0  0  2  0  0  3  0  0  0  0  0  0
  187.1720  174.1410  141.7220 C   0  0  0  0  0  1  0  0  0  0  0  0
  187.1620  176.8460  142.6120 C   0  0  1  0  0  3  0  0  0  0  0  0
  188.3090  176.2600  142.0390 O   0  0  0  0  0  0  0  0  0  0  0  0
  187.6000  177.1670  139.5560 O   0  0  0  0  0  0  0  0  0  0  0  0
  185.2390  178.1580  142.0910 O   0  0  0  0  0  1  0  0  0  0  0  0
  187.9340  175.2940  141.0700 C   0  0  2  0  0  0  0  0  0  0  0  0
  187.0950  175.8980  139.9150 C   0  0  1  0  0  3  0  0  0  0  0  0
  189.2340  174.7320  140.4850 C   0  0  0  0  0  2  0  0  0  0  0  0
  189.0140  173.8090  139.2920 C   0  0  0  0  0  2  0  0  0  0  0  0
  189.1710  172.3680  139.7340 C   0  0  0  0  0  2  0  0  0  0  0  0
  190.5450  171.8390  139.3520 C   0  0  2  0  0  3  0  0  0  0  0  0
  191.3680  170.7080  137.2760 O   0  0  0  0  0  0  0  0  0  0  0  0
  189.4220  170.0350  138.2790 O   0  0  0  0  0  1  0  0  0  0  0  0
  190.4120  170.8110  138.2800 C   0  0  0  0  0  0  0  0  0  0  0  0
  192.5550  170.3240  140.3100 O   0  0  0  0  0  0  0  0  0  0  0  0
  191.3850  171.1490  140.7740 S   0  0  0  0  0  0  0  0  0  0  0  0
  190.4260  170.2730  141.5320 O   0  0  0  0  0  0  0  0  0  0  0  0
  191.9490  172.4430  141.7860 N   0  0  0  0  0  2  0  0  0  0  0  0
  193.6480  172.2120  143.8280 O   0  0  0  0  0  1  0  0  0  0  0  0
  192.2400  171.8410  143.4150 P   0  0  2  0  0  0  0  0  0  0  0  0
  192.0970  170.1540  143.4520 O   0  0  0  0  0  0  0  0  0  0  0  0
  189.7480  171.7930  144.5690 C   0  0  0  0  0  2  0  0  0  0  0  0
  191.0580  172.5590  144.6020 C   0  0  0  0  0  3  0  0  0  0  0  0
  189.8630  173.1170  143.8520 C   0  0  0  0  0  2  0  0  0  0  0  0
  1 37  1  6  0  0  0
  1 11  1  0  0  0  0
  1 10  1  0  0  0  0
  2  6  1  0  0  0  0
  3  5  1  0  0  0  0
  4  7  1  0  0  0  0
  6  3  2  0  0  0  0
  7  5  2  0  0  0  0
  8  2  2  0  0  0  0
  9  4  2  0  0  0  0
 10  4  1  6  0  0  0
 10  6  1  0  0  0  0
 11  8  1  0  0  0  0
 12 20  1  6  0  0  0
 12 16  1  0  0  0  0
 14 15  2  0  0  0  0
 16 13  1  6  0  0  0
 16 15  1  0  0  0  0
 17 18  1  0  0  0  0
 17 21  1  0  0  0  0
 18 23  1  0  0  0  0
 19 23  1  6  0  0  0
 19 12  1  0  0  0  0
 19 22  1  0  0  0  0
 21 24  1  6  0  0  0
 21 20  1  0  0  0  0
 22  8  1  1  0  0  0
 22 14  1  0  0  0  0
 24 25  1  1  0  0  0
 27 26  1  0  0  0  0
 27 24  1  0  0  0  0
 28 30  2  0  0  0  0
 30 29  2  0  0  0  0
 30 27  1  0  0  0  0
 32 31  1  0  0  0  0
 33 36  1  0  0  0  0
 35 34  1  6  0  0  0
 35 33  1  0  0  0  0
 35 32  1  0  0  0  0
 36 31  1  0  0  0  0
 36 30  1  1  0  0  0
 39 38  1  6  0  0  0
 39 40  1  0  0  0  0
 40 45  1  1  0  0  0
 40 42  1  0  0  0  0
 42 37  1  1  0  0  0
 43 42  1  0  0  0  0
 44 39  1  0  0  0  0
 46 41  1  1  0  0  0
 46 43  1  0  0  0  0
 47 44  1  6  0  0  0
 47 39  1  0  0  0  0
 47 46  1  0  0  0  0
 48 46  1  0  0  0  0
 49 50  1  0  0  0  0
 49 48  1  0  0  0  0
 51 50  1  1  0  0  0
 51 56  1  0  0  0  0
 52 54  2  0  0  0  0
 53 54  1  0  0  0  0
 54 51  1  0  0  0  0
 55 56  2  0  0  0  0
 56 57  2  0  0  0  0
 56 58  1  0  0  0  0
 58 60  1  0  0  0  0
 60 61  2  1  0  0  0
 60 59  1  0  0  0  0
 60 63  1  0  0  0  0
 62 63  1  0  0  0  0
 64 62  1  0  0  0  0
 64 63  1  0  0  0  0
M  END
>  <MODEL>
3

>  <REMARK>
 VINA RESULT:      -7.0      2.827      6.394
  Name = 
  16 active torsions:
  status: ('A' for Active; 'I' for Inactive)
    1  A    between atoms: C_1  and  N_43
    2  A    between atoms: C_6  and  C_50
    3  A    between atoms: C_6  and  C_56
    4  A    between atoms: C_7  and  N_41
    5  A    between atoms: C_7  and  C_51
    6  A    between atoms: P_15  and  C_22
    7  A    between atoms: P_15  and  N_64
    8  A    between atoms: C_32  and  C_52
    9  A    between atoms: C_38  and  N_43
   10  A    between atoms: N_41  and  S_57
   11  A    between atoms: S_46  and  C_62
   12  A    between atoms: S_46  and  N_64
   13  A    between atoms: C_49  and  C_62
   14  A    between atoms: C_56  and  C_63
   15  A    between atoms: S_57  and  C_59
   16  A    between atoms: C_62  and  C_63
                            x       y       z     vdW  Elec       q    Type
                         _______ _______ _______ _____ _____    ______ ____

>  <TORSDO>
F 16

$$$$
=
 OpenBabel11042416053D

 64 71  0  0  1  0  0  0  0  0999 V2000
  192.8000  172.5960  143.0040 C   0  0  2  0  0  3  0  0  0  0  0  0
  193.7400  173.5480  145.5510 C   0  0  0  0  0  3  0  0  0  0  0  0
  195.4400  171.7420  145.5930 C   0  0  0  0  0  3  0  0  0  0  0  0
  194.6630  170.8690  143.0710 C   0  0  0  0  0  0  0  0  0  0  0  0
  196.0660  170.6540  144.9790 C   0  0  0  0  0  3  0  0  0  0  0  0
  194.4140  172.4040  144.9230 C   0  0  0  0  0  0  0  0  0  0  0  0
  195.6700  170.2500  143.7430 N   0  0  0  0  0  0  0  0  0  0  0  0
  192.8530  174.2560  144.8540 C   0  0  0  0  0  0  0  0  0  0  0  0
  194.3180  170.4470  141.9380 O   0  0  0  0  0  0  0  0  0  0  0  0
  194.0090  171.9670  143.6500 C   0  0  2  0  0  3  0  0  0  0  0  0
  192.5640  173.9110  143.5220 O   0  0  0  0  0  0  0  0  0  0  0  0
  190.3210  176.2910  146.6920 C   0  0  1  0  0  3  0  0  0  0  0  0
  190.7420  177.9380  148.3780 O   0  0  0  0  0  1  0  0  0  0  0  0
  193.0810  176.0420  146.5290 C   0  0  0  0  0  3  0  0  0  0  0  0
  192.5950  176.6460  147.6270 C   0  0  0  0  0  3  0  0  0  0  0  0
  191.1180  176.6640  147.9390 C   0  0  2  0  0  3  0  0  0  0  0  0
  188.1930  175.8080  144.7180 C   0  0  0  0  0  2  0  0  0  0  0  0
  189.4570  175.4620  144.2170 O   0  0  0  0  0  0  0  0  0  0  0  0
  190.8630  175.0470  146.1080 N   0  0  2  0  0  0  0  0  0  0  0  0
  188.9480  176.2060  146.9600 O   0  0  0  0  0  0  0  0  0  0  0  0
  188.3580  176.8230  145.8520 C   0  0  2  0  0  3  0  0  0  0  0  0
  192.1600  175.4130  145.5040 C   0  0  2  0  0  3  0  0  0  0  0  0
  189.9550  174.4790  145.0890 C   0  0  0  0  0  2  0  0  0  0  0  0
  187.0950  177.5950  146.2650 C   0  0  2  0  0  3  0  0  0  0  0  0
  186.6170  177.2930  147.6950 C   0  0  0  0  0  1  0  0  0  0  0  0
  185.1480  176.4790  145.7590 O   0  0  0  0  0  1  0  0  0  0  0  0
  186.0500  177.3630  145.2580 N   0  0  0  0  0  0  0  0  0  0  0  0
  183.7520  178.7010  145.3030 O   0  0  0  0  0  0  0  0  0  0  0  0
  185.8180  180.0020  145.5940 O   0  0  0  0  0  0  0  0  0  0  0  0
  185.1920  178.8310  144.8810 S   0  0  0  0  0  0  0  0  0  0  0  0
  184.1450  178.3300  142.4160 C   0  0  0  0  0  2  0  0  0  0  0  0
  184.6750  177.5670  141.2860 N   0  0  0  0  0  2  0  0  0  0  0  0
  186.8480  178.5270  142.4460 S   0  0  0  0  0  0  0  0  0  0  0  0
  186.7560  177.1630  140.0960 C   0  0  0  0  0  1  0  0  0  0  0  0
  185.9580  178.1510  140.9260 C   0  0  1  0  0  3  0  0  0  0  0  0
  185.2660  179.0860  143.1170 C   0  0  2  0  0  3  0  0  0  0  0  0
  191.6400  171.7560  143.2660 N   0  0  0  0  0  2  0  0  0  0  0  0
  187.8490  172.8240  140.3170 F   0  0  0  0  0  0  0  0  0  0  0  0
  189.1880  172.5380  140.5090 C   0  0  2  0  0  0  0  0  0  0  0  0
  189.7510  172.5060  141.9260 C   0  0  2  0  0  3  0  0  0  0  0  0
  191.0980  169.7560  139.8030 C   0  0  0  0  0  1  0  0  0  0  0  0
  190.9340  171.5460  142.0120 C   0  0  1  0  0  3  0  0  0  0  0  0
  191.8270  171.7690  140.9440 O   0  0  0  0  0  0  0  0  0  0  0  0
  189.9830  173.3290  139.6570 O   0  0  0  0  0  0  0  0  0  0  0  0
  188.7530  172.0940  142.8110 O   0  0  0  0  0  1  0  0  0  0  0  0
  191.2770  171.2730  139.7340 C   0  0  2  0  0  0  0  0  0  0  0  0
  189.9320  171.9480  139.3650 C   0  0  1  0  0  3  0  0  0  0  0  0
  192.2950  171.5790  138.6310 C   0  0  0  0  0  2  0  0  0  0  0  0
  192.1200  170.7190  137.3860 C   0  0  0  0  0  2  0  0  0  0  0  0
  192.5350  171.5120  136.1630 C   0  0  0  0  0  2  0  0  0  0  0  0
  192.8450  172.9530  136.5420 C   0  0  2  0  0  3  0  0  0  0  0  0
  190.9960  174.6380  136.6400 O   0  0  0  0  0  1  0  0  0  0  0  0
  191.8400  173.9450  134.6250 O   0  0  0  0  0  0  0  0  0  0  0  0
  191.8730  173.8700  135.8810 C   0  0  0  0  0  0  0  0  0  0  0  0
  194.5930  174.8680  135.8160 O   0  0  0  0  0  0  0  0  0  0  0  0
  194.5200  173.3900  136.0860 S   0  0  0  0  0  0  0  0  0  0  0  0
  194.9020  172.6350  134.8430 O   0  0  0  0  0  0  0  0  0  0  0  0
  195.5900  172.9820  137.3920 N   0  0  0  0  0  2  0  0  0  0  0  0
  194.4980  175.0360  138.6970 O   0  0  0  0  0  1  0  0  0  0  0  0
  195.8390  174.3910  138.4190 P   0  0  2  0  0  0  0  0  0  0  0  0
  196.8270  175.5220  137.6350 O   0  0  0  0  0  0  0  0  0  0  0  0
  195.6450  174.1250  141.1460 C   0  0  0  0  0  2  0  0  0  0  0  0
  196.6180  173.9230  139.9990 C   0  0  0  0  0  3  0  0  0  0  0  0
  196.7290  175.1460  140.8900 C   0  0  0  0  0  2  0  0  0  0  0  0
  1 37  1  1  0  0  0
  1 11  1  0  0  0  0
  1 10  1  0  0  0  0
  4  7  1  0  0  0  0
  5  3  1  0  0  0  0
  6  2  1  0  0  0  0
  6  3  2  0  0  0  0
  7  5  2  0  0  0  0
  8  2  2  0  0  0  0
  9  4  2  0  0  0  0
 10  4  1  1  0  0  0
 10  6  1  0  0  0  0
 11  8  1  0  0  0  0
 12 20  1  1  0  0  0
 12 16  1  0  0  0  0
 14 15  2  0  0  0  0
 15 16  1  0  0  0  0
 16 13  1  6  0  0  0
 17 21  1  0  0  0  0
 18 17  1  0  0  0  0
 18 23  1  0  0  0  0
 19 23  1  6  0  0  0
 19 12  1  0  0  0  0
 21 24  1  1  0  0  0
 21 20  1  0  0  0  0
 22  8  1  1  0  0  0
 22 19  1  0  0  0  0
 22 14  1  0  0  0  0
 24 25  1  1  0  0  0
 27 26  1  0  0  0  0
 27 24  1  0  0  0  0
 30 27  1  0  0  0  0
 30 28  2  0  0  0  0
 30 29  2  0  0  0  0
 31 36  1  0  0  0  0
 32 31  1  0  0  0  0
 33 36  1  0  0  0  0
 35 34  1  6  0  0  0
 35 32  1  0  0  0  0
 35 33  1  0  0  0  0
 36 30  1  1  0  0  0
 39 38  1  6  0  0  0
 39 40  1  0  0  0  0
 40 42  1  0  0  0  0
 40 45  1  1  0  0  0
 42 37  1  1  0  0  0
 43 42  1  0  0  0  0
 44 39  1  0  0  0  0
 46 41  1  1  0  0  0
 46 43  1  0  0  0  0
 47 44  1  6  0  0  0
 47 46  1  0  0  0  0
 47 39  1  0  0  0  0
 48 46  1  0  0  0  0
 49 48  1  0  0  0  0
 50 49  1  0  0  0  0
 51 50  1  6  0  0  0
 53 54  2  0  0  0  0
 54 51  1  0  0  0  0
 54 52  1  0  0  0  0
 55 56  2  0  0  0  0
 56 51  1  0  0  0  0
 56 58  1  0  0  0  0
 57 56  2  0  0  0  0
 58 60  1  0  0  0  0
 60 61  2  6  0  0  0
 60 59  1  0  0  0  0
 60 63  1  0  0  0  0
 63 64  1  0  0  0  0
 63 62  1  0  0  0  0
 64 62  1  0  0  0  0
M  END
>  <MODEL>
4

>  <REMARK>
 VINA RESULT:      -6.9      3.244      9.164
  Name = 
  16 active torsions:
  status: ('A' for Active; 'I' for Inactive)
    1  A    between atoms: C_1  and  N_43
    2  A    between atoms: C_6  and  C_50
    3  A    between atoms: C_6  and  C_56
    4  A    between atoms: C_7  and  N_41
    5  A    between atoms: C_7  and  C_51
    6  A    between atoms: P_15  and  C_22
    7  A    between atoms: P_15  and  N_64
    8  A    between atoms: C_32  and  C_52
    9  A    between atoms: C_38  and  N_43
   10  A    between atoms: N_41  and  S_57
   11  A    between atoms: S_46  and  C_62
   12  A    between atoms: S_46  and  N_64
   13  A    between atoms: C_49  and  C_62
   14  A    between atoms: C_56  and  C_63
   15  A    between atoms: S_57  and  C_59
   16  A    between atoms: C_62  and  C_63
                            x       y       z     vdW  Elec       q    Type
                         _______ _______ _______ _____ _____    ______ ____

>  <TORSDO>
F 16

$$$$
=
 OpenBabel11042416053D

 64 71  0  0  1  0  0  0  0  0999 V2000
  188.5560  176.0590  142.0760 C   0  0  2  0  0  3  0  0  0  0  0  0
  188.5280  174.1890  139.8890 C   0  0  0  0  0  3  0  0  0  0  0  0
  186.9580  175.6630  138.6560 C   0  0  0  0  0  3  0  0  0  0  0  0
  187.0600  177.5650  140.6800 C   0  0  0  0  0  0  0  0  0  0  0  0
  186.2290  176.8510  138.5690 C   0  0  0  0  0  3  0  0  0  0  0  0
  187.7560  175.4340  139.7750 C   0  0  0  0  0  0  0  0  0  0  0  0
  186.3000  177.7670  139.5710 N   0  0  0  0  0  0  0  0  0  0  0  0
  189.3880  174.0350  140.8940 C   0  0  0  0  0  0  0  0  0  0  0  0
  187.0790  178.4330  141.5890 O   0  0  0  0  0  0  0  0  0  0  0  0
  187.8100  176.3860  140.8060 C   0  0  2  0  0  3  0  0  0  0  0  0
  189.5570  175.0600  141.8410 O   0  0  0  0  0  0  0  0  0  0  0  0
  192.2270  171.6210  141.1030 C   0  0  1  0  0  3  0  0  0  0  0  0
  192.4270  169.7540  142.5890 O   0  0  0  0  0  1  0  0  0  0  0  0
  189.7380  172.0240  142.2660 C   0  0  0  0  0  3  0  0  0  0  0  0
  190.5950  171.2350  142.9370 C   0  0  0  0  0  3  0  0  0  0  0  0
  192.0410  171.0980  142.5240 C   0  0  2  0  0  3  0  0  0  0  0  0
  193.2750  172.3010  138.4390 C   0  0  0  0  0  2  0  0  0  0  0  0
  191.9690  172.7800  138.6240 O   0  0  0  0  0  0  0  0  0  0  0  0
  191.6250  172.9650  140.9840 N   0  0  2  0  0  0  0  0  0  0  0  0
  193.5730  171.5970  140.7130 O   0  0  0  0  0  0  0  0  0  0  0  0
  193.5240  171.1310  139.3940 C   0  0  2  0  0  3  0  0  0  0  0  0
  190.1630  172.7590  141.0110 C   0  0  2  0  0  3  0  0  0  0  0  0
  192.0340  173.6390  139.7340 C   0  0  0  0  0  2  0  0  0  0  0  0
  194.7410  170.2450  139.0840 C   0  0  2  0  0  3  0  0  0  0  0  0
  194.7570  168.9130  139.8510 C   0  0  0  0  0  1  0  0  0  0  0  0
  196.7420  170.3990  140.2070 O   0  0  0  0  0  1  0  0  0  0  0  0
  195.9630  171.0340  139.2920 N   0  0  0  0  0  0  0  0  0  0  0  0
  197.9410  170.0980  137.7790 O   0  0  0  0  0  0  0  0  0  0  0  0
  195.9880  171.0430  136.6220 O   0  0  0  0  0  0  0  0  0  0  0  0
  196.8890  171.1750  137.8240 S   0  0  0  0  0  0  0  0  0  0  0  0
  196.9690  173.7350  138.7520 C   0  0  0  0  0  2  0  0  0  0  0  0
  196.7130  175.0070  138.0780 N   0  0  0  0  0  2  0  0  0  0  0  0
  197.6880  173.4830  136.1510 S   0  0  0  0  0  0  0  0  0  0  0  0
  197.1220  176.1350  135.9650 C   0  0  0  0  0  1  0  0  0  0  0  0
  197.6250  175.0970  136.9490 C   0  0  1  0  0  3  0  0  0  0  0  0
  197.6820  172.7720  137.8130 C   0  0  2  0  0  3  0  0  0  0  0  0
  187.6050  175.5700  143.0640 N   0  0  0  0  0  2  0  0  0  0  0  0
  185.5710  177.7450  146.9810 F   0  0  0  0  0  0  0  0  0  0  0  0
  186.5910  177.0180  146.3960 C   0  0  2  0  0  0  0  0  0  0  0  0
  186.4100  176.4800  144.9810 C   0  0  2  0  0  3  0  0  0  0  0  0
  189.8390  177.8180  145.5630 C   0  0  0  0  0  1  0  0  0  0  0  0
  187.7590  176.3590  144.2760 C   0  0  1  0  0  3  0  0  0  0  0  0
  188.6960  175.7250  145.1160 O   0  0  0  0  0  0  0  0  0  0  0  0
  187.0390  176.0120  147.2750 O   0  0  0  0  0  0  0  0  0  0  0  0
  185.5860  177.3450  144.2590 O   0  0  0  0  0  1  0  0  0  0  0  0
  189.1080  176.6090  146.1470 C   0  0  2  0  0  0  0  0  0  0  0  0
  187.9310  177.0810  147.0370 C   0  0  1  0  0  3  0  0  0  0  0  0
  190.0990  175.8330  147.0200 C   0  0  0  0  0  2  0  0  0  0  0  0
  191.4850  176.4640  147.0730 C   0  0  0  0  0  2  0  0  0  0  0  0
  192.4950  175.5100  146.4660 C   0  0  0  0  0  2  0  0  0  0  0  0
  193.0880  176.0990  145.1950 C   0  0  2  0  0  3  0  0  0  0  0  0
  191.6380  174.4070  144.0540 O   0  0  0  0  0  1  0  0  0  0  0  0
  192.3110  176.3010  142.9540 O   0  0  0  0  0  0  0  0  0  0  0  0
  192.3250  175.6150  144.0090 C   0  0  0  0  0  0  0  0  0  0  0  0
  195.3550  175.2570  146.3800 O   0  0  0  0  0  0  0  0  0  0  0  0
  194.8190  175.6730  145.0370 S   0  0  0  0  0  0  0  0  0  0  0  0
  195.5770  176.8760  144.5480 O   0  0  0  0  0  0  0  0  0  0  0  0
  194.9820  174.3600  143.9120 N   0  0  0  0  0  2  0  0  0  0  0  0
  197.6080  174.8200  143.9480 O   0  0  0  0  0  1  0  0  0  0  0  0
  196.6060  173.6870  144.0120 P   0  0  2  0  0  0  0  0  0  0  0  0
  196.8920  172.6440  142.7090 O   0  0  0  0  0  0  0  0  0  0  0  0
  197.2370  171.3300  145.2730 C   0  0  0  0  0  2  0  0  0  0  0  0
  196.8420  172.7660  145.5670 C   0  0  0  0  0  3  0  0  0  0  0  0
  195.8130  171.6550  145.6570 C   0  0  0  0  0  2  0  0  0  0  0  0
  1 37  1  1  0  0  0
  2  8  2  0  0  0  0
  3  6  2  0  0  0  0
  4 10  1  0  0  0  0
  4  9  2  0  0  0  0
  5  3  1  0  0  0  0
  5  7  2  0  0  0  0
  6  2  1  0  0  0  0
  7  4  1  0  0  0  0
  8 11  1  0  0  0  0
 10  6  1  1  0  0  0
 10  1  1  0  0  0  0
 11  1  1  0  0  0  0
 12 20  1  1  0  0  0
 12 16  1  0  0  0  0
 14 15  2  0  0  0  0
 16 13  1  6  0  0  0
 16 15  1  0  0  0  0
 17 18  1  0  0  0  0
 17 21  1  0  0  0  0
 18 23  1  0  0  0  0
 19 23  1  6  0  0  0
 19 22  1  0  0  0  0
 19 12  1  0  0  0  0
 21 24  1  6  0  0  0
 21 20  1  0  0  0  0
 22  8  1  1  0  0  0
 22 14  1  0  0  0  0
 24 27  1  0  0  0  0
 24 25  1  1  0  0  0
 27 26  1  0  0  0  0
 28 30  2  0  0  0  0
 29 30  2  0  0  0  0
 30 27  1  0  0  0  0
 32 31  1  0  0  0  0
 33 35  1  0  0  0  0
 33 36  1  0  0  0  0
 35 34  1  6  0  0  0
 35 32  1  0  0  0  0
 36 30  1  6  0  0  0
 36 31  1  0  0  0  0
 39 38  1  1  0  0  0
 39 47  1  0  0  0  0
 39 44  1  0  0  0  0
 40 45  1  6  0  0  0
 40 39  1  0  0  0  0
 42 37  1  6  0  0  0
 42 40  1  0  0  0  0
 42 43  1  0  0  0  0
 43 46  1  0  0  0  0
 46 41  1  6  0  0  0
 46 48  1  0  0  0  0
 46 47  1  0  0  0  0
 47 44  1  1  0  0  0
 48 49  1  0  0  0  0
 50 49  1  0  0  0  0
 51 50  1  1  0  0  0
 53 54  2  0  0  0  0
 54 52  1  0  0  0  0
 54 51  1  0  0  0  0
 56 51  1  0  0  0  0
 56 55  2  0  0  0  0
 57 56  2  0  0  0  0
 58 60  1  0  0  0  0
 58 56  1  0  0  0  0
 59 60  1  0  0  0  0
 60 61  2  6  0  0  0
 60 63  1  0  0  0  0
 62 63  1  0  0  0  0
 62 64  1  0  0  0  0
 63 64  1  0  0  0  0
M  END
>  <MODEL>
5

>  <REMARK>
 VINA RESULT:      -6.9      2.731      4.745
  Name = 
  16 active torsions:
  status: ('A' for Active; 'I' for Inactive)
    1  A    between atoms: C_1  and  N_43
    2  A    between atoms: C_6  and  C_50
    3  A    between atoms: C_6  and  C_56
    4  A    between atoms: C_7  and  N_41
    5  A    between atoms: C_7  and  C_51
    6  A    between atoms: P_15  and  C_22
    7  A    between atoms: P_15  and  N_64
    8  A    between atoms: C_32  and  C_52
    9  A    between atoms: C_38  and  N_43
   10  A    between atoms: N_41  and  S_57
   11  A    between atoms: S_46  and  C_62
   12  A    between atoms: S_46  and  N_64
   13  A    between atoms: C_49  and  C_62
   14  A    between atoms: C_56  and  C_63
   15  A    between atoms: S_57  and  C_59
   16  A    between atoms: C_62  and  C_63
                            x       y       z     vdW  Elec       q    Type
                         _______ _______ _______ _____ _____    ______ ____

>  <TORSDO>
F 16

$$$$
=
 OpenBabel11042416053D

 64 71  0  0  1  0  0  0  0  0999 V2000
  189.0390  176.6100  144.9470 C   0  0  2  0  0  3  0  0  0  0  0  0
  186.8690  177.3570  143.2120 C   0  0  0  0  0  3  0  0  0  0  0  0
  185.5900  178.1790  145.1720 C   0  0  0  0  0  3  0  0  0  0  0  0
  187.7120  177.6040  146.8730 C   0  0  0  0  0  0  0  0  0  0  0  0
  185.5080  178.4330  146.5430 C   0  0  0  0  0  3  0  0  0  0  0  0
  186.7620  177.6360  144.6500 C   0  0  0  0  0  0  0  0  0  0  0  0
  186.5620  178.1470  147.3530 N   0  0  0  0  0  0  0  0  0  0  0  0
  188.0340  176.9630  142.7010 C   0  0  0  0  0  0  0  0  0  0  0  0
  188.6530  177.3390  147.6640 O   0  0  0  0  0  0  0  0  0  0  0  0
  187.8380  177.3360  145.5020 C   0  0  2  0  0  3  0  0  0  0  0  0
  189.1560  176.8140  143.5340 O   0  0  0  0  0  0  0  0  0  0  0  0
  188.0510  175.1320  139.4480 C   0  0  1  0  0  3  0  0  0  0  0  0
  187.0600  175.8430  137.3870 O   0  0  0  0  0  1  0  0  0  0  0  0
  187.1690  177.5560  140.4760 C   0  0  0  0  0  3  0  0  0  0  0  0
  186.6060  177.1500  139.3250 C   0  0  0  0  0  3  0  0  0  0  0  0
  186.8410  175.7660  138.7670 C   0  0  2  0  0  3  0  0  0  0  0  0
  190.2980  173.3890  140.2020 C   0  0  0  0  0  2  0  0  0  0  0  0
  190.1770  174.4870  141.0670 O   0  0  0  0  0  0  0  0  0  0  0  0
  187.9130  175.2450  140.9150 N   0  0  2  0  0  0  0  0  0  0  0  0
  188.2510  173.8110  139.0250 O   0  0  0  0  0  0  0  0  0  0  0  0
  189.6380  173.7240  138.8630 C   0  0  2  0  0  3  0  0  0  0  0  0
  188.1340  176.6680  141.2360 C   0  0  2  0  0  3  0  0  0  0  0  0
  188.8910  174.3920  141.6230 C   0  0  0  0  0  2  0  0  0  0  0  0
  189.9910  172.8090  137.6790 C   0  0  2  0  0  3  0  0  0  0  0  0
  189.5430  171.3500  137.8600 C   0  0  0  0  0  1  0  0  0  0  0  0
  191.9710  171.6850  137.3500 O   0  0  0  0  0  1  0  0  0  0  0  0
  191.4300  172.9300  137.4040 N   0  0  0  0  0  0  0  0  0  0  0  0
  193.0120  173.1840  135.2810 O   0  0  0  0  0  0  0  0  0  0  0  0
  190.5910  173.4080  134.9140 O   0  0  0  0  0  0  0  0  0  0  0  0
  191.7230  173.6960  135.8680 S   0  0  0  0  0  0  0  0  0  0  0  0
  191.0370  176.2200  135.1040 C   0  0  0  0  0  2  0  0  0  0  0  0
  191.8350  177.2930  134.5140 N   0  0  0  0  0  2  0  0  0  0  0  0
  193.5770  175.9990  136.0240 S   0  0  0  0  0  0  0  0  0  0  0  0
  194.0300  178.3220  134.6870 C   0  0  0  0  0  1  0  0  0  0  0  0
  192.9360  177.5710  135.4220 C   0  0  1  0  0  3  0  0  0  0  0  0
  191.8560  175.4540  136.1340 C   0  0  2  0  0  3  0  0  0  0  0  0
  188.8920  175.1880  145.2220 N   0  0  0  0  0  2  0  0  0  0  0  0
  191.8950  171.3650  144.4540 F   0  0  0  0  0  0  0  0  0  0  0  0
  191.6470  172.7260  144.4600 C   0  0  2  0  0  0  0  0  0  0  0  0
  190.2200  173.2260  144.6580 C   0  0  2  0  0  3  0  0  0  0  0  0
  192.7130  175.2770  146.5190 C   0  0  0  0  0  1  0  0  0  0  0  0
  190.2200  174.6020  145.3190 C   0  0  1  0  0  3  0  0  0  0  0  0
  191.1420  175.4540  144.6780 O   0  0  0  0  0  0  0  0  0  0  0  0
  192.2550  173.3380  143.3470 O   0  0  0  0  0  0  0  0  0  0  0  0
  189.5220  172.3240  145.4640 O   0  0  0  0  0  1  0  0  0  0  0  0
  192.4690  175.0870  145.0220 C   0  0  2  0  0  0  0  0  0  0  0  0
  192.8140  173.6330  144.6100 C   0  0  1  0  0  3  0  0  0  0  0  0
  193.3980  176.0420  144.2660 C   0  0  0  0  0  2  0  0  0  0  0  0
  194.6650  176.3930  145.0350 C   0  0  0  0  0  2  0  0  0  0  0  0
  195.8540  176.3470  144.0960 C   0  0  0  0  0  2  0  0  0  0  0  0
  195.8550  175.0510  143.3000 C   0  0  2  0  0  3  0  0  0  0  0  0
  196.6400  172.7050  143.6860 O   0  0  0  0  0  0  0  0  0  0  0  0
  197.6800  174.4690  144.7130 O   0  0  0  0  0  1  0  0  0  0  0  0
  196.7760  174.0660  143.9360 C   0  0  0  0  0  0  0  0  0  0  0  0
  197.7030  174.7630  141.3620 O   0  0  0  0  0  0  0  0  0  0  0  0
  196.3350  175.3420  141.6000 S   0  0  0  0  0  0  0  0  0  0  0  0
  196.3690  176.8240  141.3480 O   0  0  0  0  0  0  0  0  0  0  0  0
  195.1870  174.5770  140.5450 N   0  0  0  0  0  2  0  0  0  0  0  0
  196.7040  175.1940  138.4400 O   0  0  0  0  0  1  0  0  0  0  0  0
  195.9990  174.0190  139.0850 P   0  0  2  0  0  0  0  0  0  0  0  0
  194.8700  173.4010  137.9840 O   0  0  0  0  0  0  0  0  0  0  0  0
  197.6320  171.9970  138.1990 C   0  0  0  0  0  2  0  0  0  0  0  0
  197.2210  172.7220  139.4670 C   0  0  0  0  0  3  0  0  0  0  0  0
  196.6350  171.3620  139.1400 C   0  0  0  0  0  2  0  0  0  0  0  0
  1 37  1  6  0  0  0
  1 10  1  0  0  0  0
  2  6  1  0  0  0  0
  3  5  1  0  0  0  0
  4  7  1  0  0  0  0
  4  9  2  0  0  0  0
  5  7  2  0  0  0  0
  6  3  2  0  0  0  0
  8  2  2  0  0  0  0
  8 11  1  0  0  0  0
 10  6  1  1  0  0  0
 10  4  1  0  0  0  0
 11  1  1  0  0  0  0
 12 20  1  1  0  0  0
 12 19  1  0  0  0  0
 14 22  1  0  0  0  0
 15 14  2  0  0  0  0
 16 13  1  6  0  0  0
 16 15  1  0  0  0  0
 16 12  1  0  0  0  0
 17 18  1  0  0  0  0
 18 23  1  0  0  0  0
 19 22  1  0  0  0  0
 19 23  1  1  0  0  0
 21 24  1  6  0  0  0
 21 20  1  0  0  0  0
 21 17  1  0  0  0  0
 22  8  1  1  0  0  0
 24 25  1  1  0  0  0
 26 27  1  0  0  0  0
 27 24  1  0  0  0  0
 28 30  2  0  0  0  0
 29 30  2  0  0  0  0
 30 27  1  0  0  0  0
 31 36  1  0  0  0  0
 32 31  1  0  0  0  0
 32 35  1  0  0  0  0
 33 36  1  0  0  0  0
 35 34  1  6  0  0  0
 35 33  1  0  0  0  0
 36 30  1  6  0  0  0
 39 38  1  1  0  0  0
 39 47  1  0  0  0  0
 39 40  1  0  0  0  0
 40 42  1  0  0  0  0
 40 45  1  1  0  0  0
 42 37  1  6  0  0  0
 43 46  1  0  0  0  0
 43 42  1  0  0  0  0
 44 39  1  0  0  0  0
 46 41  1  1  0  0  0
 47 44  1  6  0  0  0
 47 46  1  0  0  0  0
 48 46  1  0  0  0  0
 48 49  1  0  0  0  0
 50 49  1  0  0  0  0
 51 54  1  0  0  0  0
 51 50  1  1  0  0  0
 52 54  2  0  0  0  0
 54 53  1  0  0  0  0
 55 56  2  0  0  0  0
 56 51  1  0  0  0  0
 57 56  2  0  0  0  0
 58 56  1  0  0  0  0
 59 60  1  0  0  0  0
 60 61  2  6  0  0  0
 60 63  1  0  0  0  0
 60 58  1  0  0  0  0
 62 64  1  0  0  0  0
 62 63  1  0  0  0  0
 64 63  1  0  0  0  0
M  END
>  <MODEL>
6

>  <REMARK>
 VINA RESULT:      -6.8      2.254      3.120
  Name = 
  16 active torsions:
  status: ('A' for Active; 'I' for Inactive)
    1  A    between atoms: C_1  and  N_43
    2  A    between atoms: C_6  and  C_50
    3  A    between atoms: C_6  and  C_56
    4  A    between atoms: C_7  and  N_41
    5  A    between atoms: C_7  and  C_51
    6  A    between atoms: P_15  and  C_22
    7  A    between atoms: P_15  and  N_64
    8  A    between atoms: C_32  and  C_52
    9  A    between atoms: C_38  and  N_43
   10  A    between atoms: N_41  and  S_57
   11  A    between atoms: S_46  and  C_62
   12  A    between atoms: S_46  and  N_64
   13  A    between atoms: C_49  and  C_62
   14  A    between atoms: C_56  and  C_63
   15  A    between atoms: S_57  and  C_59
   16  A    between atoms: C_62  and  C_63
                            x       y       z     vdW  Elec       q    Type
                         _______ _______ _______ _____ _____    ______ ____

>  <TORSDO>
F 16

$$$$
=
 OpenBabel11042416053D

 64 71  0  0  1  0  0  0  0  0999 V2000
  188.3940  177.0340  145.0560 C   0  0  2  0  0  3  0  0  0  0  0  0
  186.3520  177.3750  143.0580 C   0  0  0  0  0  3  0  0  0  0  0  0
  184.7850  178.1830  144.8040 C   0  0  0  0  0  3  0  0  0  0  0  0
  186.7640  178.0050  146.7480 C   0  0  0  0  0  0  0  0  0  0  0  0
  184.5280  178.5300  146.1320 C   0  0  0  0  0  3  0  0  0  0  0  0
  186.0600  177.7480  144.4480 C   0  0  0  0  0  0  0  0  0  0  0  0
  185.5150  178.4380  147.0630 N   0  0  0  0  0  0  0  0  0  0  0  0
  187.6020  177.0870  142.7000 C   0  0  0  0  0  0  0  0  0  0  0  0
  187.6390  177.9180  147.6470 O   0  0  0  0  0  0  0  0  0  0  0  0
  187.0660  177.6490  145.4250 C   0  0  2  0  0  3  0  0  0  0  0  0
  188.6380  177.1420  143.6490 O   0  0  0  0  0  0  0  0  0  0  0  0
  188.0010  175.0480  139.6000 C   0  0  1  0  0  3  0  0  0  0  0  0
  187.3260  175.6470  137.3810 O   0  0  0  0  0  1  0  0  0  0  0  0
  187.0700  177.5560  140.3450 C   0  0  0  0  0  3  0  0  0  0  0  0
  186.6560  177.0900  139.1540 C   0  0  0  0  0  3  0  0  0  0  0  0
  186.9180  175.6670  138.7200 C   0  0  2  0  0  3  0  0  0  0  0  0
  190.0620  173.3000  140.7630 C   0  0  0  0  0  2  0  0  0  0  0  0
  189.8620  174.4560  141.5340 O   0  0  0  0  0  0  0  0  0  0  0  0
  187.6670  175.2600  141.0230 N   0  0  2  0  0  0  0  0  0  0  0  0
  188.2100  173.6970  139.2900 O   0  0  0  0  0  0  0  0  0  0  0  0
  189.6020  173.5640  139.3270 C   0  0  2  0  0  3  0  0  0  0  0  0
  187.8910  176.6950  141.2840 C   0  0  2  0  0  3  0  0  0  0  0  0
  188.5090  174.4300  141.9120 C   0  0  0  0  0  2  0  0  0  0  0  0
  190.0830  172.5650  138.2630 C   0  0  2  0  0  3  0  0  0  0  0  0
  189.6080  171.1220  138.4990 C   0  0  0  0  0  1  0  0  0  0  0  0
  192.0530  171.4310  137.9140 O   0  0  0  0  0  1  0  0  0  0  0  0
  191.5440  172.6690  138.1450 N   0  0  0  0  0  0  0  0  0  0  0  0
  192.4610  172.8260  135.6530 O   0  0  0  0  0  0  0  0  0  0  0  0
  190.8400  174.5320  136.3660 O   0  0  0  0  0  0  0  0  0  0  0  0
  192.0050  173.6820  136.8050 S   0  0  0  0  0  0  0  0  0  0  0  0
  193.5750  175.8590  136.3370 C   0  0  0  0  0  2  0  0  0  0  0  0
  194.9920  175.9620  135.9930 N   0  0  0  0  0  2  0  0  0  0  0  0
  194.8850  173.7810  137.4830 S   0  0  0  0  0  0  0  0  0  0  0  0
  197.1420  174.9710  136.5440 C   0  0  0  0  0  1  0  0  0  0  0  0
  195.7480  175.3000  137.0440 C   0  0  1  0  0  3  0  0  0  0  0  0
  193.3520  174.7260  137.3300 C   0  0  2  0  0  3  0  0  0  0  0  0
  188.3810  175.6300  145.4410 N   0  0  0  0  0  2  0  0  0  0  0  0
  191.8720  172.1880  145.0130 F   0  0  0  0  0  0  0  0  0  0  0  0
  191.4660  173.5090  144.9750 C   0  0  2  0  0  0  0  0  0  0  0  0
  189.9770  173.8370  145.0330 C   0  0  2  0  0  3  0  0  0  0  0  0
  192.0270  176.1780  147.0830 C   0  0  0  0  0  1  0  0  0  0  0  0
  189.7540  175.2060  145.6700 C   0  0  1  0  0  3  0  0  0  0  0  0
  190.6250  176.1590  145.1030 O   0  0  0  0  0  0  0  0  0  0  0  0
  192.0990  174.1830  143.9130 O   0  0  0  0  0  0  0  0  0  0  0  0
  189.3180  172.8630  145.7860 O   0  0  0  0  0  1  0  0  0  0  0  0
  191.9470  175.9530  145.5730 C   0  0  2  0  0  0  0  0  0  0  0  0
  192.4990  174.5490  145.2180 C   0  0  1  0  0  3  0  0  0  0  0  0
  192.8240  177.0080  144.8910 C   0  0  0  0  0  2  0  0  0  0  0  0
  194.2800  176.5840  144.7410 C   0  0  0  0  0  2  0  0  0  0  0  0
  194.4820  175.9460  143.3810 C   0  0  0  0  0  2  0  0  0  0  0  0
  195.9520  175.9720  142.9920 C   0  0  2  0  0  3  0  0  0  0  0  0
  195.2890  175.8220  140.5830 O   0  0  0  0  0  0  0  0  0  0  0  0
  196.9500  177.2520  141.2510 O   0  0  0  0  0  1  0  0  0  0  0  0
  196.0920  176.3880  141.5670 C   0  0  0  0  0  0  0  0  0  0  0  0
  197.1240  174.2430  144.6910 O   0  0  0  0  0  0  0  0  0  0  0  0
  196.7130  174.3730  143.2500 S   0  0  0  0  0  0  0  0  0  0  0  0
  197.9280  174.2610  142.3720 O   0  0  0  0  0  0  0  0  0  0  0  0
  195.5680  173.1270  142.8560 N   0  0  0  0  0  2  0  0  0  0  0  0
  197.5220  171.4270  143.4910 O   0  0  0  0  0  1  0  0  0  0  0  0
  196.0290  171.6230  143.6470 P   0  0  2  0  0  0  0  0  0  0  0  0
  195.2370  170.3120  142.9240 O   0  0  0  0  0  0  0  0  0  0  0  0
  196.4660  170.6620  146.1830 C   0  0  0  0  0  2  0  0  0  0  0  0
  195.6110  171.6580  145.4210 C   0  0  0  0  0  3  0  0  0  0  0  0
  195.0380  170.3150  145.8320 C   0  0  0  0  0  2  0  0  0  0  0  0
  1 10  1  0  0  0  0
  1 37  1  6  0  0  0
  2  6  1  0  0  0  0
  3  5  1  0  0  0  0
  4  7  1  0  0  0  0
  4  9  2  0  0  0  0
  5  7  2  0  0  0  0
  6  3  2  0  0  0  0
  8  2  2  0  0  0  0
  8 11  1  0  0  0  0
 10  6  1  1  0  0  0
 10  4  1  0  0  0  0
 11  1  1  0  0  0  0
 12 20  1  1  0  0  0
 12 19  1  0  0  0  0
 14 22  1  0  0  0  0
 15 14  2  0  0  0  0
 16 13  1  6  0  0  0
 16 15  1  0  0  0  0
 16 12  1  0  0  0  0
 17 18  1  0  0  0  0
 18 23  1  0  0  0  0
 19 22  1  0  0  0  0
 19 23  1  1  0  0  0
 20 21  1  0  0  0  0
 21 24  1  6  0  0  0
 21 17  1  0  0  0  0
 22  8  1  1  0  0  0
 24 25  1  1  0  0  0
 26 27  1  0  0  0  0
 27 24  1  0  0  0  0
 28 30  2  0  0  0  0
 29 30  2  0  0  0  0
 30 27  1  0  0  0  0
 31 36  1  0  0  0  0
 32 31  1  0  0  0  0
 32 35  1  0  0  0  0
 35 34  1  6  0  0  0
 35 33  1  0  0  0  0
 36 30  1  6  0  0  0
 36 33  1  0  0  0  0
 39 38  1  1  0  0  0
 39 40  1  0  0  0  0
 39 47  1  0  0  0  0
 40 42  1  0  0  0  0
 40 45  1  1  0  0  0
 42 37  1  6  0  0  0
 43 46  1  0  0  0  0
 43 42  1  0  0  0  0
 44 39  1  0  0  0  0
 46 41  1  1  0  0  0
 47 44  1  6  0  0  0
 47 46  1  0  0  0  0
 48 46  1  0  0  0  0
 49 48  1  0  0  0  0
 50 49  1  0  0  0  0
 51 56  1  0  0  0  0
 51 50  1  6  0  0  0
 52 54  2  0  0  0  0
 53 54  1  0  0  0  0
 54 51  1  0  0  0  0
 56 55  2  0  0  0  0
 57 56  2  0  0  0  0
 58 56  1  0  0  0  0
 58 60  1  0  0  0  0
 59 60  1  0  0  0  0
 60 61  2  6  0  0  0
 60 63  1  0  0  0  0
 63 64  1  0  0  0  0
 63 62  1  0  0  0  0
 64 62  1  0  0  0  0
M  END
>  <MODEL>
7

>  <REMARK>
 VINA RESULT:      -6.7      1.838      3.276
  Name = 
  16 active torsions:
  status: ('A' for Active; 'I' for Inactive)
    1  A    between atoms: C_1  and  N_43
    2  A    between atoms: C_6  and  C_50
    3  A    between atoms: C_6  and  C_56
    4  A    between atoms: C_7  and  N_41
    5  A    between atoms: C_7  and  C_51
    6  A    between atoms: P_15  and  C_22
    7  A    between atoms: P_15  and  N_64
    8  A    between atoms: C_32  and  C_52
    9  A    between atoms: C_38  and  N_43
   10  A    between atoms: N_41  and  S_57
   11  A    between atoms: S_46  and  C_62
   12  A    between atoms: S_46  and  N_64
   13  A    between atoms: C_49  and  C_62
   14  A    between atoms: C_56  and  C_63
   15  A    between atoms: S_57  and  C_59
   16  A    between atoms: C_62  and  C_63
                            x       y       z     vdW  Elec       q    Type
                         _______ _______ _______ _____ _____    ______ ____

>  <TORSDO>
F 16

$$$$
=
 OpenBabel11042416053D

 64 71  0  0  1  0  0  0  0  0999 V2000
  187.2830  176.8390  145.1700 C   0  0  2  0  0  3  0  0  0  0  0  0
  189.2310  177.6090  147.1420 C   0  0  0  0  0  3  0  0  0  0  0  0
  187.5200  178.9970  148.2830 C   0  0  0  0  0  3  0  0  0  0  0  0
  185.5670  178.1750  146.4850 C   0  0  0  0  0  0  0  0  0  0  0  0
  186.2050  179.4580  148.3830 C   0  0  0  0  0  3  0  0  0  0  0  0
  187.8530  178.1030  147.2680 C   0  0  0  0  0  0  0  0  0  0  0  0
  185.2670  179.0360  147.4930 N   0  0  0  0  0  0  0  0  0  0  0  0
  189.5120  176.6570  146.2550 C   0  0  0  0  0  0  0  0  0  0  0  0
  184.6700  177.8270  145.6750 O   0  0  0  0  0  0  0  0  0  0  0  0
  186.8740  177.6850  146.3510 C   0  0  2  0  0  3  0  0  0  0  0  0
  188.4950  176.1260  145.4430 O   0  0  0  0  0  0  0  0  0  0  0  0
  193.0760  176.3630  145.1840 C   0  0  1  0  0  3  0  0  0  0  0  0
  194.9670  175.8920  146.5770 O   0  0  0  0  0  1  0  0  0  0  0  0
  191.5600  176.0920  147.4950 C   0  0  0  0  0  3  0  0  0  0  0  0
  192.8820  176.2760  147.6600 C   0  0  0  0  0  3  0  0  0  0  0  0
  193.7860  176.6390  146.5070 C   0  0  2  0  0  3  0  0  0  0  0  0
  192.4090  175.9580  142.3480 C   0  0  0  0  0  2  0  0  0  0  0  0
  191.2890  175.7870  143.1760 O   0  0  0  0  0  0  0  0  0  0  0  0
  191.7350  176.9820  145.2000 N   0  0  2  0  0  0  0  0  0  0  0  0
  193.8460  176.7730  144.0870 O   0  0  0  0  0  0  0  0  0  0  0  0
  193.6820  175.7330  143.1650 C   0  0  2  0  0  3  0  0  0  0  0  0
  190.9210  176.1660  146.1230 C   0  0  2  0  0  3  0  0  0  0  0  0
  191.1280  177.0080  143.8520 C   0  0  0  0  0  2  0  0  0  0  0  0
  194.9750  175.5060  142.3650 C   0  0  2  0  0  3  0  0  0  0  0  0
  194.8990  175.9780  140.9040 C   0  0  0  0  0  1  0  0  0  0  0  0
  195.9250  173.6940  141.3160 O   0  0  0  0  0  1  0  0  0  0  0  0
  195.3610  174.0940  142.4850 N   0  0  0  0  0  0  0  0  0  0  0  0
  197.7160  173.0830  143.2020 O   0  0  0  0  0  0  0  0  0  0  0  0
  197.0250  175.1910  144.2630 O   0  0  0  0  0  0  0  0  0  0  0  0
  196.5440  173.8600  143.7430 S   0  0  0  0  0  0  0  0  0  0  0  0
  196.7980  172.0180  145.7340 C   0  0  0  0  0  2  0  0  0  0  0  0
  196.2560  170.6660  145.8640 N   0  0  0  0  0  2  0  0  0  0  0  0
  194.4150  171.9260  144.4450 S   0  0  0  0  0  0  0  0  0  0  0  0
  194.2260  169.4010  145.4340 C   0  0  0  0  0  1  0  0  0  0  0  0
  194.8090  170.7630  145.7620 C   0  0  1  0  0  3  0  0  0  0  0  0
  195.7830  172.9340  145.0630 C   0  0  2  0  0  3  0  0  0  0  0  0
  187.4790  177.7070  144.0180 N   0  0  0  0  0  2  0  0  0  0  0  0
  185.1710  177.6320  139.6720 F   0  0  0  0  0  0  0  0  0  0  0  0
  186.2340  177.2780  140.4830 C   0  0  2  0  0  0  0  0  0  0  0  0
  186.3710  177.9200  141.8600 C   0  0  2  0  0  3  0  0  0  0  0  0
  187.1810  174.2830  141.9030 C   0  0  0  0  0  1  0  0  0  0  0  0
  187.0870  176.9760  142.8230 C   0  0  1  0  0  3  0  0  0  0  0  0
  188.2420  176.4410  142.2180 O   0  0  0  0  0  0  0  0  0  0  0  0
  187.4410  177.3450  139.7620 O   0  0  0  0  0  0  0  0  0  0  0  0
  185.1030  178.2180  142.3600 O   0  0  0  0  0  1  0  0  0  0  0  0
  187.8830  175.4710  141.2470 C   0  0  2  0  0  0  0  0  0  0  0  0
  186.9940  176.0540  140.1190 C   0  0  1  0  0  3  0  0  0  0  0  0
  189.1890  174.9660  140.6260 C   0  0  0  0  0  2  0  0  0  0  0  0
  189.2010  173.4630  140.3760 C   0  0  0  0  0  2  0  0  0  0  0  0
  190.5680  172.9060  140.7200 C   0  0  0  0  0  2  0  0  0  0  0  0
  190.8820  171.6920  139.8590 C   0  0  2  0  0  3  0  0  0  0  0  0
  190.4410  169.2450  140.1450 O   0  0  0  0  0  0  0  0  0  0  0  0
  191.1780  170.5130  141.9050 O   0  0  0  0  0  1  0  0  0  0  0  0
  190.8470  170.4570  140.6930 C   0  0  0  0  0  0  0  0  0  0  0  0
  193.1850  170.5330  139.0800 O   0  0  0  0  0  0  0  0  0  0  0  0
  192.4790  171.8620  139.0690 S   0  0  0  0  0  0  0  0  0  0  0  0
  193.2980  172.8690  139.8290 O   0  0  0  0  0  0  0  0  0  0  0  0
  192.2500  172.3860  137.4290 N   0  0  0  0  0  2  0  0  0  0  0  0
  193.6420  172.8400  135.1990 O   0  0  0  0  0  0  0  0  0  0  0  0
  193.8080  172.7690  136.7030 P   0  0  2  0  0  0  0  0  0  0  0  0
  194.9360  171.5570  137.0600 O   0  0  0  0  0  1  0  0  0  0  0  0
  193.3950  175.4490  137.1420 C   0  0  0  0  0  2  0  0  0  0  0  0
  194.4440  174.3640  137.3120 C   0  0  0  0  0  3  0  0  0  0  0  0
  194.5380  175.3450  136.1590 C   0  0  0  0  0  2  0  0  0  0  0  0
  1 37  1  6  0  0  0
  1 11  1  0  0  0  0
  1 10  1  0  0  0  0
  2  6  1  0  0  0  0
  3  5  1  0  0  0  0
  4  7  1  0  0  0  0
  6  3  2  0  0  0  0
  7  5  2  0  0  0  0
  8  2  2  0  0  0  0
  9  4  2  0  0  0  0
 10  4  1  6  0  0  0
 10  6  1  0  0  0  0
 11  8  1  0  0  0  0
 12 20  1  6  0  0  0
 12 19  1  0  0  0  0
 12 16  1  0  0  0  0
 14 15  2  0  0  0  0
 16 13  1  6  0  0  0
 16 15  1  0  0  0  0
 17 21  1  0  0  0  0
 17 18  1  0  0  0  0
 18 23  1  0  0  0  0
 19 23  1  6  0  0  0
 19 22  1  0  0  0  0
 21 24  1  6  0  0  0
 21 20  1  0  0  0  0
 22  8  1  1  0  0  0
 22 14  1  0  0  0  0
 24 25  1  6  0  0  0
 24 27  1  0  0  0  0
 26 27  1  0  0  0  0
 27 30  1  0  0  0  0
 28 30  2  0  0  0  0
 30 29  2  0  0  0  0
 31 32  1  0  0  0  0
 33 36  1  0  0  0  0
 33 35  1  0  0  0  0
 35 34  1  6  0  0  0
 35 32  1  0  0  0  0
 36 30  1  6  0  0  0
 36 31  1  0  0  0  0
 39 38  1  6  0  0  0
 39 40  1  0  0  0  0
 40 45  1  1  0  0  0
 40 42  1  0  0  0  0
 42 37  1  1  0  0  0
 43 42  1  0  0  0  0
 44 39  1  0  0  0  0
 46 41  1  1  0  0  0
 46 43  1  0  0  0  0
 47 44  1  6  0  0  0
 47 39  1  0  0  0  0
 47 46  1  0  0  0  0
 48 46  1  0  0  0  0
 49 48  1  0  0  0  0
 49 50  1  0  0  0  0
 51 54  1  0  0  0  0
 51 50  1  1  0  0  0
 52 54  2  0  0  0  0
 54 53  1  0  0  0  0
 56 55  2  0  0  0  0
 56 57  2  0  0  0  0
 56 51  1  0  0  0  0
 58 56  1  0  0  0  0
 60 59  2  6  0  0  0
 60 61  1  0  0  0  0
 60 63  1  0  0  0  0
 60 58  1  0  0  0  0
 62 63  1  0  0  0  0
 64 62  1  0  0  0  0
 64 63  1  0  0  0  0
M  END
>  <MODEL>
8

>  <REMARK>
 VINA RESULT:      -6.5      2.703      7.111
  Name = 
  16 active torsions:
  status: ('A' for Active; 'I' for Inactive)
    1  A    between atoms: C_1  and  N_43
    2  A    between atoms: C_6  and  C_50
    3  A    between atoms: C_6  and  C_56
    4  A    between atoms: C_7  and  N_41
    5  A    between atoms: C_7  and  C_51
    6  A    between atoms: P_15  and  C_22
    7  A    between atoms: P_15  and  N_64
    8  A    between atoms: C_32  and  C_52
    9  A    between atoms: C_38  and  N_43
   10  A    between atoms: N_41  and  S_57
   11  A    between atoms: S_46  and  C_62
   12  A    between atoms: S_46  and  N_64
   13  A    between atoms: C_49  and  C_62
   14  A    between atoms: C_56  and  C_63
   15  A    between atoms: S_57  and  C_59
   16  A    between atoms: C_62  and  C_63
                            x       y       z     vdW  Elec       q    Type
                         _______ _______ _______ _____ _____    ______ ____

>  <TORSDO>
F 16

$$$$
=
 OpenBabel11042416053D

 64 71  0  0  1  0  0  0  0  0999 V2000
  188.1070  177.5790  144.0310 C   0  0  2  0  0  3  0  0  0  0  0  0
  186.5160  176.4090  141.9380 C   0  0  0  0  0  3  0  0  0  0  0  0
  184.5130  177.5810  142.8130 C   0  0  0  0  0  3  0  0  0  0  0  0
  186.0310  178.8450  144.7680 C   0  0  0  0  0  0  0  0  0  0  0  0
  183.9290  178.4650  143.7230 C   0  0  0  0  0  3  0  0  0  0  0  0
  185.8820  177.3370  142.8830 C   0  0  0  0  0  0  0  0  0  0  0  0
  184.6950  179.0740  144.6670 N   0  0  0  0  0  0  0  0  0  0  0  0
  187.8420  176.2820  141.9260 C   0  0  0  0  0  0  0  0  0  0  0  0
  186.6950  179.4170  145.6700 O   0  0  0  0  0  0  0  0  0  0  0  0
  186.6580  177.9670  143.8710 C   0  0  2  0  0  3  0  0  0  0  0  0
  188.6310  177.0340  142.8140 O   0  0  0  0  0  0  0  0  0  0  0  0
  189.0250  173.1170  140.3410 C   0  0  1  0  0  3  0  0  0  0  0  0
  188.9260  172.5420  138.0180 O   0  0  0  0  0  1  0  0  0  0  0  0
  187.9170  175.5460  139.5800 C   0  0  0  0  0  3  0  0  0  0  0  0
  187.8200  174.5380  138.6970 C   0  0  0  0  0  3  0  0  0  0  0  0
  188.1940  173.1210  139.0610 C   0  0  2  0  0  3  0  0  0  0  0  0
  190.7410  172.3750  142.6130 C   0  0  0  0  0  2  0  0  0  0  0  0
  190.3440  173.7190  142.6760 O   0  0  0  0  0  0  0  0  0  0  0  0
  188.3420  173.9140  141.3810 N   0  0  2  0  0  0  0  0  0  0  0  0
  189.3170  171.8140  140.7650 O   0  0  0  0  0  0  0  0  0  0  0  0
  190.6560  171.8900  141.1640 C   0  0  2  0  0  3  0  0  0  0  0  0
  188.4820  175.3240  140.9690 C   0  0  2  0  0  3  0  0  0  0  0  0
  188.9400  173.6980  142.7160 C   0  0  0  0  0  2  0  0  0  0  0  0
  191.3980  170.5840  140.8370 C   0  0  2  0  0  3  0  0  0  0  0  0
  191.9170  169.8320  142.0730 C   0  0  0  0  0  1  0  0  0  0  0  0
  193.6380  171.0000  140.5270 O   0  0  0  0  0  1  0  0  0  0  0  0
  192.4590  170.8760  139.8640 N   0  0  0  0  0  0  0  0  0  0  0  0
  193.9340  168.8530  138.9640 O   0  0  0  0  0  0  0  0  0  0  0  0
  191.4900  168.6160  138.8230 O   0  0  0  0  0  0  0  0  0  0  0  0
  192.6410  169.5840  138.7110 S   0  0  0  0  0  0  0  0  0  0  0  0
  192.7620  171.8110  137.1470 C   0  0  0  0  0  2  0  0  0  0  0  0
  191.7670  172.4190  136.2660 N   0  0  0  0  0  2  0  0  0  0  0  0
  191.2000  169.8400  136.1370 S   0  0  0  0  0  0  0  0  0  0  0  0
  190.0590  171.8070  134.6480 C   0  0  0  0  0  1  0  0  0  0  0  0
  191.3790  171.4170  135.2850 C   0  0  1  0  0  3  0  0  0  0  0  0
  192.6780  170.2930  137.0750 C   0  0  2  0  0  3  0  0  0  0  0  0
  188.2100  176.5860  145.0910 N   0  0  0  0  0  2  0  0  0  0  0  0
  191.1720  177.4120  148.9330 F   0  0  0  0  0  0  0  0  0  0  0  0
  190.8300  176.6920  147.8030 C   0  0  2  0  0  0  0  0  0  0  0  0
  189.4790  176.9380  147.1390 C   0  0  2  0  0  3  0  0  0  0  0  0
  192.2220  176.5020  144.6550 C   0  0  0  0  0  1  0  0  0  0  0  0
  189.5550  176.6450  145.6430 C   0  0  1  0  0  3  0  0  0  0  0  0
  190.1940  175.4090  145.4170 O   0  0  0  0  0  0  0  0  0  0  0  0
  191.0570  175.3180  148.0120 O   0  0  0  0  0  0  0  0  0  0  0  0
  189.1040  178.2680  147.3330 O   0  0  0  0  0  1  0  0  0  0  0  0
  191.5880  175.5290  145.6490 C   0  0  2  0  0  0  0  0  0  0  0  0
  191.9190  175.9650  147.1000 C   0  0  1  0  0  3  0  0  0  0  0  0
  192.1950  174.1430  145.4070 C   0  0  0  0  0  2  0  0  0  0  0  0
  193.3440  174.1490  144.4060 C   0  0  0  0  0  2  0  0  0  0  0  0
  194.5700  173.5280  145.0440 C   0  0  0  0  0  2  0  0  0  0  0  0
  195.4510  172.8790  143.9870 C   0  0  2  0  0  3  0  0  0  0  0  0
  195.5000  170.9730  145.6100 O   0  0  0  0  0  1  0  0  0  0  0  0
  195.9570  170.6310  143.3910 O   0  0  0  0  0  0  0  0  0  0  0  0
  195.6470  171.4360  144.3070 C   0  0  0  0  0  0  0  0  0  0  0  0
  197.9410  173.2070  144.9600 O   0  0  0  0  0  0  0  0  0  0  0  0
  197.0320  173.7100  143.8710 S   0  0  0  0  0  0  0  0  0  0  0  0
  196.8220  175.1890  144.0390 O   0  0  0  0  0  0  0  0  0  0  0  0
  197.7390  173.3740  142.3210 N   0  0  0  0  0  2  0  0  0  0  0  0
  197.5080  173.9880  139.7360 O   0  0  0  0  0  0  0  0  0  0  0  0
  197.0400  174.4370  141.1040 P   0  0  2  0  0  0  0  0  0  0  0  0
  197.5550  176.0310  141.3500 O   0  0  0  0  0  1  0  0  0  0  0  0
  194.6500  174.3520  139.7530 C   0  0  0  0  0  2  0  0  0  0  0  0
  195.2190  174.3910  141.1590 C   0  0  0  0  0  3  0  0  0  0  0  0
  194.6610  175.6500  140.5240 C   0  0  0  0  0  2  0  0  0  0  0  0
  1 37  1  1  0  0  0
  2  6  1  0  0  0  0
  3  6  2  0  0  0  0
  3  5  1  0  0  0  0
  4  9  2  0  0  0  0
  5  7  2  0  0  0  0
  7  4  1  0  0  0  0
  8  2  2  0  0  0  0
  8 11  1  0  0  0  0
 10  6  1  1  0  0  0
 10  1  1  0  0  0  0
 10  4  1  0  0  0  0
 11  1  1  0  0  0  0
 12 20  1  1  0  0  0
 12 19  1  0  0  0  0
 14 22  1  0  0  0  0
 15 16  1  0  0  0  0
 15 14  2  0  0  0  0
 16 13  1  6  0  0  0
 16 12  1  0  0  0  0
 17 18  1  0  0  0  0
 18 23  1  0  0  0  0
 19 23  1  1  0  0  0
 20 21  1  0  0  0  0
 21 24  1  1  0  0  0
 21 17  1  0  0  0  0
 22 19  1  0  0  0  0
 22  8  1  1  0  0  0
 24 25  1  1  0  0  0
 27 26  1  0  0  0  0
 27 24  1  0  0  0  0
 30 29  2  0  0  0  0
 30 28  2  0  0  0  0
 30 27  1  0  0  0  0
 32 31  1  0  0  0  0
 33 36  1  0  0  0  0
 35 34  1  1  0  0  0
 35 33  1  0  0  0  0
 35 32  1  0  0  0  0
 36 31  1  0  0  0  0
 36 30  1  1  0  0  0
 39 44  1  0  0  0  0
 39 38  1  1  0  0  0
 40 45  1  6  0  0  0
 40 39  1  0  0  0  0
 42 37  1  1  0  0  0
 42 40  1  0  0  0  0
 43 42  1  0  0  0  0
 43 46  1  0  0  0  0
 46 41  1  6  0  0  0
 46 47  1  0  0  0  0
 47 39  1  0  0  0  0
 47 44  1  1  0  0  0
 48 46  1  0  0  0  0
 49 50  1  0  0  0  0
 49 48  1  0  0  0  0
 51 54  1  0  0  0  0
 51 50  1  1  0  0  0
 53 54  2  0  0  0  0
 54 52  1  0  0  0  0
 56 51  1  0  0  0  0
 56 57  2  0  0  0  0
 56 55  2  0  0  0  0
 58 56  1  0  0  0  0
 60 59  2  6  0  0  0
 60 63  1  0  0  0  0
 60 61  1  0  0  0  0
 60 58  1  0  0  0  0
 62 64  1  0  0  0  0
 62 63  1  0  0  0  0
 64 63  1  0  0  0  0
M  END
>  <MODEL>
9

>  <REMARK>
 VINA RESULT:      -6.5      1.813      2.074
  Name = 
  16 active torsions:
  status: ('A' for Active; 'I' for Inactive)
    1  A    between atoms: C_1  and  N_43
    2  A    between atoms: C_6  and  C_50
    3  A    between atoms: C_6  and  C_56
    4  A    between atoms: C_7  and  N_41
    5  A    between atoms: C_7  and  C_51
    6  A    between atoms: P_15  and  C_22
    7  A    between atoms: P_15  and  N_64
    8  A    between atoms: C_32  and  C_52
    9  A    between atoms: C_38  and  N_43
   10  A    between atoms: N_41  and  S_57
   11  A    between atoms: S_46  and  C_62
   12  A    between atoms: S_46  and  N_64
   13  A    between atoms: C_49  and  C_62
   14  A    between atoms: C_56  and  C_63
   15  A    between atoms: S_57  and  C_59
   16  A    between atoms: C_62  and  C_63
                            x       y       z     vdW  Elec       q    Type
                         _______ _______ _______ _____ _____    ______ ____

>  <TORSDO>
F 16

$$$$
