=
 OpenBabel11042416353D

 62 70  0  0  1  0  0  0  0  0999 V2000
  193.9290  173.7350  143.0890 C   0  0  0  0  0  0  0  0  0  0  0  0
  194.4990  175.9050  144.7710 C   0  0  0  0  0  0  0  0  0  0  0  0
  189.6350  176.9650  145.9540 C   0  0  0  0  0  0  0  0  0  0  0  0
  190.4380  171.5630  143.0190 O   0  0  0  0  0  0  0  0  0  0  0  0
  190.5870  176.2550  145.3930 C   0  0  0  0  0  0  0  0  0  0  0  0
  188.4410  177.4450  145.1820 C   0  0  1  0  0  3  0  0  0  0  0  0
  195.1360  174.5480  141.3720 N   0  0  0  0  0  0  0  0  0  0  0  0
  190.3080  174.3730  143.7150 C   0  0  0  0  0  0  0  0  0  0  0  0
  189.5520  176.6100  143.2010 O   0  0  0  0  0  0  0  0  0  0  0  0
  193.5660  172.9530  141.9220 C   0  0  0  0  0  0  0  0  0  0  0  0
  193.2630  173.8830  144.1870 N   0  0  0  0  0  0  0  0  0  0  0  0
  195.3520  175.8080  143.5110 C   0  0  0  0  0  3  0  0  0  0  0  0
  192.4400  171.9620  141.7880 C   0  0  0  0  0  2  0  0  0  0  0  0
  193.5340  174.9860  145.0700 C   0  0  0  0  0  0  0  0  0  0  0  0
  191.2090  172.4170  142.5050 C   0  0  0  0  0  0  0  0  0  0  0  0
  190.9480  173.7880  142.6170 O   0  0  0  0  0  0  0  0  0  0  0  0
  192.6890  175.0830  146.3080 C   0  0  0  0  0  2  0  0  0  0  0  0
  191.7280  176.1810  146.2490 N   0  0  0  0  0  0  0  0  0  0  0  0
  189.6060  173.6890  144.5050 O   0  0  0  0  0  0  0  0  0  0  0  0
  191.3820  176.9230  147.4590 C   0  0  0  0  0  3  0  0  0  0  0  0
  188.3120  176.6320  143.8880 C   0  0  0  0  0  2  0  0  0  0  0  0
  190.0470  177.4690  147.2170 N   0  0  0  0  0  0  0  0  0  0  0  0
  194.8880  174.6900  142.6330 C   0  0  1  0  0  3  0  0  0  0  0  0
  194.3070  173.4560  140.9290 C   0  0  0  0  0  0  0  0  0  0  0  0
  190.4990  175.8430  143.9360 C   0  0  1  0  0  3  0  0  0  0  0  0
  185.8740  176.4710  147.8670 C   0  0  0  0  0  2  0  0  0  0  0  0
  187.1740  177.4170  145.9850 C   0  0  0  0  0  0  0  0  0  0  0  0
  184.6130  176.8950  147.1110 C   0  0  0  0  0  2  0  0  0  0  0  0
  187.0670  176.4970  146.9530 C   0  0  0  0  0  3  0  0  0  0  0  0
  184.8680  178.1590  146.3370 C   0  0  0  0  0  3  0  0  0  0  0  0
  186.0640  178.3880  145.7660 C   0  0  0  0  0  0  0  0  0  0  0  0
  186.2770  179.5280  144.9810 O   0  0  0  0  0  0  0  0  0  0  0  0
  185.4210  179.8830  143.8990 C   0  0  0  0  0  2  0  0  0  0  0  0
  185.9800  179.3340  142.6010 C   0  0  0  0  0  2  0  0  0  0  0  0
  184.8910  178.0340  141.9560 P   0  0  2  0  0  0  0  0  0  0  0  0
  185.3090  176.7030  142.5460 O   0  0  0  0  0  1  0  0  0  0  0  0
  185.0160  177.9720  140.2710 O   0  0  0  0  0  0  0  0  0  0  0  0
  183.2930  178.3950  142.3960 O   0  0  0  0  0  0  0  0  0  0  0  0
  182.5080  178.0260  141.3020 C   0  0  2  0  0  3  0  0  0  0  0  0
  181.6440  179.1380  140.9220 C   0  0  0  0  0  2  0  0  0  0  0  0
  181.0960  178.0230  141.7100 N   0  0  0  0  0  2  0  0  0  0  0  0
  194.9730  177.9110  146.3550 N   0  0  0  0  0  0  0  0  0  0  0  0
  194.7610  177.0180  145.6490 C   0  0  0  0  0  0  0  0  0  0  0  0
  193.6880  174.0330  138.6350 C   0  0  0  0  0  3  0  0  0  0  0  0
  194.1000  173.1280  139.5150 C   0  0  0  0  0  3  0  0  0  0  0  0
  193.3710  173.6510  137.2500 C   0  0  0  0  0  0  0  0  0  0  0  0
  194.2950  173.6030  136.3910 O   0  0  0  0  0  0  0  0  0  0  0  0
  189.3850  172.4870  136.1960 C   0  0  0  0  0  3  0  0  0  0  0  0
  192.0020  173.2580  136.8630 C   0  0  0  0  0  0  0  0  0  0  0  0
  191.7580  172.5310  135.6890 C   0  0  0  0  0  3  0  0  0  0  0  0
  190.9250  173.6010  137.6910 C   0  0  0  0  0  3  0  0  0  0  0  0
  189.6160  173.2090  137.3730 C   0  0  0  0  0  0  0  0  0  0  0  0
  190.4530  172.1470  135.3580 C   0  0  0  0  0  3  0  0  0  0  0  0
  188.6660  174.7540  140.4360 C   0  0  0  0  0  2  0  0  0  0  0  0
  187.4580  175.7610  139.5440 S   0  0  0  0  0  0  0  0  0  0  0  0
  188.0490  175.0430  137.9870 C   0  0  1  0  0  3  0  0  0  0  0  0
  188.4520  173.5980  138.2450 C   0  0  2  0  0  3  0  0  0  0  0  0
  188.7620  173.4140  139.7340 C   0  0  2  0  0  3  0  0  0  0  0  0
  187.3920  176.0360  135.9770 C   0  0  0  0  0  1  0  0  0  0  0  0
  186.9870  175.0810  136.9950 N   0  0  0  0  0  2  0  0  0  0  0  0
  187.7990  172.4210  140.3750 C   0  0  0  0  0  2  0  0  0  0  0  0
  187.5640  172.7860  141.7620 N   0  0  0  0  0  1  0  0  0  0  0  0
  1 11  1  0  0  0  0
  2 14  1  0  0  0  0
  2 43  1  0  0  0  0
  3 22  1  0  0  0  0
  5  3  2  0  0  0  0
  5 18  1  0  0  0  0
  6  3  1  0  0  0  0
  6 27  1  1  0  0  0
  7 23  1  0  0  0  0
  8 25  1  0  0  0  0
  8 19  2  0  0  0  0
  9 21  1  0  0  0  0
 10  1  2  0  0  0  0
 11 14  2  0  0  0  0
 12  2  2  0  0  0  0
 13 10  1  0  0  0  0
 13 15  1  0  0  0  0
 14 17  1  0  0  0  0
 15 16  1  0  0  0  0
 15  4  2  0  0  0  0
 16  8  1  0  0  0  0
 18 17  1  0  0  0  0
 18 20  1  0  0  0  0
 21  6  1  0  0  0  0
 22 20  2  0  0  0  0
 23  1  1  0  0  0  0
 23 12  1  6  0  0  0
 24  7  2  0  0  0  0
 24 10  1  0  0  0  0
 25  9  1  1  0  0  0
 25  5  1  0  0  0  0
 27 29  2  0  0  0  0
 28 26  1  0  0  0  0
 29 26  1  0  0  0  0
 30 28  1  0  0  0  0
 31 27  1  0  0  0  0
 31 30  2  0  0  0  0
 32 31  1  0  0  0  0
 33 32  1  0  0  0  0
 34 33  1  0  0  0  0
 35 37  2  6  0  0  0
 35 38  1  0  0  0  0
 35 36  1  0  0  0  0
 35 34  1  0  0  0  0
 39 41  1  0  0  0  0
 39 38  1  1  0  0  0
 40 39  1  0  0  0  0
 40 41  1  0  0  0  0
 43 42  3  0  0  0  0
 44 45  2  0  0  0  0
 45 24  1  0  0  0  0
 46 44  1  0  0  0  0
 47 46  2  0  0  0  0
 48 52  1  0  0  0  0
 49 46  1  0  0  0  0
 49 51  1  0  0  0  0
 50 49  2  0  0  0  0
 52 51  2  0  0  0  0
 53 50  1  0  0  0  0
 53 48  2  0  0  0  0
 55 54  1  0  0  0  0
 56 60  1  6  0  0  0
 56 57  1  0  0  0  0
 56 55  1  0  0  0  0
 57 52  1  6  0  0  0
 57 58  1  0  0  0  0
 58 61  1  1  0  0  0
 58 54  1  0  0  0  0
 59 60  1  0  0  0  0
 61 62  1  0  0  0  0
M  END
>  <MODEL>
1

>  <REMARK>
 VINA RESULT:      -7.0      0.000      0.000
  Name = 
  14 active torsions:
  status: ('A' for Active; 'I' for Inactive)
    1  A    between atoms: P_1  and  O_6
    2  A    between atoms: P_1  and  C_60
    3  A    between atoms: O_6  and  C_15
    4  A    between atoms: C_8  and  C_10
    5  A    between atoms: C_9  and  C_11
    6  A    between atoms: C_11  and  C_14
    7  A    between atoms: C_18  and  C_26
    8  A    between atoms: O_29  and  C_44
    9  A    between atoms: O_29  and  C_61
   10  A    between atoms: C_30  and  C_55
   11  A    between atoms: C_36  and  N_49
   12  A    between atoms: C_43  and  C_47
   13  A    between atoms: C_44  and  C_60
   14  A    between atoms: C_57  and  C_58
                            x       y       z     vdW  Elec       q    Type
                         _______ _______ _______ _____ _____    ______ ____

>  <TORSDO>
F 14

$$$$
=
 OpenBabel11042416353D

 62 70  0  0  1  0  0  0  0  0999 V2000
  194.2050  174.1530  144.5820 C   0  0  0  0  0  0  0  0  0  0  0  0
  194.6660  171.4170  144.1760 C   0  0  0  0  0  0  0  0  0  0  0  0
  192.8270  171.2600  139.4040 C   0  0  0  0  0  0  0  0  0  0  0  0
  193.6220  176.9820  141.6540 O   0  0  0  0  0  0  0  0  0  0  0  0
  193.1850  171.8650  140.5130 C   0  0  0  0  0  0  0  0  0  0  0  0
  191.4750  171.4650  138.7850 C   0  0  1  0  0  3  0  0  0  0  0  0
  193.0750  173.8380  146.5020 N   0  0  0  0  0  0  0  0  0  0  0  0
  192.7190  174.2720  141.1630 C   0  0  0  0  0  0  0  0  0  0  0  0
  190.9060  172.7240  140.7720 O   0  0  0  0  0  0  0  0  0  0  0  0
  193.5480  175.4110  144.8860 C   0  0  0  0  0  0  0  0  0  0  0  0
  194.6510  173.7440  143.4390 N   0  0  0  0  0  0  0  0  0  0  0  0
  194.1590  171.8010  145.5620 C   0  0  0  0  0  2  0  0  0  0  0  0
  193.4180  176.6230  144.0020 C   0  0  0  0  0  2  0  0  0  0  0  0
  194.8980  172.3460  143.2020 C   0  0  0  0  0  0  0  0  0  0  0  0
  193.1750  176.2470  142.5750 C   0  0  0  0  0  0  0  0  0  0  0  0
  192.4740  175.0700  142.2850 O   0  0  0  0  0  0  0  0  0  0  0  0
  195.3920  171.9700  141.8350 C   0  0  0  0  0  2  0  0  0  0  0  0
  194.3780  171.2830  141.0390 N   0  0  0  0  0  0  0  0  0  0  0  0
  193.3230  174.7260  140.1550 O   0  0  0  0  0  0  0  0  0  0  0  0
  194.7650  170.2260  140.1090 C   0  0  0  0  0  3  0  0  0  0  0  0
  190.8450  172.7420  139.3560 C   0  0  0  0  0  2  0  0  0  0  0  0
  193.7130  170.1930  139.0920 N   0  0  0  0  0  0  0  0  0  0  0  0
  193.8360  173.2580  145.6320 C   0  0  0  0  0  0  0  0  0  0  0  0
  192.8990  175.1880  146.0330 C   0  0  0  0  0  0  0  0  0  0  0  0
  192.2570  172.8480  141.2010 C   0  0  1  0  0  3  0  0  0  0  0  0
  190.5310  170.7820  135.1260 C   0  0  0  0  0  2  0  0  0  0  0  0
  191.5140  171.4870  137.2860 C   0  0  0  0  0  0  0  0  0  0  0  0
  191.9160  170.9920  134.5130 C   0  0  0  0  0  2  0  0  0  0  0  0
  190.6230  170.7340  136.6260 C   0  0  0  0  0  3  0  0  0  0  0  0
  192.6260  172.1250  135.2010 C   0  0  0  0  0  3  0  0  0  0  0  0
  192.4720  172.3340  136.5210 C   0  0  0  0  0  0  0  0  0  0  0  0
  193.1930  173.3400  137.1760 O   0  0  0  0  0  0  0  0  0  0  0  0
  194.6150  173.4190  137.1290 C   0  0  0  0  0  2  0  0  0  0  0  0
  195.0510  174.8680  137.2010 C   0  0  0  0  0  2  0  0  0  0  0  0
  195.5780  175.4410  135.5620 P   0  0  2  0  0  0  0  0  0  0  0  0
  195.4350  174.3040  134.5720 O   0  0  0  0  0  0  0  0  0  0  0  0
  197.1930  175.9380  135.6250 O   0  0  0  0  0  1  0  0  0  0  0  0
  194.5970  176.7470  135.1020 O   0  0  0  0  0  0  0  0  0  0  0  0
  193.3970  176.5800  135.7960 C   0  0  2  0  0  3  0  0  0  0  0  0
  192.3820  176.0420  134.8970 C   0  0  0  0  0  2  0  0  0  0  0  0
  192.3860  177.4770  135.2200 N   0  0  0  0  0  2  0  0  0  0  0  0
  195.0910  168.8900  143.7400 N   0  0  0  0  0  0  0  0  0  0  0  0
  194.9010  170.0150  143.9340 C   0  0  0  0  0  0  0  0  0  0  0  0
  190.6040  175.9510  146.3990 C   0  0  0  0  0  3  0  0  0  0  0  0
  191.9070  176.1100  146.5970 C   0  0  0  0  0  3  0  0  0  0  0  0
  189.6390  176.9560  146.8720 C   0  0  0  0  0  0  0  0  0  0  0  0
  190.0430  177.9230  147.5740 O   0  0  0  0  0  0  0  0  0  0  0  0
  185.5240  176.8120  145.6890 C   0  0  0  0  0  3  0  0  0  0  0  0
  188.2180  176.8890  146.4820 C   0  0  0  0  0  0  0  0  0  0  0  0
  187.1980  176.8920  147.4440 C   0  0  0  0  0  3  0  0  0  0  0  0
  187.8750  176.8370  145.1230 C   0  0  0  0  0  3  0  0  0  0  0  0
  186.5320  176.8110  144.7170 C   0  0  0  0  0  0  0  0  0  0  0  0
  185.8560  176.8540  147.0480 C   0  0  0  0  0  3  0  0  0  0  0  0
  186.4900  178.5700  141.6230 C   0  0  0  0  0  2  0  0  0  0  0  0
  187.2440  177.1420  140.8110 S   0  0  0  0  0  0  0  0  0  0  0  0
  187.3630  176.3210  142.4230 C   0  0  1  0  0  3  0  0  0  0  0  0
  186.1600  176.7290  143.2620 C   0  0  2  0  0  3  0  0  0  0  0  0
  185.5990  178.0540  142.7350 C   0  0  2  0  0  3  0  0  0  0  0  0
  188.6740  174.4000  142.6380 C   0  0  0  0  0  1  0  0  0  0  0  0
  187.3610  174.8790  142.2400 N   0  0  0  0  0  2  0  0  0  0  0  0
  184.1750  177.8790  142.2210 C   0  0  0  0  0  2  0  0  0  0  0  0
  184.0980  178.2880  140.8280 N   0  0  0  0  0  1  0  0  0  0  0  0
  1 10  1  0  0  0  0
  1 23  1  0  0  0  0
  2 12  1  0  0  0  0
  3  5  2  0  0  0  0
  4 15  2  0  0  0  0
  5 18  1  0  0  0  0
  6 27  1  6  0  0  0
  6 21  1  0  0  0  0
  6  3  1  0  0  0  0
  8 25  1  0  0  0  0
  8 16  1  0  0  0  0
  9 25  1  0  0  0  0
 10 24  2  0  0  0  0
 11  1  2  0  0  0  0
 12 23  1  0  0  0  0
 13 10  1  0  0  0  0
 14 11  1  0  0  0  0
 14  2  2  0  0  0  0
 15 13  1  0  0  0  0
 16 15  1  0  0  0  0
 17 14  1  0  0  0  0
 18 17  1  0  0  0  0
 19  8  2  0  0  0  0
 20 18  1  0  0  0  0
 21  9  1  0  0  0  0
 22  3  1  0  0  0  0
 22 20  2  0  0  0  0
 23  7  2  0  0  0  0
 24  7  1  0  0  0  0
 24 45  1  0  0  0  0
 25  5  1  6  0  0  0
 26 29  1  0  0  0  0
 28 26  1  0  0  0  0
 28 30  1  0  0  0  0
 29 27  2  0  0  0  0
 30 31  2  0  0  0  0
 31 32  1  0  0  0  0
 31 27  1  0  0  0  0
 33 32  1  0  0  0  0
 33 34  1  0  0  0  0
 35 36  2  6  0  0  0
 35 37  1  0  0  0  0
 35 34  1  0  0  0  0
 38 35  1  0  0  0  0
 39 38  1  6  0  0  0
 40 41  1  0  0  0  0
 40 39  1  0  0  0  0
 41 39  1  0  0  0  0
 42 43  3  0  0  0  0
 43  2  1  0  0  0  0
 44 45  2  0  0  0  0
 44 46  1  0  0  0  0
 46 47  2  0  0  0  0
 48 53  1  0  0  0  0
 49 46  1  0  0  0  0
 49 50  1  0  0  0  0
 51 49  2  0  0  0  0
 52 51  1  0  0  0  0
 52 48  2  0  0  0  0
 53 50  2  0  0  0  0
 54 58  1  0  0  0  0
 55 54  1  0  0  0  0
 55 56  1  0  0  0  0
 56 60  1  6  0  0  0
 56 57  1  0  0  0  0
 57 52  1  1  0  0  0
 58 61  1  6  0  0  0
 58 57  1  0  0  0  0
 60 59  1  0  0  0  0
 62 61  1  0  0  0  0
M  END
>  <MODEL>
2

>  <REMARK>
 VINA RESULT:      -6.8      3.315      9.233
  Name = 
  14 active torsions:
  status: ('A' for Active; 'I' for Inactive)
    1  A    between atoms: P_1  and  O_6
    2  A    between atoms: P_1  and  C_60
    3  A    between atoms: O_6  and  C_15
    4  A    between atoms: C_8  and  C_10
    5  A    between atoms: C_9  and  C_11
    6  A    between atoms: C_11  and  C_14
    7  A    between atoms: C_18  and  C_26
    8  A    between atoms: O_29  and  C_44
    9  A    between atoms: O_29  and  C_61
   10  A    between atoms: C_30  and  C_55
   11  A    between atoms: C_36  and  N_49
   12  A    between atoms: C_43  and  C_47
   13  A    between atoms: C_44  and  C_60
   14  A    between atoms: C_57  and  C_58
                            x       y       z     vdW  Elec       q    Type
                         _______ _______ _______ _____ _____    ______ ____

>  <TORSDO>
F 14

$$$$
=
 OpenBabel11042416353D

 62 70  0  0  1  0  0  0  0  0999 V2000
  188.4370  173.1660  140.0530 C   0  0  0  0  0  0  0  0  0  0  0  0
  188.8130  173.7220  137.3310 C   0  0  0  0  0  0  0  0  0  0  0  0
  193.4040  171.4930  136.9540 C   0  0  0  0  0  0  0  0  0  0  0  0
  190.4030  170.2950  142.2440 O   0  0  0  0  0  0  0  0  0  0  0  0
  192.2970  171.8220  137.5800 C   0  0  0  0  0  0  0  0  0  0  0  0
  194.7600  171.7610  137.5390 C   0  0  1  0  0  3  0  0  0  0  0  0
  187.9860  175.3060  140.5880 N   0  0  0  0  0  0  0  0  0  0  0  0
  191.8100  171.5740  140.0570 C   0  0  0  0  0  0  0  0  0  0  0  0
  193.6160  172.9820  139.2870 O   0  0  0  0  0  0  0  0  0  0  0  0
  188.5010  173.2530  141.5000 C   0  0  0  0  0  0  0  0  0  0  0  0
  188.9610  172.2680  139.2850 N   0  0  0  0  0  0  0  0  0  0  0  0
  188.1710  174.8390  138.1470 C   0  0  0  0  0  2  0  0  0  0  0  0
  189.0060  172.2140  142.4660 C   0  0  0  0  0  2  0  0  0  0  0  0
  189.1650  172.5240  137.8840 C   0  0  0  0  0  0  0  0  0  0  0  0
  190.2110  171.5020  141.9390 C   0  0  0  0  0  0  0  0  0  0  0  0
  191.0940  172.1840  141.0930 O   0  0  0  0  0  0  0  0  0  0  0  0
  189.8020  171.4260  137.0830 C   0  0  0  0  0  2  0  0  0  0  0  0
  191.1770  171.7340  136.6990 N   0  0  0  0  0  0  0  0  0  0  0  0
  191.9930  170.3280  140.0320 O   0  0  0  0  0  0  0  0  0  0  0  0
  191.7010  171.2820  135.4120 C   0  0  0  0  0  3  0  0  0  0  0  0
  194.6210  172.0130  139.0460 C   0  0  0  0  0  2  0  0  0  0  0  0
  193.1500  171.1910  135.5880 N   0  0  0  0  0  0  0  0  0  0  0  0
  188.1260  174.4840  139.5990 C   0  0  0  0  0  0  0  0  0  0  0  0
  188.2190  174.5300  141.7790 C   0  0  0  0  0  0  0  0  0  0  0  0
  192.3380  172.4470  138.9600 C   0  0  1  0  0  3  0  0  0  0  0  0
  196.5520  168.3670  137.6500 C   0  0  0  0  0  2  0  0  0  0  0  0
  195.7500  170.6730  137.2460 C   0  0  0  0  0  0  0  0  0  0  0  0
  197.9310  168.8460  137.1930 C   0  0  0  0  0  2  0  0  0  0  0  0
  195.6630  169.5400  137.9550 C   0  0  0  0  0  3  0  0  0  0  0  0
  197.7920  169.9060  136.1350 C   0  0  0  0  0  3  0  0  0  0  0  0
  196.7870  170.7990  136.1820 C   0  0  0  0  0  0  0  0  0  0  0  0
  196.7020  171.8330  135.2410 O   0  0  0  0  0  0  0  0  0  0  0  0
  197.6050  172.9340  135.2310 C   0  0  0  0  0  2  0  0  0  0  0  0
  197.6980  173.5340  136.6190 C   0  0  0  0  0  2  0  0  0  0  0  0
  196.6660  175.0240  136.7240 P   0  0  2  0  0  0  0  0  0  0  0  0
  197.3790  176.1670  136.0310 O   0  0  0  0  0  0  0  0  0  0  0  0
  196.4020  175.4200  138.3460 O   0  0  0  0  0  1  0  0  0  0  0  0
  195.1820  174.7110  135.9630 O   0  0  0  0  0  0  0  0  0  0  0  0
  194.2110  175.3110  136.7700 C   0  0  2  0  0  3  0  0  0  0  0  0
  192.9000  175.1630  136.1490 C   0  0  0  0  0  2  0  0  0  0  0  0
  193.6210  176.4420  136.0410 N   0  0  0  0  0  2  0  0  0  0  0  0
  189.2070  174.1960  134.8050 N   0  0  0  0  0  0  0  0  0  0  0  0
  189.0310  173.9840  135.9290 C   0  0  0  0  0  0  0  0  0  0  0  0
  188.8620  176.3640  143.2630 C   0  0  0  0  0  3  0  0  0  0  0  0
  188.3990  175.1300  143.1040 C   0  0  0  0  0  3  0  0  0  0  0  0
  189.1480  176.8990  144.6030 C   0  0  0  0  0  0  0  0  0  0  0  0
  188.4790  177.8770  145.0380 O   0  0  0  0  0  0  0  0  0  0  0  0
  192.0810  175.0080  147.0880 C   0  0  0  0  0  3  0  0  0  0  0  0
  190.1590  176.2680  145.4740 C   0  0  0  0  0  0  0  0  0  0  0  0
  190.0390  176.3010  146.8710 C   0  0  0  0  0  3  0  0  0  0  0  0
  191.2530  175.6080  144.8980 C   0  0  0  0  0  3  0  0  0  0  0  0
  192.2110  174.9650  145.6950 C   0  0  0  0  0  0  0  0  0  0  0  0
  190.9970  175.6730  147.6740 C   0  0  0  0  0  3  0  0  0  0  0  0
  193.6470  173.7980  142.6550 C   0  0  0  0  0  2  0  0  0  0  0  0
  195.1990  174.6210  143.0810 S   0  0  0  0  0  0  0  0  0  0  0  0
  194.4010  175.3010  144.5610 C   0  0  1  0  0  3  0  0  0  0  0  0
  193.4010  174.2780  145.0820 C   0  0  2  0  0  3  0  0  0  0  0  0
  192.9990  173.3350  143.9440 C   0  0  2  0  0  3  0  0  0  0  0  0
  196.0740  174.3030  145.8510 C   0  0  0  0  0  1  0  0  0  0  0  0
  195.4030  175.5640  145.5810 N   0  0  0  0  0  2  0  0  0  0  0  0
  193.4140  171.9000  144.2490 C   0  0  0  0  0  2  0  0  0  0  0  0
  193.7930  171.2230  143.0190 N   0  0  0  0  0  1  0  0  0  0  0  0
  1 10  1  0  0  0  0
  2 14  2  0  0  0  0
  2 12  1  0  0  0  0
  3  6  1  0  0  0  0
  3  5  2  0  0  0  0
  6 27  1  1  0  0  0
  6 21  1  0  0  0  0
  7 24  1  0  0  0  0
  8 16  1  0  0  0  0
 10 24  2  0  0  0  0
 10 13  1  0  0  0  0
 11  1  2  0  0  0  0
 12 23  1  0  0  0  0
 14 11  1  0  0  0  0
 15  4  2  0  0  0  0
 15 13  1  0  0  0  0
 16 15  1  0  0  0  0
 17 14  1  0  0  0  0
 18 17  1  0  0  0  0
 18  5  1  0  0  0  0
 19  8  2  0  0  0  0
 20 22  2  0  0  0  0
 20 18  1  0  0  0  0
 21  9  1  0  0  0  0
 22  3  1  0  0  0  0
 23  1  1  0  0  0  0
 23  7  2  0  0  0  0
 24 45  1  0  0  0  0
 25  5  1  6  0  0  0
 25  9  1  0  0  0  0
 25  8  1  0  0  0  0
 26 29  1  0  0  0  0
 27 29  2  0  0  0  0
 28 26  1  0  0  0  0
 30 31  2  0  0  0  0
 30 28  1  0  0  0  0
 31 27  1  0  0  0  0
 32 31  1  0  0  0  0
 33 32  1  0  0  0  0
 33 34  1  0  0  0  0
 34 35  1  0  0  0  0
 35 36  2  6  0  0  0
 35 37  1  0  0  0  0
 38 35  1  0  0  0  0
 39 38  1  6  0  0  0
 40 39  1  0  0  0  0
 41 40  1  0  0  0  0
 41 39  1  0  0  0  0
 42 43  3  0  0  0  0
 43  2  1  0  0  0  0
 44 46  1  0  0  0  0
 45 44  2  0  0  0  0
 46 47  2  0  0  0  0
 46 49  1  0  0  0  0
 48 53  1  0  0  0  0
 49 50  1  0  0  0  0
 50 53  2  0  0  0  0
 51 49  2  0  0  0  0
 51 52  1  0  0  0  0
 52 48  2  0  0  0  0
 54 55  1  0  0  0  0
 54 58  1  0  0  0  0
 55 56  1  0  0  0  0
 56 57  1  0  0  0  0
 56 60  1  1  0  0  0
 57 52  1  6  0  0  0
 58 61  1  1  0  0  0
 58 57  1  0  0  0  0
 60 59  1  0  0  0  0
 62 61  1  0  0  0  0
M  END
>  <MODEL>
3

>  <REMARK>
 VINA RESULT:      -6.8      3.684     10.821
  Name = 
  14 active torsions:
  status: ('A' for Active; 'I' for Inactive)
    1  A    between atoms: P_1  and  O_6
    2  A    between atoms: P_1  and  C_60
    3  A    between atoms: O_6  and  C_15
    4  A    between atoms: C_8  and  C_10
    5  A    between atoms: C_9  and  C_11
    6  A    between atoms: C_11  and  C_14
    7  A    between atoms: C_18  and  C_26
    8  A    between atoms: O_29  and  C_44
    9  A    between atoms: O_29  and  C_61
   10  A    between atoms: C_30  and  C_55
   11  A    between atoms: C_36  and  N_49
   12  A    between atoms: C_43  and  C_47
   13  A    between atoms: C_44  and  C_60
   14  A    between atoms: C_57  and  C_58
                            x       y       z     vdW  Elec       q    Type
                         _______ _______ _______ _____ _____    ______ ____

>  <TORSDO>
F 14

$$$$
=
 OpenBabel11042416353D

 62 70  0  0  1  0  0  0  0  0999 V2000
  194.0240  174.0930  142.9490 C   0  0  0  0  0  0  0  0  0  0  0  0
  194.5360  176.0430  144.8980 C   0  0  0  0  0  0  0  0  0  0  0  0
  189.6330  177.0170  145.9900 C   0  0  0  0  0  0  0  0  0  0  0  0
  190.5230  171.9890  142.4750 O   0  0  0  0  0  0  0  0  0  0  0  0
  190.6040  176.3670  145.3900 C   0  0  0  0  0  0  0  0  0  0  0  0
  188.4780  177.6000  145.2300 C   0  0  1  0  0  3  0  0  0  0  0  0
  195.3100  175.0870  141.3920 N   0  0  0  0  0  0  0  0  0  0  0  0
  190.3840  174.6990  143.4910 C   0  0  0  0  0  0  0  0  0  0  0  0
  189.6680  176.9900  143.2140 O   0  0  0  0  0  0  0  0  0  0  0  0
  193.7060  173.4580  141.6830 C   0  0  0  0  0  0  0  0  0  0  0  0
  193.3120  174.1190  144.0270 N   0  0  0  0  0  0  0  0  0  0  0  0
  195.4430  176.0840  143.6720 C   0  0  0  0  0  3  0  0  0  0  0  0
  192.5800  172.5040  141.3850 C   0  0  0  0  0  2  0  0  0  0  0  0
  193.5520  175.1080  145.0460 C   0  0  0  0  0  0  0  0  0  0  0  0
  191.3220  172.8870  142.0990 C   0  0  0  0  0  0  0  0  0  0  0  0
  191.0670  174.2380  142.3610 O   0  0  0  0  0  0  0  0  0  0  0  0
  192.6550  175.0690  146.2490 C   0  0  0  0  0  2  0  0  0  0  0  0
  191.7050  176.1780  146.2790 N   0  0  0  0  0  0  0  0  0  0  0  0
  189.6430  173.9360  144.1650 O   0  0  0  0  0  0  0  0  0  0  0  0
  191.3130  176.7770  147.5520 C   0  0  0  0  0  3  0  0  0  0  0  0
  188.3990  176.9470  143.8450 C   0  0  0  0  0  2  0  0  0  0  0  0
  189.9940  177.3640  147.3210 N   0  0  0  0  0  0  0  0  0  0  0  0
  195.0090  175.0830  142.6500 C   0  0  1  0  0  3  0  0  0  0  0  0
  194.4940  174.0650  140.7890 C   0  0  0  0  0  0  0  0  0  0  0  0
  190.5760  176.1290  143.8930 C   0  0  1  0  0  3  0  0  0  0  0  0
  185.8140  176.3970  147.7210 C   0  0  0  0  0  2  0  0  0  0  0  0
  187.1770  177.4940  145.9700 C   0  0  0  0  0  0  0  0  0  0  0  0
  184.5800  176.8490  146.9390 C   0  0  0  0  0  2  0  0  0  0  0  0
  187.0460  176.5070  146.8670 C   0  0  0  0  0  3  0  0  0  0  0  0
  184.8420  178.1680  146.2650 C   0  0  0  0  0  3  0  0  0  0  0  0
  186.0570  178.4570  145.7670 C   0  0  0  0  0  0  0  0  0  0  0  0
  186.2810  179.6520  145.0710 O   0  0  0  0  0  0  0  0  0  0  0  0
  185.5360  180.0150  143.9130 C   0  0  0  0  0  2  0  0  0  0  0  0
  186.0590  179.2580  142.7090 C   0  0  0  0  0  2  0  0  0  0  0  0
  184.9150  177.9190  142.2710 P   0  0  2  0  0  0  0  0  0  0  0  0
  183.5100  178.3220  142.6660 O   0  0  0  0  0  0  0  0  0  0  0  0
  185.3520  176.5070  143.0930 O   0  0  0  0  0  1  0  0  0  0  0  0
  185.0020  177.6550  140.5970 O   0  0  0  0  0  0  0  0  0  0  0  0
  186.3340  177.8860  140.2480 C   0  0  2  0  0  3  0  0  0  0  0  0
  186.6910  177.0600  139.1000 C   0  0  0  0  0  2  0  0  0  0  0  0
  187.1010  176.6490  140.4520 N   0  0  0  0  0  2  0  0  0  0  0  0
  194.9520  177.8430  146.7260 N   0  0  0  0  0  0  0  0  0  0  0  0
  194.7680  177.0410  145.9120 C   0  0  0  0  0  0  0  0  0  0  0  0
  195.3750  174.0240  138.5080 C   0  0  0  0  0  3  0  0  0  0  0  0
  194.3460  173.9090  139.3390 C   0  0  0  0  0  3  0  0  0  0  0  0
  195.1800  173.9840  137.0510 C   0  0  0  0  0  0  0  0  0  0  0  0
  195.7720  174.8270  136.3210 O   0  0  0  0  0  0  0  0  0  0  0  0
  192.7590  170.9190  135.2910 C   0  0  0  0  0  3  0  0  0  0  0  0
  194.3560  172.9340  136.4220 C   0  0  0  0  0  0  0  0  0  0  0  0
  194.9150  172.0080  135.5280 C   0  0  0  0  0  3  0  0  0  0  0  0
  192.9930  172.8440  136.7340 C   0  0  0  0  0  3  0  0  0  0  0  0
  192.1900  171.8340  136.1840 C   0  0  0  0  0  0  0  0  0  0  0  0
  194.1180  171.0050  134.9660 C   0  0  0  0  0  3  0  0  0  0  0  0
  189.7480  172.0500  138.7650 C   0  0  0  0  0  2  0  0  0  0  0  0
  188.7720  173.1720  137.7360 S   0  0  0  0  0  0  0  0  0  0  0  0
  190.0920  173.1370  136.4930 C   0  0  1  0  0  3  0  0  0  0  0  0
  190.7200  171.7500  136.4960 C   0  0  2  0  0  3  0  0  0  0  0  0
  190.4550  171.0750  137.8450 C   0  0  2  0  0  3  0  0  0  0  0  0
  190.0780  174.6940  134.7510 C   0  0  0  0  0  1  0  0  0  0  0  0
  189.5350  173.4150  135.1790 N   0  0  0  0  0  2  0  0  0  0  0  0
  189.6100  169.8180  137.6710 C   0  0  0  0  0  2  0  0  0  0  0  0
  190.3030  168.6740  138.2390 N   0  0  0  0  0  1  0  0  0  0  0  0
  1 11  1  0  0  0  0
  2 14  1  0  0  0  0
  2 43  1  0  0  0  0
  3 22  1  0  0  0  0
  5  3  2  0  0  0  0
  5 18  1  0  0  0  0
  6 27  1  1  0  0  0
  6  3  1  0  0  0  0
  7 23  1  0  0  0  0
  8 25  1  0  0  0  0
  8 19  2  0  0  0  0
  9 21  1  0  0  0  0
 10  1  2  0  0  0  0
 11 14  2  0  0  0  0
 12  2  2  0  0  0  0
 13 10  1  0  0  0  0
 13 15  1  0  0  0  0
 14 17  1  0  0  0  0
 15 16  1  0  0  0  0
 15  4  2  0  0  0  0
 16  8  1  0  0  0  0
 17 18  1  0  0  0  0
 18 20  1  0  0  0  0
 21  6  1  0  0  0  0
 22 20  2  0  0  0  0
 23  1  1  0  0  0  0
 23 12  1  6  0  0  0
 24  7  2  0  0  0  0
 24 10  1  0  0  0  0
 25  9  1  6  0  0  0
 25  5  1  0  0  0  0
 27 29  2  0  0  0  0
 28 26  1  0  0  0  0
 29 26  1  0  0  0  0
 30 28  1  0  0  0  0
 31 27  1  0  0  0  0
 31 30  2  0  0  0  0
 32 31  1  0  0  0  0
 33 32  1  0  0  0  0
 34 33  1  0  0  0  0
 35 36  2  1  0  0  0
 35 34  1  0  0  0  0
 35 37  1  0  0  0  0
 38 35  1  0  0  0  0
 39 41  1  0  0  0  0
 39 38  1  1  0  0  0
 40 39  1  0  0  0  0
 40 41  1  0  0  0  0
 43 42  3  0  0  0  0
 44 45  2  0  0  0  0
 45 24  1  0  0  0  0
 46 44  1  0  0  0  0
 47 46  2  0  0  0  0
 48 52  1  0  0  0  0
 49 51  1  0  0  0  0
 49 46  1  0  0  0  0
 50 49  2  0  0  0  0
 52 51  2  0  0  0  0
 53 48  2  0  0  0  0
 53 50  1  0  0  0  0
 55 54  1  0  0  0  0
 56 60  1  6  0  0  0
 56 57  1  0  0  0  0
 56 55  1  0  0  0  0
 57 52  1  1  0  0  0
 57 58  1  0  0  0  0
 58 61  1  6  0  0  0
 58 54  1  0  0  0  0
 59 60  1  0  0  0  0
 61 62  1  0  0  0  0
M  END
>  <MODEL>
4

>  <REMARK>
 VINA RESULT:      -6.7      1.714      2.278
  Name = 
  14 active torsions:
  status: ('A' for Active; 'I' for Inactive)
    1  A    between atoms: P_1  and  O_6
    2  A    between atoms: P_1  and  C_60
    3  A    between atoms: O_6  and  C_15
    4  A    between atoms: C_8  and  C_10
    5  A    between atoms: C_9  and  C_11
    6  A    between atoms: C_11  and  C_14
    7  A    between atoms: C_18  and  C_26
    8  A    between atoms: O_29  and  C_44
    9  A    between atoms: O_29  and  C_61
   10  A    between atoms: C_30  and  C_55
   11  A    between atoms: C_36  and  N_49
   12  A    between atoms: C_43  and  C_47
   13  A    between atoms: C_44  and  C_60
   14  A    between atoms: C_57  and  C_58
                            x       y       z     vdW  Elec       q    Type
                         _______ _______ _______ _____ _____    ______ ____

>  <TORSDO>
F 14

$$$$
=
 OpenBabel11042416353D

 62 70  0  0  1  0  0  0  0  0999 V2000
  194.2190  174.0590  144.5600 C   0  0  0  0  0  0  0  0  0  0  0  0
  194.6230  171.3120  144.1710 C   0  0  0  0  0  0  0  0  0  0  0  0
  192.7510  171.1590  139.4110 C   0  0  0  0  0  0  0  0  0  0  0  0
  193.6730  176.8790  141.6170 O   0  0  0  0  0  0  0  0  0  0  0  0
  193.1270  171.7640  140.5140 C   0  0  0  0  0  0  0  0  0  0  0  0
  191.3990  171.3870  138.8000 C   0  0  1  0  0  3  0  0  0  0  0  0
  193.0950  173.7790  146.4900 N   0  0  0  0  0  0  0  0  0  0  0  0
  192.7130  174.1850  141.1500 C   0  0  0  0  0  0  0  0  0  0  0  0
  190.8670  172.6700  140.7820 O   0  0  0  0  0  0  0  0  0  0  0  0
  193.5890  175.3320  144.8600 C   0  0  0  0  0  0  0  0  0  0  0  0
  194.6490  173.6340  143.4170 N   0  0  0  0  0  0  0  0  0  0  0  0
  194.1330  171.7150  145.5570 C   0  0  0  0  0  2  0  0  0  0  0  0
  193.4770  176.5400  143.9690 C   0  0  0  0  0  2  0  0  0  0  0  0
  194.8670  172.2300  143.1890 C   0  0  0  0  0  0  0  0  0  0  0  0
  193.2170  176.1600  142.5450 C   0  0  0  0  0  0  0  0  0  0  0  0
  192.4910  174.9950  142.2690 O   0  0  0  0  0  0  0  0  0  0  0  0
  195.3440  171.8350  141.8210 C   0  0  0  0  0  2  0  0  0  0  0  0
  194.3120  171.1630  141.0370 N   0  0  0  0  0  0  0  0  0  0  0  0
  193.3190  174.6200  140.1360 O   0  0  0  0  0  0  0  0  0  0  0  0
  194.6720  170.0920  140.1110 C   0  0  0  0  0  3  0  0  0  0  0  0
  190.7980  172.6790  139.3660 C   0  0  0  0  0  2  0  0  0  0  0  0
  193.6140  170.0730  139.1010 N   0  0  0  0  0  0  0  0  0  0  0  0
  193.8390  173.1790  145.6190 C   0  0  0  0  0  0  0  0  0  0  0  0
  192.9430  175.1300  146.0130 C   0  0  0  0  0  0  0  0  0  0  0  0
  192.2240  172.7700  141.2010 C   0  0  1  0  0  3  0  0  0  0  0  0
  190.4340  170.6740  135.1520 C   0  0  0  0  0  2  0  0  0  0  0  0
  191.4280  171.3980  137.3000 C   0  0  0  0  0  0  0  0  0  0  0  0
  191.8150  170.8840  134.5280 C   0  0  0  0  0  2  0  0  0  0  0  0
  190.5350  170.6380  136.6520 C   0  0  0  0  0  3  0  0  0  0  0  0
  192.5260  172.0240  135.2040 C   0  0  0  0  0  3  0  0  0  0  0  0
  192.3800  172.2420  136.5230 C   0  0  0  0  0  0  0  0  0  0  0  0
  193.1020  173.2550  137.1660 O   0  0  0  0  0  0  0  0  0  0  0  0
  194.4340  173.5980  136.7970 C   0  0  0  0  0  2  0  0  0  0  0  0
  195.3520  173.4520  137.9940 C   0  0  0  0  0  2  0  0  0  0  0  0
  196.9990  172.9130  137.4530 P   0  0  2  0  0  0  0  0  0  0  0  0
  197.6590  172.1420  138.5770 O   0  0  0  0  0  1  0  0  0  0  0  0
  197.9390  174.2630  137.0620 O   0  0  0  0  0  0  0  0  0  0  0  0
  196.8240  171.9240  136.0860 O   0  0  0  0  0  0  0  0  0  0  0  0
  197.2470  170.6530  136.4840 C   0  0  2  0  0  3  0  0  0  0  0  0
  197.0950  169.7170  135.3760 C   0  0  0  0  0  2  0  0  0  0  0  0
  196.0960  169.7400  136.4570 N   0  0  0  0  0  2  0  0  0  0  0  0
  194.9920  168.7730  143.7500 N   0  0  0  0  0  0  0  0  0  0  0  0
  194.8290  169.9040  143.9370 C   0  0  0  0  0  0  0  0  0  0  0  0
  190.6630  175.8970  146.4550 C   0  0  0  0  0  3  0  0  0  0  0  0
  191.9730  176.0740  146.5760 C   0  0  0  0  0  3  0  0  0  0  0  0
  189.7150  176.9200  146.9220 C   0  0  0  0  0  0  0  0  0  0  0  0
  190.1320  177.8760  147.6330 O   0  0  0  0  0  0  0  0  0  0  0  0
  185.6100  176.8640  145.6960 C   0  0  0  0  0  3  0  0  0  0  0  0
  188.2960  176.8840  146.5180 C   0  0  0  0  0  0  0  0  0  0  0  0
  187.2660  176.9670  147.4670 C   0  0  0  0  0  3  0  0  0  0  0  0
  187.9660  176.7820  145.1600 C   0  0  0  0  0  3  0  0  0  0  0  0
  186.6280  176.7840  144.7390 C   0  0  0  0  0  0  0  0  0  0  0  0
  185.9290  176.9570  147.0560 C   0  0  0  0  0  3  0  0  0  0  0  0
  186.8940  178.2910  141.5250 C   0  0  0  0  0  2  0  0  0  0  0  0
  187.4380  176.7090  140.8380 S   0  0  0  0  0  0  0  0  0  0  0  0
  187.4100  176.0040  142.5080 C   0  0  1  0  0  3  0  0  0  0  0  0
  186.2690  176.6470  143.2840 C   0  0  2  0  0  3  0  0  0  0  0  0
  185.9190  177.9970  142.6480 C   0  0  2  0  0  3  0  0  0  0  0  0
  188.5030  173.9520  142.2800 C   0  0  0  0  0  1  0  0  0  0  0  0
  187.1950  174.5680  142.4310 N   0  0  0  0  0  2  0  0  0  0  0  0
  184.4930  177.9960  142.1120 C   0  0  0  0  0  2  0  0  0  0  0  0
  183.5820  178.4950  143.1290 N   0  0  0  0  0  1  0  0  0  0  0  0
  1 10  1  0  0  0  0
  1 23  1  0  0  0  0
  2 12  1  0  0  0  0
  3  5  2  0  0  0  0
  4 15  2  0  0  0  0
  5 18  1  0  0  0  0
  6 27  1  6  0  0  0
  6 21  1  0  0  0  0
  6  3  1  0  0  0  0
  8 25  1  0  0  0  0
  8 16  1  0  0  0  0
  9 25  1  0  0  0  0
 10 24  2  0  0  0  0
 11  1  2  0  0  0  0
 12 23  1  0  0  0  0
 13 10  1  0  0  0  0
 14 11  1  0  0  0  0
 14  2  2  0  0  0  0
 15 13  1  0  0  0  0
 16 15  1  0  0  0  0
 17 14  1  0  0  0  0
 18 17  1  0  0  0  0
 19  8  2  0  0  0  0
 20 18  1  0  0  0  0
 21  9  1  0  0  0  0
 22  3  1  0  0  0  0
 22 20  2  0  0  0  0
 23  7  2  0  0  0  0
 24  7  1  0  0  0  0
 24 45  1  0  0  0  0
 25  5  1  6  0  0  0
 26 29  1  0  0  0  0
 28 26  1  0  0  0  0
 28 30  1  0  0  0  0
 29 27  2  0  0  0  0
 30 31  2  0  0  0  0
 31 32  1  0  0  0  0
 31 27  1  0  0  0  0
 33 32  1  0  0  0  0
 33 34  1  0  0  0  0
 35 37  2  6  0  0  0
 35 34  1  0  0  0  0
 35 36  1  0  0  0  0
 38 35  1  0  0  0  0
 39 38  1  6  0  0  0
 40 41  1  0  0  0  0
 40 39  1  0  0  0  0
 41 39  1  0  0  0  0
 42 43  3  0  0  0  0
 43  2  1  0  0  0  0
 44 45  2  0  0  0  0
 44 46  1  0  0  0  0
 46 47  2  0  0  0  0
 48 53  1  0  0  0  0
 49 46  1  0  0  0  0
 49 50  1  0  0  0  0
 51 49  2  0  0  0  0
 52 51  1  0  0  0  0
 52 48  2  0  0  0  0
 53 50  2  0  0  0  0
 54 58  1  0  0  0  0
 55 54  1  0  0  0  0
 55 56  1  0  0  0  0
 56 60  1  6  0  0  0
 56 57  1  0  0  0  0
 57 52  1  1  0  0  0
 58 61  1  6  0  0  0
 58 57  1  0  0  0  0
 59 60  1  0  0  0  0
 61 62  1  0  0  0  0
M  END
>  <MODEL>
5

>  <REMARK>
 VINA RESULT:      -6.4      3.423      9.788
  Name = 
  14 active torsions:
  status: ('A' for Active; 'I' for Inactive)
    1  A    between atoms: P_1  and  O_6
    2  A    between atoms: P_1  and  C_60
    3  A    between atoms: O_6  and  C_15
    4  A    between atoms: C_8  and  C_10
    5  A    between atoms: C_9  and  C_11
    6  A    between atoms: C_11  and  C_14
    7  A    between atoms: C_18  and  C_26
    8  A    between atoms: O_29  and  C_44
    9  A    between atoms: O_29  and  C_61
   10  A    between atoms: C_30  and  C_55
   11  A    between atoms: C_36  and  N_49
   12  A    between atoms: C_43  and  C_47
   13  A    between atoms: C_44  and  C_60
   14  A    between atoms: C_57  and  C_58
                            x       y       z     vdW  Elec       q    Type
                         _______ _______ _______ _____ _____    ______ ____

>  <TORSDO>
F 14

$$$$
=
 OpenBabel11042416353D

 62 70  0  0  1  0  0  0  0  0999 V2000
  192.7340  174.1370  144.8040 C   0  0  0  0  0  0  0  0  0  0  0  0
  191.9710  175.8590  146.8810 C   0  0  0  0  0  0  0  0  0  0  0  0
  187.7990  177.6960  144.5560 C   0  0  0  0  0  0  0  0  0  0  0  0
  190.3190  172.7630  141.7720 O   0  0  0  0  0  0  0  0  0  0  0  0
  188.8400  176.9020  144.6630 C   0  0  0  0  0  0  0  0  0  0  0  0
  187.5520  178.5240  143.3290 C   0  0  1  0  0  3  0  0  0  0  0  0
  194.8340  174.9410  144.6990 N   0  0  0  0  0  0  0  0  0  0  0  0
  189.8090  175.3990  142.8640 C   0  0  0  0  0  0  0  0  0  0  0  0
  189.7280  177.7940  142.5620 O   0  0  0  0  0  0  0  0  0  0  0  0
  193.3070  173.6350  143.5690 C   0  0  0  0  0  0  0  0  0  0  0  0
  191.4840  174.2470  145.1140 N   0  0  0  0  0  0  0  0  0  0  0  0
  193.4690  175.7850  146.6050 C   0  0  0  0  0  2  0  0  0  0  0  0
  192.6010  172.9280  142.4420 C   0  0  0  0  0  2  0  0  0  0  0  0
  191.0620  175.1220  146.1760 C   0  0  0  0  0  0  0  0  0  0  0  0
  191.2480  173.5100  142.1820 C   0  0  0  0  0  0  0  0  0  0  0  0
  191.0280  174.8710  142.4250 O   0  0  0  0  0  0  0  0  0  0  0  0
  189.5870  175.1980  146.4420 C   0  0  0  0  0  2  0  0  0  0  0  0
  189.0010  176.4650  146.0120 N   0  0  0  0  0  0  0  0  0  0  0  0
  188.7320  174.7590  142.7310 O   0  0  0  0  0  0  0  0  0  0  0  0
  187.9080  177.0660  146.7720 C   0  0  0  0  0  3  0  0  0  0  0  0
  188.3780  177.9640  142.1640 C   0  0  0  0  0  2  0  0  0  0  0  0
  187.1810  177.9040  145.8190 N   0  0  0  0  0  0  0  0  0  0  0  0
  193.7530  174.9350  145.4090 C   0  0  0  0  0  0  0  0  0  0  0  0
  194.5520  174.1230  143.5470 C   0  0  0  0  0  0  0  0  0  0  0  0
  189.8230  176.7450  143.5190 C   0  0  1  0  0  3  0  0  0  0  0  0
  183.8130  179.3610  143.5920 C   0  0  0  0  0  2  0  0  0  0  0  0
  186.0970  178.6320  142.9770 C   0  0  0  0  0  0  0  0  0  0  0  0
  183.2940  178.2910  142.6300 C   0  0  0  0  0  2  0  0  0  0  0  0
  185.2650  179.1260  143.9030 C   0  0  0  0  0  3  0  0  0  0  0  0
  184.2360  178.1290  141.4690 C   0  0  0  0  0  3  0  0  0  0  0  0
  185.5650  178.2460  141.6400 C   0  0  0  0  0  0  0  0  0  0  0  0
  186.4470  178.0180  140.5750 O   0  0  0  0  0  0  0  0  0  0  0  0
  186.0400  177.3860  139.3660 C   0  0  0  0  0  2  0  0  0  0  0  0
  187.1300  176.4500  138.8840 C   0  0  0  0  0  2  0  0  0  0  0  0
  186.8710  176.0390  137.1360 P   0  0  2  0  0  0  0  0  0  0  0  0
  187.4370  177.1520  136.2780 O   0  0  0  0  0  0  0  0  0  0  0  0
  185.2160  175.8740  136.8300 O   0  0  0  0  0  1  0  0  0  0  0  0
  187.6620  174.5770  136.7980 O   0  0  0  0  0  0  0  0  0  0  0  0
  188.5160  174.3520  137.8800 C   0  0  2  0  0  3  0  0  0  0  0  0
  189.3640  173.1980  137.6030 C   0  0  0  0  0  2  0  0  0  0  0  0
  188.1920  173.0500  138.4790 N   0  0  0  0  0  2  0  0  0  0  0  0
  191.2050  177.4560  148.7840 N   0  0  0  0  0  0  0  0  0  0  0  0
  191.5470  176.7460  147.9360 C   0  0  0  0  0  0  0  0  0  0  0  0
  195.7300  175.1500  141.6660 C   0  0  0  0  0  3  0  0  0  0  0  0
  195.4260  174.0670  142.3710 C   0  0  0  0  0  3  0  0  0  0  0  0
  196.5080  175.0490  140.4210 C   0  0  0  0  0  0  0  0  0  0  0  0
  197.2060  176.0300  140.0440 O   0  0  0  0  0  0  0  0  0  0  0  0
  196.5330  171.3900  138.1930 C   0  0  0  0  0  3  0  0  0  0  0  0
  196.5380  173.7960  139.6420 C   0  0  0  0  0  0  0  0  0  0  0  0
  197.7130  173.0400  139.5240 C   0  0  0  0  0  3  0  0  0  0  0  0
  195.3670  173.3400  139.0210 C   0  0  0  0  0  3  0  0  0  0  0  0
  195.3520  172.1330  138.3060 C   0  0  0  0  0  0  0  0  0  0  0  0
  197.7090  171.8420  138.8020 C   0  0  0  0  0  3  0  0  0  0  0  0
  194.0280  169.7420  136.0250 C   0  0  0  0  0  2  0  0  0  0  0  0
  192.7050  169.3670  137.2000 S   0  0  0  0  0  0  0  0  0  0  0  0
  193.4740  170.5020  138.3870 C   0  0  1  0  0  3  0  0  0  0  0  0
  194.1040  171.6530  137.6150 C   0  0  2  0  0  3  0  0  0  0  0  0
  194.3770  171.2090  136.1740 C   0  0  2  0  0  3  0  0  0  0  0  0
  191.2120  170.3640  138.9550 C   0  0  0  0  0  1  0  0  0  0  0  0
  192.4630  171.0220  139.2940 N   0  0  0  0  0  2  0  0  0  0  0  0
  193.5700  172.0400  135.1830 C   0  0  0  0  0  2  0  0  0  0  0  0
  192.5420  172.7890  135.8880 N   0  0  0  0  0  1  0  0  0  0  0  0
  1 11  2  0  0  0  0
  1 23  1  0  0  0  0
  2 43  1  0  0  0  0
  3  5  2  0  0  0  0
  3 22  1  0  0  0  0
  4 15  2  0  0  0  0
  5 18  1  0  0  0  0
  6 27  1  6  0  0  0
  6  3  1  0  0  0  0
  7 23  2  0  0  0  0
  8 25  1  0  0  0  0
 10  1  1  0  0  0  0
 11 14  1  0  0  0  0
 12  2  1  0  0  0  0
 13 10  1  0  0  0  0
 14 17  1  0  0  0  0
 14  2  2  0  0  0  0
 15 16  1  0  0  0  0
 15 13  1  0  0  0  0
 16  8  1  0  0  0  0
 18 17  1  0  0  0  0
 18 20  1  0  0  0  0
 19  8  2  0  0  0  0
 21  9  1  0  0  0  0
 21  6  1  0  0  0  0
 22 20  2  0  0  0  0
 23 12  1  0  0  0  0
 24 10  2  0  0  0  0
 24  7  1  0  0  0  0
 25  9  1  6  0  0  0
 25  5  1  0  0  0  0
 26 29  1  0  0  0  0
 27 29  2  0  0  0  0
 28 26  1  0  0  0  0
 30 31  2  0  0  0  0
 30 28  1  0  0  0  0
 31 27  1  0  0  0  0
 32 31  1  0  0  0  0
 33 32  1  0  0  0  0
 34 33  1  0  0  0  0
 35 36  2  6  0  0  0
 35 34  1  0  0  0  0
 37 35  1  0  0  0  0
 38 35  1  0  0  0  0
 39 38  1  6  0  0  0
 39 41  1  0  0  0  0
 40 39  1  0  0  0  0
 40 41  1  0  0  0  0
 43 42  3  0  0  0  0
 44 45  2  0  0  0  0
 45 24  1  0  0  0  0
 46 44  1  0  0  0  0
 47 46  2  0  0  0  0
 48 52  2  0  0  0  0
 48 53  1  0  0  0  0
 49 46  1  0  0  0  0
 50 49  1  0  0  0  0
 51 49  2  0  0  0  0
 52 51  1  0  0  0  0
 53 50  2  0  0  0  0
 54 58  1  0  0  0  0
 54 55  1  0  0  0  0
 55 56  1  0  0  0  0
 56 60  1  1  0  0  0
 57 52  1  1  0  0  0
 57 56  1  0  0  0  0
 58 61  1  6  0  0  0
 58 57  1  0  0  0  0
 59 60  1  0  0  0  0
 61 62  1  0  0  0  0
M  END
>  <MODEL>
6

>  <REMARK>
 VINA RESULT:      -6.2      2.771      5.134
  Name = 
  14 active torsions:
  status: ('A' for Active; 'I' for Inactive)
    1  A    between atoms: P_1  and  O_6
    2  A    between atoms: P_1  and  C_60
    3  A    between atoms: O_6  and  C_15
    4  A    between atoms: C_8  and  C_10
    5  A    between atoms: C_9  and  C_11
    6  A    between atoms: C_11  and  C_14
    7  A    between atoms: C_18  and  C_26
    8  A    between atoms: O_29  and  C_44
    9  A    between atoms: O_29  and  C_61
   10  A    between atoms: C_30  and  C_55
   11  A    between atoms: C_36  and  N_49
   12  A    between atoms: C_43  and  C_47
   13  A    between atoms: C_44  and  C_60
   14  A    between atoms: C_57  and  C_58
                            x       y       z     vdW  Elec       q    Type
                         _______ _______ _______ _____ _____    ______ ____

>  <TORSDO>
F 14

$$$$
=
 OpenBabel11042416353D

 62 70  0  0  1  0  0  0  0  0999 V2000
  188.5610  173.1090  140.0250 C   0  0  0  0  0  0  0  0  0  0  0  0
  188.8510  173.7020  137.3000 C   0  0  0  0  0  0  0  0  0  0  0  0
  193.5040  171.6350  136.7880 C   0  0  0  0  0  0  0  0  0  0  0  0
  190.6780  170.2870  142.1390 O   0  0  0  0  0  0  0  0  0  0  0  0
  192.4020  171.9200  137.4450 C   0  0  0  0  0  0  0  0  0  0  0  0
  194.8630  171.9440  137.3430 C   0  0  1  0  0  3  0  0  0  0  0  0
  188.0520  175.2270  140.5920 N   0  0  0  0  0  0  0  0  0  0  0  0
  191.9850  171.6330  139.9310 C   0  0  0  0  0  0  0  0  0  0  0  0
  193.7230  173.1100  139.1300 O   0  0  0  0  0  0  0  0  0  0  0  0
  188.6590  173.1850  141.4710 C   0  0  0  0  0  0  0  0  0  0  0  0
  189.0960  172.2360  139.2360 N   0  0  0  0  0  0  0  0  0  0  0  0
  188.1920  174.7890  138.1440 C   0  0  0  0  0  2  0  0  0  0  0  0
  189.2230  172.1550  142.4150 C   0  0  0  0  0  2  0  0  0  0  0  0
  189.2570  172.5120  137.8330 C   0  0  0  0  0  0  0  0  0  0  0  0
  190.4380  171.4900  141.8510 C   0  0  0  0  0  0  0  0  0  0  0  0
  191.2760  172.2090  140.9900 O   0  0  0  0  0  0  0  0  0  0  0  0
  189.9100  171.4430  137.0060 C   0  0  0  0  0  2  0  0  0  0  0  0
  191.2640  171.8020  136.5910 N   0  0  0  0  0  0  0  0  0  0  0  0
  192.2100  170.3950  139.8890 O   0  0  0  0  0  0  0  0  0  0  0  0
  191.7710  171.3790  135.2870 C   0  0  0  0  0  3  0  0  0  0  0  0
  194.7540  172.1770  138.8550 C   0  0  0  0  0  2  0  0  0  0  0  0
  193.2260  171.3360  135.4260 N   0  0  0  0  0  0  0  0  0  0  0  0
  188.1950  174.4200  139.5920 C   0  0  0  0  0  0  0  0  0  0  0  0
  188.3410  174.4490  141.7690 C   0  0  0  0  0  0  0  0  0  0  0  0
  192.4560  172.5340  138.8300 C   0  0  1  0  0  3  0  0  0  0  0  0
  197.9410  170.2360  135.8070 C   0  0  0  0  0  2  0  0  0  0  0  0
  195.8830  170.8930  137.0140 C   0  0  0  0  0  0  0  0  0  0  0  0
  197.4410  168.7930  135.8940 C   0  0  0  0  0  2  0  0  0  0  0  0
  196.8260  171.1970  136.1130 C   0  0  0  0  0  3  0  0  0  0  0  0
  196.6720  168.5810  137.1690 C   0  0  0  0  0  3  0  0  0  0  0  0
  195.8990  169.5580  137.6770 C   0  0  0  0  0  0  0  0  0  0  0  0
  195.1220  169.3350  138.8210 O   0  0  0  0  0  0  0  0  0  0  0  0
  195.6220  168.6480  139.9640 C   0  0  0  0  0  2  0  0  0  0  0  0
  196.6160  169.5260  140.6960 C   0  0  0  0  0  2  0  0  0  0  0  0
  195.9610  169.9820  142.3260 P   0  0  2  0  0  0  0  0  0  0  0  0
  195.4060  171.3900  142.2590 O   0  0  0  0  0  0  0  0  0  0  0  0
  197.1980  169.9140  143.4760 O   0  0  0  0  0  1  0  0  0  0  0  0
  194.7330  168.8880  142.7440 O   0  0  0  0  0  0  0  0  0  0  0  0
  193.8620  169.5970  143.5740 C   0  0  2  0  0  3  0  0  0  0  0  0
  194.0620  169.1850  144.9590 C   0  0  0  0  0  2  0  0  0  0  0  0
  192.9230  168.6530  144.1950 N   0  0  0  0  0  2  0  0  0  0  0  0
  189.1630  174.2120  134.7700 N   0  0  0  0  0  0  0  0  0  0  0  0
  189.0240  173.9840  135.8970 C   0  0  0  0  0  0  0  0  0  0  0  0
  189.0330  176.2630  143.2570 C   0  0  0  0  0  3  0  0  0  0  0  0
  188.5330  175.0430  143.0960 C   0  0  0  0  0  3  0  0  0  0  0  0
  189.3300  176.7880  144.5990 C   0  0  0  0  0  0  0  0  0  0  0  0
  188.4560  177.4620  145.2090 O   0  0  0  0  0  0  0  0  0  0  0  0
  193.0420  175.8350  146.5140 C   0  0  0  0  0  3  0  0  0  0  0  0
  190.6080  176.4820  145.2700 C   0  0  0  0  0  0  0  0  0  0  0  0
  190.7870  176.7240  146.6400 C   0  0  0  0  0  3  0  0  0  0  0  0
  191.6610  175.9240  144.5310 C   0  0  0  0  0  3  0  0  0  0  0  0
  192.8750  175.5860  145.1470 C   0  0  0  0  0  0  0  0  0  0  0  0
  192.0000  176.4000  147.2580 C   0  0  0  0  0  3  0  0  0  0  0  0
  196.1510  176.2050  143.8980 C   0  0  0  0  0  2  0  0  0  0  0  0
  196.6920  174.6070  144.5490 S   0  0  0  0  0  0  0  0  0  0  0  0
  195.0470  174.3770  145.2780 C   0  0  1  0  0  3  0  0  0  0  0  0
  194.0170  175.0110  144.3530 C   0  0  2  0  0  3  0  0  0  0  0  0
  194.7010  176.0670  143.4790 C   0  0  2  0  0  3  0  0  0  0  0  0
  196.0200  172.3090  145.7610 C   0  0  0  0  0  1  0  0  0  0  0  0
  194.7660  172.9570  145.4160 N   0  0  0  0  0  2  0  0  0  0  0  0
  194.6190  175.6940  142.0040 C   0  0  0  0  0  2  0  0  0  0  0  0
  195.6190  176.4320  141.2500 N   0  0  0  0  0  1  0  0  0  0  0  0
  1 10  1  0  0  0  0
  2 14  2  0  0  0  0
  2 12  1  0  0  0  0
  3  6  1  0  0  0  0
  3  5  2  0  0  0  0
  6 27  1  1  0  0  0
  6 21  1  0  0  0  0
  7 24  1  0  0  0  0
  8 16  1  0  0  0  0
 10 24  2  0  0  0  0
 10 13  1  0  0  0  0
 11  1  2  0  0  0  0
 12 23  1  0  0  0  0
 14 11  1  0  0  0  0
 15  4  2  0  0  0  0
 15 13  1  0  0  0  0
 16 15  1  0  0  0  0
 17 14  1  0  0  0  0
 18 17  1  0  0  0  0
 18  5  1  0  0  0  0
 19  8  2  0  0  0  0
 20 22  2  0  0  0  0
 20 18  1  0  0  0  0
 21  9  1  0  0  0  0
 22  3  1  0  0  0  0
 23  1  1  0  0  0  0
 23  7  2  0  0  0  0
 24 45  1  0  0  0  0
 25  5  1  6  0  0  0
 25  9  1  0  0  0  0
 25  8  1  0  0  0  0
 26 28  1  0  0  0  0
 26 29  1  0  0  0  0
 27 31  1  0  0  0  0
 28 30  1  0  0  0  0
 29 27  2  0  0  0  0
 30 31  2  0  0  0  0
 31 32  1  0  0  0  0
 32 33  1  0  0  0  0
 33 34  1  0  0  0  0
 34 35  1  0  0  0  0
 35 36  2  6  0  0  0
 35 38  1  0  0  0  0
 35 37  1  0  0  0  0
 39 38  1  6  0  0  0
 39 41  1  0  0  0  0
 39 40  1  0  0  0  0
 41 40  1  0  0  0  0
 42 43  3  0  0  0  0
 43  2  1  0  0  0  0
 44 46  1  0  0  0  0
 45 44  2  0  0  0  0
 46 47  2  0  0  0  0
 46 49  1  0  0  0  0
 48 53  1  0  0  0  0
 49 50  1  0  0  0  0
 50 53  2  0  0  0  0
 51 52  1  0  0  0  0
 51 49  2  0  0  0  0
 52 48  2  0  0  0  0
 54 55  1  0  0  0  0
 55 56  1  0  0  0  0
 56 60  1  6  0  0  0
 57 52  1  1  0  0  0
 57 56  1  0  0  0  0
 58 61  1  6  0  0  0
 58 54  1  0  0  0  0
 58 57  1  0  0  0  0
 60 59  1  0  0  0  0
 62 61  1  0  0  0  0
M  END
>  <MODEL>
7

>  <REMARK>
 VINA RESULT:      -6.1      3.924     11.112
  Name = 
  14 active torsions:
  status: ('A' for Active; 'I' for Inactive)
    1  A    between atoms: P_1  and  O_6
    2  A    between atoms: P_1  and  C_60
    3  A    between atoms: O_6  and  C_15
    4  A    between atoms: C_8  and  C_10
    5  A    between atoms: C_9  and  C_11
    6  A    between atoms: C_11  and  C_14
    7  A    between atoms: C_18  and  C_26
    8  A    between atoms: O_29  and  C_44
    9  A    between atoms: O_29  and  C_61
   10  A    between atoms: C_30  and  C_55
   11  A    between atoms: C_36  and  N_49
   12  A    between atoms: C_43  and  C_47
   13  A    between atoms: C_44  and  C_60
   14  A    between atoms: C_57  and  C_58
                            x       y       z     vdW  Elec       q    Type
                         _______ _______ _______ _____ _____    ______ ____

>  <TORSDO>
F 14

$$$$
=
 OpenBabel11042416353D

 62 70  0  0  1  0  0  0  0  0999 V2000
  195.0270  175.4410  144.6050 C   0  0  0  0  0  0  0  0  0  0  0  0
  196.5340  173.1020  144.2570 C   0  0  0  0  0  0  0  0  0  0  0  0
  193.4200  170.9600  140.8070 C   0  0  0  0  0  0  0  0  0  0  0  0
  192.1910  176.9150  142.0170 O   0  0  0  0  0  0  0  0  0  0  0  0
  193.8220  171.9310  141.5940 C   0  0  0  0  0  0  0  0  0  0  0  0
  192.0100  170.4470  140.8320 C   0  0  1  0  0  3  0  0  0  0  0  0
  194.9430  175.2400  146.8460 N   0  0  0  0  0  0  0  0  0  0  0  0
  192.5510  174.0450  142.1900 C   0  0  0  0  0  0  0  0  0  0  0  0
  191.6690  171.8690  142.7600 O   0  0  0  0  0  0  0  0  0  0  0  0
  194.0150  176.3740  145.0660 C   0  0  0  0  0  0  0  0  0  0  0  0
  195.1720  174.9460  143.4190 N   0  0  0  0  0  0  0  0  0  0  0  0
  196.4380  173.6160  145.6900 C   0  0  0  0  0  2  0  0  0  0  0  0
  193.0290  177.1520  144.2360 C   0  0  0  0  0  2  0  0  0  0  0  0
  195.9410  173.7480  143.2100 C   0  0  0  0  0  0  0  0  0  0  0  0
  192.4990  176.3420  143.0960 C   0  0  0  0  0  0  0  0  0  0  0  0
  192.3800  174.9540  143.2380 O   0  0  0  0  0  0  0  0  0  0  0  0
  196.0290  173.2410  141.8000 C   0  0  0  0  0  2  0  0  0  0  0  0
  195.2470  172.0260  141.5870 N   0  0  0  0  0  0  0  0  0  0  0  0
  192.4690  174.4080  140.9870 O   0  0  0  0  0  0  0  0  0  0  0  0
  195.7230  170.9950  140.6680 C   0  0  0  0  0  3  0  0  0  0  0  0
  191.1070  171.4790  141.5180 C   0  0  0  0  0  2  0  0  0  0  0  0
  194.5250  170.2830  140.2240 N   0  0  0  0  0  0  0  0  0  0  0  0
  195.5200  174.7920  145.7780 C   0  0  0  0  0  0  0  0  0  0  0  0
  194.0020  176.2340  146.3960 C   0  0  0  0  0  0  0  0  0  0  0  0
  192.8570  172.6210  142.5390 C   0  0  1  0  0  3  0  0  0  0  0  0
  190.3630  168.4390  138.0030 C   0  0  0  0  0  2  0  0  0  0  0  0
  191.4970  170.0770  139.4710 C   0  0  0  0  0  0  0  0  0  0  0  0
  191.0910  169.0990  136.8300 C   0  0  0  0  0  2  0  0  0  0  0  0
  190.9900  168.8480  139.3070 C   0  0  0  0  0  3  0  0  0  0  0  0
  191.2650  170.5710  137.0850 C   0  0  0  0  0  3  0  0  0  0  0  0
  191.5020  171.0320  138.3260 C   0  0  0  0  0  0  0  0  0  0  0  0
  191.7410  172.3930  138.5510 O   0  0  0  0  0  0  0  0  0  0  0  0
  192.5600  173.1790  137.6910 C   0  0  0  0  0  2  0  0  0  0  0  0
  193.9680  172.6170  137.6690 C   0  0  0  0  0  2  0  0  0  0  0  0
  195.1780  173.9700  137.6810 P   0  0  2  0  0  0  0  0  0  0  0  0
  196.4440  173.4920  138.3600 O   0  0  0  0  0  0  0  0  0  0  0  0
  194.5450  175.2910  138.5250 O   0  0  0  0  0  1  0  0  0  0  0  0
  195.5050  174.4200  136.0780 O   0  0  0  0  0  0  0  0  0  0  0  0
  196.6780  175.1770  136.1320 C   0  0  2  0  0  3  0  0  0  0  0  0
  196.4460  176.4830  135.5250 C   0  0  0  0  0  2  0  0  0  0  0  0
  197.1400  175.4350  134.7610 N   0  0  0  0  0  2  0  0  0  0  0  0
  197.9000  170.9230  143.8810 N   0  0  0  0  0  0  0  0  0  0  0  0
  197.2930  171.8940  144.0480 C   0  0  0  0  0  0  0  0  0  0  0  0
  191.6750  176.6020  147.0530 C   0  0  0  0  0  3  0  0  0  0  0  0
  192.9700  176.8110  147.2630 C   0  0  0  0  0  3  0  0  0  0  0  0
  190.6570  177.2900  147.8620 C   0  0  0  0  0  0  0  0  0  0  0  0
  190.9740  177.7620  148.9890 O   0  0  0  0  0  0  0  0  0  0  0  0
  186.7140  177.9160  146.3090 C   0  0  0  0  0  3  0  0  0  0  0  0
  189.2900  177.4970  147.3490 C   0  0  0  0  0  0  0  0  0  0  0  0
  188.3040  178.1140  148.1320 C   0  0  0  0  0  3  0  0  0  0  0  0
  188.9700  177.0850  146.0480 C   0  0  0  0  0  3  0  0  0  0  0  0
  187.6900  177.3020  145.5150 C   0  0  0  0  0  0  0  0  0  0  0  0
  187.0210  178.3230  147.6130 C   0  0  0  0  0  3  0  0  0  0  0  0
  187.3690  178.2910  142.1110 C   0  0  0  0  0  2  0  0  0  0  0  0
  188.3390  176.8490  141.6100 S   0  0  0  0  0  0  0  0  0  0  0  0
  188.5860  176.4410  143.3590 C   0  0  1  0  0  3  0  0  0  0  0  0
  187.3340  176.8380  144.1290 C   0  0  2  0  0  3  0  0  0  0  0  0
  186.5710  177.9070  143.3410 C   0  0  2  0  0  3  0  0  0  0  0  0
  188.7320  174.4350  142.1700 C   0  0  0  0  0  1  0  0  0  0  0  0
  188.8110  175.0120  143.5020 N   0  0  0  0  0  2  0  0  0  0  0  0
  185.1920  177.4050  142.9310 C   0  0  0  0  0  2  0  0  0  0  0  0
  184.7580  178.0840  141.7210 N   0  0  0  0  0  1  0  0  0  0  0  0
  1 10  1  0  0  0  0
  1 23  1  0  0  0  0
  2 12  1  0  0  0  0
  3  6  1  0  0  0  0
  3  5  2  0  0  0  0
  4 15  2  0  0  0  0
  6 27  1  6  0  0  0
  6 21  1  0  0  0  0
  8 25  1  0  0  0  0
  8 16  1  0  0  0  0
 10 24  2  0  0  0  0
 11  1  2  0  0  0  0
 12 23  1  0  0  0  0
 13 10  1  0  0  0  0
 14 11  1  0  0  0  0
 14  2  2  0  0  0  0
 15 16  1  0  0  0  0
 15 13  1  0  0  0  0
 17 14  1  0  0  0  0
 18  5  1  0  0  0  0
 18 17  1  0  0  0  0
 19  8  2  0  0  0  0
 20 18  1  0  0  0  0
 21  9  1  0  0  0  0
 22 20  2  0  0  0  0
 22  3  1  0  0  0  0
 23  7  2  0  0  0  0
 24  7  1  0  0  0  0
 24 45  1  0  0  0  0
 25  5  1  6  0  0  0
 25  9  1  0  0  0  0
 26 29  1  0  0  0  0
 28 30  1  0  0  0  0
 28 26  1  0  0  0  0
 29 27  2  0  0  0  0
 30 31  2  0  0  0  0
 31 32  1  0  0  0  0
 31 27  1  0  0  0  0
 33 32  1  0  0  0  0
 34 35  1  0  0  0  0
 34 33  1  0  0  0  0
 35 36  2  1  0  0  0
 35 37  1  0  0  0  0
 38 35  1  0  0  0  0
 39 38  1  6  0  0  0
 40 39  1  0  0  0  0
 41 40  1  0  0  0  0
 41 39  1  0  0  0  0
 42 43  3  0  0  0  0
 43  2  1  0  0  0  0
 44 45  2  0  0  0  0
 44 46  1  0  0  0  0
 46 47  2  0  0  0  0
 48 53  1  0  0  0  0
 49 46  1  0  0  0  0
 49 50  1  0  0  0  0
 51 49  2  0  0  0  0
 52 51  1  0  0  0  0
 52 48  2  0  0  0  0
 53 50  2  0  0  0  0
 54 58  1  0  0  0  0
 55 54  1  0  0  0  0
 55 56  1  0  0  0  0
 56 60  1  6  0  0  0
 56 57  1  0  0  0  0
 57 52  1  1  0  0  0
 58 61  1  6  0  0  0
 58 57  1  0  0  0  0
 59 60  1  0  0  0  0
 62 61  1  0  0  0  0
M  END
>  <MODEL>
8

>  <REMARK>
 VINA RESULT:      -6.0      3.433      9.270
  Name = 
  14 active torsions:
  status: ('A' for Active; 'I' for Inactive)
    1  A    between atoms: P_1  and  O_6
    2  A    between atoms: P_1  and  C_60
    3  A    between atoms: O_6  and  C_15
    4  A    between atoms: C_8  and  C_10
    5  A    between atoms: C_9  and  C_11
    6  A    between atoms: C_11  and  C_14
    7  A    between atoms: C_18  and  C_26
    8  A    between atoms: O_29  and  C_44
    9  A    between atoms: O_29  and  C_61
   10  A    between atoms: C_30  and  C_55
   11  A    between atoms: C_36  and  N_49
   12  A    between atoms: C_43  and  C_47
   13  A    between atoms: C_44  and  C_60
   14  A    between atoms: C_57  and  C_58
                            x       y       z     vdW  Elec       q    Type
                         _______ _______ _______ _____ _____    ______ ____

>  <TORSDO>
F 14

$$$$
=
 OpenBabel11042416353D

 62 70  0  0  1  0  0  0  0  0999 V2000
  196.3240  173.9650  144.3300 C   0  0  0  0  0  0  0  0  0  0  0  0
  197.0670  171.2620  144.3020 C   0  0  0  0  0  0  0  0  0  0  0  0
  195.6760  170.3680  139.4600 C   0  0  0  0  0  0  0  0  0  0  0  0
  195.7450  176.3630  141.0390 O   0  0  0  0  0  0  0  0  0  0  0  0
  195.8780  171.1300  140.5100 C   0  0  0  0  0  0  0  0  0  0  0  0
  194.3700  170.3630  138.7200 C   0  0  1  0  0  3  0  0  0  0  0  0
  195.0630  173.7620  146.1830 N   0  0  0  0  0  0  0  0  0  0  0  0
  195.1390  173.5370  140.8190 C   0  0  0  0  0  0  0  0  0  0  0  0
  193.5160  171.7780  140.4860 O   0  0  0  0  0  0  0  0  0  0  0  0
  195.5310  175.1770  144.4250 C   0  0  0  0  0  0  0  0  0  0  0  0
  196.9040  173.4740  143.2840 N   0  0  0  0  0  0  0  0  0  0  0  0
  196.4070  171.7500  145.5880 C   0  0  0  0  0  2  0  0  0  0  0  0
  195.3690  176.2590  143.3910 C   0  0  0  0  0  2  0  0  0  0  0  0
  197.2970  172.0900  143.2410 C   0  0  0  0  0  0  0  0  0  0  0  0
  195.2870  175.6980  142.0070 C   0  0  0  0  0  0  0  0  0  0  0  0
  194.7250  174.4310  141.8130 O   0  0  0  0  0  0  0  0  0  0  0  0
  197.9410  171.6110  141.9730 C   0  0  0  0  0  2  0  0  0  0  0  0
  197.0680  170.7370  141.1930 N   0  0  0  0  0  0  0  0  0  0  0  0
  195.7850  173.9300  139.8130 O   0  0  0  0  0  0  0  0  0  0  0  0
  197.6300  169.6240  140.4330 C   0  0  0  0  0  3  0  0  0  0  0  0
  193.5780  171.6260  139.0780 C   0  0  0  0  0  2  0  0  0  0  0  0
  196.6800  169.3670  139.3510 N   0  0  0  0  0  0  0  0  0  0  0  0
  195.9470  173.1660  145.4510 C   0  0  0  0  0  0  0  0  0  0  0  0
  194.8060  175.0240  145.5390 C   0  0  0  0  0  0  0  0  0  0  0  0
  194.8080  172.0870  140.9980 C   0  0  1  0  0  3  0  0  0  0  0  0
  193.9040  169.0780  135.1310 C   0  0  0  0  0  2  0  0  0  0  0  0
  194.5380  170.2140  137.2360 C   0  0  0  0  0  0  0  0  0  0  0  0
  195.2730  169.4860  134.5860 C   0  0  0  0  0  2  0  0  0  0  0  0
  193.8680  169.2270  136.6260 C   0  0  0  0  0  3  0  0  0  0  0  0
  195.6920  170.8110  135.1610 C   0  0  0  0  0  3  0  0  0  0  0  0
  195.3840  171.1390  136.4290 C   0  0  0  0  0  0  0  0  0  0  0  0
  195.8400  172.3390  136.9900 O   0  0  0  0  0  0  0  0  0  0  0  0
  197.2040  172.7450  136.9240 C   0  0  0  0  0  2  0  0  0  0  0  0
  197.4500  173.5110  135.6400 C   0  0  0  0  0  2  0  0  0  0  0  0
  196.5880  175.1070  135.6930 P   0  0  2  0  0  0  0  0  0  0  0  0
  197.3620  176.1130  134.8680 O   0  0  0  0  0  0  0  0  0  0  0  0
  196.4840  175.6440  137.2930 O   0  0  0  0  0  1  0  0  0  0  0  0
  195.0280  174.9030  135.0570 O   0  0  0  0  0  0  0  0  0  0  0  0
  194.5540  176.1920  134.8000 C   0  0  2  0  0  3  0  0  0  0  0  0
  193.7220  176.6390  135.9100 C   0  0  0  0  0  2  0  0  0  0  0  0
  193.0910  176.1450  134.6770 N   0  0  0  0  0  2  0  0  0  0  0  0
  197.7530  168.7560  144.2160 N   0  0  0  0  0  0  0  0  0  0  0  0
  197.4490  169.8720  144.2540 C   0  0  0  0  0  0  0  0  0  0  0  0
  192.4280  175.4870  145.8710 C   0  0  0  0  0  3  0  0  0  0  0  0
  193.6890  175.9000  145.9070 C   0  0  0  0  0  3  0  0  0  0  0  0
  191.3190  176.4200  146.1270 C   0  0  0  0  0  0  0  0  0  0  0  0
  191.0900  176.8040  147.3070 O   0  0  0  0  0  0  0  0  0  0  0  0
  188.9320  177.9440  142.9130 C   0  0  0  0  0  3  0  0  0  0  0  0
  190.5120  176.9650  145.0180 C   0  0  0  0  0  0  0  0  0  0  0  0
  191.1160  177.4500  143.8490 C   0  0  0  0  0  3  0  0  0  0  0  0
  189.1150  176.9840  145.1240 C   0  0  0  0  0  3  0  0  0  0  0  0
  188.3170  177.4590  144.0730 C   0  0  0  0  0  0  0  0  0  0  0  0
  190.3270  177.9370  142.8000 C   0  0  0  0  0  3  0  0  0  0  0  0
  185.5390  179.4610  145.0460 C   0  0  0  0  0  2  0  0  0  0  0  0
  184.7220  179.0740  143.4800 S   0  0  0  0  0  0  0  0  0  0  0  0
  186.2020  178.1630  142.9640 C   0  0  1  0  0  3  0  0  0  0  0  0
  186.8180  177.5060  144.1920 C   0  0  2  0  0  3  0  0  0  0  0  0
  186.3630  178.2550  145.4500 C   0  0  2  0  0  3  0  0  0  0  0  0
  186.2150  177.6370  140.6880 C   0  0  0  0  0  1  0  0  0  0  0  0
  185.8360  177.1390  141.9990 N   0  0  0  0  0  2  0  0  0  0  0  0
  185.5450  177.3480  146.3610 C   0  0  0  0  0  2  0  0  0  0  0  0
  184.4220  178.0860  146.9150 N   0  0  0  0  0  1  0  0  0  0  0  0
  1 10  1  0  0  0  0
  1 23  1  0  0  0  0
  2 12  1  0  0  0  0
  3  5  2  0  0  0  0
  4 15  2  0  0  0  0
  5 25  1  0  0  0  0
  5 18  1  0  0  0  0
  6 27  1  6  0  0  0
  6 21  1  0  0  0  0
  6  3  1  0  0  0  0
  8 25  1  0  0  0  0
  8 16  1  0  0  0  0
 10 24  2  0  0  0  0
 11  1  2  0  0  0  0
 13 10  1  0  0  0  0
 14 11  1  0  0  0  0
 14  2  2  0  0  0  0
 15 13  1  0  0  0  0
 16 15  1  0  0  0  0
 17 14  1  0  0  0  0
 18 17  1  0  0  0  0
 19  8  2  0  0  0  0
 20 18  1  0  0  0  0
 21  9  1  0  0  0  0
 22  3  1  0  0  0  0
 22 20  2  0  0  0  0
 23 12  1  0  0  0  0
 23  7  2  0  0  0  0
 24 45  1  0  0  0  0
 24  7  1  0  0  0  0
 25  9  1  6  0  0  0
 26 29  1  0  0  0  0
 28 26  1  0  0  0  0
 28 30  1  0  0  0  0
 29 27  2  0  0  0  0
 30 31  2  0  0  0  0
 31 32  1  0  0  0  0
 31 27  1  0  0  0  0
 33 32  1  0  0  0  0
 34 35  1  0  0  0  0
 34 33  1  0  0  0  0
 35 36  2  6  0  0  0
 35 37  1  0  0  0  0
 38 35  1  0  0  0  0
 39 38  1  1  0  0  0
 39 40  1  0  0  0  0
 41 39  1  0  0  0  0
 41 40  1  0  0  0  0
 42 43  3  0  0  0  0
 43  2  1  0  0  0  0
 44 45  2  0  0  0  0
 44 46  1  0  0  0  0
 46 47  2  0  0  0  0
 48 52  1  0  0  0  0
 49 51  1  0  0  0  0
 49 46  1  0  0  0  0
 50 49  2  0  0  0  0
 52 51  2  0  0  0  0
 53 48  2  0  0  0  0
 53 50  1  0  0  0  0
 54 58  1  0  0  0  0
 55 54  1  0  0  0  0
 56 60  1  6  0  0  0
 56 55  1  0  0  0  0
 56 57  1  0  0  0  0
 57 52  1  6  0  0  0
 57 58  1  0  0  0  0
 58 61  1  1  0  0  0
 59 60  1  0  0  0  0
 61 62  1  0  0  0  0
M  END
>  <MODEL>
9

>  <REMARK>
 VINA RESULT:      -5.8      4.190     10.008
  Name = 
  14 active torsions:
  status: ('A' for Active; 'I' for Inactive)
    1  A    between atoms: P_1  and  O_6
    2  A    between atoms: P_1  and  C_60
    3  A    between atoms: O_6  and  C_15
    4  A    between atoms: C_8  and  C_10
    5  A    between atoms: C_9  and  C_11
    6  A    between atoms: C_11  and  C_14
    7  A    between atoms: C_18  and  C_26
    8  A    between atoms: O_29  and  C_44
    9  A    between atoms: O_29  and  C_61
   10  A    between atoms: C_30  and  C_55
   11  A    between atoms: C_36  and  N_49
   12  A    between atoms: C_43  and  C_47
   13  A    between atoms: C_44  and  C_60
   14  A    between atoms: C_57  and  C_58
                            x       y       z     vdW  Elec       q    Type
                         _______ _______ _______ _____ _____    ______ ____

>  <TORSDO>
F 14

$$$$
