=
 OpenBabel11042414403D

 28 30  0  0  1  0  0  0  0  0999 V2000
  186.8230  177.9930  142.7040 C   0  0  0  0  0  0  0  0  0  0  0  0
  185.6430  178.4420  142.2570 C   0  0  0  0  0  3  0  0  0  0  0  0
  185.2120  178.1990  140.8770 C   0  0  0  0  0  0  0  0  0  0  0  0
  186.1130  177.5090  139.9530 C   0  0  0  0  0  3  0  0  0  0  0  0
  184.0850  178.5980  140.4860 O   0  0  0  0  0  0  0  0  0  0  0  0
  187.7290  177.1550  141.8250 C   0  0  2  0  0  3  0  0  0  0  0  0
  187.2840  177.0400  140.3840 C   0  0  0  0  0  3  0  0  0  0  0  0
  191.3680  175.7620  143.5820 C   0  0  0  0  0  0  0  0  0  0  0  0
  189.0970  175.3650  142.9860 C   0  0  0  0  0  0  0  0  0  0  0  0
  190.3530  173.6270  144.0840 C   0  0  0  0  0  0  0  0  0  0  0  0
  191.4640  174.4690  144.1190 C   0  0  0  0  0  3  0  0  0  0  0  0
  190.4310  172.3780  144.6010 F   0  0  0  0  0  0  0  0  0  0  0  0
  190.1920  176.1740  143.0360 N   0  0  0  0  0  0  0  0  0  0  0  0
  189.1600  174.0750  143.5150 C   0  0  0  0  0  2  0  0  0  0  0  0
  187.8760  175.8270  142.4050 N   0  0  0  0  0  0  0  0  0  0  0  0
  192.4570  176.6400  143.5900 O   0  0  0  0  0  0  0  0  0  0  0  0
  193.7180  177.0190  145.4720 O   0  0  0  0  0  0  0  0  0  0  0  0
  193.5930  176.4280  144.3680 C   0  0  0  0  0  3  0  0  0  0  0  0
  187.2430  178.2320  144.0550 N   0  0  0  0  0  2  0  0  0  0  0  0
  186.7580  177.2220  146.2850 C   0  0  0  0  0  0  0  0  0  0  0  0
  186.4700  178.1040  145.2580 C   0  0  0  0  0  0  0  0  0  0  0  0
  185.1470  179.0320  145.7220 S   0  0  0  0  0  0  0  0  0  0  0  0
  184.9160  178.3140  147.2300 C   0  0  0  0  0  3  0  0  0  0  0  0
  185.8970  177.3360  147.3840 C   0  0  0  0  0  3  0  0  0  0  0  0
  187.9010  176.2640  146.2540 C   0  0  0  0  0  2  0  0  0  0  0  0
  189.0850  176.9340  146.5630 O   0  0  0  0  0  0  0  0  0  0  0  0
  189.9180  175.9430  147.0820 C   0  0  0  0  0  2  0  0  0  0  0  0
  189.1070  174.6990  147.3710 C   0  0  0  0  0  1  0  0  0  0  0  0
  1 19  1  0  0  0  0
  2  1  2  0  0  0  0
  3  2  1  0  0  0  0
  4  7  2  0  0  0  0
  4  3  1  0  0  0  0
  5  3  2  0  0  0  0
  6 15  1  1  0  0  0
  6  1  1  0  0  0  0
  7  6  1  0  0  0  0
  8 16  1  0  0  0  0
  8 11  1  0  0  0  0
  9 13  1  0  0  0  0
  9 14  1  0  0  0  0
 10 11  2  0  0  0  0
 10 12  1  0  0  0  0
 13  8  2  0  0  0  0
 14 10  1  0  0  0  0
 15  9  2  0  0  0  0
 16 18  1  0  0  0  0
 18 17  2  0  0  0  0
 19 21  1  0  0  0  0
 20 24  1  0  0  0  0
 21 22  1  0  0  0  0
 21 20  2  0  0  0  0
 22 23  1  0  0  0  0
 23 24  2  0  0  0  0
 25 20  1  0  0  0  0
 25 26  1  0  0  0  0
 26 27  1  0  0  0  0
 27 28  1  0  0  0  0
M  END
>  <MODEL>
1

>  <REMARK>
 VINA RESULT:      -6.6      0.000      0.000
  Name = 
  8 active torsions:
  status: ('A' for Active; 'I' for Inactive)
    1  A    between atoms: C_1  and  C_13
    2  A    between atoms: C_2  and  O_26
    3  A    between atoms: C_3  and  N_16
    4  A    between atoms: C_5  and  N_16
    5  A    between atoms: C_12  and  O_25
    6  A    between atoms: C_13  and  O_25
    7  A    between atoms: N_22  and  C_27
    8  A    between atoms: C_23  and  O_26
                            x       y       z     vdW  Elec       q    Type
                         _______ _______ _______ _____ _____    ______ ____

>  <TORSDO>
F 8

$$$$
=
 OpenBabel11042414403D

 28 30  0  0  1  0  0  0  0  0999 V2000
  189.0970  175.6910  142.4040 C   0  0  0  0  0  0  0  0  0  0  0  0
  188.1070  174.8200  142.1720 C   0  0  0  0  0  3  0  0  0  0  0  0
  188.3670  173.3780  142.0960 C   0  0  0  0  0  0  0  0  0  0  0  0
  189.7410  172.8870  142.2140 C   0  0  0  0  0  3  0  0  0  0  0  0
  187.4190  172.5730  141.9110 O   0  0  0  0  0  0  0  0  0  0  0  0
  190.5130  175.2200  142.6700 C   0  0  2  0  0  3  0  0  0  0  0  0
  190.7360  173.7380  142.4620 C   0  0  0  0  0  3  0  0  0  0  0  0
  194.5000  176.3450  143.7210 C   0  0  0  0  0  0  0  0  0  0  0  0
  192.2400  175.9640  144.3690 C   0  0  0  0  0  0  0  0  0  0  0  0
  193.8430  176.6660  146.0240 C   0  0  0  0  0  0  0  0  0  0  0  0
  194.8320  176.6870  145.0410 C   0  0  0  0  0  2  0  0  0  0  0  0
  194.1480  176.9970  147.3010 F   0  0  0  0  0  0  0  0  0  0  0  0
  193.2190  175.9970  143.4220 N   0  0  0  0  0  0  0  0  0  0  0  0
  192.5380  176.3030  145.6900 C   0  0  0  0  0  3  0  0  0  0  0  0
  190.9040  175.5940  144.0220 N   0  0  0  0  0  0  0  0  0  0  0  0
  195.4580  176.3470  142.7020 O   0  0  0  0  0  0  0  0  0  0  0  0
  197.6250  175.7940  143.2300 O   0  0  0  0  0  0  0  0  0  0  0  0
  196.7920  176.6850  142.9210 C   0  0  0  0  0  3  0  0  0  0  0  0
  188.8410  177.1010  142.4790 N   0  0  0  0  0  2  0  0  0  0  0  0
  187.3710  177.9570  144.3040 C   0  0  0  0  0  0  0  0  0  0  0  0
  187.6630  177.7620  142.9650 C   0  0  0  0  0  0  0  0  0  0  0  0
  186.4660  178.5100  142.0540 S   0  0  0  0  0  0  0  0  0  0  0  0
  185.5520  179.0820  143.3510 C   0  0  0  0  0  3  0  0  0  0  0  0
  186.1980  178.6920  144.5240 C   0  0  0  0  0  3  0  0  0  0  0  0
  188.2370  177.4730  145.4170 C   0  0  0  0  0  2  0  0  0  0  0  0
  187.9560  176.1320  145.6830 O   0  0  0  0  0  0  0  0  0  0  0  0
  188.3960  175.9380  146.9910 C   0  0  0  0  0  2  0  0  0  0  0  0
  189.1820  174.6470  147.0750 C   0  0  0  0  0  1  0  0  0  0  0  0
  1 19  1  0  0  0  0
  1  6  1  0  0  0  0
  2  1  2  0  0  0  0
  3  2  1  0  0  0  0
  3  4  1  0  0  0  0
  4  7  2  0  0  0  0
  5  3  2  0  0  0  0
  6 15  1  1  0  0  0
  7  6  1  0  0  0  0
  8 11  1  0  0  0  0
  9 14  1  0  0  0  0
 10 12  1  0  0  0  0
 11 10  1  0  0  0  0
 13  8  2  0  0  0  0
 13  9  1  0  0  0  0
 14 10  2  0  0  0  0
 15  9  2  0  0  0  0
 16 18  1  0  0  0  0
 16  8  1  0  0  0  0
 18 17  2  0  0  0  0
 19 21  1  0  0  0  0
 20 24  1  0  0  0  0
 20 25  1  0  0  0  0
 21 20  2  0  0  0  0
 22 21  1  0  0  0  0
 22 23  1  0  0  0  0
 23 24  2  0  0  0  0
 25 26  1  0  0  0  0
 26 27  1  0  0  0  0
 27 28  1  0  0  0  0
M  END
>  <MODEL>
2

>  <REMARK>
 VINA RESULT:      -6.2      2.719      4.023
  Name = 
  8 active torsions:
  status: ('A' for Active; 'I' for Inactive)
    1  A    between atoms: C_1  and  C_13
    2  A    between atoms: C_2  and  O_26
    3  A    between atoms: C_3  and  N_16
    4  A    between atoms: C_5  and  N_16
    5  A    between atoms: C_12  and  O_25
    6  A    between atoms: C_13  and  O_25
    7  A    between atoms: N_22  and  C_27
    8  A    between atoms: C_23  and  O_26
                            x       y       z     vdW  Elec       q    Type
                         _______ _______ _______ _____ _____    ______ ____

>  <TORSDO>
F 8

$$$$
=
 OpenBabel11042414403D

 28 30  0  0  1  0  0  0  0  0999 V2000
  186.4570  177.8710  144.4850 C   0  0  0  0  0  0  0  0  0  0  0  0
  185.3600  178.6330  144.3910 C   0  0  0  0  0  3  0  0  0  0  0  0
  184.3080  178.5780  145.4110 C   0  0  0  0  0  0  0  0  0  0  0  0
  184.4270  177.6280  146.5170 C   0  0  0  0  0  3  0  0  0  0  0  0
  183.3020  179.3280  145.3230 O   0  0  0  0  0  0  0  0  0  0  0  0
  186.6890  176.9720  145.6830 C   0  0  2  0  0  3  0  0  0  0  0  0
  185.5180  176.8720  146.6360 C   0  0  0  0  0  3  0  0  0  0  0  0
  190.2580  174.6380  145.9730 C   0  0  0  0  0  0  0  0  0  0  0  0
  189.0640  176.6300  146.5000 C   0  0  0  0  0  0  0  0  0  0  0  0
  191.3170  176.3540  147.3050 C   0  0  0  0  0  0  0  0  0  0  0  0
  191.3730  175.1060  146.6870 C   0  0  0  0  0  2  0  0  0  0  0  0
  192.3860  176.8190  147.9940 F   0  0  0  0  0  0  0  0  0  0  0  0
  189.1410  175.4110  145.8970 N   0  0  0  0  0  0  0  0  0  0  0  0
  190.1570  177.1240  147.2130 C   0  0  0  0  0  3  0  0  0  0  0  0
  187.8750  177.4180  146.4020 N   0  0  0  0  0  0  0  0  0  0  0  0
  190.2650  173.3910  145.3400 O   0  0  0  0  0  0  0  0  0  0  0  0
  191.2370  172.4870  143.4650 O   0  0  0  0  0  0  0  0  0  0  0  0
  191.3700  172.9030  144.6450 C   0  0  0  0  0  3  0  0  0  0  0  0
  187.4860  177.9260  143.4870 N   0  0  0  0  0  2  0  0  0  0  0  0
  189.5500  176.7150  142.7780 C   0  0  0  0  0  0  0  0  0  0  0  0
  188.1730  176.8300  142.8620 C   0  0  0  0  0  0  0  0  0  0  0  0
  187.4900  175.4420  142.2060 S   0  0  0  0  0  0  0  0  0  0  0  0
  188.9370  174.6800  141.7940 C   0  0  0  0  0  3  0  0  0  0  0  0
  189.9790  175.5200  142.1850 C   0  0  0  0  0  3  0  0  0  0  0  0
  190.4980  177.7390  143.3030 C   0  0  0  0  0  2  0  0  0  0  0  0
  191.7880  177.4600  142.8510 O   0  0  0  0  0  0  0  0  0  0  0  0
  192.5410  177.3220  144.0160 C   0  0  0  0  0  2  0  0  0  0  0  0
  193.4290  176.1020  143.9040 C   0  0  0  0  0  1  0  0  0  0  0  0
  1  6  1  0  0  0  0
  2  1  2  0  0  0  0
  2  3  1  0  0  0  0
  3  4  1  0  0  0  0
  4  7  2  0  0  0  0
  5  3  2  0  0  0  0
  6 15  1  1  0  0  0
  6  7  1  0  0  0  0
  8 11  1  0  0  0  0
  9 14  1  0  0  0  0
 10 12  1  0  0  0  0
 11 10  1  0  0  0  0
 13  8  2  0  0  0  0
 13  9  1  0  0  0  0
 14 10  2  0  0  0  0
 15  9  2  0  0  0  0
 16  8  1  0  0  0  0
 17 18  2  0  0  0  0
 18 16  1  0  0  0  0
 19  1  1  0  0  0  0
 20 21  2  0  0  0  0
 20 25  1  0  0  0  0
 21 19  1  0  0  0  0
 22 21  1  0  0  0  0
 23 24  2  0  0  0  0
 23 22  1  0  0  0  0
 24 20  1  0  0  0  0
 26 25  1  0  0  0  0
 26 27  1  0  0  0  0
 28 27  1  0  0  0  0
M  END
>  <MODEL>
3

>  <REMARK>
 VINA RESULT:      -6.2      2.669      4.697
  Name = 
  8 active torsions:
  status: ('A' for Active; 'I' for Inactive)
    1  A    between atoms: C_1  and  C_13
    2  A    between atoms: C_2  and  O_26
    3  A    between atoms: C_3  and  N_16
    4  A    between atoms: C_5  and  N_16
    5  A    between atoms: C_12  and  O_25
    6  A    between atoms: C_13  and  O_25
    7  A    between atoms: N_22  and  C_27
    8  A    between atoms: C_23  and  O_26
                            x       y       z     vdW  Elec       q    Type
                         _______ _______ _______ _____ _____    ______ ____

>  <TORSDO>
F 8

$$$$
=
 OpenBabel11042414403D

 28 30  0  0  1  0  0  0  0  0999 V2000
  187.6520  177.4510  144.8830 C   0  0  0  0  0  0  0  0  0  0  0  0
  186.6090  178.2720  145.0580 C   0  0  0  0  0  3  0  0  0  0  0  0
  185.8180  178.2410  146.2920 C   0  0  0  0  0  0  0  0  0  0  0  0
  186.1330  177.2530  147.3250 C   0  0  0  0  0  3  0  0  0  0  0  0
  184.8630  179.0440  146.4520 O   0  0  0  0  0  0  0  0  0  0  0  0
  188.1020  176.5060  145.9800 C   0  0  2  0  0  3  0  0  0  0  0  0
  187.1780  176.4390  147.1750 C   0  0  0  0  0  3  0  0  0  0  0  0
  191.5250  174.0430  145.2810 C   0  0  0  0  0  0  0  0  0  0  0  0
  190.5850  176.0380  146.1810 C   0  0  0  0  0  0  0  0  0  0  0  0
  192.9500  175.6410  146.4040 C   0  0  0  0  0  0  0  0  0  0  0  0
  192.7980  174.4300  145.7270 C   0  0  0  0  0  2  0  0  0  0  0  0
  194.1730  176.0270  146.8370 F   0  0  0  0  0  0  0  0  0  0  0  0
  190.4590  174.8550  145.5160 N   0  0  0  0  0  0  0  0  0  0  0  0
  191.8390  176.4520  146.6330 C   0  0  0  0  0  3  0  0  0  0  0  0
  189.4450  176.8690  146.4130 N   0  0  0  0  0  0  0  0  0  0  0  0
  191.3220  172.8370  144.6030 O   0  0  0  0  0  0  0  0  0  0  0  0
  189.3880  171.8400  145.3390 O   0  0  0  0  0  0  0  0  0  0  0  0
  190.0560  172.3020  144.3770 C   0  0  0  0  0  3  0  0  0  0  0  0
  188.4260  177.4830  143.6750 N   0  0  0  0  0  2  0  0  0  0  0  0
  187.4340  176.8590  141.4720 C   0  0  0  0  0  0  0  0  0  0  0  0
  188.3050  176.6330  142.5240 C   0  0  0  0  0  0  0  0  0  0  0  0
  189.2280  175.2780  142.1570 S   0  0  0  0  0  0  0  0  0  0  0  0
  188.5240  174.9520  140.6600 C   0  0  0  0  0  3  0  0  0  0  0  0
  187.5530  175.9270  140.4320 C   0  0  0  0  0  3  0  0  0  0  0  0
  186.4830  178.0060  141.4190 C   0  0  0  0  0  2  0  0  0  0  0  0
  185.7960  177.9920  140.2040 O   0  0  0  0  0  0  0  0  0  0  0  0
  184.4780  178.2870  140.5480 C   0  0  0  0  0  2  0  0  0  0  0  0
  184.3140  178.1970  142.0500 C   0  0  0  0  0  1  0  0  0  0  0  0
  1  2  2  0  0  0  0
  1  6  1  0  0  0  0
  2  3  1  0  0  0  0
  3  5  2  0  0  0  0
  3  4  1  0  0  0  0
  6 15  1  1  0  0  0
  6  7  1  0  0  0  0
  7  4  2  0  0  0  0
  8 13  2  0  0  0  0
  8 11  1  0  0  0  0
  9 15  2  0  0  0  0
  9 14  1  0  0  0  0
 10 14  2  0  0  0  0
 10 12  1  0  0  0  0
 11 10  1  0  0  0  0
 13  9  1  0  0  0  0
 16  8  1  0  0  0  0
 18 16  1  0  0  0  0
 18 17  2  0  0  0  0
 19  1  1  0  0  0  0
 20 21  2  0  0  0  0
 21 19  1  0  0  0  0
 22 21  1  0  0  0  0
 23 22  1  0  0  0  0
 24 23  2  0  0  0  0
 24 20  1  0  0  0  0
 25 20  1  0  0  0  0
 26 27  1  0  0  0  0
 26 25  1  0  0  0  0
 27 28  1  0  0  0  0
M  END
>  <MODEL>
4

>  <REMARK>
 VINA RESULT:      -6.2      2.702      5.470
  Name = 
  8 active torsions:
  status: ('A' for Active; 'I' for Inactive)
    1  A    between atoms: C_1  and  C_13
    2  A    between atoms: C_2  and  O_26
    3  A    between atoms: C_3  and  N_16
    4  A    between atoms: C_5  and  N_16
    5  A    between atoms: C_12  and  O_25
    6  A    between atoms: C_13  and  O_25
    7  A    between atoms: N_22  and  C_27
    8  A    between atoms: C_23  and  O_26
                            x       y       z     vdW  Elec       q    Type
                         _______ _______ _______ _____ _____    ______ ____

>  <TORSDO>
F 8

$$$$
=
 OpenBabel11042414403D

 28 30  0  0  1  0  0  0  0  0999 V2000
  186.1200  176.9470  144.9690 C   0  0  0  0  0  0  0  0  0  0  0  0
  185.1610  177.6660  145.5650 C   0  0  0  0  0  3  0  0  0  0  0  0
  185.3430  178.1980  146.9190 C   0  0  0  0  0  0  0  0  0  0  0  0
  186.5680  177.8850  147.6570 C   0  0  0  0  0  3  0  0  0  0  0  0
  184.4450  178.9010  147.4490 O   0  0  0  0  0  0  0  0  0  0  0  0
  187.4590  176.7130  145.6390 C   0  0  2  0  0  3  0  0  0  0  0  0
  187.5400  177.1840  147.0740 C   0  0  0  0  0  3  0  0  0  0  0  0
  190.9470  174.6230  144.3200 C   0  0  0  0  0  0  0  0  0  0  0  0
  189.6790  176.6380  144.4190 C   0  0  0  0  0  0  0  0  0  0  0  0
  191.7860  176.6220  143.2500 C   0  0  0  0  0  0  0  0  0  0  0  0
  191.9420  175.2740  143.5730 C   0  0  0  0  0  2  0  0  0  0  0  0
  192.7350  177.2610  142.5270 F   0  0  0  0  0  0  0  0  0  0  0  0
  189.8480  175.3190  144.7180 N   0  0  0  0  0  0  0  0  0  0  0  0
  190.6490  177.3110  143.6730 C   0  0  0  0  0  3  0  0  0  0  0  0
  188.5130  177.3400  144.8520 N   0  0  0  0  0  0  0  0  0  0  0  0
  191.0620  173.2750  144.6720 O   0  0  0  0  0  0  0  0  0  0  0  0
  189.3350  171.9470  145.4010 O   0  0  0  0  0  0  0  0  0  0  0  0
  190.0480  172.3470  144.4450 C   0  0  0  0  0  3  0  0  0  0  0  0
  185.9410  176.4270  143.6430 N   0  0  0  0  0  2  0  0  0  0  0  0
  186.4670  177.2680  141.3530 C   0  0  0  0  0  0  0  0  0  0  0  0
  185.6230  177.1500  142.4450 C   0  0  0  0  0  0  0  0  0  0  0  0
  184.1710  177.9060  142.0660 S   0  0  0  0  0  0  0  0  0  0  0  0
  184.6000  178.4030  140.5130 C   0  0  0  0  0  3  0  0  0  0  0  0
  185.9020  177.9630  140.2760 C   0  0  0  0  0  3  0  0  0  0  0  0
  187.8360  176.6780  141.3010 C   0  0  0  0  0  2  0  0  0  0  0  0
  187.8360  175.5630  140.4610 O   0  0  0  0  0  0  0  0  0  0  0  0
  188.1330  174.4940  141.3050 C   0  0  0  0  0  2  0  0  0  0  0  0
  189.5570  174.0400  141.0660 C   0  0  0  0  0  1  0  0  0  0  0  0
  1  2  2  0  0  0  0
  1  6  1  0  0  0  0
  2  3  1  0  0  0  0
  3  5  2  0  0  0  0
  3  4  1  0  0  0  0
  6 15  1  6  0  0  0
  6  7  1  0  0  0  0
  7  4  2  0  0  0  0
  8 16  1  0  0  0  0
  8 13  2  0  0  0  0
  9 13  1  0  0  0  0
  9 15  2  0  0  0  0
 10 11  1  0  0  0  0
 10 14  2  0  0  0  0
 11  8  1  0  0  0  0
 12 10  1  0  0  0  0
 14  9  1  0  0  0  0
 18 16  1  0  0  0  0
 18 17  2  0  0  0  0
 19  1  1  0  0  0  0
 20 21  2  0  0  0  0
 21 19  1  0  0  0  0
 22 21  1  0  0  0  0
 23 22  1  0  0  0  0
 24 23  2  0  0  0  0
 24 20  1  0  0  0  0
 25 20  1  0  0  0  0
 26 25  1  0  0  0  0
 26 27  1  0  0  0  0
 28 27  1  0  0  0  0
M  END
>  <MODEL>
5

>  <REMARK>
 VINA RESULT:      -6.1      2.562      4.944
  Name = 
  8 active torsions:
  status: ('A' for Active; 'I' for Inactive)
    1  A    between atoms: C_1  and  C_13
    2  A    between atoms: C_2  and  O_26
    3  A    between atoms: C_3  and  N_16
    4  A    between atoms: C_5  and  N_16
    5  A    between atoms: C_12  and  O_25
    6  A    between atoms: C_13  and  O_25
    7  A    between atoms: N_22  and  C_27
    8  A    between atoms: C_23  and  O_26
                            x       y       z     vdW  Elec       q    Type
                         _______ _______ _______ _____ _____    ______ ____

>  <TORSDO>
F 8

$$$$
=
 OpenBabel11042414403D

 28 30  0  0  1  0  0  0  0  0999 V2000
  187.3110  176.8210  146.3640 C   0  0  0  0  0  0  0  0  0  0  0  0
  186.3490  177.2120  147.2100 C   0  0  0  0  0  3  0  0  0  0  0  0
  185.4090  178.2770  146.8480 C   0  0  0  0  0  0  0  0  0  0  0  0
  185.5620  178.9690  145.5680 C   0  0  0  0  0  3  0  0  0  0  0  0
  184.4900  178.6060  147.6420 O   0  0  0  0  0  0  0  0  0  0  0  0
  187.4240  177.4120  144.9740 C   0  0  2  0  0  3  0  0  0  0  0  0
  186.5040  178.5830  144.7070 C   0  0  0  0  0  3  0  0  0  0  0  0
  190.5430  175.7750  142.5530 C   0  0  0  0  0  0  0  0  0  0  0  0
  188.2440  175.8300  143.1720 C   0  0  0  0  0  0  0  0  0  0  0  0
  188.9690  174.3100  141.4490 C   0  0  0  0  0  0  0  0  0  0  0  0
  190.2740  174.7780  141.6020 C   0  0  0  0  0  2  0  0  0  0  0  0
  188.6960  173.3460  140.5380 F   0  0  0  0  0  0  0  0  0  0  0  0
  189.5260  176.2690  143.3100 N   0  0  0  0  0  0  0  0  0  0  0  0
  187.9460  174.8360  142.2380 C   0  0  0  0  0  3  0  0  0  0  0  0
  187.1980  176.3700  143.9820 N   0  0  0  0  0  0  0  0  0  0  0  0
  191.8340  176.2800  142.7380 O   0  0  0  0  0  0  0  0  0  0  0  0
  193.8080  175.6260  141.7620 O   0  0  0  0  0  0  0  0  0  0  0  0
  192.9720  175.4770  142.6900 C   0  0  0  0  0  3  0  0  0  0  0  0
  188.2310  175.7780  146.7190 N   0  0  0  0  0  2  0  0  0  0  0  0
  190.5670  174.9770  146.3640 C   0  0  0  0  0  0  0  0  0  0  0  0
  189.6530  175.8730  146.8900 C   0  0  0  0  0  0  0  0  0  0  0  0
  190.5070  177.1020  147.6540 S   0  0  0  0  0  0  0  0  0  0  0  0
  192.0510  176.5050  147.3360 C   0  0  0  0  0  3  0  0  0  0  0  0
  191.9020  175.3240  146.6080 C   0  0  0  0  0  3  0  0  0  0  0  0
  190.1820  173.7730  145.5720 C   0  0  0  0  0  2  0  0  0  0  0  0
  191.2930  173.2880  144.8810 O   0  0  0  0  0  0  0  0  0  0  0  0
  190.8320  172.1340  144.2500 C   0  0  0  0  0  2  0  0  0  0  0  0
  189.3260  172.0520  144.3800 C   0  0  0  0  0  1  0  0  0  0  0  0
  1 19  1  0  0  0  0
  1  2  2  0  0  0  0
  3  2  1  0  0  0  0
  3  5  2  0  0  0  0
  4  3  1  0  0  0  0
  6 15  1  6  0  0  0
  6  1  1  0  0  0  0
  7  6  1  0  0  0  0
  7  4  2  0  0  0  0
  8 16  1  0  0  0  0
  8 13  2  0  0  0  0
  9 13  1  0  0  0  0
  9 15  2  0  0  0  0
 10 11  1  0  0  0  0
 10 14  2  0  0  0  0
 11  8  1  0  0  0  0
 12 10  1  0  0  0  0
 14  9  1  0  0  0  0
 17 18  2  0  0  0  0
 18 16  1  0  0  0  0
 19 21  1  0  0  0  0
 20 24  1  0  0  0  0
 20 21  2  0  0  0  0
 21 22  1  0  0  0  0
 23 22  1  0  0  0  0
 24 23  2  0  0  0  0
 25 20  1  0  0  0  0
 26 25  1  0  0  0  0
 27 28  1  0  0  0  0
 27 26  1  0  0  0  0
M  END
>  <MODEL>
6

>  <REMARK>
 VINA RESULT:      -6.1      2.844      4.301
  Name = 
  8 active torsions:
  status: ('A' for Active; 'I' for Inactive)
    1  A    between atoms: C_1  and  C_13
    2  A    between atoms: C_2  and  O_26
    3  A    between atoms: C_3  and  N_16
    4  A    between atoms: C_5  and  N_16
    5  A    between atoms: C_12  and  O_25
    6  A    between atoms: C_13  and  O_25
    7  A    between atoms: N_22  and  C_27
    8  A    between atoms: C_23  and  O_26
                            x       y       z     vdW  Elec       q    Type
                         _______ _______ _______ _____ _____    ______ ____

>  <TORSDO>
F 8

$$$$
=
 OpenBabel11042414403D

 28 30  0  0  1  0  0  0  0  0999 V2000
  188.7870  175.4410  141.7550 C   0  0  0  0  0  0  0  0  0  0  0  0
  188.1070  174.7210  140.8540 C   0  0  0  0  0  3  0  0  0  0  0  0
  188.6020  173.4190  140.3950 C   0  0  0  0  0  0  0  0  0  0  0  0
  189.8910  172.9260  140.8820 C   0  0  0  0  0  3  0  0  0  0  0  0
  187.9320  172.7410  139.5740 O   0  0  0  0  0  0  0  0  0  0  0  0
  190.0560  174.9110  142.3910 C   0  0  2  0  0  3  0  0  0  0  0  0
  190.5730  173.6220  141.7910 C   0  0  0  0  0  3  0  0  0  0  0  0
  192.8600  176.2430  145.3290 C   0  0  0  0  0  0  0  0  0  0  0  0
  190.7920  175.1840  144.8000 C   0  0  0  0  0  0  0  0  0  0  0  0
  191.4470  175.4150  147.1070 C   0  0  0  0  0  0  0  0  0  0  0  0
  192.6210  176.0470  146.6990 C   0  0  0  0  0  3  0  0  0  0  0  0
  191.2020  175.2230  148.4250 F   0  0  0  0  0  0  0  0  0  0  0  0
  191.9420  175.8100  144.4220 N   0  0  0  0  0  0  0  0  0  0  0  0
  190.5250  174.9800  146.1550 C   0  0  0  0  0  2  0  0  0  0  0  0
  189.8490  174.7420  143.8220 N   0  0  0  0  0  0  0  0  0  0  0  0
  194.0240  176.8670  144.8720 O   0  0  0  0  0  0  0  0  0  0  0  0
  196.0930  176.7830  143.8750 O   0  0  0  0  0  0  0  0  0  0  0  0
  195.0840  176.1630  144.3030 C   0  0  0  0  0  3  0  0  0  0  0  0
  188.3020  176.7150  142.2030 N   0  0  0  0  0  2  0  0  0  0  0  0
  186.1150  177.2620  143.2740 C   0  0  0  0  0  0  0  0  0  0  0  0
  186.9540  177.2090  142.1740 C   0  0  0  0  0  0  0  0  0  0  0  0
  186.1510  177.9020  140.8710 S   0  0  0  0  0  0  0  0  0  0  0  0
  184.7210  178.2680  141.6850 C   0  0  0  0  0  3  0  0  0  0  0  0
  184.8720  177.8520  143.0070 C   0  0  0  0  0  3  0  0  0  0  0  0
  186.5010  176.7800  144.6310 C   0  0  0  0  0  2  0  0  0  0  0  0
  185.4050  176.8650  145.4910 O   0  0  0  0  0  0  0  0  0  0  0  0
  185.9530  177.2400  146.7160 C   0  0  0  0  0  2  0  0  0  0  0  0
  187.3490  176.6700  146.8420 C   0  0  0  0  0  1  0  0  0  0  0  0
  1 19  1  0  0  0  0
  1  6  1  0  0  0  0
  2  1  2  0  0  0  0
  3  2  1  0  0  0  0
  3  4  1  0  0  0  0
  4  7  2  0  0  0  0
  5  3  2  0  0  0  0
  6 15  1  1  0  0  0
  7  6  1  0  0  0  0
  8 11  1  0  0  0  0
  9 14  1  0  0  0  0
 10 12  1  0  0  0  0
 11 10  2  0  0  0  0
 13  9  1  0  0  0  0
 13  8  2  0  0  0  0
 14 10  1  0  0  0  0
 15  9  2  0  0  0  0
 16  8  1  0  0  0  0
 17 18  2  0  0  0  0
 18 16  1  0  0  0  0
 20 25  1  0  0  0  0
 21 19  1  0  0  0  0
 21 20  2  0  0  0  0
 22 23  1  0  0  0  0
 22 21  1  0  0  0  0
 23 24  2  0  0  0  0
 24 20  1  0  0  0  0
 25 26  1  0  0  0  0
 26 27  1  0  0  0  0
 27 28  1  0  0  0  0
M  END
>  <MODEL>
7

>  <REMARK>
 VINA RESULT:      -6.0      2.600      3.932
  Name = 
  8 active torsions:
  status: ('A' for Active; 'I' for Inactive)
    1  A    between atoms: C_1  and  C_13
    2  A    between atoms: C_2  and  O_26
    3  A    between atoms: C_3  and  N_16
    4  A    between atoms: C_5  and  N_16
    5  A    between atoms: C_12  and  O_25
    6  A    between atoms: C_13  and  O_25
    7  A    between atoms: N_22  and  C_27
    8  A    between atoms: C_23  and  O_26
                            x       y       z     vdW  Elec       q    Type
                         _______ _______ _______ _____ _____    ______ ____

>  <TORSDO>
F 8

$$$$
=
 OpenBabel11042414403D

 28 30  0  0  1  0  0  0  0  0999 V2000
  190.2600  176.9200  145.2600 C   0  0  0  0  0  0  0  0  0  0  0  0
  190.3010  175.8690  146.0880 C   0  0  0  0  0  3  0  0  0  0  0  0
  189.0970  175.4070  146.7870 C   0  0  0  0  0  0  0  0  0  0  0  0
  187.8430  176.1430  146.6240 C   0  0  0  0  0  3  0  0  0  0  0  0
  189.1480  174.3970  147.5340 O   0  0  0  0  0  0  0  0  0  0  0  0
  188.9570  177.6300  144.9530 C   0  0  2  0  0  3  0  0  0  0  0  0
  187.7800  177.1810  145.7910 C   0  0  0  0  0  3  0  0  0  0  0  0
  185.1140  178.5200  143.3070 C   0  0  0  0  0  0  0  0  0  0  0  0
  187.3540  177.7740  142.9950 C   0  0  0  0  0  0  0  0  0  0  0  0
  185.8710  177.8880  141.1000 C   0  0  0  0  0  0  0  0  0  0  0  0
  184.8550  178.3490  141.9380 C   0  0  0  0  0  3  0  0  0  0  0  0
  185.6360  177.7220  139.7780 F   0  0  0  0  0  0  0  0  0  0  0  0
  186.3510  178.2320  143.7950 N   0  0  0  0  0  0  0  0  0  0  0  0
  187.1290  177.5980  141.6290 C   0  0  0  0  0  3  0  0  0  0  0  0
  188.6430  177.4800  143.5390 N   0  0  0  0  0  2  0  0  0  0  0  0
  184.1260  178.9750  144.1870 O   0  0  0  0  0  0  0  0  0  0  0  0
  184.0830  177.9650  146.2500 O   0  0  0  0  0  0  0  0  0  0  0  0
  184.3010  179.0010  145.5690 C   0  0  0  0  0  3  0  0  0  0  0  0
  191.4390  177.3710  144.5770 N   0  0  0  0  0  2  0  0  0  0  0  0
  193.0980  175.8700  143.4710 C   0  0  0  0  0  0  0  0  0  0  0  0
  192.7170  176.7220  144.4940 C   0  0  0  0  0  0  0  0  0  0  0  0
  194.0280  176.9190  145.5260 S   0  0  0  0  0  0  0  0  0  0  0  0
  195.0950  175.9130  144.6930 C   0  0  0  0  0  3  0  0  0  0  0  0
  194.4200  175.4190  143.5770 C   0  0  0  0  0  3  0  0  0  0  0  0
  192.2090  175.4940  142.3350 C   0  0  0  0  0  2  0  0  0  0  0  0
  191.4940  174.3400  142.6590 O   0  0  0  0  0  0  0  0  0  0  0  0
  190.2060  174.5860  142.1850 C   0  0  0  0  0  2  0  0  0  0  0  0
  189.1940  173.9590  143.1200 C   0  0  0  0  0  1  0  0  0  0  0  0
  1  2  2  0  0  0  0
  2  3  1  0  0  0  0
  3  5  2  0  0  0  0
  4  3  1  0  0  0  0
  6 15  1  6  0  0  0
  6  1  1  0  0  0  0
  6  7  1  0  0  0  0
  7  4  2  0  0  0  0
  8 13  2  0  0  0  0
  8 16  1  0  0  0  0
  9 15  1  0  0  0  0
  9 13  1  0  0  0  0
 10 14  1  0  0  0  0
 10 11  2  0  0  0  0
 11  8  1  0  0  0  0
 12 10  1  0  0  0  0
 14  9  2  0  0  0  0
 16 18  1  0  0  0  0
 18 17  2  0  0  0  0
 19  1  1  0  0  0  0
 20 24  1  0  0  0  0
 20 21  2  0  0  0  0
 21 19  1  0  0  0  0
 21 22  1  0  0  0  0
 23 22  1  0  0  0  0
 24 23  2  0  0  0  0
 25 26  1  0  0  0  0
 25 20  1  0  0  0  0
 27 26  1  0  0  0  0
 27 28  1  0  0  0  0
M  END
>  <MODEL>
8

>  <REMARK>
 VINA RESULT:      -6.0      3.009      6.969
  Name = 
  8 active torsions:
  status: ('A' for Active; 'I' for Inactive)
    1  A    between atoms: C_1  and  C_13
    2  A    between atoms: C_2  and  O_26
    3  A    between atoms: C_3  and  N_16
    4  A    between atoms: C_5  and  N_16
    5  A    between atoms: C_12  and  O_25
    6  A    between atoms: C_13  and  O_25
    7  A    between atoms: N_22  and  C_27
    8  A    between atoms: C_23  and  O_26
                            x       y       z     vdW  Elec       q    Type
                         _______ _______ _______ _____ _____    ______ ____

>  <TORSDO>
F 8

$$$$
=
 OpenBabel11042414403D

 28 30  0  0  1  0  0  0  0  0999 V2000
  190.9000  175.0320  143.4060 C   0  0  0  0  0  0  0  0  0  0  0  0
  192.1550  174.5960  143.2390 C   0  0  0  0  0  3  0  0  0  0  0  0
  193.2990  175.3730  143.7260 C   0  0  0  0  0  0  0  0  0  0  0  0
  193.0710  176.6780  144.3480 C   0  0  0  0  0  3  0  0  0  0  0  0
  194.4680  174.9300  143.5910 O   0  0  0  0  0  0  0  0  0  0  0  0
  190.6060  176.3100  144.1650 C   0  0  2  0  0  3  0  0  0  0  0  0
  191.8280  177.1210  144.5370 C   0  0  0  0  0  3  0  0  0  0  0  0
  186.8370  178.1190  145.0570 C   0  0  0  0  0  0  0  0  0  0  0  0
  188.5800  176.6110  145.6580 C   0  0  0  0  0  0  0  0  0  0  0  0
  186.6780  176.8610  147.1150 C   0  0  0  0  0  0  0  0  0  0  0  0
  186.1380  177.7940  146.2300 C   0  0  0  0  0  2  0  0  0  0  0  0
  186.0130  176.5360  148.2480 F   0  0  0  0  0  0  0  0  0  0  0  0
  188.0320  177.5190  144.8030 N   0  0  0  0  0  0  0  0  0  0  0  0
  187.9060  176.2640  146.8300 C   0  0  0  0  0  3  0  0  0  0  0  0
  189.8370  175.9980  145.3630 N   0  0  0  0  0  0  0  0  0  0  0  0
  186.3380  179.0510  144.1430 O   0  0  0  0  0  0  0  0  0  0  0  0
  184.0780  179.0440  143.7310 O   0  0  0  0  0  0  0  0  0  0  0  0
  185.0690  179.6150  144.2560 C   0  0  0  0  0  3  0  0  0  0  0  0
  189.7810  174.2710  142.9290 N   0  0  0  0  0  2  0  0  0  0  0  0
  188.4810  174.8730  140.8860 C   0  0  0  0  0  0  0  0  0  0  0  0
  189.3690  174.0600  141.5700 C   0  0  0  0  0  0  0  0  0  0  0  0
  189.9260  172.8830  140.5080 S   0  0  0  0  0  0  0  0  0  0  0  0
  189.0350  173.3830  139.1670 C   0  0  0  0  0  3  0  0  0  0  0  0
  188.2930  174.5000  139.5480 C   0  0  0  0  0  3  0  0  0  0  0  0
  187.8120  176.0600  141.4920 C   0  0  0  0  0  2  0  0  0  0  0  0
  187.0440  176.7110  140.5270 O   0  0  0  0  0  0  0  0  0  0  0  0
  186.1010  177.4290  141.2610 C   0  0  0  0  0  2  0  0  0  0  0  0
  185.1180  178.0880  140.3170 C   0  0  0  0  0  1  0  0  0  0  0  0
  1  6  1  0  0  0  0
  2  1  2  0  0  0  0
  2  3  1  0  0  0  0
  3  4  1  0  0  0  0
  4  7  2  0  0  0  0
  5  3  2  0  0  0  0
  6  7  1  0  0  0  0
  6 15  1  1  0  0  0
  8 11  1  0  0  0  0
  9 14  1  0  0  0  0
 10 12  1  0  0  0  0
 11 10  1  0  0  0  0
 13  8  2  0  0  0  0
 13  9  1  0  0  0  0
 14 10  2  0  0  0  0
 15  9  2  0  0  0  0
 16 18  1  0  0  0  0
 16  8  1  0  0  0  0
 17 18  2  0  0  0  0
 19  1  1  0  0  0  0
 20 25  1  0  0  0  0
 20 21  2  0  0  0  0
 21 19  1  0  0  0  0
 22 21  1  0  0  0  0
 23 24  2  0  0  0  0
 23 22  1  0  0  0  0
 24 20  1  0  0  0  0
 26 27  1  0  0  0  0
 26 25  1  0  0  0  0
 28 27  1  0  0  0  0
M  END
>  <MODEL>
9

>  <REMARK>
 VINA RESULT:      -5.9      2.996      7.090
  Name = 
  8 active torsions:
  status: ('A' for Active; 'I' for Inactive)
    1  A    between atoms: C_1  and  C_13
    2  A    between atoms: C_2  and  O_26
    3  A    between atoms: C_3  and  N_16
    4  A    between atoms: C_5  and  N_16
    5  A    between atoms: C_12  and  O_25
    6  A    between atoms: C_13  and  O_25
    7  A    between atoms: N_22  and  C_27
    8  A    between atoms: C_23  and  O_26
                            x       y       z     vdW  Elec       q    Type
                         _______ _______ _______ _____ _____    ______ ____

>  <TORSDO>
F 8

$$$$
