=
 OpenBabel11042415303D

 47 51  0  0  1  0  0  0  0  0999 V2000
  189.0030  174.2510  140.9540 C   0  0  0  0  0  0  0  0  0  0  0  0
  188.1730  175.2180  140.6610 N   0  0  0  0  0  0  0  0  0  0  0  0
  197.1010  171.1340  144.1370 N   0  0  0  0  0  1  0  0  0  0  0  0
  192.8820  173.2480  144.7010 C   0  0  0  0  0  0  0  0  0  0  0  0
  196.4690  171.3660  145.4260 C   0  0  1  0  0  3  0  0  0  0  0  0
  189.6840  173.2000  143.0100 N   0  0  0  0  0  0  0  0  0  0  0  0
  190.5800  172.9910  144.1110 C   0  0  0  0  0  0  0  0  0  0  0  0
  191.8870  174.9620  143.2950 C   0  0  0  0  0  0  0  0  0  0  0  0
  191.8170  173.7770  144.1770 C   0  0  0  0  0  0  0  0  0  0  0  0
  195.1600  173.4320  145.4480 C   0  0  0  0  0  3  0  0  0  0  0  0
  196.2930  172.8170  145.6160 N   0  0  0  0  0  0  0  0  0  0  0  0
  193.9900  171.2140  145.3190 C   0  0  0  0  0  3  0  0  0  0  0  0
  190.3300  172.0970  144.9730 O   0  0  0  0  0  0  0  0  0  0  0  0
  193.9460  172.6690  145.1720 C   0  0  0  0  0  0  0  0  0  0  0  0
  189.7510  174.2470  142.2290 C   0  0  0  0  0  0  0  0  0  0  0  0
  190.6630  175.4030  142.5560 C   0  0  0  0  0  2  0  0  0  0  0  0
  192.9940  175.6790  143.1510 C   0  0  0  0  0  2  0  0  0  0  0  0
  195.1650  170.6000  145.4860 C   0  0  0  0  0  3  0  0  0  0  0  0
  186.8220  176.0470  142.5310 C   0  0  1  0  0  3  0  0  0  0  0  0
  187.2550  178.3010  143.7110 C   0  0  0  0  0  2  0  0  0  0  0  0
  186.5300  176.8850  141.2850 C   0  0  2  0  0  3  0  0  0  0  0  0
  187.9230  176.3520  141.5440 C   0  0  2  0  0  3  0  0  0  0  0  0
  186.5680  178.4230  141.4080 C   0  0  0  0  0  2  0  0  0  0  0  0
  186.9840  176.8110  143.8520 C   0  0  0  0  0  2  0  0  0  0  0  0
  186.3490  178.9440  142.7690 N   0  0  0  0  0  0  0  0  0  0  0  0
  184.9590  178.7720  143.1920 C   0  0  0  0  0  2  0  0  0  0  0  0
  184.7050  179.5420  144.4650 C   0  0  0  0  0  2  0  0  0  0  0  0
  183.7360  178.7740  145.3360 C   0  0  0  0  0  2  0  0  0  0  0  0
  184.4900  178.1200  146.4690 C   0  0  0  0  0  2  0  0  0  0  0  0
  185.6070  179.0360  146.9480 C   0  0  0  0  0  2  0  0  0  0  0  0
  186.7920  178.2440  147.4870 C   0  0  0  0  0  2  0  0  0  0  0  0
  186.5770  176.7500  147.3140 C   0  0  0  0  0  2  0  0  0  0  0  0
  187.7980  176.1060  147.1230 O   0  0  0  0  0  0  0  0  0  0  0  0
  188.7300  177.1270  146.9540 C   0  0  0  0  0  2  0  0  0  0  0  0
  189.8510  176.6320  146.1690 N   0  0  0  0  0  1  0  0  0  0  0  0
  189.1790  173.1070  140.0050 C   0  0  1  0  0  3  0  0  0  0  0  0
  188.6740  173.4450  138.6750 C   0  0  0  0  0  2  0  0  0  0  0  0
  190.1060  173.5280  138.9480 N   0  0  0  0  0  0  0  0  0  0  0  0
  190.7170  172.3180  138.4030 C   0  0  0  0  0  2  0  0  0  0  0  0
  192.2160  172.5210  138.2420 C   0  0  2  0  0  3  0  0  0  0  0  0
  192.6320  172.1670  136.9660 F   0  0  0  0  0  0  0  0  0  0  0  0
  192.9810  171.7900  139.3030 C   0  0  0  0  0  0  0  0  0  0  0  0
  193.6310  170.8040  138.9980 O   0  0  0  0  0  0  0  0  0  0  0  0
  192.8780  172.2070  140.7440 C   0  0  1  0  0  3  0  0  0  0  0  0
  192.3990  171.0520  141.6030 C   0  0  0  0  0  1  0  0  0  0  0  0
  194.2040  172.7600  141.2840 C   0  0  0  0  0  2  0  0  0  0  0  0
  194.7930  173.6240  140.3540 O   0  0  0  0  0  1  0  0  0  0  0  0
  1 15  1  0  0  0  0
  2  1  2  0  0  0  0
  4 14  2  0  0  0  0
  5  3  1  6  0  0  0
  5 18  1  0  0  0  0
  5 11  1  0  0  0  0
  6  7  1  0  0  0  0
  7  9  1  0  0  0  0
  7 13  2  0  0  0  0
  8  9  1  0  0  0  0
  9  4  2  0  0  0  0
 10 11  2  0  0  0  0
 12 18  2  0  0  0  0
 14 12  1  0  0  0  0
 14 10  1  0  0  0  0
 15 16  1  0  0  0  0
 15  6  2  0  0  0  0
 16  8  1  0  0  0  0
 17  8  2  0  0  0  0
 19 24  1  1  0  0  0
 20 24  1  0  0  0  0
 21 23  1  1  0  0  0
 21 22  1  0  0  0  0
 21 19  1  0  0  0  0
 22  2  1  6  0  0  0
 22 19  1  0  0  0  0
 23 25  1  0  0  0  0
 25 26  1  0  0  0  0
 25 20  1  0  0  0  0
 26 27  1  0  0  0  0
 27 28  1  0  0  0  0
 28 29  1  0  0  0  0
 29 30  1  0  0  0  0
 30 31  1  0  0  0  0
 32 31  1  0  0  0  0
 33 32  1  0  0  0  0
 34 33  1  0  0  0  0
 35 34  1  0  0  0  0
 36  1  1  1  0  0  0
 37 38  1  0  0  0  0
 37 36  1  0  0  0  0
 38 36  1  0  0  0  0
 39 38  1  0  0  0  0
 40 41  1  6  0  0  0
 40 39  1  0  0  0  0
 40 42  1  0  0  0  0
 42 44  1  0  0  0  0
 43 42  2  0  0  0  0
 44 46  1  0  0  0  0
 44 45  1  1  0  0  0
 47 46  1  0  0  0  0
M  END
>  <MODEL>
1

>  <REMARK>
 VINA RESULT:      -6.2      0.000      0.000
  Name = 
  17 active torsions:
  status: ('A' for Active; 'I' for Inactive)
    1  A    between atoms: C_2  and  C_10
    2  A    between atoms: C_2  and  C_13
    3  A    between atoms: C_4  and  C_26
    4  A    between atoms: C_4  and  C_33
    5  A    between atoms: C_9  and  C_17
    6  A    between atoms: C_10  and  C_31
    7  A    between atoms: C_13  and  C_27
    8  A    between atoms: C_17  and  C_34
    9  A    between atoms: C_18  and  C_19
   10  A    between atoms: C_18  and  N_46
   11  A    between atoms: C_19  and  C_27
   12  A    between atoms: C_23  and  O_44
   13  A    between atoms: C_24  and  C_36
   14  A    between atoms: C_26  and  C_36
   15  A    between atoms: N_30  and  C_37
   16  A    between atoms: C_31  and  O_44
   17  A    between atoms: C_33  and  N_40
                            x       y       z     vdW  Elec       q    Type
                         _______ _______ _______ _____ _____    ______ ____

>  <TORSDO>
F 17

$$$$
=
 OpenBabel11042415303D

 47 51  0  0  1  0  0  0  0  0999 V2000
  187.9400  176.4290  141.8280 C   0  0  0  0  0  0  0  0  0  0  0  0
  187.9290  175.4630  140.9470 N   0  0  0  0  0  0  0  0  0  0  0  0
  196.3550  173.4550  144.2290 N   0  0  0  0  0  1  0  0  0  0  0  0
  192.0740  175.2580  145.2370 C   0  0  0  0  0  0  0  0  0  0  0  0
  195.7880  173.5150  145.5660 C   0  0  1  0  0  3  0  0  0  0  0  0
  188.7900  175.2080  143.7200 N   0  0  0  0  0  0  0  0  0  0  0  0
  189.7580  174.9350  144.7440 C   0  0  0  0  0  0  0  0  0  0  0  0
  190.9150  177.0510  144.0790 C   0  0  0  0  0  0  0  0  0  0  0  0
  190.9550  175.7780  144.8290 C   0  0  0  0  0  0  0  0  0  0  0  0
  194.3800  175.4900  145.8800 C   0  0  0  0  0  3  0  0  0  0  0  0
  195.5500  174.9250  145.9210 N   0  0  0  0  0  0  0  0  0  0  0  0
  193.3180  173.2360  145.5730 C   0  0  0  0  0  3  0  0  0  0  0  0
  189.6040  173.9430  145.5150 O   0  0  0  0  0  0  0  0  0  0  0  0
  193.1920  174.6930  145.5860 C   0  0  0  0  0  0  0  0  0  0  0  0
  188.7590  176.3330  143.0550 C   0  0  0  0  0  0  0  0  0  0  0  0
  189.6290  177.4980  143.4570 C   0  0  0  0  0  2  0  0  0  0  0  0
  191.9740  177.8410  143.9560 C   0  0  0  0  0  2  0  0  0  0  0  0
  194.5300  172.6750  145.6110 C   0  0  0  0  0  3  0  0  0  0  0  0
  190.1550  174.4530  140.7520 C   0  0  1  0  0  3  0  0  0  0  0  0
  190.6990  172.0480  141.5120 C   0  0  0  0  0  2  0  0  0  0  0  0
  189.2120  173.8000  139.7410 C   0  0  2  0  0  3  0  0  0  0  0  0
  188.7020  174.2340  141.0980 C   0  0  2  0  0  3  0  0  0  0  0  0
  189.1610  172.2590  139.6730 C   0  0  0  0  0  2  0  0  0  0  0  0
  191.0940  173.5170  141.5240 C   0  0  0  0  0  2  0  0  0  0  0  0
  190.3650  171.5730  140.1770 N   0  0  0  0  0  0  0  0  0  0  0  0
  191.5000  171.7470  139.2690 C   0  0  0  0  0  2  0  0  0  0  0  0
  191.0930  171.3990  137.8580 C   0  0  0  0  0  2  0  0  0  0  0  0
  191.6850  172.4070  136.8990 C   0  0  0  0  0  2  0  0  0  0  0  0
  192.1140  173.6360  137.6650 C   0  0  0  0  0  2  0  0  0  0  0  0
  193.3990  174.1960  137.0740 C   0  0  0  0  0  2  0  0  0  0  0  0
  194.0780  175.1740  138.0260 C   0  0  0  0  0  2  0  0  0  0  0  0
  193.9960  174.6850  139.4620 C   0  0  0  0  0  2  0  0  0  0  0  0
  195.1500  175.0420  140.1590 O   0  0  0  0  0  0  0  0  0  0  0  0
  194.7810  176.1280  140.9500 C   0  0  0  0  0  2  0  0  0  0  0  0
  194.2980  175.6450  142.2350 N   0  0  0  0  0  1  0  0  0  0  0  0
  187.1420  177.6700  141.5820 C   0  0  1  0  0  3  0  0  0  0  0  0
  186.2400  177.4990  140.4440 C   0  0  0  0  0  2  0  0  0  0  0  0
  185.7260  177.3550  141.8030 N   0  0  0  0  0  0  0  0  0  0  0  0
  185.0530  178.6070  142.1410 C   0  0  0  0  0  2  0  0  0  0  0  0
  184.4460  178.5100  143.5320 C   0  0  2  0  0  3  0  0  0  0  0  0
  183.0870  178.7980  143.5040 F   0  0  0  0  0  0  0  0  0  0  0  0
  185.1800  179.3780  144.5080 C   0  0  0  0  0  0  0  0  0  0  0  0
  185.5480  180.4880  144.1610 O   0  0  0  0  0  0  0  0  0  0  0  0
  185.5440  178.8560  145.8710 C   0  0  1  0  0  3  0  0  0  0  0  0
  184.3420  178.2130  146.5360 C   0  0  0  0  0  1  0  0  0  0  0  0
  186.7180  177.8690  145.8200 C   0  0  0  0  0  2  0  0  0  0  0  0
  186.2560  176.5640  145.6130 O   0  0  0  0  0  1  0  0  0  0  0  0
  1 15  1  0  0  0  0
  2  1  2  0  0  0  0
  4 14  2  0  0  0  0
  5  3  1  6  0  0  0
  5 18  1  0  0  0  0
  5 11  1  0  0  0  0
  6  7  1  0  0  0  0
  7  9  1  0  0  0  0
  7 13  2  0  0  0  0
  8  9  1  0  0  0  0
  9  4  2  0  0  0  0
 10 11  2  0  0  0  0
 12 14  1  0  0  0  0
 12 18  2  0  0  0  0
 14 10  1  0  0  0  0
 15 16  1  0  0  0  0
 15  6  2  0  0  0  0
 16  8  1  0  0  0  0
 17  8  2  0  0  0  0
 19 22  1  0  0  0  0
 19 24  1  1  0  0  0
 20 24  1  0  0  0  0
 21 23  1  1  0  0  0
 21 19  1  0  0  0  0
 21 22  1  0  0  0  0
 22  2  1  6  0  0  0
 23 25  1  0  0  0  0
 25 20  1  0  0  0  0
 26 25  1  0  0  0  0
 27 26  1  0  0  0  0
 28 29  1  0  0  0  0
 28 27  1  0  0  0  0
 30 29  1  0  0  0  0
 30 31  1  0  0  0  0
 31 32  1  0  0  0  0
 32 33  1  0  0  0  0
 33 34  1  0  0  0  0
 34 35  1  0  0  0  0
 36 38  1  0  0  0  0
 36  1  1  6  0  0  0
 37 36  1  0  0  0  0
 37 38  1  0  0  0  0
 38 39  1  0  0  0  0
 39 40  1  0  0  0  0
 40 41  1  6  0  0  0
 40 42  1  0  0  0  0
 42 44  1  0  0  0  0
 43 42  2  0  0  0  0
 44 45  1  6  0  0  0
 46 44  1  0  0  0  0
 47 46  1  0  0  0  0
M  END
>  <MODEL>
2

>  <REMARK>
 VINA RESULT:      -6.1      2.792      7.847
  Name = 
  17 active torsions:
  status: ('A' for Active; 'I' for Inactive)
    1  A    between atoms: C_2  and  C_10
    2  A    between atoms: C_2  and  C_13
    3  A    between atoms: C_4  and  C_26
    4  A    between atoms: C_4  and  C_33
    5  A    between atoms: C_9  and  C_17
    6  A    between atoms: C_10  and  C_31
    7  A    between atoms: C_13  and  C_27
    8  A    between atoms: C_17  and  C_34
    9  A    between atoms: C_18  and  C_19
   10  A    between atoms: C_18  and  N_46
   11  A    between atoms: C_19  and  C_27
   12  A    between atoms: C_23  and  O_44
   13  A    between atoms: C_24  and  C_36
   14  A    between atoms: C_26  and  C_36
   15  A    between atoms: N_30  and  C_37
   16  A    between atoms: C_31  and  O_44
   17  A    between atoms: C_33  and  N_40
                            x       y       z     vdW  Elec       q    Type
                         _______ _______ _______ _____ _____    ______ ____

>  <TORSDO>
F 17

$$$$
=
 OpenBabel11042415303D

 47 51  0  0  1  0  0  0  0  0999 V2000
  188.3980  175.7860  141.8380 C   0  0  0  0  0  0  0  0  0  0  0  0
  189.4540  176.4010  142.3040 N   0  0  0  0  0  0  0  0  0  0  0  0
  194.9520  170.0000  138.8390 N   0  0  0  0  0  1  0  0  0  0  0  0
  190.4260  171.1430  139.7350 C   0  0  0  0  0  0  0  0  0  0  0  0
  193.8070  169.2760  138.3120 C   0  0  1  0  0  3  0  0  0  0  0  0
  188.5080  174.1960  140.0340 N   0  0  0  0  0  0  0  0  0  0  0  0
  188.8700  172.9350  139.4520 C   0  0  0  0  0  0  0  0  0  0  0  0
  189.5330  172.1800  141.7430 C   0  0  0  0  0  0  0  0  0  0  0  0
  189.5630  171.9450  140.2840 C   0  0  0  0  0  0  0  0  0  0  0  0
  191.9250  169.2690  139.8750 C   0  0  0  0  0  3  0  0  0  0  0  0
  193.0270  168.7330  139.4380 N   0  0  0  0  0  0  0  0  0  0  0  0
  191.8630  170.7590  137.8550 C   0  0  0  0  0  3  0  0  0  0  0  0
  188.6490  172.7150  138.2250 O   0  0  0  0  0  0  0  0  0  0  0  0
  191.3310  170.4010  139.1700 C   0  0  0  0  0  0  0  0  0  0  0  0
  188.4860  174.4020  141.3250 C   0  0  0  0  0  0  0  0  0  0  0  0
  188.6610  173.2620  142.2970 C   0  0  0  0  0  2  0  0  0  0  0  0
  190.2310  171.4440  142.5980 C   0  0  0  0  0  2  0  0  0  0  0  0
  192.9990  170.2000  137.4260 C   0  0  0  0  0  3  0  0  0  0  0  0
  191.2590  175.6330  143.7740 C   0  0  1  0  0  3  0  0  0  0  0  0
  193.3350  174.3530  142.9300 C   0  0  0  0  0  2  0  0  0  0  0  0
  191.7650  176.7930  142.9150 C   0  0  2  0  0  3  0  0  0  0  0  0
  190.7790  175.7920  142.3510 C   0  0  2  0  0  3  0  0  0  0  0  0
  193.1060  176.6260  142.1710 C   0  0  0  0  0  2  0  0  0  0  0  0
  192.2080  174.4390  143.9470 C   0  0  0  0  0  2  0  0  0  0  0  0
  194.0200  175.6260  142.7520 N   0  0  0  0  0  0  0  0  0  0  0  0
  194.5850  176.0890  144.0200 C   0  0  0  0  0  2  0  0  0  0  0  0
  195.4260  175.0010  144.6410 C   0  0  0  0  0  2  0  0  0  0  0  0
  195.1440  174.9310  146.1260 C   0  0  0  0  0  2  0  0  0  0  0  0
  194.2550  176.0850  146.5220 C   0  0  0  0  0  2  0  0  0  0  0  0
  192.9260  175.5630  147.0470 C   0  0  0  0  0  2  0  0  0  0  0  0
  192.0490  176.6900  147.5800 C   0  0  0  0  0  2  0  0  0  0  0  0
  190.5780  176.4030  147.3300 C   0  0  0  0  0  2  0  0  0  0  0  0
  190.3370  175.0310  147.3910 O   0  0  0  0  0  0  0  0  0  0  0  0
  188.9590  174.8930  147.2390 C   0  0  0  0  0  2  0  0  0  0  0  0
  188.5250  175.6460  146.0710 N   0  0  0  0  0  1  0  0  0  0  0  0
  187.0680  176.4720  141.8530 C   0  0  1  0  0  3  0  0  0  0  0  0
  186.2580  176.0230  142.9840 C   0  0  0  0  0  2  0  0  0  0  0  0
  186.9870  177.2840  143.0720 N   0  0  0  0  0  0  0  0  0  0  0  0
  186.0270  178.3540  142.8160 C   0  0  0  0  0  2  0  0  0  0  0  0
  184.8600  178.2480  143.7870 C   0  0  2  0  0  3  0  0  0  0  0  0
  183.6640  178.5880  143.1670 F   0  0  0  0  0  0  0  0  0  0  0  0
  185.1020  179.0650  145.0190 C   0  0  0  0  0  0  0  0  0  0  0  0
  185.5930  180.1770  144.9120 O   0  0  0  0  0  0  0  0  0  0  0  0
  184.8330  178.4900  146.3830 C   0  0  1  0  0  3  0  0  0  0  0  0
  184.9590  176.9790  146.3600 C   0  0  0  0  0  1  0  0  0  0  0  0
  185.7520  179.0870  147.4560 C   0  0  0  0  0  2  0  0  0  0  0  0
  186.9080  178.3120  147.6020 O   0  0  0  0  0  1  0  0  0  0  0  0
  1  2  2  0  0  0  0
  4  9  2  0  0  0  0
  5  3  1  1  0  0  0
  5 11  1  0  0  0  0
  6 15  2  0  0  0  0
  7  6  1  0  0  0  0
  7  9  1  0  0  0  0
  8 16  1  0  0  0  0
  8 17  2  0  0  0  0
  9  8  1  0  0  0  0
 11 10  2  0  0  0  0
 12 14  1  0  0  0  0
 13  7  2  0  0  0  0
 14  4  2  0  0  0  0
 14 10  1  0  0  0  0
 15  1  1  0  0  0  0
 15 16  1  0  0  0  0
 18 12  2  0  0  0  0
 18  5  1  0  0  0  0
 19 24  1  6  0  0  0
 20 24  1  0  0  0  0
 21 23  1  6  0  0  0
 21 19  1  0  0  0  0
 22  2  1  1  0  0  0
 22 21  1  0  0  0  0
 22 19  1  0  0  0  0
 23 25  1  0  0  0  0
 25 20  1  0  0  0  0
 25 26  1  0  0  0  0
 26 27  1  0  0  0  0
 27 28  1  0  0  0  0
 28 29  1  0  0  0  0
 29 30  1  0  0  0  0
 30 31  1  0  0  0  0
 32 33  1  0  0  0  0
 32 31  1  0  0  0  0
 34 33  1  0  0  0  0
 35 34  1  0  0  0  0
 36  1  1  1  0  0  0
 36 37  1  0  0  0  0
 36 38  1  0  0  0  0
 37 38  1  0  0  0  0
 39 38  1  0  0  0  0
 39 40  1  0  0  0  0
 40 41  1  6  0  0  0
 40 42  1  0  0  0  0
 42 44  1  0  0  0  0
 43 42  2  0  0  0  0
 44 45  1  6  0  0  0
 44 46  1  0  0  0  0
 46 47  1  0  0  0  0
M  END
>  <MODEL>
3

>  <REMARK>
 VINA RESULT:      -6.1      3.112      7.708
  Name = 
  17 active torsions:
  status: ('A' for Active; 'I' for Inactive)
    1  A    between atoms: C_2  and  C_10
    2  A    between atoms: C_2  and  C_13
    3  A    between atoms: C_4  and  C_26
    4  A    between atoms: C_4  and  C_33
    5  A    between atoms: C_9  and  C_17
    6  A    between atoms: C_10  and  C_31
    7  A    between atoms: C_13  and  C_27
    8  A    between atoms: C_17  and  C_34
    9  A    between atoms: C_18  and  C_19
   10  A    between atoms: C_18  and  N_46
   11  A    between atoms: C_19  and  C_27
   12  A    between atoms: C_23  and  O_44
   13  A    between atoms: C_24  and  C_36
   14  A    between atoms: C_26  and  C_36
   15  A    between atoms: N_30  and  C_37
   16  A    between atoms: C_31  and  O_44
   17  A    between atoms: C_33  and  N_40
                            x       y       z     vdW  Elec       q    Type
                         _______ _______ _______ _____ _____    ______ ____

>  <TORSDO>
F 17

$$$$
=
 OpenBabel11042415303D

 47 51  0  0  1  0  0  0  0  0999 V2000
  188.1020  177.0580  142.0070 C   0  0  0  0  0  0  0  0  0  0  0  0
  189.0620  177.4880  142.7840 N   0  0  0  0  0  0  0  0  0  0  0  0
  194.1140  170.2770  140.1950 N   0  0  0  0  0  1  0  0  0  0  0  0
  189.7210  172.0830  140.3600 C   0  0  0  0  0  0  0  0  0  0  0  0
  192.9660  169.6950  139.5180 C   0  0  1  0  0  3  0  0  0  0  0  0
  188.2440  175.3840  140.2830 N   0  0  0  0  0  0  0  0  0  0  0  0
  188.5010  174.0580  139.7960 C   0  0  0  0  0  0  0  0  0  0  0  0
  188.7020  173.3280  142.1800 C   0  0  0  0  0  0  0  0  0  0  0  0
  188.9110  173.0220  140.7500 C   0  0  0  0  0  0  0  0  0  0  0  0
  190.8940  170.0250  140.7760 C   0  0  0  0  0  3  0  0  0  0  0  0
  191.9580  169.3210  140.5250 N   0  0  0  0  0  0  0  0  0  0  0  0
  191.3480  171.4120  138.7320 C   0  0  0  0  0  3  0  0  0  0  0  0
  188.4330  173.8130  138.5560 O   0  0  0  0  0  0  0  0  0  0  0  0
  190.5810  171.1950  139.9590 C   0  0  0  0  0  0  0  0  0  0  0  0
  188.0620  175.6530  141.5500 C   0  0  0  0  0  0  0  0  0  0  0  0
  187.9240  174.5470  142.5660 C   0  0  0  0  0  2  0  0  0  0  0  0
  189.1520  172.5440  143.1510 C   0  0  0  0  0  2  0  0  0  0  0  0
  192.4410  170.6800  138.4950 C   0  0  0  0  0  3  0  0  0  0  0  0
  190.2560  176.6570  144.7570 C   0  0  1  0  0  3  0  0  0  0  0  0
  192.0890  174.8430  144.6520 C   0  0  0  0  0  2  0  0  0  0  0  0
  191.2060  177.5050  143.9100 C   0  0  2  0  0  3  0  0  0  0  0  0
  190.1530  176.6400  143.2510 C   0  0  2  0  0  3  0  0  0  0  0  0
  192.5950  176.9280  143.5640 C   0  0  0  0  0  2  0  0  0  0  0  0
  190.8220  175.3480  145.3260 C   0  0  0  0  0  2  0  0  0  0  0  0
  193.0870  175.8900  144.4880 N   0  0  0  0  0  0  0  0  0  0  0  0
  193.4550  176.4590  145.7850 C   0  0  0  0  0  2  0  0  0  0  0  0
  194.5570  175.6410  146.4140 C   0  0  0  0  0  2  0  0  0  0  0  0
  195.5090  175.1650  145.3390 C   0  0  0  0  0  2  0  0  0  0  0  0
  196.3220  174.0070  145.8670 C   0  0  0  0  0  2  0  0  0  0  0  0
  195.7150  172.6910  145.4050 C   0  0  0  0  0  2  0  0  0  0  0  0
  195.1440  172.7980  143.9960 C   0  0  0  0  0  2  0  0  0  0  0  0
  194.5070  171.4880  143.5630 C   0  0  0  0  0  2  0  0  0  0  0  0
  193.1860  171.7010  143.1700 O   0  0  0  0  0  0  0  0  0  0  0  0
  192.4120  170.9770  144.0750 C   0  0  0  0  0  2  0  0  0  0  0  0
  192.8470  169.5890  144.0780 N   0  0  0  0  0  1  0  0  0  0  0  0
  187.0020  177.9860  141.5990 C   0  0  1  0  0  3  0  0  0  0  0  0
  186.1060  177.3500  140.6350 C   0  0  0  0  0  2  0  0  0  0  0  0
  185.7280  177.4100  142.0430 N   0  0  0  0  0  0  0  0  0  0  0  0
  184.7810  178.5130  142.1860 C   0  0  0  0  0  2  0  0  0  0  0  0
  184.0830  178.4270  143.5350 C   0  0  2  0  0  3  0  0  0  0  0  0
  182.9200  179.1860  143.5440 F   0  0  0  0  0  0  0  0  0  0  0  0
  185.0070  178.8090  144.6510 C   0  0  0  0  0  0  0  0  0  0  0  0
  185.6370  179.8510  144.5760 O   0  0  0  0  0  0  0  0  0  0  0  0
  185.2320  177.8760  145.8100 C   0  0  1  0  0  3  0  0  0  0  0  0
  186.4840  177.0470  145.5950 C   0  0  0  0  0  1  0  0  0  0  0  0
  185.3100  178.6230  147.1480 C   0  0  0  0  0  2  0  0  0  0  0  0
  186.5530  178.4150  147.7580 O   0  0  0  0  0  1  0  0  0  0  0  0
  1  2  2  0  0  0  0
  4  9  2  0  0  0  0
  5  3  1  1  0  0  0
  5 11  1  0  0  0  0
  6 15  2  0  0  0  0
  7  6  1  0  0  0  0
  7  9  1  0  0  0  0
  8 16  1  0  0  0  0
  8 17  2  0  0  0  0
  9  8  1  0  0  0  0
 11 10  2  0  0  0  0
 12 14  1  0  0  0  0
 13  7  2  0  0  0  0
 14  4  2  0  0  0  0
 14 10  1  0  0  0  0
 15  1  1  0  0  0  0
 15 16  1  0  0  0  0
 18 12  2  0  0  0  0
 18  5  1  0  0  0  0
 19 24  1  6  0  0  0
 20 24  1  0  0  0  0
 21 23  1  6  0  0  0
 21 19  1  0  0  0  0
 22  2  1  1  0  0  0
 22 21  1  0  0  0  0
 22 19  1  0  0  0  0
 23 25  1  0  0  0  0
 25 20  1  0  0  0  0
 25 26  1  0  0  0  0
 26 27  1  0  0  0  0
 28 29  1  0  0  0  0
 28 27  1  0  0  0  0
 30 29  1  0  0  0  0
 31 30  1  0  0  0  0
 32 31  1  0  0  0  0
 33 32  1  0  0  0  0
 33 34  1  0  0  0  0
 34 35  1  0  0  0  0
 36  1  1  1  0  0  0
 36 38  1  0  0  0  0
 37 36  1  0  0  0  0
 37 38  1  0  0  0  0
 38 39  1  0  0  0  0
 39 40  1  0  0  0  0
 40 41  1  6  0  0  0
 40 42  1  0  0  0  0
 42 44  1  0  0  0  0
 43 42  2  0  0  0  0
 44 45  1  6  0  0  0
 44 46  1  0  0  0  0
 46 47  1  0  0  0  0
M  END
>  <MODEL>
4

>  <REMARK>
 VINA RESULT:      -6.1      3.108      8.157
  Name = 
  17 active torsions:
  status: ('A' for Active; 'I' for Inactive)
    1  A    between atoms: C_2  and  C_10
    2  A    between atoms: C_2  and  C_13
    3  A    between atoms: C_4  and  C_26
    4  A    between atoms: C_4  and  C_33
    5  A    between atoms: C_9  and  C_17
    6  A    between atoms: C_10  and  C_31
    7  A    between atoms: C_13  and  C_27
    8  A    between atoms: C_17  and  C_34
    9  A    between atoms: C_18  and  C_19
   10  A    between atoms: C_18  and  N_46
   11  A    between atoms: C_19  and  C_27
   12  A    between atoms: C_23  and  O_44
   13  A    between atoms: C_24  and  C_36
   14  A    between atoms: C_26  and  C_36
   15  A    between atoms: N_30  and  C_37
   16  A    between atoms: C_31  and  O_44
   17  A    between atoms: C_33  and  N_40
                            x       y       z     vdW  Elec       q    Type
                         _______ _______ _______ _____ _____    ______ ____

>  <TORSDO>
F 17

$$$$
=
 OpenBabel11042415303D

 47 51  0  0  1  0  0  0  0  0999 V2000
  190.0850  175.8990  146.2260 C   0  0  0  0  0  0  0  0  0  0  0  0
  191.3550  176.1900  146.3320 N   0  0  0  0  0  0  0  0  0  0  0  0
  193.3280  172.0060  138.4970 N   0  0  0  0  0  1  0  0  0  0  0  0
  189.8810  172.8820  141.6500 C   0  0  0  0  0  0  0  0  0  0  0  0
  191.9160  171.7580  138.2530 C   0  0  1  0  0  3  0  0  0  0  0  0
  189.1330  175.4780  144.0560 N   0  0  0  0  0  0  0  0  0  0  0  0
  188.9040  174.6790  142.8850 C   0  0  0  0  0  0  0  0  0  0  0  0
  190.0360  172.7910  144.0730 C   0  0  0  0  0  0  0  0  0  0  0  0
  189.5150  173.3480  142.8070 C   0  0  0  0  0  0  0  0  0  0  0  0
  190.7350  171.0920  140.2900 C   0  0  0  0  0  3  0  0  0  0  0  0
  191.4280  170.7750  139.2360 N   0  0  0  0  0  0  0  0  0  0  0  0
  190.4450  173.4150  139.3820 C   0  0  0  0  0  3  0  0  0  0  0  0
  188.2380  175.1490  141.9160 O   0  0  0  0  0  0  0  0  0  0  0  0
  190.2950  172.4700  140.4890 C   0  0  0  0  0  0  0  0  0  0  0  0
  189.5970  174.9830  145.1730 C   0  0  0  0  0  0  0  0  0  0  0  0
  189.7450  173.4940  145.3610 C   0  0  0  0  0  2  0  0  0  0  0  0
  190.7330  171.6630  144.1230 C   0  0  0  0  0  2  0  0  0  0  0  0
  191.1640  173.0710  138.3090 C   0  0  0  0  0  3  0  0  0  0  0  0
  193.1450  174.5310  146.0970 C   0  0  1  0  0  3  0  0  0  0  0  0
  194.3930  174.0870  143.8820 C   0  0  0  0  0  2  0  0  0  0  0  0
  193.7440  175.9360  146.0210 C   0  0  2  0  0  3  0  0  0  0  0  0
  192.3760  175.6510  145.4400 C   0  0  2  0  0  3  0  0  0  0  0  0
  194.7070  176.2630  144.8600 C   0  0  0  0  0  2  0  0  0  0  0  0
  193.6720  173.5020  145.0870 C   0  0  0  0  0  2  0  0  0  0  0  0
  195.3740  175.0950  144.2570 N   0  0  0  0  0  0  0  0  0  0  0  0
  196.3780  174.5270  145.1580 C   0  0  0  0  0  2  0  0  0  0  0  0
  197.5690  174.0430  144.3670 C   0  0  0  0  0  2  0  0  0  0  0  0
  197.5170  172.5360  144.2470 C   0  0  0  0  0  2  0  0  0  0  0  0
  197.0670  171.9440  145.5610 C   0  0  0  0  0  2  0  0  0  0  0  0
  197.5470  170.5050  145.6760 C   0  0  0  0  0  2  0  0  0  0  0  0
  196.5730  169.6480  146.4740 C   0  0  0  0  0  2  0  0  0  0  0  0
  195.5990  168.9260  145.5570 C   0  0  0  0  0  2  0  0  0  0  0  0
  194.4150  168.6450  146.2370 O   0  0  0  0  0  0  0  0  0  0  0  0
  193.4510  168.4850  145.2440 C   0  0  0  0  0  2  0  0  0  0  0  0
  193.6020  169.5380  144.2510 N   0  0  0  0  0  1  0  0  0  0  0  0
  189.1060  176.4710  147.2030 C   0  0  1  0  0  3  0  0  0  0  0  0
  189.3940  177.8780  147.4740 C   0  0  0  0  0  2  0  0  0  0  0  0
  188.3440  177.5250  146.5240 N   0  0  0  0  0  0  0  0  0  0  0  0
  187.0700  177.6560  147.2250 C   0  0  0  0  0  2  0  0  0  0  0  0
  186.1780  178.6520  146.4990 C   0  0  2  0  0  3  0  0  0  0  0  0
  185.4260  179.3960  147.4000 F   0  0  0  0  0  0  0  0  0  0  0  0
  185.3160  177.9700  145.4810 C   0  0  0  0  0  0  0  0  0  0  0  0
  185.2050  176.7550  145.5100 O   0  0  0  0  0  0  0  0  0  0  0  0
  184.6670  178.7590  144.3770 C   0  0  1  0  0  3  0  0  0  0  0  0
  185.4800  179.9980  144.0550 C   0  0  0  0  0  1  0  0  0  0  0  0
  184.4520  177.9170  143.1120 C   0  0  0  0  0  2  0  0  0  0  0  0
  183.2830  178.3100  142.4500 O   0  0  0  0  0  1  0  0  0  0  0  0
  1  2  2  0  0  0  0
  4  9  2  0  0  0  0
  5 18  1  0  0  0  0
  5  3  1  1  0  0  0
  5 11  1  0  0  0  0
  6 15  2  0  0  0  0
  7  6  1  0  0  0  0
  8 17  2  0  0  0  0
  8 16  1  0  0  0  0
  9  7  1  0  0  0  0
  9  8  1  0  0  0  0
 10 14  1  0  0  0  0
 11 10  2  0  0  0  0
 12 14  1  0  0  0  0
 13  7  2  0  0  0  0
 14  4  2  0  0  0  0
 15 16  1  0  0  0  0
 15  1  1  0  0  0  0
 18 12  2  0  0  0  0
 19 24  1  6  0  0  0
 20 25  1  0  0  0  0
 20 24  1  0  0  0  0
 21 23  1  6  0  0  0
 21 19  1  0  0  0  0
 22 21  1  0  0  0  0
 22 19  1  0  0  0  0
 22  2  1  1  0  0  0
 25 23  1  0  0  0  0
 25 26  1  0  0  0  0
 27 26  1  0  0  0  0
 28 27  1  0  0  0  0
 28 29  1  0  0  0  0
 29 30  1  0  0  0  0
 30 31  1  0  0  0  0
 32 33  1  0  0  0  0
 32 31  1  0  0  0  0
 34 33  1  0  0  0  0
 35 34  1  0  0  0  0
 36  1  1  6  0  0  0
 36 37  1  0  0  0  0
 38 36  1  0  0  0  0
 38 39  1  0  0  0  0
 38 37  1  0  0  0  0
 40 39  1  0  0  0  0
 40 41  1  1  0  0  0
 42 43  2  0  0  0  0
 42 40  1  0  0  0  0
 44 45  1  6  0  0  0
 44 42  1  0  0  0  0
 46 44  1  0  0  0  0
 47 46  1  0  0  0  0
M  END
>  <MODEL>
5

>  <REMARK>
 VINA RESULT:      -6.0      3.381      9.428
  Name = 
  17 active torsions:
  status: ('A' for Active; 'I' for Inactive)
    1  A    between atoms: C_2  and  C_10
    2  A    between atoms: C_2  and  C_13
    3  A    between atoms: C_4  and  C_26
    4  A    between atoms: C_4  and  C_33
    5  A    between atoms: C_9  and  C_17
    6  A    between atoms: C_10  and  C_31
    7  A    between atoms: C_13  and  C_27
    8  A    between atoms: C_17  and  C_34
    9  A    between atoms: C_18  and  C_19
   10  A    between atoms: C_18  and  N_46
   11  A    between atoms: C_19  and  C_27
   12  A    between atoms: C_23  and  O_44
   13  A    between atoms: C_24  and  C_36
   14  A    between atoms: C_26  and  C_36
   15  A    between atoms: N_30  and  C_37
   16  A    between atoms: C_31  and  O_44
   17  A    between atoms: C_33  and  N_40
                            x       y       z     vdW  Elec       q    Type
                         _______ _______ _______ _____ _____    ______ ____

>  <TORSDO>
F 17

$$$$
=
 OpenBabel11042415303D

 47 51  0  0  1  0  0  0  0  0999 V2000
  189.9310  175.8030  142.5020 C   0  0  0  0  0  0  0  0  0  0  0  0
  191.2250  175.9620  142.6110 N   0  0  0  0  0  0  0  0  0  0  0  0
  192.6850  169.7170  136.1160 N   0  0  0  0  0  1  0  0  0  0  0  0
  189.4130  171.6260  138.9850 C   0  0  0  0  0  0  0  0  0  0  0  0
  191.2560  169.4830  135.9940 C   0  0  1  0  0  3  0  0  0  0  0  0
  188.8720  174.8330  140.5700 N   0  0  0  0  0  0  0  0  0  0  0  0
  188.5630  173.7470  139.6830 C   0  0  0  0  0  0  0  0  0  0  0  0
  189.6650  172.2180  141.3280 C   0  0  0  0  0  0  0  0  0  0  0  0
  189.1150  172.4190  139.9710 C   0  0  0  0  0  0  0  0  0  0  0  0
  190.1360  169.4830  138.1680 C   0  0  0  0  0  3  0  0  0  0  0  0
  190.7700  168.8440  137.2300 N   0  0  0  0  0  0  0  0  0  0  0  0
  189.9020  171.4650  136.6440 C   0  0  0  0  0  3  0  0  0  0  0  0
  187.8760  173.9560  138.6400 O   0  0  0  0  0  0  0  0  0  0  0  0
  189.7610  170.8820  137.9780 C   0  0  0  0  0  0  0  0  0  0  0  0
  189.3630  174.6520  141.7690 C   0  0  0  0  0  0  0  0  0  0  0  0
  189.4580  173.2720  142.3700 C   0  0  0  0  0  2  0  0  0  0  0  0
  190.3170  171.1170  141.6770 C   0  0  0  0  0  2  0  0  0  0  0  0
  190.5610  170.7940  135.6940 C   0  0  0  0  0  3  0  0  0  0  0  0
  192.9280  174.2670  143.0990 C   0  0  1  0  0  3  0  0  0  0  0  0
  194.0940  172.8570  141.2790 C   0  0  0  0  0  2  0  0  0  0  0  0
  193.5900  175.4730  142.4280 C   0  0  2  0  0  3  0  0  0  0  0  0
  192.1950  175.0410  142.0290 C   0  0  2  0  0  3  0  0  0  0  0  0
  194.5360  175.2220  141.2350 C   0  0  0  0  0  2  0  0  0  0  0  0
  193.3790  172.8800  142.6220 C   0  0  0  0  0  2  0  0  0  0  0  0
  195.1320  173.8740  141.1850 N   0  0  0  0  0  0  0  0  0  0  0  0
  196.1310  173.6910  142.2380 C   0  0  0  0  0  2  0  0  0  0  0  0
  196.9580  174.9450  142.3910 C   0  0  0  0  0  2  0  0  0  0  0  0
  197.0840  175.2890  143.8590 C   0  0  0  0  0  2  0  0  0  0  0  0
  196.3780  174.2390  144.6830 C   0  0  0  0  0  2  0  0  0  0  0  0
  195.5170  174.9030  145.7460 C   0  0  0  0  0  2  0  0  0  0  0  0
  195.1440  176.3290  145.3600 C   0  0  0  0  0  2  0  0  0  0  0  0
  194.1550  176.9240  146.3480 C   0  0  0  0  0  2  0  0  0  0  0  0
  193.4070  175.9130  146.9500 O   0  0  0  0  0  0  0  0  0  0  0  0
  192.0830  176.1860  146.6150 C   0  0  0  0  0  2  0  0  0  0  0  0
  191.4270  174.9530  146.2030 N   0  0  0  0  0  1  0  0  0  0  0  0
  189.0030  176.7790  143.1560 C   0  0  1  0  0  3  0  0  0  0  0  0
  187.7530  176.1320  143.5520 C   0  0  0  0  0  2  0  0  0  0  0  0
  188.7990  176.3540  144.5450 N   0  0  0  0  0  0  0  0  0  0  0  0
  188.4200  177.5400  145.3080 C   0  0  0  0  0  2  0  0  0  0  0  0
  187.7820  177.1280  146.6260 C   0  0  2  0  0  3  0  0  0  0  0  0
  187.5270  175.7630  146.6510 F   0  0  0  0  0  0  0  0  0  0  0  0
  186.5500  177.9320  146.9090 C   0  0  0  0  0  0  0  0  0  0  0  0
  186.3800  178.3930  148.0260 O   0  0  0  0  0  0  0  0  0  0  0  0
  185.4850  178.0930  145.8590 C   0  0  1  0  0  3  0  0  0  0  0  0
  184.1040  177.9840  146.4750 C   0  0  0  0  0  1  0  0  0  0  0  0
  185.6240  179.4150  145.0910 C   0  0  0  0  0  2  0  0  0  0  0  0
  184.8680  179.3830  143.9140 O   0  0  0  0  0  1  0  0  0  0  0  0
  1  2  2  0  0  0  0
  4  9  2  0  0  0  0
  5  3  1  1  0  0  0
  5 11  1  0  0  0  0
  6 15  2  0  0  0  0
  7  9  1  0  0  0  0
  7  6  1  0  0  0  0
  8 17  2  0  0  0  0
  8 16  1  0  0  0  0
  9  8  1  0  0  0  0
 11 10  2  0  0  0  0
 12 14  1  0  0  0  0
 13  7  2  0  0  0  0
 14 10  1  0  0  0  0
 14  4  2  0  0  0  0
 15 16  1  0  0  0  0
 15  1  1  0  0  0  0
 18  5  1  0  0  0  0
 18 12  2  0  0  0  0
 19 24  1  6  0  0  0
 20 24  1  0  0  0  0
 21 23  1  6  0  0  0
 21 19  1  0  0  0  0
 22 21  1  0  0  0  0
 22  2  1  1  0  0  0
 22 19  1  0  0  0  0
 25 23  1  0  0  0  0
 25 20  1  0  0  0  0
 25 26  1  0  0  0  0
 26 27  1  0  0  0  0
 27 28  1  0  0  0  0
 28 29  1  0  0  0  0
 29 30  1  0  0  0  0
 31 30  1  0  0  0  0
 31 32  1  0  0  0  0
 32 33  1  0  0  0  0
 34 33  1  0  0  0  0
 35 34  1  0  0  0  0
 36  1  1  6  0  0  0
 36 37  1  0  0  0  0
 36 38  1  0  0  0  0
 37 38  1  0  0  0  0
 38 39  1  0  0  0  0
 39 40  1  0  0  0  0
 40 41  1  6  0  0  0
 40 42  1  0  0  0  0
 42 43  2  0  0  0  0
 44 45  1  1  0  0  0
 44 42  1  0  0  0  0
 46 44  1  0  0  0  0
 47 46  1  0  0  0  0
M  END
>  <MODEL>
6

>  <REMARK>
 VINA RESULT:      -6.0      3.202      8.781
  Name = 
  17 active torsions:
  status: ('A' for Active; 'I' for Inactive)
    1  A    between atoms: C_2  and  C_10
    2  A    between atoms: C_2  and  C_13
    3  A    between atoms: C_4  and  C_26
    4  A    between atoms: C_4  and  C_33
    5  A    between atoms: C_9  and  C_17
    6  A    between atoms: C_10  and  C_31
    7  A    between atoms: C_13  and  C_27
    8  A    between atoms: C_17  and  C_34
    9  A    between atoms: C_18  and  C_19
   10  A    between atoms: C_18  and  N_46
   11  A    between atoms: C_19  and  C_27
   12  A    between atoms: C_23  and  O_44
   13  A    between atoms: C_24  and  C_36
   14  A    between atoms: C_26  and  C_36
   15  A    between atoms: N_30  and  C_37
   16  A    between atoms: C_31  and  O_44
   17  A    between atoms: C_33  and  N_40
                            x       y       z     vdW  Elec       q    Type
                         _______ _______ _______ _____ _____    ______ ____

>  <TORSDO>
F 17

$$$$
=
 OpenBabel11042415303D

 47 51  0  0  1  0  0  0  0  0999 V2000
  189.4820  175.5410  145.8890 C   0  0  0  0  0  0  0  0  0  0  0  0
  190.6150  175.9230  146.4190 N   0  0  0  0  0  0  0  0  0  0  0  0
  195.1300  172.6730  139.1600 N   0  0  0  0  0  1  0  0  0  0  0  0
  190.9580  172.6990  141.4370 C   0  0  0  0  0  0  0  0  0  0  0  0
  193.8950  172.1410  138.6070 C   0  0  1  0  0  3  0  0  0  0  0  0
  189.1540  174.9990  143.5670 N   0  0  0  0  0  0  0  0  0  0  0  0
  189.3700  174.2090  142.3890 C   0  0  0  0  0  0  0  0  0  0  0  0
  190.5810  172.5640  143.8330 C   0  0  0  0  0  0  0  0  0  0  0  0
  190.2510  173.0400  142.4730 C   0  0  0  0  0  0  0  0  0  0  0  0
  192.4570  171.1750  140.3340 C   0  0  0  0  0  3  0  0  0  0  0  0
  193.4200  171.0450  139.4700 N   0  0  0  0  0  0  0  0  0  0  0  0
  191.8900  173.4130  139.3460 C   0  0  0  0  0  3  0  0  0  0  0  0
  188.8540  174.5580  141.2860 O   0  0  0  0  0  0  0  0  0  0  0  0
  191.7000  172.4220  140.4060 C   0  0  0  0  0  0  0  0  0  0  0  0
  189.4500  174.5780  144.7690 C   0  0  0  0  0  0  0  0  0  0  0  0
  189.8650  173.1480  145.0100 C   0  0  0  0  0  2  0  0  0  0  0  0
  191.4720  171.6080  144.0570 C   0  0  0  0  0  2  0  0  0  0  0  0
  192.8880  173.2630  138.4700 C   0  0  0  0  0  3  0  0  0  0  0  0
  193.0140  176.4200  146.3070 C   0  0  1  0  0  3  0  0  0  0  0  0
  194.7740  174.7500  145.4270 C   0  0  0  0  0  2  0  0  0  0  0  0
  192.4370  176.3850  144.8910 C   0  0  2  0  0  3  0  0  0  0  0  0
  191.9140  175.4460  145.9570 C   0  0  2  0  0  3  0  0  0  0  0  0
  193.1680  175.5470  143.8210 C   0  0  0  0  0  2  0  0  0  0  0  0
  194.3690  175.7310  146.5170 C   0  0  0  0  0  2  0  0  0  0  0  0
  194.5960  175.3010  144.0900 N   0  0  0  0  0  0  0  0  0  0  0  0
  195.3900  176.5200  143.9250 C   0  0  0  0  0  2  0  0  0  0  0  0
  196.7680  176.1750  143.4140 C   0  0  0  0  0  2  0  0  0  0  0  0
  196.6550  175.1280  142.3280 C   0  0  0  0  0  2  0  0  0  0  0  0
  197.8300  174.1840  142.4190 C   0  0  0  0  0  2  0  0  0  0  0  0
  197.3730  172.7560  142.1570 C   0  0  0  0  0  2  0  0  0  0  0  0
  196.7500  172.1270  143.3970 C   0  0  0  0  0  2  0  0  0  0  0  0
  197.7550  172.0480  144.5340 C   0  0  0  0  0  2  0  0  0  0  0  0
  197.0940  172.0060  145.7600 O   0  0  0  0  0  0  0  0  0  0  0  0
  196.3330  170.8390  145.7280 C   0  0  0  0  0  2  0  0  0  0  0  0
  197.1370  169.7270  146.2110 N   0  0  0  0  0  1  0  0  0  0  0  0
  188.1910  176.0560  146.4440 C   0  0  1  0  0  3  0  0  0  0  0  0
  188.3270  177.4390  146.8960 C   0  0  0  0  0  2  0  0  0  0  0  0
  187.7350  177.1600  145.5920 N   0  0  0  0  0  0  0  0  0  0  0  0
  186.2860  177.2560  145.7490 C   0  0  0  0  0  2  0  0  0  0  0  0
  185.6940  178.0730  144.6100 C   0  0  2  0  0  3  0  0  0  0  0  0
  184.3290  178.2610  144.7890 F   0  0  0  0  0  0  0  0  0  0  0  0
  186.0030  177.4560  143.2800 C   0  0  0  0  0  0  0  0  0  0  0  0
  185.9420  176.2450  143.1540 O   0  0  0  0  0  0  0  0  0  0  0  0
  186.4740  178.3090  142.1340 C   0  0  1  0  0  3  0  0  0  0  0  0
  187.8740  177.9090  141.7100 C   0  0  0  0  0  1  0  0  0  0  0  0
  185.5160  178.2500  140.9360 C   0  0  0  0  0  2  0  0  0  0  0  0
  184.1860  178.3180  141.3650 O   0  0  0  0  0  1  0  0  0  0  0  0
  1  2  2  0  0  0  0
  4  9  2  0  0  0  0
  5  3  1  1  0  0  0
  5 11  1  0  0  0  0
  6 15  2  0  0  0  0
  7  9  1  0  0  0  0
  7  6  1  0  0  0  0
  8 17  2  0  0  0  0
  8 16  1  0  0  0  0
  9  8  1  0  0  0  0
 10 14  1  0  0  0  0
 11 10  2  0  0  0  0
 12 14  1  0  0  0  0
 13  7  2  0  0  0  0
 14  4  2  0  0  0  0
 15 16  1  0  0  0  0
 15  1  1  0  0  0  0
 18  5  1  0  0  0  0
 18 12  2  0  0  0  0
 19 24  1  6  0  0  0
 20 24  1  0  0  0  0
 21 23  1  6  0  0  0
 21 22  1  0  0  0  0
 21 19  1  0  0  0  0
 22 19  1  0  0  0  0
 22  2  1  1  0  0  0
 23 25  1  0  0  0  0
 25 20  1  0  0  0  0
 26 25  1  0  0  0  0
 27 26  1  0  0  0  0
 28 29  1  0  0  0  0
 28 27  1  0  0  0  0
 30 29  1  0  0  0  0
 30 31  1  0  0  0  0
 31 32  1  0  0  0  0
 32 33  1  0  0  0  0
 34 33  1  0  0  0  0
 34 35  1  0  0  0  0
 36  1  1  6  0  0  0
 36 37  1  0  0  0  0
 38 39  1  0  0  0  0
 38 36  1  0  0  0  0
 38 37  1  0  0  0  0
 40 41  1  1  0  0  0
 40 39  1  0  0  0  0
 42 40  1  0  0  0  0
 43 42  2  0  0  0  0
 44 45  1  6  0  0  0
 44 42  1  0  0  0  0
 46 47  1  0  0  0  0
 46 44  1  0  0  0  0
M  END
>  <MODEL>
7

>  <REMARK>
 VINA RESULT:      -5.9      3.284      8.675
  Name = 
  17 active torsions:
  status: ('A' for Active; 'I' for Inactive)
    1  A    between atoms: C_2  and  C_10
    2  A    between atoms: C_2  and  C_13
    3  A    between atoms: C_4  and  C_26
    4  A    between atoms: C_4  and  C_33
    5  A    between atoms: C_9  and  C_17
    6  A    between atoms: C_10  and  C_31
    7  A    between atoms: C_13  and  C_27
    8  A    between atoms: C_17  and  C_34
    9  A    between atoms: C_18  and  C_19
   10  A    between atoms: C_18  and  N_46
   11  A    between atoms: C_19  and  C_27
   12  A    between atoms: C_23  and  O_44
   13  A    between atoms: C_24  and  C_36
   14  A    between atoms: C_26  and  C_36
   15  A    between atoms: N_30  and  C_37
   16  A    between atoms: C_31  and  O_44
   17  A    between atoms: C_33  and  N_40
                            x       y       z     vdW  Elec       q    Type
                         _______ _______ _______ _____ _____    ______ ____

>  <TORSDO>
F 17

$$$$
=
 OpenBabel11042415303D

 47 51  0  0  1  0  0  0  0  0999 V2000
  192.1610  175.0440  143.4900 C   0  0  0  0  0  0  0  0  0  0  0  0
  191.7260  175.8670  144.4100 N   0  0  0  0  0  0  0  0  0  0  0  0
  192.3440  169.4660  136.1240 N   0  0  0  0  0  1  0  0  0  0  0  0
  190.1310  171.5590  139.7720 C   0  0  0  0  0  0  0  0  0  0  0  0
  190.8990  169.5290  136.2760 C   0  0  1  0  0  3  0  0  0  0  0  0
  190.5870  174.5650  141.7330 N   0  0  0  0  0  0  0  0  0  0  0  0
  189.8970  173.6900  140.8290 C   0  0  0  0  0  0  0  0  0  0  0  0
  190.9250  171.7690  142.0590 C   0  0  0  0  0  0  0  0  0  0  0  0
  190.1940  172.2540  140.8690 C   0  0  0  0  0  0  0  0  0  0  0  0
  190.2180  169.4490  138.6230 C   0  0  0  0  0  3  0  0  0  0  0  0
  190.5200  168.8340  137.5180 N   0  0  0  0  0  0  0  0  0  0  0  0
  190.1430  171.6270  137.3760 C   0  0  0  0  0  3  0  0  0  0  0  0
  189.0940  174.1660  139.9730 O   0  0  0  0  0  0  0  0  0  0  0  0
  190.1230  170.9060  138.6490 C   0  0  0  0  0  0  0  0  0  0  0  0
  191.2360  174.1340  142.7830 C   0  0  0  0  0  0  0  0  0  0  0  0
  191.1400  172.6920  143.2170 C   0  0  0  0  0  2  0  0  0  0  0  0
  191.3780  170.5270  142.1610 C   0  0  0  0  0  2  0  0  0  0  0  0
  190.4600  170.9770  136.2520 C   0  0  0  0  0  3  0  0  0  0  0  0
  189.8610  177.3850  144.8840 C   0  0  1  0  0  3  0  0  0  0  0  0
  187.4520  176.5800  145.3450 C   0  0  0  0  0  2  0  0  0  0  0  0
  190.2360  176.6290  146.1610 C   0  0  2  0  0  3  0  0  0  0  0  0
  190.3260  175.9500  144.8110 C   0  0  2  0  0  3  0  0  0  0  0  0
  189.1110  175.9520  146.9710 C   0  0  0  0  0  2  0  0  0  0  0  0
  188.3620  177.5370  144.5890 C   0  0  0  0  0  2  0  0  0  0  0  0
  187.7670  176.5200  146.7660 N   0  0  0  0  0  0  0  0  0  0  0  0
  187.6450  177.8450  147.3770 C   0  0  0  0  0  2  0  0  0  0  0  0
  186.2800  178.0040  148.0000 C   0  0  0  0  0  2  0  0  0  0  0  0
  185.4780  179.0120  147.2060 C   0  0  0  0  0  2  0  0  0  0  0  0
  184.3840  178.2970  146.4490 C   0  0  0  0  0  2  0  0  0  0  0  0
  184.0720  179.0410  145.1600 C   0  0  0  0  0  2  0  0  0  0  0  0
  185.3360  179.3520  144.3680 C   0  0  0  0  0  2  0  0  0  0  0  0
  185.1550  179.0270  142.8950 C   0  0  0  0  0  2  0  0  0  0  0  0
  185.3030  177.6570  142.6820 O   0  0  0  0  0  0  0  0  0  0  0  0
  185.9580  177.5440  141.4570 C   0  0  0  0  0  2  0  0  0  0  0  0
  187.0230  176.5590  141.5700 N   0  0  0  0  0  1  0  0  0  0  0  0
  193.6100  175.0430  143.1170 C   0  0  1  0  0  3  0  0  0  0  0  0
  194.4280  175.6250  144.1800 C   0  0  0  0  0  2  0  0  0  0  0  0
  194.3240  174.1750  144.0580 N   0  0  0  0  0  0  0  0  0  0  0  0
  195.5360  173.7140  143.3860 C   0  0  0  0  0  2  0  0  0  0  0  0
  195.6060  172.1940  143.4250 C   0  0  2  0  0  3  0  0  0  0  0  0
  194.3440  171.6340  143.2710 F   0  0  0  0  0  0  0  0  0  0  0  0
  196.2820  171.7130  144.6720 C   0  0  0  0  0  0  0  0  0  0  0  0
  197.0640  172.4480  145.2510 O   0  0  0  0  0  0  0  0  0  0  0  0
  196.0730  170.3040  145.1590 C   0  0  1  0  0  3  0  0  0  0  0  0
  197.3390  169.7670  145.8000 C   0  0  0  0  0  1  0  0  0  0  0  0
  194.8940  170.1970  146.1350 C   0  0  0  0  0  2  0  0  0  0  0  0
  194.7020  168.8690  146.5330 O   0  0  0  0  0  1  0  0  0  0  0  0
  1  2  2  0  0  0  0
  4  9  2  0  0  0  0
  5  3  1  1  0  0  0
  5 11  1  0  0  0  0
  6 15  2  0  0  0  0
  7  9  1  0  0  0  0
  7  6  1  0  0  0  0
  8 17  2  0  0  0  0
  8 16  1  0  0  0  0
  9  8  1  0  0  0  0
 10 14  1  0  0  0  0
 11 10  2  0  0  0  0
 12 14  1  0  0  0  0
 13  7  2  0  0  0  0
 14  4  2  0  0  0  0
 15 16  1  0  0  0  0
 15  1  1  0  0  0  0
 18  5  1  0  0  0  0
 18 12  2  0  0  0  0
 19 24  1  1  0  0  0
 19 21  1  0  0  0  0
 20 25  1  0  0  0  0
 21 23  1  1  0  0  0
 22  2  1  6  0  0  0
 22 19  1  0  0  0  0
 22 21  1  0  0  0  0
 24 20  1  0  0  0  0
 25 23  1  0  0  0  0
 25 26  1  0  0  0  0
 26 27  1  0  0  0  0
 28 27  1  0  0  0  0
 29 28  1  0  0  0  0
 30 29  1  0  0  0  0
 31 30  1  0  0  0  0
 32 31  1  0  0  0  0
 33 32  1  0  0  0  0
 34 35  1  0  0  0  0
 34 33  1  0  0  0  0
 36  1  1  1  0  0  0
 36 38  1  0  0  0  0
 36 37  1  0  0  0  0
 38 37  1  0  0  0  0
 39 40  1  0  0  0  0
 39 38  1  0  0  0  0
 40 41  1  1  0  0  0
 40 42  1  0  0  0  0
 42 44  1  0  0  0  0
 42 43  2  0  0  0  0
 44 45  1  1  0  0  0
 44 46  1  0  0  0  0
 46 47  1  0  0  0  0
M  END
>  <MODEL>
8

>  <REMARK>
 VINA RESULT:      -5.8      2.673      6.060
  Name = 
  17 active torsions:
  status: ('A' for Active; 'I' for Inactive)
    1  A    between atoms: C_2  and  C_10
    2  A    between atoms: C_2  and  C_13
    3  A    between atoms: C_4  and  C_26
    4  A    between atoms: C_4  and  C_33
    5  A    between atoms: C_9  and  C_17
    6  A    between atoms: C_10  and  C_31
    7  A    between atoms: C_13  and  C_27
    8  A    between atoms: C_17  and  C_34
    9  A    between atoms: C_18  and  C_19
   10  A    between atoms: C_18  and  N_46
   11  A    between atoms: C_19  and  C_27
   12  A    between atoms: C_23  and  O_44
   13  A    between atoms: C_24  and  C_36
   14  A    between atoms: C_26  and  C_36
   15  A    between atoms: N_30  and  C_37
   16  A    between atoms: C_31  and  O_44
   17  A    between atoms: C_33  and  N_40
                            x       y       z     vdW  Elec       q    Type
                         _______ _______ _______ _____ _____    ______ ____

>  <TORSDO>
F 17

$$$$
=
 OpenBabel11042415303D

 47 51  0  0  1  0  0  0  0  0999 V2000
  188.1110  176.2750  141.7760 C   0  0  0  0  0  0  0  0  0  0  0  0
  188.0610  175.3330  140.8690 N   0  0  0  0  0  0  0  0  0  0  0  0
  196.4880  173.0940  144.0390 N   0  0  0  0  0  1  0  0  0  0  0  0
  192.2300  174.9030  145.1280 C   0  0  0  0  0  0  0  0  0  0  0  0
  195.9220  173.1020  145.3790 C   0  0  1  0  0  3  0  0  0  0  0  0
  188.9460  174.9610  143.6120 N   0  0  0  0  0  0  0  0  0  0  0  0
  189.9100  174.6310  144.6230 C   0  0  0  0  0  0  0  0  0  0  0  0
  191.0940  176.7600  144.0500 C   0  0  0  0  0  0  0  0  0  0  0  0
  191.1180  175.4550  144.7440 C   0  0  0  0  0  0  0  0  0  0  0  0
  194.5380  175.0780  145.7790 C   0  0  0  0  0  3  0  0  0  0  0  0
  195.7020  174.4980  145.7950 N   0  0  0  0  0  0  0  0  0  0  0  0
  193.4480  172.8530  145.3740 C   0  0  0  0  0  3  0  0  0  0  0  0
  189.7440  173.6080  145.3500 O   0  0  0  0  0  0  0  0  0  0  0  0
  193.3410  174.3100  145.4520 C   0  0  0  0  0  0  0  0  0  0  0  0
  188.9290  176.1150  142.9970 C   0  0  0  0  0  0  0  0  0  0  0  0
  189.8140  177.2500  143.4490 C   0  0  0  0  0  2  0  0  0  0  0  0
  192.1620  177.5410  143.9620 C   0  0  0  0  0  2  0  0  0  0  0  0
  194.6540  172.2760  145.3870 C   0  0  0  0  0  3  0  0  0  0  0  0
  190.2320  174.2320  140.5760 C   0  0  1  0  0  3  0  0  0  0  0  0
  190.7060  171.8030  141.3090 C   0  0  0  0  0  2  0  0  0  0  0  0
  189.2190  173.6210  139.6060 C   0  0  2  0  0  3  0  0  0  0  0  0
  188.7870  174.0730  140.9850 C   0  0  2  0  0  3  0  0  0  0  0  0
  189.1000  172.0840  139.5380 C   0  0  0  0  0  2  0  0  0  0  0  0
  191.1630  173.2540  141.3050 C   0  0  0  0  0  2  0  0  0  0  0  0
  190.2950  171.3470  139.9880 N   0  0  0  0  0  0  0  0  0  0  0  0
  191.3950  171.4760  139.0320 C   0  0  0  0  0  2  0  0  0  0  0  0
  190.8540  171.5280  137.6240 C   0  0  0  0  0  2  0  0  0  0  0  0
  191.9090  172.0940  136.6990 C   0  0  0  0  0  2  0  0  0  0  0  0
  191.6290  173.5580  136.4570 C   0  0  0  0  0  2  0  0  0  0  0  0
  190.1310  173.7850  136.3100 C   0  0  0  0  0  2  0  0  0  0  0  0
  189.7100  173.8370  134.8470 C   0  0  0  0  0  2  0  0  0  0  0  0
  188.8700  175.0710  134.5620 C   0  0  0  0  0  2  0  0  0  0  0  0
  187.9660  175.2890  135.6000 O   0  0  0  0  0  0  0  0  0  0  0  0
  187.2760  176.4470  135.2500 C   0  0  0  0  0  2  0  0  0  0  0  0
  188.1910  177.5780  135.2700 N   0  0  0  0  0  1  0  0  0  0  0  0
  187.3600  177.5520  141.5660 C   0  0  1  0  0  3  0  0  0  0  0  0
  186.5670  177.4990  140.3390 C   0  0  0  0  0  2  0  0  0  0  0  0
  185.9250  177.2530  141.6260 N   0  0  0  0  0  0  0  0  0  0  0  0
  185.2430  178.4870  142.0080 C   0  0  0  0  0  2  0  0  0  0  0  0
  184.5170  178.2920  143.3310 C   0  0  2  0  0  3  0  0  0  0  0  0
  183.1890  178.6880  143.2330 F   0  0  0  0  0  0  0  0  0  0  0  0
  185.2270  178.9890  144.4500 C   0  0  0  0  0  0  0  0  0  0  0  0
  185.5600  180.1550  144.3120 O   0  0  0  0  0  0  0  0  0  0  0  0
  185.6110  178.2400  145.6960 C   0  0  1  0  0  3  0  0  0  0  0  0
  184.4490  178.1890  146.6690 C   0  0  0  0  0  1  0  0  0  0  0  0
  186.1130  176.8220  145.3890 C   0  0  0  0  0  2  0  0  0  0  0  0
  187.0790  176.4280  146.3220 O   0  0  0  0  0  1  0  0  0  0  0  0
  1 15  1  0  0  0  0
  2  1  2  0  0  0  0
  4 14  2  0  0  0  0
  5  3  1  6  0  0  0
  5 18  1  0  0  0  0
  5 11  1  0  0  0  0
  6  7  1  0  0  0  0
  7  9  1  0  0  0  0
  7 13  2  0  0  0  0
  8  9  1  0  0  0  0
  9  4  2  0  0  0  0
 10 11  2  0  0  0  0
 12 18  2  0  0  0  0
 12 14  1  0  0  0  0
 14 10  1  0  0  0  0
 15 16  1  0  0  0  0
 15  6  2  0  0  0  0
 16  8  1  0  0  0  0
 17  8  2  0  0  0  0
 19 22  1  0  0  0  0
 19 24  1  1  0  0  0
 21 23  1  1  0  0  0
 21 19  1  0  0  0  0
 21 22  1  0  0  0  0
 22  2  1  6  0  0  0
 23 25  1  0  0  0  0
 24 20  1  0  0  0  0
 25 20  1  0  0  0  0
 26 25  1  0  0  0  0
 27 26  1  0  0  0  0
 28 27  1  0  0  0  0
 29 28  1  0  0  0  0
 30 29  1  0  0  0  0
 31 30  1  0  0  0  0
 32 31  1  0  0  0  0
 32 33  1  0  0  0  0
 34 35  1  0  0  0  0
 34 33  1  0  0  0  0
 36 38  1  0  0  0  0
 36  1  1  6  0  0  0
 37 36  1  0  0  0  0
 37 38  1  0  0  0  0
 38 39  1  0  0  0  0
 39 40  1  0  0  0  0
 40 41  1  6  0  0  0
 40 42  1  0  0  0  0
 42 44  1  0  0  0  0
 43 42  2  0  0  0  0
 44 45  1  1  0  0  0
 46 44  1  0  0  0  0
 46 47  1  0  0  0  0
M  END
>  <MODEL>
9

>  <REMARK>
 VINA RESULT:      -5.8      3.096      8.128
  Name = 
  17 active torsions:
  status: ('A' for Active; 'I' for Inactive)
    1  A    between atoms: C_2  and  C_10
    2  A    between atoms: C_2  and  C_13
    3  A    between atoms: C_4  and  C_26
    4  A    between atoms: C_4  and  C_33
    5  A    between atoms: C_9  and  C_17
    6  A    between atoms: C_10  and  C_31
    7  A    between atoms: C_13  and  C_27
    8  A    between atoms: C_17  and  C_34
    9  A    between atoms: C_18  and  C_19
   10  A    between atoms: C_18  and  N_46
   11  A    between atoms: C_19  and  C_27
   12  A    between atoms: C_23  and  O_44
   13  A    between atoms: C_24  and  C_36
   14  A    between atoms: C_26  and  C_36
   15  A    between atoms: N_30  and  C_37
   16  A    between atoms: C_31  and  O_44
   17  A    between atoms: C_33  and  N_40
                            x       y       z     vdW  Elec       q    Type
                         _______ _______ _______ _____ _____    ______ ____

>  <TORSDO>
F 17

$$$$
