=
 OpenBabel11042419273D

 40 45  0  0  1  0  0  0  0  0999 V2000
  189.3510  177.9570  142.9240 C   0  0  0  0  0  2  0  0  0  0  0  0
  193.3700  175.9420  144.5980 C   0  0  0  0  0  0  0  0  0  0  0  0
  186.9840  177.3730  144.7820 C   0  0  0  0  0  3  0  0  0  0  0  0
  192.1420  176.4140  144.6920 C   0  0  0  0  0  0  0  0  0  0  0  0
  193.8260  175.5000  145.9560 C   0  0  0  0  0  3  0  0  0  0  0  0
  191.3430  176.9610  143.6510 N   0  0  0  0  0  0  0  0  0  0  0  0
  189.9930  177.3620  143.9270 C   0  0  0  0  0  0  0  0  0  0  0  0
  188.0320  178.4130  142.8770 O   0  0  0  0  0  0  0  0  0  0  0  0
  186.9200  177.9280  143.5720 C   0  0  0  0  0  0  0  0  0  0  0  0
  190.3750  176.9000  146.4750 C   0  0  0  0  0  3  0  0  0  0  0  0
  188.1550  177.1490  145.6280 C   0  0  0  0  0  3  0  0  0  0  0  0
  191.6840  176.3350  146.0410 C   0  0  0  0  0  0  0  0  0  0  0  0
  192.6350  175.8370  146.8150 C   0  0  0  0  0  3  0  0  0  0  0  0
  189.4440  177.1560  145.3080 C   0  0  0  0  0  0  0  0  0  0  0  0
  184.4800  178.4250  143.7190 C   0  0  0  0  0  3  0  0  0  0  0  0
  185.5930  178.0940  142.9310 C   0  0  0  0  0  0  0  0  0  0  0  0
  185.4200  177.9340  141.5430 C   0  0  0  0  0  3  0  0  0  0  0  0
  183.2200  178.5940  143.1360 C   0  0  0  0  0  3  0  0  0  0  0  0
  183.0610  178.4310  141.7570 C   0  0  0  0  0  0  0  0  0  0  0  0
  184.1600  178.1010  140.9610 C   0  0  0  0  0  3  0  0  0  0  0  0
  180.7060  179.4550  140.5650 C   0  0  0  0  0  2  0  0  0  0  0  0
  181.7800  178.6090  141.1630 N   0  0  0  0  0  0  0  0  0  0  0  0
  180.4570  178.1030  140.6890 C   0  0  1  0  0  3  0  0  0  0  0  0
  178.2410  178.5200  141.7170 C   0  0  0  0  0  1  0  0  0  0  0  0
  179.5790  177.8310  141.8950 C   0  0  0  0  0  2  0  0  0  0  0  0
  194.2150  175.8880  143.3600 C   0  0  1  0  0  3  0  0  0  0  0  0
  195.6720  175.6500  143.7140 C   0  0  0  0  0  1  0  0  0  0  0  0
  193.7640  174.8780  142.5050 O   0  0  0  0  0  0  0  0  0  0  0  0
  194.4900  173.7880  142.8450 N   0  0  0  0  0  2  0  0  0  0  0  0
  193.5520  172.6800  142.9640 C   0  0  0  0  0  2  0  0  0  0  0  0
  191.2420  172.7660  141.9590 C   0  0  0  0  0  2  0  0  0  0  0  0
  190.0160  172.6080  144.4700 C   0  0  0  0  0  2  0  0  0  0  0  0
  189.3720  173.6070  143.5120 C   0  0  0  0  0  2  0  0  0  0  0  0
  191.5410  172.7700  144.4890 C   0  0  0  0  0  2  0  0  0  0  0  0
  189.8340  173.3730  142.0640 C   0  0  1  0  0  3  0  0  0  0  0  0
  192.1260  173.1920  143.1320 C   0  0  1  0  0  3  0  0  0  0  0  0
  189.7850  174.5800  141.3620 O   0  0  0  0  0  0  0  0  0  0  0  0
  188.5030  174.6220  140.8080 C   0  0  0  0  0  2  0  0  0  0  0  0
  188.2970  174.0870  138.4030 C   0  0  0  0  0  1  0  0  0  0  0  0
  188.3540  173.5030  139.7990 C   0  0  0  0  0  2  0  0  0  0  0  0
  1  7  1  0  0  0  0
  2  4  2  0  0  0  0
  2  5  1  0  0  0  0
  3 11  1  0  0  0  0
  4 12  1  0  0  0  0
  5 13  2  0  0  0  0
  6  7  2  0  0  0  0
  6  4  1  0  0  0  0
  7 14  1  0  0  0  0
  8  1  1  0  0  0  0
  8  9  1  0  0  0  0
  9  3  2  0  0  0  0
 12 10  2  0  0  0  0
 12 13  1  0  0  0  0
 14 11  2  0  0  0  0
 14 10  1  0  0  0  0
 16  9  1  0  0  0  0
 16 15  2  0  0  0  0
 17 16  1  0  0  0  0
 18 15  1  0  0  0  0
 19 18  2  0  0  0  0
 20 17  2  0  0  0  0
 20 19  1  0  0  0  0
 21 23  1  0  0  0  0
 21 22  1  0  0  0  0
 22 19  1  0  0  0  0
 23 22  1  0  0  0  0
 23 25  1  1  0  0  0
 24 25  1  0  0  0  0
 26 27  1  1  0  0  0
 26  2  1  0  0  0  0
 28 29  1  0  0  0  0
 28 26  1  0  0  0  0
 29 30  1  0  0  0  0
 31 35  1  0  0  0  0
 31 36  1  0  0  0  0
 32 34  1  0  0  0  0
 33 32  1  0  0  0  0
 35 37  1  6  0  0  0
 35 33  1  0  0  0  0
 36 30  1  6  0  0  0
 36 34  1  0  0  0  0
 38 37  1  0  0  0  0
 39 40  1  0  0  0  0
 40 38  1  0  0  0  0
M  END
>  <MODEL>
1

>  <REMARK>
 VINA RESULT:      -7.2      0.000      0.000
  Name = 
  11 active torsions:
  status: ('A' for Active; 'I' for Inactive)
    1  A    between atoms: C_2  and  C_3
    2  A    between atoms: C_3  and  O_24
    3  A    between atoms: N_6  and  O_24
    4  A    between atoms: N_6  and  C_37
    5  A    between atoms: C_11  and  C_18
    6  A    between atoms: C_20  and  C_23
    7  A    between atoms: C_20  and  O_36
    8  A    between atoms: N_21  and  C_34
    9  A    between atoms: C_30  and  C_38
   10  A    between atoms: C_31  and  O_36
   11  A    between atoms: C_35  and  C_37
                            x       y       z     vdW  Elec       q    Type
                         _______ _______ _______ _____ _____    ______ ____

>  <TORSDO>
F 11

$$$$
=
 OpenBabel11042419273D

 40 45  0  0  1  0  0  0  0  0999 V2000
  189.2400  177.7540  142.7980 C   0  0  0  0  0  2  0  0  0  0  0  0
  193.1680  175.6950  144.6260 C   0  0  0  0  0  0  0  0  0  0  0  0
  186.8890  177.5450  144.7540 C   0  0  0  0  0  3  0  0  0  0  0  0
  191.9730  176.2520  144.6860 C   0  0  0  0  0  0  0  0  0  0  0  0
  193.6300  175.3860  146.0190 C   0  0  0  0  0  3  0  0  0  0  0  0
  191.1840  176.7240  143.6020 N   0  0  0  0  0  0  0  0  0  0  0  0
  189.8690  177.2400  143.8530 C   0  0  0  0  0  0  0  0  0  0  0  0
  187.9510  178.2860  142.7200 O   0  0  0  0  0  0  0  0  0  0  0  0
  186.8280  177.9580  143.4870 C   0  0  0  0  0  0  0  0  0  0  0  0
  190.2850  177.0560  146.4300 C   0  0  0  0  0  3  0  0  0  0  0  0
  188.0640  177.3460  145.5990 C   0  0  0  0  0  3  0  0  0  0  0  0
  191.5450  176.3610  146.0430 C   0  0  0  0  0  0  0  0  0  0  0  0
  192.4830  175.8970  146.8530 C   0  0  0  0  0  3  0  0  0  0  0  0
  189.3440  177.2330  145.2580 C   0  0  0  0  0  0  0  0  0  0  0  0
  184.3860  178.4390  143.6540 C   0  0  0  0  0  3  0  0  0  0  0  0
  185.4990  178.1320  142.8550 C   0  0  0  0  0  0  0  0  0  0  0  0
  185.3220  178.0060  141.4650 C   0  0  0  0  0  3  0  0  0  0  0  0
  183.1240  178.6150  143.0800 C   0  0  0  0  0  3  0  0  0  0  0  0
  182.9610  178.4860  141.6980 C   0  0  0  0  0  0  0  0  0  0  0  0
  184.0590  178.1810  140.8900 C   0  0  0  0  0  3  0  0  0  0  0  0
  180.5950  179.5270  140.5440 C   0  0  0  0  0  2  0  0  0  0  0  0
  181.6770  178.6710  141.1120 N   0  0  0  0  0  0  0  0  0  0  0  0
  180.3580  178.1700  140.6260 C   0  0  1  0  0  3  0  0  0  0  0  0
  178.2290  177.1360  141.3660 C   0  0  0  0  0  1  0  0  0  0  0  0
  179.4850  177.8530  141.8240 C   0  0  0  0  0  2  0  0  0  0  0  0
  193.9760  175.4420  143.3890 C   0  0  1  0  0  3  0  0  0  0  0  0
  195.4530  175.6690  143.6570 C   0  0  0  0  0  1  0  0  0  0  0  0
  193.7730  174.1370  142.9310 O   0  0  0  0  0  0  0  0  0  0  0  0
  194.1660  174.1600  141.6360 N   0  0  0  0  0  2  0  0  0  0  0  0
  193.0520  174.7020  140.8710 C   0  0  0  0  0  2  0  0  0  0  0  0
  190.7340  173.8450  141.3650 C   0  0  0  0  0  2  0  0  0  0  0  0
  190.3510  173.0140  138.7200 C   0  0  0  0  0  2  0  0  0  0  0  0
  189.8450  172.0310  139.7730 C   0  0  0  0  0  2  0  0  0  0  0  0
  191.7640  173.5030  139.0590 C   0  0  0  0  0  2  0  0  0  0  0  0
  189.7340  172.6970  141.1540 C   0  0  1  0  0  3  0  0  0  0  0  0
  192.0220  173.6210  140.5700 C   0  0  1  0  0  3  0  0  0  0  0  0
  189.9050  171.7310  142.1490 O   0  0  0  0  0  0  0  0  0  0  0  0
  189.1760  172.2060  143.2410 C   0  0  0  0  0  2  0  0  0  0  0  0
  189.7240  173.4090  145.3300 C   0  0  0  0  0  1  0  0  0  0  0  0
  190.0570  172.2060  144.4730 C   0  0  0  0  0  2  0  0  0  0  0  0
  1  7  1  0  0  0  0
  2  4  2  0  0  0  0
  2  5  1  0  0  0  0
  3 11  1  0  0  0  0
  4 12  1  0  0  0  0
  5 13  2  0  0  0  0
  6  7  2  0  0  0  0
  6  4  1  0  0  0  0
  7 14  1  0  0  0  0
  8  1  1  0  0  0  0
  8  9  1  0  0  0  0
  9  3  2  0  0  0  0
 12 10  2  0  0  0  0
 12 13  1  0  0  0  0
 14 11  2  0  0  0  0
 14 10  1  0  0  0  0
 16  9  1  0  0  0  0
 16 15  2  0  0  0  0
 17 16  1  0  0  0  0
 18 15  1  0  0  0  0
 19 18  2  0  0  0  0
 20 17  2  0  0  0  0
 20 19  1  0  0  0  0
 21 23  1  0  0  0  0
 21 22  1  0  0  0  0
 22 19  1  0  0  0  0
 23 22  1  0  0  0  0
 23 25  1  1  0  0  0
 24 25  1  0  0  0  0
 26 27  1  1  0  0  0
 26  2  1  0  0  0  0
 28 26  1  0  0  0  0
 29 28  1  0  0  0  0
 30 29  1  0  0  0  0
 32 34  1  0  0  0  0
 32 33  1  0  0  0  0
 33 35  1  0  0  0  0
 34 36  1  0  0  0  0
 35 31  1  0  0  0  0
 35 37  1  1  0  0  0
 36 30  1  6  0  0  0
 36 31  1  0  0  0  0
 37 38  1  0  0  0  0
 38 40  1  0  0  0  0
 40 39  1  0  0  0  0
M  END
>  <MODEL>
2

>  <REMARK>
 VINA RESULT:      -7.1      1.133      2.248
  Name = 
  11 active torsions:
  status: ('A' for Active; 'I' for Inactive)
    1  A    between atoms: C_2  and  C_3
    2  A    between atoms: C_3  and  O_24
    3  A    between atoms: N_6  and  O_24
    4  A    between atoms: N_6  and  C_37
    5  A    between atoms: C_11  and  C_18
    6  A    between atoms: C_20  and  C_23
    7  A    between atoms: C_20  and  O_36
    8  A    between atoms: N_21  and  C_34
    9  A    between atoms: C_30  and  C_38
   10  A    between atoms: C_31  and  O_36
   11  A    between atoms: C_35  and  C_37
                            x       y       z     vdW  Elec       q    Type
                         _______ _______ _______ _____ _____    ______ ____

>  <TORSDO>
F 11

$$$$
=
 OpenBabel11042419273D

 40 45  0  0  1  0  0  0  0  0999 V2000
  191.3780  172.5600  144.1640 C   0  0  0  0  0  2  0  0  0  0  0  0
  195.9130  171.0530  143.7440 C   0  0  0  0  0  0  0  0  0  0  0  0
  190.7110  174.6280  142.0020 C   0  0  0  0  0  3  0  0  0  0  0  0
  194.7920  171.6030  143.3160 C   0  0  0  0  0  0  0  0  0  0  0  0
  196.8950  171.0090  142.6120 C   0  0  0  0  0  3  0  0  0  0  0  0
  193.5950  171.8130  144.0540 N   0  0  0  0  0  0  0  0  0  0  0  0
  192.4930  172.4960  143.4400 C   0  0  0  0  0  0  0  0  0  0  0  0
  190.1690  173.1870  143.8570 O   0  0  0  0  0  0  0  0  0  0  0  0
  189.9530  174.3100  143.0520 C   0  0  0  0  0  0  0  0  0  0  0  0
  193.7640  172.4970  141.1520 C   0  0  0  0  0  3  0  0  0  0  0  0
  191.8800  173.9300  141.4690 C   0  0  0  0  0  3  0  0  0  0  0  0
  194.9110  171.9610  141.9400 C   0  0  0  0  0  0  0  0  0  0  0  0
  196.1010  171.6120  141.4810 C   0  0  0  0  0  3  0  0  0  0  0  0
  192.6480  173.0070  142.0380 C   0  0  0  0  0  0  0  0  0  0  0  0
  188.7730  175.9260  144.5410 C   0  0  0  0  0  3  0  0  0  0  0  0
  188.7780  175.1570  143.3670 C   0  0  0  0  0  0  0  0  0  0  0  0
  187.6620  175.2170  142.5110 C   0  0  0  0  0  3  0  0  0  0  0  0
  187.6790  176.7380  144.8560 C   0  0  0  0  0  3  0  0  0  0  0  0
  186.5760  176.7880  143.9980 C   0  0  0  0  0  0  0  0  0  0  0  0
  186.5680  176.0280  142.8260 C   0  0  0  0  0  3  0  0  0  0  0  0
  184.4370  178.6420  143.9640 C   0  0  0  0  0  2  0  0  0  0  0  0
  185.4650  177.6190  144.3150 N   0  0  0  0  0  0  0  0  0  0  0  0
  184.4520  178.1720  145.2620 C   0  0  1  0  0  3  0  0  0  0  0  0
  185.3000  178.5560  147.5590 C   0  0  0  0  0  1  0  0  0  0  0  0
  185.1340  179.1660  146.1810 C   0  0  0  0  0  2  0  0  0  0  0  0
  196.1760  170.5090  145.1160 C   0  0  1  0  0  3  0  0  0  0  0  0
  197.5510  169.8700  145.1860 C   0  0  0  0  0  1  0  0  0  0  0  0
  196.0760  171.5250  146.0710 O   0  0  0  0  0  0  0  0  0  0  0  0
  197.1620  172.3040  145.8630 N   0  0  0  0  0  2  0  0  0  0  0  0
  196.8030  173.6470  146.2950 C   0  0  0  0  0  2  0  0  0  0  0  0
  195.1430  175.5030  145.9030 C   0  0  0  0  0  2  0  0  0  0  0  0
  196.0590  175.9290  143.2930 C   0  0  0  0  0  2  0  0  0  0  0  0
  194.5410  175.9690  143.4460 C   0  0  0  0  0  2  0  0  0  0  0  0
  196.6510  174.7090  144.0080 C   0  0  0  0  0  2  0  0  0  0  0  0
  194.1290  176.1120  144.9210 C   0  0  1  0  0  3  0  0  0  0  0  0
  195.8840  174.3180  145.2810 C   0  0  1  0  0  3  0  0  0  0  0  0
  192.8750  175.5260  145.1090 O   0  0  0  0  0  0  0  0  0  0  0  0
  192.7580  175.3650  146.4920 C   0  0  0  0  0  2  0  0  0  0  0  0
  190.6000  175.3200  147.6960 C   0  0  0  0  0  1  0  0  0  0  0  0
  191.6090  176.2090  147.0020 C   0  0  0  0  0  2  0  0  0  0  0  0
  2 26  1  0  0  0  0
  3  9  2  0  0  0  0
  4  2  2  0  0  0  0
  4  6  1  0  0  0  0
  5  2  1  0  0  0  0
  7  6  2  0  0  0  0
  7  1  1  0  0  0  0
  8  1  1  0  0  0  0
  9 16  1  0  0  0  0
  9  8  1  0  0  0  0
 10 12  2  0  0  0  0
 10 14  1  0  0  0  0
 11  3  1  0  0  0  0
 11 14  2  0  0  0  0
 12  4  1  0  0  0  0
 13 12  1  0  0  0  0
 13  5  2  0  0  0  0
 14  7  1  0  0  0  0
 15 18  1  0  0  0  0
 16 15  2  0  0  0  0
 17 20  2  0  0  0  0
 17 16  1  0  0  0  0
 19 22  1  0  0  0  0
 19 18  2  0  0  0  0
 20 19  1  0  0  0  0
 21 22  1  0  0  0  0
 21 23  1  0  0  0  0
 22 23  1  0  0  0  0
 23 25  1  1  0  0  0
 25 24  1  0  0  0  0
 26 27  1  6  0  0  0
 26 28  1  0  0  0  0
 29 28  1  0  0  0  0
 29 30  1  0  0  0  0
 32 33  1  0  0  0  0
 32 34  1  0  0  0  0
 33 35  1  0  0  0  0
 34 36  1  0  0  0  0
 35 37  1  6  0  0  0
 35 31  1  0  0  0  0
 36 31  1  0  0  0  0
 36 30  1  1  0  0  0
 37 38  1  0  0  0  0
 38 40  1  0  0  0  0
 40 39  1  0  0  0  0
M  END
>  <MODEL>
3

>  <REMARK>
 VINA RESULT:      -7.0      2.890      6.034
  Name = 
  11 active torsions:
  status: ('A' for Active; 'I' for Inactive)
    1  A    between atoms: C_2  and  C_3
    2  A    between atoms: C_3  and  O_24
    3  A    between atoms: N_6  and  O_24
    4  A    between atoms: N_6  and  C_37
    5  A    between atoms: C_11  and  C_18
    6  A    between atoms: C_20  and  C_23
    7  A    between atoms: C_20  and  O_36
    8  A    between atoms: N_21  and  C_34
    9  A    between atoms: C_30  and  C_38
   10  A    between atoms: C_31  and  O_36
   11  A    between atoms: C_35  and  C_37
                            x       y       z     vdW  Elec       q    Type
                         _______ _______ _______ _____ _____    ______ ____

>  <TORSDO>
F 11

$$$$
=
 OpenBabel11042419273D

 40 45  0  0  1  0  0  0  0  0999 V2000
  186.7850  176.6370  142.3910 C   0  0  0  0  0  2  0  0  0  0  0  0
  190.1250  174.3250  144.9420 C   0  0  0  0  0  0  0  0  0  0  0  0
  184.8330  178.1140  144.2350 C   0  0  0  0  0  3  0  0  0  0  0  0
  189.1870  175.2320  144.7460 C   0  0  0  0  0  0  0  0  0  0  0  0
  190.6870  174.4980  146.3210 C   0  0  0  0  0  3  0  0  0  0  0  0
  188.4180  175.4410  143.5680 N   0  0  0  0  0  0  0  0  0  0  0  0
  187.3860  176.4370  143.5610 C   0  0  0  0  0  0  0  0  0  0  0  0
  185.7290  177.4980  142.0840 O   0  0  0  0  0  0  0  0  0  0  0  0
  184.6990  177.9410  142.9200 C   0  0  0  0  0  0  0  0  0  0  0  0
  188.1350  177.2340  145.9390 C   0  0  0  0  0  3  0  0  0  0  0  0
  186.0090  177.8970  145.0740 C   0  0  0  0  0  3  0  0  0  0  0  0
  189.0390  176.0490  145.9060 C   0  0  0  0  0  0  0  0  0  0  0  0
  189.9060  175.6800  146.8350 C   0  0  0  0  0  3  0  0  0  0  0  0
  187.1180  177.2120  144.8180 C   0  0  0  0  0  0  0  0  0  0  0  0
  182.4100  178.9260  143.0340 C   0  0  0  0  0  3  0  0  0  0  0  0
  183.4050  178.2820  142.2830 C   0  0  0  0  0  0  0  0  0  0  0  0
  183.1470  177.9810  140.9320 C   0  0  0  0  0  3  0  0  0  0  0  0
  181.1840  179.2640  142.4530 C   0  0  0  0  0  3  0  0  0  0  0  0
  180.9400  178.9590  141.1100 C   0  0  0  0  0  0  0  0  0  0  0  0
  181.9210  178.3180  140.3500 C   0  0  0  0  0  3  0  0  0  0  0  0
  178.5390  179.0360  139.6140 C   0  0  0  0  0  2  0  0  0  0  0  0
  179.6950  179.3080  140.5160 N   0  0  0  0  0  0  0  0  0  0  0  0
  178.5550  180.2430  140.2820 C   0  0  1  0  0  3  0  0  0  0  0  0
  178.4410  182.6780  139.8310 C   0  0  0  0  0  1  0  0  0  0  0  0
  179.0170  181.3560  139.3620 C   0  0  0  0  0  2  0  0  0  0  0  0
  190.6050  173.3060  143.9530 C   0  0  1  0  0  3  0  0  0  0  0  0
  191.5010  173.9490  142.9100 C   0  0  0  0  0  1  0  0  0  0  0  0
  191.2960  172.2800  144.6040 O   0  0  0  0  0  0  0  0  0  0  0  0
  192.3530  172.0130  143.8020 N   0  0  0  0  0  2  0  0  0  0  0  0
  193.3990  171.4670  144.6560 C   0  0  0  0  0  2  0  0  0  0  0  0
  194.2050  173.6620  145.5970 C   0  0  0  0  0  2  0  0  0  0  0  0
  196.7740  172.6530  146.0630 C   0  0  0  0  0  2  0  0  0  0  0  0
  196.7430  174.0660  145.4870 C   0  0  0  0  0  2  0  0  0  0  0  0
  195.8310  171.7240  145.2890 C   0  0  0  0  0  2  0  0  0  0  0  0
  195.3450  174.6940  145.6140 C   0  0  1  0  0  3  0  0  0  0  0  0
  194.5720  172.4340  144.7630 C   0  0  1  0  0  3  0  0  0  0  0  0
  195.1590  175.6220  144.5870 O   0  0  0  0  0  0  0  0  0  0  0  0
  195.0440  176.8550  145.2320 C   0  0  0  0  0  2  0  0  0  0  0  0
  192.6490  177.0550  144.6580 C   0  0  0  0  0  1  0  0  0  0  0  0
  193.6470  177.0010  145.7950 C   0  0  0  0  0  2  0  0  0  0  0  0
  1  7  1  0  0  0  0
  2  5  1  0  0  0  0
  3 11  1  0  0  0  0
  4  2  2  0  0  0  0
  4 12  1  0  0  0  0
  5 13  2  0  0  0  0
  6  4  1  0  0  0  0
  7  6  2  0  0  0  0
  7 14  1  0  0  0  0
  8  1  1  0  0  0  0
  8  9  1  0  0  0  0
  9  3  2  0  0  0  0
 12 10  2  0  0  0  0
 12 13  1  0  0  0  0
 14 11  2  0  0  0  0
 14 10  1  0  0  0  0
 16  9  1  0  0  0  0
 16 15  2  0  0  0  0
 17 16  1  0  0  0  0
 18 15  1  0  0  0  0
 19 18  2  0  0  0  0
 20 17  2  0  0  0  0
 20 19  1  0  0  0  0
 21 23  1  0  0  0  0
 21 22  1  0  0  0  0
 22 19  1  0  0  0  0
 23 25  1  6  0  0  0
 23 22  1  0  0  0  0
 25 24  1  0  0  0  0
 26 27  1  6  0  0  0
 26 28  1  0  0  0  0
 26  2  1  0  0  0  0
 29 28  1  0  0  0  0
 29 30  1  0  0  0  0
 31 35  1  0  0  0  0
 33 35  1  0  0  0  0
 33 32  1  0  0  0  0
 34 32  1  0  0  0  0
 35 37  1  6  0  0  0
 36 30  1  1  0  0  0
 36 34  1  0  0  0  0
 36 31  1  0  0  0  0
 37 38  1  0  0  0  0
 38 40  1  0  0  0  0
 39 40  1  0  0  0  0
M  END
>  <MODEL>
4

>  <REMARK>
 VINA RESULT:      -6.9      2.126      4.263
  Name = 
  11 active torsions:
  status: ('A' for Active; 'I' for Inactive)
    1  A    between atoms: C_2  and  C_3
    2  A    between atoms: C_3  and  O_24
    3  A    between atoms: N_6  and  O_24
    4  A    between atoms: N_6  and  C_37
    5  A    between atoms: C_11  and  C_18
    6  A    between atoms: C_20  and  C_23
    7  A    between atoms: C_20  and  O_36
    8  A    between atoms: N_21  and  C_34
    9  A    between atoms: C_30  and  C_38
   10  A    between atoms: C_31  and  O_36
   11  A    between atoms: C_35  and  C_37
                            x       y       z     vdW  Elec       q    Type
                         _______ _______ _______ _____ _____    ______ ____

>  <TORSDO>
F 11

$$$$
=
 OpenBabel11042419273D

 40 45  0  0  1  0  0  0  0  0999 V2000
  189.1260  178.0330  142.3660 C   0  0  0  0  0  2  0  0  0  0  0  0
  193.2120  176.0460  143.9060 C   0  0  0  0  0  0  0  0  0  0  0  0
  186.9020  177.7080  144.4510 C   0  0  0  0  0  3  0  0  0  0  0  0
  192.0080  176.5670  144.0510 C   0  0  0  0  0  0  0  0  0  0  0  0
  193.7640  175.7180  145.2610 C   0  0  0  0  0  3  0  0  0  0  0  0
  191.1420  177.0420  143.0270 N   0  0  0  0  0  0  0  0  0  0  0  0
  189.8310  177.5130  143.3680 C   0  0  0  0  0  0  0  0  0  0  0  0
  187.8200  178.5290  142.3780 O   0  0  0  0  0  0  0  0  0  0  0  0
  186.7550  178.1490  143.2010 C   0  0  0  0  0  0  0  0  0  0  0  0
  190.4050  177.2790  145.9110 C   0  0  0  0  0  3  0  0  0  0  0  0
  188.1310  177.5230  145.2200 C   0  0  0  0  0  3  0  0  0  0  0  0
  191.6580  176.6300  145.4330 C   0  0  0  0  0  0  0  0  0  0  0  0
  192.6550  176.1750  146.1740 C   0  0  0  0  0  3  0  0  0  0  0  0
  189.3900  177.4560  144.8010 C   0  0  0  0  0  0  0  0  0  0  0  0
  185.1760  178.1840  141.2700 C   0  0  0  0  0  3  0  0  0  0  0  0
  185.3860  178.3000  142.6530 C   0  0  0  0  0  0  0  0  0  0  0  0
  184.2810  178.5510  143.4890 C   0  0  0  0  0  3  0  0  0  0  0  0
  183.8930  178.3160  140.7310 C   0  0  0  0  0  3  0  0  0  0  0  0
  182.8040  178.5660  141.5720 C   0  0  0  0  0  0  0  0  0  0  0  0
  182.9980  178.6840  142.9500 C   0  0  0  0  0  3  0  0  0  0  0  0
  180.3720  179.4960  140.4620 C   0  0  0  0  0  2  0  0  0  0  0  0
  181.4970  178.6930  141.0240 N   0  0  0  0  0  0  0  0  0  0  0  0
  180.1770  178.1370  140.6020 C   0  0  1  0  0  3  0  0  0  0  0  0
  178.0640  177.1510  141.4420 C   0  0  0  0  0  1  0  0  0  0  0  0
  179.3540  177.8410  141.8400 C   0  0  0  0  0  2  0  0  0  0  0  0
  193.9520  175.8470  142.6180 C   0  0  1  0  0  3  0  0  0  0  0  0
  195.4490  175.9770  142.8320 C   0  0  0  0  0  1  0  0  0  0  0  0
  193.6580  174.5930  142.0750 O   0  0  0  0  0  0  0  0  0  0  0  0
  194.8110  174.1910  141.4900 N   0  0  0  0  0  2  0  0  0  0  0  0
  194.7460  172.7400  141.3900 C   0  0  0  0  0  2  0  0  0  0  0  0
  192.7150  171.3080  141.8120 C   0  0  0  0  0  2  0  0  0  0  0  0
  193.7990  170.2630  144.1720 C   0  0  0  0  0  2  0  0  0  0  0  0
  192.3170  170.6190  144.2580 C   0  0  0  0  0  2  0  0  0  0  0  0
  194.6000  171.3990  143.5250 C   0  0  0  0  0  2  0  0  0  0  0  0
  191.7050  170.8170  142.8620 C   0  0  1  0  0  3  0  0  0  0  0  0
  193.8130  172.1630  142.4480 C   0  0  1  0  0  3  0  0  0  0  0  0
  190.6370  171.7130  142.9470 O   0  0  0  0  0  0  0  0  0  0  0  0
  190.5540  172.0460  144.3010 C   0  0  0  0  0  2  0  0  0  0  0  0
  189.4030  173.9470  143.2190 C   0  0  0  0  0  1  0  0  0  0  0  0
  190.1870  173.5090  144.4380 C   0  0  0  0  0  2  0  0  0  0  0  0
  1  8  1  0  0  0  0
  1  7  1  0  0  0  0
  2  4  2  0  0  0  0
  2  5  1  0  0  0  0
  3 11  1  0  0  0  0
  4 12  1  0  0  0  0
  5 13  2  0  0  0  0
  6  7  2  0  0  0  0
  6  4  1  0  0  0  0
  7 14  1  0  0  0  0
  8  9  1  0  0  0  0
  9  3  2  0  0  0  0
 12 10  2  0  0  0  0
 12 13  1  0  0  0  0
 14 11  2  0  0  0  0
 14 10  1  0  0  0  0
 15 16  1  0  0  0  0
 16  9  1  0  0  0  0
 16 17  2  0  0  0  0
 18 15  2  0  0  0  0
 18 19  1  0  0  0  0
 19 20  2  0  0  0  0
 20 17  1  0  0  0  0
 21 23  1  0  0  0  0
 21 22  1  0  0  0  0
 22 19  1  0  0  0  0
 23 22  1  0  0  0  0
 23 25  1  1  0  0  0
 24 25  1  0  0  0  0
 26 27  1  1  0  0  0
 26  2  1  0  0  0  0
 28 26  1  0  0  0  0
 29 28  1  0  0  0  0
 30 29  1  0  0  0  0
 31 36  1  0  0  0  0
 31 35  1  0  0  0  0
 32 33  1  0  0  0  0
 34 32  1  0  0  0  0
 35 37  1  1  0  0  0
 35 33  1  0  0  0  0
 36 30  1  6  0  0  0
 36 34  1  0  0  0  0
 37 38  1  0  0  0  0
 38 40  1  0  0  0  0
 39 40  1  0  0  0  0
M  END
>  <MODEL>
5

>  <REMARK>
 VINA RESULT:      -6.7      1.431      2.199
  Name = 
  11 active torsions:
  status: ('A' for Active; 'I' for Inactive)
    1  A    between atoms: C_2  and  C_3
    2  A    between atoms: C_3  and  O_24
    3  A    between atoms: N_6  and  O_24
    4  A    between atoms: N_6  and  C_37
    5  A    between atoms: C_11  and  C_18
    6  A    between atoms: C_20  and  C_23
    7  A    between atoms: C_20  and  O_36
    8  A    between atoms: N_21  and  C_34
    9  A    between atoms: C_30  and  C_38
   10  A    between atoms: C_31  and  O_36
   11  A    between atoms: C_35  and  C_37
                            x       y       z     vdW  Elec       q    Type
                         _______ _______ _______ _____ _____    ______ ____

>  <TORSDO>
F 11

$$$$
=
 OpenBabel11042419273D

 40 45  0  0  1  0  0  0  0  0999 V2000
  192.4510  175.4490  143.4480 C   0  0  0  0  0  2  0  0  0  0  0  0
  196.2410  172.5640  144.0210 C   0  0  0  0  0  0  0  0  0  0  0  0
  191.4440  176.4770  146.1550 C   0  0  0  0  0  3  0  0  0  0  0  0
  195.3890  173.5040  144.3850 C   0  0  0  0  0  0  0  0  0  0  0  0
  197.2740  172.4040  145.0950 C   0  0  0  0  0  3  0  0  0  0  0  0
  194.2720  173.9910  143.6510 N   0  0  0  0  0  0  0  0  0  0  0  0
  193.4090  174.9740  144.2400 C   0  0  0  0  0  0  0  0  0  0  0  0
  191.4440  176.3700  143.7460 O   0  0  0  0  0  0  0  0  0  0  0  0
  190.8320  176.6180  144.9790 C   0  0  0  0  0  0  0  0  0  0  0  0
  195.0350  175.1840  146.2800 C   0  0  0  0  0  3  0  0  0  0  0  0
  192.8170  176.0560  146.4300 C   0  0  0  0  0  3  0  0  0  0  0  0
  195.7470  174.0280  145.6630 C   0  0  0  0  0  0  0  0  0  0  0  0
  196.8480  173.4410  146.1010 C   0  0  0  0  0  3  0  0  0  0  0  0
  193.6870  175.4360  145.6400 C   0  0  0  0  0  0  0  0  0  0  0  0
  188.9010  177.6280  143.7640 C   0  0  0  0  0  3  0  0  0  0  0  0
  189.4350  177.1140  144.9560 C   0  0  0  0  0  0  0  0  0  0  0  0
  188.6210  177.0770  146.1040 C   0  0  0  0  0  3  0  0  0  0  0  0
  187.5840  178.0950  143.7160 C   0  0  0  0  0  3  0  0  0  0  0  0
  186.7860  178.0530  144.8630 C   0  0  0  0  0  0  0  0  0  0  0  0
  187.3040  177.5450  146.0570 C   0  0  0  0  0  3  0  0  0  0  0  0
  184.0760  178.6800  145.3890 C   0  0  0  0  0  2  0  0  0  0  0  0
  185.4440  178.5230  144.8130 N   0  0  0  0  0  0  0  0  0  0  0  0
  184.3030  179.2030  144.1320 C   0  0  1  0  0  3  0  0  0  0  0  0
  184.5310  178.4650  141.7760 C   0  0  0  0  0  1  0  0  0  0  0  0
  183.7510  178.2790  143.0640 C   0  0  0  0  0  2  0  0  0  0  0  0
  196.2310  171.7990  142.7320 C   0  0  1  0  0  3  0  0  0  0  0  0
  197.6420  171.4100  142.3270 C   0  0  0  0  0  1  0  0  0  0  0  0
  195.4400  170.6530  142.8500 O   0  0  0  0  0  0  0  0  0  0  0  0
  194.3540  170.9030  142.0820 N   0  0  0  0  0  2  0  0  0  0  0  0
  193.2080  170.3390  142.7810 C   0  0  0  0  0  2  0  0  0  0  0  0
  190.7860  170.7470  142.2150 C   0  0  0  0  0  2  0  0  0  0  0  0
  190.3760  172.2540  144.5370 C   0  0  0  0  0  2  0  0  0  0  0  0
  189.7180  172.8280  143.2850 C   0  0  0  0  0  2  0  0  0  0  0  0
  191.8290  171.8530  144.2600 C   0  0  0  0  0  2  0  0  0  0  0  0
  189.6530  171.7850  142.1570 C   0  0  1  0  0  3  0  0  0  0  0  0
  192.0560  171.3360  142.8300 C   0  0  1  0  0  3  0  0  0  0  0  0
  189.6710  172.4370  140.9220 O   0  0  0  0  0  0  0  0  0  0  0  0
  188.8900  173.5790  141.1070 C   0  0  0  0  0  2  0  0  0  0  0  0
  189.3060  173.4400  138.6750 C   0  0  0  0  0  1  0  0  0  0  0  0
  188.5690  174.1940  139.7610 C   0  0  0  0  0  2  0  0  0  0  0  0
  1  8  1  0  0  0  0
  1  7  1  0  0  0  0
  2  4  2  0  0  0  0
  2  5  1  0  0  0  0
  3 11  1  0  0  0  0
  4 12  1  0  0  0  0
  5 13  2  0  0  0  0
  6  7  2  0  0  0  0
  6  4  1  0  0  0  0
  7 14  1  0  0  0  0
  8  9  1  0  0  0  0
  9  3  2  0  0  0  0
 12 13  1  0  0  0  0
 12 10  2  0  0  0  0
 14 10  1  0  0  0  0
 14 11  2  0  0  0  0
 15 16  1  0  0  0  0
 16  9  1  0  0  0  0
 16 17  2  0  0  0  0
 18 15  2  0  0  0  0
 18 19  1  0  0  0  0
 19 20  2  0  0  0  0
 20 17  1  0  0  0  0
 22 19  1  0  0  0  0
 22 21  1  0  0  0  0
 23 25  1  6  0  0  0
 23 22  1  0  0  0  0
 23 21  1  0  0  0  0
 24 25  1  0  0  0  0
 26 27  1  1  0  0  0
 26 28  1  0  0  0  0
 26  2  1  0  0  0  0
 29 30  1  0  0  0  0
 29 28  1  0  0  0  0
 31 36  1  0  0  0  0
 33 32  1  0  0  0  0
 34 32  1  0  0  0  0
 35 37  1  6  0  0  0
 35 31  1  0  0  0  0
 35 33  1  0  0  0  0
 36 30  1  1  0  0  0
 36 34  1  0  0  0  0
 37 38  1  0  0  0  0
 39 40  1  0  0  0  0
 40 38  1  0  0  0  0
M  END
>  <MODEL>
6

>  <REMARK>
 VINA RESULT:      -6.6      2.247      4.142
  Name = 
  11 active torsions:
  status: ('A' for Active; 'I' for Inactive)
    1  A    between atoms: C_2  and  C_3
    2  A    between atoms: C_3  and  O_24
    3  A    between atoms: N_6  and  O_24
    4  A    between atoms: N_6  and  C_37
    5  A    between atoms: C_11  and  C_18
    6  A    between atoms: C_20  and  C_23
    7  A    between atoms: C_20  and  O_36
    8  A    between atoms: N_21  and  C_34
    9  A    between atoms: C_30  and  C_38
   10  A    between atoms: C_31  and  O_36
   11  A    between atoms: C_35  and  C_37
                            x       y       z     vdW  Elec       q    Type
                         _______ _______ _______ _____ _____    ______ ____

>  <TORSDO>
F 11

$$$$
=
 OpenBabel11042419273D

 40 45  0  0  1  0  0  0  0  0999 V2000
  192.3730  174.5200  143.8290 C   0  0  0  0  0  2  0  0  0  0  0  0
  196.3410  171.8300  144.0290 C   0  0  0  0  0  0  0  0  0  0  0  0
  191.9710  176.0640  146.4460 C   0  0  0  0  0  3  0  0  0  0  0  0
  195.5480  172.8190  144.3970 C   0  0  0  0  0  0  0  0  0  0  0  0
  197.6020  171.8940  144.8360 C   0  0  0  0  0  3  0  0  0  0  0  0
  194.2670  173.1420  143.8700 N   0  0  0  0  0  0  0  0  0  0  0  0
  193.5140  174.2180  144.4460 C   0  0  0  0  0  0  0  0  0  0  0  0
  191.4160  175.4760  144.1750 O   0  0  0  0  0  0  0  0  0  0  0  0
  191.0950  175.9630  145.4460 C   0  0  0  0  0  0  0  0  0  0  0  0
  195.5560  174.8420  145.9600 C   0  0  0  0  0  3  0  0  0  0  0  0
  193.3900  175.7140  146.4620 C   0  0  0  0  0  3  0  0  0  0  0  0
  196.1650  173.5910  145.4260 C   0  0  0  0  0  0  0  0  0  0  0  0
  197.3680  173.1100  145.6940 C   0  0  0  0  0  3  0  0  0  0  0  0
  194.0840  174.9530  145.6230 C   0  0  0  0  0  0  0  0  0  0  0  0
  189.1840  177.4460  144.8400 C   0  0  0  0  0  3  0  0  0  0  0  0
  189.7070  176.4360  145.6620 C   0  0  0  0  0  0  0  0  0  0  0  0
  188.8900  175.8910  146.6700 C   0  0  0  0  0  3  0  0  0  0  0  0
  187.8750  177.9040  145.0190 C   0  0  0  0  0  3  0  0  0  0  0  0
  187.0740  177.3550  146.0250 C   0  0  0  0  0  0  0  0  0  0  0  0
  187.5820  176.3490  146.8510 C   0  0  0  0  0  3  0  0  0  0  0  0
  184.3050  177.6070  146.5560 C   0  0  0  0  0  2  0  0  0  0  0  0
  185.7400  177.8160  146.2040 N   0  0  0  0  0  0  0  0  0  0  0  0
  184.6840  178.8710  146.1490 C   0  0  1  0  0  3  0  0  0  0  0  0
  185.2010  180.1610  144.0960 C   0  0  0  0  0  1  0  0  0  0  0  0
  184.3000  179.1010  144.7000 C   0  0  0  0  0  2  0  0  0  0  0  0
  196.0730  170.8220  142.9520 C   0  0  1  0  0  3  0  0  0  0  0  0
  195.0200  169.8240  143.4000 C   0  0  0  0  0  1  0  0  0  0  0  0
  195.6540  171.4580  141.7800 O   0  0  0  0  0  0  0  0  0  0  0  0
  194.5040  170.8320  141.4380 N   0  0  0  0  0  2  0  0  0  0  0  0
  193.8060  171.7130  140.5130 C   0  0  0  0  0  2  0  0  0  0  0  0
  191.4070  172.0650  139.8230 C   0  0  0  0  0  2  0  0  0  0  0  0
  190.4390  170.7330  142.0870 C   0  0  0  0  0  2  0  0  0  0  0  0
  189.6730  172.0030  141.7220 C   0  0  0  0  0  2  0  0  0  0  0  0
  191.9520  170.9790  142.0630 C   0  0  0  0  0  2  0  0  0  0  0  0
  189.9980  172.4620  140.2910 C   0  0  1  0  0  3  0  0  0  0  0  0
  192.3880  171.9950  140.9950 C   0  0  1  0  0  3  0  0  0  0  0  0
  189.8420  173.8470  140.2030 O   0  0  0  0  0  0  0  0  0  0  0  0
  189.2730  174.2230  141.4210 C   0  0  0  0  0  2  0  0  0  0  0  0
  187.3100  175.3640  142.3980 C   0  0  0  0  0  1  0  0  0  0  0  0
  188.1990  175.2620  141.1770 C   0  0  0  0  0  2  0  0  0  0  0  0
  1  8  1  0  0  0  0
  1  7  1  0  0  0  0
  2  4  2  0  0  0  0
  2  5  1  0  0  0  0
  3 11  1  0  0  0  0
  4 12  1  0  0  0  0
  5 13  2  0  0  0  0
  6  4  1  0  0  0  0
  6  7  2  0  0  0  0
  7 14  1  0  0  0  0
  8  9  1  0  0  0  0
  9 16  1  0  0  0  0
  9  3  2  0  0  0  0
 12 13  1  0  0  0  0
 12 10  2  0  0  0  0
 14 10  1  0  0  0  0
 14 11  2  0  0  0  0
 15 18  2  0  0  0  0
 15 16  1  0  0  0  0
 16 17  2  0  0  0  0
 17 20  1  0  0  0  0
 18 19  1  0  0  0  0
 19 22  1  0  0  0  0
 19 20  2  0  0  0  0
 22 21  1  0  0  0  0
 23 25  1  6  0  0  0
 23 22  1  0  0  0  0
 23 21  1  0  0  0  0
 24 25  1  0  0  0  0
 26 27  1  1  0  0  0
 26  2  1  0  0  0  0
 28 26  1  0  0  0  0
 29 28  1  0  0  0  0
 30 29  1  0  0  0  0
 31 35  1  0  0  0  0
 31 36  1  0  0  0  0
 33 32  1  0  0  0  0
 34 32  1  0  0  0  0
 35 37  1  1  0  0  0
 35 33  1  0  0  0  0
 36 30  1  6  0  0  0
 36 34  1  0  0  0  0
 37 38  1  0  0  0  0
 40 38  1  0  0  0  0
 40 39  1  0  0  0  0
M  END
>  <MODEL>
7

>  <REMARK>
 VINA RESULT:      -6.6      2.984      4.921
  Name = 
  11 active torsions:
  status: ('A' for Active; 'I' for Inactive)
    1  A    between atoms: C_2  and  C_3
    2  A    between atoms: C_3  and  O_24
    3  A    between atoms: N_6  and  O_24
    4  A    between atoms: N_6  and  C_37
    5  A    between atoms: C_11  and  C_18
    6  A    between atoms: C_20  and  C_23
    7  A    between atoms: C_20  and  O_36
    8  A    between atoms: N_21  and  C_34
    9  A    between atoms: C_30  and  C_38
   10  A    between atoms: C_31  and  O_36
   11  A    between atoms: C_35  and  C_37
                            x       y       z     vdW  Elec       q    Type
                         _______ _______ _______ _____ _____    ______ ____

>  <TORSDO>
F 11

$$$$
=
 OpenBabel11042419273D

 40 45  0  0  1  0  0  0  0  0999 V2000
  191.8000  173.2770  144.6490 C   0  0  0  0  0  2  0  0  0  0  0  0
  195.7720  170.6800  145.3460 C   0  0  0  0  0  0  0  0  0  0  0  0
  191.9440  175.9240  146.1880 C   0  0  0  0  0  3  0  0  0  0  0  0
  195.0570  171.7890  145.3300 C   0  0  0  0  0  0  0  0  0  0  0  0
  197.1780  171.0140  145.7450 C   0  0  0  0  0  3  0  0  0  0  0  0
  193.6860  171.9290  144.9810 N   0  0  0  0  0  0  0  0  0  0  0  0
  193.0530  173.2120  145.0920 C   0  0  0  0  0  0  0  0  0  0  0  0
  190.9200  174.3620  144.6630 O   0  0  0  0  0  0  0  0  0  0  0  0
  190.8730  175.4290  145.5660 C   0  0  0  0  0  0  0  0  0  0  0  0
  195.3620  174.3060  145.6580 C   0  0  0  0  0  3  0  0  0  0  0  0
  193.3390  175.5010  146.0890 C   0  0  0  0  0  3  0  0  0  0  0  0
  195.8670  172.9040  145.6990 C   0  0  0  0  0  0  0  0  0  0  0  0
  197.1100  172.5090  145.9220 C   0  0  0  0  0  3  0  0  0  0  0  0
  193.8500  174.3710  145.6130 C   0  0  0  0  0  0  0  0  0  0  0  0
  189.1030  177.0580  144.9070 C   0  0  0  0  0  3  0  0  0  0  0  0
  189.5550  176.0690  145.7930 C   0  0  0  0  0  0  0  0  0  0  0  0
  188.7370  175.7030  146.8790 C   0  0  0  0  0  3  0  0  0  0  0  0
  187.8600  177.6700  145.0970 C   0  0  0  0  0  3  0  0  0  0  0  0
  187.0570  177.2990  146.1790 C   0  0  0  0  0  0  0  0  0  0  0  0
  187.4950  176.3160  147.0700 C   0  0  0  0  0  3  0  0  0  0  0  0
  184.3860  177.9270  146.8760 C   0  0  0  0  0  2  0  0  0  0  0  0
  185.7890  177.9170  146.3690 N   0  0  0  0  0  0  0  0  0  0  0  0
  184.8220  179.0400  146.1860 C   0  0  1  0  0  3  0  0  0  0  0  0
  185.1890  179.8930  143.8880 C   0  0  0  0  0  1  0  0  0  0  0  0
  184.3110  179.0150  144.7580 C   0  0  0  0  0  2  0  0  0  0  0  0
  195.2980  169.3050  144.9830 C   0  0  1  0  0  3  0  0  0  0  0  0
  194.2450  168.8220  145.9650 C   0  0  0  0  0  1  0  0  0  0  0  0
  194.7760  169.2940  143.6860 O   0  0  0  0  0  0  0  0  0  0  0  0
  193.5810  168.6690  143.8000 N   0  0  0  0  0  2  0  0  0  0  0  0
  192.9200  168.7930  142.5080 C   0  0  0  0  0  2  0  0  0  0  0  0
  193.3280  170.8680  141.1370 C   0  0  0  0  0  2  0  0  0  0  0  0
  190.6020  171.4990  141.0680 C   0  0  0  0  0  2  0  0  0  0  0  0
  191.5240  172.6940  141.3000 C   0  0  0  0  0  2  0  0  0  0  0  0
  190.9840  170.3260  141.9780 C   0  0  0  0  0  2  0  0  0  0  0  0
  192.9820  172.3540  140.9500 C   0  0  1  0  0  3  0  0  0  0  0  0
  192.4940  170.2330  142.2510 C   0  0  1  0  0  3  0  0  0  0  0  0
  193.8390  173.1400  141.7230 O   0  0  0  0  0  0  0  0  0  0  0  0
  193.9710  174.3350  141.0110 C   0  0  0  0  0  2  0  0  0  0  0  0
  192.8880  176.0740  142.3930 C   0  0  0  0  0  1  0  0  0  0  0  0
  194.2150  175.4730  141.9780 C   0  0  0  0  0  2  0  0  0  0  0  0
  1  8  1  0  0  0  0
  1  7  1  0  0  0  0
  2  5  1  0  0  0  0
  4  2  2  0  0  0  0
  4 12  1  0  0  0  0
  5 13  2  0  0  0  0
  6  7  2  0  0  0  0
  6  4  1  0  0  0  0
  7 14  1  0  0  0  0
  8  9  1  0  0  0  0
  9 16  1  0  0  0  0
  9  3  2  0  0  0  0
 10 12  2  0  0  0  0
 11  3  1  0  0  0  0
 12 13  1  0  0  0  0
 14 10  1  0  0  0  0
 14 11  2  0  0  0  0
 15 18  2  0  0  0  0
 15 16  1  0  0  0  0
 16 17  2  0  0  0  0
 17 20  1  0  0  0  0
 18 19  1  0  0  0  0
 19 22  1  0  0  0  0
 19 20  2  0  0  0  0
 22 21  1  0  0  0  0
 23 25  1  6  0  0  0
 23 22  1  0  0  0  0
 23 21  1  0  0  0  0
 24 25  1  0  0  0  0
 26  2  1  0  0  0  0
 26 27  1  1  0  0  0
 28 29  1  0  0  0  0
 28 26  1  0  0  0  0
 30 29  1  0  0  0  0
 31 36  1  0  0  0  0
 32 33  1  0  0  0  0
 32 34  1  0  0  0  0
 34 36  1  0  0  0  0
 35 31  1  0  0  0  0
 35 33  1  0  0  0  0
 35 37  1  1  0  0  0
 36 30  1  6  0  0  0
 38 37  1  0  0  0  0
 38 40  1  0  0  0  0
 40 39  1  0  0  0  0
M  END
>  <MODEL>
8

>  <REMARK>
 VINA RESULT:      -6.6      3.185      5.580
  Name = 
  11 active torsions:
  status: ('A' for Active; 'I' for Inactive)
    1  A    between atoms: C_2  and  C_3
    2  A    between atoms: C_3  and  O_24
    3  A    between atoms: N_6  and  O_24
    4  A    between atoms: N_6  and  C_37
    5  A    between atoms: C_11  and  C_18
    6  A    between atoms: C_20  and  C_23
    7  A    between atoms: C_20  and  O_36
    8  A    between atoms: N_21  and  C_34
    9  A    between atoms: C_30  and  C_38
   10  A    between atoms: C_31  and  O_36
   11  A    between atoms: C_35  and  C_37
                            x       y       z     vdW  Elec       q    Type
                         _______ _______ _______ _____ _____    ______ ____

>  <TORSDO>
F 11

$$$$
=
 OpenBabel11042419273D

 40 45  0  0  1  0  0  0  0  0999 V2000
  192.7960  175.8170  143.3230 C   0  0  0  0  0  2  0  0  0  0  0  0
  196.6190  172.9290  143.5580 C   0  0  0  0  0  0  0  0  0  0  0  0
  191.6890  176.3890  146.1240 C   0  0  0  0  0  3  0  0  0  0  0  0
  195.7390  173.7870  144.0370 C   0  0  0  0  0  0  0  0  0  0  0  0
  197.6220  172.6140  144.6260 C   0  0  0  0  0  3  0  0  0  0  0  0
  194.6370  174.3700  143.3530 N   0  0  0  0  0  0  0  0  0  0  0  0
  193.7390  175.2350  144.0610 C   0  0  0  0  0  0  0  0  0  0  0  0
  191.7640  176.6650  143.7300 O   0  0  0  0  0  0  0  0  0  0  0  0
  191.1090  176.7060  144.9660 C   0  0  0  0  0  0  0  0  0  0  0  0
  195.2980  175.1400  146.1620 C   0  0  0  0  0  3  0  0  0  0  0  0
  193.0600  175.9480  146.3740 C   0  0  0  0  0  3  0  0  0  0  0  0
  196.0490  174.1070  145.3930 C   0  0  0  0  0  0  0  0  0  0  0  0
  197.1470  173.4730  145.7700 C   0  0  0  0  0  3  0  0  0  0  0  0
  193.9650  175.4730  145.5250 C   0  0  0  0  0  0  0  0  0  0  0  0
  189.1430  177.7050  143.8010 C   0  0  0  0  0  3  0  0  0  0  0  0
  189.7050  177.1810  144.9750 C   0  0  0  0  0  0  0  0  0  0  0  0
  188.9130  177.1130  146.1360 C   0  0  0  0  0  3  0  0  0  0  0  0
  187.8180  178.1520  143.7840 C   0  0  0  0  0  3  0  0  0  0  0  0
  187.0420  178.0800  144.9440 C   0  0  0  0  0  0  0  0  0  0  0  0
  187.5880  177.5610  146.1200 C   0  0  0  0  0  3  0  0  0  0  0  0
  184.3320  178.6570  145.5280 C   0  0  0  0  0  2  0  0  0  0  0  0
  185.6910  178.5300  144.9250 N   0  0  0  0  0  0  0  0  0  0  0  0
  184.5280  179.2030  144.2750 C   0  0  1  0  0  3  0  0  0  0  0  0
  184.7100  178.5220  141.8990 C   0  0  0  0  0  1  0  0  0  0  0  0
  183.9720  178.2880  143.2020 C   0  0  0  0  0  2  0  0  0  0  0  0
  196.6630  172.3770  142.1640 C   0  0  1  0  0  3  0  0  0  0  0  0
  197.7710  173.0350  141.3610 C   0  0  0  0  0  1  0  0  0  0  0  0
  196.8560  170.9930  142.1920 O   0  0  0  0  0  0  0  0  0  0  0  0
  195.8210  170.4860  141.4830 N   0  0  0  0  0  2  0  0  0  0  0  0
  194.7850  170.1370  142.4460 C   0  0  0  0  0  2  0  0  0  0  0  0
  192.8290  171.7060  142.7030 C   0  0  0  0  0  2  0  0  0  0  0  0
  192.3820  171.7880  139.9410 C   0  0  0  0  0  2  0  0  0  0  0  0
  191.1150  171.6850  140.7850 C   0  0  0  0  0  2  0  0  0  0  0  0
  193.4360  170.7780  140.4080 C   0  0  0  0  0  2  0  0  0  0  0  0
  191.3930  172.0270  142.2590 C   0  0  1  0  0  3  0  0  0  0  0  0
  193.4060  170.5220  141.9240 C   0  0  1  0  0  3  0  0  0  0  0  0
  190.4830  171.3460  143.0710 O   0  0  0  0  0  0  0  0  0  0  0  0
  189.3630  172.1800  143.1330 C   0  0  0  0  0  2  0  0  0  0  0  0
  189.7480  173.3410  145.2810 C   0  0  0  0  0  1  0  0  0  0  0  0
  189.7500  173.4950  143.7750 C   0  0  0  0  0  2  0  0  0  0  0  0
  1  8  1  0  0  0  0
  1  7  1  0  0  0  0
  2  4  2  0  0  0  0
  2  5  1  0  0  0  0
  3 11  1  0  0  0  0
  4 12  1  0  0  0  0
  5 13  2  0  0  0  0
  6  4  1  0  0  0  0
  6  7  2  0  0  0  0
  7 14  1  0  0  0  0
  8  9  1  0  0  0  0
  9 16  1  0  0  0  0
  9  3  2  0  0  0  0
 12 13  1  0  0  0  0
 12 10  2  0  0  0  0
 14 10  1  0  0  0  0
 14 11  2  0  0  0  0
 15 16  1  0  0  0  0
 16 17  2  0  0  0  0
 18 15  2  0  0  0  0
 18 19  1  0  0  0  0
 19 20  2  0  0  0  0
 20 17  1  0  0  0  0
 22 19  1  0  0  0  0
 22 21  1  0  0  0  0
 23 25  1  6  0  0  0
 23 22  1  0  0  0  0
 23 21  1  0  0  0  0
 24 25  1  0  0  0  0
 26 27  1  6  0  0  0
 26 28  1  0  0  0  0
 26  2  1  0  0  0  0
 29 28  1  0  0  0  0
 29 30  1  0  0  0  0
 32 34  1  0  0  0  0
 32 33  1  0  0  0  0
 33 35  1  0  0  0  0
 34 36  1  0  0  0  0
 35 31  1  0  0  0  0
 35 37  1  1  0  0  0
 36 30  1  1  0  0  0
 36 31  1  0  0  0  0
 37 38  1  0  0  0  0
 38 40  1  0  0  0  0
 40 39  1  0  0  0  0
M  END
>  <MODEL>
9

>  <REMARK>
 VINA RESULT:      -6.6      2.549      4.739
  Name = 
  11 active torsions:
  status: ('A' for Active; 'I' for Inactive)
    1  A    between atoms: C_2  and  C_3
    2  A    between atoms: C_3  and  O_24
    3  A    between atoms: N_6  and  O_24
    4  A    between atoms: N_6  and  C_37
    5  A    between atoms: C_11  and  C_18
    6  A    between atoms: C_20  and  C_23
    7  A    between atoms: C_20  and  O_36
    8  A    between atoms: N_21  and  C_34
    9  A    between atoms: C_30  and  C_38
   10  A    between atoms: C_31  and  O_36
   11  A    between atoms: C_35  and  C_37
                            x       y       z     vdW  Elec       q    Type
                         _______ _______ _______ _____ _____    ______ ____

>  <TORSDO>
F 11

$$$$
