=
 OpenBabel11042414203D

 27 31  0  0  1  0  0  0  0  0999 V2000
  190.7950  177.3290  146.9890 C   0  0  0  0  0  3  0  0  0  0  0  0
  187.1820  176.9720  147.0360 C   0  0  0  0  0  3  0  0  0  0  0  0
  191.7930  176.5850  147.6170 C   0  0  0  0  0  3  0  0  0  0  0  0
  190.0110  176.7400  145.9920 C   0  0  0  0  0  0  0  0  0  0  0  0
  185.1870  177.1670  145.1180 C   0  0  0  0  0  3  0  0  0  0  0  0
  189.6880  175.2890  143.2910 N   0  0  1  0  0  0  0  0  0  0  0  0
  189.2500  177.8740  143.9710 O   0  0  0  0  0  0  0  0  0  0  0  0
  186.5160  177.4010  144.7540 C   0  0  0  0  0  0  0  0  0  0  0  0
  188.9600  177.5930  145.3390 C   0  0  1  0  0  3  0  0  0  0  0  0
  186.8670  177.7700  143.3520 C   0  0  1  0  0  3  0  0  0  0  0  0
  189.3110  174.5080  141.0610 C   0  0  2  0  0  3  0  0  0  0  0  0
  185.8430  176.7440  147.3610 C   0  0  0  0  0  3  0  0  0  0  0  0
  186.7150  179.2670  143.1440 C   0  0  0  0  0  1  0  0  0  0  0  0
  189.9960  174.2030  142.3740 C   0  0  0  0  0  2  0  0  0  0  0  0
  191.2610  174.6900  146.2940 C   0  0  0  0  0  3  0  0  0  0  0  0
  188.1960  175.4670  141.4010 C   0  0  0  0  0  2  0  0  0  0  0  0
  187.5250  177.2900  145.7170 C   0  0  0  0  0  0  0  0  0  0  0  0
  188.4010  175.8190  142.8620 C   0  0  2  0  0  3  0  0  0  0  0  0
  189.4570  174.6860  144.5930 C   0  0  0  0  0  2  0  0  0  0  0  0
  184.8810  176.8430  146.4030 N   0  0  0  0  0  0  0  0  0  0  0  0
  190.2490  175.3950  145.6390 C   0  0  0  0  0  0  0  0  0  0  0  0
  192.0050  175.2910  147.2600 N   0  0  0  0  0  0  0  0  0  0  0  0
  188.3050  177.3390  143.0540 C   0  0  2  0  0  3  0  0  0  0  0  0
  188.9430  171.6220  138.6660 O   0  0  0  0  0  1  0  0  0  0  0  0
  188.7770  173.2610  140.4330 C   0  0  0  0  0  0  0  0  0  0  0  0
  187.7840  172.6660  140.9350 O   0  0  0  0  0  0  0  0  0  0  0  0
  189.4010  172.7490  139.2590 N   0  0  0  0  0  2  0  0  0  0  0  0
  1  3  1  0  0  0  0
  2 12  1  0  0  0  0
  4  1  2  0  0  0  0
  5 20  1  0  0  0  0
  6 14  1  6  0  0  0
  6 19  1  0  0  0  0
  8  5  2  0  0  0  0
  8 17  1  0  0  0  0
  9  7  1  6  0  0  0
  9 17  1  0  0  0  0
  9  4  1  0  0  0  0
 10 13  1  1  0  0  0
 10  8  1  0  0  0  0
 11 25  1  1  0  0  0
 11 16  1  0  0  0  0
 11 14  1  0  0  0  0
 15 22  1  0  0  0  0
 17  2  2  0  0  0  0
 18 16  1  6  0  0  0
 18 23  1  0  0  0  0
 18  6  1  0  0  0  0
 19 21  1  0  0  0  0
 20 12  2  0  0  0  0
 21  4  1  0  0  0  0
 21 15  2  0  0  0  0
 22  3  2  0  0  0  0
 23 10  1  0  0  0  0
 23  7  1  1  0  0  0
 24 27  1  0  0  0  0
 25 26  2  0  0  0  0
 27 25  1  0  0  0  0
M  END
>  <MODEL>
1

>  <REMARK>
 VINA RESULT:      -7.2      0.000      0.000
  Name = 
  1 active torsions:
  status: ('A' for Active; 'I' for Inactive)
    1  A    between atoms: C_9  and  C_13
                            x       y       z     vdW  Elec       q    Type
                         _______ _______ _______ _____ _____    ______ ____

>  <TORSDO>
F 1

$$$$
=
 OpenBabel11042414203D

 27 31  0  0  1  0  0  0  0  0999 V2000
  191.3880  173.0870  142.5190 C   0  0  0  0  0  3  0  0  0  0  0  0
  190.5240  174.6180  145.6960 C   0  0  0  0  0  3  0  0  0  0  0  0
  191.0040  171.8680  141.9590 C   0  0  0  0  0  3  0  0  0  0  0  0
  190.4360  174.0910  142.7190 C   0  0  0  0  0  0  0  0  0  0  0  0
  189.8800  177.1950  146.4980 C   0  0  0  0  0  3  0  0  0  0  0  0
  188.2610  176.0190  141.6890 N   0  0  1  0  0  0  0  0  0  0  0  0
  190.8380  176.4740  142.3880 O   0  0  0  0  0  0  0  0  0  0  0  0
  190.1990  176.9510  145.1590 C   0  0  0  0  0  0  0  0  0  0  0  0
  190.9080  175.3890  143.3120 C   0  0  1  0  0  3  0  0  0  0  0  0
  190.2130  178.0630  144.1650 C   0  0  1  0  0  3  0  0  0  0  0  0
  186.8450  177.7940  140.9330 C   0  0  2  0  0  3  0  0  0  0  0  0
  190.1980  174.9010  147.0240 C   0  0  0  0  0  3  0  0  0  0  0  0
  191.5540  178.7770  144.1880 C   0  0  0  0  0  1  0  0  0  0  0  0
  187.0220  176.2920  140.9790 C   0  0  0  0  0  2  0  0  0  0  0  0
  188.7590  172.6140  141.7880 C   0  0  0  0  0  3  0  0  0  0  0  0
  187.6840  178.3330  142.0660 C   0  0  0  0  0  2  0  0  0  0  0  0
  190.5110  175.6490  144.7500 C   0  0  0  0  0  0  0  0  0  0  0  0
  188.4540  177.1410  142.5990 C   0  0  2  0  0  3  0  0  0  0  0  0
  188.0150  174.8600  142.5310 C   0  0  0  0  0  2  0  0  0  0  0  0
  189.8830  176.1720  147.3950 N   0  0  0  0  0  0  0  0  0  0  0  0
  189.0960  173.8500  142.3470 C   0  0  0  0  0  0  0  0  0  0  0  0
  189.7080  171.6580  141.6080 N   0  0  0  0  0  0  0  0  0  0  0  0
  189.9350  177.5050  142.7680 C   0  0  2  0  0  3  0  0  0  0  0  0
  183.4760  178.2920  142.5450 O   0  0  0  0  0  1  0  0  0  0  0  0
  185.4080  178.1700  141.0990 C   0  0  0  0  0  0  0  0  0  0  0  0
  184.7600  178.6650  140.1370 O   0  0  0  0  0  0  0  0  0  0  0  0
  184.7760  177.9620  142.3590 N   0  0  0  0  0  2  0  0  0  0  0  0
  1  4  1  0  0  0  0
  2 12  1  0  0  0  0
  3  1  2  0  0  0  0
  4  9  1  0  0  0  0
  5 20  1  0  0  0  0
  6 14  1  6  0  0  0
  6 19  1  0  0  0  0
  6 18  1  0  0  0  0
  8  5  2  0  0  0  0
  9  7  1  6  0  0  0
  9 17  1  0  0  0  0
 10 13  1  6  0  0  0
 10  8  1  0  0  0  0
 11 14  1  0  0  0  0
 11 25  1  1  0  0  0
 11 16  1  0  0  0  0
 12 20  2  0  0  0  0
 15 21  1  0  0  0  0
 17  8  1  0  0  0  0
 17  2  2  0  0  0  0
 18 16  1  6  0  0  0
 18 23  1  0  0  0  0
 21 19  1  0  0  0  0
 21  4  2  0  0  0  0
 22 15  2  0  0  0  0
 22  3  1  0  0  0  0
 23  7  1  1  0  0  0
 23 10  1  0  0  0  0
 25 27  1  0  0  0  0
 26 25  2  0  0  0  0
 27 24  1  0  0  0  0
M  END
>  <MODEL>
2

>  <REMARK>
 VINA RESULT:      -7.1      2.661      4.972
  Name = 
  1 active torsions:
  status: ('A' for Active; 'I' for Inactive)
    1  A    between atoms: C_9  and  C_13
                            x       y       z     vdW  Elec       q    Type
                         _______ _______ _______ _____ _____    ______ ____

>  <TORSDO>
F 1

$$$$
=
 OpenBabel11042414203D

 27 31  0  0  1  0  0  0  0  0999 V2000
  188.7710  172.7440  141.7380 C   0  0  0  0  0  3  0  0  0  0  0  0
  187.7270  175.9510  143.0800 C   0  0  0  0  0  3  0  0  0  0  0  0
  189.0600  172.3520  140.4310 C   0  0  0  0  0  3  0  0  0  0  0  0
  189.5910  173.6740  142.3830 C   0  0  0  0  0  0  0  0  0  0  0  0
  188.3840  177.4150  145.3440 C   0  0  0  0  0  3  0  0  0  0  0  0
  192.3350  174.6160  143.4270 N   0  0  1  0  0  0  0  0  0  0  0  0
  190.2030  173.5860  144.7420 O   0  0  0  0  0  0  0  0  0  0  0  0
  188.9690  176.1620  145.1420 C   0  0  0  0  0  0  0  0  0  0  0  0
  189.2410  174.0480  143.7960 C   0  0  1  0  0  3  0  0  0  0  0  0
  189.9270  175.6000  146.1380 C   0  0  1  0  0  3  0  0  0  0  0  0
  194.3260  175.2550  144.5910 C   0  0  2  0  0  3  0  0  0  0  0  0
  187.1650  177.2080  143.3170 C   0  0  0  0  0  3  0  0  0  0  0  0
  189.1770  174.8910  147.2530 C   0  0  0  0  0  1  0  0  0  0  0  0
  193.7450  174.9150  143.2360 C   0  0  0  0  0  2  0  0  0  0  0  0
  190.9550  173.7780  140.3860 C   0  0  0  0  0  3  0  0  0  0  0  0
  193.1490  175.6700  145.4400 C   0  0  0  0  0  2  0  0  0  0  0  0
  188.6500  175.4280  143.9940 C   0  0  0  0  0  0  0  0  0  0  0  0
  191.9230  175.3750  144.6000 C   0  0  2  0  0  3  0  0  0  0  0  0
  191.6270  175.2020  142.3020 C   0  0  0  0  0  2  0  0  0  0  0  0
  187.5040  177.9090  144.4330 N   0  0  0  0  0  0  0  0  0  0  0  0
  190.7040  174.2010  141.6940 C   0  0  0  0  0  0  0  0  0  0  0  0
  190.1370  172.8730  139.7870 N   0  0  0  0  0  0  0  0  0  0  0  0
  190.8790  174.6260  145.4390 C   0  0  2  0  0  3  0  0  0  0  0  0
  197.2610  177.2670  143.3530 O   0  0  0  0  0  1  0  0  0  0  0  0
  195.3290  176.3570  144.4830 C   0  0  0  0  0  0  0  0  0  0  0  0
  195.2840  177.3430  145.2690 O   0  0  0  0  0  0  0  0  0  0  0  0
  196.3380  176.2850  143.4800 N   0  0  0  0  0  2  0  0  0  0  0  0
  1  4  1  0  0  0  0
  2 12  2  0  0  0  0
  2 17  1  0  0  0  0
  3  1  2  0  0  0  0
  6 19  1  6  0  0  0
  6 18  1  0  0  0  0
  8  5  1  0  0  0  0
  8 10  1  0  0  0  0
  9  4  1  6  0  0  0
  9 17  1  0  0  0  0
  9  7  1  0  0  0  0
 10 13  1  1  0  0  0
 11 25  1  6  0  0  0
 11 16  1  0  0  0  0
 12 20  1  0  0  0  0
 14  6  1  0  0  0  0
 14 11  1  0  0  0  0
 15 21  1  0  0  0  0
 17  8  2  0  0  0  0
 18 23  1  0  0  0  0
 18 16  1  1  0  0  0
 20  5  2  0  0  0  0
 21 19  1  0  0  0  0
 21  4  2  0  0  0  0
 22 15  2  0  0  0  0
 22  3  1  0  0  0  0
 23  7  1  6  0  0  0
 23 10  1  0  0  0  0
 24 27  1  0  0  0  0
 25 26  2  0  0  0  0
 27 25  1  0  0  0  0
M  END
>  <MODEL>
3

>  <REMARK>
 VINA RESULT:      -7.1      3.101      5.953
  Name = 
  1 active torsions:
  status: ('A' for Active; 'I' for Inactive)
    1  A    between atoms: C_9  and  C_13
                            x       y       z     vdW  Elec       q    Type
                         _______ _______ _______ _____ _____    ______ ____

>  <TORSDO>
F 1

$$$$
=
 OpenBabel11042414203D

 27 31  0  0  1  0  0  0  0  0999 V2000
  191.6490  175.2900  147.3200 C   0  0  0  0  0  3  0  0  0  0  0  0
  193.1190  175.6720  144.0230 C   0  0  0  0  0  3  0  0  0  0  0  0
  191.5580  176.1830  148.3880 C   0  0  0  0  0  3  0  0  0  0  0  0
  190.9570  175.5510  146.1340 C   0  0  0  0  0  0  0  0  0  0  0  0
  192.3670  174.9140  141.4620 C   0  0  0  0  0  3  0  0  0  0  0  0
  188.3600  176.1070  144.5680 N   0  0  1  0  0  0  0  0  0  0  0  0
  189.8570  173.8580  144.7650 O   0  0  0  0  0  0  0  0  0  0  0  0
  191.5560  174.5700  142.5470 C   0  0  0  0  0  0  0  0  0  0  0  0
  191.0790  174.5470  145.0220 C   0  0  1  0  0  3  0  0  0  0  0  0
  190.3030  173.7860  142.3420 C   0  0  1  0  0  3  0  0  0  0  0  0
  186.3790  176.1690  143.2260 C   0  0  2  0  0  3  0  0  0  0  0  0
  193.9020  175.9990  142.9130 C   0  0  0  0  0  3  0  0  0  0  0  0
  190.6100  172.2980  142.3050 C   0  0  0  0  0  1  0  0  0  0  0  0
  187.1350  176.8570  144.3410 C   0  0  0  0  0  2  0  0  0  0  0  0
  190.1110  177.5860  147.1360 C   0  0  0  0  0  3  0  0  0  0  0  0
  187.4140  175.3690  142.4720 C   0  0  0  0  0  2  0  0  0  0  0  0
  191.9270  174.9620  143.8380 C   0  0  0  0  0  0  0  0  0  0  0  0
  188.6840  175.4800  143.2930 C   0  0  2  0  0  3  0  0  0  0  0  0
  189.4090  177.0820  144.8120 C   0  0  0  0  0  2  0  0  0  0  0  0
  193.5120  175.6190  141.6660 N   0  0  0  0  0  0  0  0  0  0  0  0
  190.1740  176.7210  146.0400 C   0  0  0  0  0  0  0  0  0  0  0  0
  190.7970  177.3040  148.2750 N   0  0  0  0  0  0  0  0  0  0  0  0
  189.3170  174.0940  143.4710 C   0  0  2  0  0  3  0  0  0  0  0  0
  185.6630  178.2910  140.1950 O   0  0  0  0  0  1  0  0  0  0  0  0
  185.7150  177.1680  142.3340 C   0  0  0  0  0  0  0  0  0  0  0  0
  184.7000  177.8040  142.7290 O   0  0  0  0  0  0  0  0  0  0  0  0
  186.2400  177.3950  141.0290 N   0  0  0  0  0  2  0  0  0  0  0  0
  1  3  1  0  0  0  0
  4  1  2  0  0  0  0
  5 20  2  0  0  0  0
  5  8  1  0  0  0  0
  6 14  1  6  0  0  0
  6 19  1  0  0  0  0
  7  9  1  0  0  0  0
  8 17  2  0  0  0  0
  9 17  1  6  0  0  0
  9  4  1  0  0  0  0
 10 13  1  1  0  0  0
 10  8  1  0  0  0  0
 10 23  1  0  0  0  0
 11 25  1  6  0  0  0
 11 14  1  0  0  0  0
 12  2  2  0  0  0  0
 15 22  1  0  0  0  0
 16 11  1  0  0  0  0
 17  2  1  0  0  0  0
 18 16  1  6  0  0  0
 18 23  1  0  0  0  0
 18  6  1  0  0  0  0
 19 21  1  0  0  0  0
 20 12  1  0  0  0  0
 21  4  1  0  0  0  0
 21 15  2  0  0  0  0
 22  3  2  0  0  0  0
 23  7  1  1  0  0  0
 24 27  1  0  0  0  0
 25 26  2  0  0  0  0
 27 25  1  0  0  0  0
M  END
>  <MODEL>
4

>  <REMARK>
 VINA RESULT:      -7.0      2.668      5.221
  Name = 
  1 active torsions:
  status: ('A' for Active; 'I' for Inactive)
    1  A    between atoms: C_9  and  C_13
                            x       y       z     vdW  Elec       q    Type
                         _______ _______ _______ _____ _____    ______ ____

>  <TORSDO>
F 1

$$$$
=
 OpenBabel11042414203D

 27 31  0  0  1  0  0  0  0  0999 V2000
  191.0880  173.7330  140.3130 C   0  0  0  0  0  3  0  0  0  0  0  0
  190.1640  172.7910  143.6950 C   0  0  0  0  0  3  0  0  0  0  0  0
  190.6980  173.2070  139.0810 C   0  0  0  0  0  3  0  0  0  0  0  0
  190.1480  174.3790  141.1210 C   0  0  0  0  0  0  0  0  0  0  0  0
  189.5440  174.2020  146.0020 C   0  0  0  0  0  3  0  0  0  0  0  0
  188.0370  176.5710  141.6160 N   0  0  1  0  0  0  0  0  0  0  0  0
  190.6020  176.3650  142.4630 O   0  0  0  0  0  0  0  0  0  0  0  0
  189.8950  174.8990  144.8440 C   0  0  0  0  0  0  0  0  0  0  0  0
  190.6270  174.9390  142.4320 C   0  0  1  0  0  3  0  0  0  0  0  0
  189.9550  176.3900  144.8410 C   0  0  1  0  0  3  0  0  0  0  0  0
  186.6740  178.4430  142.2190 C   0  0  2  0  0  3  0  0  0  0  0  0
  189.8070  172.1300  144.8720 C   0  0  0  0  0  3  0  0  0  0  0  0
  191.3080  176.8660  145.3450 C   0  0  0  0  0  1  0  0  0  0  0  0
  186.8230  177.2860  141.2560 C   0  0  0  0  0  2  0  0  0  0  0  0
  188.4720  173.9480  139.4290 C   0  0  0  0  0  3  0  0  0  0  0  0
  187.4900  178.0660  143.4310 C   0  0  0  0  0  2  0  0  0  0  0  0
  190.1960  174.1900  143.6750 C   0  0  0  0  0  0  0  0  0  0  0  0
  188.2240  176.7970  143.0430 C   0  0  2  0  0  3  0  0  0  0  0  0
  187.7480  175.1540  141.4710 C   0  0  0  0  0  2  0  0  0  0  0  0
  189.5040  172.8420  145.9920 N   0  0  0  0  0  0  0  0  0  0  0  0
  188.8160  174.4880  140.6710 C   0  0  0  0  0  0  0  0  0  0  0  0
  189.4090  173.3240  138.6680 N   0  0  0  0  0  0  0  0  0  0  0  0
  189.7060  176.9110  143.4240 C   0  0  2  0  0  3  0  0  0  0  0  0
  182.9120  178.3290  142.0190 O   0  0  0  0  0  1  0  0  0  0  0  0
  185.2400  178.6570  142.5800 C   0  0  0  0  0  0  0  0  0  0  0  0
  184.9310  179.2780  143.6350 O   0  0  0  0  0  0  0  0  0  0  0  0
  184.2210  178.1530  141.7210 N   0  0  0  0  0  2  0  0  0  0  0  0
  1  4  1  0  0  0  0
  2 12  1  0  0  0  0
  3  1  2  0  0  0  0
  6 14  1  1  0  0  0
  6 18  1  0  0  0  0
  8  5  2  0  0  0  0
  9  4  1  6  0  0  0
  9  7  1  0  0  0  0
  9 17  1  0  0  0  0
 10  8  1  0  0  0  0
 10 13  1  6  0  0  0
 11 25  1  1  0  0  0
 11 16  1  0  0  0  0
 12 20  2  0  0  0  0
 14 11  1  0  0  0  0
 15 21  1  0  0  0  0
 17  2  2  0  0  0  0
 17  8  1  0  0  0  0
 18 23  1  0  0  0  0
 18 16  1  6  0  0  0
 19  6  1  0  0  0  0
 20  5  1  0  0  0  0
 21  4  2  0  0  0  0
 21 19  1  0  0  0  0
 22  3  1  0  0  0  0
 22 15  2  0  0  0  0
 23  7  1  6  0  0  0
 23 10  1  0  0  0  0
 25 26  2  0  0  0  0
 27 24  1  0  0  0  0
 27 25  1  0  0  0  0
M  END
>  <MODEL>
5

>  <REMARK>
 VINA RESULT:      -6.9      2.653      5.884
  Name = 
  1 active torsions:
  status: ('A' for Active; 'I' for Inactive)
    1  A    between atoms: C_9  and  C_13
                            x       y       z     vdW  Elec       q    Type
                         _______ _______ _______ _____ _____    ______ ____

>  <TORSDO>
F 1

$$$$
=
 OpenBabel11042414203D

 27 31  0  0  1  0  0  0  0  0999 V2000
  188.5710  175.6780  146.7090 C   0  0  0  0  0  3  0  0  0  0  0  0
  191.9700  176.2810  145.5850 C   0  0  0  0  0  3  0  0  0  0  0  0
  187.5010  176.5540  146.8880 C   0  0  0  0  0  3  0  0  0  0  0  0
  189.0690  175.4400  145.4250 C   0  0  0  0  0  0  0  0  0  0  0  0
  193.7200  174.9490  143.8930 C   0  0  0  0  0  3  0  0  0  0  0  0
  188.7200  174.5360  142.4980 N   0  0  1  0  0  0  0  0  0  0  0  0
  189.8470  173.2750  144.6140 O   0  0  0  0  0  0  0  0  0  0  0  0
  192.4560  174.4080  144.1380 C   0  0  0  0  0  0  0  0  0  0  0  0
  190.2150  174.4760  145.2900 C   0  0  1  0  0  3  0  0  0  0  0  0
  192.0460  173.1160  143.5140 C   0  0  1  0  0  3  0  0  0  0  0  0
  188.6380  173.5100  140.3380 C   0  0  2  0  0  3  0  0  0  0  0  0
  193.2420  176.7910  145.3140 C   0  0  0  0  0  3  0  0  0  0  0  0
  192.5330  171.9450  144.3520 C   0  0  0  0  0  1  0  0  0  0  0  0
  188.0550  174.6020  141.2070 C   0  0  0  0  0  2  0  0  0  0  0  0
  187.4020  176.9630  144.5540 C   0  0  0  0  0  3  0  0  0  0  0  0
  189.9840  173.1910  140.9420 C   0  0  0  0  0  2  0  0  0  0  0  0
  191.5660  175.0840  144.9810 C   0  0  0  0  0  0  0  0  0  0  0  0
  190.0390  173.9760  142.2380 C   0  0  2  0  0  3  0  0  0  0  0  0
  188.9440  175.9070  142.9250 C   0  0  0  0  0  2  0  0  0  0  0  0
  194.0830  176.1220  144.4790 N   0  0  0  0  0  0  0  0  0  0  0  0
  188.4730  176.0950  144.3270 C   0  0  0  0  0  0  0  0  0  0  0  0
  186.9420  177.1730  145.8150 N   0  0  0  0  0  0  0  0  0  0  0  0
  190.5230  173.0720  143.3790 C   0  0  2  0  0  3  0  0  0  0  0  0
  190.1740  174.1660  136.9590 O   0  0  0  0  0  1  0  0  0  0  0  0
  188.7780  173.9700  138.9230 C   0  0  0  0  0  0  0  0  0  0  0  0
  187.8160  174.5360  138.3340 O   0  0  0  0  0  0  0  0  0  0  0  0
  190.0130  173.7630  138.2410 N   0  0  0  0  0  2  0  0  0  0  0  0
  1  3  1  0  0  0  0
  4  1  2  0  0  0  0
  5  8  2  0  0  0  0
  5 20  1  0  0  0  0
  6 14  1  6  0  0  0
  6 19  1  0  0  0  0
  8 17  1  0  0  0  0
  9  7  1  6  0  0  0
  9  4  1  0  0  0  0
 10  8  1  0  0  0  0
 10 13  1  1  0  0  0
 11 25  1  6  0  0  0
 11 16  1  0  0  0  0
 11 14  1  0  0  0  0
 12  2  1  0  0  0  0
 15 22  1  0  0  0  0
 17  9  1  0  0  0  0
 17  2  2  0  0  0  0
 18 16  1  6  0  0  0
 18  6  1  0  0  0  0
 18 23  1  0  0  0  0
 19 21  1  0  0  0  0
 20 12  2  0  0  0  0
 21 15  2  0  0  0  0
 21  4  1  0  0  0  0
 22  3  2  0  0  0  0
 23 10  1  0  0  0  0
 23  7  1  1  0  0  0
 24 27  1  0  0  0  0
 26 25  2  0  0  0  0
 27 25  1  0  0  0  0
M  END
>  <MODEL>
6

>  <REMARK>
 VINA RESULT:      -6.8      2.190      4.935
  Name = 
  1 active torsions:
  status: ('A' for Active; 'I' for Inactive)
    1  A    between atoms: C_9  and  C_13
                            x       y       z     vdW  Elec       q    Type
                         _______ _______ _______ _____ _____    ______ ____

>  <TORSDO>
F 1

$$$$
=
 OpenBabel11042414203D

 27 31  0  0  1  0  0  0  0  0999 V2000
  193.9360  174.4670  145.4530 C   0  0  0  0  0  3  0  0  0  0  0  0
  193.2130  174.0590  141.9190 C   0  0  0  0  0  3  0  0  0  0  0  0
  194.7580  175.3770  146.1180 C   0  0  0  0  0  3  0  0  0  0  0  0
  192.7930  174.9190  144.7890 C   0  0  0  0  0  0  0  0  0  0  0  0
  190.9160  173.5290  140.4560 C   0  0  0  0  0  3  0  0  0  0  0  0
  190.0770  176.3780  144.7350 N   0  0  1  0  0  0  0  0  0  0  0  0
  190.6620  173.7330  144.7250 O   0  0  0  0  0  0  0  0  0  0  0  0
  190.8430  173.5930  141.8500 C   0  0  0  0  0  0  0  0  0  0  0  0
  191.9350  173.8920  144.1020 C   0  0  1  0  0  3  0  0  0  0  0  0
  189.5500  173.3620  142.5560 C   0  0  1  0  0  3  0  0  0  0  0  0
  187.8130  177.1520  144.6750 C   0  0  2  0  0  3  0  0  0  0  0  0
  193.2440  173.9900  140.5250 C   0  0  0  0  0  3  0  0  0  0  0  0
  189.3220  171.8760  142.7730 C   0  0  0  0  0  1  0  0  0  0  0  0
  189.2410  177.5400  144.9890 C   0  0  0  0  0  2  0  0  0  0  0  0
  193.3420  177.1710  145.4830 C   0  0  0  0  0  3  0  0  0  0  0  0
  187.9140  175.9680  143.7430 C   0  0  0  0  0  2  0  0  0  0  0  0
  191.9980  173.8730  142.5900 C   0  0  0  0  0  0  0  0  0  0  0  0
  189.3870  175.6080  143.7080 C   0  0  2  0  0  3  0  0  0  0  0  0
  191.2970  176.8670  144.1150 C   0  0  0  0  0  2  0  0  0  0  0  0
  192.1050  173.7310  139.8270 N   0  0  0  0  0  0  0  0  0  0  0  0
  192.4900  176.2970  144.8030 C   0  0  0  0  0  0  0  0  0  0  0  0
  194.4470  176.7000  146.1190 N   0  0  0  0  0  0  0  0  0  0  0  0
  189.5620  174.0960  143.8990 C   0  0  2  0  0  3  0  0  0  0  0  0
  185.5180  180.1120  144.2650 O   0  0  0  0  0  1  0  0  0  0  0  0
  187.0800  178.2840  144.0300 C   0  0  0  0  0  0  0  0  0  0  0  0
  187.2400  178.5350  142.8040 O   0  0  0  0  0  0  0  0  0  0  0  0
  186.1970  179.0790  144.8160 N   0  0  0  0  0  2  0  0  0  0  0  0
  1  3  1  0  0  0  0
  2 17  1  0  0  0  0
  3 22  2  0  0  0  0
  4 21  1  0  0  0  0
  4  1  2  0  0  0  0
  5  8  1  0  0  0  0
  6 19  1  6  0  0  0
  6 14  1  0  0  0  0
  8 10  1  0  0  0  0
  8 17  2  0  0  0  0
  9 17  1  6  0  0  0
  9  7  1  0  0  0  0
  9  4  1  0  0  0  0
 10 13  1  1  0  0  0
 10 23  1  0  0  0  0
 11 25  1  6  0  0  0
 11 14  1  0  0  0  0
 12  2  2  0  0  0  0
 15 22  1  0  0  0  0
 16 11  1  0  0  0  0
 18 16  1  1  0  0  0
 18 23  1  0  0  0  0
 18  6  1  0  0  0  0
 19 21  1  0  0  0  0
 20  5  2  0  0  0  0
 20 12  1  0  0  0  0
 21 15  2  0  0  0  0
 23  7  1  6  0  0  0
 24 27  1  0  0  0  0
 25 27  1  0  0  0  0
 26 25  2  0  0  0  0
M  END
>  <MODEL>
7

>  <REMARK>
 VINA RESULT:      -6.8      2.566      6.055
  Name = 
  1 active torsions:
  status: ('A' for Active; 'I' for Inactive)
    1  A    between atoms: C_9  and  C_13
                            x       y       z     vdW  Elec       q    Type
                         _______ _______ _______ _____ _____    ______ ____

>  <TORSDO>
F 1

$$$$
=
 OpenBabel11042414203D

 27 31  0  0  1  0  0  0  0  0999 V2000
  191.3180  173.7910  140.3440 C   0  0  0  0  0  3  0  0  0  0  0  0
  192.9220  172.5640  143.3610 C   0  0  0  0  0  3  0  0  0  0  0  0
  190.3310  173.2220  139.5400 C   0  0  0  0  0  3  0  0  0  0  0  0
  191.0130  174.1730  141.6540 C   0  0  0  0  0  0  0  0  0  0  0  0
  193.6800  173.7230  145.7650 C   0  0  0  0  0  3  0  0  0  0  0  0
  189.3650  175.7850  143.7020 N   0  0  1  0  0  0  0  0  0  0  0  0
  191.8730  176.1720  142.7550 O   0  0  0  0  0  0  0  0  0  0  0  0
  193.0940  174.5150  144.7750 C   0  0  0  0  0  0  0  0  0  0  0  0
  192.1110  174.7950  142.4710 C   0  0  1  0  0  3  0  0  0  0  0  0
  192.8890  175.9770  144.9920 C   0  0  1  0  0  3  0  0  0  0  0  0
  188.4050  177.2620  145.3220 C   0  0  2  0  0  3  0  0  0  0  0  0
  193.5090  171.8050  144.3760 C   0  0  0  0  0  3  0  0  0  0  0  0
  194.1490  176.7470  144.6370 C   0  0  0  0  0  1  0  0  0  0  0  0
  188.1010  176.2000  144.2880 C   0  0  0  0  0  2  0  0  0  0  0  0
  188.7470  173.4020  141.2960 C   0  0  0  0  0  3  0  0  0  0  0  0
  189.8530  177.0560  145.6950 C   0  0  0  0  0  2  0  0  0  0  0  0
  192.6980  173.9310  143.5660 C   0  0  0  0  0  0  0  0  0  0  0  0
  190.3730  176.0100  144.7290 C   0  0  2  0  0  3  0  0  0  0  0  0
  189.2920  174.3440  143.5230 C   0  0  0  0  0  2  0  0  0  0  0  0
  193.8700  172.3940  145.5480 N   0  0  0  0  0  0  0  0  0  0  0  0
  189.7030  173.9740  142.1390 C   0  0  0  0  0  0  0  0  0  0  0  0
  189.0750  173.0400  140.0280 N   0  0  0  0  0  0  0  0  0  0  0  0
  191.7150  176.4620  144.1380 C   0  0  2  0  0  3  0  0  0  0  0  0
  185.8730  178.1180  147.9790 O   0  0  0  0  0  1  0  0  0  0  0  0
  187.5160  177.1180  146.5140 C   0  0  0  0  0  0  0  0  0  0  0  0
  187.4920  176.0410  147.1700 O   0  0  0  0  0  0  0  0  0  0  0  0
  186.6920  178.2140  146.9040 N   0  0  0  0  0  2  0  0  0  0  0  0
  1  4  1  0  0  0  0
  2 17  2  0  0  0  0
  2 12  1  0  0  0  0
  3 22  1  0  0  0  0
  3  1  2  0  0  0  0
  4 21  2  0  0  0  0
  6 19  1  1  0  0  0
  6 14  1  0  0  0  0
  6 18  1  0  0  0  0
  8 10  1  0  0  0  0
  8  5  2  0  0  0  0
  9  4  1  1  0  0  0
  9  7  1  0  0  0  0
  9 17  1  0  0  0  0
 10 13  1  6  0  0  0
 11 16  1  0  0  0  0
 11 25  1  1  0  0  0
 12 20  2  0  0  0  0
 14 11  1  0  0  0  0
 15 21  1  0  0  0  0
 17  8  1  0  0  0  0
 18 16  1  1  0  0  0
 20  5  1  0  0  0  0
 21 19  1  0  0  0  0
 22 15  2  0  0  0  0
 23  7  1  6  0  0  0
 23 18  1  0  0  0  0
 23 10  1  0  0  0  0
 25 27  1  0  0  0  0
 25 26  2  0  0  0  0
 27 24  1  0  0  0  0
M  END
>  <MODEL>
8

>  <REMARK>
 VINA RESULT:      -6.6      2.548      6.882
  Name = 
  1 active torsions:
  status: ('A' for Active; 'I' for Inactive)
    1  A    between atoms: C_9  and  C_13
                            x       y       z     vdW  Elec       q    Type
                         _______ _______ _______ _____ _____    ______ ____

>  <TORSDO>
F 1

$$$$
=
 OpenBabel11042414203D

 27 31  0  0  1  0  0  0  0  0999 V2000
  195.5370  174.9350  145.7480 C   0  0  0  0  0  3  0  0  0  0  0  0
  192.3020  175.7240  147.1930 C   0  0  0  0  0  3  0  0  0  0  0  0
  196.3810  173.8410  145.9410 C   0  0  0  0  0  3  0  0  0  0  0  0
  194.2940  174.7550  145.1350 C   0  0  0  0  0  0  0  0  0  0  0  0
  189.9370  176.7800  146.1990 C   0  0  0  0  0  3  0  0  0  0  0  0
  192.5340  173.8400  142.7740 N   0  0  1  0  0  0  0  0  0  0  0  0
  193.2790  176.3220  143.5640 O   0  0  0  0  0  0  0  0  0  0  0  0
  191.0340  176.6310  145.3480 C   0  0  0  0  0  0  0  0  0  0  0  0
  193.4320  175.9720  144.9380 C   0  0  1  0  0  3  0  0  0  0  0  0
  190.9510  177.0500  143.9180 C   0  0  1  0  0  3  0  0  0  0  0  0
  191.1270  173.5120  140.8660 C   0  0  2  0  0  3  0  0  0  0  0  0
  191.1820  175.8860  148.0130 C   0  0  0  0  0  3  0  0  0  0  0  0
  191.2500  178.5330  143.7820 C   0  0  0  0  0  1  0  0  0  0  0  0
  192.0980  172.8410  141.8120 C   0  0  0  0  0  2  0  0  0  0  0  0
  194.7940  172.3960  144.9330 C   0  0  0  0  0  3  0  0  0  0  0  0
  190.6100  174.7190  141.6100 C   0  0  0  0  0  2  0  0  0  0  0  0
  192.2240  176.0860  145.8440 C   0  0  0  0  0  0  0  0  0  0  0  0
  191.4410  174.7970  142.8760 C   0  0  2  0  0  3  0  0  0  0  0  0
  192.6060  173.1770  144.0650 C   0  0  0  0  0  2  0  0  0  0  0  0
  190.0310  176.4040  147.5030 N   0  0  0  0  0  0  0  0  0  0  0  0
  193.9150  173.4610  144.7190 C   0  0  0  0  0  0  0  0  0  0  0  0
  195.9950  172.6040  145.5330 N   0  0  0  0  0  0  0  0  0  0  0  0
  191.9420  176.2320  143.0870 C   0  0  2  0  0  3  0  0  0  0  0  0
  187.8580  172.2910  139.4450 O   0  0  0  0  0  1  0  0  0  0  0  0
  190.0130  172.5870  140.4980 C   0  0  0  0  0  0  0  0  0  0  0  0
  190.0660  171.3650  140.8050 O   0  0  0  0  0  0  0  0  0  0  0  0
  188.8850  173.1010  139.7950 N   0  0  0  0  0  2  0  0  0  0  0  0
  1  3  1  0  0  0  0
  2 12  1  0  0  0  0
  4  1  2  0  0  0  0
  5 20  1  0  0  0  0
  6 14  1  6  0  0  0
  6 18  1  0  0  0  0
  6 19  1  0  0  0  0
  8 17  1  0  0  0  0
  8  5  2  0  0  0  0
  9  7  1  6  0  0  0
  9  4  1  0  0  0  0
  9 17  1  0  0  0  0
 10 13  1  1  0  0  0
 10  8  1  0  0  0  0
 11 25  1  1  0  0  0
 11 16  1  0  0  0  0
 11 14  1  0  0  0  0
 15 22  1  0  0  0  0
 17  2  2  0  0  0  0
 18 16  1  6  0  0  0
 18 23  1  0  0  0  0
 19 21  1  0  0  0  0
 20 12  2  0  0  0  0
 21 15  2  0  0  0  0
 21  4  1  0  0  0  0
 22  3  2  0  0  0  0
 23  7  1  1  0  0  0
 23 10  1  0  0  0  0
 24 27  1  0  0  0  0
 25 26  2  0  0  0  0
 27 25  1  0  0  0  0
M  END
>  <MODEL>
9

>  <REMARK>
 VINA RESULT:      -6.5      2.866      4.126
  Name = 
  1 active torsions:
  status: ('A' for Active; 'I' for Inactive)
    1  A    between atoms: C_9  and  C_13
                            x       y       z     vdW  Elec       q    Type
                         _______ _______ _______ _____ _____    ______ ____

>  <TORSDO>
F 1

$$$$
