=
 OpenBabel11042417223D

 26 28  0  0  1  0  0  0  0  0999 V2000
  191.1190  176.5830  146.7490 N   0  0  0  0  0  2  0  0  0  0  0  0
  186.6190  177.9180  147.6150 O   0  0  0  0  0  1  0  0  0  0  0  0
  189.9200  177.0200  146.2870 C   0  0  0  0  0  0  0  0  0  0  0  0
  187.6430  177.7050  146.6960 C   0  0  0  0  0  0  0  0  0  0  0  0
  190.7820  176.9910  144.0660 N   0  0  0  0  0  0  0  0  0  0  0  0
  193.0900  176.3020  143.5600 C   0  0  0  0  0  1  0  0  0  0  0  0
  185.5590  179.3630  145.4270 O   0  0  0  0  0  0  0  0  0  0  0  0
  185.2890  177.5770  143.9760 N   0  0  0  0  0  2  0  0  0  0  0  0
  188.5100  177.6910  144.4060 C   0  0  0  0  0  0  0  0  0  0  0  0
  193.2550  175.9360  146.3620 O   0  0  0  0  0  0  0  0  0  0  0  0
  189.7400  177.2300  144.9070 C   0  0  0  0  0  0  0  0  0  0  0  0
  186.5060  177.3220  141.9000 C   0  0  1  0  0  3  0  0  0  0  0  0
  185.8680  176.5960  143.0760 C   0  0  0  0  0  2  0  0  0  0  0  0
  187.4310  177.9160  145.3150 C   0  0  0  0  0  0  0  0  0  0  0  0
  191.9830  176.5520  144.5270 C   0  0  0  0  0  0  0  0  0  0  0  0
  192.1550  176.3420  145.9030 C   0  0  0  0  0  0  0  0  0  0  0  0
  187.3540  178.4280  142.3510 N   0  0  0  0  0  2  0  0  0  0  0  0
  188.8760  177.2630  147.1710 C   0  0  0  0  0  3  0  0  0  0  0  0
  188.4500  177.9190  143.0180 O   0  0  0  0  0  0  0  0  0  0  0  0
  186.0760  178.3460  144.8920 C   0  0  0  0  0  0  0  0  0  0  0  0
  187.2360  176.3890  140.9820 C   0  0  0  0  0  0  0  0  0  0  0  0
  188.5700  174.2360  140.7780 C   0  0  0  0  0  0  0  0  0  0  0  0
  187.2760  176.6200  139.7420 O   0  0  0  0  0  0  0  0  0  0  0  0
  188.7070  174.3420  139.5310 O   0  0  0  0  0  0  0  0  0  0  0  0
  187.8540  175.2210  141.5310 N   0  0  0  0  0  2  0  0  0  0  0  0
  189.1620  173.0690  141.4820 C   0  0  0  0  0  1  0  0  0  0  0  0
  3  1  1  0  0  0  0
  3 18  1  0  0  0  0
  4 18  2  0  0  0  0
  4  2  1  0  0  0  0
  5 15  2  0  0  0  0
  5 11  1  0  0  0  0
  6 15  1  0  0  0  0
  8 20  1  0  0  0  0
  9 11  1  0  0  0  0
  9 14  2  0  0  0  0
 11  3  2  0  0  0  0
 12 21  1  1  0  0  0
 12 17  1  0  0  0  0
 12 13  1  0  0  0  0
 13  8  1  0  0  0  0
 14  4  1  0  0  0  0
 15 16  1  0  0  0  0
 16 10  2  0  0  0  0
 16  1  1  0  0  0  0
 17 19  1  0  0  0  0
 19  9  1  0  0  0  0
 20 14  1  0  0  0  0
 20  7  2  0  0  0  0
 21 25  1  0  0  0  0
 22 26  1  0  0  0  0
 22 25  1  0  0  0  0
 23 21  2  0  0  0  0
 24 22  2  0  0  0  0
M  END
>  <MODEL>
1

>  <REMARK>
 VINA RESULT:      -7.7      0.000      0.000
  Name = 
  1 active torsions:
  status: ('A' for Active; 'I' for Inactive)
    1  A    between atoms: C_4  and  C_18
                            x       y       z     vdW  Elec       q    Type
                         _______ _______ _______ _____ _____    ______ ____

>  <TORSDO>
F 1

$$$$
=
 OpenBabel11042417223D

 26 28  0  0  1  0  0  0  0  0999 V2000
  189.3270  176.3770  147.2170 N   0  0  0  0  0  2  0  0  0  0  0  0
  185.2330  178.7950  146.8070 O   0  0  0  0  0  1  0  0  0  0  0  0
  188.4350  177.0430  146.4400 C   0  0  0  0  0  0  0  0  0  0  0  0
  186.3730  178.2730  146.2040 C   0  0  0  0  0  0  0  0  0  0  0  0
  189.8080  176.6280  144.5360 N   0  0  0  0  0  0  0  0  0  0  0  0
  191.9230  175.3790  144.6870 C   0  0  0  0  0  1  0  0  0  0  0  0
  185.1670  180.2610  144.3890 O   0  0  0  0  0  0  0  0  0  0  0  0
  184.8480  178.4740  142.9510 N   0  0  0  0  0  2  0  0  0  0  0  0
  187.7720  177.8660  144.2360 C   0  0  0  0  0  0  0  0  0  0  0  0
  191.2610  175.2170  147.4350 O   0  0  0  0  0  0  0  0  0  0  0  0
  188.6770  177.1740  145.0600 C   0  0  0  0  0  0  0  0  0  0  0  0
  186.4590  177.7700  141.2870 C   0  0  1  0  0  3  0  0  0  0  0  0
  185.3790  177.3140  142.2580 C   0  0  0  0  0  2  0  0  0  0  0  0
  186.5850  178.4120  144.8140 C   0  0  0  0  0  0  0  0  0  0  0  0
  190.7010  175.9600  145.3130 C   0  0  0  0  0  0  0  0  0  0  0  0
  190.4540  175.8310  146.6880 C   0  0  0  0  0  0  0  0  0  0  0  0
  187.4080  178.6810  141.9320 N   0  0  0  0  0  2  0  0  0  0  0  0
  187.2920  177.5960  147.0030 C   0  0  0  0  0  3  0  0  0  0  0  0
  188.1320  177.9860  142.8800 O   0  0  0  0  0  0  0  0  0  0  0  0
  185.5360  179.1110  144.0320 C   0  0  0  0  0  0  0  0  0  0  0  0
  187.1460  176.6200  140.6170 C   0  0  0  0  0  0  0  0  0  0  0  0
  188.4720  174.4750  140.9310 C   0  0  0  0  0  0  0  0  0  0  0  0
  187.1290  176.5140  139.3590 O   0  0  0  0  0  0  0  0  0  0  0  0
  188.5520  174.2460  139.6950 O   0  0  0  0  0  0  0  0  0  0  0  0
  187.7900  175.6320  141.4270 N   0  0  0  0  0  2  0  0  0  0  0  0
  189.0970  173.5290  141.8920 C   0  0  0  0  0  1  0  0  0  0  0  0
  3 18  1  0  0  0  0
  3  1  1  0  0  0  0
  4  2  1  0  0  0  0
  4 18  2  0  0  0  0
  5 11  1  0  0  0  0
  5 15  2  0  0  0  0
  6 15  1  0  0  0  0
  8 20  1  0  0  0  0
  9 14  2  0  0  0  0
  9 11  1  0  0  0  0
 11  3  2  0  0  0  0
 12 21  1  1  0  0  0
 12 17  1  0  0  0  0
 12 13  1  0  0  0  0
 13  8  1  0  0  0  0
 14  4  1  0  0  0  0
 15 16  1  0  0  0  0
 16  1  1  0  0  0  0
 16 10  2  0  0  0  0
 17 19  1  0  0  0  0
 19  9  1  0  0  0  0
 20  7  2  0  0  0  0
 20 14  1  0  0  0  0
 21 25  1  0  0  0  0
 22 25  1  0  0  0  0
 22 26  1  0  0  0  0
 23 21  2  0  0  0  0
 24 22  2  0  0  0  0
M  END
>  <MODEL>
2

>  <REMARK>
 VINA RESULT:      -7.6      1.156      1.283
  Name = 
  1 active torsions:
  status: ('A' for Active; 'I' for Inactive)
    1  A    between atoms: C_4  and  C_18
                            x       y       z     vdW  Elec       q    Type
                         _______ _______ _______ _____ _____    ______ ____

>  <TORSDO>
F 1

$$$$
=
 OpenBabel11042417223D

 26 28  0  0  1  0  0  0  0  0999 V2000
  184.3280  178.6030  142.3990 N   0  0  0  0  0  2  0  0  0  0  0  0
  184.5490  178.4850  147.1650 O   0  0  0  0  0  1  0  0  0  0  0  0
  184.9600  178.1990  143.5300 C   0  0  0  0  0  0  0  0  0  0  0  0
  185.0930  178.1180  145.9380 C   0  0  0  0  0  0  0  0  0  0  0  0
  186.6230  177.1280  142.2010 N   0  0  0  0  0  0  0  0  0  0  0  0
  186.5650  177.1660  139.7410 C   0  0  0  0  0  1  0  0  0  0  0  0
  186.2660  176.4150  148.0420 O   0  0  0  0  0  0  0  0  0  0  0  0
  188.2750  177.4120  147.4640 N   0  0  0  0  0  2  0  0  0  0  0  0
  186.8100  177.0030  144.5920 C   0  0  0  0  0  0  0  0  0  0  0  0
  184.2070  178.6820  140.1380 O   0  0  0  0  0  0  0  0  0  0  0  0
  186.1420  177.4410  143.4350 C   0  0  0  0  0  0  0  0  0  0  0  0
  189.7800  176.5510  145.7760 C   0  0  1  0  0  3  0  0  0  0  0  0
  189.2320  177.8040  146.4450 C   0  0  0  0  0  2  0  0  0  0  0  0
  186.2870  177.3630  145.8720 C   0  0  0  0  0  0  0  0  0  0  0  0
  185.9920  177.5340  141.0670 C   0  0  0  0  0  0  0  0  0  0  0  0
  184.8150  178.2910  141.1690 C   0  0  0  0  0  0  0  0  0  0  0  0
  188.7020  175.6340  145.3940 N   0  0  0  0  0  2  0  0  0  0  0  0
  184.4420  178.5270  144.7770 C   0  0  0  0  0  3  0  0  0  0  0  0
  187.9530  176.2080  144.3870 O   0  0  0  0  0  0  0  0  0  0  0  0
  186.9380  177.0060  147.1560 C   0  0  0  0  0  0  0  0  0  0  0  0
  190.6850  176.8680  144.6250 C   0  0  0  0  0  0  0  0  0  0  0  0
  192.3850  175.9730  142.9620 C   0  0  0  0  0  0  0  0  0  0  0  0
  190.7140  178.0340  144.1420 O   0  0  0  0  0  0  0  0  0  0  0  0
  192.5320  177.0840  142.3880 O   0  0  0  0  0  0  0  0  0  0  0  0
  191.4870  175.8230  144.0670 N   0  0  0  0  0  2  0  0  0  0  0  0
  193.1570  174.7960  142.4850 C   0  0  0  0  0  1  0  0  0  0  0  0
  1  3  1  0  0  0  0
  3 18  1  0  0  0  0
  4  2  1  0  0  0  0
  5 11  1  0  0  0  0
  6 15  1  0  0  0  0
  9 14  2  0  0  0  0
 10 16  2  0  0  0  0
 11  3  2  0  0  0  0
 11  9  1  0  0  0  0
 12 21  1  6  0  0  0
 12 13  1  0  0  0  0
 13  8  1  0  0  0  0
 14  4  1  0  0  0  0
 14 20  1  0  0  0  0
 15 16  1  0  0  0  0
 15  5  2  0  0  0  0
 16  1  1  0  0  0  0
 17 12  1  0  0  0  0
 18  4  2  0  0  0  0
 19  9  1  0  0  0  0
 19 17  1  0  0  0  0
 20  8  1  0  0  0  0
 20  7  2  0  0  0  0
 22 25  1  0  0  0  0
 23 21  2  0  0  0  0
 24 22  2  0  0  0  0
 25 21  1  0  0  0  0
 26 22  1  0  0  0  0
M  END
>  <MODEL>
3

>  <REMARK>
 VINA RESULT:      -7.5      2.383      5.436
  Name = 
  1 active torsions:
  status: ('A' for Active; 'I' for Inactive)
    1  A    between atoms: C_4  and  C_18
                            x       y       z     vdW  Elec       q    Type
                         _______ _______ _______ _____ _____    ______ ____

>  <TORSDO>
F 1

$$$$
=
 OpenBabel11042417223D

 26 28  0  0  1  0  0  0  0  0999 V2000
  184.2000  178.4810  145.3620 N   0  0  0  0  0  2  0  0  0  0  0  0
  184.1980  177.7580  140.6450 O   0  0  0  0  0  1  0  0  0  0  0  0
  184.8790  178.1890  144.2240 C   0  0  0  0  0  0  0  0  0  0  0  0
  184.9090  177.8240  141.8390 C   0  0  0  0  0  0  0  0  0  0  0  0
  186.8920  178.0190  145.4880 N   0  0  0  0  0  0  0  0  0  0  0  0
  186.9500  178.3710  147.9230 C   0  0  0  0  0  1  0  0  0  0  0  0
  186.8160  177.9680  139.5930 O   0  0  0  0  0  0  0  0  0  0  0  0
  187.6420  175.9670  140.4140 N   0  0  0  0  0  2  0  0  0  0  0  0
  186.9920  177.6520  143.1170 C   0  0  0  0  0  0  0  0  0  0  0  0
  184.1730  178.8190  147.6030 O   0  0  0  0  0  0  0  0  0  0  0  0
  186.2640  177.9490  144.2830 C   0  0  0  0  0  0  0  0  0  0  0  0
  189.4160  175.8030  142.0530 C   0  0  1  0  0  3  0  0  0  0  0  0
  188.1310  175.1760  141.5310 C   0  0  0  0  0  2  0  0  0  0  0  0
  186.2990  177.5690  141.8700 C   0  0  0  0  0  0  0  0  0  0  0  0
  186.2130  178.3100  146.6290 C   0  0  0  0  0  0  0  0  0  0  0  0
  184.8310  178.5470  146.5640 C   0  0  0  0  0  0  0  0  0  0  0  0
  189.2670  177.2480  142.2450 N   0  0  0  0  0  2  0  0  0  0  0  0
  184.2130  178.1310  143.0070 C   0  0  0  0  0  3  0  0  0  0  0  0
  188.3800  177.4810  143.2760 O   0  0  0  0  0  0  0  0  0  0  0  0
  186.9530  177.2090  140.5880 C   0  0  0  0  0  0  0  0  0  0  0  0
  189.9230  175.1190  143.2860 C   0  0  0  0  0  0  0  0  0  0  0  0
  191.6800  175.0990  145.1220 C   0  0  0  0  0  0  0  0  0  0  0  0
  189.3110  174.1210  143.7570 O   0  0  0  0  0  0  0  0  0  0  0  0
  191.1880  174.0910  145.6960 O   0  0  0  0  0  0  0  0  0  0  0  0
  191.0900  175.6360  143.9330 N   0  0  0  0  0  2  0  0  0  0  0  0
  192.8960  175.7410  145.6870 C   0  0  0  0  0  1  0  0  0  0  0  0
  1 16  1  0  0  0  0
  2  4  1  0  0  0  0
  3 11  1  0  0  0  0
  3  1  1  0  0  0  0
  4 14  2  0  0  0  0
  4 18  1  0  0  0  0
  5 15  2  0  0  0  0
  7 20  2  0  0  0  0
  8 20  1  0  0  0  0
  8 13  1  0  0  0  0
  9 19  1  0  0  0  0
  9 11  2  0  0  0  0
 11  5  1  0  0  0  0
 12 17  1  0  0  0  0
 12 21  1  1  0  0  0
 13 12  1  0  0  0  0
 14  9  1  0  0  0  0
 15  6  1  0  0  0  0
 16 15  1  0  0  0  0
 16 10  2  0  0  0  0
 17 19  1  0  0  0  0
 18  3  2  0  0  0  0
 20 14  1  0  0  0  0
 21 23  2  0  0  0  0
 21 25  1  0  0  0  0
 22 26  1  0  0  0  0
 22 24  2  0  0  0  0
 25 22  1  0  0  0  0
M  END
>  <MODEL>
4

>  <REMARK>
 VINA RESULT:      -7.4      2.072      5.496
  Name = 
  1 active torsions:
  status: ('A' for Active; 'I' for Inactive)
    1  A    between atoms: C_4  and  C_18
                            x       y       z     vdW  Elec       q    Type
                         _______ _______ _______ _____ _____    ______ ____

>  <TORSDO>
F 1

$$$$
=
 OpenBabel11042417223D

 26 28  0  0  1  0  0  0  0  0999 V2000
  186.4770  177.7290  141.4050 N   0  0  0  0  0  2  0  0  0  0  0  0
  185.5650  179.6650  145.6710 O   0  0  0  0  0  1  0  0  0  0  0  0
  186.6330  177.7140  142.7530 C   0  0  0  0  0  0  0  0  0  0  0  0
  186.1850  178.6680  144.9230 C   0  0  0  0  0  0  0  0  0  0  0  0
  188.0060  175.7760  142.5560 N   0  0  0  0  0  0  0  0  0  0  0  0
  188.5170  174.7420  140.3820 C   0  0  0  0  0  1  0  0  0  0  0  0
  186.1080  177.8240  147.7490 O   0  0  0  0  0  0  0  0  0  0  0  0
  188.4200  177.9020  147.6380 N   0  0  0  0  0  2  0  0  0  0  0  0
  187.5910  176.6710  144.7460 C   0  0  0  0  0  0  0  0  0  0  0  0
  186.9030  176.8350  139.3670 O   0  0  0  0  0  0  0  0  0  0  0  0
  187.4200  176.7130  143.3510 C   0  0  0  0  0  0  0  0  0  0  0  0
  189.8110  176.0270  147.0010 C   0  0  1  0  0  3  0  0  0  0  0  0
  189.6550  177.5410  146.9660 C   0  0  0  0  0  2  0  0  0  0  0  0
  186.9770  177.6790  145.5500 C   0  0  0  0  0  0  0  0  0  0  0  0
  187.8510  175.7910  141.2060 C   0  0  0  0  0  0  0  0  0  0  0  0
  187.0670  176.7930  140.6160 C   0  0  0  0  0  0  0  0  0  0  0  0
  188.5780  175.3530  146.5870 N   0  0  0  0  0  2  0  0  0  0  0  0
  186.0180  178.6790  143.5400 C   0  0  0  0  0  3  0  0  0  0  0  0
  188.3530  175.5990  145.2480 O   0  0  0  0  0  0  0  0  0  0  0  0
  187.1350  177.7670  147.0220 C   0  0  0  0  0  0  0  0  0  0  0  0
  191.0010  175.5580  146.2210 C   0  0  0  0  0  0  0  0  0  0  0  0
  193.3510  176.0990  145.4190 C   0  0  0  0  0  0  0  0  0  0  0  0
  191.0020  174.4130  145.6910 O   0  0  0  0  0  0  0  0  0  0  0  0
  193.4910  174.9960  144.8260 O   0  0  0  0  0  0  0  0  0  0  0  0
  192.1420  176.4160  146.1170 N   0  0  0  0  0  2  0  0  0  0  0  0
  194.4590  177.0880  145.3950 C   0  0  0  0  0  1  0  0  0  0  0  0
  1  3  1  0  0  0  0
  3 11  2  0  0  0  0
  3 18  1  0  0  0  0
  4 14  1  0  0  0  0
  4  2  1  0  0  0  0
  5 11  1  0  0  0  0
  6 15  1  0  0  0  0
  9 19  1  0  0  0  0
  9 14  2  0  0  0  0
 10 16  2  0  0  0  0
 11  9  1  0  0  0  0
 12 21  1  6  0  0  0
 13 12  1  0  0  0  0
 13  8  1  0  0  0  0
 14 20  1  0  0  0  0
 15  5  2  0  0  0  0
 16 15  1  0  0  0  0
 16  1  1  0  0  0  0
 17 12  1  0  0  0  0
 18  4  2  0  0  0  0
 19 17  1  0  0  0  0
 20  8  1  0  0  0  0
 20  7  2  0  0  0  0
 22 25  1  0  0  0  0
 23 21  2  0  0  0  0
 24 22  2  0  0  0  0
 25 21  1  0  0  0  0
 26 22  1  0  0  0  0
M  END
>  <MODEL>
5

>  <REMARK>
 VINA RESULT:      -7.4      1.620      5.486
  Name = 
  1 active torsions:
  status: ('A' for Active; 'I' for Inactive)
    1  A    between atoms: C_4  and  C_18
                            x       y       z     vdW  Elec       q    Type
                         _______ _______ _______ _____ _____    ______ ____

>  <TORSDO>
F 1

$$$$
=
 OpenBabel11042417223D

 26 28  0  0  1  0  0  0  0  0999 V2000
  192.4350  175.6490  144.8470 N   0  0  0  0  0  2  0  0  0  0  0  0
  191.2840  173.8790  140.5660 O   0  0  0  0  0  1  0  0  0  0  0  0
  191.4910  175.3740  143.9100 C   0  0  0  0  0  0  0  0  0  0  0  0
  190.8790  174.4810  141.7540 C   0  0  0  0  0  0  0  0  0  0  0  0
  189.8260  176.3120  145.3350 N   0  0  0  0  0  0  0  0  0  0  0  0
  190.3640  177.2480  147.5470 C   0  0  0  0  0  1  0  0  0  0  0  0
  188.5070  173.3620  140.4040 O   0  0  0  0  0  0  0  0  0  0  0  0
  187.7900  175.5590  140.2550 N   0  0  0  0  0  2  0  0  0  0  0  0
  189.1510  175.4320  143.2050 C   0  0  0  0  0  0  0  0  0  0  0  0
  193.0070  176.4930  146.8700 O   0  0  0  0  0  0  0  0  0  0  0  0
  190.1480  175.7140  144.1560 C   0  0  0  0  0  0  0  0  0  0  0  0
  186.4470  176.6630  141.9390 C   0  0  1  0  0  3  0  0  0  0  0  0
  187.5360  176.8400  140.8910 C   0  0  0  0  0  2  0  0  0  0  0  0
  189.5240  174.8200  141.9700 C   0  0  0  0  0  0  0  0  0  0  0  0
  190.7710  176.5890  146.2730 C   0  0  0  0  0  0  0  0  0  0  0  0
  192.1090  176.2500  146.0220 C   0  0  0  0  0  0  0  0  0  0  0  0
  186.7150  175.5080  142.8000 N   0  0  0  0  0  2  0  0  0  0  0  0
  191.8470  174.7570  142.7180 C   0  0  0  0  0  3  0  0  0  0  0  0
  187.8320  175.7650  143.5690 O   0  0  0  0  0  0  0  0  0  0  0  0
  188.5680  174.5290  140.8740 C   0  0  0  0  0  0  0  0  0  0  0  0
  186.2080  177.9130  142.7290 C   0  0  0  0  0  0  0  0  0  0  0  0
  184.9860  178.9760  144.6870 C   0  0  0  0  0  0  0  0  0  0  0  0
  186.8210  178.9770  142.4370 O   0  0  0  0  0  0  0  0  0  0  0  0
  185.5090  180.1080  144.5070 O   0  0  0  0  0  0  0  0  0  0  0  0
  185.3010  177.8690  143.8360 N   0  0  0  0  0  2  0  0  0  0  0  0
  184.0230  178.7850  145.8040 C   0  0  0  0  0  1  0  0  0  0  0  0
  1 16  1  0  0  0  0
  2  4  1  0  0  0  0
  3 11  1  0  0  0  0
  3  1  1  0  0  0  0
  4 14  2  0  0  0  0
  4 18  1  0  0  0  0
  5 15  2  0  0  0  0
  7 20  2  0  0  0  0
  8 20  1  0  0  0  0
  8 13  1  0  0  0  0
  9 19  1  0  0  0  0
  9 11  2  0  0  0  0
 11  5  1  0  0  0  0
 12 21  1  1  0  0  0
 12 17  1  0  0  0  0
 13 12  1  0  0  0  0
 14  9  1  0  0  0  0
 15  6  1  0  0  0  0
 16 15  1  0  0  0  0
 16 10  2  0  0  0  0
 17 19  1  0  0  0  0
 18  3  2  0  0  0  0
 20 14  1  0  0  0  0
 21 25  1  0  0  0  0
 22 26  1  0  0  0  0
 23 21  2  0  0  0  0
 24 22  2  0  0  0  0
 25 22  1  0  0  0  0
M  END
>  <MODEL>
6

>  <REMARK>
 VINA RESULT:      -7.3      1.889      4.965
  Name = 
  1 active torsions:
  status: ('A' for Active; 'I' for Inactive)
    1  A    between atoms: C_4  and  C_18
                            x       y       z     vdW  Elec       q    Type
                         _______ _______ _______ _____ _____    ______ ____

>  <TORSDO>
F 1

$$$$
=
 OpenBabel11042417223D

 26 28  0  0  1  0  0  0  0  0999 V2000
  189.0890  174.1230  140.8010 N   0  0  0  0  0  2  0  0  0  0  0  0
  191.7560  172.8550  144.5510 O   0  0  0  0  0  1  0  0  0  0  0  0
  189.5190  174.3660  142.0660 C   0  0  0  0  0  0  0  0  0  0  0  0
  190.8620  173.7520  143.9740 C   0  0  0  0  0  0  0  0  0  0  0  0
  188.1620  176.3240  142.1350 N   0  0  0  0  0  0  0  0  0  0  0  0
  186.7590  177.0190  140.2370 C   0  0  0  0  0  1  0  0  0  0  0  0
  192.1180  175.0380  146.3140 O   0  0  0  0  0  0  0  0  0  0  0  0
  189.9790  175.0770  147.2010 N   0  0  0  0  0  2  0  0  0  0  0  0
  189.4810  175.7730  144.0650 C   0  0  0  0  0  0  0  0  0  0  0  0
  187.8230  174.6980  139.0130 O   0  0  0  0  0  0  0  0  0  0  0  0
  189.0440  175.4960  142.7580 C   0  0  0  0  0  0  0  0  0  0  0  0
  188.4190  176.9030  146.8970 C   0  0  1  0  0  3  0  0  0  0  0  0
  188.5690  175.3970  147.0600 C   0  0  0  0  0  2  0  0  0  0  0  0
  190.3950  174.8740  144.6960 C   0  0  0  0  0  0  0  0  0  0  0  0
  187.7290  176.0810  140.8700 C   0  0  0  0  0  0  0  0  0  0  0  0
  188.2040  174.9520  140.1860 C   0  0  0  0  0  0  0  0  0  0  0  0
  189.3480  177.4280  145.8940 N   0  0  0  0  0  2  0  0  0  0  0  0
  190.4260  173.5070  142.6740 C   0  0  0  0  0  3  0  0  0  0  0  0
  188.9870  176.9550  144.6480 O   0  0  0  0  0  0  0  0  0  0  0  0
  190.8780  175.0360  146.0890 C   0  0  0  0  0  0  0  0  0  0  0  0
  187.0030  177.3080  146.6230 C   0  0  0  0  0  0  0  0  0  0  0  0
  185.4520  178.7670  145.2360 C   0  0  0  0  0  0  0  0  0  0  0  0
  186.0530  176.7650  147.2510 O   0  0  0  0  0  0  0  0  0  0  0  0
  184.4090  178.3290  145.7890 O   0  0  0  0  0  0  0  0  0  0  0  0
  186.7480  178.2930  145.6160 N   0  0  0  0  0  2  0  0  0  0  0  0
  185.3360  179.7960  144.1690 C   0  0  0  0  0  1  0  0  0  0  0  0
  1  3  1  0  0  0  0
  3 18  2  0  0  0  0
  3 11  1  0  0  0  0
  4  2  1  0  0  0  0
  4 14  2  0  0  0  0
  5 11  1  0  0  0  0
  6 15  1  0  0  0  0
  9 19  1  0  0  0  0
  9 14  1  0  0  0  0
 10 16  2  0  0  0  0
 11  9  2  0  0  0  0
 12 21  1  6  0  0  0
 12 13  1  0  0  0  0
 13  8  1  0  0  0  0
 14 20  1  0  0  0  0
 15  5  2  0  0  0  0
 16  1  1  0  0  0  0
 16 15  1  0  0  0  0
 17 12  1  0  0  0  0
 18  4  1  0  0  0  0
 19 17  1  0  0  0  0
 20  7  2  0  0  0  0
 20  8  1  0  0  0  0
 21 23  2  0  0  0  0
 22 25  1  0  0  0  0
 22 24  2  0  0  0  0
 25 21  1  0  0  0  0
 26 22  1  0  0  0  0
M  END
>  <MODEL>
7

>  <REMARK>
 VINA RESULT:      -7.2      1.842      6.149
  Name = 
  1 active torsions:
  status: ('A' for Active; 'I' for Inactive)
    1  A    between atoms: C_4  and  C_18
                            x       y       z     vdW  Elec       q    Type
                         _______ _______ _______ _____ _____    ______ ____

>  <TORSDO>
F 1

$$$$
=
 OpenBabel11042417223D

 26 28  0  0  1  0  0  0  0  0999 V2000
  189.6040  177.2770  147.7080 N   0  0  0  0  0  2  0  0  0  0  0  0
  185.4200  178.8740  146.0600 O   0  0  0  0  0  1  0  0  0  0  0  0
  188.7770  177.5220  146.6600 C   0  0  0  0  0  0  0  0  0  0  0  0
  186.6720  178.3280  145.7980 C   0  0  0  0  0  0  0  0  0  0  0  0
  190.4300  176.6630  145.1740 N   0  0  0  0  0  0  0  0  0  0  0  0
  192.6000  175.8170  145.9680 C   0  0  0  0  0  1  0  0  0  0  0  0
  185.5690  179.4140  143.2870 O   0  0  0  0  0  0  0  0  0  0  0  0
  185.6030  177.2200  142.5460 N   0  0  0  0  0  2  0  0  0  0  0  0
  188.3600  177.4580  144.2520 C   0  0  0  0  0  0  0  0  0  0  0  0
  191.5790  176.5150  148.5150 O   0  0  0  0  0  0  0  0  0  0  0  0
  189.1960  177.2060  145.3540 C   0  0  0  0  0  0  0  0  0  0  0  0
  187.4820  176.2030  141.4090 C   0  0  1  0  0  3  0  0  0  0  0  0
  186.3200  175.9700  142.3630 C   0  0  0  0  0  2  0  0  0  0  0  0
  187.0630  178.0130  144.4770 C   0  0  0  0  0  0  0  0  0  0  0  0
  191.2590  176.4160  146.2220 C   0  0  0  0  0  0  0  0  0  0  0  0
  190.8350  176.7310  147.5220 C   0  0  0  0  0  0  0  0  0  0  0  0
  188.2530  177.3910  141.7850 N   0  0  0  0  0  2  0  0  0  0  0  0
  187.5240  178.0830  146.8730 C   0  0  0  0  0  3  0  0  0  0  0  0
  188.8940  177.1560  142.9840 O   0  0  0  0  0  0  0  0  0  0  0  0
  186.0780  178.2670  143.3970 C   0  0  0  0  0  0  0  0  0  0  0  0
  188.3490  174.9900  141.2600 C   0  0  0  0  0  0  0  0  0  0  0  0
  189.2590  172.8930  142.3680 C   0  0  0  0  0  0  0  0  0  0  0  0
  188.9290  174.7540  140.1640 O   0  0  0  0  0  0  0  0  0  0  0  0
  189.9080  172.5360  141.3490 O   0  0  0  0  0  0  0  0  0  0  0  0
  188.4800  174.0930  142.3670 N   0  0  0  0  0  2  0  0  0  0  0  0
  189.3040  172.0530  143.5940 C   0  0  0  0  0  1  0  0  0  0  0  0
  3 18  1  0  0  0  0
  3  1  1  0  0  0  0
  4  2  1  0  0  0  0
  4 18  2  0  0  0  0
  5 11  1  0  0  0  0
  5 15  2  0  0  0  0
  6 15  1  0  0  0  0
  7 20  2  0  0  0  0
  8 20  1  0  0  0  0
  9 14  2  0  0  0  0
  9 11  1  0  0  0  0
 11  3  2  0  0  0  0
 12 21  1  1  0  0  0
 12 17  1  0  0  0  0
 12 13  1  0  0  0  0
 13  8  1  0  0  0  0
 14  4  1  0  0  0  0
 15 16  1  0  0  0  0
 16  1  1  0  0  0  0
 16 10  2  0  0  0  0
 17 19  1  0  0  0  0
 19  9  1  0  0  0  0
 20 14  1  0  0  0  0
 21 25  1  0  0  0  0
 22 26  1  0  0  0  0
 23 21  2  0  0  0  0
 24 22  2  0  0  0  0
 25 22  1  0  0  0  0
M  END
>  <MODEL>
8

>  <REMARK>
 VINA RESULT:      -7.0      1.414      1.816
  Name = 
  1 active torsions:
  status: ('A' for Active; 'I' for Inactive)
    1  A    between atoms: C_4  and  C_18
                            x       y       z     vdW  Elec       q    Type
                         _______ _______ _______ _____ _____    ______ ____

>  <TORSDO>
F 1

$$$$
=
 OpenBabel11042417223D

 26 28  0  0  1  0  0  0  0  0999 V2000
  188.1300  175.3000  141.0860 N   0  0  0  0  0  2  0  0  0  0  0  0
  185.9520  177.9100  144.4370 O   0  0  0  0  0  1  0  0  0  0  0  0
  188.0060  175.6640  142.3880 C   0  0  0  0  0  0  0  0  0  0  0  0
  186.9190  176.9660  144.1040 C   0  0  0  0  0  0  0  0  0  0  0  0
  189.7890  174.1860  142.9540 N   0  0  0  0  0  0  0  0  0  0  0  0
  190.9540  172.8250  141.2670 C   0  0  0  0  0  1  0  0  0  0  0  0
  186.4560  176.8610  147.0150 O   0  0  0  0  0  0  0  0  0  0  0  0
  188.6630  177.5360  147.2000 N   0  0  0  0  0  2  0  0  0  0  0  0
  188.7440  175.4480  144.7100 C   0  0  0  0  0  0  0  0  0  0  0  0
  189.1550  174.0800  139.4760 O   0  0  0  0  0  0  0  0  0  0  0  0
  188.8580  175.0950  143.3530 C   0  0  0  0  0  0  0  0  0  0  0  0
  190.5400  176.0130  147.3330 C   0  0  1  0  0  3  0  0  0  0  0  0
  190.0590  177.3700  146.8360 C   0  0  0  0  0  2  0  0  0  0  0  0
  187.7670  176.4180  145.0930 C   0  0  0  0  0  0  0  0  0  0  0  0
  189.9150  173.8230  141.6500 C   0  0  0  0  0  0  0  0  0  0  0  0
  189.0640  174.3950  140.6920 C   0  0  0  0  0  0  0  0  0  0  0  0
  189.6020  174.9480  146.9710 N   0  0  0  0  0  2  0  0  0  0  0  0
  187.0420  176.5880  142.7690 C   0  0  0  0  0  3  0  0  0  0  0  0
  189.6070  174.7830  145.6010 O   0  0  0  0  0  0  0  0  0  0  0  0
  187.5960  176.9070  146.4830 C   0  0  0  0  0  0  0  0  0  0  0  0
  191.9390  175.7080  146.8920 C   0  0  0  0  0  0  0  0  0  0  0  0
  194.1620  176.6530  146.1050 C   0  0  0  0  0  0  0  0  0  0  0  0
  192.3520  174.5160  146.8700 O   0  0  0  0  0  0  0  0  0  0  0  0
  194.7070  175.5210  146.0180 O   0  0  0  0  0  0  0  0  0  0  0  0
  192.8020  176.7900  146.5300 N   0  0  0  0  0  2  0  0  0  0  0  0
  194.9440  177.8690  145.7600 C   0  0  0  0  0  1  0  0  0  0  0  0
  1  3  1  0  0  0  0
  3 18  2  0  0  0  0
  3 11  1  0  0  0  0
  4  2  1  0  0  0  0
  4 14  2  0  0  0  0
  5 11  1  0  0  0  0
  6 15  1  0  0  0  0
  9 14  1  0  0  0  0
  9 19  1  0  0  0  0
 10 16  2  0  0  0  0
 11  9  2  0  0  0  0
 12 21  1  6  0  0  0
 13  8  1  0  0  0  0
 13 12  1  0  0  0  0
 14 20  1  0  0  0  0
 15  5  2  0  0  0  0
 16  1  1  0  0  0  0
 16 15  1  0  0  0  0
 17 12  1  0  0  0  0
 18  4  1  0  0  0  0
 19 17  1  0  0  0  0
 20  7  2  0  0  0  0
 20  8  1  0  0  0  0
 22 25  1  0  0  0  0
 23 21  2  0  0  0  0
 24 22  2  0  0  0  0
 25 21  1  0  0  0  0
 26 22  1  0  0  0  0
M  END
>  <MODEL>
9

>  <REMARK>
 VINA RESULT:      -6.9      2.061      5.768
  Name = 
  1 active torsions:
  status: ('A' for Active; 'I' for Inactive)
    1  A    between atoms: C_4  and  C_18
                            x       y       z     vdW  Elec       q    Type
                         _______ _______ _______ _____ _____    ______ ____

>  <TORSDO>
F 1

$$$$
