=
 OpenBabel11042417403D

 54 61  0  0  1  0  0  0  0  0999 V2000
  195.6370  176.5770  141.0570 C   0  0  0  0  0  2  0  0  0  0  0  0
  190.5680  170.3630  139.2210 C   0  0  0  0  0  0  0  0  0  0  0  0
  193.4890  176.1040  143.9090 C   0  0  1  0  0  3  0  0  0  0  0  0
  196.6460  176.2610  142.1420 C   0  0  1  0  0  3  0  0  0  0  0  0
  190.3670  176.4420  142.4960 C   0  0  0  0  0  2  0  0  0  0  0  0
  190.9930  174.1880  142.0960 O   0  0  0  0  0  0  0  0  0  0  0  0
  189.1580  177.3520  144.5730 N   0  0  0  0  0  2  0  0  0  0  0  0
  192.5060  169.7790  141.3240 C   0  0  1  0  0  3  0  0  0  0  0  0
  190.4150  173.4590  139.8860 C   0  0  0  0  0  2  0  0  0  0  0  0
  195.8230  175.7210  143.2980 C   0  0  1  0  0  3  0  0  0  0  0  0
  190.8730  170.2940  141.9500 S   0  0  0  0  0  0  0  0  0  0  0  0
  192.3170  168.8870  140.1290 C   0  0  0  0  0  3  0  0  0  0  0  0
  191.4380  169.1640  139.1630 C   0  0  0  0  0  0  0  0  0  0  0  0
  191.1540  176.0800  144.6560 N   0  0  0  0  0  0  0  0  0  0  0  0
  190.0170  170.8510  138.0400 O   0  0  0  0  0  1  0  0  0  0  0  0
  194.4170  175.6080  142.8720 N   0  0  2  0  0  0  0  0  0  0  0  0
  196.0820  173.8180  141.5670 C   0  0  0  0  0  2  0  0  0  0  0  0
  196.7640  174.7820  142.5360 C   0  0  1  0  0  3  0  0  0  0  0  0
  192.1200  175.4020  143.8090 C   0  0  1  0  0  3  0  0  0  0  0  0
  194.2940  176.5140  141.7360 C   0  0  0  0  0  2  0  0  0  0  0  0
  196.9070  171.4480  142.0410 C   0  0  1  0  0  3  0  0  0  0  0  0
  191.5300  173.8500  140.8500 C   0  0  0  0  0  2  0  0  0  0  0  0
  190.3400  171.0030  140.3810 C   0  0  0  0  0  0  0  0  0  0  0  0
  195.4560  171.0130  142.2470 C   0  0  0  0  0  2  0  0  0  0  0  0
  194.8170  170.6560  140.9180 C   0  0  0  0  0  2  0  0  0  0  0  0
  191.5170  175.4470  142.3990 C   0  0  2  0  0  3  0  0  0  0  0  0
  190.2300  176.6360  143.9570 C   0  0  0  0  0  0  0  0  0  0  0  0
  193.3430  171.0000  140.9640 C   0  0  0  0  0  2  0  0  0  0  0  0
  197.0380  172.7000  141.1580 C   0  0  0  0  0  2  0  0  0  0  0  0
  189.5840  172.2960  140.4240 C   0  0  0  0  0  2  0  0  0  0  0  0
  191.3670  168.2540  137.9850 C   0  0  0  0  0  1  0  0  0  0  0  0
  194.0150  175.8990  145.2430 N   0  0  0  0  0  0  0  0  0  0  0  0
  193.7670  176.7390  146.1790 C   0  0  0  0  0  2  0  0  0  0  0  0
  197.5960  171.6400  143.3850 C   0  0  0  0  0  2  0  0  0  0  0  0
  196.6530  171.2450  144.5130 C   0  0  2  0  0  3  0  0  0  0  0  0
  196.1900  172.3930  145.1610 O   0  0  0  0  0  0  0  0  0  0  0  0
  194.8910  172.3910  144.9520 O   0  0  0  0  0  1  0  0  0  0  0  0
  197.3800  170.3660  145.5170 C   0  0  0  0  0  2  0  0  0  0  0  0
  196.2710  169.1680  146.2320 S   0  0  0  0  0  0  0  0  0  0  0  0
  197.0740  168.1670  147.0130 O   0  0  0  0  0  0  0  0  0  0  0  0
  195.3080  169.8600  147.1570 O   0  0  0  0  0  0  0  0  0  0  0  0
  195.3810  168.3240  144.9370 C   0  0  0  0  0  2  0  0  0  0  0  0
  193.9100  168.6960  144.9620 C   0  0  0  0  0  3  0  0  0  0  0  0
  193.3220  168.1700  146.1120 O   0  0  0  0  0  1  0  0  0  0  0  0
  193.2680  168.1750  143.8390 O   0  0  0  0  0  1  0  0  0  0  0  0
  188.0700  177.9470  143.8110 C   0  0  0  0  0  2  0  0  0  0  0  0
  185.5970  178.1460  143.6780 N   0  0  1  0  0  0  0  0  0  0  0  0
  186.6220  177.8360  145.8510 C   0  0  1  0  0  3  0  0  0  0  0  0
  184.8210  178.8540  144.7190 C   0  0  1  0  0  3  0  0  0  0  0  0
  184.8050  177.7050  146.7730 C   0  0  0  0  0  2  0  0  0  0  0  0
  185.4950  178.7450  146.0170 N   0  0  1  0  0  0  0  0  0  0  0  0
  185.6510  179.6210  143.7950 C   0  0  0  0  0  2  0  0  0  0  0  0
  185.9390  176.7160  146.6070 C   0  0  0  0  0  2  0  0  0  0  0  0
  186.7180  177.5150  144.3750 C   0  0  2  0  0  3  0  0  0  0  0  0
  1 20  1  0  0  0  0
  2 23  2  0  0  0  0
  3 32  1  1  0  0  0
  4  1  1  6  0  0  0
  4 18  1  0  0  0  0
  4 10  1  0  0  0  0
  5 27  1  0  0  0  0
  6 26  1  0  0  0  0
  8 12  1  6  0  0  0
  8 11  1  0  0  0  0
  9 30  1  0  0  0  0
  9 22  1  0  0  0  0
 13  2  1  0  0  0  0
 13 12  2  0  0  0  0
 15  2  1  0  0  0  0
 16 10  1  0  0  0  0
 16  3  1  0  0  0  0
 17 18  1  0  0  0  0
 18 10  1  0  0  0  0
 19  3  1  0  0  0  0
 19 14  1  0  0  0  0
 20 16  1  0  0  0  0
 21 24  1  0  0  0  0
 21 34  1  0  0  0  0
 22  6  1  0  0  0  0
 23 30  1  0  0  0  0
 23 11  1  0  0  0  0
 25 28  1  0  0  0  0
 25 24  1  0  0  0  0
 26  5  1  0  0  0  0
 26 19  1  0  0  0  0
 27  7  1  0  0  0  0
 27 14  2  0  0  0  0
 28  8  1  0  0  0  0
 29 17  1  0  0  0  0
 29 21  1  0  0  0  0
 31 13  1  0  0  0  0
 32 33  2  0  0  0  0
 34 35  1  0  0  0  0
 35 36  1  0  0  0  0
 35 38  1  0  0  0  0
 37 36  1  0  0  0  0
 38 39  1  0  0  0  0
 39 40  2  0  0  0  0
 39 41  2  0  0  0  0
 42 43  1  0  0  0  0
 42 39  1  0  0  0  0
 43 44  1  0  0  0  0
 45 43  1  0  0  0  0
 46 54  1  0  0  0  0
 46  7  1  0  0  0  0
 47 52  1  0  0  0  0
 47 54  1  0  0  0  0
 47 49  1  0  0  0  0
 48 51  1  0  0  0  0
 48 53  1  0  0  0  0
 49 51  1  0  0  0  0
 51 50  1  0  0  0  0
 52 49  1  0  0  0  0
 53 50  1  0  0  0  0
 54 48  1  0  0  0  0
M  END
>  <MODEL>
1

>  <REMARK>
 VINA RESULT:      -7.4      0.000      0.000
  Name = 
  10 active torsions:
  status: ('A' for Active; 'I' for Inactive)
    1  A    between atoms: C_1  and  C_46
    2  A    between atoms: N_2  and  C_5
    3  A    between atoms: C_9  and  C_34
    4  A    between atoms: C_9  and  C_40
    5  A    between atoms: S_10  and  C_13
    6  A    between atoms: S_10  and  C_46
    7  A    between atoms: C_13  and  C_34
    8  A    between atoms: C_14  and  N_19
    9  A    between atoms: C_14  and  C_53
   10  A    between atoms: C_34  and  O_37
                            x       y       z     vdW  Elec       q    Type
                         _______ _______ _______ _____ _____    ______ ____

>  <TORSDO>
F 10

$$$$
=
 OpenBabel11042417403D

 54 61  0  0  1  0  0  0  0  0999 V2000
  189.1640  173.9750  146.2170 C   0  0  0  0  0  2  0  0  0  0  0  0
  191.3360  169.8050  139.4660 C   0  0  0  0  0  0  0  0  0  0  0  0
  192.3750  175.2460  145.1920 C   0  0  1  0  0  3  0  0  0  0  0  0
  188.8440  175.4360  145.9740 C   0  0  1  0  0  3  0  0  0  0  0  0
  194.2830  172.3800  145.1580 C   0  0  0  0  0  2  0  0  0  0  0  0
  193.1610  172.4080  143.0670 O   0  0  0  0  0  0  0  0  0  0  0  0
  196.5420  173.4770  145.7020 N   0  0  0  0  0  2  0  0  0  0  0  0
  190.7340  172.6260  139.0190 C   0  0  1  0  0  3  0  0  0  0  0  0
  192.3490  170.2420  142.4370 C   0  0  0  0  0  2  0  0  0  0  0  0
  190.0460  175.9810  145.2220 C   0  0  1  0  0  3  0  0  0  0  0  0
  192.5110  172.2760  139.2250 S   0  0  0  0  0  0  0  0  0  0  0  0
  190.1050  171.5270  138.2080 C   0  0  0  0  0  3  0  0  0  0  0  0
  190.3740  170.2380  138.4230 C   0  0  0  0  0  0  0  0  0  0  0  0
  194.7060  174.6310  144.7490 N   0  0  0  0  0  0  0  0  0  0  0  0
  191.2540  168.5060  139.9560 O   0  0  0  0  0  1  0  0  0  0  0  0
  190.9700  174.8720  144.9300 N   0  0  2  0  0  0  0  0  0  0  0  0
  188.5870  174.6830  143.5280 C   0  0  0  0  0  2  0  0  0  0  0  0
  188.6980  175.8530  144.5040 C   0  0  1  0  0  3  0  0  0  0  0  0
  193.3390  174.4400  144.2980 C   0  0  1  0  0  3  0  0  0  0  0  0
  190.6290  173.8330  145.8940 C   0  0  0  0  0  2  0  0  0  0  0  0
  187.7420  175.5580  141.2820 C   0  0  1  0  0  3  0  0  0  0  0  0
  191.9990  171.6460  142.9160 C   0  0  0  0  0  2  0  0  0  0  0  0
  192.2480  170.6550  139.9680 C   0  0  0  0  0  0  0  0  0  0  0  0
  188.9810  174.9640  140.6140 C   0  0  0  0  0  2  0  0  0  0  0  0
  188.7490  173.5050  140.2710 C   0  0  0  0  0  2  0  0  0  0  0  0
  193.1040  172.9260  144.3630 C   0  0  2  0  0  3  0  0  0  0  0  0
  195.2020  173.5390  145.2100 C   0  0  0  0  0  0  0  0  0  0  0  0
  190.0590  172.7510  140.3790 C   0  0  0  0  0  2  0  0  0  0  0  0
  187.3830  174.8640  142.6070 C   0  0  0  0  0  2  0  0  0  0  0  0
  193.1230  170.2700  141.1220 C   0  0  0  0  0  2  0  0  0  0  0  0
  189.6540  169.2170  137.6110 C   0  0  0  0  0  1  0  0  0  0  0  0
  192.6060  176.6580  144.9630 N   0  0  0  0  0  0  0  0  0  0  0  0
  192.7630  177.1090  143.7730 C   0  0  0  0  0  2  0  0  0  0  0  0
  187.9110  177.0590  141.4690 C   0  0  0  0  0  2  0  0  0  0  0  0
  186.5470  177.7230  141.5990 C   0  0  2  0  0  3  0  0  0  0  0  0
  186.0970  178.1190  140.3370 O   0  0  0  0  0  0  0  0  0  0  0  0
  184.8430  178.4720  140.5270 O   0  0  0  0  0  1  0  0  0  0  0  0
  186.6460  178.9450  142.4970 C   0  0  0  0  0  2  0  0  0  0  0  0
  185.5530  178.7930  143.8970 S   0  0  0  0  0  0  0  0  0  0  0  0
  184.8810  180.1160  144.1370 O   0  0  0  0  0  0  0  0  0  0  0  0
  184.5060  177.7520  143.6100 O   0  0  0  0  0  0  0  0  0  0  0  0
  186.4900  178.3400  145.3450 C   0  0  0  0  0  2  0  0  0  0  0  0
  185.5770  178.1550  146.5430 C   0  0  0  0  0  3  0  0  0  0  0  0
  185.8600  179.1360  147.4930 O   0  0  0  0  0  1  0  0  0  0  0  0
  185.7820  176.8960  147.1080 O   0  0  0  0  0  1  0  0  0  0  0  0
  197.1470  172.2430  146.1810 C   0  0  0  0  0  2  0  0  0  0  0  0
  196.1180  169.9830  146.2390 N   0  0  1  0  0  0  0  0  0  0  0  0
  197.7320  170.4790  144.5030 C   0  0  1  0  0  3  0  0  0  0  0  0
  196.8920  168.7710  145.8950 C   0  0  1  0  0  3  0  0  0  0  0  0
  197.4390  168.6680  143.6080 C   0  0  0  0  0  2  0  0  0  0  0  0
  197.9330  169.0950  144.9140 N   0  0  1  0  0  0  0  0  0  0  0  0
  197.1650  169.4660  147.1490 C   0  0  0  0  0  2  0  0  0  0  0  0
  197.1910  170.0860  143.1450 C   0  0  0  0  0  2  0  0  0  0  0  0
  196.6380  171.0470  145.3800 C   0  0  2  0  0  3  0  0  0  0  0  0
  2 15  1  0  0  0  0
  2 23  2  0  0  0  0
  3 32  1  6  0  0  0
  4  1  1  6  0  0  0
  5 27  1  0  0  0  0
  6 26  1  0  0  0  0
  7 46  1  0  0  0  0
  8 12  1  6  0  0  0
  8 11  1  0  0  0  0
  8 28  1  0  0  0  0
  9 22  1  0  0  0  0
 10  4  1  0  0  0  0
 11 23  1  0  0  0  0
 12 13  2  0  0  0  0
 13  2  1  0  0  0  0
 14 27  2  0  0  0  0
 16  3  1  0  0  0  0
 16 10  1  0  0  0  0
 16 20  1  0  0  0  0
 17 18  1  0  0  0  0
 18 10  1  0  0  0  0
 18  4  1  0  0  0  0
 19 26  1  0  0  0  0
 19 14  1  0  0  0  0
 19  3  1  0  0  0  0
 20  1  1  0  0  0  0
 21 34  1  0  0  0  0
 21 29  1  0  0  0  0
 22  6  1  0  0  0  0
 23 30  1  0  0  0  0
 24 21  1  0  0  0  0
 25 28  1  0  0  0  0
 25 24  1  0  0  0  0
 26  5  1  0  0  0  0
 27  7  1  0  0  0  0
 29 17  1  0  0  0  0
 30  9  1  0  0  0  0
 31 13  1  0  0  0  0
 33 32  2  0  0  0  0
 34 35  1  0  0  0  0
 35 38  1  0  0  0  0
 36 37  1  0  0  0  0
 36 35  1  0  0  0  0
 38 39  1  0  0  0  0
 39 40  2  0  0  0  0
 39 42  1  0  0  0  0
 41 39  2  0  0  0  0
 42 43  1  0  0  0  0
 43 45  1  0  0  0  0
 43 44  1  0  0  0  0
 47 52  1  0  0  0  0
 48 51  1  0  0  0  0
 48 54  1  0  0  0  0
 49 47  1  0  0  0  0
 49 52  1  0  0  0  0
 50 51  1  0  0  0  0
 51 49  1  0  0  0  0
 53 50  1  0  0  0  0
 53 48  1  0  0  0  0
 54 46  1  0  0  0  0
 54 47  1  0  0  0  0
M  END
>  <MODEL>
2

>  <REMARK>
 VINA RESULT:      -6.6      3.813      9.594
  Name = 
  10 active torsions:
  status: ('A' for Active; 'I' for Inactive)
    1  A    between atoms: C_1  and  C_46
    2  A    between atoms: N_2  and  C_5
    3  A    between atoms: C_9  and  C_34
    4  A    between atoms: C_9  and  C_40
    5  A    between atoms: S_10  and  C_13
    6  A    between atoms: S_10  and  C_46
    7  A    between atoms: C_13  and  C_34
    8  A    between atoms: C_14  and  N_19
    9  A    between atoms: C_14  and  C_53
   10  A    between atoms: C_34  and  O_37
                            x       y       z     vdW  Elec       q    Type
                         _______ _______ _______ _____ _____    ______ ____

>  <TORSDO>
F 10

$$$$
=
 OpenBabel11042417403D

 54 61  0  0  1  0  0  0  0  0999 V2000
  188.3750  175.7860  140.6910 C   0  0  0  0  0  2  0  0  0  0  0  0
  196.4500  175.9170  142.2570 C   0  0  0  0  0  0  0  0  0  0  0  0
  189.2770  172.4810  141.8030 C   0  0  1  0  0  3  0  0  0  0  0  0
  187.5020  175.6350  141.9200 C   0  0  1  0  0  3  0  0  0  0  0  0
  191.7470  171.6380  139.5580 C   0  0  0  0  0  2  0  0  0  0  0  0
  192.8340  172.9270  141.2280 O   0  0  0  0  0  0  0  0  0  0  0  0
  191.3690  169.0960  139.5860 N   0  0  0  0  0  2  0  0  0  0  0  0
  194.7530  175.6080  144.6110 C   0  0  1  0  0  3  0  0  0  0  0  0
  194.4150  174.4740  140.3010 C   0  0  0  0  0  2  0  0  0  0  0  0
  188.0510  174.4190  142.6450 C   0  0  1  0  0  3  0  0  0  0  0  0
  195.3930  174.0330  143.9530 S   0  0  0  0  0  0  0  0  0  0  0  0
  195.8300  176.6530  144.5230 C   0  0  0  0  0  3  0  0  0  0  0  0
  196.5960  176.8000  143.4400 C   0  0  0  0  0  0  0  0  0  0  0  0
  190.7130  170.5500  141.3360 N   0  0  0  0  0  0  0  0  0  0  0  0
  196.9200  176.3620  141.0250 O   0  0  0  0  0  1  0  0  0  0  0  0
  189.2600  173.9520  141.9450 N   0  0  2  0  0  0  0  0  0  0  0  0
  189.6110  176.4120  143.1700 C   0  0  0  0  0  2  0  0  0  0  0  0
  188.2110  175.8090  143.2700 C   0  0  1  0  0  3  0  0  0  0  0  0
  190.7220  171.9480  141.7320 C   0  0  1  0  0  3  0  0  0  0  0  0
  189.1510  174.4980  140.5980 C   0  0  0  0  0  2  0  0  0  0  0  0
  190.3470  177.1820  145.4920 C   0  0  1  0  0  3  0  0  0  0  0  0
  193.0660  174.2840  140.9860 C   0  0  0  0  0  2  0  0  0  0  0  0
  195.8380  174.7240  142.3490 C   0  0  0  0  0  0  0  0  0  0  0  0
  191.5840  176.2940  145.3650 C   0  0  0  0  0  2  0  0  0  0  0  0
  192.6920  177.0320  144.6350 C   0  0  0  0  0  2  0  0  0  0  0  0
  191.5790  172.6570  140.6770 C   0  0  2  0  0  3  0  0  0  0  0  0
  191.2510  170.3900  140.1810 C   0  0  0  0  0  0  0  0  0  0  0  0
  193.5130  176.0390  143.8390 C   0  0  0  0  0  2  0  0  0  0  0  0
  189.7590  177.5900  144.1310 C   0  0  0  0  0  2  0  0  0  0  0  0
  195.5570  173.8950  141.1330 C   0  0  0  0  0  2  0  0  0  0  0  0
  197.5940  177.9060  143.4190 C   0  0  0  0  0  1  0  0  0  0  0  0
  188.5980  171.8280  142.9050 N   0  0  0  0  0  0  0  0  0  0  0  0
  189.1520  171.7510  144.0580 C   0  0  0  0  0  2  0  0  0  0  0  0
  189.3020  176.5080  146.3690 C   0  0  0  0  0  2  0  0  0  0  0  0
  188.2400  177.5190  146.7800 C   0  0  2  0  0  3  0  0  0  0  0  0
  188.6710  178.2200  147.9090 O   0  0  0  0  0  0  0  0  0  0  0  0
  187.6140  178.8980  148.3030 O   0  0  0  0  0  1  0  0  0  0  0  0
  186.9390  176.8050  147.1060 C   0  0  0  0  0  2  0  0  0  0  0  0
  185.6550  177.2720  145.9610 S   0  0  0  0  0  0  0  0  0  0  0  0
  185.2960  176.0790  145.1190 O   0  0  0  0  0  0  0  0  0  0  0  0
  184.4390  177.7230  146.7230 O   0  0  0  0  0  0  0  0  0  0  0  0
  186.2400  178.5820  144.9030 C   0  0  0  0  0  2  0  0  0  0  0  0
  185.6520  178.4540  143.5090 C   0  0  0  0  0  3  0  0  0  0  0  0
  186.5120  179.0550  142.5910 O   0  0  0  0  0  1  0  0  0  0  0  0
  184.4100  179.0850  143.4560 O   0  0  0  0  0  1  0  0  0  0  0  0
  192.0200  168.8780  138.3020 C   0  0  0  0  0  2  0  0  0  0  0  0
  191.2430  168.1660  136.0520 N   0  0  1  0  0  0  0  0  0  0  0  0
  191.1480  170.5180  136.6230 C   0  0  1  0  0  3  0  0  0  0  0  0
  191.4820  168.9960  134.8530 C   0  0  1  0  0  3  0  0  0  0  0  0
  190.2230  170.9840  134.8640 C   0  0  0  0  0  2  0  0  0  0  0  0
  191.5200  170.4160  135.2170 N   0  0  1  0  0  0  0  0  0  0  0  0
  192.6000  168.2970  135.4770 C   0  0  0  0  0  2  0  0  0  0  0  0
  189.7820  171.0870  136.3070 C   0  0  0  0  0  2  0  0  0  0  0  0
  191.0380  169.1060  137.1550 C   0  0  2  0  0  3  0  0  0  0  0  0
  2 23  2  0  0  0  0
  2 13  1  0  0  0  0
  3 16  1  0  0  0  0
  3 32  1  1  0  0  0
  4  1  1  6  0  0  0
  4 10  1  0  0  0  0
  4 18  1  0  0  0  0
  5 27  1  0  0  0  0
  5 26  1  0  0  0  0
  7 27  1  0  0  0  0
  8 28  1  6  0  0  0
  9 22  1  0  0  0  0
  9 30  1  0  0  0  0
 10 18  1  0  0  0  0
 11  8  1  0  0  0  0
 12  8  1  0  0  0  0
 13 12  2  0  0  0  0
 14 19  1  0  0  0  0
 15  2  1  0  0  0  0
 16 10  1  0  0  0  0
 17 18  1  0  0  0  0
 17 29  1  0  0  0  0
 19  3  1  0  0  0  0
 20  1  1  0  0  0  0
 20 16  1  0  0  0  0
 21 34  1  0  0  0  0
 22  6  1  0  0  0  0
 23 11  1  0  0  0  0
 24 21  1  0  0  0  0
 25 24  1  0  0  0  0
 26  6  1  0  0  0  0
 26 19  1  0  0  0  0
 27 14  2  0  0  0  0
 28 25  1  0  0  0  0
 29 21  1  0  0  0  0
 30 23  1  0  0  0  0
 31 13  1  0  0  0  0
 32 33  2  0  0  0  0
 34 35  1  0  0  0  0
 35 38  1  0  0  0  0
 35 36  1  0  0  0  0
 36 37  1  0  0  0  0
 39 41  2  0  0  0  0
 39 38  1  0  0  0  0
 40 39  2  0  0  0  0
 42 39  1  0  0  0  0
 43 42  1  0  0  0  0
 44 43  1  0  0  0  0
 45 43  1  0  0  0  0
 46  7  1  0  0  0  0
 47 54  1  0  0  0  0
 48 54  1  0  0  0  0
 49 51  1  0  0  0  0
 49 52  1  0  0  0  0
 49 47  1  0  0  0  0
 50 51  1  0  0  0  0
 50 53  1  0  0  0  0
 51 48  1  0  0  0  0
 52 47  1  0  0  0  0
 53 48  1  0  0  0  0
 54 46  1  0  0  0  0
M  END
>  <MODEL>
3

>  <REMARK>
 VINA RESULT:      -6.5      4.382      9.982
  Name = 
  10 active torsions:
  status: ('A' for Active; 'I' for Inactive)
    1  A    between atoms: C_1  and  C_46
    2  A    between atoms: N_2  and  C_5
    3  A    between atoms: C_9  and  C_34
    4  A    between atoms: C_9  and  C_40
    5  A    between atoms: S_10  and  C_13
    6  A    between atoms: S_10  and  C_46
    7  A    between atoms: C_13  and  C_34
    8  A    between atoms: C_14  and  N_19
    9  A    between atoms: C_14  and  C_53
   10  A    between atoms: C_34  and  O_37
                            x       y       z     vdW  Elec       q    Type
                         _______ _______ _______ _____ _____    ______ ____

>  <TORSDO>
F 10

$$$$
=
 OpenBabel11042417403D

 54 61  0  0  1  0  0  0  0  0999 V2000
  188.0800  176.3180  140.8380 C   0  0  0  0  0  2  0  0  0  0  0  0
  196.2120  175.7610  141.9520 C   0  0  0  0  0  0  0  0  0  0  0  0
  188.7910  172.8810  141.6470 C   0  0  1  0  0  3  0  0  0  0  0  0
  187.2620  176.1330  142.1000 C   0  0  1  0  0  3  0  0  0  0  0  0
  191.0740  172.0470  139.2090 C   0  0  0  0  0  2  0  0  0  0  0  0
  192.3370  173.1210  140.9070 O   0  0  0  0  0  0  0  0  0  0  0  0
  190.5110  169.5430  139.0680 N   0  0  0  0  0  2  0  0  0  0  0  0
  194.6190  175.3870  144.3690 C   0  0  1  0  0  3  0  0  0  0  0  0
  193.9790  174.6210  140.0120 C   0  0  0  0  0  2  0  0  0  0  0  0
  187.7550  174.8270  142.6990 C   0  0  1  0  0  3  0  0  0  0  0  0
  195.1060  173.8270  143.5600 S   0  0  0  0  0  0  0  0  0  0  0  0
  195.7640  176.3580  144.2980 C   0  0  0  0  0  3  0  0  0  0  0  0
  196.4830  176.5350  143.1880 C   0  0  0  0  0  0  0  0  0  0  0  0
  190.0540  170.8970  140.9570 N   0  0  0  0  0  0  0  0  0  0  0  0
  196.6510  176.2670  140.7330 O   0  0  0  0  0  1  0  0  0  0  0  0
  188.8900  174.3330  141.9000 N   0  0  2  0  0  0  0  0  0  0  0  0
  189.4840  176.6590  143.2830 C   0  0  0  0  0  2  0  0  0  0  0  0
  188.0500  176.1490  143.4170 C   0  0  1  0  0  3  0  0  0  0  0  0
  190.1870  172.2550  141.4550 C   0  0  1  0  0  3  0  0  0  0  0  0
  188.7530  174.9910  140.6060 C   0  0  0  0  0  2  0  0  0  0  0  0
  190.3920  177.1910  145.6120 C   0  0  1  0  0  3  0  0  0  0  0  0
  192.6560  174.4730  140.7550 C   0  0  0  0  0  2  0  0  0  0  0  0
  195.5190  174.6090  141.9890 C   0  0  0  0  0  0  0  0  0  0  0  0
  191.5510  176.2310  145.3490 C   0  0  0  0  0  2  0  0  0  0  0  0
  192.6720  176.9450  144.6150 C   0  0  0  0  0  2  0  0  0  0  0  0
  191.0390  172.9840  140.4100 C   0  0  2  0  0  3  0  0  0  0  0  0
  190.5200  170.7910  139.7640 C   0  0  0  0  0  0  0  0  0  0  0  0
  193.3760  175.9630  143.7020 C   0  0  0  0  0  2  0  0  0  0  0  0
  189.7670  177.7450  144.3200 C   0  0  0  0  0  2  0  0  0  0  0  0
  195.1160  173.9000  140.7320 C   0  0  0  0  0  2  0  0  0  0  0  0
  197.5580  177.5670  143.1940 C   0  0  0  0  0  1  0  0  0  0  0  0
  188.1220  172.1920  142.7330 N   0  0  0  0  0  0  0  0  0  0  0  0
  188.7420  171.9420  143.8270 C   0  0  0  0  0  2  0  0  0  0  0  0
  189.3450  176.5250  146.4930 C   0  0  0  0  0  2  0  0  0  0  0  0
  188.2600  177.5280  146.8590 C   0  0  2  0  0  3  0  0  0  0  0  0
  188.6540  178.2540  147.9860 O   0  0  0  0  0  0  0  0  0  0  0  0
  187.5570  178.8610  148.3900 O   0  0  0  0  0  1  0  0  0  0  0  0
  186.9610  176.8030  147.1650 C   0  0  0  0  0  2  0  0  0  0  0  0
  185.6470  177.3820  146.1080 S   0  0  0  0  0  0  0  0  0  0  0  0
  185.2370  176.2680  145.1860 O   0  0  0  0  0  0  0  0  0  0  0  0
  184.4670  177.7890  146.9460 O   0  0  0  0  0  0  0  0  0  0  0  0
  186.2200  178.7640  145.1390 C   0  0  0  0  0  2  0  0  0  0  0  0
  185.4050  178.9070  143.8670 C   0  0  0  0  0  3  0  0  0  0  0  0
  186.2280  179.3760  142.8430 O   0  0  0  0  0  1  0  0  0  0  0  0
  184.3620  179.8110  144.0670 O   0  0  0  0  0  1  0  0  0  0  0  0
  191.0780  169.3810  137.7370 C   0  0  0  0  0  2  0  0  0  0  0  0
  193.0870  170.3390  136.6330 N   0  0  1  0  0  0  0  0  0  0  0  0
  193.3000  168.2260  137.7980 C   0  0  1  0  0  3  0  0  0  0  0  0
  194.0850  169.4790  135.9610 C   0  0  1  0  0  3  0  0  0  0  0  0
  195.3150  168.1670  137.4780 C   0  0  0  0  0  2  0  0  0  0  0  0
  194.1420  168.1660  136.6100 N   0  0  1  0  0  0  0  0  0  0  0  0
  192.7730  169.6710  135.3510 C   0  0  0  0  0  2  0  0  0  0  0  0
  194.4840  168.2540  138.7400 C   0  0  0  0  0  2  0  0  0  0  0  0
  192.5940  169.5650  137.7730 C   0  0  2  0  0  3  0  0  0  0  0  0
  2 23  2  0  0  0  0
  2 13  1  0  0  0  0
  3 16  1  0  0  0  0
  3 32  1  1  0  0  0
  4  1  1  6  0  0  0
  4 10  1  0  0  0  0
  4 18  1  0  0  0  0
  5 27  1  0  0  0  0
  5 26  1  0  0  0  0
  7 27  1  0  0  0  0
  8 28  1  6  0  0  0
  9 30  1  0  0  0  0
  9 22  1  0  0  0  0
 10 18  1  0  0  0  0
 11  8  1  0  0  0  0
 12  8  1  0  0  0  0
 13 31  1  0  0  0  0
 13 12  2  0  0  0  0
 14 19  1  0  0  0  0
 15  2  1  0  0  0  0
 16 10  1  0  0  0  0
 17 18  1  0  0  0  0
 17 29  1  0  0  0  0
 19  3  1  0  0  0  0
 20  1  1  0  0  0  0
 20 16  1  0  0  0  0
 21 34  1  0  0  0  0
 22  6  1  0  0  0  0
 23 11  1  0  0  0  0
 24 21  1  0  0  0  0
 25 24  1  0  0  0  0
 26  6  1  0  0  0  0
 26 19  1  0  0  0  0
 27 14  2  0  0  0  0
 28 25  1  0  0  0  0
 29 21  1  0  0  0  0
 30 23  1  0  0  0  0
 32 33  2  0  0  0  0
 34 35  1  0  0  0  0
 35 38  1  0  0  0  0
 35 36  1  0  0  0  0
 36 37  1  0  0  0  0
 39 41  2  0  0  0  0
 39 38  1  0  0  0  0
 40 39  2  0  0  0  0
 42 39  1  0  0  0  0
 43 45  1  0  0  0  0
 43 42  1  0  0  0  0
 44 43  1  0  0  0  0
 46 54  1  0  0  0  0
 46  7  1  0  0  0  0
 47 54  1  0  0  0  0
 48 53  1  0  0  0  0
 49 51  1  0  0  0  0
 49 47  1  0  0  0  0
 50 53  1  0  0  0  0
 51 50  1  0  0  0  0
 51 48  1  0  0  0  0
 52 49  1  0  0  0  0
 52 47  1  0  0  0  0
 54 48  1  0  0  0  0
M  END
>  <MODEL>
4

>  <REMARK>
 VINA RESULT:      -6.3      4.345     10.154
  Name = 
  10 active torsions:
  status: ('A' for Active; 'I' for Inactive)
    1  A    between atoms: C_1  and  C_46
    2  A    between atoms: N_2  and  C_5
    3  A    between atoms: C_9  and  C_34
    4  A    between atoms: C_9  and  C_40
    5  A    between atoms: S_10  and  C_13
    6  A    between atoms: S_10  and  C_46
    7  A    between atoms: C_13  and  C_34
    8  A    between atoms: C_14  and  N_19
    9  A    between atoms: C_14  and  C_53
   10  A    between atoms: C_34  and  O_37
                            x       y       z     vdW  Elec       q    Type
                         _______ _______ _______ _____ _____    ______ ____

>  <TORSDO>
F 10

$$$$
=
 OpenBabel11042417403D

 54 61  0  0  1  0  0  0  0  0999 V2000
  190.0660  169.4900  139.0020 C   0  0  0  0  0  2  0  0  0  0  0  0
  194.9030  172.2240  145.0690 C   0  0  0  0  0  0  0  0  0  0  0  0
  189.7130  173.0740  139.0850 C   0  0  1  0  0  3  0  0  0  0  0  0
  190.5320  169.8690  137.6110 C   0  0  1  0  0  3  0  0  0  0  0  0
  188.7100  173.6020  142.3360 C   0  0  0  0  0  2  0  0  0  0  0  0
  191.0760  173.4370  142.4310 O   0  0  0  0  0  0  0  0  0  0  0  0
  187.3380  175.7350  141.9190 N   0  0  0  0  0  2  0  0  0  0  0  0
  195.7760  172.9610  142.3830 C   0  0  1  0  0  3  0  0  0  0  0  0
  191.8260  172.1510  144.3110 C   0  0  0  0  0  2  0  0  0  0  0  0
  190.7370  171.3730  137.6620 C   0  0  1  0  0  3  0  0  0  0  0  0
  194.8040  174.2550  143.2220 S   0  0  0  0  0  0  0  0  0  0  0  0
  196.6920  172.3080  143.3800 C   0  0  0  0  0  3  0  0  0  0  0  0
  196.2860  171.9610  144.6030 C   0  0  0  0  0  0  0  0  0  0  0  0
  189.0680  174.9750  140.4910 N   0  0  0  0  0  0  0  0  0  0  0  0
  194.3970  171.4760  146.1270 O   0  0  0  0  0  1  0  0  0  0  0  0
  190.5210  171.8380  139.0430 N   0  0  2  0  0  0  0  0  0  0  0  0
  192.7880  170.2670  138.7810 C   0  0  0  0  0  2  0  0  0  0  0  0
  191.9500  170.4490  137.5160 C   0  0  1  0  0  3  0  0  0  0  0  0
  190.0450  173.9110  140.3360 C   0  0  1  0  0  3  0  0  0  0  0  0
  189.7200  170.7950  139.6710 C   0  0  0  0  0  2  0  0  0  0  0  0
  195.2400  170.7170  138.2180 C   0  0  1  0  0  3  0  0  0  0  0  0
  191.6500  172.2160  142.7980 C   0  0  0  0  0  2  0  0  0  0  0  0
  194.1240  173.1370  144.4620 C   0  0  0  0  0  0  0  0  0  0  0  0
  195.2660  171.7850  139.3110 C   0  0  0  0  0  2  0  0  0  0  0  0
  195.5630  171.1550  140.6590 C   0  0  0  0  0  2  0  0  0  0  0  0
  189.9720  173.1080  141.6400 C   0  0  2  0  0  3  0  0  0  0  0  0
  188.3580  174.8060  141.5490 C   0  0  0  0  0  0  0  0  0  0  0  0
  194.8490  171.9350  141.7440 C   0  0  0  0  0  2  0  0  0  0  0  0
  194.1470  169.6570  138.4420 C   0  0  0  0  0  2  0  0  0  0  0  0
  192.6820  173.3030  144.8310 C   0  0  0  0  0  2  0  0  0  0  0  0
  197.2480  171.2600  145.5000 C   0  0  0  0  0  1  0  0  0  0  0  0
  189.9270  173.8950  137.9100 N   0  0  0  0  0  0  0  0  0  0  0  0
  188.9530  174.1820  137.1280 C   0  0  0  0  0  2  0  0  0  0  0  0
  195.1120  171.3660  136.8480 C   0  0  0  0  0  2  0  0  0  0  0  0
  196.4940  171.5910  136.2500 C   0  0  2  0  0  3  0  0  0  0  0  0
  197.3170  170.5020  136.5480 O   0  0  0  0  0  0  0  0  0  0  0  0
  197.7200  170.0590  135.3760 O   0  0  0  0  0  1  0  0  0  0  0  0
  197.1120  172.8540  136.8250 C   0  0  0  0  0  2  0  0  0  0  0  0
  196.6880  174.2750  135.8360 S   0  0  0  0  0  0  0  0  0  0  0  0
  197.9350  175.0730  135.5710 O   0  0  0  0  0  0  0  0  0  0  0  0
  196.1030  173.8230  134.5270 O   0  0  0  0  0  0  0  0  0  0  0  0
  195.5180  175.2920  136.7160 C   0  0  0  0  0  2  0  0  0  0  0  0
  194.0980  174.9900  136.2720 C   0  0  0  0  0  3  0  0  0  0  0  0
  193.4890  176.1690  135.8430 O   0  0  0  0  0  1  0  0  0  0  0  0
  193.3700  174.4570  137.3340 O   0  0  0  0  0  1  0  0  0  0  0  0
  186.5530  175.5970  143.1370 C   0  0  0  0  0  2  0  0  0  0  0  0
  188.0290  177.1270  144.4220 N   0  0  1  0  0  0  0  0  0  0  0  0
  185.7690  176.7610  145.2110 C   0  0  1  0  0  3  0  0  0  0  0  0
  187.9840  177.1880  145.8980 C   0  0  1  0  0  3  0  0  0  0  0  0
  185.9870  178.1370  146.7030 C   0  0  0  0  0  2  0  0  0  0  0  0
  186.6350  176.8710  146.3780 N   0  0  1  0  0  0  0  0  0  0  0  0
  188.5620  176.0180  145.2440 C   0  0  0  0  0  2  0  0  0  0  0  0
  185.0830  178.0800  145.4910 C   0  0  0  0  0  2  0  0  0  0  0  0
  186.6570  176.8590  143.9900 C   0  0  2  0  0  3  0  0  0  0  0  0
  1 20  1  0  0  0  0
  2 15  1  0  0  0  0
  3 32  1  6  0  0  0
  3 19  1  0  0  0  0
  4 10  1  0  0  0  0
  4  1  1  1  0  0  0
  6 22  1  0  0  0  0
  7 46  1  0  0  0  0
  8 28  1  1  0  0  0
  8 11  1  0  0  0  0
  8 12  1  0  0  0  0
  9 30  1  0  0  0  0
 10 16  1  0  0  0  0
 11 23  1  0  0  0  0
 12 13  2  0  0  0  0
 13  2  1  0  0  0  0
 13 31  1  0  0  0  0
 14 27  2  0  0  0  0
 16  3  1  0  0  0  0
 16 20  1  0  0  0  0
 18  4  1  0  0  0  0
 18 10  1  0  0  0  0
 18 17  1  0  0  0  0
 19 14  1  0  0  0  0
 19 26  1  0  0  0  0
 21 29  1  0  0  0  0
 21 24  1  0  0  0  0
 22  9  1  0  0  0  0
 23 30  1  0  0  0  0
 23  2  2  0  0  0  0
 24 25  1  0  0  0  0
 25 28  1  0  0  0  0
 26  5  1  0  0  0  0
 26  6  1  0  0  0  0
 27  7  1  0  0  0  0
 27  5  1  0  0  0  0
 29 17  1  0  0  0  0
 33 32  2  0  0  0  0
 34 21  1  0  0  0  0
 35 36  1  0  0  0  0
 35 38  1  0  0  0  0
 35 34  1  0  0  0  0
 37 36  1  0  0  0  0
 39 42  1  0  0  0  0
 39 38  1  0  0  0  0
 40 39  2  0  0  0  0
 41 39  2  0  0  0  0
 43 42  1  0  0  0  0
 43 45  1  0  0  0  0
 44 43  1  0  0  0  0
 46 54  1  0  0  0  0
 47 52  1  0  0  0  0
 47 49  1  0  0  0  0
 48 53  1  0  0  0  0
 48 51  1  0  0  0  0
 49 51  1  0  0  0  0
 51 50  1  0  0  0  0
 52 49  1  0  0  0  0
 53 50  1  0  0  0  0
 54 47  1  0  0  0  0
 54 48  1  0  0  0  0
M  END
>  <MODEL>
5

>  <REMARK>
 VINA RESULT:      -6.0      3.911      7.141
  Name = 
  10 active torsions:
  status: ('A' for Active; 'I' for Inactive)
    1  A    between atoms: C_1  and  C_46
    2  A    between atoms: N_2  and  C_5
    3  A    between atoms: C_9  and  C_34
    4  A    between atoms: C_9  and  C_40
    5  A    between atoms: S_10  and  C_13
    6  A    between atoms: S_10  and  C_46
    7  A    between atoms: C_13  and  C_34
    8  A    between atoms: C_14  and  N_19
    9  A    between atoms: C_14  and  C_53
   10  A    between atoms: C_34  and  O_37
                            x       y       z     vdW  Elec       q    Type
                         _______ _______ _______ _____ _____    ______ ____

>  <TORSDO>
F 10

$$$$
=
 OpenBabel11042417403D

 54 61  0  0  1  0  0  0  0  0999 V2000
  188.8410  175.2460  140.4640 C   0  0  0  0  0  2  0  0  0  0  0  0
  195.9910  176.7700  144.2350 C   0  0  0  0  0  0  0  0  0  0  0  0
  189.7490  172.2430  142.2340 C   0  0  1  0  0  3  0  0  0  0  0  0
  187.6610  175.0830  141.4010 C   0  0  1  0  0  3  0  0  0  0  0  0
  192.8630  171.5760  140.9260 C   0  0  0  0  0  2  0  0  0  0  0  0
  193.2350  173.1730  142.6420 O   0  0  0  0  0  0  0  0  0  0  0  0
  192.7980  169.0210  141.1970 N   0  0  0  0  0  2  0  0  0  0  0  0
  193.7120  176.4340  146.0260 C   0  0  1  0  0  3  0  0  0  0  0  0
  194.8280  174.8470  142.0000 C   0  0  0  0  0  2  0  0  0  0  0  0
  188.1060  174.0420  142.4140 C   0  0  1  0  0  3  0  0  0  0  0  0
  194.7020  174.9200  145.8030 S   0  0  0  0  0  0  0  0  0  0  0  0
  194.6340  177.6190  146.1050 C   0  0  0  0  0  3  0  0  0  0  0  0
  195.6680  177.7760  145.2760 C   0  0  0  0  0  0  0  0  0  0  0  0
  191.4760  170.5210  142.4680 N   0  0  0  0  0  0  0  0  0  0  0  0
  196.7550  177.1600  143.1400 O   0  0  0  0  0  1  0  0  0  0  0  0
  189.5160  173.7010  142.1600 N   0  0  2  0  0  0  0  0  0  0  0  0
  189.1880  176.2930  143.0810 C   0  0  0  0  0  2  0  0  0  0  0  0
  187.9040  175.4940  142.8600 C   0  0  1  0  0  3  0  0  0  0  0  0
  191.2000  171.9350  142.6530 C   0  0  1  0  0  3  0  0  0  0  0  0
  189.7550  174.0900  140.7750 C   0  0  0  0  0  2  0  0  0  0  0  0
  189.0920  177.3900  145.3860 C   0  0  1  0  0  3  0  0  0  0  0  0
  193.3670  174.5200  142.2900 C   0  0  0  0  0  2  0  0  0  0  0  0
  195.5260  175.5110  144.3130 C   0  0  0  0  0  0  0  0  0  0  0  0
  190.4060  176.6950  145.7410 C   0  0  0  0  0  2  0  0  0  0  0  0
  191.5860  177.5190  145.2630 C   0  0  0  0  0  2  0  0  0  0  0  0
  192.2460  172.6620  141.7990 C   0  0  2  0  0  3  0  0  0  0  0  0
  192.3540  170.3330  141.5480 C   0  0  0  0  0  0  0  0  0  0  0  0
  192.7210  176.5920  144.8800 C   0  0  0  0  0  2  0  0  0  0  0  0
  188.8980  177.5680  143.8700 C   0  0  0  0  0  2  0  0  0  0  0  0
  195.7250  174.5340  143.1950 C   0  0  0  0  0  2  0  0  0  0  0  0
  196.4880  179.0150  145.3880 C   0  0  0  0  0  1  0  0  0  0  0  0
  188.8510  171.6040  143.1750 N   0  0  0  0  0  0  0  0  0  0  0  0
  189.0770  171.6640  144.4360 C   0  0  0  0  0  2  0  0  0  0  0  0
  187.9180  176.6520  146.0130 C   0  0  0  0  0  2  0  0  0  0  0  0
  186.7410  177.6030  146.1880 C   0  0  2  0  0  3  0  0  0  0  0  0
  186.3840  177.6630  147.5370 O   0  0  0  0  0  0  0  0  0  0  0  0
  186.6870  178.8890  147.9070 O   0  0  0  0  0  1  0  0  0  0  0  0
  185.5510  177.1130  145.3810 C   0  0  0  0  0  2  0  0  0  0  0  0
  185.0650  178.3260  144.1680 S   0  0  0  0  0  0  0  0  0  0  0  0
  183.7550  178.9330  144.5850 O   0  0  0  0  0  0  0  0  0  0  0  0
  186.1080  179.4070  144.0880 O   0  0  0  0  0  0  0  0  0  0  0  0
  184.8680  177.5420  142.5790 C   0  0  0  0  0  2  0  0  0  0  0  0
  185.0990  178.5350  141.4540 C   0  0  0  0  0  3  0  0  0  0  0  0
  184.0680  178.4220  140.5220 O   0  0  0  0  0  1  0  0  0  0  0  0
  186.3160  178.2700  140.8270 O   0  0  0  0  0  1  0  0  0  0  0  0
  193.8270  168.7810  140.1960 C   0  0  0  0  0  2  0  0  0  0  0  0
  194.1640  168.2170  137.8000 N   0  0  1  0  0  0  0  0  0  0  0  0
  192.0030  169.0550  138.5020 C   0  0  1  0  0  3  0  0  0  0  0  0
  193.5490  169.0200  136.7220 C   0  0  1  0  0  3  0  0  0  0  0  0
  191.2090  168.7840  136.6410 C   0  0  0  0  0  2  0  0  0  0  0  0
  192.2860  169.6060  137.1820 N   0  0  1  0  0  0  0  0  0  0  0  0
  194.6590  169.5760  137.4890 C   0  0  0  0  0  2  0  0  0  0  0  0
  190.8930  168.1660  137.9850 C   0  0  0  0  0  2  0  0  0  0  0  0
  193.2090  168.2380  138.9090 C   0  0  2  0  0  3  0  0  0  0  0  0
  1 20  1  0  0  0  0
  2 23  2  0  0  0  0
  2 13  1  0  0  0  0
  3 19  1  0  0  0  0
  3 32  1  1  0  0  0
  4  1  1  6  0  0  0
  4 10  1  0  0  0  0
  4 18  1  0  0  0  0
  5 27  1  0  0  0  0
  5 26  1  0  0  0  0
  7 27  1  0  0  0  0
  8 28  1  6  0  0  0
  8 12  1  0  0  0  0
  9 22  1  0  0  0  0
  9 30  1  0  0  0  0
 10 18  1  0  0  0  0
 11  8  1  0  0  0  0
 13 31  1  0  0  0  0
 13 12  2  0  0  0  0
 14 19  1  0  0  0  0
 15  2  1  0  0  0  0
 16  3  1  0  0  0  0
 16 10  1  0  0  0  0
 17 29  1  0  0  0  0
 18 17  1  0  0  0  0
 20 16  1  0  0  0  0
 21 24  1  0  0  0  0
 21 34  1  0  0  0  0
 22  6  1  0  0  0  0
 23 11  1  0  0  0  0
 25 24  1  0  0  0  0
 26  6  1  0  0  0  0
 26 19  1  0  0  0  0
 27 14  2  0  0  0  0
 28 25  1  0  0  0  0
 29 21  1  0  0  0  0
 30 23  1  0  0  0  0
 32 33  2  0  0  0  0
 34 35  1  0  0  0  0
 35 36  1  0  0  0  0
 36 37  1  0  0  0  0
 38 35  1  0  0  0  0
 39 40  2  0  0  0  0
 39 38  1  0  0  0  0
 41 39  2  0  0  0  0
 42 39  1  0  0  0  0
 43 42  1  0  0  0  0
 44 43  1  0  0  0  0
 45 43  1  0  0  0  0
 46  7  1  0  0  0  0
 47 54  1  0  0  0  0
 48 54  1  0  0  0  0
 49 51  1  0  0  0  0
 49 52  1  0  0  0  0
 49 47  1  0  0  0  0
 50 51  1  0  0  0  0
 50 53  1  0  0  0  0
 51 48  1  0  0  0  0
 52 47  1  0  0  0  0
 53 48  1  0  0  0  0
 54 46  1  0  0  0  0
M  END
>  <MODEL>
6

>  <REMARK>
 VINA RESULT:      -6.0      4.287     10.501
  Name = 
  10 active torsions:
  status: ('A' for Active; 'I' for Inactive)
    1  A    between atoms: C_1  and  C_46
    2  A    between atoms: N_2  and  C_5
    3  A    between atoms: C_9  and  C_34
    4  A    between atoms: C_9  and  C_40
    5  A    between atoms: S_10  and  C_13
    6  A    between atoms: S_10  and  C_46
    7  A    between atoms: C_13  and  C_34
    8  A    between atoms: C_14  and  N_19
    9  A    between atoms: C_14  and  C_53
   10  A    between atoms: C_34  and  O_37
                            x       y       z     vdW  Elec       q    Type
                         _______ _______ _______ _____ _____    ______ ____

>  <TORSDO>
F 10

$$$$
=
 OpenBabel11042417403D

 54 61  0  0  1  0  0  0  0  0999 V2000
  193.7150  177.6870  144.0140 C   0  0  0  0  0  2  0  0  0  0  0  0
  190.0160  172.0930  139.2500 C   0  0  0  0  0  0  0  0  0  0  0  0
  191.4850  175.8170  146.1380 C   0  0  1  0  0  3  0  0  0  0  0  0
  194.6820  177.1060  145.0260 C   0  0  1  0  0  3  0  0  0  0  0  0
  188.4670  176.2560  144.5400 C   0  0  0  0  0  2  0  0  0  0  0  0
  189.5220  174.4620  143.4000 O   0  0  0  0  0  0  0  0  0  0  0  0
  186.9630  176.0790  146.6170 N   0  0  0  0  0  2  0  0  0  0  0  0
  191.8680  170.9900  141.2180 C   0  0  1  0  0  3  0  0  0  0  0  0
  189.2510  174.6080  141.0210 C   0  0  0  0  0  2  0  0  0  0  0  0
  193.8890  176.0390  145.7600 C   0  0  1  0  0  3  0  0  0  0  0  0
  190.1270  170.9780  141.7580 S   0  0  0  0  0  0  0  0  0  0  0  0
  191.9340  170.6350  139.7580 C   0  0  0  0  0  3  0  0  0  0  0  0
  191.0930  171.1510  138.8590 C   0  0  0  0  0  0  0  0  0  0  0  0
  189.1470  175.1720  146.4840 N   0  0  0  0  0  0  0  0  0  0  0  0
  189.4730  172.9310  138.2820 O   0  0  0  0  0  1  0  0  0  0  0  0
  192.5620  175.9130  145.1310 N   0  0  2  0  0  0  0  0  0  0  0  0
  194.6170  175.0470  143.4860 C   0  0  0  0  0  2  0  0  0  0  0  0
  195.0390  175.6260  144.8360 C   0  0  1  0  0  3  0  0  0  0  0  0
  190.2790  175.0310  145.5860 C   0  0  1  0  0  3  0  0  0  0  0  0
  192.3600  177.1710  144.4230 C   0  0  0  0  0  2  0  0  0  0  0  0
  195.8250  172.8240  143.1270 C   0  0  1  0  0  3  0  0  0  0  0  0
  190.2020  174.7300  142.2070 C   0  0  0  0  0  2  0  0  0  0  0  0
  189.5900  172.1760  140.5230 C   0  0  0  0  0  0  0  0  0  0  0  0
  194.4670  172.1470  142.9460 C   0  0  0  0  0  2  0  0  0  0  0  0
  194.0040  172.2680  141.5060 C   0  0  0  0  0  2  0  0  0  0  0  0
  189.7830  175.5540  144.2320 C   0  0  2  0  0  3  0  0  0  0  0  0
  188.1900  175.8260  145.9300 C   0  0  0  0  0  0  0  0  0  0  0  0
  192.4920  172.3560  141.4730 C   0  0  0  0  0  2  0  0  0  0  0  0
  195.7900  174.3310  142.8190 C   0  0  0  0  0  2  0  0  0  0  0  0
  188.6100  173.2240  140.9520 C   0  0  0  0  0  2  0  0  0  0  0  0
  191.2760  170.7900  137.4250 C   0  0  0  0  0  1  0  0  0  0  0  0
  191.9420  175.1690  147.3510 N   0  0  0  0  0  0  0  0  0  0  0  0
  191.5820  175.6090  148.5000 C   0  0  0  0  0  2  0  0  0  0  0  0
  196.3670  172.5560  144.5230 C   0  0  0  0  0  2  0  0  0  0  0  0
  195.3440  171.7720  145.3350 C   0  0  2  0  0  3  0  0  0  0  0  0
  194.6020  172.6500  146.1280 O   0  0  0  0  0  0  0  0  0  0  0  0
  193.3690  172.5420  145.6780 O   0  0  0  0  0  1  0  0  0  0  0  0
  196.0490  170.7680  146.2310 C   0  0  0  0  0  2  0  0  0  0  0  0
  195.2530  169.1750  146.1480 S   0  0  0  0  0  0  0  0  0  0  0  0
  196.2350  168.1670  145.6210 O   0  0  0  0  0  0  0  0  0  0  0  0
  194.8100  168.7600  147.5240 O   0  0  0  0  0  0  0  0  0  0  0  0
  193.8520  169.2590  145.0490 C   0  0  0  0  0  2  0  0  0  0  0  0
  194.0520  168.3520  143.8490 C   0  0  0  0  0  3  0  0  0  0  0  0
  194.9860  168.9270  142.9880 O   0  0  0  0  0  1  0  0  0  0  0  0
  192.8450  168.1860  143.1710 O   0  0  0  0  0  1  0  0  0  0  0  0
  185.8430  176.7730  145.9960 C   0  0  0  0  0  2  0  0  0  0  0  0
  186.4140  178.9920  145.0360 N   0  0  1  0  0  0  0  0  0  0  0  0
  185.3700  177.3420  143.6040 C   0  0  1  0  0  3  0  0  0  0  0  0
  185.5410  179.6520  144.0420 C   0  0  1  0  0  3  0  0  0  0  0  0
  185.5410  178.5460  141.9650 C   0  0  0  0  0  2  0  0  0  0  0  0
  184.8360  178.6480  143.2390 N   0  0  1  0  0  0  0  0  0  0  0  0
  185.1070  179.5640  145.4320 C   0  0  0  0  0  2  0  0  0  0  0  0
  186.1380  177.1990  142.3080 C   0  0  0  0  0  2  0  0  0  0  0  0
  186.3080  177.5560  144.7710 C   0  0  2  0  0  3  0  0  0  0  0  0
  1 20  1  0  0  0  0
  2 23  2  0  0  0  0
  3 32  1  1  0  0  0
  4  1  1  6  0  0  0
  4 10  1  0  0  0  0
  5 27  1  0  0  0  0
  6 26  1  0  0  0  0
  8 12  1  6  0  0  0
  8 28  1  0  0  0  0
  8 11  1  0  0  0  0
  9 22  1  0  0  0  0
 13  2  1  0  0  0  0
 13 12  2  0  0  0  0
 15  2  1  0  0  0  0
 16 10  1  0  0  0  0
 16  3  1  0  0  0  0
 17 18  1  0  0  0  0
 18  4  1  0  0  0  0
 18 10  1  0  0  0  0
 19  3  1  0  0  0  0
 19 14  1  0  0  0  0
 20 16  1  0  0  0  0
 21 34  1  0  0  0  0
 22  6  1  0  0  0  0
 23 30  1  0  0  0  0
 23 11  1  0  0  0  0
 24 21  1  0  0  0  0
 25 24  1  0  0  0  0
 26  5  1  0  0  0  0
 26 19  1  0  0  0  0
 27 14  2  0  0  0  0
 27  7  1  0  0  0  0
 28 25  1  0  0  0  0
 29 21  1  0  0  0  0
 29 17  1  0  0  0  0
 30  9  1  0  0  0  0
 31 13  1  0  0  0  0
 32 33  2  0  0  0  0
 34 35  1  0  0  0  0
 35 36  1  0  0  0  0
 35 38  1  0  0  0  0
 37 36  1  0  0  0  0
 39 38  1  0  0  0  0
 39 41  2  0  0  0  0
 40 39  2  0  0  0  0
 42 39  1  0  0  0  0
 43 42  1  0  0  0  0
 44 43  1  0  0  0  0
 45 43  1  0  0  0  0
 46  7  1  0  0  0  0
 47 52  1  0  0  0  0
 48 54  1  0  0  0  0
 49 47  1  0  0  0  0
 49 52  1  0  0  0  0
 50 53  1  0  0  0  0
 50 51  1  0  0  0  0
 51 48  1  0  0  0  0
 51 49  1  0  0  0  0
 53 48  1  0  0  0  0
 54 47  1  0  0  0  0
 54 46  1  0  0  0  0
M  END
>  <MODEL>
7

>  <REMARK>
 VINA RESULT:      -6.0      1.704      2.469
  Name = 
  10 active torsions:
  status: ('A' for Active; 'I' for Inactive)
    1  A    between atoms: C_1  and  C_46
    2  A    between atoms: N_2  and  C_5
    3  A    between atoms: C_9  and  C_34
    4  A    between atoms: C_9  and  C_40
    5  A    between atoms: S_10  and  C_13
    6  A    between atoms: S_10  and  C_46
    7  A    between atoms: C_13  and  C_34
    8  A    between atoms: C_14  and  N_19
    9  A    between atoms: C_14  and  C_53
   10  A    between atoms: C_34  and  O_37
                            x       y       z     vdW  Elec       q    Type
                         _______ _______ _______ _____ _____    ______ ____

>  <TORSDO>
F 10

$$$$
=
 OpenBabel11042417403D

 54 61  0  0  1  0  0  0  0  0999 V2000
  190.0030  169.8630  140.4820 C   0  0  0  0  0  2  0  0  0  0  0  0
  195.2330  174.5550  144.7600 C   0  0  0  0  0  0  0  0  0  0  0  0
  189.0190  173.2850  139.9400 C   0  0  1  0  0  3  0  0  0  0  0  0
  190.1440  169.9800  138.9780 C   0  0  1  0  0  3  0  0  0  0  0  0
  188.5150  174.3860  143.1630 C   0  0  0  0  0  2  0  0  0  0  0  0
  190.8510  174.5840  142.7940 O   0  0  0  0  0  0  0  0  0  0  0  0
  186.7240  176.1520  142.6360 N   0  0  0  0  0  2  0  0  0  0  0  0
  195.4780  174.7830  141.8610 C   0  0  1  0  0  3  0  0  0  0  0  0
  192.1380  173.8760  144.6890 C   0  0  0  0  0  2  0  0  0  0  0  0
  190.0750  171.4700  138.6920 C   0  0  1  0  0  3  0  0  0  0  0  0
  194.4460  176.0810  142.6170 S   0  0  0  0  0  0  0  0  0  0  0  0
  196.6570  174.5080  142.7520 C   0  0  0  0  0  3  0  0  0  0  0  0
  196.5390  174.3930  144.0770 C   0  0  0  0  0  0  0  0  0  0  0  0
  188.2900  175.3430  141.0540 N   0  0  0  0  0  0  0  0  0  0  0  0
  195.0640  174.0000  146.0250 O   0  0  0  0  0  1  0  0  0  0  0  0
  190.0200  172.2000  139.9710 N   0  0  2  0  0  0  0  0  0  0  0  0
  192.4560  170.9480  139.5520 C   0  0  0  0  0  2  0  0  0  0  0  0
  191.3930  170.7190  138.4790 C   0  0  1  0  0  3  0  0  0  0  0  0
  189.4030  174.4220  140.9080 C   0  0  1  0  0  3  0  0  0  0  0  0
  189.5450  171.2220  140.9420 C   0  0  0  0  0  2  0  0  0  0  0  0
  194.6490  171.6030  138.4150 C   0  0  1  0  0  3  0  0  0  0  0  0
  191.6940  173.5720  143.2620 C   0  0  0  0  0  2  0  0  0  0  0  0
  194.2080  175.1870  144.1630 C   0  0  0  0  0  0  0  0  0  0  0  0
  194.6680  172.8830  139.2500 C   0  0  0  0  0  2  0  0  0  0  0  0
  195.3040  172.6230  140.6020 C   0  0  0  0  0  2  0  0  0  0  0  0
  189.7060  173.9320  142.3290 C   0  0  2  0  0  3  0  0  0  0  0  0
  187.8170  175.3180  142.2490 C   0  0  0  0  0  0  0  0  0  0  0  0
  194.6580  173.5180  141.6400 C   0  0  0  0  0  2  0  0  0  0  0  0
  193.8240  170.4770  139.0620 C   0  0  0  0  0  2  0  0  0  0  0  0
  192.8460  175.2250  144.7860 C   0  0  0  0  0  2  0  0  0  0  0  0
  197.7540  174.0560  144.8710 C   0  0  0  0  0  1  0  0  0  0  0  0
  188.8720  173.8420  138.6100 N   0  0  0  0  0  0  0  0  0  0  0  0
  187.7880  174.4350  138.2670 C   0  0  0  0  0  2  0  0  0  0  0  0
  194.1690  171.9020  137.0020 C   0  0  0  0  0  2  0  0  0  0  0  0
  194.9070  173.1130  136.4480 C   0  0  2  0  0  3  0  0  0  0  0  0
  194.0100  174.1700  136.2740 O   0  0  0  0  0  0  0  0  0  0  0  0
  192.9710  173.6280  135.6760 O   0  0  0  0  0  1  0  0  0  0  0  0
  195.5390  172.7710  135.1090 C   0  0  0  0  0  2  0  0  0  0  0  0
  197.3110  172.6470  135.2570 S   0  0  0  0  0  0  0  0  0  0  0  0
  197.9410  173.8080  134.5410 O   0  0  0  0  0  0  0  0  0  0  0  0
  197.7010  172.6900  136.7080 O   0  0  0  0  0  0  0  0  0  0  0  0
  197.8710  171.1260  134.5130 C   0  0  0  0  0  2  0  0  0  0  0  0
  197.8580  169.9940  135.5240 C   0  0  0  0  0  3  0  0  0  0  0  0
  197.9410  168.7760  134.8500 O   0  0  0  0  0  1  0  0  0  0  0  0
  196.6770  170.0290  136.2640 O   0  0  0  0  0  1  0  0  0  0  0  0
  186.2010  176.1820  143.9940 C   0  0  0  0  0  2  0  0  0  0  0  0
  187.7530  177.2630  145.6060 N   0  0  1  0  0  0  0  0  0  0  0  0
  185.4660  178.0520  145.4900 C   0  0  1  0  0  3  0  0  0  0  0  0
  187.2950  177.7120  146.9380 C   0  0  1  0  0  3  0  0  0  0  0  0
  185.8380  179.5560  146.8190 C   0  0  0  0  0  2  0  0  0  0  0  0
  185.8820  178.0990  146.8860 N   0  0  1  0  0  0  0  0  0  0  0  0
  187.4260  176.2840  146.6670 C   0  0  0  0  0  2  0  0  0  0  0  0
  185.4280  179.5600  145.3620 C   0  0  0  0  0  2  0  0  0  0  0  0
  186.6190  177.4690  144.7030 C   0  0  2  0  0  3  0  0  0  0  0  0
  1 20  1  0  0  0  0
  2 15  1  0  0  0  0
  3 32  1  6  0  0  0
  3 16  1  0  0  0  0
  3 19  1  0  0  0  0
  4  1  1  1  0  0  0
  6 22  1  0  0  0  0
  7 46  1  0  0  0  0
  8 28  1  1  0  0  0
  8 11  1  0  0  0  0
  8 12  1  0  0  0  0
  9 30  1  0  0  0  0
 10  4  1  0  0  0  0
 10 16  1  0  0  0  0
 11 23  1  0  0  0  0
 12 13  2  0  0  0  0
 13  2  1  0  0  0  0
 13 31  1  0  0  0  0
 14 27  2  0  0  0  0
 16 20  1  0  0  0  0
 18 10  1  0  0  0  0
 18  4  1  0  0  0  0
 18 17  1  0  0  0  0
 19 14  1  0  0  0  0
 19 26  1  0  0  0  0
 21 29  1  0  0  0  0
 21 24  1  0  0  0  0
 22  9  1  0  0  0  0
 23  2  2  0  0  0  0
 23 30  1  0  0  0  0
 24 25  1  0  0  0  0
 25 28  1  0  0  0  0
 26  6  1  0  0  0  0
 26  5  1  0  0  0  0
 27  7  1  0  0  0  0
 27  5  1  0  0  0  0
 29 17  1  0  0  0  0
 33 32  2  0  0  0  0
 34 21  1  0  0  0  0
 35 34  1  0  0  0  0
 36 35  1  0  0  0  0
 37 36  1  0  0  0  0
 38 39  1  0  0  0  0
 38 35  1  0  0  0  0
 39 41  2  0  0  0  0
 40 39  2  0  0  0  0
 42 39  1  0  0  0  0
 42 43  1  0  0  0  0
 43 45  1  0  0  0  0
 44 43  1  0  0  0  0
 46 54  1  0  0  0  0
 47 52  1  0  0  0  0
 47 49  1  0  0  0  0
 48 51  1  0  0  0  0
 50 51  1  0  0  0  0
 51 49  1  0  0  0  0
 52 49  1  0  0  0  0
 53 48  1  0  0  0  0
 53 50  1  0  0  0  0
 54 48  1  0  0  0  0
 54 47  1  0  0  0  0
M  END
>  <MODEL>
8

>  <REMARK>
 VINA RESULT:      -5.3      3.984      7.182
  Name = 
  10 active torsions:
  status: ('A' for Active; 'I' for Inactive)
    1  A    between atoms: C_1  and  C_46
    2  A    between atoms: N_2  and  C_5
    3  A    between atoms: C_9  and  C_34
    4  A    between atoms: C_9  and  C_40
    5  A    between atoms: S_10  and  C_13
    6  A    between atoms: S_10  and  C_46
    7  A    between atoms: C_13  and  C_34
    8  A    between atoms: C_14  and  N_19
    9  A    between atoms: C_14  and  C_53
   10  A    between atoms: C_34  and  O_37
                            x       y       z     vdW  Elec       q    Type
                         _______ _______ _______ _____ _____    ______ ____

>  <TORSDO>
F 10

$$$$
=
 OpenBabel11042417403D

 54 61  0  0  1  0  0  0  0  0999 V2000
  188.8820  171.8510  140.2100 C   0  0  0  0  0  2  0  0  0  0  0  0
  195.5620  173.6020  144.6800 C   0  0  0  0  0  0  0  0  0  0  0  0
  188.4680  175.2130  141.4340 C   0  0  1  0  0  3  0  0  0  0  0  0
  188.7740  172.6300  138.9150 C   0  0  1  0  0  3  0  0  0  0  0  0
  188.7540  174.7590  144.8350 C   0  0  0  0  0  2  0  0  0  0  0  0
  190.9830  174.9020  144.0340 O   0  0  0  0  0  0  0  0  0  0  0  0
  187.2560  176.7170  145.5600 N   0  0  0  0  0  2  0  0  0  0  0  0
  195.3280  175.1070  142.1900 C   0  0  1  0  0  3  0  0  0  0  0  0
  192.4320  173.2990  145.0740 C   0  0  0  0  0  2  0  0  0  0  0  0
  188.9320  174.0850  139.3170 C   0  0  1  0  0  3  0  0  0  0  0  0
  194.7050  176.0000  143.6510 S   0  0  0  0  0  0  0  0  0  0  0  0
  196.5750  174.3550  142.5660 C   0  0  0  0  0  3  0  0  0  0  0  0
  196.6740  173.6580  143.7000 C   0  0  0  0  0  0  0  0  0  0  0  0
  188.3410  176.5890  143.4580 N   0  0  0  0  0  0  0  0  0  0  0  0
  195.5200  172.5480  145.5870 O   0  0  0  0  0  1  0  0  0  0  0  0
  189.2410  174.1520  140.7560 N   0  0  2  0  0  0  0  0  0  0  0  0
  191.2900  173.0260  139.2700 C   0  0  0  0  0  2  0  0  0  0  0  0
  190.0300  173.4040  138.4930 C   0  0  1  0  0  3  0  0  0  0  0  0
  189.2210  175.7440  142.6700 C   0  0  1  0  0  3  0  0  0  0  0  0
  188.7720  172.8830  141.3010 C   0  0  0  0  0  2  0  0  0  0  0  0
  193.3300  173.9370  138.0300 C   0  0  1  0  0  3  0  0  0  0  0  0
  191.6940  173.7200  143.8080 C   0  0  0  0  0  2  0  0  0  0  0  0
  194.5820  174.5220  144.6760 C   0  0  0  0  0  0  0  0  0  0  0  0
  193.7320  174.6870  139.2990 C   0  0  0  0  0  2  0  0  0  0  0  0
  194.5390  173.7840  140.2140 C   0  0  0  0  0  2  0  0  0  0  0  0
  189.6740  174.6350  143.6270 C   0  0  2  0  0  3  0  0  0  0  0  0
  188.0900  176.0620  144.6030 C   0  0  0  0  0  0  0  0  0  0  0  0
  194.2630  174.1580  141.6560 C   0  0  0  0  0  2  0  0  0  0  0  0
  192.4390  172.7150  138.3130 C   0  0  0  0  0  2  0  0  0  0  0  0
  193.3830  174.3890  145.5630 C   0  0  0  0  0  2  0  0  0  0  0  0
  197.9270  172.8930  143.9570 C   0  0  0  0  0  1  0  0  0  0  0  0
  188.1940  176.3260  140.5470 N   0  0  0  0  0  0  0  0  0  0  0  0
  187.0210  176.8410  140.4900 C   0  0  0  0  0  2  0  0  0  0  0  0
  192.6710  174.8880  137.0410 C   0  0  0  0  0  2  0  0  0  0  0  0
  193.6010  175.1360  135.8620 C   0  0  2  0  0  3  0  0  0  0  0  0
  192.9030  175.7890  134.8430 O   0  0  0  0  0  0  0  0  0  0  0  0
  192.2140  176.7250  135.4600 O   0  0  0  0  0  1  0  0  0  0  0  0
  194.1340  173.8150  135.3310 C   0  0  0  0  0  2  0  0  0  0  0  0
  195.9150  173.8340  135.2550 S   0  0  0  0  0  0  0  0  0  0  0  0
  196.3840  172.6080  134.5240 O   0  0  0  0  0  0  0  0  0  0  0  0
  196.3760  175.0590  134.5130 O   0  0  0  0  0  0  0  0  0  0  0  0
  196.5880  173.8260  136.9060 C   0  0  0  0  0  2  0  0  0  0  0  0
  197.0170  172.4260  137.3070 C   0  0  0  0  0  3  0  0  0  0  0  0
  195.8860  171.6630  137.5940 O   0  0  0  0  0  1  0  0  0  0  0  0
  197.8300  172.4830  138.4380 O   0  0  0  0  0  1  0  0  0  0  0  0
  186.9960  176.1690  146.8830 C   0  0  0  0  0  2  0  0  0  0  0  0
  184.9770  177.3170  147.7640 N   0  0  1  0  0  0  0  0  0  0  0  0
  187.0070  178.6040  147.4660 C   0  0  1  0  0  3  0  0  0  0  0  0
  184.6530  178.7100  147.3870 C   0  0  1  0  0  3  0  0  0  0  0  0
  186.1650  180.2670  148.2970 C   0  0  0  0  0  2  0  0  0  0  0  0
  185.8820  179.4610  147.1140 N   0  0  1  0  0  0  0  0  0  0  0  0
  184.4970  177.6440  146.4020 C   0  0  0  0  0  2  0  0  0  0  0  0
  187.3260  179.3930  148.7180 C   0  0  0  0  0  2  0  0  0  0  0  0
  186.4380  177.2450  147.8110 C   0  0  2  0  0  3  0  0  0  0  0  0
  1 20  1  0  0  0  0
  2 15  1  0  0  0  0
  3 32  1  6  0  0  0
  3 19  1  0  0  0  0
  4 10  1  0  0  0  0
  4  1  1  1  0  0  0
  7 46  1  0  0  0  0
  8 28  1  1  0  0  0
  8 12  1  0  0  0  0
  8 11  1  0  0  0  0
  9 30  1  0  0  0  0
 10 16  1  0  0  0  0
 11 23  1  0  0  0  0
 12 13  2  0  0  0  0
 13 31  1  0  0  0  0
 13  2  1  0  0  0  0
 14 27  2  0  0  0  0
 16 20  1  0  0  0  0
 16  3  1  0  0  0  0
 18  4  1  0  0  0  0
 18 17  1  0  0  0  0
 18 10  1  0  0  0  0
 19 14  1  0  0  0  0
 19 26  1  0  0  0  0
 21 29  1  0  0  0  0
 21 24  1  0  0  0  0
 22  6  1  0  0  0  0
 22  9  1  0  0  0  0
 23  2  2  0  0  0  0
 23 30  1  0  0  0  0
 24 25  1  0  0  0  0
 25 28  1  0  0  0  0
 26  6  1  0  0  0  0
 26  5  1  0  0  0  0
 27  5  1  0  0  0  0
 27  7  1  0  0  0  0
 29 17  1  0  0  0  0
 33 32  2  0  0  0  0
 34 21  1  0  0  0  0
 35 34  1  0  0  0  0
 36 37  1  0  0  0  0
 36 35  1  0  0  0  0
 38 35  1  0  0  0  0
 39 38  1  0  0  0  0
 39 42  1  0  0  0  0
 40 39  2  0  0  0  0
 41 39  2  0  0  0  0
 42 43  1  0  0  0  0
 43 44  1  0  0  0  0
 43 45  1  0  0  0  0
 46 54  1  0  0  0  0
 47 54  1  0  0  0  0
 48 54  1  0  0  0  0
 48 53  1  0  0  0  0
 49 47  1  0  0  0  0
 50 53  1  0  0  0  0
 51 49  1  0  0  0  0
 51 48  1  0  0  0  0
 51 50  1  0  0  0  0
 52 49  1  0  0  0  0
 52 47  1  0  0  0  0
M  END
>  <MODEL>
9

>  <REMARK>
 VINA RESULT:      -5.2      3.728      7.200
  Name = 
  10 active torsions:
  status: ('A' for Active; 'I' for Inactive)
    1  A    between atoms: C_1  and  C_46
    2  A    between atoms: N_2  and  C_5
    3  A    between atoms: C_9  and  C_34
    4  A    between atoms: C_9  and  C_40
    5  A    between atoms: S_10  and  C_13
    6  A    between atoms: S_10  and  C_46
    7  A    between atoms: C_13  and  C_34
    8  A    between atoms: C_14  and  N_19
    9  A    between atoms: C_14  and  C_53
   10  A    between atoms: C_34  and  O_37
                            x       y       z     vdW  Elec       q    Type
                         _______ _______ _______ _____ _____    ______ ____

>  <TORSDO>
F 10

$$$$
