=
 OpenBabel11042416123D

 60 69  0  0  1  0  0  0  0  0999 V2000
  190.7890  171.2660  140.9340 C   0  0  1  0  0  3  0  0  0  0  0  0
  190.4030  170.9500  139.5240 C   0  0  0  0  0  0  0  0  0  0  0  0
  190.9680  168.2640  137.0740 C   0  0  0  0  0  2  0  0  0  0  0  0
  189.6840  171.7500  137.3170 C   0  0  0  0  0  2  0  0  0  0  0  0
  191.4970  168.8390  136.0010 C   0  0  0  0  0  0  0  0  0  0  0  0
  191.4720  171.1330  135.0130 F   0  0  0  0  0  0  0  0  0  0  0  0
  190.1200  170.4080  136.8290 C   0  0  1  0  0  3  0  0  0  0  0  0
  190.0850  171.9270  138.7170 N   0  0  0  0  0  0  0  0  0  0  0  0
  190.9810  170.1870  135.8540 C   0  0  0  0  0  0  0  0  0  0  0  0
  189.9950  169.2160  137.7120 C   0  0  2  0  0  3  0  0  0  0  0  0
  192.5330  168.2140  135.1380 C   0  0  0  0  0  1  0  0  0  0  0  0
  190.4390  169.5860  139.0530 N   0  0  0  0  0  2  0  0  0  0  0  0
  192.3060  171.2930  141.0570 C   0  0  0  0  0  2  0  0  0  0  0  0
  192.7930  170.1260  141.8520 C   0  0  0  0  0  0  0  0  0  0  0  0
  194.5000  169.9680  142.3360 S   0  0  0  0  0  0  0  0  0  0  0  0
  192.5900  168.2390  143.1480 C   0  0  0  0  0  2  0  0  0  0  0  0
  191.9870  169.2570  142.3330 N   0  0  0  0  0  0  0  0  0  0  0  0
  193.9550  168.7570  143.5880 C   0  0  2  0  0  3  0  0  0  0  0  0
  193.8250  169.4100  144.8820 N   0  0  0  0  0  2  0  0  0  0  0  0
  193.9900  171.8150  145.1210 C   0  0  0  0  0  3  0  0  0  0  0  0
  195.8880  170.7080  145.6650 C   0  0  0  0  0  3  0  0  0  0  0  0
  194.5200  170.6140  145.2080 C   0  0  0  0  0  0  0  0  0  0  0  0
  196.1890  171.9480  145.8490 N   0  0  0  0  0  0  0  0  0  0  0  0
  195.0460  172.8040  145.5330 C   0  0  1  0  0  3  0  0  0  0  0  0
  195.4000  173.7790  144.3890 C   0  0  2  0  0  3  0  0  0  0  0  0
  193.2840  176.5160  145.8380 C   0  0  1  0  0  3  0  0  0  0  0  0
  192.0910  174.4400  145.3800 C   0  0  0  0  0  2  0  0  0  0  0  0
  193.4790  175.0480  145.5340 C   0  0  1  0  0  3  0  0  0  0  0  0
  192.8440  176.6170  147.2910 C   0  0  0  0  0  2  0  0  0  0  0  0
  195.0580  178.1710  145.7890 O   0  0  0  0  0  0  0  0  0  0  0  0
  191.2860  174.7380  146.6380 C   0  0  0  0  0  3  0  0  0  0  0  0
  195.2200  176.2050  144.5470 O   0  0  0  0  0  0  0  0  0  0  0  0
  194.4630  175.0100  144.3560 C   0  0  1  0  0  3  0  0  0  0  0  0
  191.6050  175.7510  147.4840 C   0  0  0  0  0  3  0  0  0  0  0  0
  194.5940  177.0520  145.4430 C   0  0  0  0  0  0  0  0  0  0  0  0
  196.8090  172.9090  142.4690 C   0  0  0  0  0  1  0  0  0  0  0  0
  194.5610  173.6500  142.1080 O   0  0  0  0  0  1  0  0  0  0  0  0
  195.4090  173.0400  143.0350 C   0  0  2  0  0  3  0  0  0  0  0  0
  190.2590  172.5010  141.3230 O   0  0  0  0  0  0  0  0  0  0  0  0
  189.1710  172.1910  142.1390 C   0  0  0  0  0  2  0  0  0  0  0  0
  188.0570  173.1850  141.8780 C   0  0  0  0  0  2  0  0  0  0  0  0
  185.8300  178.5630  144.9480 C   0  0  1  0  0  3  0  0  0  0  0  0
  189.3600  175.9490  143.5870 C   0  0  0  0  0  3  0  0  0  0  0  0
  184.3700  178.6830  146.6390 O   0  0  0  0  0  0  0  0  0  0  0  0
  186.6970  178.0920  147.1040 C   0  0  0  0  0  0  0  0  0  0  0  0
  186.6340  178.4050  148.3240 O   0  0  0  0  0  0  0  0  0  0  0  0
  188.1470  175.1440  140.4860 O   0  0  0  0  0  0  0  0  0  0  0  0
  186.3020  178.4630  142.0960 O   0  0  0  0  0  0  0  0  0  0  0  0
  187.5760  176.3620  140.7640 N   0  0  0  0  0  2  0  0  0  0  0  0
  188.6240  174.5820  141.7000 C   0  0  1  0  0  3  0  0  0  0  0  0
  186.9150  177.6150  142.7990 C   0  0  0  0  0  0  0  0  0  0  0  0
  187.9960  177.4360  145.0730 C   0  0  0  0  0  0  0  0  0  0  0  0
  185.4850  177.9650  146.2520 C   0  0  2  0  0  3  0  0  0  0  0  0
  183.7320  178.9200  145.3910 C   0  0  0  0  0  2  0  0  0  0  0  0
  187.5580  176.5130  142.1510 N   0  0  0  0  0  0  0  0  0  0  0  0
  186.9290  177.7680  144.2780 C   0  0  0  0  0  0  0  0  0  0  0  0
  187.9450  177.7480  146.4860 N   0  0  0  0  0  2  0  0  0  0  0  0
  184.6060  178.6350  144.3090 O   0  0  0  0  0  0  0  0  0  0  0  0
  188.1760  175.4390  142.8410 C   0  0  2  0  0  3  0  0  0  0  0  0
  189.2520  176.8220  144.5860 C   0  0  0  0  0  3  0  0  0  0  0  0
  1 13  1  6  0  0  0
  1 39  1  0  0  0  0
  2  1  1  0  0  0  0
  4  8  1  0  0  0  0
  5  3  1  0  0  0  0
  6  9  1  0  0  0  0
  7  4  1  1  0  0  0
  7 10  1  0  0  0  0
  8  2  2  0  0  0  0
  9  5  2  0  0  0  0
  9  7  1  0  0  0  0
 10  3  1  6  0  0  0
 10 12  1  0  0  0  0
 11  5  1  0  0  0  0
 12  2  1  0  0  0  0
 13 14  1  0  0  0  0
 14 17  2  0  0  0  0
 14 15  1  0  0  0  0
 15 18  1  0  0  0  0
 16 18  1  0  0  0  0
 17 16  1  0  0  0  0
 18 19  1  1  0  0  0
 19 22  1  0  0  0  0
 20 22  2  0  0  0  0
 20 24  1  0  0  0  0
 21 23  2  0  0  0  0
 22 21  1  0  0  0  0
 24 25  1  6  0  0  0
 24 23  1  0  0  0  0
 25 38  1  6  0  0  0
 26 29  1  1  0  0  0
 27 31  1  0  0  0  0
 28 27  1  6  0  0  0
 28 26  1  0  0  0  0
 29 34  1  0  0  0  0
 31 34  2  0  0  0  0
 32 35  1  0  0  0  0
 33 25  1  1  0  0  0
 33 32  1  0  0  0  0
 33 28  1  0  0  0  0
 35 30  2  0  0  0  0
 35 26  1  0  0  0  0
 37 38  1  0  0  0  0
 38 36  1  6  0  0  0
 39 40  1  0  0  0  0
 41 40  1  0  0  0  0
 42 56  1  6  0  0  0
 42 53  1  0  0  0  0
 43 60  2  0  0  0  0
 45 46  2  0  0  0  0
 47 49  1  0  0  0  0
 47 50  1  0  0  0  0
 48 51  2  0  0  0  0
 49 55  1  0  0  0  0
 50 41  1  1  0  0  0
 50 59  1  0  0  0  0
 51 56  1  0  0  0  0
 52 57  1  0  0  0  0
 53 44  1  1  0  0  0
 53 45  1  0  0  0  0
 54 44  1  0  0  0  0
 55 51  1  0  0  0  0
 55 59  1  0  0  0  0
 56 52  2  0  0  0  0
 57 45  1  0  0  0  0
 58 42  1  0  0  0  0
 58 54  1  0  0  0  0
 59 43  1  6  0  0  0
 60 52  1  0  0  0  0
M  END
>  <MODEL>
1

>  <REMARK>
 VINA RESULT:      -9.0      0.000      0.000
  Name = 
  12 active torsions:
  status: ('A' for Active; 'I' for Inactive)
    1  A    between atoms: N_3  and  C_34
    2  A    between atoms: N_3  and  C_44
    3  A    between atoms: C_8  and  C_13
    4  A    between atoms: C_9  and  C_19
    5  A    between atoms: C_13  and  C_19
    6  A    between atoms: C_13  and  O_57
    7  A    between atoms: C_23  and  C_27
    8  A    between atoms: C_23  and  C_60
    9  A    between atoms: C_29  and  C_51
   10  A    between atoms: C_29  and  C_55
   11  A    between atoms: C_29  and  C_56
   12  A    between atoms: O_57  and  C_60
                            x       y       z     vdW  Elec       q    Type
                         _______ _______ _______ _____ _____    ______ ____

>  <TORSDO>
F 12

$$$$
=
 OpenBabel11042416123D

 60 69  0  0  1  0  0  0  0  0999 V2000
  190.6090  177.3050  144.6760 C   0  0  1  0  0  3  0  0  0  0  0  0
  189.4780  177.2770  145.6560 C   0  0  0  0  0  0  0  0  0  0  0  0
  185.8210  176.8870  145.5970 C   0  0  0  0  0  2  0  0  0  0  0  0
  188.5950  177.9120  147.8580 C   0  0  0  0  0  2  0  0  0  0  0  0
  185.3190  177.9580  146.1980 C   0  0  0  0  0  0  0  0  0  0  0  0
  186.1420  179.6060  147.8860 F   0  0  0  0  0  0  0  0  0  0  0  0
  187.2590  177.5990  147.2710 C   0  0  1  0  0  3  0  0  0  0  0  0
  189.6230  177.8730  146.8100 N   0  0  0  0  0  0  0  0  0  0  0  0
  186.2230  178.4170  147.2350 C   0  0  0  0  0  0  0  0  0  0  0  0
  187.1260  176.5250  146.2490 C   0  0  2  0  0  3  0  0  0  0  0  0
  184.0560  178.6320  145.7960 C   0  0  0  0  0  1  0  0  0  0  0  0
  188.2290  176.6480  145.3000 N   0  0  0  0  0  2  0  0  0  0  0  0
  190.7630  175.9330  144.0320 C   0  0  0  0  0  2  0  0  0  0  0  0
  192.1890  175.4880  144.0750 C   0  0  0  0  0  0  0  0  0  0  0  0
  192.8770  174.4300  142.8170 S   0  0  0  0  0  0  0  0  0  0  0  0
  194.3680  175.4940  144.8030 C   0  0  0  0  0  2  0  0  0  0  0  0
  193.0120  175.9490  144.9370 N   0  0  0  0  0  0  0  0  0  0  0  0
  194.5300  174.9580  143.3840 C   0  0  2  0  0  3  0  0  0  0  0  0
  195.0290  176.0200  142.5240 N   0  0  0  0  0  2  0  0  0  0  0  0
  195.3780  175.6090  140.1630 C   0  0  0  0  0  3  0  0  0  0  0  0
  197.2860  175.6250  141.3800 C   0  0  0  0  0  3  0  0  0  0  0  0
  195.8460  175.7640  141.3820 C   0  0  0  0  0  0  0  0  0  0  0  0
  197.6870  175.3850  140.1790 N   0  0  0  0  0  0  0  0  0  0  0  0
  196.5500  175.3420  139.2590 C   0  0  1  0  0  3  0  0  0  0  0  0
  196.4530  173.9570  138.5840 C   0  0  2  0  0  3  0  0  0  0  0  0
  195.6120  175.6960  135.3690 C   0  0  1  0  0  3  0  0  0  0  0  0
  193.6840  174.9210  136.6420 C   0  0  0  0  0  2  0  0  0  0  0  0
  195.1780  175.2000  136.7300 C   0  0  1  0  0  3  0  0  0  0  0  0
  195.1320  177.1340  135.2420 C   0  0  0  0  0  2  0  0  0  0  0  0
  197.9250  175.9300  134.6730 O   0  0  0  0  0  0  0  0  0  0  0  0
  192.9790  176.1810  136.1580 C   0  0  0  0  0  3  0  0  0  0  0  0
  197.3290  174.4380  136.3610 O   0  0  0  0  0  0  0  0  0  0  0  0
  196.1490  174.0610  137.0700 C   0  0  1  0  0  3  0  0  0  0  0  0
  193.6290  177.1670  135.4890 C   0  0  0  0  0  3  0  0  0  0  0  0
  197.0550  175.4200  135.4270 C   0  0  0  0  0  0  0  0  0  0  0  0
  196.0240  172.3180  140.4710 C   0  0  0  0  0  1  0  0  0  0  0  0
  194.7800  172.1960  138.4290 O   0  0  0  0  0  1  0  0  0  0  0  0
  195.4140  173.0760  139.3090 C   0  0  2  0  0  3  0  0  0  0  0  0
  190.3790  178.2690  143.6890 O   0  0  0  0  0  0  0  0  0  0  0  0
  189.8230  177.5690  142.6180 C   0  0  0  0  0  2  0  0  0  0  0  0
  188.6250  178.3360  142.0940 C   0  0  0  0  0  2  0  0  0  0  0  0
  189.6890  172.5150  139.2150 C   0  0  1  0  0  3  0  0  0  0  0  0
  187.4760  175.0400  142.3570 C   0  0  0  0  0  3  0  0  0  0  0  0
  191.6270  171.4210  138.9860 O   0  0  0  0  0  0  0  0  0  0  0  0
  190.4490  171.3380  141.1270 C   0  0  0  0  0  0  0  0  0  0  0  0
  191.0370  170.2940  141.5200 O   0  0  0  0  0  0  0  0  0  0  0  0
  186.9760  177.8210  140.4210 O   0  0  0  0  0  0  0  0  0  0  0  0
  187.8160  174.4610  138.1800 O   0  0  0  0  0  0  0  0  0  0  0  0
  187.0350  176.7890  139.5160 N   0  0  0  0  0  2  0  0  0  0  0  0
  187.5350  177.3770  141.6490 C   0  0  1  0  0  3  0  0  0  0  0  0
  188.1140  174.5590  139.4010 C   0  0  0  0  0  0  0  0  0  0  0  0
  188.6630  173.0690  141.3630 C   0  0  0  0  0  0  0  0  0  0  0  0
  190.9070  172.1100  139.9430 C   0  0  2  0  0  3  0  0  0  0  0  0
  191.3010  172.1410  137.8050 C   0  0  0  0  0  2  0  0  0  0  0  0
  187.7510  175.7480  140.1100 N   0  0  0  0  0  0  0  0  0  0  0  0
  188.8560  173.4530  140.0610 C   0  0  0  0  0  0  0  0  0  0  0  0
  189.3490  171.8950  141.8610 N   0  0  0  0  0  2  0  0  0  0  0  0
  190.1910  173.0000  138.0210 O   0  0  0  0  0  0  0  0  0  0  0  0
  188.1320  176.0210  141.4480 C   0  0  2  0  0  3  0  0  0  0  0  0
  187.7420  173.7360  142.3110 C   0  0  0  0  0  3  0  0  0  0  0  0
  1 13  1  6  0  0  0
  1  2  1  0  0  0  0
  2  8  2  0  0  0  0
  3  5  1  0  0  0  0
  5  9  2  0  0  0  0
  7  4  1  6  0  0  0
  8  4  1  0  0  0  0
  9  7  1  0  0  0  0
  9  6  1  0  0  0  0
 10  3  1  6  0  0  0
 10  7  1  0  0  0  0
 11  5  1  0  0  0  0
 12  2  1  0  0  0  0
 12 10  1  0  0  0  0
 13 14  1  0  0  0  0
 14 17  2  0  0  0  0
 15 18  1  0  0  0  0
 15 14  1  0  0  0  0
 16 17  1  0  0  0  0
 18 19  1  6  0  0  0
 18 16  1  0  0  0  0
 20 22  2  0  0  0  0
 21 22  1  0  0  0  0
 22 19  1  0  0  0  0
 23 21  2  0  0  0  0
 24 25  1  1  0  0  0
 24 20  1  0  0  0  0
 24 23  1  0  0  0  0
 25 38  1  1  0  0  0
 26 29  1  1  0  0  0
 26 35  1  0  0  0  0
 26 28  1  0  0  0  0
 28 27  1  6  0  0  0
 28 33  1  0  0  0  0
 29 34  1  0  0  0  0
 30 35  2  0  0  0  0
 31 27  1  0  0  0  0
 32 33  1  0  0  0  0
 33 25  1  1  0  0  0
 34 31  2  0  0  0  0
 35 32  1  0  0  0  0
 37 38  1  0  0  0  0
 38 36  1  1  0  0  0
 39  1  1  0  0  0  0
 40 39  1  0  0  0  0
 41 40  1  0  0  0  0
 42 58  1  6  0  0  0
 42 53  1  0  0  0  0
 42 56  1  0  0  0  0
 45 46  2  0  0  0  0
 45 57  1  0  0  0  0
 47 50  1  0  0  0  0
 48 51  2  0  0  0  0
 49 55  1  0  0  0  0
 49 47  1  0  0  0  0
 50 41  1  6  0  0  0
 51 56  1  0  0  0  0
 51 55  1  0  0  0  0
 52 57  1  0  0  0  0
 52 60  1  0  0  0  0
 53 44  1  6  0  0  0
 53 45  1  0  0  0  0
 54 58  1  0  0  0  0
 54 44  1  0  0  0  0
 55 59  1  0  0  0  0
 56 52  2  0  0  0  0
 59 50  1  0  0  0  0
 59 43  1  1  0  0  0
 60 43  2  0  0  0  0
M  END
>  <MODEL>
2

>  <REMARK>
 VINA RESULT:      -8.9      4.236      8.926
  Name = 
  12 active torsions:
  status: ('A' for Active; 'I' for Inactive)
    1  A    between atoms: N_3  and  C_34
    2  A    between atoms: N_3  and  C_44
    3  A    between atoms: C_8  and  C_13
    4  A    between atoms: C_9  and  C_19
    5  A    between atoms: C_13  and  C_19
    6  A    between atoms: C_13  and  O_57
    7  A    between atoms: C_23  and  C_27
    8  A    between atoms: C_23  and  C_60
    9  A    between atoms: C_29  and  C_51
   10  A    between atoms: C_29  and  C_55
   11  A    between atoms: C_29  and  C_56
   12  A    between atoms: O_57  and  C_60
                            x       y       z     vdW  Elec       q    Type
                         _______ _______ _______ _____ _____    ______ ____

>  <TORSDO>
F 12

$$$$
=
 OpenBabel11042416123D

 60 69  0  0  1  0  0  0  0  0999 V2000
  191.6800  172.6310  142.8010 C   0  0  1  0  0  3  0  0  0  0  0  0
  191.6330  173.7020  143.8450 C   0  0  0  0  0  0  0  0  0  0  0  0
  189.3360  174.8470  146.4800 C   0  0  0  0  0  2  0  0  0  0  0  0
  192.3860  175.9050  144.6250 C   0  0  0  0  0  2  0  0  0  0  0  0
  189.0920  176.1280  146.2350 C   0  0  0  0  0  0  0  0  0  0  0  0
  190.2820  177.9750  145.0450 F   0  0  0  0  0  0  0  0  0  0  0  0
  191.2080  175.8420  145.5410 C   0  0  1  0  0  3  0  0  0  0  0  0
  192.3410  174.7870  143.6750 N   0  0  0  0  0  0  0  0  0  0  0  0
  190.2550  176.7510  145.6310 C   0  0  0  0  0  0  0  0  0  0  0  0
  190.7490  174.5320  146.0770 C   0  0  2  0  0  3  0  0  0  0  0  0
  187.7820  176.7930  146.4660 C   0  0  0  0  0  1  0  0  0  0  0  0
  190.7700  173.5540  144.9930 N   0  0  0  0  0  2  0  0  0  0  0  0
  191.3680  171.2820  143.4340 C   0  0  0  0  0  2  0  0  0  0  0  0
  192.6210  170.4970  143.6490 C   0  0  0  0  0  0  0  0  0  0  0  0
  194.0290  170.6680  142.5720 S   0  0  0  0  0  0  0  0  0  0  0  0
  194.0760  169.1410  144.8000 C   0  0  0  0  0  2  0  0  0  0  0  0
  192.7890  169.7680  144.6860 N   0  0  0  0  0  0  0  0  0  0  0  0
  195.0340  169.8990  143.8880 C   0  0  2  0  0  3  0  0  0  0  0  0
  195.7110  170.9320  144.6580 N   0  0  0  0  0  2  0  0  0  0  0  0
  195.7850  173.2270  143.8850 C   0  0  0  0  0  3  0  0  0  0  0  0
  197.6930  172.0710  143.5030 C   0  0  0  0  0  3  0  0  0  0  0  0
  196.3520  172.0510  144.0450 C   0  0  0  0  0  0  0  0  0  0  0  0
  197.9360  173.2400  143.0170 N   0  0  0  0  0  0  0  0  0  0  0  0
  196.7790  174.1170  143.1890 C   0  0  1  0  0  3  0  0  0  0  0  0
  196.2570  174.6000  141.8190 C   0  0  2  0  0  3  0  0  0  0  0  0
  197.0720  173.4510  138.3430 C   0  0  1  0  0  3  0  0  0  0  0  0
  196.7100  171.6550  139.9510 C   0  0  0  0  0  2  0  0  0  0  0  0
  196.5120  173.1460  139.7140 C   0  0  1  0  0  3  0  0  0  0  0  0
  196.0670  172.9360  137.3240 C   0  0  0  0  0  2  0  0  0  0  0  0
  197.4700  175.6880  137.4940 O   0  0  0  0  0  0  0  0  0  0  0  0
  196.0640  170.8890  138.8040 C   0  0  0  0  0  3  0  0  0  0  0  0
  197.4240  175.2700  139.7860 O   0  0  0  0  0  0  0  0  0  0  0  0
  197.1760  174.1630  140.6530 C   0  0  1  0  0  3  0  0  0  0  0  0
  195.8090  171.4600  137.6000 C   0  0  0  0  0  3  0  0  0  0  0  0
  197.3050  174.8970  138.4600 C   0  0  0  0  0  0  0  0  0  0  0  0
  196.8510  176.8030  142.9270 C   0  0  0  0  0  1  0  0  0  0  0  0
  194.6980  176.4650  141.9370 O   0  0  0  0  0  1  0  0  0  0  0  0
  196.0490  176.1290  141.8310 C   0  0  2  0  0  3  0  0  0  0  0  0
  190.7620  172.9000  141.7800 O   0  0  0  0  0  0  0  0  0  0  0  0
  189.5820  172.2690  142.1760 C   0  0  0  0  0  2  0  0  0  0  0  0
  188.4120  172.9100  141.4550 C   0  0  0  0  0  2  0  0  0  0  0  0
  184.6930  178.3390  141.4470 C   0  0  1  0  0  3  0  0  0  0  0  0
  188.7710  176.3270  142.1300 C   0  0  0  0  0  3  0  0  0  0  0  0
  182.7840  178.7070  142.5530 O   0  0  0  0  0  0  0  0  0  0  0  0
  184.9130  178.8900  143.7420 C   0  0  0  0  0  0  0  0  0  0  0  0
  184.4420  179.5950  144.6750 O   0  0  0  0  0  0  0  0  0  0  0  0
  188.6740  174.2030  139.4440 O   0  0  0  0  0  0  0  0  0  0  0  0
  186.0210  177.3400  139.0790 O   0  0  0  0  0  0  0  0  0  0  0  0
  187.8960  175.2670  139.0580 N   0  0  0  0  0  2  0  0  0  0  0  0
  188.8250  174.2420  140.8550 C   0  0  1  0  0  3  0  0  0  0  0  0
  186.4930  176.9700  140.1880 C   0  0  0  0  0  0  0  0  0  0  0  0
  186.8420  177.8780  142.5180 C   0  0  0  0  0  0  0  0  0  0  0  0
  184.0450  178.1840  142.7630 C   0  0  2  0  0  3  0  0  0  0  0  0
  182.5320  178.3230  141.2080 C   0  0  0  0  0  2  0  0  0  0  0  0
  187.4370  175.8960  140.2170 N   0  0  0  0  0  0  0  0  0  0  0  0
  186.0350  177.6410  141.4340 C   0  0  0  0  0  0  0  0  0  0  0  0
  186.3230  178.6540  143.6250 N   0  0  0  0  0  2  0  0  0  0  0  0
  183.7230  177.8850  140.5710 O   0  0  0  0  0  0  0  0  0  0  0  0
  187.9460  175.3190  141.4080 C   0  0  2  0  0  3  0  0  0  0  0  0
  188.2530  177.4480  142.6280 C   0  0  0  0  0  3  0  0  0  0  0  0
  1 13  1  1  0  0  0
  1  2  1  0  0  0  0
  2 12  1  0  0  0  0
  5 11  1  0  0  0  0
  5  3  1  0  0  0  0
  6  9  1  0  0  0  0
  7  4  1  6  0  0  0
  7  9  1  0  0  0  0
  7 10  1  0  0  0  0
  8  2  2  0  0  0  0
  8  4  1  0  0  0  0
  9  5  2  0  0  0  0
 10  3  1  6  0  0  0
 12 10  1  0  0  0  0
 13 14  1  0  0  0  0
 14 17  2  0  0  0  0
 15 14  1  0  0  0  0
 15 18  1  0  0  0  0
 17 16  1  0  0  0  0
 18 19  1  1  0  0  0
 18 16  1  0  0  0  0
 20 22  2  0  0  0  0
 21 22  1  0  0  0  0
 22 19  1  0  0  0  0
 23 24  1  0  0  0  0
 23 21  2  0  0  0  0
 24 25  1  6  0  0  0
 24 20  1  0  0  0  0
 25 38  1  1  0  0  0
 26 29  1  6  0  0  0
 26 35  1  0  0  0  0
 26 28  1  0  0  0  0
 28 27  1  1  0  0  0
 28 33  1  0  0  0  0
 29 34  1  0  0  0  0
 30 35  2  0  0  0  0
 31 27  1  0  0  0  0
 32 33  1  0  0  0  0
 33 25  1  1  0  0  0
 34 31  2  0  0  0  0
 35 32  1  0  0  0  0
 38 37  1  0  0  0  0
 38 36  1  1  0  0  0
 39 40  1  0  0  0  0
 39  1  1  0  0  0  0
 41 40  1  0  0  0  0
 42 58  1  6  0  0  0
 42 53  1  0  0  0  0
 43 60  2  0  0  0  0
 45 46  2  0  0  0  0
 47 50  1  0  0  0  0
 48 51  2  0  0  0  0
 49 47  1  0  0  0  0
 49 55  1  0  0  0  0
 50 59  1  0  0  0  0
 50 41  1  1  0  0  0
 51 55  1  0  0  0  0
 51 56  1  0  0  0  0
 52 60  1  0  0  0  0
 52 57  1  0  0  0  0
 53 44  1  6  0  0  0
 53 45  1  0  0  0  0
 54 44  1  0  0  0  0
 55 59  1  0  0  0  0
 56 42  1  0  0  0  0
 56 52  2  0  0  0  0
 57 45  1  0  0  0  0
 58 54  1  0  0  0  0
 59 43  1  6  0  0  0
M  END
>  <MODEL>
3

>  <REMARK>
 VINA RESULT:      -8.9      3.179      6.132
  Name = 
  12 active torsions:
  status: ('A' for Active; 'I' for Inactive)
    1  A    between atoms: N_3  and  C_34
    2  A    between atoms: N_3  and  C_44
    3  A    between atoms: C_8  and  C_13
    4  A    between atoms: C_9  and  C_19
    5  A    between atoms: C_13  and  C_19
    6  A    between atoms: C_13  and  O_57
    7  A    between atoms: C_23  and  C_27
    8  A    between atoms: C_23  and  C_60
    9  A    between atoms: C_29  and  C_51
   10  A    between atoms: C_29  and  C_55
   11  A    between atoms: C_29  and  C_56
   12  A    between atoms: O_57  and  C_60
                            x       y       z     vdW  Elec       q    Type
                         _______ _______ _______ _____ _____    ______ ____

>  <TORSDO>
F 12

$$$$
=
 OpenBabel11042416123D

 60 69  0  0  1  0  0  0  0  0999 V2000
  191.5410  172.7500  142.5720 C   0  0  1  0  0  3  0  0  0  0  0  0
  191.5270  173.7070  143.7220 C   0  0  0  0  0  0  0  0  0  0  0  0
  189.3750  174.4840  146.6030 C   0  0  0  0  0  2  0  0  0  0  0  0
  192.2520  175.8500  144.6750 C   0  0  0  0  0  2  0  0  0  0  0  0
  189.0690  175.7710  146.5070 C   0  0  0  0  0  0  0  0  0  0  0  0
  190.1100  177.7770  145.4400 F   0  0  0  0  0  0  0  0  0  0  0  0
  191.1430  175.6460  145.6530 C   0  0  1  0  0  3  0  0  0  0  0  0
  192.1820  174.8330  143.6200 N   0  0  0  0  0  0  0  0  0  0  0  0
  190.1660  176.5000  145.8980 C   0  0  0  0  0  0  0  0  0  0  0  0
  190.7680  174.2700  146.0800 C   0  0  2  0  0  3  0  0  0  0  0  0
  187.7560  176.3540  146.8900 C   0  0  0  0  0  1  0  0  0  0  0  0
  190.7500  173.4080  144.9020 N   0  0  0  0  0  2  0  0  0  0  0  0
  191.1840  171.3530  143.0630 C   0  0  0  0  0  2  0  0  0  0  0  0
  191.8320  170.3120  142.2100 C   0  0  0  0  0  0  0  0  0  0  0  0
  193.1910  170.7020  141.1260 S   0  0  0  0  0  0  0  0  0  0  0  0
  192.2960  168.1790  141.4910 C   0  0  0  0  0  2  0  0  0  0  0  0
  191.5310  169.0730  142.3140 N   0  0  0  0  0  0  0  0  0  0  0  0
  193.5650  168.9160  141.0760 C   0  0  2  0  0  3  0  0  0  0  0  0
  194.6280  168.6080  142.0210 N   0  0  0  0  0  2  0  0  0  0  0  0
  195.4220  170.2150  143.6500 C   0  0  0  0  0  3  0  0  0  0  0  0
  196.7170  170.0730  141.7980 C   0  0  0  0  0  3  0  0  0  0  0  0
  195.5430  169.5960  142.4960 C   0  0  0  0  0  0  0  0  0  0  0  0
  197.2990  170.9730  142.5150 N   0  0  0  0  0  0  0  0  0  0  0  0
  196.5690  171.1820  143.7650 C   0  0  1  0  0  3  0  0  0  0  0  0
  196.0820  172.6440  143.8680 C   0  0  2  0  0  3  0  0  0  0  0  0
  196.4280  175.5280  141.4950 C   0  0  1  0  0  3  0  0  0  0  0  0
  195.7570  173.4280  140.4560 C   0  0  0  0  0  2  0  0  0  0  0  0
  195.8890  174.1470  141.7910 C   0  0  1  0  0  3  0  0  0  0  0  0
  195.2790  176.3450  140.9240 C   0  0  0  0  0  2  0  0  0  0  0  0
  197.2740  177.0560  143.1790 O   0  0  0  0  0  0  0  0  0  0  0  0
  194.8950  174.2740  139.5290 C   0  0  0  0  0  3  0  0  0  0  0  0
  197.2590  174.7550  143.5510 O   0  0  0  0  0  0  0  0  0  0  0  0
  196.8140  173.5790  142.8760 C   0  0  1  0  0  3  0  0  0  0  0  0
  194.7100  175.6050  139.7200 C   0  0  0  0  0  3  0  0  0  0  0  0
  196.9870  175.8880  142.8060 C   0  0  0  0  0  0  0  0  0  0  0  0
  196.7910  172.1000  146.2420 C   0  0  0  0  0  1  0  0  0  0  0  0
  194.9840  173.6100  145.8130 O   0  0  0  0  0  1  0  0  0  0  0  0
  196.2070  173.1520  145.3200 C   0  0  2  0  0  3  0  0  0  0  0  0
  190.6340  173.1530  141.5870 O   0  0  0  0  0  0  0  0  0  0  0  0
  189.4500  172.4760  141.8820 C   0  0  0  0  0  2  0  0  0  0  0  0
  188.3340  173.0300  141.0180 C   0  0  0  0  0  2  0  0  0  0  0  0
  185.0810  178.5670  142.4520 C   0  0  1  0  0  3  0  0  0  0  0  0
  189.0620  176.3150  141.9860 C   0  0  0  0  0  3  0  0  0  0  0  0
  183.4810  178.8720  143.9860 O   0  0  0  0  0  0  0  0  0  0  0  0
  185.8220  178.8120  144.6910 C   0  0  0  0  0  0  0  0  0  0  0  0
  185.6100  179.4120  145.7790 O   0  0  0  0  0  0  0  0  0  0  0  0
  188.2500  174.5560  139.1610 O   0  0  0  0  0  0  0  0  0  0  0  0
  185.8020  177.8230  139.7520 O   0  0  0  0  0  0  0  0  0  0  0  0
  187.4820  175.6920  139.0810 N   0  0  0  0  0  2  0  0  0  0  0  0
  188.7000  174.4090  140.5000 C   0  0  1  0  0  3  0  0  0  0  0  0
  186.4730  177.2960  140.6810 C   0  0  0  0  0  0  0  0  0  0  0  0
  187.3710  177.8840  142.9640 C   0  0  0  0  0  0  0  0  0  0  0  0
  184.7190  178.2740  143.8520 C   0  0  2  0  0  3  0  0  0  0  0  0
  182.9230  178.6730  142.6950 C   0  0  0  0  0  2  0  0  0  0  0  0
  187.3250  176.1870  140.3770 N   0  0  0  0  0  0  0  0  0  0  0  0
  186.3380  177.8210  142.0640 C   0  0  0  0  0  0  0  0  0  0  0  0
  187.1550  178.5340  144.2410 N   0  0  0  0  0  2  0  0  0  0  0  0
  183.9180  178.2700  141.7650 O   0  0  0  0  0  0  0  0  0  0  0  0
  188.0350  175.4420  141.3520 C   0  0  2  0  0  3  0  0  0  0  0  0
  188.7410  177.3840  142.7120 C   0  0  0  0  0  3  0  0  0  0  0  0
  1 13  1  1  0  0  0
  1  2  1  0  0  0  0
  2 12  1  0  0  0  0
  5  3  1  0  0  0  0
  5 11  1  0  0  0  0
  6  9  1  0  0  0  0
  7  4  1  6  0  0  0
  7  9  1  0  0  0  0
  7 10  1  0  0  0  0
  8  2  2  0  0  0  0
  8  4  1  0  0  0  0
  9  5  2  0  0  0  0
 10  3  1  6  0  0  0
 12 10  1  0  0  0  0
 14 17  2  0  0  0  0
 14 13  1  0  0  0  0
 15 14  1  0  0  0  0
 16 17  1  0  0  0  0
 18 15  1  0  0  0  0
 18 16  1  0  0  0  0
 18 19  1  1  0  0  0
 19 22  1  0  0  0  0
 20 24  1  0  0  0  0
 21 22  1  0  0  0  0
 21 23  2  0  0  0  0
 22 20  2  0  0  0  0
 23 24  1  0  0  0  0
 24 25  1  6  0  0  0
 25 38  1  1  0  0  0
 26 29  1  1  0  0  0
 26 28  1  0  0  0  0
 26 35  1  0  0  0  0
 28 27  1  6  0  0  0
 28 33  1  0  0  0  0
 31 34  2  0  0  0  0
 31 27  1  0  0  0  0
 33 32  1  0  0  0  0
 33 25  1  1  0  0  0
 34 29  1  0  0  0  0
 35 30  2  0  0  0  0
 35 32  1  0  0  0  0
 38 37  1  0  0  0  0
 38 36  1  1  0  0  0
 39 40  1  0  0  0  0
 39  1  1  0  0  0  0
 41 40  1  0  0  0  0
 42 58  1  6  0  0  0
 42 53  1  0  0  0  0
 43 60  2  0  0  0  0
 45 46  2  0  0  0  0
 47 50  1  0  0  0  0
 48 51  2  0  0  0  0
 49 47  1  0  0  0  0
 49 55  1  0  0  0  0
 50 41  1  1  0  0  0
 50 59  1  0  0  0  0
 51 56  1  0  0  0  0
 52 57  1  0  0  0  0
 53 44  1  1  0  0  0
 53 45  1  0  0  0  0
 54 44  1  0  0  0  0
 55 51  1  0  0  0  0
 55 59  1  0  0  0  0
 56 42  1  0  0  0  0
 56 52  2  0  0  0  0
 57 45  1  0  0  0  0
 58 54  1  0  0  0  0
 59 43  1  6  0  0  0
 60 52  1  0  0  0  0
M  END
>  <MODEL>
4

>  <REMARK>
 VINA RESULT:      -8.9      3.074      5.402
  Name = 
  12 active torsions:
  status: ('A' for Active; 'I' for Inactive)
    1  A    between atoms: N_3  and  C_34
    2  A    between atoms: N_3  and  C_44
    3  A    between atoms: C_8  and  C_13
    4  A    between atoms: C_9  and  C_19
    5  A    between atoms: C_13  and  C_19
    6  A    between atoms: C_13  and  O_57
    7  A    between atoms: C_23  and  C_27
    8  A    between atoms: C_23  and  C_60
    9  A    between atoms: C_29  and  C_51
   10  A    between atoms: C_29  and  C_55
   11  A    between atoms: C_29  and  C_56
   12  A    between atoms: O_57  and  C_60
                            x       y       z     vdW  Elec       q    Type
                         _______ _______ _______ _____ _____    ______ ____

>  <TORSDO>
F 12

$$$$
=
 OpenBabel11042416123D

 60 69  0  0  1  0  0  0  0  0999 V2000
  190.3910  176.7060  146.0210 C   0  0  1  0  0  3  0  0  0  0  0  0
  189.0510  177.0550  146.5880 C   0  0  0  0  0  0  0  0  0  0  0  0
  185.5210  176.8670  145.5680 C   0  0  0  0  0  2  0  0  0  0  0  0
  187.7210  178.4090  148.1460 C   0  0  0  0  0  2  0  0  0  0  0  0
  185.0390  178.1000  145.6550 C   0  0  0  0  0  0  0  0  0  0  0  0
  185.6180  180.1540  146.9540 F   0  0  0  0  0  0  0  0  0  0  0  0
  186.5550  177.9980  147.3080 C   0  0  1  0  0  3  0  0  0  0  0  0
  188.9710  177.9800  147.5070 N   0  0  0  0  0  0  0  0  0  0  0  0
  185.6950  178.8170  146.7320 C   0  0  0  0  0  0  0  0  0  0  0  0
  186.5420  176.6620  146.6520 C   0  0  2  0  0  3  0  0  0  0  0  0
  184.0370  178.6780  144.7210 C   0  0  0  0  0  1  0  0  0  0  0  0
  187.8620  176.4150  146.0780 N   0  0  0  0  0  2  0  0  0  0  0  0
  190.9900  175.5430  146.8010 C   0  0  0  0  0  2  0  0  0  0  0  0
  192.4420  175.3880  146.4860 C   0  0  0  0  0  0  0  0  0  0  0  0
  193.0310  174.1170  145.3850 S   0  0  0  0  0  0  0  0  0  0  0  0
  194.6550  176.0040  146.4330 C   0  0  0  0  0  2  0  0  0  0  0  0
  193.3110  176.2360  146.8840 N   0  0  0  0  0  0  0  0  0  0  0  0
  194.5760  175.0760  145.2260 C   0  0  2  0  0  3  0  0  0  0  0  0
  194.5370  175.8740  144.0100 N   0  0  0  0  0  2  0  0  0  0  0  0
  194.3040  175.7890  141.6000 C   0  0  0  0  0  3  0  0  0  0  0  0
  195.6660  174.1910  142.4450 C   0  0  0  0  0  3  0  0  0  0  0  0
  194.8120  175.3250  142.7210 C   0  0  0  0  0  0  0  0  0  0  0  0
  195.6730  173.9640  141.1760 N   0  0  0  0  0  0  0  0  0  0  0  0
  194.8230  174.9300  140.4790 C   0  0  1  0  0  3  0  0  0  0  0  0
  193.6830  174.2070  139.7310 C   0  0  2  0  0  3  0  0  0  0  0  0
  191.9300  170.9780  140.4870 C   0  0  1  0  0  3  0  0  0  0  0  0
  192.2970  172.4150  142.4210 C   0  0  0  0  0  2  0  0  0  0  0  0
  192.2910  172.3870  140.8990 C   0  0  1  0  0  3  0  0  0  0  0  0
  190.4330  170.8170  140.7100 C   0  0  0  0  0  2  0  0  0  0  0  0
  192.1450  170.1150  138.2300 O   0  0  0  0  0  0  0  0  0  0  0  0
  190.9460  171.9210  142.9230 C   0  0  0  0  0  3  0  0  0  0  0  0
  193.4450  171.9080  138.9540 O   0  0  0  0  0  0  0  0  0  0  0  0
  193.5760  172.7140  140.1250 C   0  0  1  0  0  3  0  0  0  0  0  0
  190.1190  171.1630  142.1600 C   0  0  0  0  0  3  0  0  0  0  0  0
  192.4620  170.9510  139.1180 C   0  0  0  0  0  0  0  0  0  0  0  0
  195.0270  175.2600  137.8570 C   0  0  0  0  0  1  0  0  0  0  0  0
  192.6780  174.8680  137.6150 O   0  0  0  0  0  1  0  0  0  0  0  0
  193.8450  174.3780  138.2060 C   0  0  2  0  0  3  0  0  0  0  0  0
  190.2790  176.3640  144.6700 O   0  0  0  0  0  0  0  0  0  0  0  0
  190.9810  177.3550  143.9830 C   0  0  0  0  0  2  0  0  0  0  0  0
  190.0840  177.9470  142.9140 C   0  0  0  0  0  2  0  0  0  0  0  0
  187.4530  175.2880  137.5000 C   0  0  1  0  0  3  0  0  0  0  0  0
  188.5440  174.9520  141.9540 C   0  0  0  0  0  3  0  0  0  0  0  0
  188.4100  174.9970  135.4990 O   0  0  0  0  0  0  0  0  0  0  0  0
  188.9100  173.4280  137.3070 C   0  0  0  0  0  0  0  0  0  0  0  0
  189.3060  172.5140  136.5340 O   0  0  0  0  0  0  0  0  0  0  0  0
  187.6870  178.1420  142.8630 O   0  0  0  0  0  0  0  0  0  0  0  0
  185.9610  176.9940  139.2970 O   0  0  0  0  0  0  0  0  0  0  0  0
  186.8750  177.8700  141.7900 N   0  0  0  0  0  2  0  0  0  0  0  0
  188.7580  177.2090  142.8670 C   0  0  1  0  0  3  0  0  0  0  0  0
  186.9830  176.4300  139.7740 C   0  0  0  0  0  0  0  0  0  0  0  0
  188.2360  174.2480  139.5690 C   0  0  0  0  0  0  0  0  0  0  0  0
  188.6880  174.8220  136.8410 C   0  0  2  0  0  3  0  0  0  0  0  0
  187.6110  176.1720  135.5200 C   0  0  0  0  0  2  0  0  0  0  0  0
  187.4930  176.8700  141.0360 N   0  0  0  0  0  0  0  0  0  0  0  0
  187.6450  175.3470  138.9990 C   0  0  0  0  0  0  0  0  0  0  0  0
  188.7360  173.1940  138.7110 N   0  0  0  0  0  2  0  0  0  0  0  0
  187.1790  176.4720  136.8390 O   0  0  0  0  0  0  0  0  0  0  0  0
  188.6970  176.3950  141.6140 C   0  0  2  0  0  3  0  0  0  0  0  0
  188.3570  174.0160  141.0250 C   0  0  0  0  0  3  0  0  0  0  0  0
  1  2  1  0  0  0  0
  1 13  1  1  0  0  0
  2  8  2  0  0  0  0
  3  5  1  0  0  0  0
  5  9  2  0  0  0  0
  7  4  1  6  0  0  0
  8  4  1  0  0  0  0
  9  6  1  0  0  0  0
  9  7  1  0  0  0  0
 10  3  1  6  0  0  0
 10  7  1  0  0  0  0
 11  5  1  0  0  0  0
 12  2  1  0  0  0  0
 12 10  1  0  0  0  0
 14 13  1  0  0  0  0
 14 17  2  0  0  0  0
 15 14  1  0  0  0  0
 16 17  1  0  0  0  0
 18 19  1  6  0  0  0
 18 15  1  0  0  0  0
 18 16  1  0  0  0  0
 20 22  2  0  0  0  0
 21 22  1  0  0  0  0
 22 19  1  0  0  0  0
 23 21  2  0  0  0  0
 24 25  1  1  0  0  0
 24 23  1  0  0  0  0
 24 20  1  0  0  0  0
 25 38  1  6  0  0  0
 26 29  1  6  0  0  0
 26 28  1  0  0  0  0
 27 31  1  0  0  0  0
 28 27  1  1  0  0  0
 29 34  1  0  0  0  0
 30 35  2  0  0  0  0
 32 35  1  0  0  0  0
 32 33  1  0  0  0  0
 33 25  1  6  0  0  0
 33 28  1  0  0  0  0
 34 31  2  0  0  0  0
 35 26  1  0  0  0  0
 37 38  1  0  0  0  0
 38 36  1  1  0  0  0
 39  1  1  0  0  0  0
 40 39  1  0  0  0  0
 41 40  1  0  0  0  0
 42 58  1  6  0  0  0
 42 56  1  0  0  0  0
 44 54  1  0  0  0  0
 45 57  1  0  0  0  0
 46 45  2  0  0  0  0
 47 50  1  0  0  0  0
 48 51  2  0  0  0  0
 49 47  1  0  0  0  0
 50 41  1  6  0  0  0
 51 55  1  0  0  0  0
 52 60  1  0  0  0  0
 53 44  1  6  0  0  0
 53 45  1  0  0  0  0
 53 42  1  0  0  0  0
 54 58  1  0  0  0  0
 55 59  1  0  0  0  0
 55 49  1  0  0  0  0
 56 52  2  0  0  0  0
 56 51  1  0  0  0  0
 57 52  1  0  0  0  0
 59 43  1  1  0  0  0
 59 50  1  0  0  0  0
 60 43  2  0  0  0  0
M  END
>  <MODEL>
5

>  <REMARK>
 VINA RESULT:      -8.8      3.643      8.469
  Name = 
  12 active torsions:
  status: ('A' for Active; 'I' for Inactive)
    1  A    between atoms: N_3  and  C_34
    2  A    between atoms: N_3  and  C_44
    3  A    between atoms: C_8  and  C_13
    4  A    between atoms: C_9  and  C_19
    5  A    between atoms: C_13  and  C_19
    6  A    between atoms: C_13  and  O_57
    7  A    between atoms: C_23  and  C_27
    8  A    between atoms: C_23  and  C_60
    9  A    between atoms: C_29  and  C_51
   10  A    between atoms: C_29  and  C_55
   11  A    between atoms: C_29  and  C_56
   12  A    between atoms: O_57  and  C_60
                            x       y       z     vdW  Elec       q    Type
                         _______ _______ _______ _____ _____    ______ ____

>  <TORSDO>
F 12

$$$$
=
 OpenBabel11042416123D

 60 69  0  0  1  0  0  0  0  0999 V2000
  195.8050  173.9780  144.2640 C   0  0  1  0  0  3  0  0  0  0  0  0
  196.1470  172.5280  144.4120 C   0  0  0  0  0  0  0  0  0  0  0  0
  194.5530  169.4590  145.6670 C   0  0  0  0  0  2  0  0  0  0  0  0
  197.8700  170.7920  144.6250 C   0  0  0  0  0  2  0  0  0  0  0  0
  195.3630  168.9680  146.5960 C   0  0  0  0  0  0  0  0  0  0  0  0
  197.8060  169.1300  147.0990 F   0  0  0  0  0  0  0  0  0  0  0  0
  196.7580  169.9280  145.1200 C   0  0  1  0  0  3  0  0  0  0  0  0
  197.4030  172.1760  144.4860 N   0  0  0  0  0  0  0  0  0  0  0  0
  196.7430  169.2740  146.2670 C   0  0  0  0  0  0  0  0  0  0  0  0
  195.3780  170.1140  144.5940 C   0  0  2  0  0  3  0  0  0  0  0  0
  194.9050  168.2860  147.8350 C   0  0  0  0  0  1  0  0  0  0  0  0
  195.0960  171.5460  144.5290 N   0  0  0  0  0  2  0  0  0  0  0  0
  195.6750  174.6180  145.6390 C   0  0  0  0  0  2  0  0  0  0  0  0
  194.2790  175.0980  145.8690 C   0  0  0  0  0  0  0  0  0  0  0  0
  193.8550  176.8250  145.7700 S   0  0  0  0  0  0  0  0  0  0  0  0
  192.0080  174.8900  146.1430 C   0  0  0  0  0  2  0  0  0  0  0  0
  193.3040  174.2840  146.0160 N   0  0  0  0  0  0  0  0  0  0  0  0
  192.1130  176.3100  145.5970 C   0  0  2  0  0  3  0  0  0  0  0  0
  191.7370  176.3110  144.1910 N   0  0  0  0  0  2  0  0  0  0  0  0
  189.3520  176.7360  144.1840 C   0  0  0  0  0  3  0  0  0  0  0  0
  190.5000  177.9370  142.6470 C   0  0  0  0  0  3  0  0  0  0  0  0
  190.5590  176.9600  143.7120 C   0  0  0  0  0  0  0  0  0  0  0  0
  189.2760  178.2990  142.4710 N   0  0  0  0  0  0  0  0  0  0  0  0
  188.3960  177.5980  143.4050 C   0  0  1  0  0  3  0  0  0  0  0  0
  187.3550  176.7540  142.6380 C   0  0  2  0  0  3  0  0  0  0  0  0
  184.6540  177.9300  144.9600 C   0  0  1  0  0  3  0  0  0  0  0  0
  186.3250  176.4840  145.9890 C   0  0  0  0  0  2  0  0  0  0  0  0
  186.0310  177.3380  144.7630 C   0  0  1  0  0  3  0  0  0  0  0  0
  184.7910  179.0540  145.9760 C   0  0  0  0  0  2  0  0  0  0  0  0
  183.3850  179.0490  143.2200 O   0  0  0  0  0  0  0  0  0  0  0  0
  186.1630  177.3460  147.2340 C   0  0  0  0  0  3  0  0  0  0  0  0
  185.0300  177.4870  142.6850 O   0  0  0  0  0  0  0  0  0  0  0  0
  185.9940  176.6900  143.3720 C   0  0  1  0  0  3  0  0  0  0  0  0
  185.4350  178.4920  147.2370 C   0  0  0  0  0  3  0  0  0  0  0  0
  184.2970  178.2540  143.5720 C   0  0  0  0  0  0  0  0  0  0  0  0
  188.2880  175.1660  140.8950 C   0  0  0  0  0  1  0  0  0  0  0  0
  187.0160  174.3470  142.7500 O   0  0  0  0  0  1  0  0  0  0  0  0
  187.9100  175.3430  142.3520 C   0  0  2  0  0  3  0  0  0  0  0  0
  196.7880  174.6410  143.5220 O   0  0  0  0  0  0  0  0  0  0  0  0
  196.1160  175.1760  142.4230 C   0  0  0  0  0  2  0  0  0  0  0  0
  197.1340  175.7010  141.4290 C   0  0  0  0  0  2  0  0  0  0  0  0
  192.2650  171.7940  139.3450 C   0  0  1  0  0  3  0  0  0  0  0  0
  195.5690  174.8540  138.4140 C   0  0  0  0  0  3  0  0  0  0  0  0
  190.1340  171.7620  140.0230 O   0  0  0  0  0  0  0  0  0  0  0  0
  190.8620  173.4750  138.4370 C   0  0  0  0  0  0  0  0  0  0  0  0
  189.6980  173.7220  138.0200 O   0  0  0  0  0  0  0  0  0  0  0  0
  197.9410  173.6120  140.5500 O   0  0  0  0  0  0  0  0  0  0  0  0
  194.9820  170.8670  139.6990 O   0  0  0  0  0  0  0  0  0  0  0  0
  197.1740  172.5190  140.2290 N   0  0  0  0  0  2  0  0  0  0  0  0
  197.2130  174.7860  140.2190 C   0  0  1  0  0  3  0  0  0  0  0  0
  194.8260  172.1090  139.5460 C   0  0  0  0  0  0  0  0  0  0  0  0
  193.3440  173.7080  138.2740 C   0  0  0  0  0  0  0  0  0  0  0  0
  191.1150  172.6630  139.6560 C   0  0  2  0  0  3  0  0  0  0  0  0
  190.8950  170.7560  140.6760 C   0  0  0  0  0  2  0  0  0  0  0  0
  195.9200  172.9860  139.8310 N   0  0  0  0  0  0  0  0  0  0  0  0
  193.5050  172.6260  139.1020 C   0  0  0  0  0  0  0  0  0  0  0  0
  192.0170  174.0440  137.8030 N   0  0  0  0  0  2  0  0  0  0  0  0
  192.2820  170.9110  140.4100 O   0  0  0  0  0  0  0  0  0  0  0  0
  195.8280  174.4000  139.8080 C   0  0  2  0  0  3  0  0  0  0  0  0
  194.4500  174.5480  137.7600 C   0  0  0  0  0  3  0  0  0  0  0  0
  1  2  1  0  0  0  0
  1 13  1  1  0  0  0
  2  8  2  0  0  0  0
  2 12  1  0  0  0  0
  3  5  1  0  0  0  0
  5 11  1  0  0  0  0
  7  4  1  1  0  0  0
  7  9  1  0  0  0  0
  8  4  1  0  0  0  0
  9  5  2  0  0  0  0
  9  6  1  0  0  0  0
 10  7  1  0  0  0  0
 10  3  1  1  0  0  0
 12 10  1  0  0  0  0
 13 14  1  0  0  0  0
 14 17  2  0  0  0  0
 15 14  1  0  0  0  0
 17 16  1  0  0  0  0
 18 19  1  6  0  0  0
 18 15  1  0  0  0  0
 18 16  1  0  0  0  0
 21 22  1  0  0  0  0
 22 20  2  0  0  0  0
 22 19  1  0  0  0  0
 23 21  2  0  0  0  0
 23 24  1  0  0  0  0
 24 25  1  6  0  0  0
 24 20  1  0  0  0  0
 25 38  1  1  0  0  0
 26 29  1  1  0  0  0
 27 31  1  0  0  0  0
 28 26  1  0  0  0  0
 28 27  1  1  0  0  0
 29 34  1  0  0  0  0
 30 35  2  0  0  0  0
 31 34  2  0  0  0  0
 32 33  1  0  0  0  0
 32 35  1  0  0  0  0
 33 25  1  6  0  0  0
 33 28  1  0  0  0  0
 35 26  1  0  0  0  0
 38 36  1  6  0  0  0
 38 37  1  0  0  0  0
 39  1  1  0  0  0  0
 40 39  1  0  0  0  0
 41 40  1  0  0  0  0
 42 56  1  1  0  0  0
 42 53  1  0  0  0  0
 42 58  1  0  0  0  0
 44 54  1  0  0  0  0
 46 45  2  0  0  0  0
 49 47  1  0  0  0  0
 50 47  1  0  0  0  0
 50 41  1  1  0  0  0
 51 48  2  0  0  0  0
 51 55  1  0  0  0  0
 52 56  2  0  0  0  0
 53 45  1  6  0  0  0
 53 44  1  0  0  0  0
 55 49  1  0  0  0  0
 56 51  1  0  0  0  0
 57 52  1  0  0  0  0
 57 45  1  0  0  0  0
 58 54  1  0  0  0  0
 59 43  1  6  0  0  0
 59 55  1  0  0  0  0
 59 50  1  0  0  0  0
 60 52  1  0  0  0  0
 60 43  2  0  0  0  0
M  END
>  <MODEL>
6

>  <REMARK>
 VINA RESULT:      -8.8      3.280      9.332
  Name = 
  12 active torsions:
  status: ('A' for Active; 'I' for Inactive)
    1  A    between atoms: N_3  and  C_34
    2  A    between atoms: N_3  and  C_44
    3  A    between atoms: C_8  and  C_13
    4  A    between atoms: C_9  and  C_19
    5  A    between atoms: C_13  and  C_19
    6  A    between atoms: C_13  and  O_57
    7  A    between atoms: C_23  and  C_27
    8  A    between atoms: C_23  and  C_60
    9  A    between atoms: C_29  and  C_51
   10  A    between atoms: C_29  and  C_55
   11  A    between atoms: C_29  and  C_56
   12  A    between atoms: O_57  and  C_60
                            x       y       z     vdW  Elec       q    Type
                         _______ _______ _______ _____ _____    ______ ____

>  <TORSDO>
F 12

$$$$
=
 OpenBabel11042416123D

 60 69  0  0  1  0  0  0  0  0999 V2000
  191.8300  173.0210  143.5690 C   0  0  1  0  0  3  0  0  0  0  0  0
  191.5840  174.1180  144.5570 C   0  0  0  0  0  0  0  0  0  0  0  0
  188.9380  175.1410  146.8990 C   0  0  0  0  0  2  0  0  0  0  0  0
  192.0590  176.4060  145.3120 C   0  0  0  0  0  2  0  0  0  0  0  0
  188.6100  176.3860  146.5760 C   0  0  0  0  0  0  0  0  0  0  0  0
  189.7530  178.2900  145.4310 F   0  0  0  0  0  0  0  0  0  0  0  0
  190.8040  176.2680  146.1080 C   0  0  1  0  0  3  0  0  0  0  0  0
  192.2090  175.2570  144.4110 N   0  0  0  0  0  0  0  0  0  0  0  0
  189.7710  177.0900  146.0640 C   0  0  0  0  0  0  0  0  0  0  0  0
  190.4070  174.9410  146.6520 C   0  0  2  0  0  3  0  0  0  0  0  0
  187.2320  176.9370  146.6470 C   0  0  0  0  0  1  0  0  0  0  0  0
  190.6240  173.9330  145.6190 N   0  0  0  0  0  2  0  0  0  0  0  0
  191.5500  171.6730  144.2200 C   0  0  0  0  0  2  0  0  0  0  0  0
  192.7900  170.8400  144.2650 C   0  0  0  0  0  0  0  0  0  0  0  0
  193.0420  169.4760  143.1470 S   0  0  0  0  0  0  0  0  0  0  0  0
  194.9350  170.3030  144.8870 C   0  0  0  0  0  2  0  0  0  0  0  0
  193.7800  171.1470  145.0130 N   0  0  0  0  0  0  0  0  0  0  0  0
  194.8180  169.5660  143.5570 C   0  0  2  0  0  3  0  0  0  0  0  0
  195.5230  170.3180  142.5300 N   0  0  0  0  0  2  0  0  0  0  0  0
  194.2480  170.8370  140.5370 C   0  0  0  0  0  3  0  0  0  0  0  0
  194.7560  172.6480  141.7960 C   0  0  0  0  0  3  0  0  0  0  0  0
  194.8570  171.2140  141.6400 C   0  0  0  0  0  0  0  0  0  0  0  0
  194.0990  173.1380  140.8010 N   0  0  0  0  0  0  0  0  0  0  0  0
  193.6950  172.0740  139.8820 C   0  0  1  0  0  3  0  0  0  0  0  0
  194.3060  172.3070  138.4830 C   0  0  2  0  0  3  0  0  0  0  0  0
  190.8910  171.7950  137.0200 C   0  0  1  0  0  3  0  0  0  0  0  0
  192.1640  169.7470  137.3750 C   0  0  0  0  0  2  0  0  0  0  0  0
  192.0980  171.2260  137.7310 C   0  0  1  0  0  3  0  0  0  0  0  0
  189.6610  171.3340  137.7870 C   0  0  0  0  0  2  0  0  0  0  0  0
  190.4240  174.1660  136.8000 O   0  0  0  0  0  0  0  0  0  0  0  0
  190.8350  169.0980  137.7380 C   0  0  0  0  0  3  0  0  0  0  0  0
  192.6000  173.4010  137.1280 O   0  0  0  0  0  0  0  0  0  0  0  0
  193.2600  172.1550  137.3530 C   0  0  1  0  0  3  0  0  0  0  0  0
  189.6920  169.8140  137.8860 C   0  0  0  0  0  3  0  0  0  0  0  0
  191.2350  173.2230  137.0000 C   0  0  0  0  0  0  0  0  0  0  0  0
  196.8330  172.0950  138.4720 C   0  0  0  0  0  1  0  0  0  0  0  0
  195.4820  170.7750  137.0010 O   0  0  0  0  0  1  0  0  0  0  0  0
  195.5160  171.3750  138.2620 C   0  0  2  0  0  3  0  0  0  0  0  0
  191.0170  173.1830  142.4430 O   0  0  0  0  0  0  0  0  0  0  0  0
  189.8920  172.3940  142.6890 C   0  0  0  0  0  2  0  0  0  0  0  0
  188.6970  173.0030  141.9820 C   0  0  0  0  0  2  0  0  0  0  0  0
  184.8300  178.3000  141.4460 C   0  0  1  0  0  3  0  0  0  0  0  0
  188.9390  176.4700  142.4010 C   0  0  0  0  0  3  0  0  0  0  0  0
  182.8770  178.6930  142.4640 O   0  0  0  0  0  0  0  0  0  0  0  0
  184.9610  179.0310  143.6970 C   0  0  0  0  0  0  0  0  0  0  0  0
  184.4420  179.7910  144.5590 O   0  0  0  0  0  0  0  0  0  0  0  0
  188.9860  174.1460  139.8860 O   0  0  0  0  0  0  0  0  0  0  0  0
  186.2590  177.1640  139.2020 O   0  0  0  0  0  0  0  0  0  0  0  0
  188.1920  175.1530  139.3960 N   0  0  0  0  0  2  0  0  0  0  0  0
  189.0920  174.2980  141.2940 C   0  0  1  0  0  3  0  0  0  0  0  0
  186.7060  176.8950  140.3500 C   0  0  0  0  0  0  0  0  0  0  0  0
  186.9560  177.9880  142.6120 C   0  0  0  0  0  0  0  0  0  0  0  0
  184.1450  178.2260  142.7500 C   0  0  2  0  0  3  0  0  0  0  0  0
  182.6790  178.2010  141.1460 C   0  0  0  0  0  2  0  0  0  0  0  0
  187.6790  175.8550  140.4890 N   0  0  0  0  0  0  0  0  0  0  0  0
  186.1910  177.6450  141.5260 C   0  0  0  0  0  0  0  0  0  0  0  0
  186.3810  178.8300  143.6400 N   0  0  0  0  0  2  0  0  0  0  0  0
  183.9010  177.7520  140.5790 O   0  0  0  0  0  0  0  0  0  0  0  0
  188.1650  175.3860  141.7350 C   0  0  2  0  0  3  0  0  0  0  0  0
  188.3750  177.6100  142.7970 C   0  0  0  0  0  3  0  0  0  0  0  0
  1 13  1  1  0  0  0
  1  2  1  0  0  0  0
  2 12  1  0  0  0  0
  5 11  1  0  0  0  0
  5  3  1  0  0  0  0
  6  9  1  0  0  0  0
  7  4  1  6  0  0  0
  7 10  1  0  0  0  0
  8  2  2  0  0  0  0
  8  4  1  0  0  0  0
  9  7  1  0  0  0  0
  9  5  2  0  0  0  0
 10  3  1  6  0  0  0
 12 10  1  0  0  0  0
 13 14  1  0  0  0  0
 14 17  2  0  0  0  0
 15 18  1  0  0  0  0
 15 14  1  0  0  0  0
 16 17  1  0  0  0  0
 18 19  1  6  0  0  0
 18 16  1  0  0  0  0
 20 22  2  0  0  0  0
 22 21  1  0  0  0  0
 22 19  1  0  0  0  0
 23 21  2  0  0  0  0
 24 25  1  6  0  0  0
 24 20  1  0  0  0  0
 24 23  1  0  0  0  0
 25 38  1  6  0  0  0
 26 28  1  0  0  0  0
 26 29  1  1  0  0  0
 27 31  1  0  0  0  0
 28 27  1  6  0  0  0
 29 34  1  0  0  0  0
 30 35  2  0  0  0  0
 31 34  2  0  0  0  0
 32 33  1  0  0  0  0
 33 28  1  0  0  0  0
 33 25  1  1  0  0  0
 35 26  1  0  0  0  0
 35 32  1  0  0  0  0
 37 38  1  0  0  0  0
 38 36  1  6  0  0  0
 39 40  1  0  0  0  0
 39  1  1  0  0  0  0
 41 40  1  0  0  0  0
 42 58  1  6  0  0  0
 42 56  1  0  0  0  0
 42 53  1  0  0  0  0
 43 60  2  0  0  0  0
 45 46  2  0  0  0  0
 47 50  1  0  0  0  0
 48 51  2  0  0  0  0
 49 47  1  0  0  0  0
 49 55  1  0  0  0  0
 50 59  1  0  0  0  0
 50 41  1  1  0  0  0
 51 55  1  0  0  0  0
 51 56  1  0  0  0  0
 52 60  1  0  0  0  0
 52 57  1  0  0  0  0
 53 44  1  6  0  0  0
 53 45  1  0  0  0  0
 54 44  1  0  0  0  0
 55 59  1  0  0  0  0
 56 52  2  0  0  0  0
 57 45  1  0  0  0  0
 58 54  1  0  0  0  0
 59 43  1  6  0  0  0
M  END
>  <MODEL>
7

>  <REMARK>
 VINA RESULT:      -8.6      3.032      6.858
  Name = 
  12 active torsions:
  status: ('A' for Active; 'I' for Inactive)
    1  A    between atoms: N_3  and  C_34
    2  A    between atoms: N_3  and  C_44
    3  A    between atoms: C_8  and  C_13
    4  A    between atoms: C_9  and  C_19
    5  A    between atoms: C_13  and  C_19
    6  A    between atoms: C_13  and  O_57
    7  A    between atoms: C_23  and  C_27
    8  A    between atoms: C_23  and  C_60
    9  A    between atoms: C_29  and  C_51
   10  A    between atoms: C_29  and  C_55
   11  A    between atoms: C_29  and  C_56
   12  A    between atoms: O_57  and  C_60
                            x       y       z     vdW  Elec       q    Type
                         _______ _______ _______ _____ _____    ______ ____

>  <TORSDO>
F 12

$$$$
=
 OpenBabel11042416123D

 60 69  0  0  1  0  0  0  0  0999 V2000
  190.1560  176.9050  145.8940 C   0  0  1  0  0  3  0  0  0  0  0  0
  188.6850  177.0220  146.1400 C   0  0  0  0  0  0  0  0  0  0  0  0
  185.5660  176.8160  144.1990 C   0  0  0  0  0  2  0  0  0  0  0  0
  186.8520  177.8930  147.5230 C   0  0  0  0  0  2  0  0  0  0  0  0
  184.9240  177.9600  144.3970 C   0  0  0  0  0  0  0  0  0  0  0  0
  184.9010  179.7060  146.1840 F   0  0  0  0  0  0  0  0  0  0  0  0
  185.9900  177.5980  146.3410 C   0  0  1  0  0  3  0  0  0  0  0  0
  188.2650  177.7080  147.1690 N   0  0  0  0  0  0  0  0  0  0  0  0
  185.2000  178.4620  145.7300 C   0  0  0  0  0  0  0  0  0  0  0  0
  186.3080  176.4460  145.4530 C   0  0  2  0  0  3  0  0  0  0  0  0
  184.1170  178.6600  143.3630 C   0  0  0  0  0  1  0  0  0  0  0  0
  187.7480  176.4290  145.2150 N   0  0  0  0  0  2  0  0  0  0  0  0
  190.8380  176.3260  147.1270 C   0  0  0  0  0  2  0  0  0  0  0  0
  192.3120  176.2190  146.9130 C   0  0  0  0  0  0  0  0  0  0  0  0
  193.0350  174.8400  146.0470 S   0  0  0  0  0  0  0  0  0  0  0  0
  194.4870  176.9590  146.8810 C   0  0  0  0  0  2  0  0  0  0  0  0
  193.1090  177.1700  147.2230 N   0  0  0  0  0  0  0  0  0  0  0  0
  194.5320  175.8610  145.8240 C   0  0  2  0  0  3  0  0  0  0  0  0
  194.5220  176.4670  144.5020 N   0  0  0  0  0  2  0  0  0  0  0  0
  194.4570  175.8230  142.1680 C   0  0  0  0  0  3  0  0  0  0  0  0
  196.2470  175.0130  143.2920 C   0  0  0  0  0  3  0  0  0  0  0  0
  195.0380  175.8040  143.3480 C   0  0  0  0  0  0  0  0  0  0  0  0
  196.3980  174.5530  142.0970 N   0  0  0  0  0  0  0  0  0  0  0  0
  195.3010  174.9960  141.2360 C   0  0  1  0  0  3  0  0  0  0  0  0
  194.5260  173.7820  140.6800 C   0  0  2  0  0  3  0  0  0  0  0  0
  194.2830  170.2690  141.9710 C   0  0  1  0  0  3  0  0  0  0  0  0
  194.1700  171.9950  143.6880 C   0  0  0  0  0  2  0  0  0  0  0  0
  194.0720  171.7500  142.1880 C   0  0  1  0  0  3  0  0  0  0  0  0
  192.9990  169.5670  142.3870 C   0  0  0  0  0  2  0  0  0  0  0  0
  194.6730  169.2460  139.8050 O   0  0  0  0  0  0  0  0  0  0  0  0
  193.1730  171.0890  144.3970 C   0  0  0  0  0  3  0  0  0  0  0  0
  195.1840  171.4890  140.1780 O   0  0  0  0  0  0  0  0  0  0  0  0
  195.0590  172.4400  141.2360 C   0  0  1  0  0  3  0  0  0  0  0  0
  192.6720  169.9660  143.8210 C   0  0  0  0  0  3  0  0  0  0  0  0
  194.6860  170.2570  140.5580 C   0  0  0  0  0  0  0  0  0  0  0  0
  195.5990  174.7260  138.5850 C   0  0  0  0  0  1  0  0  0  0  0  0
  193.2810  174.1270  138.6170 O   0  0  0  0  0  1  0  0  0  0  0  0
  194.5350  173.7980  139.1370 C   0  0  2  0  0  3  0  0  0  0  0  0
  190.4050  176.0870  144.7860 O   0  0  0  0  0  0  0  0  0  0  0  0
  190.8450  176.9530  143.7850 C   0  0  0  0  0  2  0  0  0  0  0  0
  190.8980  176.2030  142.4690 C   0  0  0  0  0  2  0  0  0  0  0  0
  189.9310  172.0280  137.4750 C   0  0  1  0  0  3  0  0  0  0  0  0
  190.1220  172.8210  142.0000 C   0  0  0  0  0  3  0  0  0  0  0  0
  191.3150  171.5550  135.7820 O   0  0  0  0  0  0  0  0  0  0  0  0
  191.6920  170.5180  137.9640 C   0  0  0  0  0  0  0  0  0  0  0  0
  192.3880  169.5740  137.5030 O   0  0  0  0  0  0  0  0  0  0  0  0
  188.5650  175.8720  141.9830 O   0  0  0  0  0  0  0  0  0  0  0  0
  187.8320  173.7010  138.5530 O   0  0  0  0  0  0  0  0  0  0  0  0
  188.0510  175.2270  140.8850 N   0  0  0  0  0  2  0  0  0  0  0  0
  189.7550  175.2070  142.3810 C   0  0  1  0  0  3  0  0  0  0  0  0
  188.8160  173.4720  139.3090 C   0  0  0  0  0  0  0  0  0  0  0  0
  190.4370  171.6090  139.8290 C   0  0  0  0  0  0  0  0  0  0  0  0
  191.3360  171.7130  137.1540 C   0  0  2  0  0  3  0  0  0  0  0  0
  190.3410  172.5150  135.3960 C   0  0  0  0  0  2  0  0  0  0  0  0
  188.9710  174.2520  140.4990 N   0  0  0  0  0  0  0  0  0  0  0  0
  189.7970  172.4220  138.9290 C   0  0  0  0  0  0  0  0  0  0  0  0
  191.2750  170.5350  139.3370 N   0  0  0  0  0  2  0  0  0  0  0  0
  189.6020  172.9720  136.5190 O   0  0  0  0  0  0  0  0  0  0  0  0
  190.0930  174.1660  141.3610 C   0  0  2  0  0  3  0  0  0  0  0  0
  190.2930  171.7010  141.2990 C   0  0  0  0  0  3  0  0  0  0  0  0
  1  2  1  0  0  0  0
  1 13  1  1  0  0  0
  2  8  2  0  0  0  0
  3  5  1  0  0  0  0
  5  9  2  0  0  0  0
  7  4  1  6  0  0  0
  8  4  1  0  0  0  0
  9  6  1  0  0  0  0
  9  7  1  0  0  0  0
 10  3  1  6  0  0  0
 10  7  1  0  0  0  0
 11  5  1  0  0  0  0
 12 10  1  0  0  0  0
 12  2  1  0  0  0  0
 14 13  1  0  0  0  0
 14 17  2  0  0  0  0
 15 14  1  0  0  0  0
 16 17  1  0  0  0  0
 18 19  1  6  0  0  0
 18 15  1  0  0  0  0
 18 16  1  0  0  0  0
 20 22  2  0  0  0  0
 21 22  1  0  0  0  0
 22 19  1  0  0  0  0
 23 21  2  0  0  0  0
 24 25  1  1  0  0  0
 24 23  1  0  0  0  0
 24 20  1  0  0  0  0
 25 38  1  6  0  0  0
 26 28  1  0  0  0  0
 26 29  1  6  0  0  0
 27 31  1  0  0  0  0
 28 27  1  1  0  0  0
 29 34  1  0  0  0  0
 30 35  2  0  0  0  0
 32 35  1  0  0  0  0
 32 33  1  0  0  0  0
 33 25  1  6  0  0  0
 33 28  1  0  0  0  0
 34 31  2  0  0  0  0
 35 26  1  0  0  0  0
 37 38  1  0  0  0  0
 38 36  1  1  0  0  0
 39  1  1  0  0  0  0
 40 39  1  0  0  0  0
 41 40  1  0  0  0  0
 42 58  1  6  0  0  0
 42 56  1  0  0  0  0
 45 57  1  0  0  0  0
 46 45  2  0  0  0  0
 47 50  1  0  0  0  0
 48 51  2  0  0  0  0
 49 47  1  0  0  0  0
 50 41  1  6  0  0  0
 51 55  1  0  0  0  0
 52 60  1  0  0  0  0
 53 44  1  6  0  0  0
 53 42  1  0  0  0  0
 53 45  1  0  0  0  0
 54 44  1  0  0  0  0
 54 58  1  0  0  0  0
 55 49  1  0  0  0  0
 55 59  1  0  0  0  0
 56 51  1  0  0  0  0
 56 52  2  0  0  0  0
 57 52  1  0  0  0  0
 59 43  1  1  0  0  0
 59 50  1  0  0  0  0
 60 43  2  0  0  0  0
M  END
>  <MODEL>
8

>  <REMARK>
 VINA RESULT:      -8.6      3.377      8.740
  Name = 
  12 active torsions:
  status: ('A' for Active; 'I' for Inactive)
    1  A    between atoms: N_3  and  C_34
    2  A    between atoms: N_3  and  C_44
    3  A    between atoms: C_8  and  C_13
    4  A    between atoms: C_9  and  C_19
    5  A    between atoms: C_13  and  C_19
    6  A    between atoms: C_13  and  O_57
    7  A    between atoms: C_23  and  C_27
    8  A    between atoms: C_23  and  C_60
    9  A    between atoms: C_29  and  C_51
   10  A    between atoms: C_29  and  C_55
   11  A    between atoms: C_29  and  C_56
   12  A    between atoms: O_57  and  C_60
                            x       y       z     vdW  Elec       q    Type
                         _______ _______ _______ _____ _____    ______ ____

>  <TORSDO>
F 12

$$$$
=
 OpenBabel11042416123D

 60 69  0  0  1  0  0  0  0  0999 V2000
  190.1050  172.7330  138.6710 C   0  0  1  0  0  3  0  0  0  0  0  0
  190.2670  173.4040  137.3430 C   0  0  0  0  0  0  0  0  0  0  0  0
  192.8460  175.3120  135.5430 C   0  0  0  0  0  2  0  0  0  0  0  0
  189.2260  174.4580  135.3850 C   0  0  0  0  0  2  0  0  0  0  0  0
  192.2930  176.4720  135.2120 C   0  0  0  0  0  0  0  0  0  0  0  0
  189.9640  177.2930  134.8320 F   0  0  0  0  0  0  0  0  0  0  0  0
  190.5850  175.0170  135.1220 C   0  0  1  0  0  3  0  0  0  0  0  0
  189.2030  173.7970  136.6950 N   0  0  0  0  0  0  0  0  0  0  0  0
  190.8750  176.2950  134.9640 C   0  0  0  0  0  0  0  0  0  0  0  0
  191.7970  174.2370  135.4940 C   0  0  2  0  0  3  0  0  0  0  0  0
  193.0150  177.7720  135.1920 C   0  0  0  0  0  1  0  0  0  0  0  0
  191.5880  173.6600  136.8190 N   0  0  0  0  0  2  0  0  0  0  0  0
  191.2280  173.1650  139.6040 C   0  0  0  0  0  2  0  0  0  0  0  0
  192.1440  172.0210  139.8940 C   0  0  0  0  0  0  0  0  0  0  0  0
  193.6130  172.2230  140.8800 S   0  0  0  0  0  0  0  0  0  0  0  0
  192.7830  169.8150  139.9800 C   0  0  0  0  0  2  0  0  0  0  0  0
  191.8480  170.8220  139.5610 N   0  0  0  0  0  0  0  0  0  0  0  0
  193.6200  170.4120  141.1070 C   0  0  2  0  0  3  0  0  0  0  0  0
  193.0130  170.0740  142.3850 N   0  0  0  0  0  2  0  0  0  0  0  0
  193.0750  171.8020  144.0810 C   0  0  0  0  0  3  0  0  0  0  0  0
  194.3980  170.0230  144.5380 C   0  0  0  0  0  3  0  0  0  0  0  0
  193.4610  170.6320  143.6200 C   0  0  0  0  0  0  0  0  0  0  0  0
  194.5830  170.8130  145.5410 N   0  0  0  0  0  0  0  0  0  0  0  0
  193.7840  172.0280  145.3890 C   0  0  1  0  0  3  0  0  0  0  0  0
  194.6950  173.2730  145.3420 C   0  0  2  0  0  3  0  0  0  0  0  0
  192.4150  176.0550  146.4050 C   0  0  1  0  0  3  0  0  0  0  0  0
  191.2900  174.1480  145.3840 C   0  0  0  0  0  2  0  0  0  0  0  0
  192.6010  174.6080  146.0070 C   0  0  1  0  0  3  0  0  0  0  0  0
  191.5640  176.0660  147.6660 C   0  0  0  0  0  2  0  0  0  0  0  0
  194.2200  177.5340  147.0670 O   0  0  0  0  0  0  0  0  0  0  0  0
  190.1630  174.4060  146.3750 C   0  0  0  0  0  3  0  0  0  0  0  0
  194.6280  175.6810  145.7140 O   0  0  0  0  0  0  0  0  0  0  0  0
  193.8910  174.5840  145.1750 C   0  0  1  0  0  3  0  0  0  0  0  0
  190.2740  175.3050  147.3860 C   0  0  0  0  0  3  0  0  0  0  0  0
  193.8140  176.4990  146.4760 C   0  0  0  0  0  0  0  0  0  0  0  0
  197.1690  173.1430  144.7990 C   0  0  0  0  0  1  0  0  0  0  0  0
  195.6150  174.0870  143.2410 O   0  0  0  0  0  1  0  0  0  0  0  0
  195.7610  173.1190  144.2370 C   0  0  2  0  0  3  0  0  0  0  0  0
  188.8670  173.0570  139.2360 O   0  0  0  0  0  0  0  0  0  0  0  0
  189.0080  172.7930  140.5990 C   0  0  0  0  0  2  0  0  0  0  0  0
  188.0540  173.6790  141.3760 C   0  0  0  0  0  2  0  0  0  0  0  0
  185.7410  178.5470  145.1520 C   0  0  1  0  0  3  0  0  0  0  0  0
  189.3020  176.4050  143.1840 C   0  0  0  0  0  3  0  0  0  0  0  0
  184.4800  178.3870  146.9930 O   0  0  0  0  0  0  0  0  0  0  0  0
  186.8870  177.9850  147.1490 C   0  0  0  0  0  0  0  0  0  0  0  0
  186.9390  178.1900  148.3920 O   0  0  0  0  0  0  0  0  0  0  0  0
  187.8140  175.7460  140.1700 O   0  0  0  0  0  0  0  0  0  0  0  0
  185.8870  178.7280  142.2690 O   0  0  0  0  0  0  0  0  0  0  0  0
  187.1760  176.8760  140.6180 N   0  0  0  0  0  2  0  0  0  0  0  0
  188.4750  175.1340  141.2680 C   0  0  1  0  0  3  0  0  0  0  0  0
  186.6490  177.8880  142.8200 C   0  0  0  0  0  0  0  0  0  0  0  0
  187.9960  177.6260  144.9390 C   0  0  0  0  0  0  0  0  0  0  0  0
  185.6010  177.8130  146.4240 C   0  0  2  0  0  3  0  0  0  0  0  0
  183.6850  178.6630  145.8480 C   0  0  0  0  0  2  0  0  0  0  0  0
  187.3060  176.9100  142.0080 N   0  0  0  0  0  0  0  0  0  0  0  0
  186.8200  177.9190  144.2970 C   0  0  0  0  0  0  0  0  0  0  0  0
  188.0810  177.8150  146.3720 N   0  0  0  0  0  2  0  0  0  0  0  0
  184.4490  178.5530  144.6570 O   0  0  0  0  0  0  0  0  0  0  0  0
  188.0890  175.8470  142.5250 C   0  0  2  0  0  3  0  0  0  0  0  0
  189.2350  177.1790  144.2650 C   0  0  0  0  0  3  0  0  0  0  0  0
  1 39  1  0  0  0  0
  1 13  1  1  0  0  0
  2  1  1  0  0  0  0
  4  8  1  0  0  0  0
  5  3  1  0  0  0  0
  6  9  1  0  0  0  0
  7  4  1  1  0  0  0
  7 10  1  0  0  0  0
  8  2  2  0  0  0  0
  9  7  1  0  0  0  0
  9  5  2  0  0  0  0
 10  3  1  1  0  0  0
 10 12  1  0  0  0  0
 11  5  1  0  0  0  0
 12  2  1  0  0  0  0
 13 14  1  0  0  0  0
 14 15  1  0  0  0  0
 15 18  1  0  0  0  0
 16 18  1  0  0  0  0
 17 14  2  0  0  0  0
 17 16  1  0  0  0  0
 18 19  1  1  0  0  0
 19 22  1  0  0  0  0
 20 24  1  0  0  0  0
 21 23  2  0  0  0  0
 22 20  2  0  0  0  0
 22 21  1  0  0  0  0
 24 25  1  6  0  0  0
 24 23  1  0  0  0  0
 25 38  1  6  0  0  0
 26 35  1  0  0  0  0
 26 29  1  1  0  0  0
 27 31  1  0  0  0  0
 28 27  1  6  0  0  0
 28 26  1  0  0  0  0
 31 34  2  0  0  0  0
 32 35  1  0  0  0  0
 33 25  1  1  0  0  0
 33 32  1  0  0  0  0
 33 28  1  0  0  0  0
 34 29  1  0  0  0  0
 35 30  2  0  0  0  0
 37 38  1  0  0  0  0
 38 36  1  1  0  0  0
 39 40  1  0  0  0  0
 40 41  1  0  0  0  0
 42 56  1  6  0  0  0
 42 53  1  0  0  0  0
 43 60  2  0  0  0  0
 45 46  2  0  0  0  0
 47 49  1  0  0  0  0
 47 50  1  0  0  0  0
 48 51  2  0  0  0  0
 49 55  1  0  0  0  0
 50 41  1  1  0  0  0
 50 59  1  0  0  0  0
 51 56  1  0  0  0  0
 52 57  1  0  0  0  0
 53 44  1  1  0  0  0
 53 45  1  0  0  0  0
 54 44  1  0  0  0  0
 55 59  1  0  0  0  0
 55 51  1  0  0  0  0
 56 52  2  0  0  0  0
 57 45  1  0  0  0  0
 58 42  1  0  0  0  0
 58 54  1  0  0  0  0
 59 43  1  6  0  0  0
 60 52  1  0  0  0  0
M  END
>  <MODEL>
9

>  <REMARK>
 VINA RESULT:      -8.6      2.282      2.953
  Name = 
  12 active torsions:
  status: ('A' for Active; 'I' for Inactive)
    1  A    between atoms: N_3  and  C_34
    2  A    between atoms: N_3  and  C_44
    3  A    between atoms: C_8  and  C_13
    4  A    between atoms: C_9  and  C_19
    5  A    between atoms: C_13  and  C_19
    6  A    between atoms: C_13  and  O_57
    7  A    between atoms: C_23  and  C_27
    8  A    between atoms: C_23  and  C_60
    9  A    between atoms: C_29  and  C_51
   10  A    between atoms: C_29  and  C_55
   11  A    between atoms: C_29  and  C_56
   12  A    between atoms: O_57  and  C_60
                            x       y       z     vdW  Elec       q    Type
                         _______ _______ _______ _____ _____    ______ ____

>  <TORSDO>
F 12

$$$$
