=
 OpenBabel11042418413D

 34 39  0  0  1  0  0  0  0  0999 V2000
  186.7670  177.4900  147.3410 N   0  0  0  0  0  0  0  0  0  0  0  0
  184.9290  178.7910  146.6590 N   0  0  0  0  0  0  0  0  0  0  0  0
  185.6000  178.1190  147.6320 C   0  0  0  0  0  3  0  0  0  0  0  0
  184.6040  179.5680  144.3490 C   0  0  0  0  0  1  0  0  0  0  0  0
  187.2890  177.5030  146.0800 C   0  0  0  0  0  0  0  0  0  0  0  0
  185.3910  178.8300  145.3810 C   0  0  0  0  0  0  0  0  0  0  0  0
  186.5700  178.1520  145.0460 C   0  0  0  0  0  0  0  0  0  0  0  0
  190.1560  175.0430  146.1820 C   0  0  0  0  0  3  0  0  0  0  0  0
  191.1950  175.7850  145.6020 C   0  0  0  0  0  0  0  0  0  0  0  0
  188.8820  175.6010  146.3260 C   0  0  0  0  0  3  0  0  0  0  0  0
  190.9530  177.1100  145.2050 C   0  0  0  0  0  3  0  0  0  0  0  0
  189.6810  177.6680  145.3500 C   0  0  0  0  0  3  0  0  0  0  0  0
  188.6280  176.9080  145.8820 C   0  0  0  0  0  0  0  0  0  0  0  0
  193.3860  175.6410  144.3780 N   0  0  0  0  0  2  0  0  0  0  0  0
  192.5320  175.1920  145.4330 C   0  0  0  0  0  0  0  0  0  0  0  0
  192.9290  174.2960  146.2270 O   0  0  0  0  0  0  0  0  0  0  0  0
  195.1940  175.5180  142.9140 O   0  0  0  0  0  0  0  0  0  0  0  0
  194.6920  175.0510  144.1430 C   0  0  1  0  0  3  0  0  0  0  0  0
  195.7200  176.1120  144.0720 C   0  0  0  0  0  2  0  0  0  0  0  0
  186.9510  178.0760  143.6650 N   0  0  0  0  0  2  0  0  0  0  0  0
  188.1660  177.0440  142.0080 C   0  0  2  0  0  3  0  0  0  0  0  0
  187.0700  176.8620  142.9770 N   0  0  0  0  0  0  0  0  0  0  0  0
  186.7790  177.1630  141.5640 C   0  0  0  0  0  2  0  0  0  0  0  0
  188.7250  173.8350  140.0990 N   0  0  0  0  0  0  0  0  0  0  0  0
  189.8300  175.1500  142.2290 O   0  0  0  0  0  0  0  0  0  0  0  0
  190.2020  173.7790  142.0520 C   0  0  2  0  0  3  0  0  0  0  0  0
  188.1650  175.0730  140.5560 C   0  0  0  0  0  3  0  0  0  0  0  0
  188.7150  175.7140  141.5900 C   0  0  0  0  0  0  0  0  0  0  0  0
  190.2320  172.0300  140.2120 N   0  0  0  0  0  1  0  0  0  0  0  0
  189.7010  173.2460  140.7310 C   0  0  0  0  0  0  0  0  0  0  0  0
  191.9700  172.2260  143.4840 C   0  0  0  0  0  1  0  0  0  0  0  0
  190.6150  172.1960  144.0160 N   0  0  0  0  0  0  0  0  0  0  0  0
  189.6170  172.9540  143.2070 C   0  0  2  0  0  3  0  0  0  0  0  0
  189.8060  171.5250  142.9860 C   0  0  0  0  0  2  0  0  0  0  0  0
  1  3  1  0  0  0  0
  2  3  2  0  0  0  0
  4  6  1  0  0  0  0
  5  1  2  0  0  0  0
  6  2  1  0  0  0  0
  7  6  2  0  0  0  0
  7  5  1  0  0  0  0
  8 10  1  0  0  0  0
  9  8  2  0  0  0  0
 11 12  2  0  0  0  0
 11  9  1  0  0  0  0
 12 13  1  0  0  0  0
 13  5  1  0  0  0  0
 13 10  2  0  0  0  0
 14 15  1  0  0  0  0
 15  9  1  0  0  0  0
 15 16  2  0  0  0  0
 17 19  1  0  0  0  0
 17 18  1  0  0  0  0
 18 14  1  6  0  0  0
 19 18  1  0  0  0  0
 20  7  1  0  0  0  0
 21 28  1  6  0  0  0
 21 22  1  0  0  0  0
 22 20  1  0  0  0  0
 23 21  1  0  0  0  0
 23 22  1  0  0  0  0
 24 27  1  0  0  0  0
 24 30  2  0  0  0  0
 26 30  1  6  0  0  0
 26 25  1  0  0  0  0
 26 33  1  0  0  0  0
 27 28  2  0  0  0  0
 28 25  1  0  0  0  0
 29 30  1  0  0  0  0
 31 32  1  0  0  0  0
 33 34  1  6  0  0  0
 33 32  1  0  0  0  0
 34 32  1  0  0  0  0
M  END
>  <MODEL>
1

>  <REMARK>
 VINA RESULT:      -7.4      0.000      0.000
  Name = 
  7 active torsions:
  status: ('A' for Active; 'I' for Inactive)
    1  A    between atoms: C_8  and  C_15
    2  A    between atoms: C_9  and  C_18
    3  A    between atoms: N_10  and  N_32
    4  A    between atoms: N_11  and  C_26
    5  A    between atoms: C_13  and  C_16
    6  A    between atoms: C_25  and  C_31
    7  A    between atoms: N_32  and  C_34
                            x       y       z     vdW  Elec       q    Type
                         _______ _______ _______ _____ _____    ______ ____

>  <TORSDO>
F 7

$$$$
=
 OpenBabel11042418413D

 34 39  0  0  1  0  0  0  0  0999 V2000
  185.7770  177.5790  147.0420 N   0  0  0  0  0  0  0  0  0  0  0  0
  183.9610  178.5030  145.8650 N   0  0  0  0  0  0  0  0  0  0  0  0
  184.5170  178.0840  147.0330 C   0  0  0  0  0  3  0  0  0  0  0  0
  183.9690  178.8640  143.4330 C   0  0  0  0  0  1  0  0  0  0  0  0
  186.5090  177.4670  145.8960 C   0  0  0  0  0  0  0  0  0  0  0  0
  184.6350  178.4050  144.6880 C   0  0  0  0  0  0  0  0  0  0  0  0
  185.9200  177.8470  144.6650 C   0  0  0  0  0  0  0  0  0  0  0  0
  189.5580  175.4680  146.8880 C   0  0  0  0  0  3  0  0  0  0  0  0
  190.5980  176.2340  146.3410 C   0  0  0  0  0  0  0  0  0  0  0  0
  188.2280  175.8660  146.7320 C   0  0  0  0  0  3  0  0  0  0  0  0
  190.2900  177.4270  145.6680 C   0  0  0  0  0  3  0  0  0  0  0  0
  188.9600  177.8260  145.5130 C   0  0  0  0  0  3  0  0  0  0  0  0
  187.9170  177.0320  146.0160 C   0  0  0  0  0  0  0  0  0  0  0  0
  193.0340  176.4850  145.7730 N   0  0  0  0  0  2  0  0  0  0  0  0
  191.9990  175.8050  146.4890 C   0  0  0  0  0  0  0  0  0  0  0  0
  192.2880  174.8480  147.2560 O   0  0  0  0  0  0  0  0  0  0  0  0
  194.6930  175.1730  144.7960 O   0  0  0  0  0  0  0  0  0  0  0  0
  194.4220  176.0660  145.8500 C   0  0  1  0  0  3  0  0  0  0  0  0
  195.1460  176.4920  144.6330 C   0  0  0  0  0  2  0  0  0  0  0  0
  186.5440  177.6110  143.3950 N   0  0  0  0  0  2  0  0  0  0  0  0
  188.1470  176.3380  142.3470 C   0  0  2  0  0  3  0  0  0  0  0  0
  186.7770  176.3250  142.8920 N   0  0  0  0  0  0  0  0  0  0  0  0
  187.0060  176.4870  141.4460 C   0  0  0  0  0  2  0  0  0  0  0  0
  189.7850  173.0610  143.2530 N   0  0  0  0  0  0  0  0  0  0  0  0
  188.4750  174.1530  141.1140 O   0  0  0  0  0  0  0  0  0  0  0  0
  189.2000  172.9420  140.8780 C   0  0  2  0  0  3  0  0  0  0  0  0
  189.3310  174.4190  143.2990 C   0  0  0  0  0  3  0  0  0  0  0  0
  188.6830  174.9420  142.2550 C   0  0  0  0  0  0  0  0  0  0  0  0
  190.1330  170.9850  142.1990 N   0  0  0  0  0  1  0  0  0  0  0  0
  189.6860  172.3370  142.1740 C   0  0  0  0  0  0  0  0  0  0  0  0
  188.7300  172.8830  138.1640 C   0  0  0  0  0  1  0  0  0  0  0  0
  190.0830  173.2980  138.5050 N   0  0  0  0  0  0  0  0  0  0  0  0
  190.3940  173.2510  139.9630 C   0  0  2  0  0  3  0  0  0  0  0  0
  190.7150  172.1140  139.1080 C   0  0  0  0  0  2  0  0  0  0  0  0
  2  3  2  0  0  0  0
  3  1  1  0  0  0  0
  4  6  1  0  0  0  0
  5 13  1  0  0  0  0
  5  1  2  0  0  0  0
  6  2  1  0  0  0  0
  7  6  2  0  0  0  0
  7  5  1  0  0  0  0
  9 15  1  0  0  0  0
  9  8  2  0  0  0  0
 10  8  1  0  0  0  0
 11  9  1  0  0  0  0
 12 11  2  0  0  0  0
 12 13  1  0  0  0  0
 13 10  2  0  0  0  0
 14 15  1  0  0  0  0
 15 16  2  0  0  0  0
 17 18  1  0  0  0  0
 18 14  1  6  0  0  0
 19 17  1  0  0  0  0
 19 18  1  0  0  0  0
 20  7  1  0  0  0  0
 21 28  1  6  0  0  0
 21 22  1  0  0  0  0
 22 20  1  0  0  0  0
 23 21  1  0  0  0  0
 23 22  1  0  0  0  0
 24 27  1  0  0  0  0
 25 28  1  0  0  0  0
 26 25  1  1  0  0  0
 26 30  1  0  0  0  0
 28 27  2  0  0  0  0
 30 29  1  0  0  0  0
 30 24  2  0  0  0  0
 31 32  1  0  0  0  0
 32 34  1  0  0  0  0
 32 33  1  0  0  0  0
 33 34  1  6  0  0  0
 33 26  1  0  0  0  0
M  END
>  <MODEL>
2

>  <REMARK>
 VINA RESULT:      -7.4      1.369      2.209
  Name = 
  7 active torsions:
  status: ('A' for Active; 'I' for Inactive)
    1  A    between atoms: C_8  and  C_15
    2  A    between atoms: C_9  and  C_18
    3  A    between atoms: N_10  and  N_32
    4  A    between atoms: N_11  and  C_26
    5  A    between atoms: C_13  and  C_16
    6  A    between atoms: C_25  and  C_31
    7  A    between atoms: N_32  and  C_34
                            x       y       z     vdW  Elec       q    Type
                         _______ _______ _______ _____ _____    ______ ____

>  <TORSDO>
F 7

$$$$
=
 OpenBabel11042418413D

 34 39  0  0  1  0  0  0  0  0999 V2000
  193.2370  176.4800  146.4530 N   0  0  0  0  0  0  0  0  0  0  0  0
  195.0490  175.0370  146.0400 N   0  0  0  0  0  0  0  0  0  0  0  0
  194.5740  176.2470  146.4390 C   0  0  0  0  0  3  0  0  0  0  0  0
  194.7860  172.7480  145.1800 C   0  0  0  0  0  1  0  0  0  0  0  0
  192.3420  175.5270  146.0620 C   0  0  0  0  0  0  0  0  0  0  0  0
  194.2080  174.0510  145.6250 C   0  0  0  0  0  0  0  0  0  0  0  0
  192.8270  174.2820  145.5890 C   0  0  0  0  0  0  0  0  0  0  0  0
  188.9960  177.2690  145.8300 C   0  0  0  0  0  3  0  0  0  0  0  0
  188.1860  176.4480  146.6280 C   0  0  0  0  0  0  0  0  0  0  0  0
  190.3460  176.9610  145.6390 C   0  0  0  0  0  3  0  0  0  0  0  0
  188.7560  175.3350  147.2660 C   0  0  0  0  0  3  0  0  0  0  0  0
  190.1050  175.0260  147.0750 C   0  0  0  0  0  3  0  0  0  0  0  0
  190.9030  175.8190  146.2350 C   0  0  0  0  0  0  0  0  0  0  0  0
  186.0210  177.3880  145.7630 N   0  0  0  0  0  2  0  0  0  0  0  0
  186.7600  176.7620  146.8160 C   0  0  0  0  0  0  0  0  0  0  0  0
  186.1870  176.4680  147.8990 O   0  0  0  0  0  0  0  0  0  0  0  0
  184.5550  179.0660  146.4440 O   0  0  0  0  0  0  0  0  0  0  0  0
  184.6270  177.7600  145.9210 C   0  0  1  0  0  3  0  0  0  0  0  0
  184.3160  178.9280  145.0680 C   0  0  0  0  0  2  0  0  0  0  0  0
  191.9780  173.2860  145.0020 N   0  0  0  0  0  2  0  0  0  0  0  0
  190.0990  173.1230  143.6870 C   0  0  2  0  0  3  0  0  0  0  0  0
  191.5570  173.3400  143.6680 N   0  0  0  0  0  0  0  0  0  0  0  0
  190.9930  172.0140  143.3630 C   0  0  0  0  0  2  0  0  0  0  0  0
  189.4340  173.8310  140.0400 N   0  0  0  0  0  0  0  0  0  0  0  0
  188.2740  174.3720  142.4580 O   0  0  0  0  0  0  0  0  0  0  0  0
  187.8070  175.1250  141.3340 C   0  0  2  0  0  3  0  0  0  0  0  0
  190.0550  173.3930  141.2550 C   0  0  0  0  0  3  0  0  0  0  0  0
  189.4780  173.6520  142.4310 C   0  0  0  0  0  0  0  0  0  0  0  0
  187.7810  174.9590  138.8000 N   0  0  0  0  0  1  0  0  0  0  0  0
  188.3660  174.5780  140.0410 C   0  0  0  0  0  0  0  0  0  0  0  0
  185.9620  176.8170  142.4840 C   0  0  0  0  0  1  0  0  0  0  0  0
  187.2420  177.4570  142.2160 N   0  0  0  0  0  0  0  0  0  0  0  0
  188.2290  176.5910  141.5090 C   0  0  2  0  0  3  0  0  0  0  0  0
  187.3640  177.4860  140.7500 C   0  0  0  0  0  2  0  0  0  0  0  0
  2  3  2  0  0  0  0
  3  1  1  0  0  0  0
  4  6  1  0  0  0  0
  5 13  1  0  0  0  0
  5  1  2  0  0  0  0
  6  2  1  0  0  0  0
  7  6  2  0  0  0  0
  7  5  1  0  0  0  0
  8  9  1  0  0  0  0
  9 15  1  0  0  0  0
  9 11  2  0  0  0  0
 10  8  2  0  0  0  0
 10 13  1  0  0  0  0
 12 11  1  0  0  0  0
 13 12  2  0  0  0  0
 14 15  1  0  0  0  0
 15 16  2  0  0  0  0
 18 14  1  6  0  0  0
 18 17  1  0  0  0  0
 19 18  1  0  0  0  0
 19 17  1  0  0  0  0
 20  7  1  0  0  0  0
 21 28  1  6  0  0  0
 22 21  1  0  0  0  0
 22 20  1  0  0  0  0
 23 22  1  0  0  0  0
 23 21  1  0  0  0  0
 24 30  2  0  0  0  0
 24 27  1  0  0  0  0
 26 30  1  6  0  0  0
 26 33  1  0  0  0  0
 26 25  1  0  0  0  0
 27 28  2  0  0  0  0
 28 25  1  0  0  0  0
 29 30  1  0  0  0  0
 32 31  1  0  0  0  0
 33 34  1  6  0  0  0
 33 32  1  0  0  0  0
 34 32  1  0  0  0  0
M  END
>  <MODEL>
3

>  <REMARK>
 VINA RESULT:      -7.1      2.236      6.714
  Name = 
  7 active torsions:
  status: ('A' for Active; 'I' for Inactive)
    1  A    between atoms: C_8  and  C_15
    2  A    between atoms: C_9  and  C_18
    3  A    between atoms: N_10  and  N_32
    4  A    between atoms: N_11  and  C_26
    5  A    between atoms: C_13  and  C_16
    6  A    between atoms: C_25  and  C_31
    7  A    between atoms: N_32  and  C_34
                            x       y       z     vdW  Elec       q    Type
                         _______ _______ _______ _____ _____    ______ ____

>  <TORSDO>
F 7

$$$$
=
 OpenBabel11042418413D

 34 39  0  0  1  0  0  0  0  0999 V2000
  186.3180  178.7970  143.1780 N   0  0  0  0  0  0  0  0  0  0  0  0
  185.4070  179.6810  145.1590 N   0  0  0  0  0  0  0  0  0  0  0  0
  185.5740  179.7390  143.8110 C   0  0  0  0  0  3  0  0  0  0  0  0
  185.7930  178.7000  147.3800 C   0  0  0  0  0  1  0  0  0  0  0  0
  186.9230  177.7860  143.8650 C   0  0  0  0  0  0  0  0  0  0  0  0
  185.9950  178.7050  145.9010 C   0  0  0  0  0  0  0  0  0  0  0  0
  186.8040  177.7470  145.2760 C   0  0  0  0  0  0  0  0  0  0  0  0
  187.5760  174.5090  142.0990 C   0  0  0  0  0  3  0  0  0  0  0  0
  188.9050  174.6660  141.6790 C   0  0  0  0  0  0  0  0  0  0  0  0
  186.9300  175.5310  142.8010 C   0  0  0  0  0  3  0  0  0  0  0  0
  189.5930  175.8450  142.0060 C   0  0  0  0  0  3  0  0  0  0  0  0
  188.9480  176.8660  142.7080 C   0  0  0  0  0  3  0  0  0  0  0  0
  187.6020  176.7300  143.0830 C   0  0  0  0  0  0  0  0  0  0  0  0
  189.7680  172.3100  141.5180 N   0  0  0  0  0  2  0  0  0  0  0  0
  189.5800  173.5970  140.9240 C   0  0  0  0  0  0  0  0  0  0  0  0
  189.9820  173.8130  139.7480 O   0  0  0  0  0  0  0  0  0  0  0  0
  191.7810  171.1490  141.3410 O   0  0  0  0  0  0  0  0  0  0  0  0
  190.4720  171.2430  140.8300 C   0  0  1  0  0  3  0  0  0  0  0  0
  190.8600  170.1900  141.7940 C   0  0  0  0  0  2  0  0  0  0  0  0
  187.5370  176.8260  146.0960 N   0  0  0  0  0  2  0  0  0  0  0  0
  189.0980  175.1380  146.0320 C   0  0  2  0  0  3  0  0  0  0  0  0
  188.9100  176.5970  145.9390 N   0  0  0  0  0  0  0  0  0  0  0  0
  189.3680  175.9800  147.1950 C   0  0  0  0  0  2  0  0  0  0  0  0
  191.7250  173.1330  144.2090 N   0  0  0  0  0  0  0  0  0  0  0  0
  191.4500  175.6480  145.2500 O   0  0  0  0  0  0  0  0  0  0  0  0
  192.7760  175.2330  144.9060 C   0  0  2  0  0  3  0  0  0  0  0  0
  190.5220  173.5070  144.8910 C   0  0  0  0  0  3  0  0  0  0  0  0
  190.3900  174.7390  145.3880 C   0  0  0  0  0  0  0  0  0  0  0  0
  193.9150  173.5090  143.4310 N   0  0  0  0  0  1  0  0  0  0  0  0
  192.7570  173.9270  144.1470 C   0  0  0  0  0  0  0  0  0  0  0  0
  194.4750  177.3040  145.5470 C   0  0  0  0  0  1  0  0  0  0  0  0
  194.4380  176.2550  146.5580 N   0  0  0  0  0  0  0  0  0  0  0  0
  193.5960  175.0790  146.1940 C   0  0  2  0  0  3  0  0  0  0  0  0
  195.0270  175.0710  145.9140 C   0  0  0  0  0  2  0  0  0  0  0  0
  1  3  2  0  0  0  0
  1  5  1  0  0  0  0
  2  6  2  0  0  0  0
  3  2  1  0  0  0  0
  5  7  2  0  0  0  0
  6  4  1  0  0  0  0
  7  6  1  0  0  0  0
  7 20  1  0  0  0  0
  8 10  1  0  0  0  0
  9 11  1  0  0  0  0
  9  8  2  0  0  0  0
 10 13  2  0  0  0  0
 11 12  2  0  0  0  0
 12 13  1  0  0  0  0
 13  5  1  0  0  0  0
 15 14  1  0  0  0  0
 15  9  1  0  0  0  0
 16 15  2  0  0  0  0
 17 19  1  0  0  0  0
 18 17  1  0  0  0  0
 18 14  1  1  0  0  0
 18 19  1  0  0  0  0
 21 28  1  6  0  0  0
 21 23  1  0  0  0  0
 22 21  1  0  0  0  0
 22 20  1  0  0  0  0
 22 23  1  0  0  0  0
 24 27  1  0  0  0  0
 25 28  1  0  0  0  0
 26 30  1  1  0  0  0
 26 25  1  0  0  0  0
 26 33  1  0  0  0  0
 27 28  2  0  0  0  0
 29 30  1  0  0  0  0
 30 24  2  0  0  0  0
 31 32  1  0  0  0  0
 33 34  1  6  0  0  0
 33 32  1  0  0  0  0
 34 32  1  0  0  0  0
M  END
>  <MODEL>
4

>  <REMARK>
 VINA RESULT:      -7.0      1.806      4.804
  Name = 
  7 active torsions:
  status: ('A' for Active; 'I' for Inactive)
    1  A    between atoms: C_8  and  C_15
    2  A    between atoms: C_9  and  C_18
    3  A    between atoms: N_10  and  N_32
    4  A    between atoms: N_11  and  C_26
    5  A    between atoms: C_13  and  C_16
    6  A    between atoms: C_25  and  C_31
    7  A    between atoms: N_32  and  C_34
                            x       y       z     vdW  Elec       q    Type
                         _______ _______ _______ _____ _____    ______ ____

>  <TORSDO>
F 7

$$$$
=
 OpenBabel11042418413D

 34 39  0  0  1  0  0  0  0  0999 V2000
  186.2090  178.8930  143.2920 N   0  0  0  0  0  0  0  0  0  0  0  0
  185.2230  179.6760  145.2790 N   0  0  0  0  0  0  0  0  0  0  0  0
  185.4250  179.7910  143.9400 C   0  0  0  0  0  3  0  0  0  0  0  0
  185.5740  178.6170  147.4710 C   0  0  0  0  0  1  0  0  0  0  0  0
  186.8200  177.8690  143.9550 C   0  0  0  0  0  0  0  0  0  0  0  0
  185.8160  178.6850  145.9990 C   0  0  0  0  0  0  0  0  0  0  0  0
  186.6650  177.7720  145.3600 C   0  0  0  0  0  0  0  0  0  0  0  0
  187.6070  174.6760  142.0940 C   0  0  0  0  0  3  0  0  0  0  0  0
  188.9380  174.8870  141.7050 C   0  0  0  0  0  0  0  0  0  0  0  0
  186.9170  175.6530  142.8170 C   0  0  0  0  0  3  0  0  0  0  0  0
  189.5820  176.0750  142.0850 C   0  0  0  0  0  3  0  0  0  0  0  0
  188.8930  177.0520  142.8080 C   0  0  0  0  0  3  0  0  0  0  0  0
  187.5460  176.8620  143.1520 C   0  0  0  0  0  0  0  0  0  0  0  0
  191.0820  173.9370  140.8000 N   0  0  0  0  0  2  0  0  0  0  0  0
  189.6590  173.8660  140.9280 C   0  0  0  0  0  0  0  0  0  0  0  0
  189.0250  172.9210  140.3860 O   0  0  0  0  0  0  0  0  0  0  0  0
  191.9010  173.4450  138.6750 O   0  0  0  0  0  0  0  0  0  0  0  0
  191.8300  172.9810  140.0030 C   0  0  1  0  0  3  0  0  0  0  0  0
  193.0500  173.6200  139.4630 C   0  0  0  0  0  2  0  0  0  0  0  0
  187.3980  176.8370  146.1630 N   0  0  0  0  0  2  0  0  0  0  0  0
  188.9480  175.1430  146.0470 C   0  0  2  0  0  3  0  0  0  0  0  0
  188.7690  176.6050  145.9960 N   0  0  0  0  0  0  0  0  0  0  0  0
  189.2270  175.9490  147.2330 C   0  0  0  0  0  2  0  0  0  0  0  0
  191.5590  173.1750  144.1600 N   0  0  0  0  0  0  0  0  0  0  0  0
  191.3010  175.6620  145.2720 O   0  0  0  0  0  0  0  0  0  0  0  0
  192.6230  175.2490  144.9110 C   0  0  2  0  0  3  0  0  0  0  0  0
  190.3600  173.5360  144.8560 C   0  0  0  0  0  3  0  0  0  0  0  0
  190.2370  174.7540  145.3880 C   0  0  0  0  0  0  0  0  0  0  0  0
  193.7490  173.5600  143.3860 N   0  0  0  0  0  1  0  0  0  0  0  0
  192.5950  173.9640  144.1170 C   0  0  0  0  0  0  0  0  0  0  0  0
  194.5210  177.1670  145.4670 C   0  0  0  0  0  1  0  0  0  0  0  0
  194.4020  176.1560  146.5080 N   0  0  0  0  0  0  0  0  0  0  0  0
  193.4470  175.0540  146.1920 C   0  0  2  0  0  3  0  0  0  0  0  0
  194.8660  174.9030  145.8920 C   0  0  0  0  0  2  0  0  0  0  0  0
  1  3  2  0  0  0  0
  1  5  1  0  0  0  0
  2  6  2  0  0  0  0
  3  2  1  0  0  0  0
  5  7  2  0  0  0  0
  6  4  1  0  0  0  0
  7  6  1  0  0  0  0
  7 20  1  0  0  0  0
  8 10  1  0  0  0  0
  9 11  1  0  0  0  0
  9  8  2  0  0  0  0
 10 13  2  0  0  0  0
 11 12  2  0  0  0  0
 12 13  1  0  0  0  0
 13  5  1  0  0  0  0
 14 15  1  0  0  0  0
 15  9  1  0  0  0  0
 16 15  2  0  0  0  0
 17 19  1  0  0  0  0
 17 18  1  0  0  0  0
 18 14  1  1  0  0  0
 19 18  1  0  0  0  0
 21 28  1  6  0  0  0
 21 23  1  0  0  0  0
 22 21  1  0  0  0  0
 22 20  1  0  0  0  0
 22 23  1  0  0  0  0
 24 27  1  0  0  0  0
 25 28  1  0  0  0  0
 26 30  1  1  0  0  0
 26 25  1  0  0  0  0
 26 33  1  0  0  0  0
 27 28  2  0  0  0  0
 29 30  1  0  0  0  0
 30 24  2  0  0  0  0
 31 32  1  0  0  0  0
 33 34  1  6  0  0  0
 33 32  1  0  0  0  0
 34 32  1  0  0  0  0
M  END
>  <MODEL>
5

>  <REMARK>
 VINA RESULT:      -6.8      1.869      4.571
  Name = 
  7 active torsions:
  status: ('A' for Active; 'I' for Inactive)
    1  A    between atoms: C_8  and  C_15
    2  A    between atoms: C_9  and  C_18
    3  A    between atoms: N_10  and  N_32
    4  A    between atoms: N_11  and  C_26
    5  A    between atoms: C_13  and  C_16
    6  A    between atoms: C_25  and  C_31
    7  A    between atoms: N_32  and  C_34
                            x       y       z     vdW  Elec       q    Type
                         _______ _______ _______ _____ _____    ______ ____

>  <TORSDO>
F 7

$$$$
=
 OpenBabel11042418413D

 34 39  0  0  1  0  0  0  0  0999 V2000
  186.3220  178.8760  143.4620 N   0  0  0  0  0  0  0  0  0  0  0  0
  185.2200  179.5120  145.4410 N   0  0  0  0  0  0  0  0  0  0  0  0
  185.5490  179.7580  144.1450 C   0  0  0  0  0  3  0  0  0  0  0  0
  185.2930  178.1910  147.5140 C   0  0  0  0  0  1  0  0  0  0  0  0
  186.7950  177.7380  144.0480 C   0  0  0  0  0  0  0  0  0  0  0  0
  185.6710  178.4020  146.0850 C   0  0  0  0  0  0  0  0  0  0  0  0
  186.5060  177.4990  145.4150 C   0  0  0  0  0  0  0  0  0  0  0  0
  187.5310  174.6890  141.9410 C   0  0  0  0  0  3  0  0  0  0  0  0
  188.8910  174.8610  141.6460 C   0  0  0  0  0  0  0  0  0  0  0  0
  186.8490  175.6330  142.7140 C   0  0  0  0  0  3  0  0  0  0  0  0
  189.5710  175.9720  142.1700 C   0  0  0  0  0  3  0  0  0  0  0  0
  188.8900  176.9160  142.9440 C   0  0  0  0  0  3  0  0  0  0  0  0
  187.5160  176.7700  143.1950 C   0  0  0  0  0  0  0  0  0  0  0  0
  189.3980  173.8480  139.4020 N   0  0  0  0  0  2  0  0  0  0  0  0
  189.6060  173.8770  140.8170 C   0  0  0  0  0  0  0  0  0  0  0  0
  190.4120  173.0680  141.3520 O   0  0  0  0  0  0  0  0  0  0  0  0
  189.2090  171.7350  138.4390 O   0  0  0  0  0  0  0  0  0  0  0  0
  190.0440  172.8630  138.5520 C   0  0  1  0  0  3  0  0  0  0  0  0
  189.2190  172.6190  137.3480 C   0  0  0  0  0  2  0  0  0  0  0  0
  187.0950  176.4230  146.1600 N   0  0  0  0  0  2  0  0  0  0  0  0
  189.0640  175.2370  146.1280 C   0  0  2  0  0  3  0  0  0  0  0  0
  188.4130  176.4600  146.6310 N   0  0  0  0  0  0  0  0  0  0  0  0
  188.5690  175.2820  147.5020 C   0  0  0  0  0  2  0  0  0  0  0  0
  192.5570  176.2740  147.1120 N   0  0  0  0  0  0  0  0  0  0  0  0
  191.3600  174.7410  145.1870 O   0  0  0  0  0  0  0  0  0  0  0  0
  192.7320  175.0910  144.9740 C   0  0  2  0  0  3  0  0  0  0  0  0
  191.1300  176.1620  147.0590 C   0  0  0  0  0  3  0  0  0  0  0  0
  190.5530  175.4050  146.1230 C   0  0  0  0  0  0  0  0  0  0  0  0
  194.7380  175.8660  146.3230 N   0  0  0  0  0  1  0  0  0  0  0  0
  193.3240  175.7430  146.2010 C   0  0  0  0  0  0  0  0  0  0  0  0
  193.4830  173.9980  142.5600 C   0  0  0  0  0  1  0  0  0  0  0  0
  193.1380  175.4110  142.4700 N   0  0  0  0  0  0  0  0  0  0  0  0
  192.8170  176.0510  143.7780 C   0  0  2  0  0  3  0  0  0  0  0  0
  194.1730  176.1140  143.2450 C   0  0  0  0  0  2  0  0  0  0  0  0
  1  5  2  0  0  0  0
  1  3  1  0  0  0  0
  2  6  1  0  0  0  0
  3  2  2  0  0  0  0
  5  7  1  0  0  0  0
  6  4  1  0  0  0  0
  7  6  2  0  0  0  0
  7 20  1  0  0  0  0
  8 10  1  0  0  0  0
  9  8  2  0  0  0  0
  9 11  1  0  0  0  0
 10 13  2  0  0  0  0
 11 12  2  0  0  0  0
 12 13  1  0  0  0  0
 13  5  1  0  0  0  0
 14 15  1  0  0  0  0
 15 16  2  0  0  0  0
 15  9  1  0  0  0  0
 17 18  1  0  0  0  0
 18 14  1  1  0  0  0
 19 17  1  0  0  0  0
 19 18  1  0  0  0  0
 20 22  1  0  0  0  0
 21 28  1  1  0  0  0
 21 22  1  0  0  0  0
 21 23  1  0  0  0  0
 22 23  1  0  0  0  0
 25 28  1  0  0  0  0
 26 25  1  1  0  0  0
 26 30  1  0  0  0  0
 27 24  1  0  0  0  0
 28 27  2  0  0  0  0
 30 29  1  0  0  0  0
 30 24  2  0  0  0  0
 32 31  1  0  0  0  0
 32 34  1  0  0  0  0
 32 33  1  0  0  0  0
 33 34  1  1  0  0  0
 33 26  1  0  0  0  0
M  END
>  <MODEL>
6

>  <REMARK>
 VINA RESULT:      -6.8      1.919      5.279
  Name = 
  7 active torsions:
  status: ('A' for Active; 'I' for Inactive)
    1  A    between atoms: C_8  and  C_15
    2  A    between atoms: C_9  and  C_18
    3  A    between atoms: N_10  and  N_32
    4  A    between atoms: N_11  and  C_26
    5  A    between atoms: C_13  and  C_16
    6  A    between atoms: C_25  and  C_31
    7  A    between atoms: N_32  and  C_34
                            x       y       z     vdW  Elec       q    Type
                         _______ _______ _______ _____ _____    ______ ____

>  <TORSDO>
F 7

$$$$
=
 OpenBabel11042418413D

 34 39  0  0  1  0  0  0  0  0999 V2000
  192.9220  176.8100  146.3830 N   0  0  0  0  0  0  0  0  0  0  0  0
  194.6790  175.2580  146.1900 N   0  0  0  0  0  0  0  0  0  0  0  0
  194.2360  176.5010  146.5170 C   0  0  0  0  0  3  0  0  0  0  0  0
  194.3760  172.9690  145.3430 C   0  0  0  0  0  1  0  0  0  0  0  0
  192.0200  175.9020  145.9110 C   0  0  0  0  0  0  0  0  0  0  0  0
  193.8310  174.3120  145.7030 C   0  0  0  0  0  0  0  0  0  0  0  0
  192.4780  174.6210  145.5130 C   0  0  0  0  0  0  0  0  0  0  0  0
  188.3670  176.0320  146.8720 C   0  0  0  0  0  3  0  0  0  0  0  0
  187.8450  176.9060  145.9080 C   0  0  0  0  0  0  0  0  0  0  0  0
  189.7290  175.7160  146.8770 C   0  0  0  0  0  3  0  0  0  0  0  0
  188.6970  177.4290  144.9220 C   0  0  0  0  0  3  0  0  0  0  0  0
  190.0580  177.1120  144.9260 C   0  0  0  0  0  3  0  0  0  0  0  0
  190.5900  176.2790  145.9230 C   0  0  0  0  0  0  0  0  0  0  0  0
  185.8800  178.1000  144.8910 N   0  0  0  0  0  2  0  0  0  0  0  0
  186.4140  177.2540  145.9130 C   0  0  0  0  0  0  0  0  0  0  0  0
  185.6570  176.7960  146.8100 O   0  0  0  0  0  0  0  0  0  0  0  0
  184.3810  179.7730  144.2700 O   0  0  0  0  0  0  0  0  0  0  0  0
  184.4870  178.5100  144.8840 C   0  0  1  0  0  3  0  0  0  0  0  0
  184.0140  178.6640  143.4910 C   0  0  0  0  0  2  0  0  0  0  0  0
  191.6400  173.6630  144.8530 N   0  0  0  0  0  2  0  0  0  0  0  0
  190.1680  172.9780  143.2250 C   0  0  2  0  0  3  0  0  0  0  0  0
  191.4630  173.6410  143.4640 N   0  0  0  0  0  0  0  0  0  0  0  0
  191.4080  172.2190  143.0810 C   0  0  0  0  0  2  0  0  0  0  0  0
  187.9420  174.3150  140.4850 N   0  0  0  0  0  0  0  0  0  0  0  0
  190.4110  173.1590  140.7130 O   0  0  0  0  0  0  0  0  0  0  0  0
  189.8470  173.2260  139.3990 C   0  0  2  0  0  3  0  0  0  0  0  0
  188.4300  173.8960  141.7660 C   0  0  0  0  0  3  0  0  0  0  0  0
  189.6400  173.3410  141.8710 C   0  0  0  0  0  0  0  0  0  0  0  0
  188.0730  174.5400  138.1460 N   0  0  0  0  0  1  0  0  0  0  0  0
  188.5980  174.0750  139.3850 C   0  0  0  0  0  0  0  0  0  0  0  0
  191.7900  171.9240  137.9430 C   0  0  0  0  0  1  0  0  0  0  0  0
  190.6250  171.0940  138.2210 N   0  0  0  0  0  0  0  0  0  0  0  0
  189.5190  171.8020  138.9280 C   0  0  2  0  0  3  0  0  0  0  0  0
  189.5190  171.7110  137.4730 C   0  0  0  0  0  2  0  0  0  0  0  0
  1  3  1  0  0  0  0
  2  3  2  0  0  0  0
  4  6  1  0  0  0  0
  5 13  1  0  0  0  0
  5  1  2  0  0  0  0
  6  2  1  0  0  0  0
  7  6  2  0  0  0  0
  7  5  1  0  0  0  0
  8 10  1  0  0  0  0
  9 15  1  0  0  0  0
  9  8  2  0  0  0  0
 11 12  2  0  0  0  0
 11  9  1  0  0  0  0
 12 13  1  0  0  0  0
 13 10  2  0  0  0  0
 14 15  1  0  0  0  0
 15 16  2  0  0  0  0
 17 18  1  0  0  0  0
 18 14  1  6  0  0  0
 19 17  1  0  0  0  0
 19 18  1  0  0  0  0
 20  7  1  0  0  0  0
 21 28  1  6  0  0  0
 21 22  1  0  0  0  0
 22 20  1  0  0  0  0
 23 21  1  0  0  0  0
 23 22  1  0  0  0  0
 24 27  1  0  0  0  0
 25 28  1  0  0  0  0
 26 30  1  1  0  0  0
 26 25  1  0  0  0  0
 27 28  2  0  0  0  0
 29 30  1  0  0  0  0
 30 24  2  0  0  0  0
 31 32  1  0  0  0  0
 32 33  1  0  0  0  0
 33 34  1  6  0  0  0
 33 26  1  0  0  0  0
 34 32  1  0  0  0  0
M  END
>  <MODEL>
7

>  <REMARK>
 VINA RESULT:      -6.6      2.420      6.467
  Name = 
  7 active torsions:
  status: ('A' for Active; 'I' for Inactive)
    1  A    between atoms: C_8  and  C_15
    2  A    between atoms: C_9  and  C_18
    3  A    between atoms: N_10  and  N_32
    4  A    between atoms: N_11  and  C_26
    5  A    between atoms: C_13  and  C_16
    6  A    between atoms: C_25  and  C_31
    7  A    between atoms: N_32  and  C_34
                            x       y       z     vdW  Elec       q    Type
                         _______ _______ _______ _____ _____    ______ ____

>  <TORSDO>
F 7

$$$$
=
 OpenBabel11042418413D

 34 39  0  0  1  0  0  0  0  0999 V2000
  187.3310  176.8770  146.9400 N   0  0  0  0  0  0  0  0  0  0  0  0
  185.1720  177.6250  146.3790 N   0  0  0  0  0  0  0  0  0  0  0  0
  186.0670  177.2010  147.3110 C   0  0  0  0  0  3  0  0  0  0  0  0
  184.4820  178.1640  144.0810 C   0  0  0  0  0  1  0  0  0  0  0  0
  187.7350  176.9540  145.6390 C   0  0  0  0  0  0  0  0  0  0  0  0
  185.5100  177.7100  145.0640 C   0  0  0  0  0  0  0  0  0  0  0  0
  186.7960  177.3390  144.6500 C   0  0  0  0  0  0  0  0  0  0  0  0
  191.1330  175.3020  145.5420 C   0  0  0  0  0  3  0  0  0  0  0  0
  191.9050  176.2670  144.8790 C   0  0  0  0  0  0  0  0  0  0  0  0
  189.7730  175.5240  145.7780 C   0  0  0  0  0  3  0  0  0  0  0  0
  191.3060  177.4760  144.4900 C   0  0  0  0  0  3  0  0  0  0  0  0
  189.9480  177.6980  144.7270 C   0  0  0  0  0  3  0  0  0  0  0  0
  189.1630  176.7110  145.3440 C   0  0  0  0  0  0  0  0  0  0  0  0
  194.1420  175.3660  145.5910 N   0  0  0  0  0  2  0  0  0  0  0  0
  193.3330  176.0260  144.6140 C   0  0  0  0  0  0  0  0  0  0  0  0
  193.8410  176.3900  143.5190 O   0  0  0  0  0  0  0  0  0  0  0  0
  196.0260  174.2180  146.3410 O   0  0  0  0  0  0  0  0  0  0  0  0
  195.5640  175.1520  145.3930 C   0  0  1  0  0  3  0  0  0  0  0  0
  195.8170  173.7390  145.0380 C   0  0  0  0  0  2  0  0  0  0  0  0
  187.0780  177.2870  143.2450 N   0  0  0  0  0  2  0  0  0  0  0  0
  188.5200  176.1870  141.8320 C   0  0  2  0  0  3  0  0  0  0  0  0
  187.2350  176.0830  142.5470 N   0  0  0  0  0  0  0  0  0  0  0  0
  187.2700  176.4400  141.1180 C   0  0  0  0  0  2  0  0  0  0  0  0
  190.1150  172.7770  142.1090 N   0  0  0  0  0  0  0  0  0  0  0  0
  188.7970  174.2550  140.2210 O   0  0  0  0  0  0  0  0  0  0  0  0
  189.4990  173.0970  139.7600 C   0  0  2  0  0  3  0  0  0  0  0  0
  189.6830  174.1110  142.4050 C   0  0  0  0  0  3  0  0  0  0  0  0
  189.0320  174.8230  141.4820 C   0  0  0  0  0  0  0  0  0  0  0  0
  190.4150  170.9200  140.6930 N   0  0  0  0  0  1  0  0  0  0  0  0
  189.9910  172.2610  140.9180 C   0  0  0  0  0  0  0  0  0  0  0  0
  189.0800  173.2210  137.0400 C   0  0  0  0  0  1  0  0  0  0  0  0
  190.3990  173.6910  137.4420 N   0  0  0  0  0  0  0  0  0  0  0  0
  190.6870  173.5480  138.8980 C   0  0  2  0  0  3  0  0  0  0  0  0
  191.0930  172.5030  137.9650 C   0  0  0  0  0  2  0  0  0  0  0  0
  1  3  1  0  0  0  0
  2  3  2  0  0  0  0
  4  6  1  0  0  0  0
  5  1  2  0  0  0  0
  6  2  1  0  0  0  0
  7  6  2  0  0  0  0
  7  5  1  0  0  0  0
  8 10  1  0  0  0  0
  9  8  2  0  0  0  0
 11 12  2  0  0  0  0
 11  9  1  0  0  0  0
 12 13  1  0  0  0  0
 13  5  1  0  0  0  0
 13 10  2  0  0  0  0
 15  9  1  0  0  0  0
 15 14  1  0  0  0  0
 16 15  2  0  0  0  0
 18 14  1  1  0  0  0
 18 17  1  0  0  0  0
 19 18  1  0  0  0  0
 19 17  1  0  0  0  0
 20  7  1  0  0  0  0
 21 28  1  6  0  0  0
 21 22  1  0  0  0  0
 22 20  1  0  0  0  0
 23 21  1  0  0  0  0
 23 22  1  0  0  0  0
 24 27  1  0  0  0  0
 25 28  1  0  0  0  0
 26 25  1  1  0  0  0
 26 30  1  0  0  0  0
 28 27  2  0  0  0  0
 29 30  1  0  0  0  0
 30 24  2  0  0  0  0
 31 32  1  0  0  0  0
 32 34  1  0  0  0  0
 32 33  1  0  0  0  0
 33 34  1  6  0  0  0
 33 26  1  0  0  0  0
M  END
>  <MODEL>
8

>  <REMARK>
 VINA RESULT:      -6.5      1.636      2.606
  Name = 
  7 active torsions:
  status: ('A' for Active; 'I' for Inactive)
    1  A    between atoms: C_8  and  C_15
    2  A    between atoms: C_9  and  C_18
    3  A    between atoms: N_10  and  N_32
    4  A    between atoms: N_11  and  C_26
    5  A    between atoms: C_13  and  C_16
    6  A    between atoms: C_25  and  C_31
    7  A    between atoms: N_32  and  C_34
                            x       y       z     vdW  Elec       q    Type
                         _______ _______ _______ _____ _____    ______ ____

>  <TORSDO>
F 7

$$$$
=
 OpenBabel11042418413D

 34 39  0  0  1  0  0  0  0  0999 V2000
  186.3100  179.1350  144.9180 N   0  0  0  0  0  0  0  0  0  0  0  0
  184.6830  179.2220  143.2210 N   0  0  0  0  0  0  0  0  0  0  0  0
  185.2400  179.7440  144.3460 C   0  0  0  0  0  3  0  0  0  0  0  0
  184.4970  177.5400  141.4370 C   0  0  0  0  0  1  0  0  0  0  0  0
  186.8420  177.9910  144.3980 C   0  0  0  0  0  0  0  0  0  0  0  0
  185.1600  178.0780  142.6620 C   0  0  0  0  0  0  0  0  0  0  0  0
  186.2350  177.4060  143.2590 C   0  0  0  0  0  0  0  0  0  0  0  0
  190.5130  177.4010  145.0750 C   0  0  0  0  0  3  0  0  0  0  0  0
  190.4690  176.4240  146.0800 C   0  0  0  0  0  0  0  0  0  0  0  0
  189.3310  177.9170  144.5370 C   0  0  0  0  0  3  0  0  0  0  0  0
  189.2240  175.9400  146.5130 C   0  0  0  0  0  3  0  0  0  0  0  0
  188.0420  176.4550  145.9750 C   0  0  0  0  0  3  0  0  0  0  0  0
  188.0850  177.4700  145.0060 C   0  0  0  0  0  0  0  0  0  0  0  0
  192.9560  176.0700  145.9750 N   0  0  0  0  0  2  0  0  0  0  0  0
  191.7130  175.8920  146.6600 C   0  0  0  0  0  0  0  0  0  0  0  0
  191.6870  175.2920  147.7690 O   0  0  0  0  0  0  0  0  0  0  0  0
  194.5130  174.3500  145.7680 O   0  0  0  0  0  0  0  0  0  0  0  0
  194.1990  175.5210  146.4840 C   0  0  1  0  0  3  0  0  0  0  0  0
  195.2220  175.5100  145.4150 C   0  0  0  0  0  2  0  0  0  0  0  0
  186.6170  176.1240  142.7430 N   0  0  0  0  0  2  0  0  0  0  0  0
  187.8180  174.4940  141.6540 C   0  0  2  0  0  3  0  0  0  0  0  0
  187.7230  175.9430  141.9030 N   0  0  0  0  0  0  0  0  0  0  0  0
  188.6790  175.1150  142.6580 C   0  0  0  0  0  2  0  0  0  0  0  0
  188.7730  174.1770  138.0160 N   0  0  0  0  0  0  0  0  0  0  0  0
  189.9720  173.9100  140.4610 O   0  0  0  0  0  0  0  0  0  0  0  0
  190.6790  173.3830  139.3330 C   0  0  2  0  0  3  0  0  0  0  0  0
  188.0140  174.3540  139.2180 C   0  0  0  0  0  3  0  0  0  0  0  0
  188.6070  174.2310  140.4080 C   0  0  0  0  0  0  0  0  0  0  0  0
  190.7270  173.6570  136.8100 N   0  0  0  0  0  1  0  0  0  0  0  0
  190.0170  173.7890  138.0370 C   0  0  0  0  0  0  0  0  0  0  0  0
  192.8930  172.2840  140.5490 C   0  0  0  0  0  1  0  0  0  0  0  0
  191.8850  171.2970  140.1870 N   0  0  0  0  0  0  0  0  0  0  0  0
  190.7170  171.8520  139.4440 C   0  0  2  0  0  3  0  0  0  0  0  0
  191.8520  171.2950  138.7160 C   0  0  0  0  0  2  0  0  0  0  0  0
  2  3  1  0  0  0  0
  3  1  2  0  0  0  0
  4  6  1  0  0  0  0
  5  1  1  0  0  0  0
  5 13  1  0  0  0  0
  6  2  2  0  0  0  0
  6  7  1  0  0  0  0
  7  5  2  0  0  0  0
  8  9  1  0  0  0  0
  9 11  2  0  0  0  0
  9 15  1  0  0  0  0
 10 13  1  0  0  0  0
 10  8  2  0  0  0  0
 12 11  1  0  0  0  0
 13 12  2  0  0  0  0
 14 15  1  0  0  0  0
 15 16  2  0  0  0  0
 17 18  1  0  0  0  0
 18 14  1  6  0  0  0
 19 17  1  0  0  0  0
 19 18  1  0  0  0  0
 20  7  1  0  0  0  0
 21 28  1  6  0  0  0
 21 22  1  0  0  0  0
 21 23  1  0  0  0  0
 22 23  1  0  0  0  0
 22 20  1  0  0  0  0
 24 30  2  0  0  0  0
 24 27  1  0  0  0  0
 26 30  1  6  0  0  0
 26 33  1  0  0  0  0
 26 25  1  0  0  0  0
 27 28  2  0  0  0  0
 28 25  1  0  0  0  0
 29 30  1  0  0  0  0
 32 31  1  0  0  0  0
 33 34  1  6  0  0  0
 33 32  1  0  0  0  0
 34 32  1  0  0  0  0
M  END
>  <MODEL>
9

>  <REMARK>
 VINA RESULT:      -6.3      2.004      2.730
  Name = 
  7 active torsions:
  status: ('A' for Active; 'I' for Inactive)
    1  A    between atoms: C_8  and  C_15
    2  A    between atoms: C_9  and  C_18
    3  A    between atoms: N_10  and  N_32
    4  A    between atoms: N_11  and  C_26
    5  A    between atoms: C_13  and  C_16
    6  A    between atoms: C_25  and  C_31
    7  A    between atoms: N_32  and  C_34
                            x       y       z     vdW  Elec       q    Type
                         _______ _______ _______ _____ _____    ______ ____

>  <TORSDO>
F 7

$$$$
