=
 OpenBabel11042416283D

 38 41  0  0  1  0  0  0  0  0999 V2000
  196.7520  176.5100  142.4630 C   0  0  0  0  0  2  0  0  0  0  0  0
  193.1700  175.7100  144.6380 N   0  0  0  0  0  0  0  0  0  0  0  0
  193.5450  176.3530  145.7020 C   0  0  0  0  0  0  0  0  0  0  0  0
  196.0300  174.0950  142.6740 C   0  0  0  0  0  3  0  0  0  0  0  0
  195.2730  176.5130  144.3450 C   0  0  0  0  0  0  0  0  0  0  0  0
  196.4100  176.8600  143.8340 N   0  0  0  0  0  0  0  0  0  0  0  0
  196.9230  175.0280  142.3050 C   0  0  0  0  0  3  0  0  0  0  0  0
  194.8620  176.8880  145.6470 N   0  0  0  0  0  2  0  0  0  0  0  0
  194.6940  174.2910  143.3660 C   0  0  1  0  0  3  0  0  0  0  0  0
  194.2270  175.7290  143.6350 C   0  0  1  0  0  3  0  0  0  0  0  0
  189.3870  174.1730  142.2360 C   0  0  0  0  0  1  0  0  0  0  0  0
  190.5960  173.6330  142.1430 C   0  0  0  0  0  0  0  0  0  0  0  0
  191.6430  174.4300  141.5710 N   0  0  0  0  0  0  0  0  0  0  0  0
  193.2030  172.4030  143.1960 N   0  0  0  0  0  0  0  0  0  0  0  0
  193.0160  173.9850  141.3630 C   0  0  2  0  0  3  0  0  0  0  0  0
  190.8350  172.2760  142.7000 C   0  0  0  0  0  0  0  0  0  0  0  0
  192.1650  171.5970  142.5980 C   0  0  0  0  0  2  0  0  0  0  0  0
  189.8970  171.6560  143.2680 O   0  0  0  0  0  0  0  0  0  0  0  0
  193.6260  173.4990  142.6600 C   0  0  0  0  0  0  0  0  0  0  0  0
  193.7420  174.9000  139.2550 O   0  0  0  0  0  1  0  0  0  0  0  0
  193.8280  175.0570  140.6400 C   0  0  0  0  0  2  0  0  0  0  0  0
  192.7100  176.4350  146.9400 C   0  0  0  0  0  2  0  0  0  0  0  0
  191.2530  176.0910  146.6690 C   0  0  0  0  0  2  0  0  0  0  0  0
  190.4240  177.3620  146.6090 C   0  0  0  0  0  2  0  0  0  0  0  0
  188.3470  177.1440  145.1750 C   0  0  0  0  0  0  0  0  0  0  0  0
  188.4550  177.6700  142.8040 C   0  0  0  0  0  0  0  0  0  0  0  0
  189.7170  177.4580  145.2970 C   0  0  0  0  0  0  0  0  0  0  0  0
  190.4430  177.8550  144.1690 C   0  0  0  0  0  3  0  0  0  0  0  0
  187.7240  177.2670  143.9230 C   0  0  0  0  0  3  0  0  0  0  0  0
  187.7830  177.7940  141.4850 C   0  0  0  0  0  1  0  0  0  0  0  0
  189.8150  177.9620  142.9260 C   0  0  0  0  0  3  0  0  0  0  0  0
  187.9570  175.5250  146.9390 O   0  0  0  0  0  1  0  0  0  0  0  0
  187.5360  176.7400  146.3840 C   0  0  2  0  0  3  0  0  0  0  0  0
  186.1440  176.7670  146.1570 O   0  0  0  0  0  0  0  0  0  0  0  0
  185.5410  177.5950  147.1190 C   0  0  0  0  0  2  0  0  0  0  0  0
  185.4160  179.0110  146.5780 C   0  0  0  0  0  2  0  0  0  0  0  0
  185.4110  179.8620  144.2280 C   0  0  0  0  0  1  0  0  0  0  0  0
  184.6650  179.0320  145.2550 C   0  0  0  0  0  2  0  0  0  0  0  0
  1  6  1  0  0  0  0
  2  3  2  0  0  0  0
  3 22  1  0  0  0  0
  4  9  1  0  0  0  0
  5  8  1  0  0  0  0
  6  5  2  0  0  0  0
  7  1  1  0  0  0  0
  7  4  2  0  0  0  0
  8  3  1  0  0  0  0
  9 19  1  6  0  0  0
  9 10  1  0  0  0  0
 10  5  1  1  0  0  0
 10  2  1  0  0  0  0
 12 11  1  0  0  0  0
 12 16  1  0  0  0  0
 13 12  2  0  0  0  0
 15 21  1  1  0  0  0
 15 13  1  0  0  0  0
 15 19  1  0  0  0  0
 16 18  2  0  0  0  0
 17 16  1  0  0  0  0
 17 14  1  0  0  0  0
 19 14  2  0  0  0  0
 20 21  1  0  0  0  0
 23 22  1  0  0  0  0
 24 23  1  0  0  0  0
 25 27  1  0  0  0  0
 25 33  1  0  0  0  0
 26 31  2  0  0  0  0
 26 29  1  0  0  0  0
 27 24  1  0  0  0  0
 28 27  2  0  0  0  0
 29 25  2  0  0  0  0
 30 26  1  0  0  0  0
 31 28  1  0  0  0  0
 33 32  1  6  0  0  0
 34 33  1  0  0  0  0
 34 35  1  0  0  0  0
 36 35  1  0  0  0  0
 37 38  1  0  0  0  0
 38 36  1  0  0  0  0
M  END
>  <MODEL>
1

>  <REMARK>
 VINA RESULT:      -7.3      0.000      0.000
  Name = 
  11 active torsions:
  status: ('A' for Active; 'I' for Inactive)
    1  A    between atoms: C_6  and  C_17
    2  A    between atoms: C_7  and  C_28
    3  A    between atoms: C_13  and  C_14
    4  A    between atoms: C_13  and  C_26
    5  A    between atoms: C_15  and  CA_22
    6  A    between atoms: C_17  and  O_18
    7  A    between atoms: O_18  and  C_26
    8  A    between atoms: C_20  and  C_30
    9  A    between atoms: C_20  and  C_32
   10  A    between atoms: C_27  and  C_38
   11  A    between atoms: C_28  and  C_30
                            x       y       z     vdW  Elec       q    Type
                         _______ _______ _______ _____ _____    ______ ____

>  <TORSDO>
F 11

$$$$
=
 OpenBabel11042416283D

 38 41  0  0  1  0  0  0  0  0999 V2000
  189.6940  172.2460  141.9640 C   0  0  0  0  0  2  0  0  0  0  0  0
  191.9900  174.2940  144.9200 N   0  0  0  0  0  0  0  0  0  0  0  0
  191.0020  174.4200  145.7530 C   0  0  0  0  0  0  0  0  0  0  0  0
  190.9610  174.3100  141.2340 C   0  0  0  0  0  3  0  0  0  0  0  0
  190.1010  173.4250  144.0070 C   0  0  0  0  0  0  0  0  0  0  0  0
  189.2640  172.8100  143.2360 N   0  0  0  0  0  0  0  0  0  0  0  0
  190.0830  173.3230  140.9930 C   0  0  0  0  0  3  0  0  0  0  0  0
  189.7530  173.9290  145.2830 N   0  0  0  0  0  2  0  0  0  0  0  0
  191.7160  174.6090  142.5160 C   0  0  1  0  0  3  0  0  0  0  0  0
  191.5400  173.6420  143.6960 C   0  0  1  0  0  3  0  0  0  0  0  0
  196.6810  174.5200  144.7050 C   0  0  0  0  0  1  0  0  0  0  0  0
  195.8870  174.7230  143.6610 C   0  0  0  0  0  0  0  0  0  0  0  0
  195.0450  173.6400  143.2400 N   0  0  0  0  0  0  0  0  0  0  0  0
  193.6050  176.0470  142.0930 N   0  0  0  0  0  0  0  0  0  0  0  0
  194.1410  173.6780  142.0970 C   0  0  2  0  0  3  0  0  0  0  0  0
  195.8400  176.0670  143.0300 C   0  0  0  0  0  0  0  0  0  0  0  0
  194.9920  176.3530  141.8290 C   0  0  0  0  0  2  0  0  0  0  0  0
  196.5380  177.0060  143.4970 O   0  0  0  0  0  0  0  0  0  0  0  0
  193.1730  174.8360  142.2150 C   0  0  0  0  0  0  0  0  0  0  0  0
  194.0350  171.3550  142.7310 O   0  0  0  0  0  1  0  0  0  0  0  0
  193.4810  172.3180  141.8840 C   0  0  0  0  0  2  0  0  0  0  0  0
  191.1300  175.1290  147.0650 C   0  0  0  0  0  2  0  0  0  0  0  0
  191.5060  176.5920  146.8880 C   0  0  0  0  0  2  0  0  0  0  0  0
  190.2530  177.4510  146.8820 C   0  0  0  0  0  2  0  0  0  0  0  0
  188.2930  177.2590  145.2890 C   0  0  0  0  0  0  0  0  0  0  0  0
  188.6320  177.6180  142.9090 C   0  0  0  0  0  0  0  0  0  0  0  0
  189.6660  177.5000  145.5100 C   0  0  0  0  0  0  0  0  0  0  0  0
  190.5070  177.7780  144.4280 C   0  0  0  0  0  3  0  0  0  0  0  0
  187.7860  177.3350  143.9830 C   0  0  0  0  0  3  0  0  0  0  0  0
  188.0810  177.6930  141.5310 C   0  0  0  0  0  1  0  0  0  0  0  0
  189.9930  177.8380  143.1300 C   0  0  0  0  0  3  0  0  0  0  0  0
  187.6390  175.7750  147.0930 O   0  0  0  0  0  1  0  0  0  0  0  0
  187.3610  176.9850  146.4450 C   0  0  2  0  0  3  0  0  0  0  0  0
  185.9970  177.1040  146.1030 O   0  0  0  0  0  0  0  0  0  0  0  0
  185.4820  178.2750  146.6830 C   0  0  0  0  0  2  0  0  0  0  0  0
  184.1960  178.6790  145.9800 C   0  0  0  0  0  2  0  0  0  0  0  0
  185.3620  179.9560  144.1760 C   0  0  0  0  0  1  0  0  0  0  0  0
  184.4070  178.8170  144.4800 C   0  0  0  0  0  2  0  0  0  0  0  0
  1  6  1  0  0  0  0
  2  3  2  0  0  0  0
  3 22  1  0  0  0  0
  4  9  1  0  0  0  0
  5  8  1  0  0  0  0
  6  5  2  0  0  0  0
  7  4  2  0  0  0  0
  7  1  1  0  0  0  0
  8  3  1  0  0  0  0
  9 19  1  6  0  0  0
  9 10  1  0  0  0  0
 10  5  1  1  0  0  0
 10  2  1  0  0  0  0
 12 11  1  0  0  0  0
 13 12  2  0  0  0  0
 14 19  2  0  0  0  0
 15 21  1  1  0  0  0
 15 19  1  0  0  0  0
 15 13  1  0  0  0  0
 16 18  2  0  0  0  0
 16 12  1  0  0  0  0
 17 14  1  0  0  0  0
 17 16  1  0  0  0  0
 21 20  1  0  0  0  0
 23 22  1  0  0  0  0
 24 23  1  0  0  0  0
 25 27  1  0  0  0  0
 25 33  1  0  0  0  0
 26 31  2  0  0  0  0
 26 29  1  0  0  0  0
 27 24  1  0  0  0  0
 28 27  2  0  0  0  0
 29 25  2  0  0  0  0
 30 26  1  0  0  0  0
 31 28  1  0  0  0  0
 33 32  1  6  0  0  0
 34 33  1  0  0  0  0
 34 35  1  0  0  0  0
 36 35  1  0  0  0  0
 37 38  1  0  0  0  0
 38 36  1  0  0  0  0
M  END
>  <MODEL>
2

>  <REMARK>
 VINA RESULT:      -7.3      1.826      4.080
  Name = 
  11 active torsions:
  status: ('A' for Active; 'I' for Inactive)
    1  A    between atoms: C_6  and  C_17
    2  A    between atoms: C_7  and  C_28
    3  A    between atoms: C_13  and  C_14
    4  A    between atoms: C_13  and  C_26
    5  A    between atoms: C_15  and  CA_22
    6  A    between atoms: C_17  and  O_18
    7  A    between atoms: O_18  and  C_26
    8  A    between atoms: C_20  and  C_30
    9  A    between atoms: C_20  and  C_32
   10  A    between atoms: C_27  and  C_38
   11  A    between atoms: C_28  and  C_30
                            x       y       z     vdW  Elec       q    Type
                         _______ _______ _______ _____ _____    ______ ____

>  <TORSDO>
F 11

$$$$
=
 OpenBabel11042416283D

 38 41  0  0  1  0  0  0  0  0999 V2000
  191.0460  170.3420  141.1830 C   0  0  0  0  0  2  0  0  0  0  0  0
  190.1020  173.8890  143.3580 N   0  0  0  0  0  0  0  0  0  0  0  0
  189.0290  174.1500  142.6750 C   0  0  0  0  0  0  0  0  0  0  0  0
  192.8460  172.1090  141.3700 C   0  0  0  0  0  3  0  0  0  0  0  0
  189.8400  172.3380  141.7200 C   0  0  0  0  0  0  0  0  0  0  0  0
  189.9630  171.2920  140.9700 N   0  0  0  0  0  0  0  0  0  0  0  0
  192.3790  170.9540  140.8680 C   0  0  0  0  0  3  0  0  0  0  0  0
  188.7670  173.2550  141.6020 N   0  0  0  0  0  2  0  0  0  0  0  0
  192.1510  173.0790  142.3070 C   0  0  1  0  0  3  0  0  0  0  0  0
  190.7590  172.6980  142.8330 C   0  0  1  0  0  3  0  0  0  0  0  0
  197.3640  173.2460  143.8040 C   0  0  0  0  0  1  0  0  0  0  0  0
  196.0820  173.4580  144.0740 C   0  0  0  0  0  0  0  0  0  0  0  0
  195.3470  174.3210  143.1940 N   0  0  0  0  0  0  0  0  0  0  0  0
  193.1380  172.6860  144.4710 N   0  0  0  0  0  0  0  0  0  0  0  0
  193.9460  174.6890  143.3590 C   0  0  2  0  0  3  0  0  0  0  0  0
  195.4450  172.7410  145.2090 C   0  0  0  0  0  0  0  0  0  0  0  0
  194.0140  172.9610  145.5870 C   0  0  0  0  0  2  0  0  0  0  0  0
  196.1200  171.9280  145.8960 O   0  0  0  0  0  0  0  0  0  0  0  0
  193.0720  173.4560  143.4360 C   0  0  0  0  0  0  0  0  0  0  0  0
  192.6030  176.6140  142.8170 O   0  0  0  0  0  1  0  0  0  0  0  0
  193.5240  175.7020  142.2980 C   0  0  0  0  0  2  0  0  0  0  0  0
  188.1850  175.3610  142.9180 C   0  0  0  0  0  2  0  0  0  0  0  0
  188.9240  176.6480  142.5850 C   0  0  0  0  0  2  0  0  0  0  0  0
  189.3570  177.3420  143.8650 C   0  0  0  0  0  2  0  0  0  0  0  0
  188.1010  176.9970  146.0370 C   0  0  0  0  0  0  0  0  0  0  0  0
  185.9390  178.0610  146.3640 C   0  0  0  0  0  0  0  0  0  0  0  0
  188.1780  177.5740  144.7520 C   0  0  0  0  0  0  0  0  0  0  0  0
  187.1290  178.3710  144.2820 C   0  0  0  0  0  3  0  0  0  0  0  0
  186.9800  177.2600  146.8400 C   0  0  0  0  0  3  0  0  0  0  0  0
  184.7580  178.3290  147.2250 C   0  0  0  0  0  1  0  0  0  0  0  0
  186.0120  178.6140  145.0850 C   0  0  0  0  0  3  0  0  0  0  0  0
  188.7900  175.0030  147.2350 O   0  0  0  0  0  1  0  0  0  0  0  0
  189.2340  176.1570  146.5770 C   0  0  2  0  0  3  0  0  0  0  0  0
  190.1520  176.8930  147.3550 O   0  0  0  0  0  0  0  0  0  0  0  0
  191.3230  176.1330  147.5180 C   0  0  0  0  0  2  0  0  0  0  0  0
  192.2420  176.3360  146.3230 C   0  0  0  0  0  2  0  0  0  0  0  0
  194.4870  177.2940  145.7890 C   0  0  0  0  0  1  0  0  0  0  0  0
  193.6960  176.4350  146.7570 C   0  0  0  0  0  2  0  0  0  0  0  0
  3 22  1  0  0  0  0
  3  2  2  0  0  0  0
  4  9  1  0  0  0  0
  6  1  1  0  0  0  0
  6  5  2  0  0  0  0
  7  1  1  0  0  0  0
  7  4  2  0  0  0  0
  8  5  1  0  0  0  0
  8  3  1  0  0  0  0
  9 10  1  0  0  0  0
  9 19  1  1  0  0  0
 10  5  1  6  0  0  0
 10  2  1  0  0  0  0
 11 12  1  0  0  0  0
 12 16  1  0  0  0  0
 13 15  1  0  0  0  0
 13 12  2  0  0  0  0
 14 17  1  0  0  0  0
 15 21  1  6  0  0  0
 15 19  1  0  0  0  0
 16 17  1  0  0  0  0
 16 18  2  0  0  0  0
 19 14  2  0  0  0  0
 21 20  1  0  0  0  0
 23 22  1  0  0  0  0
 23 24  1  0  0  0  0
 24 27  1  0  0  0  0
 25 33  1  0  0  0  0
 25 29  1  0  0  0  0
 26 29  2  0  0  0  0
 26 30  1  0  0  0  0
 27 25  2  0  0  0  0
 28 27  1  0  0  0  0
 28 31  2  0  0  0  0
 31 26  1  0  0  0  0
 33 32  1  1  0  0  0
 33 34  1  0  0  0  0
 34 35  1  0  0  0  0
 36 38  1  0  0  0  0
 36 35  1  0  0  0  0
 37 38  1  0  0  0  0
M  END
>  <MODEL>
3

>  <REMARK>
 VINA RESULT:      -7.1      2.104      5.401
  Name = 
  11 active torsions:
  status: ('A' for Active; 'I' for Inactive)
    1  A    between atoms: C_6  and  C_17
    2  A    between atoms: C_7  and  C_28
    3  A    between atoms: C_13  and  C_14
    4  A    between atoms: C_13  and  C_26
    5  A    between atoms: C_15  and  CA_22
    6  A    between atoms: C_17  and  O_18
    7  A    between atoms: O_18  and  C_26
    8  A    between atoms: C_20  and  C_30
    9  A    between atoms: C_20  and  C_32
   10  A    between atoms: C_27  and  C_38
   11  A    between atoms: C_28  and  C_30
                            x       y       z     vdW  Elec       q    Type
                         _______ _______ _______ _____ _____    ______ ____

>  <TORSDO>
F 11

$$$$
=
 OpenBabel11042416283D

 38 41  0  0  1  0  0  0  0  0999 V2000
  195.2060  176.2010  145.0650 C   0  0  0  0  0  2  0  0  0  0  0  0
  191.6340  175.8070  142.7640 N   0  0  0  0  0  0  0  0  0  0  0  0
  191.0920  176.8930  143.2230 C   0  0  0  0  0  0  0  0  0  0  0  0
  193.9370  174.0200  145.2440 C   0  0  0  0  0  3  0  0  0  0  0  0
  193.0020  176.7530  144.3100 C   0  0  0  0  0  0  0  0  0  0  0  0
  194.0130  177.0370  145.0660 N   0  0  0  0  0  0  0  0  0  0  0  0
  194.9220  174.8440  145.6390 C   0  0  0  0  0  3  0  0  0  0  0  0
  191.8490  177.5690  144.2200 N   0  0  0  0  0  2  0  0  0  0  0  0
  192.8690  174.2620  144.1930 C   0  0  1  0  0  3  0  0  0  0  0  0
  192.9250  175.5770  143.4010 C   0  0  1  0  0  3  0  0  0  0  0  0
  192.9840  168.8390  144.0370 C   0  0  0  0  0  1  0  0  0  0  0  0
  192.8750  170.0060  143.4150 C   0  0  0  0  0  0  0  0  0  0  0  0
  191.8300  170.8940  143.8360 N   0  0  0  0  0  0  0  0  0  0  0  0
  193.7860  172.7950  142.5130 N   0  0  0  0  0  0  0  0  0  0  0  0
  191.5480  172.1960  143.2420 C   0  0  2  0  0  3  0  0  0  0  0  0
  193.8740  170.3770  142.3790 C   0  0  0  0  0  0  0  0  0  0  0  0
  193.7900  171.6630  141.6160 C   0  0  0  0  0  2  0  0  0  0  0  0
  194.8220  169.5920  142.1100 O   0  0  0  0  0  0  0  0  0  0  0  0
  192.7770  173.0780  143.2690 C   0  0  0  0  0  0  0  0  0  0  0  0
  189.8360  172.0390  144.9300 O   0  0  0  0  0  1  0  0  0  0  0  0
  190.3040  172.8190  143.8710 C   0  0  0  0  0  2  0  0  0  0  0  0
  189.7240  177.3510  142.8250 C   0  0  0  0  0  2  0  0  0  0  0  0
  188.9000  176.2240  142.2200 C   0  0  0  0  0  2  0  0  0  0  0  0
  187.9470  175.6650  143.2620 C   0  0  0  0  0  2  0  0  0  0  0  0
  186.3650  177.0630  144.6610 C   0  0  0  0  0  0  0  0  0  0  0  0
  184.5140  178.2250  143.5950 C   0  0  0  0  0  0  0  0  0  0  0  0
  186.7550  176.5540  143.4050 C   0  0  0  0  0  0  0  0  0  0  0  0
  186.0110  176.8700  142.2630 C   0  0  0  0  0  3  0  0  0  0  0  0
  185.2480  177.9100  144.7410 C   0  0  0  0  0  3  0  0  0  0  0  0
  183.3330  179.1210  143.6940 C   0  0  0  0  0  1  0  0  0  0  0  0
  184.8940  177.7030  142.3570 C   0  0  0  0  0  3  0  0  0  0  0  0
  186.3810  176.6940  147.0590 O   0  0  0  0  0  1  0  0  0  0  0  0
  187.1690  176.7590  145.9030 C   0  0  2  0  0  3  0  0  0  0  0  0
  188.2850  177.6070  146.0670 O   0  0  0  0  0  0  0  0  0  0  0  0
  189.1920  177.0000  146.9520 C   0  0  0  0  0  2  0  0  0  0  0  0
  189.3630  175.5320  146.5920 C   0  0  0  0  0  2  0  0  0  0  0  0
  191.5000  175.9790  147.8080 C   0  0  0  0  0  1  0  0  0  0  0  0
  190.7960  175.0730  146.8160 C   0  0  0  0  0  2  0  0  0  0  0  0
  1  6  1  0  0  0  0
  1  7  1  0  0  0  0
  2  3  2  0  0  0  0
  3  8  1  0  0  0  0
  4  7  2  0  0  0  0
  5  6  2  0  0  0  0
  8  5  1  0  0  0  0
  9 19  1  6  0  0  0
  9  4  1  0  0  0  0
 10  2  1  1  0  0  0
 10  9  1  0  0  0  0
 10  5  1  0  0  0  0
 12 13  2  0  0  0  0
 12 11  1  0  0  0  0
 14 19  2  0  0  0  0
 15 19  1  0  0  0  0
 15 13  1  0  0  0  0
 15 21  1  1  0  0  0
 16 12  1  0  0  0  0
 17 16  1  0  0  0  0
 17 14  1  0  0  0  0
 18 16  2  0  0  0  0
 21 20  1  0  0  0  0
 22  3  1  0  0  0  0
 23 22  1  0  0  0  0
 23 24  1  0  0  0  0
 24 27  1  0  0  0  0
 25 29  1  0  0  0  0
 25 33  1  0  0  0  0
 26 30  1  0  0  0  0
 26 29  2  0  0  0  0
 27 25  2  0  0  0  0
 28 31  2  0  0  0  0
 28 27  1  0  0  0  0
 31 26  1  0  0  0  0
 33 34  1  0  0  0  0
 33 32  1  1  0  0  0
 34 35  1  0  0  0  0
 36 38  1  0  0  0  0
 36 35  1  0  0  0  0
 38 37  1  0  0  0  0
M  END
>  <MODEL>
4

>  <REMARK>
 VINA RESULT:      -7.1      2.066      4.190
  Name = 
  11 active torsions:
  status: ('A' for Active; 'I' for Inactive)
    1  A    between atoms: C_6  and  C_17
    2  A    between atoms: C_7  and  C_28
    3  A    between atoms: C_13  and  C_14
    4  A    between atoms: C_13  and  C_26
    5  A    between atoms: C_15  and  CA_22
    6  A    between atoms: C_17  and  O_18
    7  A    between atoms: O_18  and  C_26
    8  A    between atoms: C_20  and  C_30
    9  A    between atoms: C_20  and  C_32
   10  A    between atoms: C_27  and  C_38
   11  A    between atoms: C_28  and  C_30
                            x       y       z     vdW  Elec       q    Type
                         _______ _______ _______ _____ _____    ______ ____

>  <TORSDO>
F 11

$$$$
=
 OpenBabel11042416283D

 38 41  0  0  1  0  0  0  0  0999 V2000
  195.9120  176.5710  143.7550 C   0  0  0  0  0  2  0  0  0  0  0  0
  192.5470  174.6020  145.4870 N   0  0  0  0  0  0  0  0  0  0  0  0
  192.4950  175.3760  146.5280 C   0  0  0  0  0  0  0  0  0  0  0  0
  196.0690  174.0680  144.0890 C   0  0  0  0  0  3  0  0  0  0  0  0
  194.2470  176.1050  145.4100 C   0  0  0  0  0  0  0  0  0  0  0  0
  195.2530  176.8230  145.0290 N   0  0  0  0  0  0  0  0  0  0  0  0
  196.6210  175.2480  143.7590 C   0  0  0  0  0  3  0  0  0  0  0  0
  193.5270  176.3510  146.6040 N   0  0  0  0  0  2  0  0  0  0  0  0
  194.6580  173.7890  144.5710 C   0  0  1  0  0  3  0  0  0  0  0  0
  193.6750  174.9680  144.6400 C   0  0  1  0  0  3  0  0  0  0  0  0
  195.9240  169.5160  141.4750 C   0  0  0  0  0  2  0  0  0  0  0  0
  195.0140  170.2760  142.0710 C   0  0  0  0  0  0  0  0  0  0  0  0
  195.1110  170.4460  143.4930 N   0  0  0  0  0  2  0  0  0  0  0  0
  193.4900  172.8710  142.6720 N   0  0  0  0  0  0  0  0  0  0  0  0
  194.1800  171.2150  144.3090 C   0  0  2  0  0  3  0  0  0  0  0  0
  193.9950  170.9770  141.2480 C   0  0  0  0  0  0  0  0  0  0  0  0
  192.9200  171.8210  141.8600 C   0  0  0  0  0  2  0  0  0  0  0  0
  194.0100  170.8590  139.9940 O   0  0  0  0  0  0  0  0  0  0  0  0
  194.0690  172.6370  143.8030 C   0  0  0  0  0  0  0  0  0  0  0  0
  195.7610  170.4550  145.9610 O   0  0  0  0  0  1  0  0  0  0  0  0
  194.5320  171.0940  145.7900 C   0  0  0  0  0  2  0  0  0  0  0  0
  191.4970  175.1940  147.6280 C   0  0  0  0  0  2  0  0  0  0  0  0
  190.2910  176.1050  147.4600 C   0  0  0  0  0  2  0  0  0  0  0  0
  189.2400  175.4190  146.6050 C   0  0  0  0  0  2  0  0  0  0  0  0
  188.5640  177.0190  144.7610 C   0  0  0  0  0  0  0  0  0  0  0  0
  186.5160  178.3110  144.9730 C   0  0  0  0  0  0  0  0  0  0  0  0
  188.3100  176.4290  146.0170 C   0  0  0  0  0  0  0  0  0  0  0  0
  187.1740  176.8010  146.7440 C   0  0  0  0  0  3  0  0  0  0  0  0
  187.6510  177.9500  144.2430 C   0  0  0  0  0  3  0  0  0  0  0  0
  185.5590  179.3000  144.4130 C   0  0  0  0  0  1  0  0  0  0  0  0
  186.2790  177.7380  146.2240 C   0  0  0  0  0  3  0  0  0  0  0  0
  190.8790  177.4390  144.1660 O   0  0  0  0  0  1  0  0  0  0  0  0
  189.7700  176.6120  143.9460 C   0  0  2  0  0  3  0  0  0  0  0  0
  189.4880  176.4550  142.5730 O   0  0  0  0  0  0  0  0  0  0  0  0
  189.0870  175.1290  142.3380 C   0  0  0  0  0  2  0  0  0  0  0  0
  190.0670  174.1680  142.9930 C   0  0  0  0  0  2  0  0  0  0  0  0
  190.1310  172.2270  144.5650 C   0  0  0  0  0  1  0  0  0  0  0  0
  189.3760  172.8850  143.4260 C   0  0  0  0  0  2  0  0  0  0  0  0
  1  7  1  0  0  0  0
  1  6  1  0  0  0  0
  2  3  2  0  0  0  0
  3  8  1  0  0  0  0
  3 22  1  0  0  0  0
  4  9  1  0  0  0  0
  5  8  1  0  0  0  0
  6  5  2  0  0  0  0
  7  4  2  0  0  0  0
  9 19  1  6  0  0  0
  9 10  1  0  0  0  0
 10  5  1  1  0  0  0
 10  2  1  0  0  0  0
 11 12  2  0  0  0  0
 12 13  1  0  0  0  0
 13 15  1  0  0  0  0
 14 19  2  0  0  0  0
 15 21  1  1  0  0  0
 16 17  1  0  0  0  0
 16 12  1  0  0  0  0
 17 14  1  0  0  0  0
 18 16  2  0  0  0  0
 19 15  1  0  0  0  0
 21 20  1  0  0  0  0
 23 22  1  0  0  0  0
 24 23  1  0  0  0  0
 25 27  1  0  0  0  0
 26 31  2  0  0  0  0
 27 24  1  0  0  0  0
 27 28  2  0  0  0  0
 29 25  2  0  0  0  0
 29 26  1  0  0  0  0
 30 26  1  0  0  0  0
 31 28  1  0  0  0  0
 33 32  1  6  0  0  0
 33 25  1  0  0  0  0
 34 33  1  0  0  0  0
 35 34  1  0  0  0  0
 35 36  1  0  0  0  0
 36 38  1  0  0  0  0
 38 37  1  0  0  0  0
M  END
>  <MODEL>
5

>  <REMARK>
 VINA RESULT:      -7.1      2.379      4.309
  Name = 
  11 active torsions:
  status: ('A' for Active; 'I' for Inactive)
    1  A    between atoms: C_6  and  C_17
    2  A    between atoms: C_7  and  C_28
    3  A    between atoms: C_13  and  C_14
    4  A    between atoms: C_13  and  C_26
    5  A    between atoms: C_15  and  CA_22
    6  A    between atoms: C_17  and  O_18
    7  A    between atoms: O_18  and  C_26
    8  A    between atoms: C_20  and  C_30
    9  A    between atoms: C_20  and  C_32
   10  A    between atoms: C_27  and  C_38
   11  A    between atoms: C_28  and  C_30
                            x       y       z     vdW  Elec       q    Type
                         _______ _______ _______ _____ _____    ______ ____

>  <TORSDO>
F 11

$$$$
=
 OpenBabel11042416283D

 38 41  0  0  1  0  0  0  0  0999 V2000
  191.3710  170.6920  141.8270 C   0  0  0  0  0  2  0  0  0  0  0  0
  191.4200  173.4550  145.0780 N   0  0  0  0  0  0  0  0  0  0  0  0
  190.1510  173.3500  145.3260 C   0  0  0  0  0  0  0  0  0  0  0  0
  192.3550  172.9820  141.3970 C   0  0  0  0  0  3  0  0  0  0  0  0
  190.4590  172.0490  143.5760 C   0  0  0  0  0  0  0  0  0  0  0  0
  190.2630  171.1840  142.6340 N   0  0  0  0  0  0  0  0  0  0  0  0
  191.9430  171.7780  140.9650 C   0  0  0  0  0  3  0  0  0  0  0  0
  189.4320  172.5070  144.4350 N   0  0  0  0  0  2  0  0  0  0  0  0
  192.3000  173.5490  142.8030 C   0  0  1  0  0  3  0  0  0  0  0  0
  191.7800  172.6380  143.9260 C   0  0  1  0  0  3  0  0  0  0  0  0
  196.5600  176.2430  140.7930 C   0  0  0  0  0  2  0  0  0  0  0  0
  195.9380  175.6720  141.8170 C   0  0  0  0  0  0  0  0  0  0  0  0
  194.6230  176.1410  142.1470 N   0  0  0  0  0  2  0  0  0  0  0  0
  194.6360  173.3700  143.3730 N   0  0  0  0  0  0  0  0  0  0  0  0
  193.8140  175.6520  143.2570 C   0  0  2  0  0  3  0  0  0  0  0  0
  196.5830  174.5330  142.5200 C   0  0  0  0  0  0  0  0  0  0  0  0
  195.9510  173.8680  143.7040 C   0  0  0  0  0  2  0  0  0  0  0  0
  197.7030  174.1080  142.1320 O   0  0  0  0  0  0  0  0  0  0  0  0
  193.6290  174.1520  143.1690 C   0  0  0  0  0  0  0  0  0  0  0  0
  192.5950  177.3910  144.3960 O   0  0  0  0  0  1  0  0  0  0  0  0
  192.5150  176.4470  143.3710 C   0  0  0  0  0  2  0  0  0  0  0  0
  189.4630  174.1370  146.3970 C   0  0  0  0  0  2  0  0  0  0  0  0
  189.7030  175.6320  146.2480 C   0  0  0  0  0  2  0  0  0  0  0  0
  189.0320  176.1410  144.9840 C   0  0  0  0  0  2  0  0  0  0  0  0
  186.9320  177.3930  144.3210 C   0  0  0  0  0  0  0  0  0  0  0  0
  185.2460  177.8970  145.9990 C   0  0  0  0  0  0  0  0  0  0  0  0
  187.7140  176.7620  145.3120 C   0  0  0  0  0  0  0  0  0  0  0  0
  187.2620  176.7220  146.6350 C   0  0  0  0  0  3  0  0  0  0  0  0
  185.6920  177.9450  144.6760 C   0  0  0  0  0  3  0  0  0  0  0  0
  183.9320  178.4880  146.3600 C   0  0  0  0  0  1  0  0  0  0  0  0
  186.0320  177.2880  146.9790 C   0  0  0  0  0  3  0  0  0  0  0  0
  186.9740  178.5770  142.2050 O   0  0  0  0  0  1  0  0  0  0  0  0
  187.3860  177.4220  142.8810 C   0  0  2  0  0  3  0  0  0  0  0  0
  187.0640  176.2470  142.1700 O   0  0  0  0  0  0  0  0  0  0  0  0
  188.0700  175.9970  141.2220 C   0  0  0  0  0  2  0  0  0  0  0  0
  188.4590  174.5260  141.2540 C   0  0  0  0  0  2  0  0  0  0  0  0
  188.4720  172.5620  139.7100 C   0  0  0  0  0  1  0  0  0  0  0  0
  188.8360  174.0260  139.8680 C   0  0  0  0  0  2  0  0  0  0  0  0
  1  6  1  0  0  0  0
  2  3  2  0  0  0  0
  3 22  1  0  0  0  0
  4  9  1  0  0  0  0
  5  8  1  0  0  0  0
  6  5  2  0  0  0  0
  7  4  2  0  0  0  0
  7  1  1  0  0  0  0
  8  3  1  0  0  0  0
  9 19  1  1  0  0  0
  9 10  1  0  0  0  0
 10  5  1  6  0  0  0
 10  2  1  0  0  0  0
 11 12  2  0  0  0  0
 12 13  1  0  0  0  0
 12 16  1  0  0  0  0
 13 15  1  0  0  0  0
 14 17  1  0  0  0  0
 15 21  1  6  0  0  0
 16 17  1  0  0  0  0
 18 16  2  0  0  0  0
 19 15  1  0  0  0  0
 19 14  2  0  0  0  0
 21 20  1  0  0  0  0
 23 22  1  0  0  0  0
 24 27  1  0  0  0  0
 24 23  1  0  0  0  0
 25 29  2  0  0  0  0
 25 27  1  0  0  0  0
 26 30  1  0  0  0  0
 26 31  2  0  0  0  0
 27 28  2  0  0  0  0
 28 31  1  0  0  0  0
 29 26  1  0  0  0  0
 33 32  1  6  0  0  0
 33 25  1  0  0  0  0
 34 33  1  0  0  0  0
 35 36  1  0  0  0  0
 35 34  1  0  0  0  0
 37 38  1  0  0  0  0
 38 36  1  0  0  0  0
M  END
>  <MODEL>
6

>  <REMARK>
 VINA RESULT:      -7.0      2.373      5.339
  Name = 
  11 active torsions:
  status: ('A' for Active; 'I' for Inactive)
    1  A    between atoms: C_6  and  C_17
    2  A    between atoms: C_7  and  C_28
    3  A    between atoms: C_13  and  C_14
    4  A    between atoms: C_13  and  C_26
    5  A    between atoms: C_15  and  CA_22
    6  A    between atoms: C_17  and  O_18
    7  A    between atoms: O_18  and  C_26
    8  A    between atoms: C_20  and  C_30
    9  A    between atoms: C_20  and  C_32
   10  A    between atoms: C_27  and  C_38
   11  A    between atoms: C_28  and  C_30
                            x       y       z     vdW  Elec       q    Type
                         _______ _______ _______ _____ _____    ______ ____

>  <TORSDO>
F 11

$$$$
=
 OpenBabel11042416283D

 38 41  0  0  1  0  0  0  0  0999 V2000
  190.8210  171.4050  139.9540 C   0  0  0  0  0  2  0  0  0  0  0  0
  189.8290  174.6380  142.5560 N   0  0  0  0  0  0  0  0  0  0  0  0
  188.8970  175.1110  141.7870 C   0  0  0  0  0  0  0  0  0  0  0  0
  192.7010  172.9290  140.6900 C   0  0  0  0  0  3  0  0  0  0  0  0
  189.7030  173.4020  140.6560 C   0  0  0  0  0  0  0  0  0  0  0  0
  189.8600  172.4810  139.7600 N   0  0  0  0  0  0  0  0  0  0  0  0
  192.2300  171.9220  139.9370 C   0  0  0  0  0  3  0  0  0  0  0  0
  188.7340  174.4290  140.5500 N   0  0  0  0  0  2  0  0  0  0  0  0
  191.9470  173.8030  141.6750 C   0  0  1  0  0  3  0  0  0  0  0  0
  190.4650  173.4850  141.9300 C   0  0  1  0  0  3  0  0  0  0  0  0
  196.8640  173.1890  143.8870 C   0  0  0  0  0  1  0  0  0  0  0  0
  195.5760  173.4890  144.0090 C   0  0  0  0  0  0  0  0  0  0  0  0
  195.0570  174.5510  143.1960 N   0  0  0  0  0  0  0  0  0  0  0  0
  192.5540  172.9740  143.8560 N   0  0  0  0  0  0  0  0  0  0  0  0
  193.6810  175.0320  143.2250 C   0  0  2  0  0  3  0  0  0  0  0  0
  194.7180  172.6720  144.9050 C   0  0  0  0  0  0  0  0  0  0  0  0
  193.2670  172.9780  145.1130 C   0  0  0  0  0  2  0  0  0  0  0  0
  195.2110  171.6960  145.5300 O   0  0  0  0  0  0  0  0  0  0  0  0
  192.7100  173.8990  142.9680 C   0  0  0  0  0  0  0  0  0  0  0  0
  194.5230  176.2830  141.3460 O   0  0  0  0  0  1  0  0  0  0  0  0
  193.5090  176.2370  142.3050 C   0  0  0  0  0  2  0  0  0  0  0  0
  188.1200  176.3470  142.1170 C   0  0  0  0  0  2  0  0  0  0  0  0
  189.0290  177.5070  142.4950 C   0  0  0  0  0  2  0  0  0  0  0  0
  188.6130  178.0710  143.8420 C   0  0  0  0  0  2  0  0  0  0  0  0
  188.7970  177.1650  146.2000 C   0  0  0  0  0  0  0  0  0  0  0  0
  190.8790  176.1570  146.9480 C   0  0  0  0  0  0  0  0  0  0  0  0
  189.3810  177.4100  144.9390 C   0  0  0  0  0  0  0  0  0  0  0  0
  190.7100  177.0440  144.7040 C   0  0  0  0  0  3  0  0  0  0  0  0
  189.5550  176.5250  147.1930 C   0  0  0  0  0  3  0  0  0  0  0  0
  191.6690  175.4820  148.0090 C   0  0  0  0  0  1  0  0  0  0  0  0
  191.4580  176.4190  145.7040 C   0  0  0  0  0  3  0  0  0  0  0  0
  187.1930  178.2910  147.6300 O   0  0  0  0  0  1  0  0  0  0  0  0
  187.3550  177.5270  146.4680 C   0  0  2  0  0  3  0  0  0  0  0  0
  186.4860  176.4160  146.4370 O   0  0  0  0  0  0  0  0  0  0  0  0
  185.1980  176.8550  146.0890 C   0  0  0  0  0  2  0  0  0  0  0  0
  185.1880  177.3440  144.6490 C   0  0  0  0  0  2  0  0  0  0  0  0
  185.4300  179.8000  144.2570 C   0  0  0  0  0  1  0  0  0  0  0  0
  184.4540  178.6690  144.5220 C   0  0  0  0  0  2  0  0  0  0  0  0
  3 22  1  0  0  0  0
  3  2  2  0  0  0  0
  4  9  1  0  0  0  0
  6  1  1  0  0  0  0
  6  5  2  0  0  0  0
  7  1  1  0  0  0  0
  7  4  2  0  0  0  0
  8  5  1  0  0  0  0
  8  3  1  0  0  0  0
  9 10  1  0  0  0  0
  9 19  1  1  0  0  0
 10  5  1  6  0  0  0
 10  2  1  0  0  0  0
 11 12  1  0  0  0  0
 12 16  1  0  0  0  0
 13 15  1  0  0  0  0
 13 12  2  0  0  0  0
 14 17  1  0  0  0  0
 15 21  1  6  0  0  0
 16 17  1  0  0  0  0
 16 18  2  0  0  0  0
 19 15  1  0  0  0  0
 19 14  2  0  0  0  0
 20 21  1  0  0  0  0
 22 23  1  0  0  0  0
 23 24  1  0  0  0  0
 24 27  1  0  0  0  0
 25 33  1  0  0  0  0
 25 29  1  0  0  0  0
 26 29  2  0  0  0  0
 26 30  1  0  0  0  0
 27 25  2  0  0  0  0
 28 27  1  0  0  0  0
 28 31  2  0  0  0  0
 31 26  1  0  0  0  0
 33 32  1  1  0  0  0
 34 33  1  0  0  0  0
 35 34  1  0  0  0  0
 36 35  1  0  0  0  0
 37 38  1  0  0  0  0
 38 36  1  0  0  0  0
M  END
>  <MODEL>
7

>  <REMARK>
 VINA RESULT:      -7.0      1.947      4.623
  Name = 
  11 active torsions:
  status: ('A' for Active; 'I' for Inactive)
    1  A    between atoms: C_6  and  C_17
    2  A    between atoms: C_7  and  C_28
    3  A    between atoms: C_13  and  C_14
    4  A    between atoms: C_13  and  C_26
    5  A    between atoms: C_15  and  CA_22
    6  A    between atoms: C_17  and  O_18
    7  A    between atoms: O_18  and  C_26
    8  A    between atoms: C_20  and  C_30
    9  A    between atoms: C_20  and  C_32
   10  A    between atoms: C_27  and  C_38
   11  A    between atoms: C_28  and  C_30
                            x       y       z     vdW  Elec       q    Type
                         _______ _______ _______ _____ _____    ______ ____

>  <TORSDO>
F 11

$$$$
=
 OpenBabel11042416283D

 38 41  0  0  1  0  0  0  0  0999 V2000
  196.3610  175.7150  142.3920 C   0  0  0  0  0  2  0  0  0  0  0  0
  192.7040  175.7100  144.5900 N   0  0  0  0  0  0  0  0  0  0  0  0
  193.2280  176.2050  145.6690 C   0  0  0  0  0  0  0  0  0  0  0  0
  195.0860  173.5340  142.5310 C   0  0  0  0  0  3  0  0  0  0  0  0
  194.9370  176.0000  144.2940 C   0  0  0  0  0  0  0  0  0  0  0  0
  196.1200  176.0860  143.7790 N   0  0  0  0  0  0  0  0  0  0  0  0
  196.1740  174.2410  142.1810 C   0  0  0  0  0  3  0  0  0  0  0  0
  194.6340  176.4140  145.6140 N   0  0  0  0  0  2  0  0  0  0  0  0
  193.8390  174.0160  143.2480 C   0  0  1  0  0  3  0  0  0  0  0  0
  193.7300  175.5140  143.5730 C   0  0  1  0  0  3  0  0  0  0  0  0
  192.0220  170.2450  139.7960 C   0  0  0  0  0  2  0  0  0  0  0  0
  191.8000  171.3040  140.5640 C   0  0  0  0  0  0  0  0  0  0  0  0
  192.1230  171.1990  141.9580 N   0  0  0  0  0  2  0  0  0  0  0  0
  192.1690  174.1980  141.5190 N   0  0  0  0  0  0  0  0  0  0  0  0
  191.9130  172.2490  142.9470 C   0  0  2  0  0  3  0  0  0  0  0  0
  191.3120  172.5650  139.9470 C   0  0  0  0  0  0  0  0  0  0  0  0
  191.0100  173.7850  140.7610 C   0  0  0  0  0  2  0  0  0  0  0  0
  191.1270  172.6250  138.7020 O   0  0  0  0  0  0  0  0  0  0  0  0
  192.6100  173.5270  142.5310 C   0  0  0  0  0  0  0  0  0  0  0  0
  193.0200  170.5770  144.2820 O   0  0  0  0  0  1  0  0  0  0  0  0
  192.2750  171.7550  144.3460 C   0  0  0  0  0  2  0  0  0  0  0  0
  192.4430  176.4390  146.9210 C   0  0  0  0  0  2  0  0  0  0  0  0
  190.9580  176.1790  146.7200 C   0  0  0  0  0  2  0  0  0  0  0  0
  190.2190  177.4960  146.5650 C   0  0  0  0  0  2  0  0  0  0  0  0
  188.1260  177.2490  145.1600 C   0  0  0  0  0  0  0  0  0  0  0  0
  188.2260  177.6440  142.7630 C   0  0  0  0  0  0  0  0  0  0  0  0
  189.5030  177.5380  145.2550 C   0  0  0  0  0  0  0  0  0  0  0  0
  190.2290  177.8570  144.1020 C   0  0  0  0  0  3  0  0  0  0  0  0
  187.4950  177.3190  143.9080 C   0  0  0  0  0  3  0  0  0  0  0  0
  187.5460  177.7130  141.4450 C   0  0  0  0  0  1  0  0  0  0  0  0
  189.5940  177.9110  142.8600 C   0  0  0  0  0  3  0  0  0  0  0  0
  187.6690  175.7040  146.9730 O   0  0  0  0  0  1  0  0  0  0  0  0
  187.3160  176.9300  146.3950 C   0  0  2  0  0  3  0  0  0  0  0  0
  185.9240  177.0420  146.1940 O   0  0  0  0  0  0  0  0  0  0  0  0
  185.5030  178.3110  146.6250 C   0  0  0  0  0  2  0  0  0  0  0  0
  184.1500  178.6430  146.0150 C   0  0  0  0  0  2  0  0  0  0  0  0
  185.3740  180.0200  144.3270 C   0  0  0  0  0  1  0  0  0  0  0  0
  184.2800  178.9910  144.5400 C   0  0  0  0  0  2  0  0  0  0  0  0
  1  6  1  0  0  0  0
  2  3  2  0  0  0  0
  3 22  1  0  0  0  0
  4  9  1  0  0  0  0
  5  8  1  0  0  0  0
  6  5  2  0  0  0  0
  7  1  1  0  0  0  0
  7  4  2  0  0  0  0
  8  3  1  0  0  0  0
  9 19  1  6  0  0  0
  9 10  1  0  0  0  0
 10  5  1  1  0  0  0
 10  2  1  0  0  0  0
 11 12  2  0  0  0  0
 12 13  1  0  0  0  0
 13 15  1  0  0  0  0
 14 19  2  0  0  0  0
 15 21  1  1  0  0  0
 16 12  1  0  0  0  0
 16 17  1  0  0  0  0
 17 14  1  0  0  0  0
 18 16  2  0  0  0  0
 19 15  1  0  0  0  0
 20 21  1  0  0  0  0
 23 22  1  0  0  0  0
 24 23  1  0  0  0  0
 25 27  1  0  0  0  0
 25 33  1  0  0  0  0
 26 31  2  0  0  0  0
 26 29  1  0  0  0  0
 27 24  1  0  0  0  0
 28 27  2  0  0  0  0
 29 25  2  0  0  0  0
 30 26  1  0  0  0  0
 31 28  1  0  0  0  0
 33 32  1  6  0  0  0
 34 33  1  0  0  0  0
 34 35  1  0  0  0  0
 36 35  1  0  0  0  0
 37 38  1  0  0  0  0
 38 36  1  0  0  0  0
M  END
>  <MODEL>
8

>  <REMARK>
 VINA RESULT:      -7.0      1.300      2.213
  Name = 
  11 active torsions:
  status: ('A' for Active; 'I' for Inactive)
    1  A    between atoms: C_6  and  C_17
    2  A    between atoms: C_7  and  C_28
    3  A    between atoms: C_13  and  C_14
    4  A    between atoms: C_13  and  C_26
    5  A    between atoms: C_15  and  CA_22
    6  A    between atoms: C_17  and  O_18
    7  A    between atoms: O_18  and  C_26
    8  A    between atoms: C_20  and  C_30
    9  A    between atoms: C_20  and  C_32
   10  A    between atoms: C_27  and  C_38
   11  A    between atoms: C_28  and  C_30
                            x       y       z     vdW  Elec       q    Type
                         _______ _______ _______ _____ _____    ______ ____

>  <TORSDO>
F 11

$$$$
=
 OpenBabel11042416283D

 38 41  0  0  1  0  0  0  0  0999 V2000
  195.7380  176.6820  143.6090 C   0  0  0  0  0  2  0  0  0  0  0  0
  191.9160  175.5590  145.1380 N   0  0  0  0  0  0  0  0  0  0  0  0
  192.1810  175.9150  146.3580 C   0  0  0  0  0  0  0  0  0  0  0  0
  194.9490  174.3210  143.1590 C   0  0  0  0  0  3  0  0  0  0  0  0
  194.0550  176.3100  145.2700 C   0  0  0  0  0  0  0  0  0  0  0  0
  195.2490  176.7150  144.9800 N   0  0  0  0  0  0  0  0  0  0  0  0
  195.8970  175.2730  143.1200 C   0  0  0  0  0  3  0  0  0  0  0  0
  193.5050  176.3870  146.5730 N   0  0  0  0  0  2  0  0  0  0  0  0
  193.5470  174.4100  143.7320 C   0  0  1  0  0  3  0  0  0  0  0  0
  193.0820  175.7650  144.2860 C   0  0  1  0  0  3  0  0  0  0  0  0
  192.9930  171.0020  139.5460 C   0  0  0  0  0  2  0  0  0  0  0  0
  192.4680  171.8780  140.3940 C   0  0  0  0  0  0  0  0  0  0  0  0
  192.5850  171.6030  141.7980 N   0  0  0  0  0  2  0  0  0  0  0  0
  192.1590  174.6040  141.7700 N   0  0  0  0  0  0  0  0  0  0  0  0
  192.0400  172.4370  142.8620 C   0  0  2  0  0  3  0  0  0  0  0  0
  191.8640  173.1300  139.8700 C   0  0  0  0  0  0  0  0  0  0  0  0
  191.2250  174.1430  140.7690 C   0  0  0  0  0  2  0  0  0  0  0  0
  191.8660  173.3580  138.6310 O   0  0  0  0  0  0  0  0  0  0  0  0
  192.5520  173.8570  142.7480 C   0  0  0  0  0  0  0  0  0  0  0  0
  193.3020  170.8570  144.1720 O   0  0  0  0  0  1  0  0  0  0  0  0
  192.2630  171.7880  144.2260 C   0  0  0  0  0  2  0  0  0  0  0  0
  191.2120  175.7420  147.4850 C   0  0  0  0  0  2  0  0  0  0  0  0
  189.9540  176.5740  147.2870 C   0  0  0  0  0  2  0  0  0  0  0  0
  188.7920  175.6740  146.9060 C   0  0  0  0  0  2  0  0  0  0  0  0
  187.5470  176.9720  145.1230 C   0  0  0  0  0  0  0  0  0  0  0  0
  185.4170  178.0160  145.6550 C   0  0  0  0  0  0  0  0  0  0  0  0
  187.6300  176.4930  146.4470 C   0  0  0  0  0  0  0  0  0  0  0  0
  186.6180  176.7960  147.3640 C   0  0  0  0  0  3  0  0  0  0  0  0
  186.4260  177.7230  144.7360 C   0  0  0  0  0  3  0  0  0  0  0  0
  184.2370  178.8130  145.2310 C   0  0  0  0  0  1  0  0  0  0  0  0
  185.5130  177.5550  146.9700 C   0  0  0  0  0  3  0  0  0  0  0  0
  189.2890  177.7640  143.6330 O   0  0  0  0  0  1  0  0  0  0  0  0
  188.6140  176.6330  144.1100 C   0  0  2  0  0  3  0  0  0  0  0  0
  188.1480  175.8110  143.0620 O   0  0  0  0  0  0  0  0  0  0  0  0
  188.3970  176.4510  141.8360 C   0  0  0  0  0  2  0  0  0  0  0  0
  187.0920  176.6510  141.0800 C   0  0  0  0  0  2  0  0  0  0  0  0
  185.1020  178.1540  141.2180 C   0  0  0  0  0  1  0  0  0  0  0  0
  186.6170  178.0920  141.1720 C   0  0  0  0  0  2  0  0  0  0  0  0
  1  6  1  0  0  0  0
  2  3  2  0  0  0  0
  3  8  1  0  0  0  0
  3 22  1  0  0  0  0
  4  9  1  0  0  0  0
  5  8  1  0  0  0  0
  6  5  2  0  0  0  0
  7  4  2  0  0  0  0
  7  1  1  0  0  0  0
  9 19  1  6  0  0  0
  9 10  1  0  0  0  0
 10  2  1  1  0  0  0
 10  5  1  0  0  0  0
 11 12  2  0  0  0  0
 12 13  1  0  0  0  0
 13 15  1  0  0  0  0
 14 19  2  0  0  0  0
 15 21  1  1  0  0  0
 16 12  1  0  0  0  0
 16 17  1  0  0  0  0
 17 14  1  0  0  0  0
 18 16  2  0  0  0  0
 19 15  1  0  0  0  0
 20 21  1  0  0  0  0
 23 22  1  0  0  0  0
 24 23  1  0  0  0  0
 25 27  1  0  0  0  0
 26 31  2  0  0  0  0
 27 24  1  0  0  0  0
 27 28  2  0  0  0  0
 29 25  2  0  0  0  0
 29 26  1  0  0  0  0
 30 26  1  0  0  0  0
 31 28  1  0  0  0  0
 33 32  1  6  0  0  0
 33 25  1  0  0  0  0
 34 33  1  0  0  0  0
 35 34  1  0  0  0  0
 36 38  1  0  0  0  0
 36 35  1  0  0  0  0
 38 37  1  0  0  0  0
M  END
>  <MODEL>
9

>  <REMARK>
 VINA RESULT:      -7.0      1.781      3.536
  Name = 
  11 active torsions:
  status: ('A' for Active; 'I' for Inactive)
    1  A    between atoms: C_6  and  C_17
    2  A    between atoms: C_7  and  C_28
    3  A    between atoms: C_13  and  C_14
    4  A    between atoms: C_13  and  C_26
    5  A    between atoms: C_15  and  CA_22
    6  A    between atoms: C_17  and  O_18
    7  A    between atoms: O_18  and  C_26
    8  A    between atoms: C_20  and  C_30
    9  A    between atoms: C_20  and  C_32
   10  A    between atoms: C_27  and  C_38
   11  A    between atoms: C_28  and  C_30
                            x       y       z     vdW  Elec       q    Type
                         _______ _______ _______ _____ _____    ______ ____

>  <TORSDO>
F 11

$$$$
