=
 OpenBabel11042415043D

 33 36  0  0  1  0  0  0  0  0999 V2000
  192.1840  175.7050  144.5110 C   0  0  0  0  0  0  0  0  0  0  0  0
  193.5970  175.4160  144.0880 C   0  0  0  0  0  2  0  0  0  0  0  0
  194.7290  177.1690  145.4160 C   0  0  0  0  0  0  0  0  0  0  0  0
  194.4570  176.6240  144.2320 C   0  0  0  0  0  3  0  0  0  0  0  0
  191.8860  175.9640  145.8080 C   0  0  0  0  0  0  0  0  0  0  0  0
  195.6110  178.2390  145.4680 O   0  0  0  0  0  1  0  0  0  0  0  0
  194.1620  176.6630  146.6800 C   0  0  0  0  0  3  0  0  0  0  0  0
  192.9430  176.1310  146.8440 C   0  0  0  0  0  3  0  0  0  0  0  0
  188.4330  175.1430  147.1970 C   0  0  0  0  0  3  0  0  0  0  0  0
  189.8550  177.3570  146.2590 C   0  0  0  0  0  3  0  0  0  0  0  0
  187.8190  176.3980  147.1540 C   0  0  0  0  0  0  0  0  0  0  0  0
  188.5340  177.5050  146.6890 C   0  0  0  0  0  3  0  0  0  0  0  0
  189.7570  174.9980  146.7720 C   0  0  0  0  0  3  0  0  0  0  0  0
  190.4800  176.1000  146.2820 C   0  0  0  0  0  0  0  0  0  0  0  0
  186.3920  176.5520  147.5540 C   0  0  0  0  0  2  0  0  0  0  0  0
  185.7300  177.5320  146.7100 N   0  0  0  0  0  2  0  0  0  0  0  0
  185.4550  176.8940  145.4930 N   0  0  0  0  0  2  0  0  0  0  0  0
  185.5990  177.9350  143.3370 C   0  0  2  0  0  3  0  0  0  0  0  0
  185.9310  178.8700  144.4100 C   0  0  2  0  0  3  0  0  0  0  0  0
  184.8880  177.8600  144.6440 N   0  0  0  0  0  0  0  0  0  0  0  0
  185.2760  180.2060  144.1340 C   0  0  0  0  0  1  0  0  0  0  0  0
  188.0200  177.2410  143.3360 O   0  0  0  0  0  1  0  0  0  0  0  0
  186.3820  175.7490  142.7460 O   0  0  0  0  0  0  0  0  0  0  0  0
  186.6830  176.9060  143.1430 C   0  0  0  0  0  0  0  0  0  0  0  0
  191.1480  175.7020  143.5150 N   0  0  0  0  0  2  0  0  0  0  0  0
  190.8250  173.2560  143.7160 C   0  0  0  0  0  2  0  0  0  0  0  0
  189.7280  174.6600  141.7960 C   0  0  0  0  0  2  0  0  0  0  0  0
  189.7680  172.2010  143.8620 C   0  0  0  0  0  2  0  0  0  0  0  0
  188.4670  174.1140  139.8490 N   0  0  0  0  0  1  0  0  0  0  0  0
  188.3320  172.5790  141.8020 C   0  0  0  0  0  3  0  0  0  0  0  0
  188.9320  172.1940  142.8790 C   0  0  0  0  0  2  0  0  0  0  0  0
  188.8640  173.8140  141.1810 C   0  0  0  0  0  0  0  0  0  0  0  0
  190.2270  174.6030  143.2410 C   0  0  2  0  0  3  0  0  0  0  0  0
  1  5  2  0  0  0  0
  2  4  1  0  0  0  0
  2  1  1  0  0  0  0
  3  6  1  0  0  0  0
  3  7  1  0  0  0  0
  4  3  2  0  0  0  0
  5 14  1  0  0  0  0
  5  8  1  0  0  0  0
  7  8  2  0  0  0  0
 10 14  2  0  0  0  0
 10 12  1  0  0  0  0
 11  9  1  0  0  0  0
 11 15  1  0  0  0  0
 12 11  2  0  0  0  0
 13  9  2  0  0  0  0
 14 13  1  0  0  0  0
 16 15  1  0  0  0  0
 17 16  1  0  0  0  0
 18 24  1  1  0  0  0
 18 19  1  0  0  0  0
 18 20  1  0  0  0  0
 19 21  1  6  0  0  0
 19 20  1  0  0  0  0
 20 17  1  0  0  0  0
 23 24  2  0  0  0  0
 24 22  1  0  0  0  0
 25  1  1  0  0  0  0
 26 28  1  0  0  0  0
 27 33  1  0  0  0  0
 29 32  1  0  0  0  0
 30 31  1  0  0  0  0
 31 28  1  0  0  0  0
 32 27  1  0  0  0  0
 32 30  2  0  0  0  0
 33 25  1  6  0  0  0
 33 26  1  0  0  0  0
M  END
>  <MODEL>
1

>  <REMARK>
 VINA RESULT:      -7.5      0.000      0.000
  Name = 
  8 active torsions:
  status: ('A' for Active; 'I' for Inactive)
    1  A    between atoms: C_3  and  C_29
    2  A    between atoms: C_4  and  N_27
    3  A    between atoms: C_7  and  C_9
    4  A    between atoms: C_7  and  N_20
    5  A    between atoms: N_17  and  N_21
    6  A    between atoms: N_20  and  N_21
    7  A    between atoms: C_22  and  C_32
    8  A    between atoms: N_27  and  C_30
                            x       y       z     vdW  Elec       q    Type
                         _______ _______ _______ _____ _____    ______ ____

>  <TORSDO>
F 8

$$$$
=
 OpenBabel11042415043D

 33 36  0  0  1  0  0  0  0  0999 V2000
  192.6380  174.1200  145.3980 C   0  0  0  0  0  0  0  0  0  0  0  0
  194.0630  173.6490  145.3290 C   0  0  0  0  0  2  0  0  0  0  0  0
  195.1420  175.8380  144.9340 C   0  0  0  0  0  0  0  0  0  0  0  0
  194.9020  174.5910  144.5360 C   0  0  0  0  0  3  0  0  0  0  0  0
  192.3110  175.2440  146.0820 C   0  0  0  0  0  0  0  0  0  0  0  0
  196.0070  176.6200  144.1810 O   0  0  0  0  0  1  0  0  0  0  0  0
  194.5580  176.4150  146.1590 C   0  0  0  0  0  3  0  0  0  0  0  0
  193.3440  176.1470  146.6590 C   0  0  0  0  0  3  0  0  0  0  0  0
  188.6890  175.2750  147.2680 C   0  0  0  0  0  3  0  0  0  0  0  0
  190.4110  176.8350  145.7170 C   0  0  0  0  0  3  0  0  0  0  0  0
  188.2180  176.4480  146.6700 C   0  0  0  0  0  0  0  0  0  0  0  0
  189.0830  177.2290  145.8990 C   0  0  0  0  0  3  0  0  0  0  0  0
  190.0190  174.8850  147.0900 C   0  0  0  0  0  3  0  0  0  0  0  0
  190.8930  175.6510  146.2990 C   0  0  0  0  0  0  0  0  0  0  0  0
  186.7890  176.8430  146.8090 C   0  0  0  0  0  2  0  0  0  0  0  0
  186.0440  176.4910  145.6130 N   0  0  0  0  0  2  0  0  0  0  0  0
  185.3410  177.6410  145.2250 N   0  0  0  0  0  2  0  0  0  0  0  0
  185.5800  178.9740  143.2460 C   0  0  2  0  0  3  0  0  0  0  0  0
  186.3800  177.7530  143.1730 C   0  0  2  0  0  3  0  0  0  0  0  0
  186.2280  178.4270  144.4710 N   0  0  0  0  0  0  0  0  0  0  0  0
  187.7430  178.0780  142.6010 C   0  0  0  0  0  1  0  0  0  0  0  0
  183.6380  177.8210  142.1310 O   0  0  0  0  0  0  0  0  0  0  0  0
  183.2880  179.2620  143.8800 O   0  0  0  0  0  1  0  0  0  0  0  0
  184.1070  178.6800  143.1200 C   0  0  0  0  0  0  0  0  0  0  0  0
  191.6220  173.3580  144.7260 N   0  0  0  0  0  2  0  0  0  0  0  0
  189.4310  173.7020  143.6240 C   0  0  0  0  0  2  0  0  0  0  0  0
  191.5530  172.9130  142.3060 C   0  0  0  0  0  2  0  0  0  0  0  0
  188.7550  174.4750  142.5300 C   0  0  0  0  0  2  0  0  0  0  0  0
  191.9480  172.1950  140.0680 N   0  0  0  0  0  1  0  0  0  0  0  0
  190.0780  173.7850  140.4760 C   0  0  0  0  0  3  0  0  0  0  0  0
  189.2610  174.2390  141.3670 C   0  0  0  0  0  2  0  0  0  0  0  0
  191.2050  172.9760  140.9960 C   0  0  0  0  0  0  0  0  0  0  0  0
  190.9720  173.7190  143.4690 C   0  0  2  0  0  3  0  0  0  0  0  0
  1  5  2  0  0  0  0
  2  1  1  0  0  0  0
  3  7  1  0  0  0  0
  4  3  2  0  0  0  0
  4  2  1  0  0  0  0
  5 14  1  0  0  0  0
  5  8  1  0  0  0  0
  6  3  1  0  0  0  0
  7  8  2  0  0  0  0
 10 12  2  0  0  0  0
 10 14  1  0  0  0  0
 11 15  1  0  0  0  0
 11  9  2  0  0  0  0
 12 11  1  0  0  0  0
 13  9  1  0  0  0  0
 14 13  2  0  0  0  0
 16 15  1  0  0  0  0
 17 16  1  0  0  0  0
 18 24  1  1  0  0  0
 18 20  1  0  0  0  0
 19 21  1  6  0  0  0
 19 18  1  0  0  0  0
 19 20  1  0  0  0  0
 20 17  1  0  0  0  0
 22 24  2  0  0  0  0
 24 23  1  0  0  0  0
 25  1  1  0  0  0  0
 27 33  1  0  0  0  0
 28 26  1  0  0  0  0
 29 32  1  0  0  0  0
 30 32  2  0  0  0  0
 30 31  1  0  0  0  0
 31 28  1  0  0  0  0
 32 27  1  0  0  0  0
 33 26  1  0  0  0  0
 33 25  1  1  0  0  0
M  END
>  <MODEL>
2

>  <REMARK>
 VINA RESULT:      -7.3      1.784      2.209
  Name = 
  8 active torsions:
  status: ('A' for Active; 'I' for Inactive)
    1  A    between atoms: C_3  and  C_29
    2  A    between atoms: C_4  and  N_27
    3  A    between atoms: C_7  and  C_9
    4  A    between atoms: C_7  and  N_20
    5  A    between atoms: N_17  and  N_21
    6  A    between atoms: N_20  and  N_21
    7  A    between atoms: C_22  and  C_32
    8  A    between atoms: N_27  and  C_30
                            x       y       z     vdW  Elec       q    Type
                         _______ _______ _______ _____ _____    ______ ____

>  <TORSDO>
F 8

$$$$
=
 OpenBabel11042415043D

 33 36  0  0  1  0  0  0  0  0999 V2000
  192.4160  174.0790  145.5350 C   0  0  0  0  0  0  0  0  0  0  0  0
  193.8050  173.5160  145.6440 C   0  0  0  0  0  2  0  0  0  0  0  0
  195.0630  175.5670  145.0730 C   0  0  0  0  0  0  0  0  0  0  0  0
  194.7660  174.2950  144.8130 C   0  0  0  0  0  3  0  0  0  0  0  0
  192.1190  175.3000  146.0460 C   0  0  0  0  0  0  0  0  0  0  0  0
  196.0360  176.1910  144.3040 O   0  0  0  0  0  1  0  0  0  0  0  0
  194.4320  176.3310  146.1650 C   0  0  0  0  0  3  0  0  0  0  0  0
  193.1680  176.2040  146.5910 C   0  0  0  0  0  3  0  0  0  0  0  0
  188.4100  175.6550  146.8450 C   0  0  0  0  0  3  0  0  0  0  0  0
  190.3910  176.9930  145.3990 C   0  0  0  0  0  3  0  0  0  0  0  0
  188.0910  176.8190  146.1380 C   0  0  0  0  0  0  0  0  0  0  0  0
  189.0850  177.4890  145.4200 C   0  0  0  0  0  3  0  0  0  0  0  0
  189.7180  175.1640  146.8280 C   0  0  0  0  0  3  0  0  0  0  0  0
  190.7220  175.8160  146.0910 C   0  0  0  0  0  0  0  0  0  0  0  0
  186.6880  177.3210  146.1070 C   0  0  0  0  0  2  0  0  0  0  0  0
  186.0010  176.8350  144.9230 N   0  0  0  0  0  2  0  0  0  0  0  0
  186.4660  177.6020  143.8450 N   0  0  0  0  0  2  0  0  0  0  0  0
  186.6630  177.0260  141.5260 C   0  0  2  0  0  3  0  0  0  0  0  0
  185.8890  178.2520  141.7130 C   0  0  2  0  0  3  0  0  0  0  0  0
  185.7650  177.1740  142.7060 N   0  0  0  0  0  0  0  0  0  0  0  0
  184.6820  178.2290  140.8010 C   0  0  0  0  0  1  0  0  0  0  0  0
  188.6880  178.5130  141.6940 O   0  0  0  0  0  0  0  0  0  0  0  0
  188.8610  176.2630  142.0960 O   0  0  0  0  0  1  0  0  0  0  0  0
  188.1270  177.2450  141.8090 C   0  0  0  0  0  0  0  0  0  0  0  0
  191.4010  173.3000  144.8790 N   0  0  0  0  0  2  0  0  0  0  0  0
  191.8390  174.4440  142.7270 C   0  0  0  0  0  2  0  0  0  0  0  0
  189.6710  173.0350  143.1500 C   0  0  0  0  0  2  0  0  0  0  0  0
  191.9900  174.1960  141.2550 C   0  0  0  0  0  2  0  0  0  0  0  0
  187.6760  172.6400  141.9060 N   0  0  0  0  0  1  0  0  0  0  0  0
  189.7630  173.1390  140.6470 C   0  0  0  0  0  3  0  0  0  0  0  0
  190.9320  173.6810  140.7250 C   0  0  0  0  0  2  0  0  0  0  0  0
  189.0670  172.9330  141.9390 C   0  0  0  0  0  0  0  0  0  0  0  0
  191.1570  173.2500  143.4410 C   0  0  2  0  0  3  0  0  0  0  0  0
  1  2  1  0  0  0  0
  1  5  2  0  0  0  0
  3  7  1  0  0  0  0
  4  3  2  0  0  0  0
  4  2  1  0  0  0  0
  5 14  1  0  0  0  0
  5  8  1  0  0  0  0
  6  3  1  0  0  0  0
  7  8  2  0  0  0  0
 10 12  2  0  0  0  0
 10 14  1  0  0  0  0
 11  9  2  0  0  0  0
 12 11  1  0  0  0  0
 13  9  1  0  0  0  0
 14 13  2  0  0  0  0
 15 11  1  0  0  0  0
 16 15  1  0  0  0  0
 17 16  1  0  0  0  0
 18 19  1  0  0  0  0
 18 24  1  1  0  0  0
 18 20  1  0  0  0  0
 19 21  1  6  0  0  0
 19 20  1  0  0  0  0
 20 17  1  0  0  0  0
 22 24  2  0  0  0  0
 24 23  1  0  0  0  0
 25  1  1  0  0  0  0
 26 33  1  0  0  0  0
 27 33  1  0  0  0  0
 28 26  1  0  0  0  0
 29 32  1  0  0  0  0
 30 31  1  0  0  0  0
 30 32  2  0  0  0  0
 31 28  1  0  0  0  0
 32 27  1  0  0  0  0
 33 25  1  1  0  0  0
M  END
>  <MODEL>
3

>  <REMARK>
 VINA RESULT:      -7.2      1.677      2.110
  Name = 
  8 active torsions:
  status: ('A' for Active; 'I' for Inactive)
    1  A    between atoms: C_3  and  C_29
    2  A    between atoms: C_4  and  N_27
    3  A    between atoms: C_7  and  C_9
    4  A    between atoms: C_7  and  N_20
    5  A    between atoms: N_17  and  N_21
    6  A    between atoms: N_20  and  N_21
    7  A    between atoms: C_22  and  C_32
    8  A    between atoms: N_27  and  C_30
                            x       y       z     vdW  Elec       q    Type
                         _______ _______ _______ _____ _____    ______ ____

>  <TORSDO>
F 8

$$$$
=
 OpenBabel11042415043D

 33 36  0  0  1  0  0  0  0  0999 V2000
  192.6940  173.8930  145.4260 C   0  0  0  0  0  0  0  0  0  0  0  0
  194.0950  173.3530  145.4040 C   0  0  0  0  0  2  0  0  0  0  0  0
  195.2830  175.4690  144.9280 C   0  0  0  0  0  0  0  0  0  0  0  0
  194.9910  174.2170  144.5840 C   0  0  0  0  0  3  0  0  0  0  0  0
  192.4090  175.0620  146.0510 C   0  0  0  0  0  0  0  0  0  0  0  0
  196.1960  176.1740  144.1570 O   0  0  0  0  0  1  0  0  0  0  0  0
  194.7080  176.1300  146.1150 C   0  0  0  0  0  3  0  0  0  0  0  0
  193.4740  175.9420  146.6040 C   0  0  0  0  0  3  0  0  0  0  0  0
  188.7970  175.3630  147.2310 C   0  0  0  0  0  3  0  0  0  0  0  0
  190.5670  176.6720  145.5110 C   0  0  0  0  0  3  0  0  0  0  0  0
  188.3670  176.4780  146.5050 C   0  0  0  0  0  0  0  0  0  0  0  0
  189.2560  177.1340  145.6500 C   0  0  0  0  0  3  0  0  0  0  0  0
  190.1110  174.9060  147.0960 C   0  0  0  0  0  3  0  0  0  0  0  0
  191.0090  175.5440  146.2220 C   0  0  0  0  0  0  0  0  0  0  0  0
  186.9540  176.9400  146.6010 C   0  0  0  0  0  2  0  0  0  0  0  0
  186.1790  176.4430  145.4780 N   0  0  0  0  0  2  0  0  0  0  0  0
  185.4180  177.5220  145.0060 N   0  0  0  0  0  2  0  0  0  0  0  0
  185.6320  178.9570  143.0970 C   0  0  2  0  0  3  0  0  0  0  0  0
  186.4450  177.7510  142.9580 C   0  0  2  0  0  3  0  0  0  0  0  0
  186.2920  178.3560  144.2900 N   0  0  0  0  0  0  0  0  0  0  0  0
  187.8010  178.1190  142.3970 C   0  0  0  0  0  1  0  0  0  0  0  0
  183.2420  179.2040  143.8510 O   0  0  0  0  0  1  0  0  0  0  0  0
  183.7680  177.8490  142.0780 O   0  0  0  0  0  0  0  0  0  0  0  0
  184.1620  178.6540  142.9640 C   0  0  0  0  0  0  0  0  0  0  0  0
  191.6530  173.1480  144.7710 N   0  0  0  0  0  2  0  0  0  0  0  0
  192.0310  174.4020  142.6690 C   0  0  0  0  0  2  0  0  0  0  0  0
  189.8220  173.0690  143.1280 C   0  0  0  0  0  2  0  0  0  0  0  0
  192.0910  174.2400  141.1790 C   0  0  0  0  0  2  0  0  0  0  0  0
  187.7470  172.8430  141.9770 N   0  0  0  0  0  1  0  0  0  0  0  0
  189.7860  173.3240  140.6350 C   0  0  0  0  0  3  0  0  0  0  0  0
  190.9830  173.8070  140.6790 C   0  0  0  0  0  2  0  0  0  0  0  0
  189.1510  173.0700  141.9490 C   0  0  0  0  0  0  0  0  0  0  0  0
  191.3310  173.1990  143.3480 C   0  0  2  0  0  3  0  0  0  0  0  0
  1  5  2  0  0  0  0
  2  1  1  0  0  0  0
  3  7  1  0  0  0  0
  4  3  2  0  0  0  0
  4  2  1  0  0  0  0
  5 14  1  0  0  0  0
  5  8  1  0  0  0  0
  6  3  1  0  0  0  0
  7  8  2  0  0  0  0
 10 12  2  0  0  0  0
 10 14  1  0  0  0  0
 11 15  1  0  0  0  0
 11  9  2  0  0  0  0
 12 11  1  0  0  0  0
 13  9  1  0  0  0  0
 14 13  2  0  0  0  0
 16 15  1  0  0  0  0
 17 16  1  0  0  0  0
 18 24  1  1  0  0  0
 18 20  1  0  0  0  0
 19 21  1  6  0  0  0
 19 18  1  0  0  0  0
 19 20  1  0  0  0  0
 20 17  1  0  0  0  0
 23 24  2  0  0  0  0
 24 22  1  0  0  0  0
 25  1  1  0  0  0  0
 26 33  1  0  0  0  0
 27 33  1  0  0  0  0
 28 26  1  0  0  0  0
 30 31  1  0  0  0  0
 30 32  2  0  0  0  0
 31 28  1  0  0  0  0
 32 29  1  0  0  0  0
 32 27  1  0  0  0  0
 33 25  1  1  0  0  0
M  END
>  <MODEL>
4

>  <REMARK>
 VINA RESULT:      -7.2      1.816      2.256
  Name = 
  8 active torsions:
  status: ('A' for Active; 'I' for Inactive)
    1  A    between atoms: C_3  and  C_29
    2  A    between atoms: C_4  and  N_27
    3  A    between atoms: C_7  and  C_9
    4  A    between atoms: C_7  and  N_20
    5  A    between atoms: N_17  and  N_21
    6  A    between atoms: N_20  and  N_21
    7  A    between atoms: C_22  and  C_32
    8  A    between atoms: N_27  and  C_30
                            x       y       z     vdW  Elec       q    Type
                         _______ _______ _______ _____ _____    ______ ____

>  <TORSDO>
F 8

$$$$
=
 OpenBabel11042415043D

 33 36  0  0  1  0  0  0  0  0999 V2000
  187.6810  177.8670  142.5120 C   0  0  0  0  0  0  0  0  0  0  0  0
  186.8700  178.6380  141.5100 C   0  0  0  0  0  2  0  0  0  0  0  0
  184.6400  178.3040  142.5270 C   0  0  0  0  0  0  0  0  0  0  0  0
  185.4570  178.1650  141.4850 C   0  0  0  0  0  3  0  0  0  0  0  0
  187.4440  177.9920  143.8420 C   0  0  0  0  0  0  0  0  0  0  0  0
  183.3150  177.9170  142.3880 O   0  0  0  0  0  1  0  0  0  0  0  0
  185.0720  178.8860  143.8110 C   0  0  0  0  0  3  0  0  0  0  0  0
  186.2840  178.7620  144.3690 C   0  0  0  0  0  3  0  0  0  0  0  0
  190.4460  177.2320  146.0630 C   0  0  0  0  0  3  0  0  0  0  0  0
  187.8630  176.2700  145.6110 C   0  0  0  0  0  3  0  0  0  0  0  0
  189.9740  176.1350  146.7900 C   0  0  0  0  0  0  0  0  0  0  0  0
  188.6800  175.6590  146.5660 C   0  0  0  0  0  3  0  0  0  0  0  0
  189.6260  177.8450  145.1130 C   0  0  0  0  0  3  0  0  0  0  0  0
  188.3290  177.3620  144.8630 C   0  0  0  0  0  0  0  0  0  0  0  0
  190.8600  175.4400  147.7670 C   0  0  0  0  0  2  0  0  0  0  0  0
  192.2220  175.3820  147.2660 N   0  0  0  0  0  2  0  0  0  0  0  0
  192.2440  174.3860  146.2780 N   0  0  0  0  0  2  0  0  0  0  0  0
  193.6340  173.8940  144.3870 C   0  0  2  0  0  3  0  0  0  0  0  0
  194.3370  174.7110  145.3740 C   0  0  2  0  0  3  0  0  0  0  0  0
  192.8980  174.9330  145.1620 N   0  0  0  0  0  0  0  0  0  0  0  0
  195.1170  175.7970  144.6650 C   0  0  0  0  0  1  0  0  0  0  0  0
  192.3840  171.7080  144.3990 O   0  0  0  0  0  0  0  0  0  0  0  0
  194.2030  172.0160  145.7610 O   0  0  0  0  0  1  0  0  0  0  0  0
  193.4390  172.4810  144.8730 C   0  0  0  0  0  0  0  0  0  0  0  0
  188.7180  176.9920  142.0390 N   0  0  0  0  0  2  0  0  0  0  0  0
  189.9250  175.0360  142.9610 C   0  0  0  0  0  2  0  0  0  0  0  0
  188.5250  174.9030  140.7500 C   0  0  0  0  0  2  0  0  0  0  0  0
  189.7230  173.6310  143.4460 C   0  0  0  0  0  2  0  0  0  0  0  0
  188.1900  173.2230  139.0930 N   0  0  0  0  0  1  0  0  0  0  0  0
  188.7070  172.4940  141.4140 C   0  0  0  0  0  3  0  0  0  0  0  0
  189.2360  172.8550  142.5360 C   0  0  0  0  0  2  0  0  0  0  0  0
  188.4680  173.5840  140.4410 C   0  0  0  0  0  0  0  0  0  0  0  0
  188.7160  175.5350  142.1310 C   0  0  2  0  0  3  0  0  0  0  0  0
  1  5  2  0  0  0  0
  2  1  1  0  0  0  0
  3  7  1  0  0  0  0
  4  2  1  0  0  0  0
  4  3  2  0  0  0  0
  5  8  1  0  0  0  0
  5 14  1  0  0  0  0
  6  3  1  0  0  0  0
  7  8  2  0  0  0  0
  9 11  1  0  0  0  0
 10 12  1  0  0  0  0
 11 15  1  0  0  0  0
 12 11  2  0  0  0  0
 13  9  2  0  0  0  0
 14 13  1  0  0  0  0
 14 10  2  0  0  0  0
 16 15  1  0  0  0  0
 17 16  1  0  0  0  0
 18 24  1  1  0  0  0
 18 20  1  0  0  0  0
 18 19  1  0  0  0  0
 19 21  1  6  0  0  0
 20 19  1  0  0  0  0
 20 17  1  0  0  0  0
 22 24  2  0  0  0  0
 24 23  1  0  0  0  0
 25  1  1  0  0  0  0
 26 28  1  0  0  0  0
 27 33  1  0  0  0  0
 29 32  1  0  0  0  0
 30 31  1  0  0  0  0
 31 28  1  0  0  0  0
 32 27  1  0  0  0  0
 32 30  2  0  0  0  0
 33 25  1  6  0  0  0
 33 26  1  0  0  0  0
M  END
>  <MODEL>
5

>  <REMARK>
 VINA RESULT:      -7.1      2.555      6.489
  Name = 
  8 active torsions:
  status: ('A' for Active; 'I' for Inactive)
    1  A    between atoms: C_3  and  C_29
    2  A    between atoms: C_4  and  N_27
    3  A    between atoms: C_7  and  C_9
    4  A    between atoms: C_7  and  N_20
    5  A    between atoms: N_17  and  N_21
    6  A    between atoms: N_20  and  N_21
    7  A    between atoms: C_22  and  C_32
    8  A    between atoms: N_27  and  C_30
                            x       y       z     vdW  Elec       q    Type
                         _______ _______ _______ _____ _____    ______ ____

>  <TORSDO>
F 8

$$$$
=
 OpenBabel11042415043D

 33 36  0  0  1  0  0  0  0  0999 V2000
  192.7010  174.2380  145.4550 C   0  0  0  0  0  0  0  0  0  0  0  0
  194.1190  173.7460  145.3900 C   0  0  0  0  0  2  0  0  0  0  0  0
  195.1930  175.8580  144.6800 C   0  0  0  0  0  0  0  0  0  0  0  0
  194.9310  174.5720  144.4530 C   0  0  0  0  0  3  0  0  0  0  0  0
  192.4070  175.4420  146.0040 C   0  0  0  0  0  0  0  0  0  0  0  0
  196.0310  176.5290  143.8010 O   0  0  0  0  0  1  0  0  0  0  0  0
  194.6620  176.5900  145.8440 C   0  0  0  0  0  3  0  0  0  0  0  0
  193.4670  176.4000  146.4210 C   0  0  0  0  0  3  0  0  0  0  0  0
  189.2000  177.4990  145.9100 C   0  0  0  0  0  3  0  0  0  0  0  0
  190.1250  175.0860  146.9720 C   0  0  0  0  0  3  0  0  0  0  0  0
  188.3430  176.6990  146.6720 C   0  0  0  0  0  0  0  0  0  0  0  0
  188.8070  175.4900  147.1980 C   0  0  0  0  0  3  0  0  0  0  0  0
  190.5160  177.0910  145.6810 C   0  0  0  0  0  3  0  0  0  0  0  0
  191.0010  175.8870  146.2220 C   0  0  0  0  0  0  0  0  0  0  0  0
  186.9540  177.1500  146.9670 C   0  0  0  0  0  2  0  0  0  0  0  0
  186.0020  176.4540  146.1200 N   0  0  0  0  0  2  0  0  0  0  0  0
  186.3590  176.7410  144.7940 N   0  0  0  0  0  2  0  0  0  0  0  0
  185.7870  178.1610  142.9490 C   0  0  2  0  0  3  0  0  0  0  0  0
  186.1770  178.9360  144.1250 C   0  0  2  0  0  3  0  0  0  0  0  0
  185.4330  177.6810  144.3150 N   0  0  0  0  0  0  0  0  0  0  0  0
  185.2310  180.1050  144.2940 C   0  0  0  0  0  1  0  0  0  0  0  0
  188.2620  177.9440  142.5390 O   0  0  0  0  0  1  0  0  0  0  0  0
  186.7870  176.4990  141.5440 O   0  0  0  0  0  0  0  0  0  0  0  0
  186.9710  177.4730  142.3210 C   0  0  0  0  0  0  0  0  0  0  0  0
  191.6550  173.4070  144.9240 N   0  0  0  0  0  2  0  0  0  0  0  0
  189.9700  174.2500  143.3170 C   0  0  0  0  0  2  0  0  0  0  0  0
  191.1280  171.9160  143.0380 C   0  0  0  0  0  2  0  0  0  0  0  0
  189.7670  174.5800  141.8670 C   0  0  0  0  0  2  0  0  0  0  0  0
  190.8390  170.0850  141.5400 N   0  0  0  0  0  1  0  0  0  0  0  0
  190.2660  172.3660  140.7280 C   0  0  0  0  0  3  0  0  0  0  0  0
  189.9410  173.5600  141.0950 C   0  0  0  0  0  2  0  0  0  0  0  0
  190.7650  171.4800  141.8060 C   0  0  0  0  0  0  0  0  0  0  0  0
  191.2210  173.3620  143.5310 C   0  0  2  0  0  3  0  0  0  0  0  0
  1  5  2  0  0  0  0
  2  1  1  0  0  0  0
  3  7  1  0  0  0  0
  4  3  2  0  0  0  0
  4  2  1  0  0  0  0
  5 14  1  0  0  0  0
  5  8  1  0  0  0  0
  6  3  1  0  0  0  0
  7  8  2  0  0  0  0
  9 11  1  0  0  0  0
 10 12  1  0  0  0  0
 11 15  1  0  0  0  0
 11 12  2  0  0  0  0
 13  9  2  0  0  0  0
 13 14  1  0  0  0  0
 14 10  2  0  0  0  0
 16 15  1  0  0  0  0
 17 16  1  0  0  0  0
 18 24  1  1  0  0  0
 18 19  1  0  0  0  0
 18 20  1  0  0  0  0
 19 21  1  6  0  0  0
 19 20  1  0  0  0  0
 20 17  1  0  0  0  0
 23 24  2  0  0  0  0
 24 22  1  0  0  0  0
 25  1  1  0  0  0  0
 26 33  1  0  0  0  0
 27 33  1  0  0  0  0
 28 26  1  0  0  0  0
 29 32  1  0  0  0  0
 30 31  1  0  0  0  0
 30 32  2  0  0  0  0
 31 28  1  0  0  0  0
 32 27  1  0  0  0  0
 33 25  1  1  0  0  0
M  END
>  <MODEL>
6

>  <REMARK>
 VINA RESULT:      -7.0      1.521      2.023
  Name = 
  8 active torsions:
  status: ('A' for Active; 'I' for Inactive)
    1  A    between atoms: C_3  and  C_29
    2  A    between atoms: C_4  and  N_27
    3  A    between atoms: C_7  and  C_9
    4  A    between atoms: C_7  and  N_20
    5  A    between atoms: N_17  and  N_21
    6  A    between atoms: N_20  and  N_21
    7  A    between atoms: C_22  and  C_32
    8  A    between atoms: N_27  and  C_30
                            x       y       z     vdW  Elec       q    Type
                         _______ _______ _______ _____ _____    ______ ____

>  <TORSDO>
F 8

$$$$
=
 OpenBabel11042415043D

 33 36  0  0  1  0  0  0  0  0999 V2000
  188.1880  176.0400  143.2470 C   0  0  0  0  0  0  0  0  0  0  0  0
  187.0450  175.5690  142.3940 C   0  0  0  0  0  2  0  0  0  0  0  0
  188.3640  174.6160  140.5310 C   0  0  0  0  0  0  0  0  0  0  0  0
  187.4460  175.4800  140.9610 C   0  0  0  0  0  3  0  0  0  0  0  0
  189.2830  175.2620  143.4340 C   0  0  0  0  0  0  0  0  0  0  0  0
  188.6130  174.5370  139.1680 O   0  0  0  0  0  1  0  0  0  0  0  0
  189.1010  173.7130  141.4340 C   0  0  0  0  0  3  0  0  0  0  0  0
  189.4830  173.9880  142.6890 C   0  0  0  0  0  3  0  0  0  0  0  0
  192.3960  176.8490  144.9540 C   0  0  0  0  0  3  0  0  0  0  0  0
  190.3510  175.0960  145.6930 C   0  0  0  0  0  3  0  0  0  0  0  0
  192.3830  176.2950  146.2370 C   0  0  0  0  0  0  0  0  0  0  0  0
  191.3560  175.4230  146.6060 C   0  0  0  0  0  3  0  0  0  0  0  0
  191.3870  176.5260  144.0430 C   0  0  0  0  0  3  0  0  0  0  0  0
  190.3600  175.6330  144.3950 C   0  0  0  0  0  0  0  0  0  0  0  0
  193.4840  176.5910  147.1970 C   0  0  0  0  0  2  0  0  0  0  0  0
  194.7620  176.6340  146.5080 N   0  0  0  0  0  2  0  0  0  0  0  0
  195.1160  175.3040  146.2350 N   0  0  0  0  0  2  0  0  0  0  0  0
  195.3990  174.0750  144.1960 C   0  0  2  0  0  3  0  0  0  0  0  0
  196.6400  174.1350  144.9650 C   0  0  2  0  0  3  0  0  0  0  0  0
  195.7390  175.2980  144.9760 N   0  0  0  0  0  0  0  0  0  0  0  0
  197.7980  174.4120  144.0330 C   0  0  0  0  0  1  0  0  0  0  0  0
  194.7930  172.1690  145.7260 O   0  0  0  0  0  1  0  0  0  0  0  0
  193.1690  173.2740  144.5440 O   0  0  0  0  0  0  0  0  0  0  0  0
  194.3870  173.1670  144.8460 C   0  0  0  0  0  0  0  0  0  0  0  0
  188.1030  177.3340  143.8680 N   0  0  0  0  0  2  0  0  0  0  0  0
  186.9630  176.6990  145.9720 C   0  0  0  0  0  2  0  0  0  0  0  0
  185.8090  178.1800  144.1450 C   0  0  0  0  0  2  0  0  0  0  0  0
  186.2990  177.2740  147.1880 C   0  0  0  0  0  2  0  0  0  0  0  0
  183.6120  179.0620  143.8640 N   0  0  0  0  0  1  0  0  0  0  0  0
  184.4300  178.6680  146.1800 C   0  0  0  0  0  3  0  0  0  0  0  0
  185.2760  178.0060  146.8970 C   0  0  0  0  0  2  0  0  0  0  0  0
  184.6640  178.6290  144.7180 C   0  0  0  0  0  0  0  0  0  0  0  0
  187.1010  177.7510  144.8430 C   0  0  2  0  0  3  0  0  0  0  0  0
  1  5  2  0  0  0  0
  1 25  1  0  0  0  0
  2  1  1  0  0  0  0
  3  4  2  0  0  0  0
  3  7  1  0  0  0  0
  4  2  1  0  0  0  0
  5 14  1  0  0  0  0
  6  3  1  0  0  0  0
  7  8  2  0  0  0  0
  8  5  1  0  0  0  0
  9 11  1  0  0  0  0
 10 12  1  0  0  0  0
 11 12  2  0  0  0  0
 11 15  1  0  0  0  0
 13 14  1  0  0  0  0
 13  9  2  0  0  0  0
 14 10  2  0  0  0  0
 16 15  1  0  0  0  0
 17 16  1  0  0  0  0
 18 24  1  1  0  0  0
 18 19  1  0  0  0  0
 18 20  1  0  0  0  0
 19 21  1  6  0  0  0
 19 20  1  0  0  0  0
 20 17  1  0  0  0  0
 23 24  2  0  0  0  0
 24 22  1  0  0  0  0
 26 28  1  0  0  0  0
 27 32  1  0  0  0  0
 27 33  1  0  0  0  0
 29 32  1  0  0  0  0
 30 31  1  0  0  0  0
 31 28  1  0  0  0  0
 32 30  2  0  0  0  0
 33 25  1  6  0  0  0
 33 26  1  0  0  0  0
M  END
>  <MODEL>
7

>  <REMARK>
 VINA RESULT:      -6.9      2.759      7.565
  Name = 
  8 active torsions:
  status: ('A' for Active; 'I' for Inactive)
    1  A    between atoms: C_3  and  C_29
    2  A    between atoms: C_4  and  N_27
    3  A    between atoms: C_7  and  C_9
    4  A    between atoms: C_7  and  N_20
    5  A    between atoms: N_17  and  N_21
    6  A    between atoms: N_20  and  N_21
    7  A    between atoms: C_22  and  C_32
    8  A    between atoms: N_27  and  C_30
                            x       y       z     vdW  Elec       q    Type
                         _______ _______ _______ _____ _____    ______ ____

>  <TORSDO>
F 8

$$$$
=
 OpenBabel11042415043D

 33 36  0  0  1  0  0  0  0  0999 V2000
  194.0620  174.3440  145.3340 C   0  0  0  0  0  0  0  0  0  0  0  0
  195.4660  173.8670  145.0880 C   0  0  0  0  0  2  0  0  0  0  0  0
  196.1070  175.5260  143.3710 C   0  0  0  0  0  0  0  0  0  0  0  0
  195.9340  174.2550  143.7280 C   0  0  0  0  0  3  0  0  0  0  0  0
  193.7860  175.6670  145.4400 C   0  0  0  0  0  0  0  0  0  0  0  0
  196.6310  175.7970  142.1150 O   0  0  0  0  0  1  0  0  0  0  0  0
  195.8020  176.6590  144.2640 C   0  0  0  0  0  3  0  0  0  0  0  0
  194.8100  176.7120  145.1640 C   0  0  0  0  0  3  0  0  0  0  0  0
  190.6890  176.4900  147.5020 C   0  0  0  0  0  3  0  0  0  0  0  0
  191.6170  176.7890  144.8840 C   0  0  0  0  0  3  0  0  0  0  0  0
  189.8770  177.0980  146.5390 C   0  0  0  0  0  0  0  0  0  0  0  0
  190.3450  177.2500  145.2320 C   0  0  0  0  0  3  0  0  0  0  0  0
  191.9630  176.0340  147.1530 C   0  0  0  0  0  3  0  0  0  0  0  0
  192.4370  176.1620  145.8360 C   0  0  0  0  0  0  0  0  0  0  0  0
  188.4970  177.5390  146.8880 C   0  0  0  0  0  2  0  0  0  0  0  0
  187.5130  176.7400  146.1780 N   0  0  0  0  0  2  0  0  0  0  0  0
  186.7860  177.6240  145.3680 N   0  0  0  0  0  2  0  0  0  0  0  0
  186.4410  178.1770  143.0600 C   0  0  2  0  0  3  0  0  0  0  0  0
  186.3430  176.7370  143.2890 C   0  0  2  0  0  3  0  0  0  0  0  0
  187.3150  177.5170  144.0700 N   0  0  0  0  0  0  0  0  0  0  0  0
  187.0690  176.0010  142.1850 C   0  0  0  0  0  1  0  0  0  0  0  0
  185.4100  180.1690  144.2040 O   0  0  0  0  0  1  0  0  0  0  0  0
  184.1230  178.3590  143.6350 O   0  0  0  0  0  0  0  0  0  0  0  0
  185.2550  178.9120  143.6280 C   0  0  0  0  0  0  0  0  0  0  0  0
  193.0110  173.3710  145.4580 N   0  0  0  0  0  2  0  0  0  0  0  0
  190.5860  173.3270  144.9600 C   0  0  0  0  0  2  0  0  0  0  0  0
  192.2750  171.6630  143.8450 C   0  0  0  0  0  2  0  0  0  0  0  0
  189.5980  173.4380  143.8360 C   0  0  0  0  0  2  0  0  0  0  0  0
  192.0460  169.7720  142.4130 N   0  0  0  0  0  1  0  0  0  0  0  0
  190.3100  171.5490  142.2950 C   0  0  0  0  0  3  0  0  0  0  0  0
  189.7620  172.5270  142.9360 C   0  0  0  0  0  2  0  0  0  0  0  0
  191.5680  171.0280  142.8770 C   0  0  0  0  0  0  0  0  0  0  0  0
  192.0180  173.0500  144.4370 C   0  0  2  0  0  3  0  0  0  0  0  0
  1  5  2  0  0  0  0
  1 25  1  0  0  0  0
  2  1  1  0  0  0  0
  3  4  2  0  0  0  0
  3  7  1  0  0  0  0
  4  2  1  0  0  0  0
  5 14  1  0  0  0  0
  6  3  1  0  0  0  0
  7  8  2  0  0  0  0
  8  5  1  0  0  0  0
 10 12  2  0  0  0  0
 10 14  1  0  0  0  0
 11 15  1  0  0  0  0
 11  9  2  0  0  0  0
 12 11  1  0  0  0  0
 13  9  1  0  0  0  0
 14 13  2  0  0  0  0
 16 15  1  0  0  0  0
 17 16  1  0  0  0  0
 18 19  1  0  0  0  0
 18 24  1  1  0  0  0
 18 20  1  0  0  0  0
 19 21  1  6  0  0  0
 19 20  1  0  0  0  0
 20 17  1  0  0  0  0
 24 23  2  0  0  0  0
 24 22  1  0  0  0  0
 27 33  1  0  0  0  0
 28 26  1  0  0  0  0
 29 32  1  0  0  0  0
 30 32  2  0  0  0  0
 30 31  1  0  0  0  0
 31 28  1  0  0  0  0
 32 27  1  0  0  0  0
 33 26  1  0  0  0  0
 33 25  1  1  0  0  0
M  END
>  <MODEL>
8

>  <REMARK>
 VINA RESULT:      -6.8      2.227      2.965
  Name = 
  8 active torsions:
  status: ('A' for Active; 'I' for Inactive)
    1  A    between atoms: C_3  and  C_29
    2  A    between atoms: C_4  and  N_27
    3  A    between atoms: C_7  and  C_9
    4  A    between atoms: C_7  and  N_20
    5  A    between atoms: N_17  and  N_21
    6  A    between atoms: N_20  and  N_21
    7  A    between atoms: C_22  and  C_32
    8  A    between atoms: N_27  and  C_30
                            x       y       z     vdW  Elec       q    Type
                         _______ _______ _______ _____ _____    ______ ____

>  <TORSDO>
F 8

$$$$
=
 OpenBabel11042415043D

 33 36  0  0  1  0  0  0  0  0999 V2000
  193.5280  173.1750  145.1230 C   0  0  0  0  0  0  0  0  0  0  0  0
  194.7510  172.3290  144.9130 C   0  0  0  0  0  2  0  0  0  0  0  0
  196.2740  174.1010  144.1030 C   0  0  0  0  0  0  0  0  0  0  0  0
  195.6580  172.9380  143.9000 C   0  0  0  0  0  3  0  0  0  0  0  0
  193.6210  174.3970  145.7030 C   0  0  0  0  0  0  0  0  0  0  0  0
  197.1710  174.5540  143.1460 O   0  0  0  0  0  1  0  0  0  0  0  0
  196.0730  174.9130  145.3180 C   0  0  0  0  0  3  0  0  0  0  0  0
  194.9330  175.0270  146.0140 C   0  0  0  0  0  3  0  0  0  0  0  0
  190.5860  175.7240  147.5890 C   0  0  0  0  0  3  0  0  0  0  0  0
  191.9480  176.1900  145.1950 C   0  0  0  0  0  3  0  0  0  0  0  0
  190.1260  176.7040  146.7050 C   0  0  0  0  0  0  0  0  0  0  0  0
  190.8110  176.9390  145.5110 C   0  0  0  0  0  3  0  0  0  0  0  0
  191.7260  174.9800  147.2750 C   0  0  0  0  0  3  0  0  0  0  0  0
  192.4130  175.1920  146.0660 C   0  0  0  0  0  0  0  0  0  0  0  0
  188.8810  177.4660  147.0060 C   0  0  0  0  0  2  0  0  0  0  0  0
  187.7090  176.6500  146.7410 N   0  0  0  0  0  2  0  0  0  0  0  0
  187.2280  177.0360  145.4810 N   0  0  0  0  0  2  0  0  0  0  0  0
  185.1950  177.3720  144.2540 C   0  0  2  0  0  3  0  0  0  0  0  0
  185.3990  178.4170  145.2550 C   0  0  2  0  0  3  0  0  0  0  0  0
  185.8250  177.0430  145.5640 N   0  0  0  0  0  0  0  0  0  0  0  0
  184.0910  178.7010  145.9600 C   0  0  0  0  0  1  0  0  0  0  0  0
  186.6940  178.7520  142.7760 O   0  0  0  0  0  1  0  0  0  0  0  0
  186.4320  176.5070  142.3930 O   0  0  0  0  0  0  0  0  0  0  0  0
  186.1570  177.5110  143.1030 C   0  0  0  0  0  0  0  0  0  0  0  0
  192.2520  172.6680  144.7000 N   0  0  0  0  0  2  0  0  0  0  0  0
  189.9480  173.3310  144.0810 C   0  0  0  0  0  2  0  0  0  0  0  0
  191.6840  172.4830  142.3120 C   0  0  0  0  0  2  0  0  0  0  0  0
  189.1730  174.2740  143.2090 C   0  0  0  0  0  2  0  0  0  0  0  0
  191.5720  171.9650  139.9880 N   0  0  0  0  0  1  0  0  0  0  0  0
  190.0040  173.6760  140.8850 C   0  0  0  0  0  3  0  0  0  0  0  0
  189.4240  174.1110  141.9530 C   0  0  0  0  0  2  0  0  0  0  0  0
  191.1090  172.7130  141.1060 C   0  0  0  0  0  0  0  0  0  0  0  0
  191.4250  173.2170  143.6290 C   0  0  2  0  0  3  0  0  0  0  0  0
  1  5  2  0  0  0  0
  2  1  1  0  0  0  0
  3  7  1  0  0  0  0
  4  3  2  0  0  0  0
  4  2  1  0  0  0  0
  5  8  1  0  0  0  0
  5 14  1  0  0  0  0
  6  3  1  0  0  0  0
  7  8  2  0  0  0  0
 10 12  2  0  0  0  0
 10 14  1  0  0  0  0
 11 15  1  0  0  0  0
 11  9  2  0  0  0  0
 12 11  1  0  0  0  0
 13  9  1  0  0  0  0
 14 13  2  0  0  0  0
 16 15  1  0  0  0  0
 17 20  1  0  0  0  0
 17 16  1  0  0  0  0
 18 24  1  6  0  0  0
 18 19  1  0  0  0  0
 18 20  1  0  0  0  0
 19 20  1  0  0  0  0
 19 21  1  1  0  0  0
 22 24  1  0  0  0  0
 23 24  2  0  0  0  0
 25  1  1  0  0  0  0
 27 33  1  0  0  0  0
 28 26  1  0  0  0  0
 29 32  1  0  0  0  0
 30 32  2  0  0  0  0
 30 31  1  0  0  0  0
 31 28  1  0  0  0  0
 32 27  1  0  0  0  0
 33 26  1  0  0  0  0
 33 25  1  1  0  0  0
M  END
>  <MODEL>
9

>  <REMARK>
 VINA RESULT:      -6.7      2.081      2.561
  Name = 
  8 active torsions:
  status: ('A' for Active; 'I' for Inactive)
    1  A    between atoms: C_3  and  C_29
    2  A    between atoms: C_4  and  N_27
    3  A    between atoms: C_7  and  C_9
    4  A    between atoms: C_7  and  N_20
    5  A    between atoms: N_17  and  N_21
    6  A    between atoms: N_20  and  N_21
    7  A    between atoms: C_22  and  C_32
    8  A    between atoms: N_27  and  C_30
                            x       y       z     vdW  Elec       q    Type
                         _______ _______ _______ _____ _____    ______ ____

>  <TORSDO>
F 8

$$$$
