=
 OpenBabel11042414413D

 28 29  0  0  1  0  0  0  0  0999 V2000
  183.3150  178.4930  142.6770 C   0  0  0  0  0  3  0  0  0  0  0  0
  184.6550  178.6200  143.0750 C   0  0  0  0  0  0  0  0  0  0  0  0
  184.0140  178.0790  140.3980 C   0  0  0  0  0  3  0  0  0  0  0  0
  185.6780  178.4750  142.1230 C   0  0  0  0  0  0  0  0  0  0  0  0
  185.3500  178.2040  140.7870 C   0  0  0  0  0  3  0  0  0  0  0  0
  182.9950  178.2270  141.3420 C   0  0  0  0  0  0  0  0  0  0  0  0
  184.9870  178.8930  144.4400 N   0  0  0  0  0  2  0  0  0  0  0  0
  184.0060  178.8740  145.5160 C   0  0  0  0  0  2  0  0  0  0  0  0
  185.1050  176.8440  146.3980 C   0  0  0  0  0  1  0  0  0  0  0  0
  185.7590  179.0590  147.2700 C   0  0  0  0  0  1  0  0  0  0  0  0
  184.6030  178.2280  146.7520 C   0  0  0  0  0  3  0  0  0  0  0  0
  187.0450  178.6020  142.5210 N   0  0  0  0  0  2  0  0  0  0  0  0
  187.9310  177.5160  142.4700 N   0  0  0  0  0  2  0  0  0  0  0  0
  190.7320  176.1210  144.4220 N   0  0  0  0  0  0  0  0  0  0  0  0
  189.2680  177.2330  145.9450 C   0  0  0  0  0  3  0  0  0  0  0  0
  188.4340  177.5760  144.8810 C   0  0  0  0  0  3  0  0  0  0  0  0
  188.7640  177.1800  143.5800 C   0  0  0  0  0  0  0  0  0  0  0  0
  189.9320  176.4460  143.3710 C   0  0  0  0  0  3  0  0  0  0  0  0
  190.4310  176.4940  145.6970 C   0  0  0  0  0  0  0  0  0  0  0  0
  192.5370  176.4760  146.7910 O   0  0  0  0  0  0  0  0  0  0  0  0
  190.8470  175.3650  147.8620 O   0  0  0  0  0  1  0  0  0  0  0  0
  191.3290  176.1190  146.7990 C   0  0  0  0  0  0  0  0  0  0  0  0
  181.5690  178.0770  140.9330 C   0  0  0  0  0  2  0  0  0  0  0  0
  180.6990  179.1370  141.5960 C   0  0  1  0  0  3  0  0  0  0  0  0
  180.4030  180.1560  140.6880 O   0  0  0  0  0  1  0  0  0  0  0  0
  178.7970  177.5040  141.3410 N   0  0  0  0  0  1  0  0  0  0  0  0
  178.9240  178.9110  143.1840 O   0  0  0  0  0  0  0  0  0  0  0  0
  179.4370  178.5230  142.1000 C   0  0  0  0  0  0  0  0  0  0  0  0
  1  2  1  0  0  0  0
  2  7  1  0  0  0  0
  3  5  2  0  0  0  0
  3  6  1  0  0  0  0
  4 12  1  0  0  0  0
  4  2  2  0  0  0  0
  5  4  1  0  0  0  0
  6  1  2  0  0  0  0
  7  8  1  0  0  0  0
  8 11  1  0  0  0  0
  9 11  1  0  0  0  0
 11 10  1  0  0  0  0
 13 12  1  0  0  0  0
 13 17  1  0  0  0  0
 14 19  1  0  0  0  0
 16 15  1  0  0  0  0
 17 16  2  0  0  0  0
 18 17  1  0  0  0  0
 18 14  2  0  0  0  0
 19 15  2  0  0  0  0
 19 22  1  0  0  0  0
 20 22  2  0  0  0  0
 22 21  1  0  0  0  0
 23  6  1  0  0  0  0
 23 24  1  0  0  0  0
 24 25  1  6  0  0  0
 24 28  1  0  0  0  0
 26 28  1  0  0  0  0
 28 27  2  0  0  0  0
M  END
>  <MODEL>
1

>  <REMARK>
 VINA RESULT:      -7.0      0.000      0.000
  Name = 
  10 active torsions:
  status: ('A' for Active; 'I' for Inactive)
    1  A    between atoms: N_2  and  C_15
    2  A    between atoms: N_2  and  N_23
    3  A    between atoms: C_7  and  N_11
    4  A    between atoms: C_8  and  N_11
    5  A    between atoms: C_8  and  C_14
    6  A    between atoms: C_18  and  C_25
    7  A    between atoms: C_18  and  C_26
    8  A    between atoms: CA_19  and  C_22
    9  A    between atoms: N_23  and  C_24
   10  A    between atoms: C_26  and  C_28
                            x       y       z     vdW  Elec       q    Type
                         _______ _______ _______ _____ _____    ______ ____

>  <TORSDO>
F 10

$$$$
=
 OpenBabel11042414413D

 28 29  0  0  1  0  0  0  0  0999 V2000
  187.0250  176.9330  144.5150 C   0  0  0  0  0  3  0  0  0  0  0  0
  187.8680  177.1460  145.6160 C   0  0  0  0  0  0  0  0  0  0  0  0
  188.9440  176.7960  143.0500 C   0  0  0  0  0  3  0  0  0  0  0  0
  189.2600  177.1840  145.4260 C   0  0  0  0  0  0  0  0  0  0  0  0
  189.7900  177.0070  144.1400 C   0  0  0  0  0  3  0  0  0  0  0  0
  187.5600  176.7620  143.2350 C   0  0  0  0  0  0  0  0  0  0  0  0
  187.3250  177.3230  146.9280 N   0  0  0  0  0  2  0  0  0  0  0  0
  185.9530  176.9750  147.2740 C   0  0  0  0  0  2  0  0  0  0  0  0
  186.0720  179.4110  147.6730 C   0  0  0  0  0  1  0  0  0  0  0  0
  184.2480  178.4920  146.2860 C   0  0  0  0  0  1  0  0  0  0  0  0
  185.1360  178.2360  147.4870 C   0  0  0  0  0  3  0  0  0  0  0  0
  190.1260  177.3990  146.5430 N   0  0  0  0  0  2  0  0  0  0  0  0
  190.7850  176.3380  147.1800 N   0  0  0  0  0  2  0  0  0  0  0  0
  194.4180  176.2970  146.5450 N   0  0  0  0  0  0  0  0  0  0  0  0
  193.5140  174.2450  145.7240 C   0  0  0  0  0  3  0  0  0  0  0  0
  192.2430  174.6510  146.1320 C   0  0  0  0  0  3  0  0  0  0  0  0
  192.0720  175.8950  146.7510 C   0  0  0  0  0  0  0  0  0  0  0  0
  193.1870  176.7100  146.9510 C   0  0  0  0  0  3  0  0  0  0  0  0
  194.6090  175.0920  145.9400 C   0  0  0  0  0  0  0  0  0  0  0  0
  196.4660  175.1500  144.4640 O   0  0  0  0  0  0  0  0  0  0  0  0
  196.6890  173.7970  146.2970 O   0  0  0  0  0  1  0  0  0  0  0  0
  195.9590  174.6900  145.5220 C   0  0  0  0  0  0  0  0  0  0  0  0
  186.6550  176.5200  142.0750 C   0  0  0  0  0  2  0  0  0  0  0  0
  186.2690  177.8310  141.4040 C   0  0  1  0  0  3  0  0  0  0  0  0
  186.6180  177.8020  140.0520 O   0  0  0  0  0  1  0  0  0  0  0  0
  184.0260  178.3850  140.3980 N   0  0  0  0  0  1  0  0  0  0  0  0
  184.2520  178.0040  142.6770 O   0  0  0  0  0  0  0  0  0  0  0  0
  184.8030  178.0670  141.5460 C   0  0  0  0  0  0  0  0  0  0  0  0
  1  2  1  0  0  0  0
  2  7  1  0  0  0  0
  3  6  1  0  0  0  0
  3  5  2  0  0  0  0
  4  2  2  0  0  0  0
  4 12  1  0  0  0  0
  5  4  1  0  0  0  0
  6  1  2  0  0  0  0
  7  8  1  0  0  0  0
  8 11  1  0  0  0  0
 10 11  1  0  0  0  0
 11  9  1  0  0  0  0
 12 13  1  0  0  0  0
 14 18  1  0  0  0  0
 15 19  1  0  0  0  0
 15 16  2  0  0  0  0
 16 17  1  0  0  0  0
 17 18  2  0  0  0  0
 17 13  1  0  0  0  0
 19 14  2  0  0  0  0
 20 22  2  0  0  0  0
 22 19  1  0  0  0  0
 22 21  1  0  0  0  0
 23  6  1  0  0  0  0
 24 25  1  6  0  0  0
 24 28  1  0  0  0  0
 24 23  1  0  0  0  0
 26 28  1  0  0  0  0
 28 27  2  0  0  0  0
M  END
>  <MODEL>
2

>  <REMARK>
 VINA RESULT:      -6.6      3.153      4.891
  Name = 
  10 active torsions:
  status: ('A' for Active; 'I' for Inactive)
    1  A    between atoms: N_2  and  C_15
    2  A    between atoms: N_2  and  N_23
    3  A    between atoms: C_7  and  N_11
    4  A    between atoms: C_8  and  N_11
    5  A    between atoms: C_8  and  C_14
    6  A    between atoms: C_18  and  C_25
    7  A    between atoms: C_18  and  C_26
    8  A    between atoms: CA_19  and  C_22
    9  A    between atoms: N_23  and  C_24
   10  A    between atoms: C_26  and  C_28
                            x       y       z     vdW  Elec       q    Type
                         _______ _______ _______ _____ _____    ______ ____

>  <TORSDO>
F 10

$$$$
=
 OpenBabel11042414413D

 28 29  0  0  1  0  0  0  0  0999 V2000
  187.7730  177.1370  144.2600 C   0  0  0  0  0  3  0  0  0  0  0  0
  188.5920  176.1530  144.8340 C   0  0  0  0  0  0  0  0  0  0  0  0
  186.7730  177.5860  146.4160 C   0  0  0  0  0  3  0  0  0  0  0  0
  188.4970  175.8880  146.2110 C   0  0  0  0  0  0  0  0  0  0  0  0
  187.5850  176.6080  146.9950 C   0  0  0  0  0  3  0  0  0  0  0  0
  186.8630  177.8490  145.0470 C   0  0  0  0  0  0  0  0  0  0  0  0
  189.5250  175.4210  144.0320 N   0  0  0  0  0  2  0  0  0  0  0  0
  190.2980  176.0300  142.9590 C   0  0  0  0  0  2  0  0  0  0  0  0
  192.7120  176.4750  142.6630 C   0  0  0  0  0  1  0  0  0  0  0  0
  191.2490  178.2460  143.5700 C   0  0  0  0  0  1  0  0  0  0  0  0
  191.5030  176.7520  143.5320 C   0  0  0  0  0  3  0  0  0  0  0  0
  189.3290  174.8880  146.8030 N   0  0  0  0  0  2  0  0  0  0  0  0
  190.4860  175.2230  147.5210 N   0  0  0  0  0  2  0  0  0  0  0  0
  193.8120  176.4010  146.4450 N   0  0  0  0  0  0  0  0  0  0  0  0
  193.4900  174.2120  145.5460 C   0  0  0  0  0  3  0  0  0  0  0  0
  192.2310  174.1600  146.1440 C   0  0  0  0  0  3  0  0  0  0  0  0
  191.7700  175.2460  146.8970 C   0  0  0  0  0  0  0  0  0  0  0  0
  192.5870  176.3680  147.0360 C   0  0  0  0  0  3  0  0  0  0  0  0
  194.2820  175.3560  145.7070 C   0  0  0  0  0  0  0  0  0  0  0  0
  195.8880  176.3630  144.2790 O   0  0  0  0  0  0  0  0  0  0  0  0
  196.5810  174.4910  145.3990 O   0  0  0  0  0  1  0  0  0  0  0  0
  195.6130  175.4380  145.0890 C   0  0  0  0  0  0  0  0  0  0  0  0
  186.0090  178.9040  144.4300 C   0  0  0  0  0  2  0  0  0  0  0  0
  184.6740  178.3260  143.9780 C   0  0  1  0  0  3  0  0  0  0  0  0
  183.6200  179.0570  144.5310 O   0  0  0  0  0  1  0  0  0  0  0  0
  183.3230  178.1640  141.8580 N   0  0  0  0  0  1  0  0  0  0  0  0
  185.6170  178.5160  141.7880 O   0  0  0  0  0  0  0  0  0  0  0  0
  184.5830  178.3500  142.4900 C   0  0  0  0  0  0  0  0  0  0  0  0
  1  2  2  0  0  0  0
  1  6  1  0  0  0  0
  2  4  1  0  0  0  0
  3  5  1  0  0  0  0
  4 12  1  0  0  0  0
  4  5  2  0  0  0  0
  6  3  2  0  0  0  0
  7  2  1  0  0  0  0
  8 11  1  0  0  0  0
  8  7  1  0  0  0  0
  9 11  1  0  0  0  0
 11 10  1  0  0  0  0
 12 13  1  0  0  0  0
 14 18  1  0  0  0  0
 15 19  1  0  0  0  0
 15 16  2  0  0  0  0
 16 17  1  0  0  0  0
 17 18  2  0  0  0  0
 17 13  1  0  0  0  0
 19 14  2  0  0  0  0
 20 22  2  0  0  0  0
 22 21  1  0  0  0  0
 22 19  1  0  0  0  0
 23  6  1  0  0  0  0
 24 23  1  0  0  0  0
 24 25  1  1  0  0  0
 26 28  1  0  0  0  0
 27 28  2  0  0  0  0
 28 24  1  0  0  0  0
M  END
>  <MODEL>
3

>  <REMARK>
 VINA RESULT:      -6.5      3.051      5.736
  Name = 
  10 active torsions:
  status: ('A' for Active; 'I' for Inactive)
    1  A    between atoms: N_2  and  C_15
    2  A    between atoms: N_2  and  N_23
    3  A    between atoms: C_7  and  N_11
    4  A    between atoms: C_8  and  N_11
    5  A    between atoms: C_8  and  C_14
    6  A    between atoms: C_18  and  C_25
    7  A    between atoms: C_18  and  C_26
    8  A    between atoms: CA_19  and  C_22
    9  A    between atoms: N_23  and  C_24
   10  A    between atoms: C_26  and  C_28
                            x       y       z     vdW  Elec       q    Type
                         _______ _______ _______ _____ _____    ______ ____

>  <TORSDO>
F 10

$$$$
=
 OpenBabel11042414413D

 28 29  0  0  1  0  0  0  0  0999 V2000
  192.0280  174.6650  145.8290 C   0  0  0  0  0  3  0  0  0  0  0  0
  190.6390  174.5330  145.9840 C   0  0  0  0  0  0  0  0  0  0  0  0
  192.0540  176.4670  147.4420 C   0  0  0  0  0  3  0  0  0  0  0  0
  189.9590  175.3780  146.8770 C   0  0  0  0  0  0  0  0  0  0  0  0
  190.6730  176.3420  147.6030 C   0  0  0  0  0  3  0  0  0  0  0  0
  192.7330  175.6310  146.5520 C   0  0  0  0  0  0  0  0  0  0  0  0
  189.9130  173.5460  145.2450 N   0  0  0  0  0  2  0  0  0  0  0  0
  190.1840  173.2420  143.8470 C   0  0  0  0  0  2  0  0  0  0  0  0
  190.8270  174.8290  142.0650 C   0  0  0  0  0  1  0  0  0  0  0  0
  188.5340  173.9140  142.1110 C   0  0  0  0  0  1  0  0  0  0  0  0
  189.6970  174.3770  142.9660 C   0  0  0  0  0  3  0  0  0  0  0  0
  188.5440  175.2490  147.0420 N   0  0  0  0  0  2  0  0  0  0  0  0
  187.6980  176.3680  147.0470 N   0  0  0  0  0  2  0  0  0  0  0  0
  184.9810  177.5560  144.8550 N   0  0  0  0  0  0  0  0  0  0  0  0
  186.9110  177.2030  143.4930 C   0  0  0  0  0  3  0  0  0  0  0  0
  187.6230  176.7990  144.6220 C   0  0  0  0  0  3  0  0  0  0  0  0
  186.9960  176.7770  145.8730 C   0  0  0  0  0  0  0  0  0  0  0  0
  185.6590  177.1650  145.9670 C   0  0  0  0  0  3  0  0  0  0  0  0
  185.5700  177.5850  143.6260 C   0  0  0  0  0  0  0  0  0  0  0  0
  183.5500  178.1960  142.5390 O   0  0  0  0  0  1  0  0  0  0  0  0
  185.4350  178.2330  141.2400 O   0  0  0  0  0  0  0  0  0  0  0  0
  184.7950  178.0170  142.4550 C   0  0  0  0  0  0  0  0  0  0  0  0
  194.2110  175.7510  146.3920 C   0  0  0  0  0  2  0  0  0  0  0  0
  194.5580  176.6290  145.1970 C   0  0  1  0  0  3  0  0  0  0  0  0
  194.9300  177.9050  145.6270 O   0  0  0  0  0  1  0  0  0  0  0  0
  196.4300  176.8150  143.5210 N   0  0  0  0  0  1  0  0  0  0  0  0
  195.9250  174.7840  144.5260 O   0  0  0  0  0  0  0  0  0  0  0  0
  195.6680  176.0130  144.4140 C   0  0  0  0  0  0  0  0  0  0  0  0
  1  2  2  0  0  0  0
  1  6  1  0  0  0  0
  2  4  1  0  0  0  0
  3  5  1  0  0  0  0
  4 12  1  0  0  0  0
  4  5  2  0  0  0  0
  6  3  2  0  0  0  0
  7  2  1  0  0  0  0
  8  7  1  0  0  0  0
  9 11  1  0  0  0  0
 10 11  1  0  0  0  0
 11  8  1  0  0  0  0
 12 13  1  0  0  0  0
 14 18  1  0  0  0  0
 15 19  1  0  0  0  0
 15 16  2  0  0  0  0
 16 17  1  0  0  0  0
 17 18  2  0  0  0  0
 17 13  1  0  0  0  0
 19 14  2  0  0  0  0
 21 22  2  0  0  0  0
 22 20  1  0  0  0  0
 22 19  1  0  0  0  0
 23  6  1  0  0  0  0
 24 25  1  1  0  0  0
 24 23  1  0  0  0  0
 26 28  1  0  0  0  0
 28 27  2  0  0  0  0
 28 24  1  0  0  0  0
M  END
>  <MODEL>
4

>  <REMARK>
 VINA RESULT:      -6.3      3.113      9.992
  Name = 
  10 active torsions:
  status: ('A' for Active; 'I' for Inactive)
    1  A    between atoms: N_2  and  C_15
    2  A    between atoms: N_2  and  N_23
    3  A    between atoms: C_7  and  N_11
    4  A    between atoms: C_8  and  N_11
    5  A    between atoms: C_8  and  C_14
    6  A    between atoms: C_18  and  C_25
    7  A    between atoms: C_18  and  C_26
    8  A    between atoms: CA_19  and  C_22
    9  A    between atoms: N_23  and  C_24
   10  A    between atoms: C_26  and  C_28
                            x       y       z     vdW  Elec       q    Type
                         _______ _______ _______ _____ _____    ______ ____

>  <TORSDO>
F 10

$$$$
=
 OpenBabel11042414413D

 28 29  0  0  1  0  0  0  0  0999 V2000
  187.7960  177.8960  144.4090 C   0  0  0  0  0  3  0  0  0  0  0  0
  188.9840  177.4150  144.9790 C   0  0  0  0  0  0  0  0  0  0  0  0
  188.9270  178.2410  142.2990 C   0  0  0  0  0  3  0  0  0  0  0  0
  190.1510  177.3490  144.1970 C   0  0  0  0  0  0  0  0  0  0  0  0
  190.1140  177.7640  142.8580 C   0  0  0  0  0  3  0  0  0  0  0  0
  187.7670  178.3110  143.0740 C   0  0  0  0  0  0  0  0  0  0  0  0
  189.0190  176.9890  146.3450 N   0  0  0  0  0  2  0  0  0  0  0  0
  188.3080  175.8130  146.8280 C   0  0  0  0  0  2  0  0  0  0  0  0
  189.6610  173.9570  145.9150 C   0  0  0  0  0  1  0  0  0  0  0  0
  190.5520  175.3130  147.7770 C   0  0  0  0  0  1  0  0  0  0  0  0
  189.2960  174.7150  147.1740 C   0  0  0  0  0  3  0  0  0  0  0  0
  191.3660  176.8590  144.7700 N   0  0  0  0  0  2  0  0  0  0  0  0
  192.5730  176.8730  144.0580 N   0  0  0  0  0  2  0  0  0  0  0  0
  195.9940  175.5140  144.3070 N   0  0  0  0  0  0  0  0  0  0  0  0
  194.5530  174.0900  145.5700 C   0  0  0  0  0  3  0  0  0  0  0  0
  193.4680  174.9000  145.2320 C   0  0  0  0  0  3  0  0  0  0  0  0
  193.6630  176.0250  144.4220 C   0  0  0  0  0  0  0  0  0  0  0  0
  194.9490  176.3170  143.9660 C   0  0  0  0  0  3  0  0  0  0  0  0
  195.8290  174.4140  145.0930 C   0  0  0  0  0  0  0  0  0  0  0  0
  197.1330  173.1270  146.6010 O   0  0  0  0  0  1  0  0  0  0  0  0
  197.9410  173.2840  144.4650 O   0  0  0  0  0  0  0  0  0  0  0  0
  196.9900  173.5800  145.4340 C   0  0  0  0  0  0  0  0  0  0  0  0
  186.4940  178.8050  142.4750 C   0  0  0  0  0  2  0  0  0  0  0  0
  185.6180  177.6430  142.0270 C   0  0  1  0  0  3  0  0  0  0  0  0
  184.4960  177.5400  142.8510 O   0  0  0  0  0  1  0  0  0  0  0  0
  183.8780  178.3010  140.3270 N   0  0  0  0  0  1  0  0  0  0  0  0
  185.9820  177.5780  139.6640 O   0  0  0  0  0  0  0  0  0  0  0  0
  185.1920  177.8370  140.6110 C   0  0  0  0  0  0  0  0  0  0  0  0
  1  2  1  0  0  0  0
  2  7  1  0  0  0  0
  3  5  2  0  0  0  0
  3  6  1  0  0  0  0
  4 12  1  0  0  0  0
  4  2  2  0  0  0  0
  5  4  1  0  0  0  0
  6  1  2  0  0  0  0
  7  8  1  0  0  0  0
  8 11  1  0  0  0  0
  9 11  1  0  0  0  0
 11 10  1  0  0  0  0
 13 17  1  0  0  0  0
 13 12  1  0  0  0  0
 14 19  1  0  0  0  0
 16 15  1  0  0  0  0
 17 16  2  0  0  0  0
 18 14  2  0  0  0  0
 18 17  1  0  0  0  0
 19 22  1  0  0  0  0
 19 15  2  0  0  0  0
 21 22  2  0  0  0  0
 22 20  1  0  0  0  0
 23  6  1  0  0  0  0
 24 23  1  0  0  0  0
 24 25  1  1  0  0  0
 26 28  1  0  0  0  0
 27 28  2  0  0  0  0
 28 24  1  0  0  0  0
M  END
>  <MODEL>
5

>  <REMARK>
 VINA RESULT:      -6.3      3.656      5.642
  Name = 
  10 active torsions:
  status: ('A' for Active; 'I' for Inactive)
    1  A    between atoms: N_2  and  C_15
    2  A    between atoms: N_2  and  N_23
    3  A    between atoms: C_7  and  N_11
    4  A    between atoms: C_8  and  N_11
    5  A    between atoms: C_8  and  C_14
    6  A    between atoms: C_18  and  C_25
    7  A    between atoms: C_18  and  C_26
    8  A    between atoms: CA_19  and  C_22
    9  A    between atoms: N_23  and  C_24
   10  A    between atoms: C_26  and  C_28
                            x       y       z     vdW  Elec       q    Type
                         _______ _______ _______ _____ _____    ______ ____

>  <TORSDO>
F 10

$$$$
=
 OpenBabel11042414413D

 28 29  0  0  1  0  0  0  0  0999 V2000
  187.7790  176.9980  144.1220 C   0  0  0  0  0  3  0  0  0  0  0  0
  188.6200  176.0560  144.7350 C   0  0  0  0  0  0  0  0  0  0  0  0
  186.9310  177.6730  146.2850 C   0  0  0  0  0  3  0  0  0  0  0  0
  188.6110  175.9260  146.1340 C   0  0  0  0  0  0  0  0  0  0  0  0
  187.7650  176.7380  146.9020 C   0  0  0  0  0  3  0  0  0  0  0  0
  186.9350  177.8020  144.8930 C   0  0  0  0  0  0  0  0  0  0  0  0
  189.4850  175.2300  143.9490 N   0  0  0  0  0  2  0  0  0  0  0  0
  188.9940  174.2350  143.0070 C   0  0  0  0  0  2  0  0  0  0  0  0
  191.3010  173.3890  142.7460 C   0  0  0  0  0  1  0  0  0  0  0  0
  189.8130  172.3670  144.4300 C   0  0  0  0  0  1  0  0  0  0  0  0
  189.8710  172.9980  143.0540 C   0  0  0  0  0  3  0  0  0  0  0  0
  189.4650  174.9690  146.7660 N   0  0  0  0  0  2  0  0  0  0  0  0
  190.7170  175.3280  147.2850 N   0  0  0  0  0  2  0  0  0  0  0  0
  193.3450  176.6960  145.0870 N   0  0  0  0  0  0  0  0  0  0  0  0
  193.7830  174.3670  145.3810 C   0  0  0  0  0  3  0  0  0  0  0  0
  192.6560  174.2660  146.1980 C   0  0  0  0  0  3  0  0  0  0  0  0
  191.8760  175.3990  146.4530 C   0  0  0  0  0  0  0  0  0  0  0  0
  192.2430  176.6180  145.8810 C   0  0  0  0  0  3  0  0  0  0  0  0
  194.1200  175.6070  144.8240 C   0  0  0  0  0  0  0  0  0  0  0  0
  196.0090  176.7850  144.0010 O   0  0  0  0  0  1  0  0  0  0  0  0
  195.6470  174.7170  143.0900 O   0  0  0  0  0  0  0  0  0  0  0  0
  195.3010  175.7440  143.9610 C   0  0  0  0  0  0  0  0  0  0  0  0
  186.0580  178.8110  144.2330 C   0  0  0  0  0  2  0  0  0  0  0  0
  184.6900  178.2210  143.9190 C   0  0  1  0  0  3  0  0  0  0  0  0
  183.6880  178.9610  144.5490 O   0  0  0  0  0  1  0  0  0  0  0  0
  183.1360  178.1960  141.9360 N   0  0  0  0  0  1  0  0  0  0  0  0
  185.4390  178.1980  141.6470 O   0  0  0  0  0  0  0  0  0  0  0  0
  184.4630  178.2110  142.4440 C   0  0  0  0  0  0  0  0  0  0  0  0
  1  2  2  0  0  0  0
  1  6  1  0  0  0  0
  2  4  1  0  0  0  0
  3  5  1  0  0  0  0
  4 12  1  0  0  0  0
  4  5  2  0  0  0  0
  6  3  2  0  0  0  0
  7  2  1  0  0  0  0
  8 11  1  0  0  0  0
  8  7  1  0  0  0  0
  9 11  1  0  0  0  0
 11 10  1  0  0  0  0
 12 13  1  0  0  0  0
 14 18  1  0  0  0  0
 15 16  2  0  0  0  0
 16 17  1  0  0  0  0
 17 13  1  0  0  0  0
 18 17  2  0  0  0  0
 19 14  2  0  0  0  0
 19 15  1  0  0  0  0
 21 22  2  0  0  0  0
 22 20  1  0  0  0  0
 22 19  1  0  0  0  0
 23  6  1  0  0  0  0
 24 23  1  0  0  0  0
 24 25  1  1  0  0  0
 26 28  1  0  0  0  0
 27 28  2  0  0  0  0
 28 24  1  0  0  0  0
M  END
>  <MODEL>
6

>  <REMARK>
 VINA RESULT:      -6.1      3.109      5.779
  Name = 
  10 active torsions:
  status: ('A' for Active; 'I' for Inactive)
    1  A    between atoms: N_2  and  C_15
    2  A    between atoms: N_2  and  N_23
    3  A    between atoms: C_7  and  N_11
    4  A    between atoms: C_8  and  N_11
    5  A    between atoms: C_8  and  C_14
    6  A    between atoms: C_18  and  C_25
    7  A    between atoms: C_18  and  C_26
    8  A    between atoms: CA_19  and  C_22
    9  A    between atoms: N_23  and  C_24
   10  A    between atoms: C_26  and  C_28
                            x       y       z     vdW  Elec       q    Type
                         _______ _______ _______ _____ _____    ______ ____

>  <TORSDO>
F 10

$$$$
=
 OpenBabel11042414413D

 28 29  0  0  1  0  0  0  0  0999 V2000
  188.2740  177.7080  144.4670 C   0  0  0  0  0  3  0  0  0  0  0  0
  189.4510  177.5220  145.2090 C   0  0  0  0  0  0  0  0  0  0  0  0
  186.9640  176.7980  146.2850 C   0  0  0  0  0  3  0  0  0  0  0  0
  189.3770  176.9690  146.4990 C   0  0  0  0  0  0  0  0  0  0  0  0
  188.1310  176.6100  147.0300 C   0  0  0  0  0  3  0  0  0  0  0  0
  187.0350  177.3440  145.0010 C   0  0  0  0  0  0  0  0  0  0  0  0
  190.7220  177.8920  144.6660 N   0  0  0  0  0  2  0  0  0  0  0  0
  191.1120  177.6100  143.2920 C   0  0  0  0  0  2  0  0  0  0  0  0
  190.5410  175.3690  142.4190 C   0  0  0  0  0  1  0  0  0  0  0  0
  192.8950  176.1140  142.4160 C   0  0  0  0  0  1  0  0  0  0  0  0
  191.5810  176.1730  143.1700 C   0  0  0  0  0  3  0  0  0  0  0  0
  190.5720  176.7770  147.2620 N   0  0  0  0  0  2  0  0  0  0  0  0
  191.2530  175.5520  147.2680 N   0  0  0  0  0  2  0  0  0  0  0  0
  193.9910  173.9980  145.3460 N   0  0  0  0  0  0  0  0  0  0  0  0
  194.6340  176.2440  145.8410 C   0  0  0  0  0  3  0  0  0  0  0  0
  193.4250  176.4340  146.5110 C   0  0  0  0  0  3  0  0  0  0  0  0
  192.4990  175.3880  146.5900 C   0  0  0  0  0  0  0  0  0  0  0  0
  192.8060  174.1650  145.9930 C   0  0  0  0  0  3  0  0  0  0  0  0
  194.9080  175.0010  145.2550 C   0  0  0  0  0  0  0  0  0  0  0  0
  196.7970  175.7330  144.0200 O   0  0  0  0  0  0  0  0  0  0  0  0
  196.6900  173.4860  144.4440 O   0  0  0  0  0  1  0  0  0  0  0  0
  196.1730  174.7720  144.5430 C   0  0  0  0  0  0  0  0  0  0  0  0
  185.7900  177.5610  144.2110 C   0  0  0  0  0  2  0  0  0  0  0  0
  186.0700  177.4660  142.7170 C   0  0  1  0  0  3  0  0  0  0  0  0
  186.3150  176.1390  142.3560 O   0  0  0  0  0  1  0  0  0  0  0  0
  185.0390  178.2140  140.5440 N   0  0  0  0  0  1  0  0  0  0  0  0
  183.8270  178.2730  142.5230 O   0  0  0  0  0  0  0  0  0  0  0  0
  184.9120  177.9980  141.9430 C   0  0  0  0  0  0  0  0  0  0  0  0
  1  6  2  0  0  0  0
  1  2  1  0  0  0  0
  2  4  2  0  0  0  0
  3  5  2  0  0  0  0
  4  5  1  0  0  0  0
  4 12  1  0  0  0  0
  6  3  1  0  0  0  0
  7  2  1  0  0  0  0
  8  7  1  0  0  0  0
  9 11  1  0  0  0  0
 10 11  1  0  0  0  0
 11  8  1  0  0  0  0
 12 13  1  0  0  0  0
 14 18  1  0  0  0  0
 15 16  2  0  0  0  0
 16 17  1  0  0  0  0
 17 13  1  0  0  0  0
 18 17  2  0  0  0  0
 19 14  2  0  0  0  0
 19 15  1  0  0  0  0
 20 22  2  0  0  0  0
 21 22  1  0  0  0  0
 22 19  1  0  0  0  0
 23  6  1  0  0  0  0
 24 25  1  6  0  0  0
 24 23  1  0  0  0  0
 26 28  1  0  0  0  0
 28 27  2  0  0  0  0
 28 24  1  0  0  0  0
M  END
>  <MODEL>
7

>  <REMARK>
 VINA RESULT:      -6.1      3.322      6.098
  Name = 
  10 active torsions:
  status: ('A' for Active; 'I' for Inactive)
    1  A    between atoms: N_2  and  C_15
    2  A    between atoms: N_2  and  N_23
    3  A    between atoms: C_7  and  N_11
    4  A    between atoms: C_8  and  N_11
    5  A    between atoms: C_8  and  C_14
    6  A    between atoms: C_18  and  C_25
    7  A    between atoms: C_18  and  C_26
    8  A    between atoms: CA_19  and  C_22
    9  A    between atoms: N_23  and  C_24
   10  A    between atoms: C_26  and  C_28
                            x       y       z     vdW  Elec       q    Type
                         _______ _______ _______ _____ _____    ______ ____

>  <TORSDO>
F 10

$$$$
=
 OpenBabel11042414413D

 28 29  0  0  1  0  0  0  0  0999 V2000
  188.4920  177.6460  144.9210 C   0  0  0  0  0  3  0  0  0  0  0  0
  189.8740  177.4350  144.7990 C   0  0  0  0  0  0  0  0  0  0  0  0
  188.3050  177.9240  142.5260 C   0  0  0  0  0  3  0  0  0  0  0  0
  190.4710  177.4700  143.5280 C   0  0  0  0  0  0  0  0  0  0  0  0
  189.6800  177.7150  142.3960 C   0  0  0  0  0  3  0  0  0  0  0  0
  187.7100  177.8940  143.7890 C   0  0  0  0  0  0  0  0  0  0  0  0
  190.6780  177.1820  145.9560 N   0  0  0  0  0  2  0  0  0  0  0  0
  190.1160  176.8420  147.2550 C   0  0  0  0  0  2  0  0  0  0  0  0
  189.2850  174.5260  147.0220 C   0  0  0  0  0  1  0  0  0  0  0  0
  191.7150  174.9610  146.9590 C   0  0  0  0  0  1  0  0  0  0  0  0
  190.3990  175.3880  147.5790 C   0  0  0  0  0  3  0  0  0  0  0  0
  191.8780  177.2550  143.3950 N   0  0  0  0  0  2  0  0  0  0  0  0
  192.3950  176.0530  142.8910 N   0  0  0  0  0  2  0  0  0  0  0  0
  195.1000  175.2270  145.2580 N   0  0  0  0  0  0  0  0  0  0  0  0
  194.5080  173.2230  144.1030 C   0  0  0  0  0  3  0  0  0  0  0  0
  193.5460  173.9310  143.3830 C   0  0  0  0  0  3  0  0  0  0  0  0
  193.3710  175.3010  143.6120 C   0  0  0  0  0  0  0  0  0  0  0  0
  194.1670  175.9350  144.5660 C   0  0  0  0  0  3  0  0  0  0  0  0
  195.2900  173.8940  145.0520 C   0  0  0  0  0  0  0  0  0  0  0  0
  197.1620  173.8030  146.5080 O   0  0  0  0  0  1  0  0  0  0  0  0
  196.3390  171.7840  145.8120 O   0  0  0  0  0  0  0  0  0  0  0  0
  196.3100  173.1730  145.8270 C   0  0  0  0  0  0  0  0  0  0  0  0
  186.2400  178.1000  143.9280 C   0  0  0  0  0  2  0  0  0  0  0  0
  185.9410  179.2740  144.8510 C   0  0  1  0  0  3  0  0  0  0  0  0
  185.1830  180.2350  144.1800 O   0  0  0  0  0  1  0  0  0  0  0  0
  185.7770  178.9880  147.3490 N   0  0  0  0  0  1  0  0  0  0  0  0
  184.0930  178.2210  145.9470 O   0  0  0  0  0  0  0  0  0  0  0  0
  185.2070  178.8010  146.0600 C   0  0  0  0  0  0  0  0  0  0  0  0
  2  1  1  0  0  0  0
  2  7  1  0  0  0  0
  3  6  1  0  0  0  0
  4  2  2  0  0  0  0
  5  3  2  0  0  0  0
  5  4  1  0  0  0  0
  6 23  1  0  0  0  0
  6  1  2  0  0  0  0
  7  8  1  0  0  0  0
  8 11  1  0  0  0  0
  9 11  1  0  0  0  0
 10 11  1  0  0  0  0
 12  4  1  0  0  0  0
 13 12  1  0  0  0  0
 13 17  1  0  0  0  0
 15 19  2  0  0  0  0
 16 17  2  0  0  0  0
 16 15  1  0  0  0  0
 17 18  1  0  0  0  0
 18 14  2  0  0  0  0
 19 14  1  0  0  0  0
 19 22  1  0  0  0  0
 21 22  2  0  0  0  0
 22 20  1  0  0  0  0
 23 24  1  0  0  0  0
 24 25  1  6  0  0  0
 24 28  1  0  0  0  0
 27 28  2  0  0  0  0
 28 26  1  0  0  0  0
M  END
>  <MODEL>
8

>  <REMARK>
 VINA RESULT:      -6.0      4.143      5.918
  Name = 
  10 active torsions:
  status: ('A' for Active; 'I' for Inactive)
    1  A    between atoms: N_2  and  C_15
    2  A    between atoms: N_2  and  N_23
    3  A    between atoms: C_7  and  N_11
    4  A    between atoms: C_8  and  N_11
    5  A    between atoms: C_8  and  C_14
    6  A    between atoms: C_18  and  C_25
    7  A    between atoms: C_18  and  C_26
    8  A    between atoms: CA_19  and  C_22
    9  A    between atoms: N_23  and  C_24
   10  A    between atoms: C_26  and  C_28
                            x       y       z     vdW  Elec       q    Type
                         _______ _______ _______ _____ _____    ______ ____

>  <TORSDO>
F 10

$$$$
=
 OpenBabel11042414413D

 28 29  0  0  1  0  0  0  0  0999 V2000
  188.4440  177.4150  144.8760 C   0  0  0  0  0  3  0  0  0  0  0  0
  189.4830  176.4720  144.8440 C   0  0  0  0  0  0  0  0  0  0  0  0
  187.5970  176.4390  146.9210 C   0  0  0  0  0  3  0  0  0  0  0  0
  189.5740  175.5070  145.8620 C   0  0  0  0  0  0  0  0  0  0  0  0
  188.6280  175.4980  146.8970 C   0  0  0  0  0  3  0  0  0  0  0  0
  187.5010  177.3970  145.9080 C   0  0  0  0  0  0  0  0  0  0  0  0
  190.4490  176.4870  143.7890 N   0  0  0  0  0  2  0  0  0  0  0  0
  190.2480  175.8050  142.5180 C   0  0  0  0  0  2  0  0  0  0  0  0
  188.0240  175.7440  141.4390 C   0  0  0  0  0  1  0  0  0  0  0  0
  189.0640  173.6400  142.2070 C   0  0  0  0  0  1  0  0  0  0  0  0
  188.8960  175.1160  142.5070 C   0  0  0  0  0  3  0  0  0  0  0  0
  190.6300  174.5440  145.8370 N   0  0  0  0  0  2  0  0  0  0  0  0
  191.8320  174.7510  146.5290 N   0  0  0  0  0  2  0  0  0  0  0  0
  194.9120  174.3410  144.5410 N   0  0  0  0  0  0  0  0  0  0  0  0
  194.7200  176.6510  145.1140 C   0  0  0  0  0  3  0  0  0  0  0  0
  193.5330  176.3750  145.7950 C   0  0  0  0  0  3  0  0  0  0  0  0
  193.0430  175.0650  145.8410 C   0  0  0  0  0  0  0  0  0  0  0  0
  193.7560  174.0520  145.1990 C   0  0  0  0  0  3  0  0  0  0  0  0
  195.4090  175.6080  144.4820 C   0  0  0  0  0  0  0  0  0  0  0  0
  197.5160  174.9560  143.6070 O   0  0  0  0  0  1  0  0  0  0  0  0
  196.9070  177.1300  143.2310 O   0  0  0  0  0  0  0  0  0  0  0  0
  196.6600  175.8680  143.7580 C   0  0  0  0  0  0  0  0  0  0  0  0
  186.4110  178.4140  145.9410 C   0  0  0  0  0  2  0  0  0  0  0  0
  185.1380  177.8670  145.3090 C   0  0  1  0  0  3  0  0  0  0  0  0
  184.0600  178.0240  146.1820 O   0  0  0  0  0  1  0  0  0  0  0  0
  185.4590  179.8370  143.7710 N   0  0  0  0  0  1  0  0  0  0  0  0
  184.0830  178.0660  143.1710 O   0  0  0  0  0  0  0  0  0  0  0  0
  184.8590  178.5730  144.0250 C   0  0  0  0  0  0  0  0  0  0  0  0
  1  6  1  0  0  0  0
  2  1  2  0  0  0  0
  2  4  1  0  0  0  0
  4  5  2  0  0  0  0
  5  3  1  0  0  0  0
  6 23  1  0  0  0  0
  6  3  2  0  0  0  0
  7  2  1  0  0  0  0
  8  7  1  0  0  0  0
  9 11  1  0  0  0  0
 10 11  1  0  0  0  0
 11  8  1  0  0  0  0
 12  4  1  0  0  0  0
 12 13  1  0  0  0  0
 14 18  1  0  0  0  0
 15 16  2  0  0  0  0
 16 17  1  0  0  0  0
 17 13  1  0  0  0  0
 18 17  2  0  0  0  0
 19 14  2  0  0  0  0
 19 15  1  0  0  0  0
 20 22  1  0  0  0  0
 21 22  2  0  0  0  0
 22 19  1  0  0  0  0
 24 23  1  0  0  0  0
 24 25  1  1  0  0  0
 26 28  1  0  0  0  0
 27 28  2  0  0  0  0
 28 24  1  0  0  0  0
M  END
>  <MODEL>
9

>  <REMARK>
 VINA RESULT:      -6.0      3.562      6.321
  Name = 
  10 active torsions:
  status: ('A' for Active; 'I' for Inactive)
    1  A    between atoms: N_2  and  C_15
    2  A    between atoms: N_2  and  N_23
    3  A    between atoms: C_7  and  N_11
    4  A    between atoms: C_8  and  N_11
    5  A    between atoms: C_8  and  C_14
    6  A    between atoms: C_18  and  C_25
    7  A    between atoms: C_18  and  C_26
    8  A    between atoms: CA_19  and  C_22
    9  A    between atoms: N_23  and  C_24
   10  A    between atoms: C_26  and  C_28
                            x       y       z     vdW  Elec       q    Type
                         _______ _______ _______ _____ _____    ______ ____

>  <TORSDO>
F 10

$$$$
