=
 OpenBabel11042418263D

 28 32  0  0  1  0  0  0  0  0999 V2000
  185.2190  178.6010  145.9270 C   0  0  0  0  0  2  0  0  0  0  0  0
  186.2960  178.9670  144.9530 C   0  0  1  0  0  3  0  0  0  0  0  0
  187.1610  177.8900  143.1740 C   0  0  2  0  0  3  0  0  0  0  0  0
  185.5710  178.4580  141.3320 C   0  0  0  0  0  2  0  0  0  0  0  0
  187.1880  178.0480  144.5830 C   0  0  1  0  0  3  0  0  0  0  0  0
  189.3470  177.4340  143.7600 C   0  0  2  0  0  3  0  0  0  0  0  0
  188.4180  177.5530  142.6340 N   0  0  0  0  0  2  0  0  0  0  0  0
  184.2590  178.7790  143.8930 C   0  0  0  0  0  0  0  0  0  0  0  0
  184.1040  178.1430  141.5880 C   0  0  0  0  0  3  0  0  0  0  0  0
  188.6040  177.9150  145.0390 C   0  0  2  0  0  3  0  0  0  0  0  0
  185.5780  179.4230  143.7220 C   0  0  2  0  0  3  0  0  0  0  0  0
  184.0660  178.3100  145.0800 N   0  0  0  0  0  0  0  0  0  0  0  0
  183.5310  178.2910  142.7560 N   0  0  0  0  0  0  0  0  0  0  0  0
  186.2780  178.7050  142.6300 C   0  0  1  0  0  3  0  0  0  0  0  0
  190.6310  175.6240  146.7770 C   0  0  0  0  0  0  0  0  0  0  0  0
  188.6050  175.4460  145.6150 C   0  0  0  0  0  2  0  0  0  0  0  0
  190.0830  173.3590  145.7630 C   0  0  0  0  0  1  0  0  0  0  0  0
  190.0880  176.9910  146.8680 C   0  0  0  0  0  2  0  0  0  0  0  0
  188.7240  176.8820  146.1640 C   0  0  1  0  0  3  0  0  0  0  0  0
  191.7390  175.2730  147.2620 O   0  0  0  0  0  0  0  0  0  0  0  0
  189.7810  174.7440  146.0780 N   0  0  0  0  0  0  0  0  0  0  0  0
  191.7960  177.8040  143.4960 C   0  0  0  0  0  3  0  0  0  0  0  0
  190.5500  178.2910  143.5100 C   0  0  0  0  0  3  0  0  0  0  0  0
  192.1170  176.3600  143.7280 C   0  0  0  0  0  2  0  0  0  0  0  0
  194.5080  176.4100  144.4960 C   0  0  0  0  0  0  0  0  0  0  0  0
  194.1280  176.9350  145.7260 O   0  0  0  0  0  1  0  0  0  0  0  0
  193.5320  176.1190  143.4980 N   0  0  0  0  0  2  0  0  0  0  0  0
  195.7240  176.1870  144.2620 O   0  0  0  0  0  0  0  0  0  0  0  0
  2  1  1  1  0  0  0
  3  7  1  6  0  0  0
  3  5  1  0  0  0  0
  4  9  1  0  0  0  0
  4 14  1  0  0  0  0
  5  2  1  0  0  0  0
  5 10  1  0  0  0  0
  6 10  1  0  0  0  0
  7  6  1  0  0  0  0
  8 12  2  0  0  0  0
  9 13  2  0  0  0  0
 10 19  1  0  0  0  0
 11  8  1  0  0  0  0
 11  2  1  0  0  0  0
 12  1  1  0  0  0  0
 13  8  1  0  0  0  0
 14  3  1  0  0  0  0
 14 11  1  0  0  0  0
 15 18  1  0  0  0  0
 15 20  2  0  0  0  0
 16 21  1  0  0  0  0
 16 19  1  0  0  0  0
 17 21  1  0  0  0  0
 19 18  1  0  0  0  0
 21 15  1  0  0  0  0
 22 23  2  0  0  0  0
 22 24  1  0  0  0  0
 23  6  1  0  0  0  0
 25 26  1  0  0  0  0
 27 24  1  0  0  0  0
 27 25  1  0  0  0  0
 28 25  2  0  0  0  0
M  END
>  <MODEL>
1

>  <REMARK>
 VINA RESULT:      -7.8      0.000      0.000
  Name = 
  4 active torsions:
  status: ('A' for Active; 'I' for Inactive)
    1  A    between atoms: C_9  and  C_25
    2  A    between atoms: N_12  and  C_25
    3  A    between atoms: C_13  and  C_26
    4  A    between atoms: C_17  and  C_20
                            x       y       z     vdW  Elec       q    Type
                         _______ _______ _______ _____ _____    ______ ____

>  <TORSDO>
F 4

$$$$
=
 OpenBabel11042418263D

 28 32  0  0  1  0  0  0  0  0999 V2000
  185.2770  178.8070  145.8340 C   0  0  0  0  0  2  0  0  0  0  0  0
  186.3180  179.0450  144.7840 C   0  0  1  0  0  3  0  0  0  0  0  0
  187.0360  177.7980  143.0510 C   0  0  2  0  0  3  0  0  0  0  0  0
  185.3800  178.3130  141.2520 C   0  0  0  0  0  2  0  0  0  0  0  0
  187.1440  178.0560  144.4410 C   0  0  1  0  0  3  0  0  0  0  0  0
  189.2240  177.2730  143.5620 C   0  0  2  0  0  3  0  0  0  0  0  0
  188.2450  177.3580  142.4770 N   0  0  0  0  0  2  0  0  0  0  0  0
  184.2210  178.8860  143.8420 C   0  0  0  0  0  0  0  0  0  0  0  0
  183.9150  178.0950  141.6010 C   0  0  0  0  0  3  0  0  0  0  0  0
  188.5730  177.8840  144.8370 C   0  0  2  0  0  3  0  0  0  0  0  0
  185.5590  179.4470  143.5590 C   0  0  2  0  0  3  0  0  0  0  0  0
  184.0690  178.5150  145.0680 N   0  0  0  0  0  0  0  0  0  0  0  0
  183.4120  178.3560  142.7810 N   0  0  0  0  0  0  0  0  0  0  0  0
  186.1660  178.6170  142.4910 C   0  0  1  0  0  3  0  0  0  0  0  0
  190.5960  176.5740  147.4010 C   0  0  0  0  0  0  0  0  0  0  0  0
  189.4100  175.6210  145.6200 C   0  0  0  0  0  2  0  0  0  0  0  0
  191.4660  174.3670  146.4910 C   0  0  0  0  0  1  0  0  0  0  0  0
  189.5340  177.5660  147.1560 C   0  0  0  0  0  2  0  0  0  0  0  0
  188.7030  176.9300  146.0280 C   0  0  1  0  0  3  0  0  0  0  0  0
  191.4880  176.7020  148.2800 O   0  0  0  0  0  0  0  0  0  0  0  0
  190.5160  175.4640  146.5380 N   0  0  0  0  0  0  0  0  0  0  0  0
  191.6530  177.4730  143.0460 C   0  0  0  0  0  3  0  0  0  0  0  0
  190.4530  178.0450  143.1910 C   0  0  0  0  0  3  0  0  0  0  0  0
  191.8930  176.0070  143.2390 C   0  0  0  0  0  2  0  0  0  0  0  0
  190.9680  174.1070  141.8790 C   0  0  0  0  0  0  0  0  0  0  0  0
  190.3430  173.5760  143.0010 O   0  0  0  0  0  1  0  0  0  0  0  0
  191.7360  175.3050  141.9750 N   0  0  0  0  0  2  0  0  0  0  0  0
  190.8530  173.5290  140.7680 O   0  0  0  0  0  0  0  0  0  0  0  0
  2  1  1  1  0  0  0
  3  7  1  6  0  0  0
  3  5  1  0  0  0  0
  4  9  1  0  0  0  0
  4 14  1  0  0  0  0
  5  2  1  0  0  0  0
  5 10  1  0  0  0  0
  6 10  1  0  0  0  0
  7  6  1  0  0  0  0
  8 12  2  0  0  0  0
  9 13  2  0  0  0  0
 10 19  1  0  0  0  0
 11  8  1  0  0  0  0
 11  2  1  0  0  0  0
 12  1  1  0  0  0  0
 13  8  1  0  0  0  0
 14  3  1  0  0  0  0
 14 11  1  0  0  0  0
 15 20  2  0  0  0  0
 16 19  1  0  0  0  0
 16 21  1  0  0  0  0
 17 21  1  0  0  0  0
 18 15  1  0  0  0  0
 19 18  1  0  0  0  0
 21 15  1  0  0  0  0
 22 23  2  0  0  0  0
 22 24  1  0  0  0  0
 23  6  1  0  0  0  0
 25 27  1  0  0  0  0
 25 26  1  0  0  0  0
 27 24  1  0  0  0  0
 28 25  2  0  0  0  0
M  END
>  <MODEL>
2

>  <REMARK>
 VINA RESULT:      -7.6      1.817      2.062
  Name = 
  4 active torsions:
  status: ('A' for Active; 'I' for Inactive)
    1  A    between atoms: C_9  and  C_25
    2  A    between atoms: N_12  and  C_25
    3  A    between atoms: C_13  and  C_26
    4  A    between atoms: C_17  and  C_20
                            x       y       z     vdW  Elec       q    Type
                         _______ _______ _______ _____ _____    ______ ____

>  <TORSDO>
F 4

$$$$
=
 OpenBabel11042418263D

 28 32  0  0  1  0  0  0  0  0999 V2000
  185.9930  176.5810  144.0780 C   0  0  0  0  0  2  0  0  0  0  0  0
  186.8120  176.2410  145.2840 C   0  0  1  0  0  3  0  0  0  0  0  0
  188.2160  177.4590  146.5560 C   0  0  2  0  0  3  0  0  0  0  0  0
  186.6830  178.6090  148.1590 C   0  0  0  0  0  2  0  0  0  0  0  0
  188.0650  176.6880  145.3760 C   0  0  1  0  0  3  0  0  0  0  0  0
  190.2950  176.5150  146.2190 C   0  0  2  0  0  3  0  0  0  0  0  0
  189.5080  177.3710  147.1090 N   0  0  0  0  0  2  0  0  0  0  0  0
  185.2120  177.8180  145.7950 C   0  0  0  0  0  0  0  0  0  0  0  0
  185.5490  179.4180  147.5450 C   0  0  0  0  0  3  0  0  0  0  0  0
  189.3250  175.9180  145.1580 C   0  0  2  0  0  3  0  0  0  0  0  0
  186.0480  176.7900  146.4480 C   0  0  2  0  0  3  0  0  0  0  0  0
  185.1950  177.7260  144.5080 N   0  0  0  0  0  0  0  0  0  0  0  0
  184.9000  179.0450  146.4720 N   0  0  0  0  0  0  0  0  0  0  0  0
  187.0850  177.5020  147.2340 C   0  0  1  0  0  3  0  0  0  0  0  0
  188.9040  177.4290  142.0080 C   0  0  0  0  0  0  0  0  0  0  0  0
  189.1520  175.2140  142.7280 C   0  0  0  0  0  2  0  0  0  0  0  0
  187.8790  175.6230  140.5430 C   0  0  0  0  0  1  0  0  0  0  0  0
  189.6340  177.5850  143.2790 C   0  0  0  0  0  2  0  0  0  0  0  0
  189.8640  176.1350  143.7400 C   0  0  1  0  0  3  0  0  0  0  0  0
  188.5410  178.3930  141.2840 O   0  0  0  0  0  0  0  0  0  0  0  0
  188.6450  176.0820  141.6890 N   0  0  0  0  0  0  0  0  0  0  0  0
  192.2560  175.2990  147.1560 C   0  0  0  0  0  3  0  0  0  0  0  0
  190.9310  175.4160  147.0120 C   0  0  0  0  0  3  0  0  0  0  0  0
  193.2360  176.2500  146.5420 C   0  0  0  0  0  2  0  0  0  0  0  0
  195.1950  175.6260  145.0970 C   0  0  0  0  0  0  0  0  0  0  0  0
  194.6410  176.2970  144.0130 O   0  0  0  0  0  0  0  0  0  0  0  0
  194.5190  175.5920  146.3520 N   0  0  0  0  0  2  0  0  0  0  0  0
  196.3050  175.0470  144.9720 O   0  0  0  0  0  1  0  0  0  0  0  0
  1 12  1  0  0  0  0
  2  1  1  6  0  0  0
  2  5  1  0  0  0  0
  2 11  1  0  0  0  0
  3  7  1  1  0  0  0
  3 14  1  0  0  0  0
  5  3  1  0  0  0  0
  6 23  1  0  0  0  0
  6  7  1  0  0  0  0
  8 11  1  0  0  0  0
  8 13  1  0  0  0  0
  9  4  1  0  0  0  0
 10  5  1  0  0  0  0
 10  6  1  0  0  0  0
 11 14  1  0  0  0  0
 12  8  2  0  0  0  0
 13  9  2  0  0  0  0
 14  4  1  0  0  0  0
 15 18  1  0  0  0  0
 16 19  1  0  0  0  0
 17 21  1  0  0  0  0
 18 19  1  0  0  0  0
 19 10  1  0  0  0  0
 20 15  2  0  0  0  0
 21 15  1  0  0  0  0
 21 16  1  0  0  0  0
 23 22  2  0  0  0  0
 24 22  1  0  0  0  0
 25 27  1  0  0  0  0
 26 25  2  0  0  0  0
 27 24  1  0  0  0  0
 28 25  1  0  0  0  0
M  END
>  <MODEL>
3

>  <REMARK>
 VINA RESULT:      -7.6      2.295      4.029
  Name = 
  4 active torsions:
  status: ('A' for Active; 'I' for Inactive)
    1  A    between atoms: C_9  and  C_25
    2  A    between atoms: N_12  and  C_25
    3  A    between atoms: C_13  and  C_26
    4  A    between atoms: C_17  and  C_20
                            x       y       z     vdW  Elec       q    Type
                         _______ _______ _______ _____ _____    ______ ____

>  <TORSDO>
F 4

$$$$
=
 OpenBabel11042418263D

 28 32  0  0  1  0  0  0  0  0999 V2000
  190.0170  174.8200  147.6330 C   0  0  0  0  0  2  0  0  0  0  0  0
  189.7560  174.9910  146.1690 C   0  0  1  0  0  3  0  0  0  0  0  0
  189.7830  176.8000  144.8260 C   0  0  2  0  0  3  0  0  0  0  0  0
  192.1980  177.0310  144.2260 C   0  0  0  0  0  2  0  0  0  0  0  0
  189.0310  176.0280  145.7470 C   0  0  1  0  0  3  0  0  0  0  0  0
  187.5950  177.0670  144.1430 C   0  0  2  0  0  3  0  0  0  0  0  0
  188.9850  177.4130  143.8410 N   0  0  0  0  0  2  0  0  0  0  0  0
  191.9390  175.5200  146.6820 C   0  0  0  0  0  0  0  0  0  0  0  0
  193.1760  177.1130  145.3900 C   0  0  0  0  0  3  0  0  0  0  0  0
  187.6080  176.0210  145.2960 C   0  0  2  0  0  3  0  0  0  0  0  0
  191.1080  175.0970  145.5360 C   0  0  2  0  0  3  0  0  0  0  0  0
  191.3460  175.3940  147.8220 N   0  0  0  0  0  0  0  0  0  0  0  0
  193.0380  176.4250  146.4940 N   0  0  0  0  0  0  0  0  0  0  0  0
  190.9750  176.2670  144.6350 C   0  0  1  0  0  3  0  0  0  0  0  0
  185.0920  178.2070  146.4240 C   0  0  0  0  0  0  0  0  0  0  0  0
  187.2340  177.6570  147.1960 C   0  0  0  0  0  2  0  0  0  0  0  0
  186.3160  179.9770  147.7760 C   0  0  0  0  0  1  0  0  0  0  0  0
  185.2910  176.8520  145.8810 C   0  0  0  0  0  2  0  0  0  0  0  0
  186.6690  176.4440  146.4300 C   0  0  1  0  0  3  0  0  0  0  0  0
  184.0590  178.8990  146.2280 O   0  0  0  0  0  0  0  0  0  0  0  0
  186.1900  178.6570  147.1820 N   0  0  0  0  0  0  0  0  0  0  0  0
  185.9380  177.0820  142.2840 C   0  0  0  0  0  3  0  0  0  0  0  0
  186.9470  176.4830  142.9250 C   0  0  0  0  0  3  0  0  0  0  0  0
  185.3520  178.3910  142.7140 C   0  0  0  0  0  2  0  0  0  0  0  0
  183.1190  178.3050  141.5650 C   0  0  0  0  0  0  0  0  0  0  0  0
  183.7280  178.3990  140.3200 O   0  0  0  0  0  0  0  0  0  0  0  0
  183.9020  178.2990  142.7580 N   0  0  0  0  0  2  0  0  0  0  0  0
  181.8660  178.2210  141.6420 O   0  0  0  0  0  1  0  0  0  0  0  0
  1 12  1  0  0  0  0
  2  1  1  1  0  0  0
  3  7  1  6  0  0  0
  3  5  1  0  0  0  0
  4 14  1  0  0  0  0
  4  9  1  0  0  0  0
  5  2  1  0  0  0  0
  6 10  1  0  0  0  0
  7  6  1  0  0  0  0
  8 12  2  0  0  0  0
  9 13  2  0  0  0  0
 10  5  1  0  0  0  0
 10 19  1  0  0  0  0
 11  2  1  0  0  0  0
 11  8  1  0  0  0  0
 13  8  1  0  0  0  0
 14  3  1  0  0  0  0
 14 11  1  0  0  0  0
 15 21  1  0  0  0  0
 18 15  1  0  0  0  0
 18 19  1  0  0  0  0
 19 16  1  0  0  0  0
 20 15  2  0  0  0  0
 21 16  1  0  0  0  0
 21 17  1  0  0  0  0
 22 24  1  0  0  0  0
 22 23  2  0  0  0  0
 23  6  1  0  0  0  0
 24 27  1  0  0  0  0
 25 28  1  0  0  0  0
 25 27  1  0  0  0  0
 26 25  2  0  0  0  0
M  END
>  <MODEL>
4

>  <REMARK>
 VINA RESULT:      -7.4      3.792      7.359
  Name = 
  4 active torsions:
  status: ('A' for Active; 'I' for Inactive)
    1  A    between atoms: C_9  and  C_25
    2  A    between atoms: N_12  and  C_25
    3  A    between atoms: C_13  and  C_26
    4  A    between atoms: C_17  and  C_20
                            x       y       z     vdW  Elec       q    Type
                         _______ _______ _______ _____ _____    ______ ____

>  <TORSDO>
F 4

$$$$
=
 OpenBabel11042418263D

 28 32  0  0  1  0  0  0  0  0999 V2000
  185.7370  176.8580  143.5050 C   0  0  0  0  0  2  0  0  0  0  0  0
  186.4560  176.3180  144.7020 C   0  0  1  0  0  3  0  0  0  0  0  0
  187.8250  177.2800  146.2090 C   0  0  2  0  0  3  0  0  0  0  0  0
  186.2420  178.2900  147.8570 C   0  0  0  0  0  2  0  0  0  0  0  0
  187.7190  176.6800  144.9290 C   0  0  1  0  0  3  0  0  0  0  0  0
  189.8770  176.2770  145.8750 C   0  0  2  0  0  3  0  0  0  0  0  0
  189.0720  177.0490  146.8230 N   0  0  0  0  0  2  0  0  0  0  0  0
  184.8990  177.9000  145.3220 C   0  0  0  0  0  0  0  0  0  0  0  0
  185.1910  179.2340  147.2900 C   0  0  0  0  0  3  0  0  0  0  0  0
  188.9550  175.8780  144.6860 C   0  0  2  0  0  3  0  0  0  0  0  0
  185.6420  176.7500  145.8800 C   0  0  2  0  0  3  0  0  0  0  0  0
  184.9660  177.9780  144.0360 N   0  0  0  0  0  0  0  0  0  0  0  0
  184.5990  179.0410  146.1390 N   0  0  0  0  0  0  0  0  0  0  0  0
  186.6540  177.2940  146.8170 C   0  0  1  0  0  3  0  0  0  0  0  0
  191.0290  174.9250  142.0080 C   0  0  0  0  0  0  0  0  0  0  0  0
  191.0600  176.7000  143.5360 C   0  0  0  0  0  2  0  0  0  0  0  0
  193.2940  175.9510  142.5330 C   0  0  0  0  0  1  0  0  0  0  0  0
  189.6100  175.0460  142.3890 C   0  0  0  0  0  2  0  0  0  0  0  0
  189.5970  176.2500  143.3470 C   0  0  1  0  0  3  0  0  0  0  0  0
  191.4700  174.0630  141.2040 O   0  0  0  0  0  0  0  0  0  0  0  0
  191.8480  175.8750  142.6500 N   0  0  0  0  0  0  0  0  0  0  0  0
  191.6860  174.9200  146.9190 C   0  0  0  0  0  3  0  0  0  0  0  0
  190.4070  175.0490  146.5500 C   0  0  0  0  0  3  0  0  0  0  0  0
  192.7170  175.9830  146.6970 C   0  0  0  0  0  2  0  0  0  0  0  0
  194.9430  176.2510  145.5630 C   0  0  0  0  0  0  0  0  0  0  0  0
  194.9130  177.6250  145.7720 O   0  0  0  0  0  1  0  0  0  0  0  0
  193.8710  175.4240  146.0120 N   0  0  0  0  0  2  0  0  0  0  0  0
  195.9270  175.7310  144.9760 O   0  0  0  0  0  0  0  0  0  0  0  0
  1 12  1  0  0  0  0
  2  1  1  6  0  0  0
  2  5  1  0  0  0  0
  2 11  1  0  0  0  0
  3 14  1  0  0  0  0
  3  7  1  1  0  0  0
  5  3  1  0  0  0  0
  6 23  1  0  0  0  0
  6  7  1  0  0  0  0
  8 11  1  0  0  0  0
  8 13  1  0  0  0  0
  9  4  1  0  0  0  0
 10  5  1  0  0  0  0
 10  6  1  0  0  0  0
 11 14  1  0  0  0  0
 12  8  2  0  0  0  0
 13  9  2  0  0  0  0
 14  4  1  0  0  0  0
 15 18  1  0  0  0  0
 15 21  1  0  0  0  0
 17 21  1  0  0  0  0
 18 19  1  0  0  0  0
 19 16  1  0  0  0  0
 19 10  1  0  0  0  0
 20 15  2  0  0  0  0
 21 16  1  0  0  0  0
 23 22  2  0  0  0  0
 24 22  1  0  0  0  0
 25 26  1  0  0  0  0
 25 27  1  0  0  0  0
 27 24  1  0  0  0  0
 28 25  2  0  0  0  0
M  END
>  <MODEL>
5

>  <REMARK>
 VINA RESULT:      -7.4      1.993      3.760
  Name = 
  4 active torsions:
  status: ('A' for Active; 'I' for Inactive)
    1  A    between atoms: C_9  and  C_25
    2  A    between atoms: N_12  and  C_25
    3  A    between atoms: C_13  and  C_26
    4  A    between atoms: C_17  and  C_20
                            x       y       z     vdW  Elec       q    Type
                         _______ _______ _______ _____ _____    ______ ____

>  <TORSDO>
F 4

$$$$
=
 OpenBabel11042418263D

 28 32  0  0  1  0  0  0  0  0999 V2000
  191.4210  176.6680  147.9530 C   0  0  0  0  0  2  0  0  0  0  0  0
  191.1900  175.8220  146.7390 C   0  0  1  0  0  3  0  0  0  0  0  0
  191.3610  176.2570  144.5350 C   0  0  2  0  0  3  0  0  0  0  0  0
  193.7920  175.9170  144.0720 C   0  0  0  0  0  2  0  0  0  0  0  0
  190.5450  176.3380  145.6920 C   0  0  1  0  0  3  0  0  0  0  0  0
  189.2040  176.0920  143.7280 C   0  0  2  0  0  3  0  0  0  0  0  0
  190.6190  176.0840  143.3500 N   0  0  0  0  0  2  0  0  0  0  0  0
  193.3990  176.4620  146.8880 C   0  0  0  0  0  0  0  0  0  0  0  0
  194.7600  176.7160  144.9330 C   0  0  0  0  0  3  0  0  0  0  0  0
  189.1300  176.0920  145.2830 C   0  0  2  0  0  3  0  0  0  0  0  0
  192.5530  175.4160  146.2750 C   0  0  2  0  0  3  0  0  0  0  0  0
  192.7850  177.1600  147.7820 N   0  0  0  0  0  0  0  0  0  0  0  0
  194.5600  176.9550  146.2040 N   0  0  0  0  0  0  0  0  0  0  0  0
  192.5140  175.6820  144.8170 C   0  0  1  0  0  3  0  0  0  0  0  0
  185.8670  177.1260  146.0990 C   0  0  0  0  0  0  0  0  0  0  0  0
  187.4980  177.9150  144.6150 C   0  0  0  0  0  2  0  0  0  0  0  0
  185.0450  178.3880  144.0520 C   0  0  0  0  0  1  0  0  0  0  0  0
  187.1180  176.6470  146.7130 C   0  0  0  0  0  2  0  0  0  0  0  0
  188.2100  177.2090  145.7870 C   0  0  1  0  0  3  0  0  0  0  0  0
  184.7210  176.9010  146.5700 O   0  0  0  0  0  0  0  0  0  0  0  0
  186.0860  177.8580  144.9150 N   0  0  0  0  0  0  0  0  0  0  0  0
  187.9440  174.8440  141.9790 C   0  0  0  0  0  3  0  0  0  0  0  0
  188.5310  174.8710  143.1810 C   0  0  0  0  0  3  0  0  0  0  0  0
  187.8980  176.0260  141.0600 C   0  0  0  0  0  2  0  0  0  0  0  0
  186.0590  177.5410  140.2620 C   0  0  0  0  0  0  0  0  0  0  0  0
  186.5840  177.5410  138.9750 O   0  0  0  0  0  0  0  0  0  0  0  0
  186.6920  176.8000  141.3040 N   0  0  0  0  0  2  0  0  0  0  0  0
  185.0150  178.1970  140.5100 O   0  0  0  0  0  1  0  0  0  0  0  0
  2  1  1  1  0  0  0
  3  7  1  6  0  0  0
  3 14  1  0  0  0  0
  3  5  1  0  0  0  0
  4 14  1  0  0  0  0
  4  9  1  0  0  0  0
  5  2  1  0  0  0  0
  6 10  1  0  0  0  0
  7  6  1  0  0  0  0
  8 12  2  0  0  0  0
  9 13  2  0  0  0  0
 10  5  1  0  0  0  0
 10 19  1  0  0  0  0
 11  2  1  0  0  0  0
 11  8  1  0  0  0  0
 12  1  1  0  0  0  0
 13  8  1  0  0  0  0
 14 11  1  0  0  0  0
 15 20  2  0  0  0  0
 15 18  1  0  0  0  0
 16 21  1  0  0  0  0
 16 19  1  0  0  0  0
 17 21  1  0  0  0  0
 19 18  1  0  0  0  0
 21 15  1  0  0  0  0
 22 23  2  0  0  0  0
 23  6  1  0  0  0  0
 24 27  1  0  0  0  0
 24 22  1  0  0  0  0
 25 28  1  0  0  0  0
 25 27  1  0  0  0  0
 26 25  2  0  0  0  0
M  END
>  <MODEL>
6

>  <REMARK>
 VINA RESULT:      -7.3      3.557      7.079
  Name = 
  4 active torsions:
  status: ('A' for Active; 'I' for Inactive)
    1  A    between atoms: C_9  and  C_25
    2  A    between atoms: N_12  and  C_25
    3  A    between atoms: C_13  and  C_26
    4  A    between atoms: C_17  and  C_20
                            x       y       z     vdW  Elec       q    Type
                         _______ _______ _______ _____ _____    ______ ____

>  <TORSDO>
F 4

$$$$
=
 OpenBabel11042418263D

 28 32  0  0  1  0  0  0  0  0999 V2000
  191.3720  175.1600  143.1910 C   0  0  0  0  0  2  0  0  0  0  0  0
  190.5900  176.4110  143.4470 C   0  0  1  0  0  3  0  0  0  0  0  0
  188.9440  176.8990  144.9050 C   0  0  2  0  0  3  0  0  0  0  0  0
  190.1850  177.4790  146.9950 C   0  0  0  0  0  2  0  0  0  0  0  0
  189.2740  176.3340  143.6470 C   0  0  1  0  0  3  0  0  0  0  0  0
  187.0870  177.2970  143.5940 C   0  0  2  0  0  3  0  0  0  0  0  0
  187.6730  177.5040  144.9200 N   0  0  0  0  0  2  0  0  0  0  0  0
  191.8540  175.8420  145.2870 C   0  0  0  0  0  0  0  0  0  0  0  0
  191.1700  176.4370  147.5040 C   0  0  0  0  0  3  0  0  0  0  0  0
  188.1840  176.6740  142.6840 C   0  0  2  0  0  3  0  0  0  0  0  0
  191.2000  177.0160  144.6710 C   0  0  2  0  0  3  0  0  0  0  0  0
  191.9310  174.8240  144.4980 N   0  0  0  0  0  0  0  0  0  0  0  0
  191.9120  175.7030  146.7140 N   0  0  0  0  0  0  0  0  0  0  0  0
  190.0250  177.3530  145.5100 C   0  0  1  0  0  3  0  0  0  0  0  0
  188.7440  173.3260  141.7580 C   0  0  0  0  0  0  0  0  0  0  0  0
  188.2640  175.2830  140.5650 C   0  0  0  0  0  2  0  0  0  0  0  0
  189.5580  173.4350  139.3530 C   0  0  0  0  0  1  0  0  0  0  0  0
  188.0440  174.1490  142.7600 C   0  0  0  0  0  2  0  0  0  0  0  0
  187.6630  175.4180  141.9790 C   0  0  1  0  0  3  0  0  0  0  0  0
  189.2040  172.1770  141.9880 O   0  0  0  0  0  0  0  0  0  0  0  0
  188.8550  173.9660  140.5080 N   0  0  0  0  0  0  0  0  0  0  0  0
  185.4030  179.0930  143.2150 C   0  0  0  0  0  3  0  0  0  0  0  0
  186.6370  178.6110  143.0330 C   0  0  0  0  0  3  0  0  0  0  0  0
  184.3460  178.3730  143.9940 C   0  0  0  0  0  2  0  0  0  0  0  0
  184.5160  178.0480  146.4800 C   0  0  0  0  0  0  0  0  0  0  0  0
  184.8030  176.6980  146.3090 O   0  0  0  0  0  0  0  0  0  0  0  0
  184.2880  178.8900  145.3520 N   0  0  0  0  0  2  0  0  0  0  0  0
  184.4590  178.5310  147.6400 O   0  0  0  0  0  1  0  0  0  0  0  0
  1 12  1  0  0  0  0
  2  1  1  1  0  0  0
  2  5  1  0  0  0  0
  2 11  1  0  0  0  0
  3  7  1  6  0  0  0
  3 14  1  0  0  0  0
  4  9  1  0  0  0  0
  5  3  1  0  0  0  0
  6  7  1  0  0  0  0
  8 13  1  0  0  0  0
 10  6  1  0  0  0  0
 10  5  1  0  0  0  0
 11  8  1  0  0  0  0
 11 14  1  0  0  0  0
 12  8  2  0  0  0  0
 13  9  2  0  0  0  0
 14  4  1  0  0  0  0
 15 20  2  0  0  0  0
 15 18  1  0  0  0  0
 16 19  1  0  0  0  0
 17 21  1  0  0  0  0
 19 10  1  0  0  0  0
 19 18  1  0  0  0  0
 21 16  1  0  0  0  0
 21 15  1  0  0  0  0
 22 24  1  0  0  0  0
 23 22  2  0  0  0  0
 23  6  1  0  0  0  0
 24 27  1  0  0  0  0
 25 28  1  0  0  0  0
 26 25  2  0  0  0  0
 27 25  1  0  0  0  0
M  END
>  <MODEL>
7

>  <REMARK>
 VINA RESULT:      -7.0      3.270      6.923
  Name = 
  4 active torsions:
  status: ('A' for Active; 'I' for Inactive)
    1  A    between atoms: C_9  and  C_25
    2  A    between atoms: N_12  and  C_25
    3  A    between atoms: C_13  and  C_26
    4  A    between atoms: C_17  and  C_20
                            x       y       z     vdW  Elec       q    Type
                         _______ _______ _______ _____ _____    ______ ____

>  <TORSDO>
F 4

$$$$
=
 OpenBabel11042418263D

 28 32  0  0  1  0  0  0  0  0999 V2000
  189.4490  173.5400  139.9870 C   0  0  0  0  0  2  0  0  0  0  0  0
  190.0020  174.2570  141.1810 C   0  0  1  0  0  3  0  0  0  0  0  0
  189.8010  173.8930  143.3940 C   0  0  2  0  0  3  0  0  0  0  0  0
  191.5590  172.1780  143.8530 C   0  0  0  0  0  2  0  0  0  0  0  0
  189.2190  174.4720  142.2380 C   0  0  1  0  0  3  0  0  0  0  0  0
  188.6340  175.7170  144.1930 C   0  0  2  0  0  3  0  0  0  0  0  0
  189.5090  174.6050  144.5730 N   0  0  0  0  0  2  0  0  0  0  0  0
  190.8360  172.1130  141.0510 C   0  0  0  0  0  0  0  0  0  0  0  0
  191.4980  170.9100  143.0140 C   0  0  0  0  0  3  0  0  0  0  0  0
  188.5600  175.7510  142.6390 C   0  0  2  0  0  3  0  0  0  0  0  0
  191.1620  173.4300  141.6360 C   0  0  2  0  0  3  0  0  0  0  0  0
  189.8920  172.1610  140.1730 N   0  0  0  0  0  0  0  0  0  0  0  0
  191.1640  170.9020  141.7480 N   0  0  0  0  0  0  0  0  0  0  0  0
  190.9540  173.3230  143.1000 C   0  0  1  0  0  3  0  0  0  0  0  0
  185.8950  177.6640  141.3690 C   0  0  0  0  0  0  0  0  0  0  0  0
  186.1710  176.3220  143.2680 C   0  0  0  0  0  2  0  0  0  0  0  0
  184.4660  178.2290  143.3930 C   0  0  0  0  0  1  0  0  0  0  0  0
  186.9510  176.7270  140.9480 C   0  0  0  0  0  2  0  0  0  0  0  0
  187.1060  175.7930  142.1610 C   0  0  1  0  0  3  0  0  0  0  0  0
  185.4450  178.5890  140.6420 O   0  0  0  0  0  0  0  0  0  0  0  0
  185.4420  177.4230  142.6810 N   0  0  0  0  0  0  0  0  0  0  0  0
  188.8340  177.5420  145.8770 C   0  0  0  0  0  3  0  0  0  0  0  0
  189.2030  177.0030  144.7100 C   0  0  0  0  0  3  0  0  0  0  0  0
  187.8170  176.9210  146.7840 C   0  0  0  0  0  2  0  0  0  0  0  0
  185.4620  177.7440  147.0810 C   0  0  0  0  0  0  0  0  0  0  0  0
  184.9580  176.5890  146.4940 O   0  0  0  0  0  0  0  0  0  0  0  0
  186.8680  177.9260  147.2330 N   0  0  0  0  0  2  0  0  0  0  0  0
  184.6710  178.6360  147.4840 O   0  0  0  0  0  1  0  0  0  0  0  0
  1 12  1  0  0  0  0
  2  1  1  6  0  0  0
  2 11  1  0  0  0  0
  2  5  1  0  0  0  0
  3  7  1  1  0  0  0
  5 10  1  0  0  0  0
  5  3  1  0  0  0  0
  6  7  1  0  0  0  0
  6 23  1  0  0  0  0
  8 11  1  0  0  0  0
  8 13  1  0  0  0  0
  9  4  1  0  0  0  0
 10  6  1  0  0  0  0
 11 14  1  0  0  0  0
 12  8  2  0  0  0  0
 13  9  2  0  0  0  0
 14  3  1  0  0  0  0
 14  4  1  0  0  0  0
 15 21  1  0  0  0  0
 18 15  1  0  0  0  0
 18 19  1  0  0  0  0
 19 10  1  0  0  0  0
 19 16  1  0  0  0  0
 20 15  2  0  0  0  0
 21 16  1  0  0  0  0
 21 17  1  0  0  0  0
 22 24  1  0  0  0  0
 23 22  2  0  0  0  0
 24 27  1  0  0  0  0
 25 27  1  0  0  0  0
 25 28  1  0  0  0  0
 26 25  2  0  0  0  0
M  END
>  <MODEL>
8

>  <REMARK>
 VINA RESULT:      -6.7      4.025      7.486
  Name = 
  4 active torsions:
  status: ('A' for Active; 'I' for Inactive)
    1  A    between atoms: C_9  and  C_25
    2  A    between atoms: N_12  and  C_25
    3  A    between atoms: C_13  and  C_26
    4  A    between atoms: C_17  and  C_20
                            x       y       z     vdW  Elec       q    Type
                         _______ _______ _______ _____ _____    ______ ____

>  <TORSDO>
F 4

$$$$
=
 OpenBabel11042418263D

 28 32  0  0  1  0  0  0  0  0999 V2000
  192.6880  175.2830  142.3170 C   0  0  0  0  0  2  0  0  0  0  0  0
  192.3980  176.1500  143.5030 C   0  0  1  0  0  3  0  0  0  0  0  0
  192.2190  175.6990  145.7030 C   0  0  2  0  0  3  0  0  0  0  0  0
  194.5890  175.7460  146.4910 C   0  0  0  0  0  2  0  0  0  0  0  0
  191.5620  175.7150  144.4460 C   0  0  1  0  0  3  0  0  0  0  0  0
  190.0090  176.1190  146.2180 C   0  0  2  0  0  3  0  0  0  0  0  0
  191.3510  175.9580  146.7810 N   0  0  0  0  0  2  0  0  0  0  0  0
  194.5160  175.2520  143.6400 C   0  0  0  0  0  0  0  0  0  0  0  0
  195.5630  174.8380  145.7540 C   0  0  0  0  0  3  0  0  0  0  0  0
  190.1440  176.1270  144.6680 C   0  0  2  0  0  3  0  0  0  0  0  0
  193.7250  176.3920  144.1510 C   0  0  2  0  0  3  0  0  0  0  0  0
  193.9490  174.6320  142.6600 N   0  0  0  0  0  0  0  0  0  0  0  0
  195.5090  174.6240  144.4640 N   0  0  0  0  0  0  0  0  0  0  0  0
  193.4600  176.1320  145.5860 C   0  0  1  0  0  3  0  0  0  0  0  0
  189.7060  173.1820  142.7930 C   0  0  0  0  0  0  0  0  0  0  0  0
  189.0100  175.4010  142.5190 C   0  0  0  0  0  2  0  0  0  0  0  0
  189.2940  173.9710  140.4130 C   0  0  0  0  0  1  0  0  0  0  0  0
  189.6910  173.6870  144.1780 C   0  0  0  0  0  2  0  0  0  0  0  0
  189.1750  175.1280  144.0280 C   0  0  1  0  0  3  0  0  0  0  0  0
  190.0480  172.0120  142.4750 O   0  0  0  0  0  0  0  0  0  0  0  0
  189.3050  174.1520  141.8540 N   0  0  0  0  0  0  0  0  0  0  0  0
  188.1060  177.5750  146.8990 C   0  0  0  0  0  3  0  0  0  0  0  0
  189.4170  177.4110  146.6900 C   0  0  0  0  0  3  0  0  0  0  0  0
  187.0980  176.4890  146.6820 C   0  0  0  0  0  2  0  0  0  0  0  0
  185.1360  177.6640  145.6400 C   0  0  0  0  0  0  0  0  0  0  0  0
  184.7960  178.2330  146.8620 O   0  0  0  0  0  1  0  0  0  0  0  0
  186.2670  176.8020  145.5300 N   0  0  0  0  0  2  0  0  0  0  0  0
  184.4420  177.9140  144.6210 O   0  0  0  0  0  0  0  0  0  0  0  0
  1 12  1  0  0  0  0
  2  1  1  6  0  0  0
  2 11  1  0  0  0  0
  2  5  1  0  0  0  0
  3  7  1  1  0  0  0
  5 10  1  0  0  0  0
  5  3  1  0  0  0  0
  6 23  1  0  0  0  0
  6  7  1  0  0  0  0
  8 11  1  0  0  0  0
  8 13  1  0  0  0  0
  9  4  1  0  0  0  0
 10  6  1  0  0  0  0
 11 14  1  0  0  0  0
 12  8  2  0  0  0  0
 13  9  2  0  0  0  0
 14  3  1  0  0  0  0
 14  4  1  0  0  0  0
 15 18  1  0  0  0  0
 16 19  1  0  0  0  0
 17 21  1  0  0  0  0
 19 18  1  0  0  0  0
 19 10  1  0  0  0  0
 20 15  2  0  0  0  0
 21 16  1  0  0  0  0
 21 15  1  0  0  0  0
 23 22  2  0  0  0  0
 24 22  1  0  0  0  0
 25 26  1  0  0  0  0
 27 25  1  0  0  0  0
 27 24  1  0  0  0  0
 28 25  2  0  0  0  0
M  END
>  <MODEL>
9

>  <REMARK>
 VINA RESULT:      -6.7      3.228      7.620
  Name = 
  4 active torsions:
  status: ('A' for Active; 'I' for Inactive)
    1  A    between atoms: C_9  and  C_25
    2  A    between atoms: N_12  and  C_25
    3  A    between atoms: C_13  and  C_26
    4  A    between atoms: C_17  and  C_20
                            x       y       z     vdW  Elec       q    Type
                         _______ _______ _______ _____ _____    ______ ____

>  <TORSDO>
F 4

$$$$
