=
 OpenBabel11042418253D

 28 29  0  0  1  0  0  0  0  0999 V2000
  188.0700  177.2210  145.9730 C   0  0  1  0  0  3  0  0  0  0  0  0
  189.3830  176.5840  146.3130 C   0  0  0  0  0  0  0  0  0  0  0  0
  192.7630  176.3510  146.4910 C   0  0  0  0  0  0  0  0  0  0  0  0
  190.5310  177.1250  146.0440 N   0  0  0  0  0  0  0  0  0  0  0  0
  189.4780  175.3270  146.9840 N   0  0  0  0  0  0  0  0  0  0  0  0
  194.0540  176.5120  146.4330 C   0  0  0  0  0  3  0  0  0  0  0  0
  190.8410  175.0650  147.1390 N   0  0  0  0  0  0  0  0  0  0  0  0
  191.4710  176.1890  146.5500 C   0  0  0  0  0  0  0  0  0  0  0  0
  195.4650  175.1370  144.9030 C   0  0  0  0  0  0  0  0  0  0  0  0
  194.9020  175.3920  146.1890 N   0  0  0  0  0  2  0  0  0  0  0  0
  195.2140  175.8940  143.9270 O   0  0  0  0  0  0  0  0  0  0  0  0
  196.3310  173.9430  144.7040 C   0  0  0  0  0  2  0  0  0  0  0  0
  197.4860  174.0250  145.5800 N   0  0  0  0  0  1  0  0  0  0  0  0
  187.6480  176.8540  144.5910 C   0  0  0  0  0  3  0  0  0  0  0  0
  187.7690  177.7030  143.6210 N   0  0  0  0  0  0  0  0  0  0  0  0
  188.2180  176.8770  141.4860 O   0  0  0  0  0  0  0  0  0  0  0  0
  187.3820  177.3960  142.2770 C   0  0  0  0  0  0  0  0  0  0  0  0
  185.9990  177.6920  141.8290 C   0  0  0  0  0  0  0  0  0  0  0  0
  182.0410  178.5500  140.6770 N   0  0  0  0  0  1  0  0  0  0  0  0
  185.0230  177.9640  142.7980 C   0  0  0  0  0  3  0  0  0  0  0  0
  185.6110  177.7150  140.4700 C   0  0  0  0  0  0  0  0  0  0  0  0
  183.7100  178.2490  142.4270 C   0  0  0  0  0  3  0  0  0  0  0  0
  184.3230  177.9970  140.1370 N   0  0  0  0  0  0  0  0  0  0  0  0
  186.5450  177.4510  139.4260 N   0  0  0  0  0  1  0  0  0  0  0  0
  183.3750  178.2610  141.0750 C   0  0  0  0  0  0  0  0  0  0  0  0
  186.9900  176.8060  146.9620 C   0  0  0  0  0  2  0  0  0  0  0  0
  184.5630  177.7580  146.5960 C   0  0  0  0  0  1  0  0  0  0  0  0
  186.0410  178.2520  147.5270 S   0  0  0  0  0  0  0  0  0  0  0  0
  1 14  1  6  0  0  0
  1  2  1  0  0  0  0
  1 26  1  0  0  0  0
  2  5  1  0  0  0  0
  3  8  2  0  0  0  0
  4  2  2  0  0  0  0
  4  8  1  0  0  0  0
  5  7  2  0  0  0  0
  6  3  2  0  0  0  0
  8  7  1  0  0  0  0
  9 10  1  0  0  0  0
 10  6  1  0  0  0  0
 11  9  2  0  0  0  0
 12  9  1  0  0  0  0
 12 13  1  0  0  0  0
 15 14  2  0  0  0  0
 16 17  2  0  0  0  0
 17 15  1  0  0  0  0
 18 17  1  0  0  0  0
 18 20  1  0  0  0  0
 19 25  1  0  0  0  0
 21 18  2  0  0  0  0
 22 20  2  0  0  0  0
 23 21  1  0  0  0  0
 23 25  2  0  0  0  0
 24 21  1  0  0  0  0
 25 22  1  0  0  0  0
 26 28  1  0  0  0  0
 27 28  1  0  0  0  0
M  END
>  <MODEL>
1

>  <REMARK>
 VINA RESULT:      -6.8      0.000      0.000
  Name = 
  8 active torsions:
  status: ('A' for Active; 'I' for Inactive)
    1  A    between atoms: C_1  and  C_5
    2  A    between atoms: C_2  and  C_9
    3  A    between atoms: C_3  and  C_25
    4  A    between atoms: C_7  and  C_9
    5  A    between atoms: C_7  and  S_27
    6  A    between atoms: C_8  and  C_9
    7  A    between atoms: C_19  and  N_21
    8  A    between atoms: N_20  and  C_25
                            x       y       z     vdW  Elec       q    Type
                         _______ _______ _______ _____ _____    ______ ____

>  <TORSDO>
F 8

$$$$
=
 OpenBabel11042418253D

 28 29  0  0  1  0  0  0  0  0999 V2000
  185.5250  177.8410  143.5890 C   0  0  1  0  0  3  0  0  0  0  0  0
  184.5010  178.0580  142.5180 C   0  0  0  0  0  0  0  0  0  0  0  0
  181.4160  178.6980  141.2610 C   0  0  0  0  0  0  0  0  0  0  0  0
  183.2490  178.2930  142.7630 N   0  0  0  0  0  0  0  0  0  0  0  0
  184.8260  178.0410  141.1270 N   0  0  0  0  0  0  0  0  0  0  0  0
  180.1570  178.9560  141.0490 C   0  0  0  0  0  3  0  0  0  0  0  0
  183.6350  178.2900  140.4410 N   0  0  0  0  0  0  0  0  0  0  0  0
  182.6760  178.4410  141.4720 C   0  0  0  0  0  0  0  0  0  0  0  0
  178.3630  177.4890  140.1250 C   0  0  0  0  0  0  0  0  0  0  0  0
  179.4820  178.3560  139.9460 N   0  0  0  0  0  2  0  0  0  0  0  0
  177.9420  177.2110  141.2800 O   0  0  0  0  0  0  0  0  0  0  0  0
  177.7080  176.8790  138.9370 C   0  0  0  0  0  2  0  0  0  0  0  0
  178.3300  175.6020  138.6370 N   0  0  0  0  0  1  0  0  0  0  0  0
  186.8470  177.4930  142.9930 C   0  0  0  0  0  3  0  0  0  0  0  0
  187.2060  176.2560  142.8700 N   0  0  0  0  0  0  0  0  0  0  0  0
  188.4920  175.2760  141.1880 O   0  0  0  0  0  0  0  0  0  0  0  0
  188.4630  175.8720  142.3010 C   0  0  0  0  0  0  0  0  0  0  0  0
  189.7180  176.1800  143.0270 C   0  0  0  0  0  0  0  0  0  0  0  0
  193.2880  177.1620  145.0330 N   0  0  0  0  0  1  0  0  0  0  0  0
  190.3670  177.3950  142.7650 C   0  0  0  0  0  3  0  0  0  0  0  0
  190.2990  175.3080  143.9770 C   0  0  0  0  0  0  0  0  0  0  0  0
  191.5480  177.7290  143.4230 C   0  0  0  0  0  3  0  0  0  0  0  0
  191.4540  175.6610  144.6040 N   0  0  0  0  0  0  0  0  0  0  0  0
  189.7010  174.0560  144.3000 N   0  0  0  0  0  1  0  0  0  0  0  0
  192.0830  176.8390  144.3510 C   0  0  0  0  0  0  0  0  0  0  0  0
  185.6710  179.0790  144.4640 C   0  0  0  0  0  2  0  0  0  0  0  0
  186.3410  177.6690  146.5830 C   0  0  0  0  0  1  0  0  0  0  0  0
  184.9840  178.7830  146.1230 S   0  0  0  0  0  0  0  0  0  0  0  0
  1 14  1  6  0  0  0
  1 26  1  0  0  0  0
  2  4  2  0  0  0  0
  2  1  1  0  0  0  0
  3  8  2  0  0  0  0
  5  2  1  0  0  0  0
  6  3  2  0  0  0  0
  7  5  2  0  0  0  0
  7  8  1  0  0  0  0
  8  4  1  0  0  0  0
  9 11  2  0  0  0  0
 10  9  1  0  0  0  0
 10  6  1  0  0  0  0
 12  9  1  0  0  0  0
 13 12  1  0  0  0  0
 15 14  2  0  0  0  0
 16 17  2  0  0  0  0
 17 15  1  0  0  0  0
 17 18  1  0  0  0  0
 18 21  1  0  0  0  0
 20 18  2  0  0  0  0
 20 22  1  0  0  0  0
 21 24  1  0  0  0  0
 21 23  2  0  0  0  0
 22 25  2  0  0  0  0
 25 23  1  0  0  0  0
 25 19  1  0  0  0  0
 26 28  1  0  0  0  0
 28 27  1  0  0  0  0
M  END
>  <MODEL>
2

>  <REMARK>
 VINA RESULT:      -6.6      3.333     10.429
  Name = 
  8 active torsions:
  status: ('A' for Active; 'I' for Inactive)
    1  A    between atoms: C_1  and  C_5
    2  A    between atoms: C_2  and  C_9
    3  A    between atoms: C_3  and  C_25
    4  A    between atoms: C_7  and  C_9
    5  A    between atoms: C_7  and  S_27
    6  A    between atoms: C_8  and  C_9
    7  A    between atoms: C_19  and  N_21
    8  A    between atoms: N_20  and  C_25
                            x       y       z     vdW  Elec       q    Type
                         _______ _______ _______ _____ _____    ______ ____

>  <TORSDO>
F 8

$$$$
=
 OpenBabel11042418253D

 28 29  0  0  1  0  0  0  0  0999 V2000
  188.2880  177.2850  145.7330 C   0  0  1  0  0  3  0  0  0  0  0  0
  189.5850  176.6820  146.1780 C   0  0  0  0  0  0  0  0  0  0  0  0
  192.9580  176.4220  146.4340 C   0  0  0  0  0  0  0  0  0  0  0  0
  190.7450  177.1610  145.8510 N   0  0  0  0  0  0  0  0  0  0  0  0
  189.6500  175.5300  147.0210 N   0  0  0  0  0  0  0  0  0  0  0  0
  194.2520  176.5530  146.3720 C   0  0  0  0  0  3  0  0  0  0  0  0
  191.0060  175.2720  147.2300 N   0  0  0  0  0  0  0  0  0  0  0  0
  191.6620  176.2910  146.4970 C   0  0  0  0  0  0  0  0  0  0  0  0
  195.7320  175.0070  145.0910 C   0  0  0  0  0  0  0  0  0  0  0  0
  195.0830  175.3970  146.3010 N   0  0  0  0  0  2  0  0  0  0  0  0
  195.5760  175.6710  144.0320 O   0  0  0  0  0  0  0  0  0  0  0  0
  196.5750  173.7810  145.0720 C   0  0  0  0  0  2  0  0  0  0  0  0
  197.0140  173.4680  146.4210 N   0  0  0  0  0  1  0  0  0  0  0  0
  187.7100  176.5140  144.5950 C   0  0  0  0  0  3  0  0  0  0  0  0
  188.4850  175.8980  143.7610 N   0  0  0  0  0  0  0  0  0  0  0  0
  186.9120  175.5050  142.0820 O   0  0  0  0  0  0  0  0  0  0  0  0
  187.9780  175.1420  142.6550 C   0  0  0  0  0  0  0  0  0  0  0  0
  188.7120  173.9390  142.1930 C   0  0  0  0  0  0  0  0  0  0  0  0
  190.8080  170.4870  141.0020 N   0  0  0  0  0  1  0  0  0  0  0  0
  189.2070  173.0450  143.1530 C   0  0  0  0  0  3  0  0  0  0  0  0
  188.9390  173.6430  140.8290 C   0  0  0  0  0  0  0  0  0  0  0  0
  189.9020  171.9000  142.7690 C   0  0  0  0  0  3  0  0  0  0  0  0
  189.6210  172.5170  140.4840 N   0  0  0  0  0  0  0  0  0  0  0  0
  188.4670  174.5010  139.7940 N   0  0  0  0  0  1  0  0  0  0  0  0
  190.1010  171.6500  141.4130 C   0  0  0  0  0  0  0  0  0  0  0  0
  187.2850  177.3290  146.8780 C   0  0  0  0  0  2  0  0  0  0  0  0
  184.8980  178.4220  147.0690 C   0  0  0  0  0  1  0  0  0  0  0  0
  185.6080  176.9470  146.2840 S   0  0  0  0  0  0  0  0  0  0  0  0
  1 14  1  6  0  0  0
  1  2  1  0  0  0  0
  1 26  1  0  0  0  0
  2  5  1  0  0  0  0
  3  8  2  0  0  0  0
  4  2  2  0  0  0  0
  4  8  1  0  0  0  0
  5  7  2  0  0  0  0
  6  3  2  0  0  0  0
  8  7  1  0  0  0  0
  9 10  1  0  0  0  0
 10  6  1  0  0  0  0
 11  9  2  0  0  0  0
 12  9  1  0  0  0  0
 12 13  1  0  0  0  0
 15 14  2  0  0  0  0
 16 17  2  0  0  0  0
 17 15  1  0  0  0  0
 18 17  1  0  0  0  0
 18 20  1  0  0  0  0
 19 25  1  0  0  0  0
 21 18  2  0  0  0  0
 22 20  2  0  0  0  0
 23 21  1  0  0  0  0
 23 25  2  0  0  0  0
 24 21  1  0  0  0  0
 25 22  1  0  0  0  0
 28 26  1  0  0  0  0
 28 27  1  0  0  0  0
M  END
>  <MODEL>
3

>  <REMARK>
 VINA RESULT:      -6.4      2.999      4.192
  Name = 
  8 active torsions:
  status: ('A' for Active; 'I' for Inactive)
    1  A    between atoms: C_1  and  C_5
    2  A    between atoms: C_2  and  C_9
    3  A    between atoms: C_3  and  C_25
    4  A    between atoms: C_7  and  C_9
    5  A    between atoms: C_7  and  S_27
    6  A    between atoms: C_8  and  C_9
    7  A    between atoms: C_19  and  N_21
    8  A    between atoms: N_20  and  C_25
                            x       y       z     vdW  Elec       q    Type
                         _______ _______ _______ _____ _____    ______ ____

>  <TORSDO>
F 8

$$$$
=
 OpenBabel11042418253D

 28 29  0  0  1  0  0  0  0  0999 V2000
  186.4060  177.3190  144.1060 C   0  0  1  0  0  3  0  0  0  0  0  0
  185.4260  177.6370  143.0180 C   0  0  0  0  0  0  0  0  0  0  0  0
  182.4070  178.4590  141.7080 C   0  0  0  0  0  0  0  0  0  0  0  0
  184.1750  177.8990  143.2380 N   0  0  0  0  0  0  0  0  0  0  0  0
  185.7960  177.6940  141.6400 N   0  0  0  0  0  0  0  0  0  0  0  0
  181.1650  178.7730  141.4730 C   0  0  0  0  0  3  0  0  0  0  0  0
  184.6380  178.0260  140.9340 N   0  0  0  0  0  0  0  0  0  0  0  0
  183.6500  178.1460  141.9420 C   0  0  0  0  0  0  0  0  0  0  0  0
  179.1190  178.4890  140.0750 C   0  0  0  0  0  0  0  0  0  0  0  0
  180.5080  178.2660  140.3140 N   0  0  0  0  0  2  0  0  0  0  0  0
  178.4180  179.1350  140.8990 O   0  0  0  0  0  0  0  0  0  0  0  0
  178.4830  177.9220  138.8550 C   0  0  0  0  0  2  0  0  0  0  0  0
  178.3030  176.4910  139.0180 N   0  0  0  0  0  1  0  0  0  0  0  0
  187.8010  177.3270  143.5780 C   0  0  0  0  0  3  0  0  0  0  0  0
  188.8090  177.3530  144.3900 N   0  0  0  0  0  0  0  0  0  0  0  0
  190.5660  178.2780  143.1660 O   0  0  0  0  0  0  0  0  0  0  0  0
  190.1650  177.3570  143.9310 C   0  0  0  0  0  0  0  0  0  0  0  0
  191.0860  176.2770  144.3610 C   0  0  0  0  0  0  0  0  0  0  0  0
  193.7140  173.2680  145.6920 N   0  0  0  0  0  1  0  0  0  0  0  0
  191.6730  176.3610  145.6320 C   0  0  0  0  0  3  0  0  0  0  0  0
  191.4050  175.1610  143.5530 C   0  0  0  0  0  0  0  0  0  0  0  0
  192.5440  175.3700  146.0810 C   0  0  0  0  0  3  0  0  0  0  0  0
  192.2590  174.2090  144.0190 N   0  0  0  0  0  0  0  0  0  0  0  0
  190.8490  175.0030  142.2510 N   0  0  0  0  0  1  0  0  0  0  0  0
  192.8280  174.2890  145.2510 C   0  0  0  0  0  0  0  0  0  0  0  0
  186.2910  178.3130  145.2530 C   0  0  0  0  0  2  0  0  0  0  0  0
  186.4440  178.5350  147.8710 C   0  0  0  0  0  1  0  0  0  0  0  0
  185.4770  177.5510  146.6910 S   0  0  0  0  0  0  0  0  0  0  0  0
  1 14  1  6  0  0  0
  1 26  1  0  0  0  0
  2  4  2  0  0  0  0
  2  1  1  0  0  0  0
  3  8  2  0  0  0  0
  5  2  1  0  0  0  0
  6  3  2  0  0  0  0
  7  5  2  0  0  0  0
  7  8  1  0  0  0  0
  8  4  1  0  0  0  0
  9 10  1  0  0  0  0
  9 11  2  0  0  0  0
 10  6  1  0  0  0  0
 12 13  1  0  0  0  0
 12  9  1  0  0  0  0
 14 15  2  0  0  0  0
 16 17  2  0  0  0  0
 17 18  1  0  0  0  0
 17 15  1  0  0  0  0
 18 20  1  0  0  0  0
 20 22  2  0  0  0  0
 21 23  1  0  0  0  0
 21 18  2  0  0  0  0
 23 25  2  0  0  0  0
 24 21  1  0  0  0  0
 25 19  1  0  0  0  0
 25 22  1  0  0  0  0
 26 28  1  0  0  0  0
 28 27  1  0  0  0  0
M  END
>  <MODEL>
4

>  <REMARK>
 VINA RESULT:      -6.4      3.206     10.323
  Name = 
  8 active torsions:
  status: ('A' for Active; 'I' for Inactive)
    1  A    between atoms: C_1  and  C_5
    2  A    between atoms: C_2  and  C_9
    3  A    between atoms: C_3  and  C_25
    4  A    between atoms: C_7  and  C_9
    5  A    between atoms: C_7  and  S_27
    6  A    between atoms: C_8  and  C_9
    7  A    between atoms: C_19  and  N_21
    8  A    between atoms: N_20  and  C_25
                            x       y       z     vdW  Elec       q    Type
                         _______ _______ _______ _____ _____    ______ ____

>  <TORSDO>
F 8

$$$$
=
 OpenBabel11042418253D

 28 29  0  0  1  0  0  0  0  0999 V2000
  186.6590  177.1140  144.5270 C   0  0  1  0  0  3  0  0  0  0  0  0
  187.1090  176.6800  143.1660 C   0  0  0  0  0  0  0  0  0  0  0  0
  188.3260  174.5300  140.8410 C   0  0  0  0  0  0  0  0  0  0  0  0
  187.5670  175.4940  142.9090 N   0  0  0  0  0  0  0  0  0  0  0  0
  187.0530  177.5400  142.0260 N   0  0  0  0  0  0  0  0  0  0  0  0
  188.8030  173.5250  140.1640 C   0  0  0  0  0  3  0  0  0  0  0  0
  187.5370  176.7950  140.9480 N   0  0  0  0  0  0  0  0  0  0  0  0
  187.8480  175.5370  141.5170 C   0  0  0  0  0  0  0  0  0  0  0  0
  191.1320  173.4190  139.2770 C   0  0  0  0  0  0  0  0  0  0  0  0
  189.7530  173.7520  139.1250 N   0  0  0  0  0  2  0  0  0  0  0  0
  191.5610  172.9240  140.3530 O   0  0  0  0  0  0  0  0  0  0  0  0
  192.0810  173.6930  138.1640 C   0  0  0  0  0  2  0  0  0  0  0  0
  193.2360  174.4110  138.6710 N   0  0  0  0  0  1  0  0  0  0  0  0
  187.7430  176.9100  145.5310 C   0  0  0  0  0  3  0  0  0  0  0  0
  188.9010  177.4650  145.3670 N   0  0  0  0  0  0  0  0  0  0  0  0
  189.8760  177.8010  147.4600 O   0  0  0  0  0  0  0  0  0  0  0  0
  189.9710  177.3010  146.3050 C   0  0  0  0  0  0  0  0  0  0  0  0
  191.1830  176.5450  145.9060 C   0  0  0  0  0  0  0  0  0  0  0  0
  194.6060  174.3220  144.8720 N   0  0  0  0  0  1  0  0  0  0  0  0
  191.5890  175.4600  146.6970 C   0  0  0  0  0  3  0  0  0  0  0  0
  191.9560  176.8610  144.7650 C   0  0  0  0  0  0  0  0  0  0  0  0
  192.7200  174.7190  146.3630 C   0  0  0  0  0  3  0  0  0  0  0  0
  193.0550  176.1190  144.4630 N   0  0  0  0  0  0  0  0  0  0  0  0
  191.6090  177.9470  143.9110 N   0  0  0  0  0  1  0  0  0  0  0  0
  193.4490  175.0670  145.2280 C   0  0  0  0  0  0  0  0  0  0  0  0
  186.2390  178.5770  144.5230 C   0  0  0  0  0  2  0  0  0  0  0  0
  184.2580  178.2210  146.2190 C   0  0  0  0  0  1  0  0  0  0  0  0
  184.4260  178.7290  144.4840 S   0  0  0  0  0  0  0  0  0  0  0  0
  1 26  1  6  0  0  0
  1 14  1  0  0  0  0
  2  1  1  0  0  0  0
  3  8  2  0  0  0  0
  4  2  2  0  0  0  0
  5  2  1  0  0  0  0
  6  3  2  0  0  0  0
  7  8  1  0  0  0  0
  7  5  2  0  0  0  0
  8  4  1  0  0  0  0
  9 11  2  0  0  0  0
 10  9  1  0  0  0  0
 10  6  1  0  0  0  0
 12 13  1  0  0  0  0
 12  9  1  0  0  0  0
 15 14  2  0  0  0  0
 15 17  1  0  0  0  0
 17 16  2  0  0  0  0
 18 17  1  0  0  0  0
 18 20  1  0  0  0  0
 19 25  1  0  0  0  0
 21 18  2  0  0  0  0
 22 20  2  0  0  0  0
 23 21  1  0  0  0  0
 23 25  2  0  0  0  0
 24 21  1  0  0  0  0
 25 22  1  0  0  0  0
 28 26  1  0  0  0  0
 28 27  1  0  0  0  0
M  END
>  <MODEL>
5

>  <REMARK>
 VINA RESULT:      -6.4      3.478      7.137
  Name = 
  8 active torsions:
  status: ('A' for Active; 'I' for Inactive)
    1  A    between atoms: C_1  and  C_5
    2  A    between atoms: C_2  and  C_9
    3  A    between atoms: C_3  and  C_25
    4  A    between atoms: C_7  and  C_9
    5  A    between atoms: C_7  and  S_27
    6  A    between atoms: C_8  and  C_9
    7  A    between atoms: C_19  and  N_21
    8  A    between atoms: N_20  and  C_25
                            x       y       z     vdW  Elec       q    Type
                         _______ _______ _______ _____ _____    ______ ____

>  <TORSDO>
F 8

$$$$
=
 OpenBabel11042418253D

 28 29  0  0  1  0  0  0  0  0999 V2000
  190.5620  172.9120  142.1780 C   0  0  1  0  0  3  0  0  0  0  0  0
  189.4830  173.9080  142.4720 C   0  0  0  0  0  0  0  0  0  0  0  0
  188.1100  176.6640  143.8960 C   0  0  0  0  0  0  0  0  0  0  0  0
  189.6410  174.9190  143.2690 N   0  0  0  0  0  0  0  0  0  0  0  0
  188.1850  173.8340  141.8790 N   0  0  0  0  0  0  0  0  0  0  0  0
  187.8360  177.7500  144.5600 C   0  0  0  0  0  3  0  0  0  0  0  0
  187.4640  174.9230  142.3740 N   0  0  0  0  0  0  0  0  0  0  0  0
  188.3830  175.5770  143.2300 C   0  0  0  0  0  0  0  0  0  0  0  0
  185.5780  178.8110  144.5580 C   0  0  0  0  0  0  0  0  0  0  0  0
  186.5430  177.9300  145.1320 N   0  0  0  0  0  2  0  0  0  0  0  0
  185.8500  179.4780  143.5240 O   0  0  0  0  0  0  0  0  0  0  0  0
  184.2500  178.9700  145.2090 C   0  0  0  0  0  2  0  0  0  0  0  0
  184.2800  178.3780  146.5340 N   0  0  0  0  0  1  0  0  0  0  0  0
  191.7650  173.1740  143.0200 C   0  0  0  0  0  3  0  0  0  0  0  0
  192.0250  172.4270  144.0440 N   0  0  0  0  0  0  0  0  0  0  0  0
  193.7570  171.6470  145.3980 O   0  0  0  0  0  0  0  0  0  0  0  0
  193.1690  172.6360  144.8790 C   0  0  0  0  0  0  0  0  0  0  0  0
  193.6500  174.0170  145.1270 C   0  0  0  0  0  0  0  0  0  0  0  0
  194.9370  177.9470  145.9240 N   0  0  0  0  0  1  0  0  0  0  0  0
  193.0590  174.7610  146.1580 C   0  0  0  0  0  3  0  0  0  0  0  0
  194.6800  174.6270  144.3740 C   0  0  0  0  0  0  0  0  0  0  0  0
  193.4780  176.0610  146.4300 C   0  0  0  0  0  3  0  0  0  0  0  0
  195.0680  175.8990  144.6620 N   0  0  0  0  0  0  0  0  0  0  0  0
  195.3310  173.9380  143.3100 N   0  0  0  0  0  1  0  0  0  0  0  0
  194.4960  176.6210  145.6610 C   0  0  0  0  0  0  0  0  0  0  0  0
  190.0740  171.4900  142.4180 C   0  0  0  0  0  2  0  0  0  0  0  0
  190.4210  171.4090  139.8100 C   0  0  0  0  0  1  0  0  0  0  0  0
  190.8200  170.3390  141.2220 S   0  0  0  0  0  0  0  0  0  0  0  0
  1 26  1  1  0  0  0
  1  2  1  0  0  0  0
  1 14  1  0  0  0  0
  2  4  2  0  0  0  0
  3  6  2  0  0  0  0
  5  7  2  0  0  0  0
  5  2  1  0  0  0  0
  6 10  1  0  0  0  0
  7  8  1  0  0  0  0
  8  4  1  0  0  0  0
  8  3  2  0  0  0  0
  9 10  1  0  0  0  0
  9 12  1  0  0  0  0
 11  9  2  0  0  0  0
 12 13  1  0  0  0  0
 14 15  2  0  0  0  0
 15 17  1  0  0  0  0
 17 18  1  0  0  0  0
 17 16  2  0  0  0  0
 18 20  1  0  0  0  0
 20 22  2  0  0  0  0
 21 23  1  0  0  0  0
 21 18  2  0  0  0  0
 23 25  2  0  0  0  0
 24 21  1  0  0  0  0
 25 19  1  0  0  0  0
 25 22  1  0  0  0  0
 27 28  1  0  0  0  0
 28 26  1  0  0  0  0
M  END
>  <MODEL>
6

>  <REMARK>
 VINA RESULT:      -6.3      4.042      9.230
  Name = 
  8 active torsions:
  status: ('A' for Active; 'I' for Inactive)
    1  A    between atoms: C_1  and  C_5
    2  A    between atoms: C_2  and  C_9
    3  A    between atoms: C_3  and  C_25
    4  A    between atoms: C_7  and  C_9
    5  A    between atoms: C_7  and  S_27
    6  A    between atoms: C_8  and  C_9
    7  A    between atoms: C_19  and  N_21
    8  A    between atoms: N_20  and  C_25
                            x       y       z     vdW  Elec       q    Type
                         _______ _______ _______ _____ _____    ______ ____

>  <TORSDO>
F 8

$$$$
=
 OpenBabel11042418253D

 28 29  0  0  1  0  0  0  0  0999 V2000
  192.4890  175.2820  146.5350 C   0  0  1  0  0  3  0  0  0  0  0  0
  191.1990  176.0160  146.3360 C   0  0  0  0  0  0  0  0  0  0  0  0
  187.9250  176.7320  146.8640 C   0  0  0  0  0  0  0  0  0  0  0  0
  190.1040  175.7210  146.9670 N   0  0  0  0  0  0  0  0  0  0  0  0
  191.0710  177.1210  145.4390 N   0  0  0  0  0  0  0  0  0  0  0  0
  186.6830  176.7940  147.2510 C   0  0  0  0  0  3  0  0  0  0  0  0
  189.7450  177.5500  145.5290 N   0  0  0  0  0  0  0  0  0  0  0  0
  189.1680  176.6700  146.4770 C   0  0  0  0  0  0  0  0  0  0  0  0
  185.1410  178.4380  146.1820 C   0  0  0  0  0  0  0  0  0  0  0  0
  185.6590  177.1150  146.3120 N   0  0  0  0  0  2  0  0  0  0  0  0
  185.5660  179.3720  146.9140 O   0  0  0  0  0  0  0  0  0  0  0  0
  184.0600  178.7100  145.1950 C   0  0  0  0  0  2  0  0  0  0  0  0
  184.6090  179.4160  144.0510 N   0  0  0  0  0  1  0  0  0  0  0  0
  192.6030  174.1450  145.5770 C   0  0  0  0  0  3  0  0  0  0  0  0
  192.0610  174.2190  144.4040 N   0  0  0  0  0  0  0  0  0  0  0  0
  193.1120  172.3440  143.4980 O   0  0  0  0  0  0  0  0  0  0  0  0
  192.1460  173.1560  143.4480 C   0  0  0  0  0  0  0  0  0  0  0  0
  191.0960  173.0200  142.4100 C   0  0  0  0  0  0  0  0  0  0  0  0
  188.1950  172.6850  139.3760 N   0  0  0  0  0  1  0  0  0  0  0  0
  191.3730  173.4730  141.1120 C   0  0  0  0  0  3  0  0  0  0  0  0
  189.8240  172.4550  142.6590 C   0  0  0  0  0  0  0  0  0  0  0  0
  190.4200  173.3670  140.1010 C   0  0  0  0  0  3  0  0  0  0  0  0
  188.9140  172.3640  141.6520 N   0  0  0  0  0  0  0  0  0  0  0  0
  189.4670  171.9710  143.9510 N   0  0  0  0  0  1  0  0  0  0  0  0
  189.1800  172.8020  140.3940 C   0  0  0  0  0  0  0  0  0  0  0  0
  193.6800  176.2150  146.3610 C   0  0  0  0  0  2  0  0  0  0  0  0
  195.3380  176.3710  144.3230 C   0  0  0  0  0  1  0  0  0  0  0  0
  195.1390  175.2990  145.7750 S   0  0  0  0  0  0  0  0  0  0  0  0
  1 14  1  6  0  0  0
  2  1  1  0  0  0  0
  2  4  2  0  0  0  0
  3  6  2  0  0  0  0
  5  7  2  0  0  0  0
  5  2  1  0  0  0  0
  7  8  1  0  0  0  0
  8  3  2  0  0  0  0
  8  4  1  0  0  0  0
  9 10  1  0  0  0  0
  9 11  2  0  0  0  0
 10  6  1  0  0  0  0
 12  9  1  0  0  0  0
 13 12  1  0  0  0  0
 15 14  2  0  0  0  0
 17 16  2  0  0  0  0
 17 15  1  0  0  0  0
 18 21  1  0  0  0  0
 18 17  1  0  0  0  0
 19 25  1  0  0  0  0
 20 18  2  0  0  0  0
 21 24  1  0  0  0  0
 22 25  2  0  0  0  0
 22 20  1  0  0  0  0
 23 21  2  0  0  0  0
 25 23  1  0  0  0  0
 26  1  1  0  0  0  0
 27 28  1  0  0  0  0
 28 26  1  0  0  0  0
M  END
>  <MODEL>
7

>  <REMARK>
 VINA RESULT:      -6.3      4.003      7.862
  Name = 
  8 active torsions:
  status: ('A' for Active; 'I' for Inactive)
    1  A    between atoms: C_1  and  C_5
    2  A    between atoms: C_2  and  C_9
    3  A    between atoms: C_3  and  C_25
    4  A    between atoms: C_7  and  C_9
    5  A    between atoms: C_7  and  S_27
    6  A    between atoms: C_8  and  C_9
    7  A    between atoms: C_19  and  N_21
    8  A    between atoms: N_20  and  C_25
                            x       y       z     vdW  Elec       q    Type
                         _______ _______ _______ _____ _____    ______ ____

>  <TORSDO>
F 8

$$$$
=
 OpenBabel11042418253D

 28 29  0  0  1  0  0  0  0  0999 V2000
  190.4910  174.0770  145.1060 C   0  0  1  0  0  3  0  0  0  0  0  0
  191.9530  174.0530  144.7800 C   0  0  0  0  0  0  0  0  0  0  0  0
  195.0060  175.3810  144.1260 C   0  0  0  0  0  0  0  0  0  0  0  0
  192.6670  175.1250  144.6220 N   0  0  0  0  0  0  0  0  0  0  0  0
  192.6900  172.8390  144.6320 N   0  0  0  0  0  0  0  0  0  0  0  0
  196.0440  176.1350  143.9080 C   0  0  0  0  0  3  0  0  0  0  0  0
  194.0060  173.2090  144.3470 N   0  0  0  0  0  0  0  0  0  0  0  0
  193.9670  174.6250  144.3450 C   0  0  0  0  0  0  0  0  0  0  0  0
  196.8930  176.1160  141.5620 C   0  0  0  0  0  0  0  0  0  0  0  0
  197.0140  175.7500  142.9360 N   0  0  0  0  0  2  0  0  0  0  0  0
  195.9040  176.7840  141.1570 O   0  0  0  0  0  0  0  0  0  0  0  0
  197.9280  175.6710  140.5890 C   0  0  0  0  0  2  0  0  0  0  0  0
  197.7080  174.2780  140.2440 N   0  0  0  0  0  1  0  0  0  0  0  0
  190.0290  175.4710  145.3600 C   0  0  0  0  0  3  0  0  0  0  0  0
  189.0580  175.7000  146.1850 N   0  0  0  0  0  0  0  0  0  0  0  0
  189.2170  177.7610  147.2670 O   0  0  0  0  0  0  0  0  0  0  0  0
  188.5820  177.0220  146.4650 C   0  0  0  0  0  0  0  0  0  0  0  0
  187.3440  177.5070  145.8070 C   0  0  0  0  0  0  0  0  0  0  0  0
  183.8950  178.9000  143.8350 N   0  0  0  0  0  1  0  0  0  0  0  0
  187.4110  177.9160  144.4680 C   0  0  0  0  0  3  0  0  0  0  0  0
  186.0930  177.5790  146.4630 C   0  0  0  0  0  0  0  0  0  0  0  0
  186.2750  178.3780  143.8060 C   0  0  0  0  0  3  0  0  0  0  0  0
  185.0010  178.0340  145.7910 N   0  0  0  0  0  0  0  0  0  0  0  0
  185.9430  177.1810  147.8230 N   0  0  0  0  0  1  0  0  0  0  0  0
  185.0640  178.4310  144.4930 C   0  0  0  0  0  0  0  0  0  0  0  0
  189.6700  173.4660  143.9780 C   0  0  0  0  0  2  0  0  0  0  0  0
  187.9770  174.6780  142.3680 C   0  0  0  0  0  1  0  0  0  0  0  0
  189.7790  174.4850  142.4740 S   0  0  0  0  0  0  0  0  0  0  0  0
  1 26  1  6  0  0  0
  1 14  1  0  0  0  0
  2  1  1  0  0  0  0
  3  8  2  0  0  0  0
  4  2  2  0  0  0  0
  5  2  1  0  0  0  0
  6  3  2  0  0  0  0
  7  5  2  0  0  0  0
  8  7  1  0  0  0  0
  8  4  1  0  0  0  0
  9 10  1  0  0  0  0
 10  6  1  0  0  0  0
 11  9  2  0  0  0  0
 12  9  1  0  0  0  0
 13 12  1  0  0  0  0
 14 15  2  0  0  0  0
 15 17  1  0  0  0  0
 17 16  2  0  0  0  0
 18 21  1  0  0  0  0
 18 17  1  0  0  0  0
 19 25  1  0  0  0  0
 20 18  2  0  0  0  0
 21 24  1  0  0  0  0
 22 20  1  0  0  0  0
 22 25  2  0  0  0  0
 23 21  2  0  0  0  0
 25 23  1  0  0  0  0
 27 28  1  0  0  0  0
 28 26  1  0  0  0  0
M  END
>  <MODEL>
8

>  <REMARK>
 VINA RESULT:      -6.3      3.295      4.658
  Name = 
  8 active torsions:
  status: ('A' for Active; 'I' for Inactive)
    1  A    between atoms: C_1  and  C_5
    2  A    between atoms: C_2  and  C_9
    3  A    between atoms: C_3  and  C_25
    4  A    between atoms: C_7  and  C_9
    5  A    between atoms: C_7  and  S_27
    6  A    between atoms: C_8  and  C_9
    7  A    between atoms: C_19  and  N_21
    8  A    between atoms: N_20  and  C_25
                            x       y       z     vdW  Elec       q    Type
                         _______ _______ _______ _____ _____    ______ ____

>  <TORSDO>
F 8

$$$$
=
 OpenBabel11042418253D

 28 29  0  0  1  0  0  0  0  0999 V2000
  187.7420  176.4050  145.0190 C   0  0  1  0  0  3  0  0  0  0  0  0
  187.9490  176.1430  143.5590 C   0  0  0  0  0  0  0  0  0  0  0  0
  188.5080  174.2550  140.7960 C   0  0  0  0  0  0  0  0  0  0  0  0
  188.1700  174.9620  143.0700 N   0  0  0  0  0  0  0  0  0  0  0  0
  187.9020  177.1780  142.5770 N   0  0  0  0  0  0  0  0  0  0  0  0
  188.7280  173.3180  139.9190 C   0  0  0  0  0  3  0  0  0  0  0  0
  188.1230  176.5610  141.3430 N   0  0  0  0  0  0  0  0  0  0  0  0
  188.2870  175.1940  141.6730 C   0  0  0  0  0  0  0  0  0  0  0  0
  189.0740  174.1620  137.5970 C   0  0  0  0  0  0  0  0  0  0  0  0
  189.5710  173.5740  138.7990 N   0  0  0  0  0  2  0  0  0  0  0  0
  187.8560  174.4620  137.4830 O   0  0  0  0  0  0  0  0  0  0  0  0
  189.9980  174.3910  136.4540 C   0  0  0  0  0  2  0  0  0  0  0  0
  191.3070  173.8450  136.7660 N   0  0  0  0  0  1  0  0  0  0  0  0
  188.8370  175.7930  145.8260 C   0  0  0  0  0  3  0  0  0  0  0  0
  189.9370  176.4420  146.0380 N   0  0  0  0  0  0  0  0  0  0  0  0
  190.8200  175.5620  148.0090 O   0  0  0  0  0  0  0  0  0  0  0  0
  191.0150  175.8980  146.8080 C   0  0  0  0  0  0  0  0  0  0  0  0
  192.3510  175.7370  146.1840 C   0  0  0  0  0  0  0  0  0  0  0  0
  196.1840  175.3770  144.4800 N   0  0  0  0  0  1  0  0  0  0  0  0
  193.3650  176.6440  146.5240 C   0  0  0  0  0  3  0  0  0  0  0  0
  192.6580  174.7110  145.2610 C   0  0  0  0  0  0  0  0  0  0  0  0
  194.6360  176.5330  145.9650 C   0  0  0  0  0  3  0  0  0  0  0  0
  193.9090  174.6280  144.7320 N   0  0  0  0  0  0  0  0  0  0  0  0
  191.6830  173.7500  144.8660 N   0  0  0  0  0  1  0  0  0  0  0  0
  194.8930  175.5060  145.0600 C   0  0  0  0  0  0  0  0  0  0  0  0
  187.6770  177.9000  145.3020 C   0  0  0  0  0  2  0  0  0  0  0  0
  185.7190  179.4460  144.4640 C   0  0  0  0  0  1  0  0  0  0  0  0
  186.0240  178.3740  145.8970 S   0  0  0  0  0  0  0  0  0  0  0  0
  1 26  1  6  0  0  0
  1 14  1  0  0  0  0
  2  1  1  0  0  0  0
  3  8  2  0  0  0  0
  4  2  2  0  0  0  0
  5  2  1  0  0  0  0
  6  3  2  0  0  0  0
  7  8  1  0  0  0  0
  7  5  2  0  0  0  0
  8  4  1  0  0  0  0
  9 10  1  0  0  0  0
 10  6  1  0  0  0  0
 11  9  2  0  0  0  0
 12 13  1  0  0  0  0
 12  9  1  0  0  0  0
 14 15  2  0  0  0  0
 15 17  1  0  0  0  0
 17 16  2  0  0  0  0
 18 20  1  0  0  0  0
 18 17  1  0  0  0  0
 19 25  1  0  0  0  0
 21 18  2  0  0  0  0
 22 20  2  0  0  0  0
 23 25  2  0  0  0  0
 23 21  1  0  0  0  0
 24 21  1  0  0  0  0
 25 22  1  0  0  0  0
 26 28  1  0  0  0  0
 27 28  1  0  0  0  0
M  END
>  <MODEL>
9

>  <REMARK>
 VINA RESULT:      -6.1      3.272      8.089
  Name = 
  8 active torsions:
  status: ('A' for Active; 'I' for Inactive)
    1  A    between atoms: C_1  and  C_5
    2  A    between atoms: C_2  and  C_9
    3  A    between atoms: C_3  and  C_25
    4  A    between atoms: C_7  and  C_9
    5  A    between atoms: C_7  and  S_27
    6  A    between atoms: C_8  and  C_9
    7  A    between atoms: C_19  and  N_21
    8  A    between atoms: N_20  and  C_25
                            x       y       z     vdW  Elec       q    Type
                         _______ _______ _______ _____ _____    ______ ____

>  <TORSDO>
F 8

$$$$
