=
 OpenBabel11042418113D

 25 28  0  0  1  0  0  0  0  0999 V2000
  187.9290  176.5170  146.5170 C   0  0  0  0  0  0  0  0  0  0  0  0
  190.1150  176.7030  145.4910 C   0  0  0  0  0  3  0  0  0  0  0  0
  189.6740  174.9420  147.0950 C   0  0  0  0  0  3  0  0  0  0  0  0
  188.8050  177.1660  145.6400 C   0  0  0  0  0  3  0  0  0  0  0  0
  190.5550  175.5910  146.2160 C   0  0  0  0  0  0  0  0  0  0  0  0
  188.3640  175.4060  147.2440 C   0  0  0  0  0  3  0  0  0  0  0  0
  192.9100  176.2050  146.3910 N   0  0  0  0  0  0  0  0  0  0  0  0
  191.9660  175.1200  146.0490 C   0  0  2  0  0  3  0  0  0  0  0  0
  193.2740  174.4580  142.6030 N   0  0  0  0  0  0  0  0  0  0  0  0
  194.0610  176.1310  144.2410 C   0  0  0  0  0  3  0  0  0  0  0  0
  193.8510  176.6720  145.6060 C   0  0  0  0  0  0  0  0  0  0  0  0
  192.2200  174.6240  144.6550 C   0  0  0  0  0  0  0  0  0  0  0  0
  194.6910  177.7220  146.0700 N   0  0  0  0  0  1  0  0  0  0  0  0
  191.6890  173.6540  143.9280 C   0  0  0  0  0  0  0  0  0  0  0  0
  193.2530  175.1630  143.8340 C   0  0  0  0  0  0  0  0  0  0  0  0
  192.3560  173.5760  142.6610 N   0  0  0  0  0  0  0  0  0  0  0  0
  189.7250  172.0500  144.6740 C   0  0  0  0  0  3  0  0  0  0  0  0
  190.6210  172.7800  144.3350 C   0  0  0  0  0  0  0  0  0  0  0  0
  185.1270  176.9080  146.4170 C   0  0  0  0  0  2  0  0  0  0  0  0
  185.5870  177.9670  147.1710 C   0  0  1  0  0  3  0  0  0  0  0  0
  186.5950  176.9900  146.6680 N   0  0  0  0  0  0  0  0  0  0  0  0
  185.6630  179.2250  146.3290 C   0  0  0  0  0  2  0  0  0  0  0  0
  184.7690  179.1300  145.2630 O   0  0  0  0  0  0  0  0  0  0  0  0
  185.3860  179.8270  144.2250 C   0  0  0  0  0  2  0  0  0  0  0  0
  186.1060  178.8500  143.3190 C   0  0  0  0  0  1  0  0  0  0  0  0
  1 21  1  0  0  0  0
  1  6  1  0  0  0  0
  2  4  1  0  0  0  0
  2  5  2  0  0  0  0
  3  6  2  0  0  0  0
  4  1  2  0  0  0  0
  5  3  1  0  0  0  0
  8  5  1  6  0  0  0
  8  7  1  0  0  0  0
  9 16  2  0  0  0  0
  9 15  1  0  0  0  0
 10 11  1  0  0  0  0
 11 13  1  0  0  0  0
 11  7  2  0  0  0  0
 12  8  1  0  0  0  0
 14 18  1  0  0  0  0
 14 12  2  0  0  0  0
 15 10  2  0  0  0  0
 15 12  1  0  0  0  0
 16 14  1  0  0  0  0
 18 17  3  0  0  0  0
 19 21  1  0  0  0  0
 19 20  1  0  0  0  0
 20 22  1  6  0  0  0
 21 20  1  0  0  0  0
 23 22  1  0  0  0  0
 24 23  1  0  0  0  0
 25 24  1  0  0  0  0
M  END
>  <MODEL>
1

>  <REMARK>
 VINA RESULT:      -6.6      0.000      0.000
  Name = 
  6 active torsions:
  status: ('A' for Active; 'I' for Inactive)
    1  A    between atoms: C_3  and  N_21
    2  A    between atoms: C_4  and  C_22
    3  A    between atoms: O_7  and  C_11
    4  A    between atoms: O_7  and  C_12
    5  A    between atoms: C_11  and  C_20
    6  A    between atoms: C_17  and  C_19
                            x       y       z     vdW  Elec       q    Type
                         _______ _______ _______ _____ _____    ______ ____

>  <TORSDO>
F 6

$$$$
=
 OpenBabel11042418113D

 25 28  0  0  1  0  0  0  0  0999 V2000
  191.8140  175.9270  143.1750 C   0  0  0  0  0  0  0  0  0  0  0  0
  189.6340  174.9110  143.4560 C   0  0  0  0  0  3  0  0  0  0  0  0
  189.8770  177.3180  143.5930 C   0  0  0  0  0  3  0  0  0  0  0  0
  191.0060  174.7860  143.2230 C   0  0  0  0  0  3  0  0  0  0  0  0
  189.0640  176.1750  143.6420 C   0  0  0  0  0  0  0  0  0  0  0  0
  191.2490  177.1920  143.3600 C   0  0  0  0  0  3  0  0  0  0  0  0
  186.9290  176.9860  142.7830 N   0  0  0  0  0  0  0  0  0  0  0  0
  187.5930  176.2830  143.9020 C   0  0  2  0  0  3  0  0  0  0  0  0
  186.3810  178.5410  146.6320 N   0  0  0  0  0  0  0  0  0  0  0  0
  185.9330  178.6970  144.2080 C   0  0  0  0  0  3  0  0  0  0  0  0
  186.1850  178.0600  142.8930 C   0  0  0  0  0  0  0  0  0  0  0  0
  187.3130  176.9810  145.2000 C   0  0  0  0  0  0  0  0  0  0  0  0
  185.6040  178.6290  141.7260 N   0  0  0  0  0  1  0  0  0  0  0  0
  187.6300  176.7170  146.4580 C   0  0  0  0  0  0  0  0  0  0  0  0
  186.4990  178.1490  145.2730 C   0  0  0  0  0  0  0  0  0  0  0  0
  187.0460  177.7000  147.3230 N   0  0  0  0  0  0  0  0  0  0  0  0
  189.0820  174.6750  147.3000 C   0  0  0  0  0  3  0  0  0  0  0  0
  188.4200  175.6050  146.9150 C   0  0  0  0  0  0  0  0  0  0  0  0
  194.4060  175.0600  142.4350 C   0  0  0  0  0  2  0  0  0  0  0  0
  194.6190  176.2860  143.0280 C   0  0  1  0  0  3  0  0  0  0  0  0
  193.2120  175.8000  142.9380 N   0  0  0  0  0  0  0  0  0  0  0  0
  195.1060  176.1100  144.4520 C   0  0  0  0  0  2  0  0  0  0  0  0
  194.4260  176.9930  145.2920 O   0  0  0  0  0  0  0  0  0  0  0  0
  194.1890  176.2600  146.4530 C   0  0  0  0  0  2  0  0  0  0  0  0
  192.6960  176.1500  146.6840 C   0  0  0  0  0  1  0  0  0  0  0  0
  1  4  2  0  0  0  0
  1  6  1  0  0  0  0
  2  5  2  0  0  0  0
  3  5  1  0  0  0  0
  4  2  1  0  0  0  0
  6  3  2  0  0  0  0
  7 11  2  0  0  0  0
  7  8  1  0  0  0  0
  8  5  1  6  0  0  0
  8 12  1  0  0  0  0
  9 16  2  0  0  0  0
 10 15  2  0  0  0  0
 11 10  1  0  0  0  0
 12 15  1  0  0  0  0
 12 14  2  0  0  0  0
 13 11  1  0  0  0  0
 14 18  1  0  0  0  0
 14 16  1  0  0  0  0
 15  9  1  0  0  0  0
 18 17  3  0  0  0  0
 19 21  1  0  0  0  0
 19 20  1  0  0  0  0
 20 22  1  1  0  0  0
 21 20  1  0  0  0  0
 21  1  1  0  0  0  0
 22 23  1  0  0  0  0
 23 24  1  0  0  0  0
 24 25  1  0  0  0  0
M  END
>  <MODEL>
2

>  <REMARK>
 VINA RESULT:      -6.6      2.794      7.335
  Name = 
  6 active torsions:
  status: ('A' for Active; 'I' for Inactive)
    1  A    between atoms: C_3  and  N_21
    2  A    between atoms: C_4  and  C_22
    3  A    between atoms: O_7  and  C_11
    4  A    between atoms: O_7  and  C_12
    5  A    between atoms: C_11  and  C_20
    6  A    between atoms: C_17  and  C_19
                            x       y       z     vdW  Elec       q    Type
                         _______ _______ _______ _____ _____    ______ ____

>  <TORSDO>
F 6

$$$$
=
 OpenBabel11042418113D

 25 28  0  0  1  0  0  0  0  0999 V2000
  191.1620  176.3330  145.3380 C   0  0  0  0  0  0  0  0  0  0  0  0
  188.9600  175.3950  144.9700 C   0  0  0  0  0  3  0  0  0  0  0  0
  189.5340  177.5510  144.0250 C   0  0  0  0  0  3  0  0  0  0  0  0
  190.2370  175.3020  145.5300 C   0  0  0  0  0  3  0  0  0  0  0  0
  188.6030  176.5180  144.2160 C   0  0  0  0  0  0  0  0  0  0  0  0
  190.8100  177.4570  144.5860 C   0  0  0  0  0  3  0  0  0  0  0  0
  187.2910  176.5420  142.1590 N   0  0  0  0  0  0  0  0  0  0  0  0
  187.2250  176.6010  143.6340 C   0  0  2  0  0  3  0  0  0  0  0  0
  185.3350  179.8240  143.8700 N   0  0  0  0  0  0  0  0  0  0  0  0
  186.0870  178.6390  141.8380 C   0  0  0  0  0  3  0  0  0  0  0  0
  186.7920  177.4340  141.3380 C   0  0  0  0  0  0  0  0  0  0  0  0
  186.5150  177.8450  144.0780 C   0  0  0  0  0  0  0  0  0  0  0  0
  186.9280  177.2450  139.9340 N   0  0  0  0  0  1  0  0  0  0  0  0
  186.1640  178.3140  145.2660 C   0  0  0  0  0  0  0  0  0  0  0  0
  185.9890  178.7910  143.1500 C   0  0  0  0  0  0  0  0  0  0  0  0
  185.4410  179.5420  145.1090 N   0  0  0  0  0  0  0  0  0  0  0  0
  186.6650  177.1700  147.5950 C   0  0  0  0  0  3  0  0  0  0  0  0
  186.4360  177.6930  146.5340 C   0  0  0  0  0  0  0  0  0  0  0  0
  193.5410  176.7040  146.8280 C   0  0  0  0  0  2  0  0  0  0  0  0
  193.8120  175.6130  146.0300 C   0  0  1  0  0  3  0  0  0  0  0  0
  192.4620  176.2370  145.9090 N   0  0  0  0  0  0  0  0  0  0  0  0
  194.6480  176.0240  144.8340 C   0  0  0  0  0  2  0  0  0  0  0  0
  195.9030  175.4200  144.9110 O   0  0  0  0  0  0  0  0  0  0  0  0
  195.6500  174.1500  145.4270 C   0  0  0  0  0  2  0  0  0  0  0  0
  196.8850  173.6400  146.1400 C   0  0  0  0  0  1  0  0  0  0  0  0
  1  4  1  0  0  0  0
  1 21  1  0  0  0  0
  2  4  2  0  0  0  0
  3  5  2  0  0  0  0
  3  6  1  0  0  0  0
  5  2  1  0  0  0  0
  6  1  2  0  0  0  0
  7  8  1  0  0  0  0
  8 12  1  0  0  0  0
  8  5  1  1  0  0  0
  9 16  2  0  0  0  0
 10 15  2  0  0  0  0
 11 10  1  0  0  0  0
 11  7  2  0  0  0  0
 12 14  2  0  0  0  0
 13 11  1  0  0  0  0
 14 18  1  0  0  0  0
 15  9  1  0  0  0  0
 15 12  1  0  0  0  0
 16 14  1  0  0  0  0
 18 17  3  0  0  0  0
 20 22  1  6  0  0  0
 20 19  1  0  0  0  0
 21 20  1  0  0  0  0
 21 19  1  0  0  0  0
 22 23  1  0  0  0  0
 23 24  1  0  0  0  0
 24 25  1  0  0  0  0
M  END
>  <MODEL>
3

>  <REMARK>
 VINA RESULT:      -6.6      3.446      7.810
  Name = 
  6 active torsions:
  status: ('A' for Active; 'I' for Inactive)
    1  A    between atoms: C_3  and  N_21
    2  A    between atoms: C_4  and  C_22
    3  A    between atoms: O_7  and  C_11
    4  A    between atoms: O_7  and  C_12
    5  A    between atoms: C_11  and  C_20
    6  A    between atoms: C_17  and  C_19
                            x       y       z     vdW  Elec       q    Type
                         _______ _______ _______ _____ _____    ______ ____

>  <TORSDO>
F 6

$$$$
=
 OpenBabel11042418113D

 25 28  0  0  1  0  0  0  0  0999 V2000
  191.1900  176.4540  143.8080 C   0  0  0  0  0  0  0  0  0  0  0  0
  189.1690  177.6570  143.2340 C   0  0  0  0  0  3  0  0  0  0  0  0
  189.0630  175.2970  143.7730 C   0  0  0  0  0  3  0  0  0  0  0  0
  190.5510  177.6410  143.4370 C   0  0  0  0  0  3  0  0  0  0  0  0
  188.4200  176.4880  143.4010 C   0  0  0  0  0  0  0  0  0  0  0  0
  190.4460  175.2820  143.9760 C   0  0  0  0  0  3  0  0  0  0  0  0
  186.6570  176.6390  141.7210 N   0  0  0  0  0  0  0  0  0  0  0  0
  186.9410  176.5260  143.1670 C   0  0  2  0  0  3  0  0  0  0  0  0
  185.0000  179.5420  144.2420 N   0  0  0  0  0  0  0  0  0  0  0  0
  185.3050  178.6570  141.9570 C   0  0  0  0  0  3  0  0  0  0  0  0
  185.9320  177.5760  141.1580 C   0  0  0  0  0  0  0  0  0  0  0  0
  186.2940  177.6520  143.9180 C   0  0  0  0  0  0  0  0  0  0  0  0
  185.7390  177.5580  139.7480 N   0  0  0  0  0  1  0  0  0  0  0  0
  186.2120  177.9550  145.2040 C   0  0  0  0  0  0  0  0  0  0  0  0
  185.5150  178.6520  143.2650 C   0  0  0  0  0  0  0  0  0  0  0  0
  185.4110  179.1320  145.3770 N   0  0  0  0  0  0  0  0  0  0  0  0
  187.3080  176.6000  147.1920 C   0  0  0  0  0  3  0  0  0  0  0  0
  186.8100  177.2180  146.2860 C   0  0  0  0  0  0  0  0  0  0  0  0
  193.9870  176.0470  143.6340 C   0  0  0  0  0  2  0  0  0  0  0  0
  193.8250  176.7730  144.7950 C   0  0  1  0  0  3  0  0  0  0  0  0
  192.5980  176.4380  144.0150 N   0  0  0  0  0  0  0  0  0  0  0  0
  193.8970  175.8620  146.0040 C   0  0  0  0  0  2  0  0  0  0  0  0
  193.0620  176.3510  147.0090 O   0  0  0  0  0  0  0  0  0  0  0  0
  192.1780  175.3060  147.2710 C   0  0  0  0  0  2  0  0  0  0  0  0
  190.8140  175.8700  147.6070 C   0  0  0  0  0  1  0  0  0  0  0  0
  1  6  1  0  0  0  0
  1 21  1  0  0  0  0
  2  5  2  0  0  0  0
  2  4  1  0  0  0  0
  3  6  2  0  0  0  0
  4  1  2  0  0  0  0
  5  3  1  0  0  0  0
  7  8  1  0  0  0  0
  8  5  1  6  0  0  0
  8 12  1  0  0  0  0
  9 16  2  0  0  0  0
 10 15  2  0  0  0  0
 11  7  2  0  0  0  0
 11 10  1  0  0  0  0
 12 14  2  0  0  0  0
 13 11  1  0  0  0  0
 14 16  1  0  0  0  0
 14 18  1  0  0  0  0
 15 12  1  0  0  0  0
 15  9  1  0  0  0  0
 18 17  3  0  0  0  0
 19 21  1  0  0  0  0
 19 20  1  0  0  0  0
 20 22  1  1  0  0  0
 21 20  1  0  0  0  0
 22 23  1  0  0  0  0
 23 24  1  0  0  0  0
 24 25  1  0  0  0  0
M  END
>  <MODEL>
4

>  <REMARK>
 VINA RESULT:      -6.4      3.106      7.409
  Name = 
  6 active torsions:
  status: ('A' for Active; 'I' for Inactive)
    1  A    between atoms: C_3  and  N_21
    2  A    between atoms: C_4  and  C_22
    3  A    between atoms: O_7  and  C_11
    4  A    between atoms: O_7  and  C_12
    5  A    between atoms: C_11  and  C_20
    6  A    between atoms: C_17  and  C_19
                            x       y       z     vdW  Elec       q    Type
                         _______ _______ _______ _____ _____    ______ ____

>  <TORSDO>
F 6

$$$$
=
 OpenBabel11042418113D

 25 28  0  0  1  0  0  0  0  0999 V2000
  188.2930  177.2820  144.0290 C   0  0  0  0  0  0  0  0  0  0  0  0
  190.6640  176.8640  144.2980 C   0  0  0  0  0  3  0  0  0  0  0  0
  189.0730  175.8430  145.8130 C   0  0  0  0  0  3  0  0  0  0  0  0
  189.6140  177.4830  143.6140 C   0  0  0  0  0  3  0  0  0  0  0  0
  190.3990  176.0430  145.3990 C   0  0  0  0  0  0  0  0  0  0  0  0
  188.0240  176.4630  145.1290 C   0  0  0  0  0  3  0  0  0  0  0  0
  192.4810  176.4300  146.6110 N   0  0  0  0  0  0  0  0  0  0  0  0
  191.5410  175.3990  146.1230 C   0  0  0  0  0  0  0  0  0  0  0  0
  194.0400  173.3990  144.1810 N   0  0  0  0  0  0  0  0  0  0  0  0
  194.4160  175.4600  145.4870 C   0  0  0  0  0  3  0  0  0  0  0  0
  193.7630  176.4790  146.3440 C   0  0  0  0  0  0  0  0  0  0  0  0
  192.2560  174.4080  145.2530 C   0  0  0  0  0  0  0  0  0  0  0  0
  194.5500  177.5330  146.8880 N   0  0  0  0  0  1  0  0  0  0  0  0
  191.8730  173.2990  144.6380 C   0  0  0  0  0  0  0  0  0  0  0  0
  193.6530  174.5000  144.9860 C   0  0  2  0  0  3  0  0  0  0  0  0
  192.9940  172.6980  143.9780 N   0  0  0  0  0  0  0  0  0  0  0  0
  189.4300  172.2890  144.6330 C   0  0  0  0  0  3  0  0  0  0  0  0
  190.5440  172.7500  144.6370 C   0  0  0  0  0  0  0  0  0  0  0  0
  186.6650  178.6650  142.1720 C   0  0  0  0  0  2  0  0  0  0  0  0
  185.8080  178.3630  143.2100 C   0  0  1  0  0  3  0  0  0  0  0  0
  187.2250  177.9130  143.3320 N   0  0  0  0  0  0  0  0  0  0  0  0
  185.6020  179.5730  144.0980 C   0  0  0  0  0  2  0  0  0  0  0  0
  185.7750  179.2090  145.4340 O   0  0  0  0  0  0  0  0  0  0  0  0
  184.5560  178.6440  145.8040 C   0  0  0  0  0  2  0  0  0  0  0  0
  184.8050  177.3580  146.5640 C   0  0  0  0  0  1  0  0  0  0  0  0
  1  6  1  0  0  0  0
  2  5  2  0  0  0  0
  4  1  2  0  0  0  0
  4  2  1  0  0  0  0
  5  3  1  0  0  0  0
  5  8  1  0  0  0  0
  6  3  2  0  0  0  0
  8  7  2  0  0  0  0
  9 15  1  0  0  0  0
 10 11  2  0  0  0  0
 11  7  1  0  0  0  0
 11 13  1  0  0  0  0
 12  8  1  0  0  0  0
 14 12  2  0  0  0  0
 15 12  1  0  0  0  0
 15 10  1  1  0  0  0
 16  9  2  0  0  0  0
 16 14  1  0  0  0  0
 17 18  3  0  0  0  0
 18 14  1  0  0  0  0
 19 20  1  0  0  0  0
 19 21  1  0  0  0  0
 20 21  1  0  0  0  0
 20 22  1  1  0  0  0
 21  1  1  0  0  0  0
 22 23  1  0  0  0  0
 23 24  1  0  0  0  0
 24 25  1  0  0  0  0
M  END
>  <MODEL>
5

>  <REMARK>
 VINA RESULT:      -6.2      1.334      2.137
  Name = 
  6 active torsions:
  status: ('A' for Active; 'I' for Inactive)
    1  A    between atoms: C_3  and  N_21
    2  A    between atoms: C_4  and  C_22
    3  A    between atoms: O_7  and  C_11
    4  A    between atoms: O_7  and  C_12
    5  A    between atoms: C_11  and  C_20
    6  A    between atoms: C_17  and  C_19
                            x       y       z     vdW  Elec       q    Type
                         _______ _______ _______ _____ _____    ______ ____

>  <TORSDO>
F 6

$$$$
=
 OpenBabel11042418113D

 25 28  0  0  1  0  0  0  0  0999 V2000
  188.0080  177.3730  144.7940 C   0  0  0  0  0  0  0  0  0  0  0  0
  190.4050  177.0310  144.7360 C   0  0  0  0  0  3  0  0  0  0  0  0
  189.0360  175.7580  146.2760 C   0  0  0  0  0  3  0  0  0  0  0  0
  189.2640  177.6830  144.2610 C   0  0  0  0  0  3  0  0  0  0  0  0
  190.2970  176.0670  145.7440 C   0  0  0  0  0  0  0  0  0  0  0  0
  187.8950  176.4110  145.8020 C   0  0  0  0  0  3  0  0  0  0  0  0
  192.5040  176.3940  146.7320 N   0  0  0  0  0  0  0  0  0  0  0  0
  191.5350  175.3890  146.2440 C   0  0  0  0  0  0  0  0  0  0  0  0
  193.8190  173.7170  143.7930 N   0  0  0  0  0  0  0  0  0  0  0  0
  194.3060  175.6310  145.2760 C   0  0  0  0  0  3  0  0  0  0  0  0
  193.7420  176.5210  146.3190 C   0  0  0  0  0  0  0  0  0  0  0  0
  192.1590  174.5300  145.1840 C   0  0  0  0  0  0  0  0  0  0  0  0
  194.5650  177.5350  146.8820 N   0  0  0  0  0  1  0  0  0  0  0  0
  191.7290  173.4850  144.4950 C   0  0  0  0  0  0  0  0  0  0  0  0
  193.5100  174.7050  144.7630 C   0  0  2  0  0  3  0  0  0  0  0  0
  192.7730  173.0040  143.6380 N   0  0  0  0  0  0  0  0  0  0  0  0
  189.3300  172.3880  144.6730 C   0  0  0  0  0  3  0  0  0  0  0  0
  190.4230  172.8890  144.5910 C   0  0  0  0  0  0  0  0  0  0  0  0
  185.3910  178.3620  144.3600 C   0  0  0  0  0  2  0  0  0  0  0  0
  186.1350  178.9230  143.3430 C   0  0  1  0  0  3  0  0  0  0  0  0
  186.8470  178.0380  144.3100 N   0  0  0  0  0  0  0  0  0  0  0  0
  185.9250  178.1620  142.0500 C   0  0  0  0  0  2  0  0  0  0  0  0
  187.1400  178.0400  141.3750 O   0  0  0  0  0  0  0  0  0  0  0  0
  187.0520  176.8160  140.7140 C   0  0  0  0  0  2  0  0  0  0  0  0
  187.8100  175.7640  141.4970 C   0  0  0  0  0  1  0  0  0  0  0  0
  1  6  1  0  0  0  0
  2  5  2  0  0  0  0
  4  2  1  0  0  0  0
  4  1  2  0  0  0  0
  5  8  1  0  0  0  0
  5  3  1  0  0  0  0
  6  3  2  0  0  0  0
  8  7  2  0  0  0  0
  9 15  1  0  0  0  0
 10 11  2  0  0  0  0
 11  7  1  0  0  0  0
 11 13  1  0  0  0  0
 12  8  1  0  0  0  0
 14 18  1  0  0  0  0
 14 12  2  0  0  0  0
 15 12  1  0  0  0  0
 15 10  1  1  0  0  0
 16  9  2  0  0  0  0
 16 14  1  0  0  0  0
 18 17  3  0  0  0  0
 20 22  1  6  0  0  0
 20 21  1  0  0  0  0
 20 19  1  0  0  0  0
 21 19  1  0  0  0  0
 21  1  1  0  0  0  0
 23 22  1  0  0  0  0
 24 23  1  0  0  0  0
 24 25  1  0  0  0  0
M  END
>  <MODEL>
6

>  <REMARK>
 VINA RESULT:      -6.0      1.748      2.297
  Name = 
  6 active torsions:
  status: ('A' for Active; 'I' for Inactive)
    1  A    between atoms: C_3  and  N_21
    2  A    between atoms: C_4  and  C_22
    3  A    between atoms: O_7  and  C_11
    4  A    between atoms: O_7  and  C_12
    5  A    between atoms: C_11  and  C_20
    6  A    between atoms: C_17  and  C_19
                            x       y       z     vdW  Elec       q    Type
                         _______ _______ _______ _____ _____    ______ ____

>  <TORSDO>
F 6

$$$$
=
 OpenBabel11042418113D

 25 28  0  0  1  0  0  0  0  0999 V2000
  191.0010  175.0070  144.8650 C   0  0  0  0  0  0  0  0  0  0  0  0
  190.2610  177.3120  144.9380 C   0  0  0  0  0  3  0  0  0  0  0  0
  188.6960  175.5200  145.3970 C   0  0  0  0  0  3  0  0  0  0  0  0
  191.2760  176.3730  144.7370 C   0  0  0  0  0  3  0  0  0  0  0  0
  188.9680  176.8900  145.2690 C   0  0  0  0  0  0  0  0  0  0  0  0
  189.7120  174.5810  145.1940 C   0  0  0  0  0  3  0  0  0  0  0  0
  187.3300  177.8000  146.8310 N   0  0  0  0  0  0  0  0  0  0  0  0
  187.8940  177.9140  145.4700 C   0  0  0  0  0  0  0  0  0  0  0  0
  184.6620  177.5580  143.6130 N   0  0  0  0  0  0  0  0  0  0  0  0
  185.0340  177.5170  146.0540 C   0  0  0  0  0  3  0  0  0  0  0  0
  186.0620  177.6240  147.1180 C   0  0  0  0  0  0  0  0  0  0  0  0
  186.8100  177.7840  144.4400 C   0  0  0  0  0  0  0  0  0  0  0  0
  185.6600  177.5340  148.4800 N   0  0  0  0  0  1  0  0  0  0  0  0
  186.8000  177.8680  143.1190 C   0  0  0  0  0  0  0  0  0  0  0  0
  185.4430  177.5920  144.7970 C   0  0  2  0  0  3  0  0  0  0  0  0
  185.4600  177.7190  142.6320 N   0  0  0  0  0  0  0  0  0  0  0  0
  188.9030  178.2910  141.5730 C   0  0  0  0  0  3  0  0  0  0  0  0
  187.9450  178.0970  142.2780 C   0  0  0  0  0  0  0  0  0  0  0  0
  192.8430  172.8670  145.0710 C   0  0  0  0  0  2  0  0  0  0  0  0
  193.1720  173.4790  143.8800 C   0  0  1  0  0  3  0  0  0  0  0  0
  192.0360  174.0510  144.6590 N   0  0  0  0  0  0  0  0  0  0  0  0
  194.3840  174.3710  144.0580 C   0  0  0  0  0  2  0  0  0  0  0  0
  194.5210  174.7120  145.4040 O   0  0  0  0  0  0  0  0  0  0  0  0
  194.9330  176.0430  145.3880 C   0  0  0  0  0  2  0  0  0  0  0  0
  194.2550  176.7950  146.5150 C   0  0  0  0  0  1  0  0  0  0  0  0
  1  6  1  0  0  0  0
  2  5  2  0  0  0  0
  4  1  2  0  0  0  0
  4  2  1  0  0  0  0
  5  3  1  0  0  0  0
  5  8  1  0  0  0  0
  6  3  2  0  0  0  0
  7 11  1  0  0  0  0
  8  7  2  0  0  0  0
  9 15  1  0  0  0  0
 10 11  2  0  0  0  0
 11 13  1  0  0  0  0
 12 15  1  0  0  0  0
 12  8  1  0  0  0  0
 14 12  2  0  0  0  0
 15 10  1  1  0  0  0
 16 14  1  0  0  0  0
 16  9  2  0  0  0  0
 17 18  3  0  0  0  0
 18 14  1  0  0  0  0
 20 22  1  1  0  0  0
 20 21  1  0  0  0  0
 20 19  1  0  0  0  0
 21  1  1  0  0  0  0
 21 19  1  0  0  0  0
 22 23  1  0  0  0  0
 24 23  1  0  0  0  0
 24 25  1  0  0  0  0
M  END
>  <MODEL>
7

>  <REMARK>
 VINA RESULT:      -5.8      2.858      7.317
  Name = 
  6 active torsions:
  status: ('A' for Active; 'I' for Inactive)
    1  A    between atoms: C_3  and  N_21
    2  A    between atoms: C_4  and  C_22
    3  A    between atoms: O_7  and  C_11
    4  A    between atoms: O_7  and  C_12
    5  A    between atoms: C_11  and  C_20
    6  A    between atoms: C_17  and  C_19
                            x       y       z     vdW  Elec       q    Type
                         _______ _______ _______ _____ _____    ______ ____

>  <TORSDO>
F 6

$$$$
=
 OpenBabel11042418113D

 25 28  0  0  1  0  0  0  0  0999 V2000
  188.7480  176.8710  143.3090 C   0  0  0  0  0  0  0  0  0  0  0  0
  190.7700  175.6140  142.8620 C   0  0  0  0  0  3  0  0  0  0  0  0
  190.8680  177.6350  144.1950 C   0  0  0  0  0  3  0  0  0  0  0  0
  189.3890  175.7780  142.7160 C   0  0  0  0  0  3  0  0  0  0  0  0
  191.5140  176.5400  143.6010 C   0  0  0  0  0  0  0  0  0  0  0  0
  189.4880  177.7990  144.0480 C   0  0  0  0  0  3  0  0  0  0  0  0
  193.6380  176.4150  142.4060 N   0  0  0  0  0  0  0  0  0  0  0  0
  192.9930  176.3490  143.7350 C   0  0  2  0  0  3  0  0  0  0  0  0
  194.3200  172.9860  144.7100 N   0  0  0  0  0  0  0  0  0  0  0  0
  194.7030  174.2290  142.6110 C   0  0  0  0  0  3  0  0  0  0  0  0
  194.4030  175.4870  141.8840 C   0  0  0  0  0  0  0  0  0  0  0  0
  193.3220  175.0520  144.4130 C   0  0  0  0  0  0  0  0  0  0  0  0
  194.9610  175.6870  140.5900 N   0  0  0  0  0  1  0  0  0  0  0  0
  193.0360  174.5550  145.6070 C   0  0  0  0  0  0  0  0  0  0  0  0
  194.1580  174.0680  143.8070 C   0  0  0  0  0  0  0  0  0  0  0  0
  193.6610  173.2740  145.7630 N   0  0  0  0  0  0  0  0  0  0  0  0
  191.5730  175.7330  147.4670 C   0  0  0  0  0  3  0  0  0  0  0  0
  192.2400  175.1950  146.6200 C   0  0  0  0  0  0  0  0  0  0  0  0
  186.1440  177.6180  142.4870 C   0  0  0  0  0  2  0  0  0  0  0  0
  185.9310  176.7960  143.5730 C   0  0  1  0  0  3  0  0  0  0  0  0
  187.3430  177.0380  143.1600 N   0  0  0  0  0  0  0  0  0  0  0  0
  185.6370  177.6180  144.8120 C   0  0  0  0  0  2  0  0  0  0  0  0
  185.3590  176.7680  145.8830 O   0  0  0  0  0  0  0  0  0  0  0  0
  186.1960  177.2090  146.9070 C   0  0  0  0  0  2  0  0  0  0  0  0
  187.4890  176.4220  146.8750 C   0  0  0  0  0  1  0  0  0  0  0  0
  1  6  1  0  0  0  0
  2  5  2  0  0  0  0
  4  2  1  0  0  0  0
  4  1  2  0  0  0  0
  5  3  1  0  0  0  0
  6  3  2  0  0  0  0
  7  8  1  0  0  0  0
  8  5  1  6  0  0  0
  8 12  1  0  0  0  0
  9 16  2  0  0  0  0
 10 15  2  0  0  0  0
 11  7  2  0  0  0  0
 11 10  1  0  0  0  0
 12 14  2  0  0  0  0
 13 11  1  0  0  0  0
 14 16  1  0  0  0  0
 14 18  1  0  0  0  0
 15 12  1  0  0  0  0
 15  9  1  0  0  0  0
 18 17  3  0  0  0  0
 19 21  1  0  0  0  0
 19 20  1  0  0  0  0
 20 22  1  1  0  0  0
 21  1  1  0  0  0  0
 21 20  1  0  0  0  0
 22 23  1  0  0  0  0
 23 24  1  0  0  0  0
 25 24  1  0  0  0  0
M  END
>  <MODEL>
8

>  <REMARK>
 VINA RESULT:      -5.7      2.262      3.529
  Name = 
  6 active torsions:
  status: ('A' for Active; 'I' for Inactive)
    1  A    between atoms: C_3  and  N_21
    2  A    between atoms: C_4  and  C_22
    3  A    between atoms: O_7  and  C_11
    4  A    between atoms: O_7  and  C_12
    5  A    between atoms: C_11  and  C_20
    6  A    between atoms: C_17  and  C_19
                            x       y       z     vdW  Elec       q    Type
                         _______ _______ _______ _____ _____    ______ ____

>  <TORSDO>
F 6

$$$$
=
 OpenBabel11042418113D

 25 28  0  0  1  0  0  0  0  0999 V2000
  192.1780  175.9940  143.2410 C   0  0  0  0  0  0  0  0  0  0  0  0
  190.1110  177.2550  143.1900 C   0  0  0  0  0  3  0  0  0  0  0  0
  190.0590  174.8520  143.4950 C   0  0  0  0  0  3  0  0  0  0  0  0
  191.5060  177.2150  143.1220 C   0  0  0  0  0  3  0  0  0  0  0  0
  189.3820  176.0750  143.3760 C   0  0  0  0  0  0  0  0  0  0  0  0
  191.4540  174.8130  143.4270 C   0  0  0  0  0  3  0  0  0  0  0  0
  187.3510  176.6780  142.1660 N   0  0  0  0  0  0  0  0  0  0  0  0
  187.8870  176.1410  143.4350 C   0  0  2  0  0  3  0  0  0  0  0  0
  186.2560  178.6350  145.7020 N   0  0  0  0  0  0  0  0  0  0  0  0
  186.1210  178.4900  143.2400 C   0  0  0  0  0  3  0  0  0  0  0  0
  186.5630  177.7200  142.0530 C   0  0  0  0  0  0  0  0  0  0  0  0
  187.4170  176.9690  144.5950 C   0  0  0  0  0  0  0  0  0  0  0  0
  186.1190  178.1230  140.7620 N   0  0  0  0  0  1  0  0  0  0  0  0
  187.5770  176.8660  145.9050 C   0  0  0  0  0  0  0  0  0  0  0  0
  186.5620  178.0970  144.4260 C   0  0  0  0  0  0  0  0  0  0  0  0
  186.8530  177.9120  146.5660 N   0  0  0  0  0  0  0  0  0  0  0  0
  188.9740  175.0050  147.1580 C   0  0  0  0  0  3  0  0  0  0  0  0
  188.3380  175.8540  146.5870 C   0  0  0  0  0  0  0  0  0  0  0  0
  194.9580  176.2990  143.6810 C   0  0  0  0  0  2  0  0  0  0  0  0
  194.8810  175.5650  142.5170 C   0  0  1  0  0  3  0  0  0  0  0  0
  193.5990  175.9540  143.1720 N   0  0  0  0  0  0  0  0  0  0  0  0
  195.1040  176.4570  141.3110 C   0  0  0  0  0  2  0  0  0  0  0  0
  195.5450  175.6870  140.2350 O   0  0  0  0  0  0  0  0  0  0  0  0
  196.5210  174.8530  140.7770 C   0  0  0  0  0  2  0  0  0  0  0  0
  197.6380  174.6640  139.7720 C   0  0  0  0  0  1  0  0  0  0  0  0
  1  6  1  0  0  0  0
  2  5  2  0  0  0  0
  4  2  1  0  0  0  0
  4  1  2  0  0  0  0
  5  3  1  0  0  0  0
  6  3  2  0  0  0  0
  7  8  1  0  0  0  0
  8  5  1  6  0  0  0
  8 12  1  0  0  0  0
  9 16  2  0  0  0  0
 10 15  2  0  0  0  0
 11  7  2  0  0  0  0
 11 10  1  0  0  0  0
 12 14  2  0  0  0  0
 13 11  1  0  0  0  0
 14 16  1  0  0  0  0
 14 18  1  0  0  0  0
 15 12  1  0  0  0  0
 15  9  1  0  0  0  0
 18 17  3  0  0  0  0
 20 22  1  6  0  0  0
 20 21  1  0  0  0  0
 20 19  1  0  0  0  0
 21  1  1  0  0  0  0
 21 19  1  0  0  0  0
 23 24  1  0  0  0  0
 23 22  1  0  0  0  0
 25 24  1  0  0  0  0
M  END
>  <MODEL>
9

>  <REMARK>
 VINA RESULT:      -5.7      3.639      7.940
  Name = 
  6 active torsions:
  status: ('A' for Active; 'I' for Inactive)
    1  A    between atoms: C_3  and  N_21
    2  A    between atoms: C_4  and  C_22
    3  A    between atoms: O_7  and  C_11
    4  A    between atoms: O_7  and  C_12
    5  A    between atoms: C_11  and  C_20
    6  A    between atoms: C_17  and  C_19
                            x       y       z     vdW  Elec       q    Type
                         _______ _______ _______ _____ _____    ______ ____

>  <TORSDO>
F 6

$$$$
