=
 OpenBabel11042418303D

 30 31  0  0  1  0  0  0  0  0999 V2000
  187.0250  177.4870  146.2670 C   0  0  0  0  0  0  0  0  0  0  0  0
  189.7100  177.2090  145.4290 C   0  0  0  0  0  0  0  0  0  0  0  0
  188.0690  177.4900  147.2050 C   0  0  0  0  0  3  0  0  0  0  0  0
  188.6620  177.2070  144.4950 C   0  0  0  0  0  3  0  0  0  0  0  0
  189.3960  177.3500  146.7900 C   0  0  0  0  0  3  0  0  0  0  0  0
  187.3260  177.3420  144.9020 C   0  0  0  0  0  0  0  0  0  0  0  0
  193.2690  175.8090  143.2730 C   0  0  0  0  0  2  0  0  0  0  0  0
  192.4080  176.9340  142.8230 C   0  0  0  0  0  3  0  0  0  0  0  0
  191.4500  177.4530  143.5870 C   0  0  0  0  0  3  0  0  0  0  0  0
  194.0900  176.2410  144.3970 N   0  0  0  0  0  0  0  0  0  0  0  0
  193.4900  176.4450  145.6860 C   0  0  0  0  0  0  0  0  0  0  0  0
  191.1180  177.0480  144.9770 C   0  0  0  0  0  0  0  0  0  0  0  0
  192.0370  176.6360  145.8720 C   0  0  0  0  0  3  0  0  0  0  0  0
  194.2150  176.4320  146.7170 O   0  0  0  0  0  0  0  0  0  0  0  0
  196.0930  176.5090  143.0600 C   0  0  0  0  0  2  0  0  0  0  0  0
  195.5100  176.3940  144.2480 C   0  0  0  0  0  3  0  0  0  0  0  0
  185.6920  177.6240  146.6710 O   0  0  0  0  0  0  0  0  0  0  0  0
  185.2700  178.5970  147.6160 C   0  0  0  0  0  1  0  0  0  0  0  0
  186.2160  177.3320  143.8860 C   0  0  1  0  0  3  0  0  0  0  0  0
  186.1920  178.6140  143.0440 C   0  0  0  0  0  3  0  0  0  0  0  0
  185.7290  179.7920  143.8810 C   0  0  0  0  0  1  0  0  0  0  0  0
  185.3230  178.4910  141.7990 C   0  0  0  0  0  1  0  0  0  0  0  0
  186.2000  176.0510  143.0480 C   0  0  0  0  0  2  0  0  0  0  0  0
  187.3310  176.0390  142.1350 N   0  0  0  0  0  2  0  0  0  0  0  0
  187.8150  174.6690  142.0730 C   0  0  0  0  0  2  0  0  0  0  0  0
  190.1320  174.0320  142.8130 C   0  0  0  0  0  3  0  0  0  0  0  0
  189.3060  174.6560  141.9670 C   0  0  0  0  0  3  0  0  0  0  0  0
  189.7540  173.2730  144.0190 C   0  0  0  0  0  0  0  0  0  0  0  0
  189.6390  173.8860  145.1120 O   0  0  0  0  0  0  0  0  0  0  0  0
  189.4910  171.8730  143.9790 N   0  0  0  0  0  1  0  0  0  0  0  0
  1 17  1  0  0  0  0
  1  3  1  0  0  0  0
  2  5  1  0  0  0  0
  4  6  1  0  0  0  0
  4  2  2  0  0  0  0
  5  3  2  0  0  0  0
  6  1  2  0  0  0  0
  7 10  1  0  0  0  0
  8  7  1  0  0  0  0
  8  9  2  0  0  0  0
  9 12  1  0  0  0  0
 10 11  1  0  0  0  0
 11 13  1  0  0  0  0
 11 14  2  0  0  0  0
 12  2  1  0  0  0  0
 12 13  2  0  0  0  0
 15 16  2  0  0  0  0
 16 10  1  0  0  0  0
 17 18  1  0  0  0  0
 19 23  1  6  0  0  0
 19  6  1  0  0  0  0
 20 21  1  0  0  0  0
 20 19  1  0  0  0  0
 22 20  1  0  0  0  0
 24 23  1  0  0  0  0
 25 24  1  0  0  0  0
 26 28  1  0  0  0  0
 27 25  1  0  0  0  0
 27 26  2  0  0  0  0
 28 29  2  0  0  0  0
 30 28  1  0  0  0  0
M  END
>  <MODEL>
1

>  <REMARK>
 VINA RESULT:      -6.6      0.000      0.000
  Name = 
  10 active torsions:
  status: ('A' for Active; 'I' for Inactive)
    1  A    between atoms: N_4  and  C_12
    2  A    between atoms: N_4  and  C_21
    3  A    between atoms: C_5  and  C_28
    4  A    between atoms: C_6  and  C_18
    5  A    between atoms: O_7  and  C_8
    6  A    between atoms: C_9  and  C_16
    7  A    between atoms: C_12  and  C_28
    8  A    between atoms: N_13  and  C_17
    9  A    between atoms: C_21  and  C_24
   10  A    between atoms: C_28  and  C_30
                            x       y       z     vdW  Elec       q    Type
                         _______ _______ _______ _____ _____    ______ ____

>  <TORSDO>
F 10

$$$$
=
 OpenBabel11042418303D

 30 31  0  0  1  0  0  0  0  0999 V2000
  191.4510  176.6470  143.9860 C   0  0  0  0  0  0  0  0  0  0  0  0
  188.8110  177.0950  143.0840 C   0  0  0  0  0  0  0  0  0  0  0  0
  191.1900  177.6020  142.9910 C   0  0  0  0  0  3  0  0  0  0  0  0
  189.0790  176.1420  144.0790 C   0  0  0  0  0  3  0  0  0  0  0  0
  189.8840  177.8210  142.5450 C   0  0  0  0  0  3  0  0  0  0  0  0
  190.3860  175.9110  144.5320 C   0  0  0  0  0  0  0  0  0  0  0  0
  185.3540  178.5970  140.8320 C   0  0  0  0  0  2  0  0  0  0  0  0
  186.1620  177.4140  140.4330 C   0  0  0  0  0  3  0  0  0  0  0  0
  187.0830  176.8750  141.2290 C   0  0  0  0  0  3  0  0  0  0  0  0
  184.4990  178.2480  141.9590 N   0  0  0  0  0  0  0  0  0  0  0  0
  185.0720  178.0600  143.2630 C   0  0  0  0  0  0  0  0  0  0  0  0
  187.4180  177.3120  142.6080 C   0  0  0  0  0  0  0  0  0  0  0  0
  186.5110  177.8010  143.4750 C   0  0  0  0  0  3  0  0  0  0  0  0
  184.3370  178.1470  144.2820 O   0  0  0  0  0  0  0  0  0  0  0  0
  182.4920  178.1790  140.6020 C   0  0  0  0  0  2  0  0  0  0  0  0
  183.0750  178.1620  141.7960 C   0  0  0  0  0  3  0  0  0  0  0  0
  192.7560  176.4170  144.4400 O   0  0  0  0  0  0  0  0  0  0  0  0
  193.3860  177.2340  145.4180 C   0  0  0  0  0  1  0  0  0  0  0  0
  190.6530  174.8810  145.5950 C   0  0  1  0  0  3  0  0  0  0  0  0
  190.1760  175.3420  146.9780 C   0  0  0  0  0  3  0  0  0  0  0  0
  191.3190  175.2980  147.9770 C   0  0  0  0  0  1  0  0  0  0  0  0
  189.0000  174.5290  147.5030 C   0  0  0  0  0  1  0  0  0  0  0  0
  190.1440  173.4910  145.2070 C   0  0  0  0  0  2  0  0  0  0  0  0
  191.1620  172.7800  144.4500 N   0  0  0  0  0  2  0  0  0  0  0  0
  190.5600  172.3910  143.1840 C   0  0  0  0  0  2  0  0  0  0  0  0
  189.9620  173.8680  141.2390 C   0  0  0  0  0  3  0  0  0  0  0  0
  190.8420  173.4250  142.1430 C   0  0  0  0  0  3  0  0  0  0  0  0
  188.5710  173.4120  141.0630 C   0  0  0  0  0  0  0  0  0  0  0  0
  187.7450  173.6120  141.9910 O   0  0  0  0  0  0  0  0  0  0  0  0
  188.1300  172.7770  139.8660 N   0  0  0  0  0  1  0  0  0  0  0  0
  1 17  1  0  0  0  0
  1  6  1  0  0  0  0
  2  4  1  0  0  0  0
  3  1  2  0  0  0  0
  4  6  2  0  0  0  0
  5  3  1  0  0  0  0
  5  2  2  0  0  0  0
  6 19  1  0  0  0  0
  7 10  1  0  0  0  0
  8  7  1  0  0  0  0
  8  9  2  0  0  0  0
  9 12  1  0  0  0  0
 10 11  1  0  0  0  0
 11 13  1  0  0  0  0
 11 14  2  0  0  0  0
 12  2  1  0  0  0  0
 12 13  2  0  0  0  0
 15 16  2  0  0  0  0
 16 10  1  0  0  0  0
 17 18  1  0  0  0  0
 19 23  1  6  0  0  0
 19 20  1  0  0  0  0
 20 22  1  0  0  0  0
 20 21  1  0  0  0  0
 24 23  1  0  0  0  0
 25 24  1  0  0  0  0
 26 27  2  0  0  0  0
 27 25  1  0  0  0  0
 28 26  1  0  0  0  0
 28 29  2  0  0  0  0
 30 28  1  0  0  0  0
M  END
>  <MODEL>
2

>  <REMARK>
 VINA RESULT:      -6.5      2.330      6.807
  Name = 
  10 active torsions:
  status: ('A' for Active; 'I' for Inactive)
    1  A    between atoms: N_4  and  C_12
    2  A    between atoms: N_4  and  C_21
    3  A    between atoms: C_5  and  C_28
    4  A    between atoms: C_6  and  C_18
    5  A    between atoms: O_7  and  C_8
    6  A    between atoms: C_9  and  C_16
    7  A    between atoms: C_12  and  C_28
    8  A    between atoms: N_13  and  C_17
    9  A    between atoms: C_21  and  C_24
   10  A    between atoms: C_28  and  C_30
                            x       y       z     vdW  Elec       q    Type
                         _______ _______ _______ _____ _____    ______ ____

>  <TORSDO>
F 10

$$$$
=
 OpenBabel11042418303D

 30 31  0  0  1  0  0  0  0  0999 V2000
  192.5450  176.6180  143.3640 C   0  0  0  0  0  0  0  0  0  0  0  0
  189.9130  177.1950  144.2160 C   0  0  0  0  0  0  0  0  0  0  0  0
  191.8010  177.6320  142.7430 C   0  0  0  0  0  3  0  0  0  0  0  0
  190.6620  176.1820  144.8330 C   0  0  0  0  0  3  0  0  0  0  0  0
  190.4990  177.9160  143.1630 C   0  0  0  0  0  3  0  0  0  0  0  0
  191.9680  175.8860  144.4160 C   0  0  0  0  0  0  0  0  0  0  0  0
  185.7900  176.6680  145.6300 C   0  0  0  0  0  2  0  0  0  0  0  0
  186.9670  176.8230  146.5240 C   0  0  0  0  0  3  0  0  0  0  0  0
  188.1710  177.1650  146.0710 C   0  0  0  0  0  3  0  0  0  0  0  0
  185.4490  177.9570  145.0410 N   0  0  0  0  0  0  0  0  0  0  0  0
  186.2880  178.5250  144.0230 C   0  0  0  0  0  0  0  0  0  0  0  0
  188.5230  177.4810  144.6630 C   0  0  0  0  0  0  0  0  0  0  0  0
  187.6860  178.0960  143.8060 C   0  0  0  0  0  3  0  0  0  0  0  0
  185.8210  179.4050  143.2530 O   0  0  0  0  0  0  0  0  0  0  0  0
  183.7450  178.5790  146.6480 C   0  0  0  0  0  2  0  0  0  0  0  0
  184.2390  178.6340  145.4150 C   0  0  0  0  0  3  0  0  0  0  0  0
  193.8500  176.3230  142.9500 O   0  0  0  0  0  0  0  0  0  0  0  0
  194.1440  175.7430  141.6870 C   0  0  0  0  0  1  0  0  0  0  0  0
  192.7530  174.7920  145.0870 C   0  0  1  0  0  3  0  0  0  0  0  0
  193.1140  175.1450  146.5350 C   0  0  0  0  0  3  0  0  0  0  0  0
  191.8660  175.1970  147.3970 C   0  0  0  0  0  1  0  0  0  0  0  0
  193.8800  176.4560  146.6540 C   0  0  0  0  0  1  0  0  0  0  0  0
  192.0900  173.4200  144.9420 C   0  0  0  0  0  2  0  0  0  0  0  0
  192.2060  172.9530  143.5700 N   0  0  0  0  0  2  0  0  0  0  0  0
  190.8580  172.8670  143.0310 C   0  0  0  0  0  2  0  0  0  0  0  0
  189.5630  174.2700  141.3950 C   0  0  0  0  0  3  0  0  0  0  0  0
  190.7180  173.7720  141.8510 C   0  0  0  0  0  3  0  0  0  0  0  0
  188.2150  174.0060  141.9290 C   0  0  0  0  0  0  0  0  0  0  0  0
  187.5920  174.9410  142.4960 O   0  0  0  0  0  0  0  0  0  0  0  0
  187.5860  172.7330  141.8000 N   0  0  0  0  0  1  0  0  0  0  0  0
  1  6  1  0  0  0  0
  2 12  1  0  0  0  0
  2  4  1  0  0  0  0
  3  5  1  0  0  0  0
  3  1  2  0  0  0  0
  5  2  2  0  0  0  0
  6  4  2  0  0  0  0
  6 19  1  0  0  0  0
  7  8  1  0  0  0  0
  9  8  2  0  0  0  0
 10 16  1  0  0  0  0
 10  7  1  0  0  0  0
 11 10  1  0  0  0  0
 12  9  1  0  0  0  0
 13 11  1  0  0  0  0
 13 12  2  0  0  0  0
 14 11  2  0  0  0  0
 16 15  2  0  0  0  0
 17  1  1  0  0  0  0
 18 17  1  0  0  0  0
 19 23  1  1  0  0  0
 19 20  1  0  0  0  0
 20 22  1  0  0  0  0
 20 21  1  0  0  0  0
 24 23  1  0  0  0  0
 25 24  1  0  0  0  0
 26 27  2  0  0  0  0
 26 28  1  0  0  0  0
 27 25  1  0  0  0  0
 28 29  2  0  0  0  0
 30 28  1  0  0  0  0
M  END
>  <MODEL>
3

>  <REMARK>
 VINA RESULT:      -6.4      2.086      6.908
  Name = 
  10 active torsions:
  status: ('A' for Active; 'I' for Inactive)
    1  A    between atoms: N_4  and  C_12
    2  A    between atoms: N_4  and  C_21
    3  A    between atoms: C_5  and  C_28
    4  A    between atoms: C_6  and  C_18
    5  A    between atoms: O_7  and  C_8
    6  A    between atoms: C_9  and  C_16
    7  A    between atoms: C_12  and  C_28
    8  A    between atoms: N_13  and  C_17
    9  A    between atoms: C_21  and  C_24
   10  A    between atoms: C_28  and  C_30
                            x       y       z     vdW  Elec       q    Type
                         _______ _______ _______ _____ _____    ______ ____

>  <TORSDO>
F 10

$$$$
=
 OpenBabel11042418303D

 30 31  0  0  1  0  0  0  0  0999 V2000
  186.8830  178.0830  143.2360 C   0  0  0  0  0  0  0  0  0  0  0  0
  187.7480  175.7490  141.8980 C   0  0  0  0  0  0  0  0  0  0  0  0
  186.5180  177.8490  141.9020 C   0  0  0  0  0  3  0  0  0  0  0  0
  188.1100  175.9880  143.2330 C   0  0  0  0  0  3  0  0  0  0  0  0
  186.9470  176.6960  141.2410 C   0  0  0  0  0  3  0  0  0  0  0  0
  187.6880  177.1450  143.9050 C   0  0  0  0  0  0  0  0  0  0  0  0
  190.2510  172.3790  140.6120 C   0  0  0  0  0  2  0  0  0  0  0  0
  189.3150  172.3320  141.7660 C   0  0  0  0  0  3  0  0  0  0  0  0
  188.4390  173.3020  142.0170 C   0  0  0  0  0  3  0  0  0  0  0  0
  189.4960  172.3250  139.3670 N   0  0  0  0  0  0  0  0  0  0  0  0
  188.7350  173.4650  138.9390 C   0  0  0  0  0  0  0  0  0  0  0  0
  188.2210  174.5230  141.2010 C   0  0  0  0  0  0  0  0  0  0  0  0
  188.3350  174.5510  139.8590 C   0  0  0  0  0  3  0  0  0  0  0  0
  188.4110  173.5780  137.7270 O   0  0  0  0  0  0  0  0  0  0  0  0
  190.3070  170.1070  138.8230 C   0  0  0  0  0  2  0  0  0  0  0  0
  189.5620  171.1660  138.5220 C   0  0  0  0  0  3  0  0  0  0  0  0
  186.4610  179.2360  143.9080 O   0  0  0  0  0  0  0  0  0  0  0  0
  185.1120  179.4470  144.3020 C   0  0  0  0  0  1  0  0  0  0  0  0
  188.0920  177.3870  145.3340 C   0  0  1  0  0  3  0  0  0  0  0  0
  187.3910  176.4260  146.3020 C   0  0  0  0  0  3  0  0  0  0  0  0
  186.5200  177.1950  147.2780 C   0  0  0  0  0  1  0  0  0  0  0  0
  188.3640  175.5380  147.0670 C   0  0  0  0  0  1  0  0  0  0  0  0
  189.6110  177.4330  145.5140 C   0  0  0  0  0  2  0  0  0  0  0  0
  190.2200  178.1790  144.4250 N   0  0  0  0  0  2  0  0  0  0  0  0
  191.5320  177.5970  144.1880 C   0  0  0  0  0  2  0  0  0  0  0  0
  191.6590  175.4930  142.8180 C   0  0  0  0  0  3  0  0  0  0  0  0
  191.5260  176.8200  142.9120 C   0  0  0  0  0  3  0  0  0  0  0  0
  191.8690  174.5440  143.9270 C   0  0  0  0  0  0  0  0  0  0  0  0
  193.0440  174.2070  144.2230 O   0  0  0  0  0  0  0  0  0  0  0  0
  190.7840  174.0210  144.6890 N   0  0  0  0  0  1  0  0  0  0  0  0
  1  6  1  0  0  0  0
  1 17  1  0  0  0  0
  2  4  1  0  0  0  0
  3  1  2  0  0  0  0
  4  6  2  0  0  0  0
  5  2  2  0  0  0  0
  5  3  1  0  0  0  0
  6 19  1  0  0  0  0
  7  8  1  0  0  0  0
  8  9  2  0  0  0  0
 10  7  1  0  0  0  0
 11 10  1  0  0  0  0
 11 13  1  0  0  0  0
 12  2  1  0  0  0  0
 12  9  1  0  0  0  0
 13 12  2  0  0  0  0
 14 11  2  0  0  0  0
 16 15  2  0  0  0  0
 16 10  1  0  0  0  0
 17 18  1  0  0  0  0
 19 23  1  6  0  0  0
 19 20  1  0  0  0  0
 20 22  1  0  0  0  0
 20 21  1  0  0  0  0
 24 23  1  0  0  0  0
 25 24  1  0  0  0  0
 26 27  2  0  0  0  0
 26 28  1  0  0  0  0
 27 25  1  0  0  0  0
 28 29  2  0  0  0  0
 28 30  1  0  0  0  0
M  END
>  <MODEL>
4

>  <REMARK>
 VINA RESULT:      -6.3      2.836      5.586
  Name = 
  10 active torsions:
  status: ('A' for Active; 'I' for Inactive)
    1  A    between atoms: N_4  and  C_12
    2  A    between atoms: N_4  and  C_21
    3  A    between atoms: C_5  and  C_28
    4  A    between atoms: C_6  and  C_18
    5  A    between atoms: O_7  and  C_8
    6  A    between atoms: C_9  and  C_16
    7  A    between atoms: C_12  and  C_28
    8  A    between atoms: N_13  and  C_17
    9  A    between atoms: C_21  and  C_24
   10  A    between atoms: C_28  and  C_30
                            x       y       z     vdW  Elec       q    Type
                         _______ _______ _______ _____ _____    ______ ____

>  <TORSDO>
F 10

$$$$
=
 OpenBabel11042418303D

 30 31  0  0  1  0  0  0  0  0999 V2000
  187.6050  176.4090  145.9380 C   0  0  0  0  0  0  0  0  0  0  0  0
  190.3950  176.2910  145.5020 C   0  0  0  0  0  0  0  0  0  0  0  0
  188.4900  176.2610  147.0170 C   0  0  0  0  0  3  0  0  0  0  0  0
  189.5050  176.4380  144.4270 C   0  0  0  0  0  3  0  0  0  0  0  0
  189.8690  176.2010  146.8000 C   0  0  0  0  0  3  0  0  0  0  0  0
  188.1180  176.4960  144.6330 C   0  0  0  0  0  0  0  0  0  0  0  0
  194.6880  177.2050  145.5510 C   0  0  0  0  0  2  0  0  0  0  0  0
  194.0010  176.3640  146.5660 C   0  0  0  0  0  3  0  0  0  0  0  0
  192.7430  175.9540  146.4240 C   0  0  0  0  0  3  0  0  0  0  0  0
  194.8390  176.4520  144.3130 N   0  0  0  0  0  0  0  0  0  0  0  0
  193.6920  176.1950  143.4870 C   0  0  0  0  0  0  0  0  0  0  0  0
  191.8600  176.2150  145.2580 C   0  0  0  0  0  0  0  0  0  0  0  0
  192.3060  176.2900  143.9890 C   0  0  0  0  0  3  0  0  0  0  0  0
  193.8540  175.9060  142.2710 O   0  0  0  0  0  0  0  0  0  0  0  0
  196.7230  174.9290  144.3350 C   0  0  0  0  0  2  0  0  0  0  0  0
  196.1360  176.0260  143.8690 C   0  0  0  0  0  3  0  0  0  0  0  0
  186.2210  176.4690  146.1430 O   0  0  0  0  0  0  0  0  0  0  0  0
  185.6180  177.3630  147.0680 C   0  0  0  0  0  1  0  0  0  0  0  0
  187.1810  176.6490  143.4670 C   0  0  1  0  0  3  0  0  0  0  0  0
  186.7760  178.1110  143.2380 C   0  0  0  0  0  3  0  0  0  0  0  0
  185.2810  178.2850  143.4240 C   0  0  0  0  0  1  0  0  0  0  0  0
  187.1920  178.6360  141.8700 C   0  0  0  0  0  1  0  0  0  0  0  0
  187.6960  175.9550  142.2040 C   0  0  0  0  0  2  0  0  0  0  0  0
  187.4620  174.5230  142.2910 N   0  0  0  0  0  2  0  0  0  0  0  0
  188.2720  173.8930  141.2600 C   0  0  0  0  0  2  0  0  0  0  0  0
  190.5750  173.7000  142.2500 C   0  0  0  0  0  3  0  0  0  0  0  0
  189.7040  174.2860  141.4220 C   0  0  0  0  0  3  0  0  0  0  0  0
  190.2990  172.5890  143.1810 C   0  0  0  0  0  0  0  0  0  0  0  0
  190.1030  172.8500  144.3960 O   0  0  0  0  0  0  0  0  0  0  0  0
  190.2230  171.2360  142.7400 N   0  0  0  0  0  1  0  0  0  0  0  0
  1 17  1  0  0  0  0
  1  3  1  0  0  0  0
  2  5  1  0  0  0  0
  4  6  1  0  0  0  0
  4  2  2  0  0  0  0
  5  3  2  0  0  0  0
  6  1  2  0  0  0  0
  7  8  1  0  0  0  0
  9  8  2  0  0  0  0
 10  7  1  0  0  0  0
 11 13  1  0  0  0  0
 11 10  1  0  0  0  0
 12  2  1  0  0  0  0
 12  9  1  0  0  0  0
 13 12  2  0  0  0  0
 14 11  2  0  0  0  0
 16 10  1  0  0  0  0
 16 15  2  0  0  0  0
 17 18  1  0  0  0  0
 19 23  1  6  0  0  0
 19  6  1  0  0  0  0
 20 21  1  0  0  0  0
 20 19  1  0  0  0  0
 22 20  1  0  0  0  0
 23 24  1  0  0  0  0
 25 27  1  0  0  0  0
 25 24  1  0  0  0  0
 26 28  1  0  0  0  0
 27 26  2  0  0  0  0
 28 29  2  0  0  0  0
 30 28  1  0  0  0  0
M  END
>  <MODEL>
5

>  <REMARK>
 VINA RESULT:      -6.3      1.440      1.905
  Name = 
  10 active torsions:
  status: ('A' for Active; 'I' for Inactive)
    1  A    between atoms: N_4  and  C_12
    2  A    between atoms: N_4  and  C_21
    3  A    between atoms: C_5  and  C_28
    4  A    between atoms: C_6  and  C_18
    5  A    between atoms: O_7  and  C_8
    6  A    between atoms: C_9  and  C_16
    7  A    between atoms: C_12  and  C_28
    8  A    between atoms: N_13  and  C_17
    9  A    between atoms: C_21  and  C_24
   10  A    between atoms: C_28  and  C_30
                            x       y       z     vdW  Elec       q    Type
                         _______ _______ _______ _____ _____    ______ ____

>  <TORSDO>
F 10

$$$$
=
 OpenBabel11042418303D

 30 31  0  0  1  0  0  0  0  0999 V2000
  190.1170  176.8840  146.9620 C   0  0  0  0  0  0  0  0  0  0  0  0
  188.1150  177.5070  145.0680 C   0  0  0  0  0  0  0  0  0  0  0  0
  188.9410  177.5410  147.3570 C   0  0  0  0  0  3  0  0  0  0  0  0
  189.2930  176.8510  144.6790 C   0  0  0  0  0  3  0  0  0  0  0  0
  187.9530  177.8500  146.4190 C   0  0  0  0  0  3  0  0  0  0  0  0
  190.2930  176.5390  145.6110 C   0  0  0  0  0  0  0  0  0  0  0  0
  184.2300  178.0200  143.0870 C   0  0  0  0  0  2  0  0  0  0  0  0
  184.8710  179.0470  143.9490 C   0  0  0  0  0  3  0  0  0  0  0  0
  186.1240  178.9380  144.3820 C   0  0  0  0  0  3  0  0  0  0  0  0
  184.9070  177.9700  141.7980 N   0  0  0  0  0  0  0  0  0  0  0  0
  186.2200  177.3950  141.7000 C   0  0  0  0  0  0  0  0  0  0  0  0
  187.0740  177.8430  144.0590 C   0  0  0  0  0  0  0  0  0  0  0  0
  187.1030  177.2100  142.8710 C   0  0  0  0  0  3  0  0  0  0  0  0
  186.6420  176.9980  140.5810 O   0  0  0  0  0  0  0  0  0  0  0  0
  182.9350  178.3020  140.4310 C   0  0  0  0  0  2  0  0  0  0  0  0
  184.2470  178.4240  140.6070 C   0  0  0  0  0  3  0  0  0  0  0  0
  191.1160  176.5700  147.8920 O   0  0  0  0  0  0  0  0  0  0  0  0
  191.5640  177.4870  148.8800 C   0  0  0  0  0  1  0  0  0  0  0  0
  191.5510  175.8390  145.1730 C   0  0  1  0  0  3  0  0  0  0  0  0
  191.2690  174.7250  144.1570 C   0  0  0  0  0  3  0  0  0  0  0  0
  191.9000  173.4210  144.6080 C   0  0  0  0  0  1  0  0  0  0  0  0
  191.7420  175.0700  142.7510 C   0  0  0  0  0  1  0  0  0  0  0  0
  192.6380  176.8170  144.7190 C   0  0  0  0  0  2  0  0  0  0  0  0
  193.6830  176.9030  145.7270 N   0  0  0  0  0  2  0  0  0  0  0  0
  194.9560  176.7800  145.0350 C   0  0  0  0  0  2  0  0  0  0  0  0
  195.4510  175.0840  143.2470 C   0  0  0  0  0  3  0  0  0  0  0  0
  195.1210  175.3930  144.5050 C   0  0  0  0  0  3  0  0  0  0  0  0
  195.6840  176.0260  142.1360 C   0  0  0  0  0  0  0  0  0  0  0  0
  196.8410  176.4900  141.9660 O   0  0  0  0  0  0  0  0  0  0  0  0
  194.6450  176.4060  141.2380 N   0  0  0  0  0  1  0  0  0  0  0  0
  1  3  1  0  0  0  0
  1 17  1  0  0  0  0
  2  5  1  0  0  0  0
  4  2  2  0  0  0  0
  4  6  1  0  0  0  0
  5  3  2  0  0  0  0
  6  1  2  0  0  0  0
  7  8  1  0  0  0  0
  8  9  2  0  0  0  0
 10  7  1  0  0  0  0
 11 10  1  0  0  0  0
 11 13  1  0  0  0  0
 12  9  1  0  0  0  0
 12  2  1  0  0  0  0
 13 12  2  0  0  0  0
 14 11  2  0  0  0  0
 15 16  2  0  0  0  0
 16 10  1  0  0  0  0
 17 18  1  0  0  0  0
 19 23  1  6  0  0  0
 19  6  1  0  0  0  0
 20 21  1  0  0  0  0
 20 19  1  0  0  0  0
 22 20  1  0  0  0  0
 23 24  1  0  0  0  0
 25 24  1  0  0  0  0
 26 27  2  0  0  0  0
 27 25  1  0  0  0  0
 28 26  1  0  0  0  0
 29 28  2  0  0  0  0
 30 28  1  0  0  0  0
M  END
>  <MODEL>
6

>  <REMARK>
 VINA RESULT:      -6.2      2.443      7.142
  Name = 
  10 active torsions:
  status: ('A' for Active; 'I' for Inactive)
    1  A    between atoms: N_4  and  C_12
    2  A    between atoms: N_4  and  C_21
    3  A    between atoms: C_5  and  C_28
    4  A    between atoms: C_6  and  C_18
    5  A    between atoms: O_7  and  C_8
    6  A    between atoms: C_9  and  C_16
    7  A    between atoms: C_12  and  C_28
    8  A    between atoms: N_13  and  C_17
    9  A    between atoms: C_21  and  C_24
   10  A    between atoms: C_28  and  C_30
                            x       y       z     vdW  Elec       q    Type
                         _______ _______ _______ _____ _____    ______ ____

>  <TORSDO>
F 10

$$$$
=
 OpenBabel11042418303D

 30 31  0  0  1  0  0  0  0  0999 V2000
  189.5350  174.4670  145.6620 C   0  0  0  0  0  0  0  0  0  0  0  0
  189.7450  173.0510  143.2250 C   0  0  0  0  0  0  0  0  0  0  0  0
  189.8720  173.1050  145.6560 C   0  0  0  0  0  3  0  0  0  0  0  0
  189.4080  174.4130  143.2380 C   0  0  0  0  0  3  0  0  0  0  0  0
  189.9740  172.4050  144.4510 C   0  0  0  0  0  3  0  0  0  0  0  0
  189.3000  175.1240  144.4430 C   0  0  0  0  0  0  0  0  0  0  0  0
  191.3570  171.1130  139.6310 C   0  0  0  0  0  2  0  0  0  0  0  0
  191.1630  170.4260  140.9340 C   0  0  0  0  0  3  0  0  0  0  0  0
  190.5050  170.9850  141.9470 C   0  0  0  0  0  3  0  0  0  0  0  0
  190.0670  171.3010  138.9800 N   0  0  0  0  0  0  0  0  0  0  0  0
  189.1450  172.2800  139.4850 C   0  0  0  0  0  0  0  0  0  0  0  0
  189.8390  172.3120  141.9370 C   0  0  0  0  0  0  0  0  0  0  0  0
  189.2360  172.8350  140.8520 C   0  0  0  0  0  3  0  0  0  0  0  0
  188.2330  172.7190  138.7360 O   0  0  0  0  0  0  0  0  0  0  0  0
  190.0320  169.2830  137.6400 C   0  0  0  0  0  2  0  0  0  0  0  0
  189.7350  170.5690  137.7900 C   0  0  0  0  0  3  0  0  0  0  0  0
  189.4280  175.1780  146.8630 O   0  0  0  0  0  0  0  0  0  0  0  0
  190.5530  175.7300  147.5340 C   0  0  0  0  0  1  0  0  0  0  0  0
  188.9320  176.5830  144.4350 C   0  0  1  0  0  3  0  0  0  0  0  0
  189.6470  177.3530  143.3180 C   0  0  0  0  0  3  0  0  0  0  0  0
  190.6790  178.3000  143.9010 C   0  0  0  0  0  1  0  0  0  0  0  0
  188.6880  178.1230  142.4200 C   0  0  0  0  0  1  0  0  0  0  0  0
  187.4180  176.8060  144.4570 C   0  0  0  0  0  2  0  0  0  0  0  0
  186.9930  177.2140  145.7870 N   0  0  0  0  0  2  0  0  0  0  0  0
  185.6080  176.7990  145.9400 C   0  0  0  0  0  2  0  0  0  0  0  0
  184.3620  178.9770  145.7840 C   0  0  0  0  0  3  0  0  0  0  0  0
  184.7920  177.9250  146.4870 C   0  0  0  0  0  3  0  0  0  0  0  0
  184.6260  179.2560  144.3600 C   0  0  0  0  0  0  0  0  0  0  0  0
  185.5900  180.0060  144.0570 O   0  0  0  0  0  0  0  0  0  0  0  0
  183.8400  178.6820  143.3190 N   0  0  0  0  0  1  0  0  0  0  0  0
  1 17  1  0  0  0  0
  2  4  2  0  0  0  0
  2  5  1  0  0  0  0
  3  1  1  0  0  0  0
  4  6  1  0  0  0  0
  5  3  2  0  0  0  0
  6  1  2  0  0  0  0
  7  8  1  0  0  0  0
  8  9  2  0  0  0  0
 10 11  1  0  0  0  0
 10  7  1  0  0  0  0
 11 13  1  0  0  0  0
 12  9  1  0  0  0  0
 12  2  1  0  0  0  0
 13 12  2  0  0  0  0
 14 11  2  0  0  0  0
 15 16  2  0  0  0  0
 16 10  1  0  0  0  0
 17 18  1  0  0  0  0
 19  6  1  0  0  0  0
 19 23  1  6  0  0  0
 20 21  1  0  0  0  0
 20 19  1  0  0  0  0
 22 20  1  0  0  0  0
 23 24  1  0  0  0  0
 24 25  1  0  0  0  0
 25 27  1  0  0  0  0
 26 27  2  0  0  0  0
 28 26  1  0  0  0  0
 29 28  2  0  0  0  0
 30 28  1  0  0  0  0
M  END
>  <MODEL>
7

>  <REMARK>
 VINA RESULT:      -6.2      3.220      6.541
  Name = 
  10 active torsions:
  status: ('A' for Active; 'I' for Inactive)
    1  A    between atoms: N_4  and  C_12
    2  A    between atoms: N_4  and  C_21
    3  A    between atoms: C_5  and  C_28
    4  A    between atoms: C_6  and  C_18
    5  A    between atoms: O_7  and  C_8
    6  A    between atoms: C_9  and  C_16
    7  A    between atoms: C_12  and  C_28
    8  A    between atoms: N_13  and  C_17
    9  A    between atoms: C_21  and  C_24
   10  A    between atoms: C_28  and  C_30
                            x       y       z     vdW  Elec       q    Type
                         _______ _______ _______ _____ _____    ______ ____

>  <TORSDO>
F 10

$$$$
=
 OpenBabel11042418303D

 30 31  0  0  1  0  0  0  0  0999 V2000
  190.1020  176.8670  146.8080 C   0  0  0  0  0  0  0  0  0  0  0  0
  188.0270  177.5670  145.0220 C   0  0  0  0  0  0  0  0  0  0  0  0
  188.9570  177.5330  147.2710 C   0  0  0  0  0  3  0  0  0  0  0  0
  189.1750  176.9010  144.5650 C   0  0  0  0  0  3  0  0  0  0  0  0
  187.9330  177.8800  146.3870 C   0  0  0  0  0  3  0  0  0  0  0  0
  190.2110  176.5510  145.4430 C   0  0  0  0  0  0  0  0  0  0  0  0
  184.0650  178.2220  143.2480 C   0  0  0  0  0  2  0  0  0  0  0  0
  184.7840  179.2230  144.0780 C   0  0  0  0  0  3  0  0  0  0  0  0
  186.0540  179.0690  144.4460 C   0  0  0  0  0  3  0  0  0  0  0  0
  184.6720  178.1550  141.9250 N   0  0  0  0  0  0  0  0  0  0  0  0
  185.9580  177.5360  141.7570 C   0  0  0  0  0  0  0  0  0  0  0  0
  186.9480  177.9430  144.0700 C   0  0  0  0  0  0  0  0  0  0  0  0
  186.8930  177.3150  142.8800 C   0  0  0  0  0  3  0  0  0  0  0  0
  186.3070  177.1300  140.6170 O   0  0  0  0  0  0  0  0  0  0  0  0
  182.7100  178.2920  140.5100 C   0  0  0  0  0  2  0  0  0  0  0  0
  183.9670  178.6370  140.7710 C   0  0  0  0  0  3  0  0  0  0  0  0
  191.1360  176.5150  147.6840 O   0  0  0  0  0  0  0  0  0  0  0  0
  191.5510  177.3460  148.7600 C   0  0  0  0  0  1  0  0  0  0  0  0
  191.4360  175.8430  144.9320 C   0  0  1  0  0  3  0  0  0  0  0  0
  191.0820  174.6650  144.0150 C   0  0  0  0  0  3  0  0  0  0  0  0
  190.9340  173.3890  144.8220 C   0  0  0  0  0  1  0  0  0  0  0  0
  192.0950  174.4560  142.8980 C   0  0  0  0  0  1  0  0  0  0  0  0
  192.4580  176.8050  144.3210 C   0  0  0  0  0  2  0  0  0  0  0  0
  193.6220  176.9110  145.1860 N   0  0  0  0  0  2  0  0  0  0  0  0
  193.7160  175.6660  145.9330 C   0  0  0  0  0  2  0  0  0  0  0  0
  195.7410  174.2080  145.6280 C   0  0  0  0  0  3  0  0  0  0  0  0
  195.1490  175.2950  146.1340 C   0  0  0  0  0  3  0  0  0  0  0  0
  195.1080  173.1550  144.8140 C   0  0  0  0  0  0  0  0  0  0  0  0
  195.2560  173.1820  143.5640 O   0  0  0  0  0  0  0  0  0  0  0  0
  194.3570  172.0950  145.4000 N   0  0  0  0  0  1  0  0  0  0  0  0
  1  3  1  0  0  0  0
  1 17  1  0  0  0  0
  2  5  1  0  0  0  0
  4  2  2  0  0  0  0
  4  6  1  0  0  0  0
  5  3  2  0  0  0  0
  6  1  2  0  0  0  0
  7  8  1  0  0  0  0
  8  9  2  0  0  0  0
 10  7  1  0  0  0  0
 11 10  1  0  0  0  0
 11 13  1  0  0  0  0
 12  9  1  0  0  0  0
 12  2  1  0  0  0  0
 13 12  2  0  0  0  0
 14 11  2  0  0  0  0
 15 16  2  0  0  0  0
 16 10  1  0  0  0  0
 17 18  1  0  0  0  0
 19 23  1  6  0  0  0
 19  6  1  0  0  0  0
 20 21  1  0  0  0  0
 20 19  1  0  0  0  0
 22 20  1  0  0  0  0
 23 24  1  0  0  0  0
 24 25  1  0  0  0  0
 25 27  1  0  0  0  0
 26 27  2  0  0  0  0
 28 30  1  0  0  0  0
 28 26  1  0  0  0  0
 29 28  2  0  0  0  0
M  END
>  <MODEL>
8

>  <REMARK>
 VINA RESULT:      -6.1      2.367      7.025
  Name = 
  10 active torsions:
  status: ('A' for Active; 'I' for Inactive)
    1  A    between atoms: N_4  and  C_12
    2  A    between atoms: N_4  and  C_21
    3  A    between atoms: C_5  and  C_28
    4  A    between atoms: C_6  and  C_18
    5  A    between atoms: O_7  and  C_8
    6  A    between atoms: C_9  and  C_16
    7  A    between atoms: C_12  and  C_28
    8  A    between atoms: N_13  and  C_17
    9  A    between atoms: C_21  and  C_24
   10  A    between atoms: C_28  and  C_30
                            x       y       z     vdW  Elec       q    Type
                         _______ _______ _______ _____ _____    ______ ____

>  <TORSDO>
F 10

$$$$
=
 OpenBabel11042418303D

 30 31  0  0  1  0  0  0  0  0999 V2000
  186.5410  178.3260  143.4910 C   0  0  0  0  0  0  0  0  0  0  0  0
  187.5910  176.0400  142.2040 C   0  0  0  0  0  0  0  0  0  0  0  0
  186.2040  178.0390  142.1590 C   0  0  0  0  0  3  0  0  0  0  0  0
  187.9250  176.3320  143.5360 C   0  0  0  0  0  3  0  0  0  0  0  0
  186.7250  176.9090  141.5240 C   0  0  0  0  0  3  0  0  0  0  0  0
  187.4110  177.4660  144.1820 C   0  0  0  0  0  0  0  0  0  0  0  0
  190.3900  172.9140  140.9090 C   0  0  0  0  0  2  0  0  0  0  0  0
  189.5380  172.8220  142.1240 C   0  0  0  0  0  3  0  0  0  0  0  0
  188.5700  173.6970  142.3880 C   0  0  0  0  0  3  0  0  0  0  0  0
  189.5730  172.7080  139.7210 N   0  0  0  0  0  0  0  0  0  0  0  0
  188.6590  173.7310  139.2930 C   0  0  0  0  0  0  0  0  0  0  0  0
  188.1620  174.8410  141.5330 C   0  0  0  0  0  0  0  0  0  0  0  0
  188.1910  174.8110  140.1870 C   0  0  0  0  0  3  0  0  0  0  0  0
  188.2520  173.7410  138.1010 O   0  0  0  0  0  0  0  0  0  0  0  0
  190.6560  170.6100  139.1800 C   0  0  0  0  0  2  0  0  0  0  0  0
  189.7240  171.5220  138.9270 C   0  0  0  0  0  3  0  0  0  0  0  0
  186.0270  179.4560  144.1380 O   0  0  0  0  0  0  0  0  0  0  0  0
  184.6340  179.6710  144.3220 C   0  0  0  0  0  1  0  0  0  0  0  0
  187.7850  177.7650  145.6080 C   0  0  1  0  0  3  0  0  0  0  0  0
  186.8000  177.1440  146.6070 C   0  0  0  0  0  3  0  0  0  0  0  0
  185.6300  176.5120  145.8760 C   0  0  0  0  0  1  0  0  0  0  0  0
  186.2890  178.1420  147.6370 C   0  0  0  0  0  1  0  0  0  0  0  0
  189.2490  177.4360  145.9120 C   0  0  0  0  0  2  0  0  0  0  0  0
  189.3270  176.3370  146.8600 N   0  0  0  0  0  2  0  0  0  0  0  0
  190.5410  176.5270  147.6380 C   0  0  0  0  0  2  0  0  0  0  0  0
  192.5940  175.2880  146.8820 C   0  0  0  0  0  3  0  0  0  0  0  0
  191.4200  175.3250  147.5210 C   0  0  0  0  0  3  0  0  0  0  0  0
  193.2360  176.3950  146.1490 C   0  0  0  0  0  0  0  0  0  0  0  0
  194.2090  176.9910  146.6790 O   0  0  0  0  0  0  0  0  0  0  0  0
  192.8030  176.7910  144.8500 N   0  0  0  0  0  1  0  0  0  0  0  0
  1 17  1  0  0  0  0
  1  6  1  0  0  0  0
  2  4  1  0  0  0  0
  3  1  2  0  0  0  0
  4  6  2  0  0  0  0
  5  3  1  0  0  0  0
  5  2  2  0  0  0  0
  6 19  1  0  0  0  0
  7  8  1  0  0  0  0
  8  9  2  0  0  0  0
 10  7  1  0  0  0  0
 11 10  1  0  0  0  0
 11 13  1  0  0  0  0
 12  2  1  0  0  0  0
 12  9  1  0  0  0  0
 13 12  2  0  0  0  0
 14 11  2  0  0  0  0
 16 15  2  0  0  0  0
 16 10  1  0  0  0  0
 17 18  1  0  0  0  0
 19 23  1  1  0  0  0
 19 20  1  0  0  0  0
 20 22  1  0  0  0  0
 21 20  1  0  0  0  0
 23 24  1  0  0  0  0
 24 25  1  0  0  0  0
 26 27  2  0  0  0  0
 27 25  1  0  0  0  0
 28 29  2  0  0  0  0
 28 26  1  0  0  0  0
 30 28  1  0  0  0  0
M  END
>  <MODEL>
9

>  <REMARK>
 VINA RESULT:      -6.1      2.598      5.727
  Name = 
  10 active torsions:
  status: ('A' for Active; 'I' for Inactive)
    1  A    between atoms: N_4  and  C_12
    2  A    between atoms: N_4  and  C_21
    3  A    between atoms: C_5  and  C_28
    4  A    between atoms: C_6  and  C_18
    5  A    between atoms: O_7  and  C_8
    6  A    between atoms: C_9  and  C_16
    7  A    between atoms: C_12  and  C_28
    8  A    between atoms: N_13  and  C_17
    9  A    between atoms: C_21  and  C_24
   10  A    between atoms: C_28  and  C_30
                            x       y       z     vdW  Elec       q    Type
                         _______ _______ _______ _____ _____    ______ ____

>  <TORSDO>
F 10

$$$$
