=
 OpenBabel11042415443D

 59 66  0  0  1  0  0  0  0  0999 V2000
  194.6700  175.4180  144.0220 C   0  0  1  0  0  3  0  0  0  0  0  0
  193.2760  175.3940  144.6450 C   0  0  0  0  0  2  0  0  0  0  0  0
  187.5950  176.3030  144.0310 O   0  0  0  0  0  0  0  0  0  0  0  0
  188.7000  176.7260  143.2410 C   0  0  0  0  0  2  0  0  0  0  0  0
  194.9630  175.6800  142.5730 C   0  0  1  0  0  3  0  0  0  0  0  0
  189.9490  175.9580  143.5060 C   0  0  0  0  0  0  0  0  0  0  0  0
  194.9920  172.6030  137.3030 C   0  0  2  0  0  3  0  0  0  0  0  0
  197.7350  176.0200  143.0740 C   0  0  0  0  0  2  0  0  0  0  0  0
  195.4140  174.3400  141.8930 C   0  0  1  0  0  3  0  0  0  0  0  0
  188.8750  175.8810  146.7460 C   0  0  0  0  0  2  0  0  0  0  0  0
  197.0070  174.5770  139.6710 N   0  0  0  0  0  2  0  0  0  0  0  0
  192.7720  174.8050  141.5980 C   0  0  0  0  0  0  0  0  0  0  0  0
  195.2220  172.6460  139.0990 S   0  0  0  0  0  0  0  0  0  0  0  0
  187.5890  176.8070  146.5710 C   0  0  1  0  0  3  0  0  0  0  0  0
  195.7890  175.3750  144.7570 C   0  0  0  0  0  2  0  0  0  0  0  0
  193.0310  176.2550  146.2900 S   0  0  0  0  0  0  0  0  0  0  0  0
  187.2630  177.1670  145.1060 C   0  0  0  0  0  0  0  0  0  0  0  0
  197.7940  175.2520  141.7840 N   0  0  0  0  0  0  0  0  0  0  0  0
  190.1990  175.4610  144.6970 N   0  0  0  0  0  0  0  0  0  0  0  0
  190.4990  175.3500  142.3750 N   0  0  0  0  0  2  0  0  0  0  0  0
  187.1060  178.3720  144.8230 O   0  0  0  0  0  0  0  0  0  0  0  0
  192.4230  173.8080  140.8050 C   0  0  0  0  0  2  0  0  0  0  0  0
  191.3280  175.7360  146.7600 C   0  0  0  0  0  2  0  0  0  0  0  0
  190.1430  176.2040  145.9510 C   0  0  2  0  0  3  0  0  0  0  0  0
  194.2480  175.1770  141.3500 C   0  0  1  0  0  3  0  0  0  0  0  0
  196.8190  174.7410  141.1340 C   0  0  0  0  0  0  0  0  0  0  0  0
  197.0860  173.6250  137.5380 N   0  0  0  0  0  0  0  0  0  0  0  0
  196.3000  172.8710  136.5660 C   0  0  0  0  0  2  0  0  0  0  0  0
  191.7870  175.8390  142.0090 C   0  0  0  0  0  2  0  0  0  0  0  0
  196.5880  173.6270  138.7620 C   0  0  0  0  0  0  0  0  0  0  0  0
  197.1540  175.2470  144.3000 C   0  0  0  0  0  2  0  0  0  0  0  0
  193.3630  171.0510  135.8370 C   0  0  0  0  0  2  0  0  0  0  0  0
  192.5160  172.9340  137.3460 N   0  0  0  0  0  0  0  0  0  0  0  0
  191.3910  172.6430  135.1930 C   0  0  0  0  0  2  0  0  0  0  0  0
  191.5120  173.1770  136.6130 C   0  0  0  0  0  0  0  0  0  0  0  0
  191.9290  171.1430  135.1340 C   0  0  0  0  0  2  0  0  0  0  0  0
  193.6180  172.4360  136.5910 C   0  0  1  0  0  3  0  0  0  0  0  0
  190.6280  174.0760  137.1460 O   0  0  0  0  0  0  0  0  0  0  0  0
  189.3480  173.7560  137.5810 C   0  0  0  0  0  2  0  0  0  0  0  0
  189.4600  173.9440  139.0710 C   0  0  0  0  0  2  0  0  0  0  0  0
  188.4990  173.1260  139.8780 C   0  0  1  0  0  3  0  0  0  0  0  0
  187.8460  172.2700  138.9790 O   0  0  0  0  0  1  0  0  0  0  0  0
  191.5630  169.4130  139.5280 O   0  0  0  0  0  0  0  0  0  0  0  0
  188.5820  172.4550  142.2520 O   0  0  0  0  0  0  0  0  0  0  0  0
  191.8550  171.1040  142.6210 N   0  0  0  0  0  0  0  0  0  0  0  0
  191.7010  171.6940  143.9810 C   0  0  0  0  0  0  0  0  0  0  0  0
  190.8100  170.4490  141.7420 C   0  0  1  0  0  3  0  0  0  0  0  0
  190.0910  171.4250  140.8550 N   0  0  0  0  0  0  0  0  0  0  0  0
  193.7240  168.1660  141.3590 O   0  0  0  0  0  1  0  0  0  0  0  0
  189.1080  172.3940  141.0900 C   0  0  0  0  0  0  0  0  0  0  0  0
  189.8330  170.7970  139.5280 C   0  0  0  0  0  2  0  0  0  0  0  0
  191.0190  170.4600  138.9840 O   0  0  0  0  0  0  0  0  0  0  0  0
  191.7770  169.5410  140.9030 C   0  0  2  0  0  3  0  0  0  0  0  0
  193.2960  169.5410  141.2360 C   0  0  1  0  0  3  0  0  0  0  0  0
  190.6110  171.8570  144.5180 O   0  0  0  0  0  0  0  0  0  0  0  0
  192.9420  172.0890  144.6800 C   0  0  0  0  0  1  0  0  0  0  0  0
  192.9880  170.1180  142.6610 C   0  0  0  0  0  2  0  0  0  0  0  0
  186.1770  178.1530  147.9930 C   0  0  0  0  0  1  0  0  0  0  0  0
  186.3030  176.7770  147.3950 C   0  0  0  0  0  2  0  0  0  0  0  0
  1  2  1  1  0  0  0
  1 15  1  0  0  0  0
  2 16  1  0  0  0  0
  3 17  1  0  0  0  0
  4  6  1  0  0  0  0
  4  3  1  0  0  0  0
  5  1  1  0  0  0  0
  6 19  2  0  0  0  0
  7 13  1  0  0  0  0
  8 31  1  0  0  0  0
  9  5  1  0  0  0  0
 11 26  1  0  0  0  0
 12 29  1  0  0  0  0
 14 10  1  0  0  0  0
 14 59  1  0  0  0  0
 16 23  1  0  0  0  0
 17 14  1  0  0  0  0
 18  8  1  0  0  0  0
 19 24  1  0  0  0  0
 20  6  1  0  0  0  0
 21 17  2  0  0  0  0
 22 12  2  0  0  0  0
 24 10  1  0  0  0  0
 24 23  1  0  0  0  0
 25 12  1  0  0  0  0
 25  9  1  0  0  0  0
 25  5  1  0  0  0  0
 26 18  2  0  0  0  0
 26  9  1  0  0  0  0
 27 30  2  0  0  0  0
 28  7  1  0  0  0  0
 28 27  1  0  0  0  0
 29 20  1  0  0  0  0
 30 13  1  0  0  0  0
 30 11  1  0  0  0  0
 31 15  1  0  0  0  0
 32 37  1  0  0  0  0
 34 35  1  0  0  0  0
 35 38  1  0  0  0  0
 35 33  2  0  0  0  0
 36 34  1  0  0  0  0
 36 32  1  0  0  0  0
 37  7  1  0  0  0  0
 37 33  1  0  0  0  0
 38 39  1  0  0  0  0
 39 40  1  0  0  0  0
 40 41  1  0  0  0  0
 41 50  1  0  0  0  0
 42 41  1  0  0  0  0
 43 53  1  0  0  0  0
 45 57  1  0  0  0  0
 45 46  1  0  0  0  0
 46 55  2  0  0  0  0
 46 56  1  0  0  0  0
 47 45  1  0  0  0  0
 48 50  1  0  0  0  0
 48 47  1  0  0  0  0
 50 44  2  0  0  0  0
 51 48  1  0  0  0  0
 52 51  1  0  0  0  0
 52 43  1  0  0  0  0
 53 54  1  0  0  0  0
 53 47  1  0  0  0  0
 54 49  1  0  0  0  0
 54 57  1  0  0  0  0
 59 58  1  0  0  0  0
M  END
>  <MODEL>
1

>  <REMARK>
 VINA RESULT:      -8.1      0.000      0.000
  Name = 
  7 active torsions:
  status: ('A' for Active; 'I' for Inactive)
    1  A    between atoms: C_11  and  C_28
    2  A    between atoms: C_11  and  C_33
    3  A    between atoms: C_12  and  C_57
    4  A    between atoms: C_21  and  O_26
    5  A    between atoms: O_26  and  C_32
    6  A    between atoms: C_28  and  C_32
    7  A    between atoms: C_30  and  C_44
                            x       y       z     vdW  Elec       q    Type
                         _______ _______ _______ _____ _____    ______ ____

>  <TORSDO>
F 7

$$$$
=
 OpenBabel11042415443D

 59 66  0  0  1  0  0  0  0  0999 V2000
  192.5420  175.4010  145.2000 C   0  0  1  0  0  3  0  0  0  0  0  0
  191.0610  175.7630  145.2830 C   0  0  0  0  0  2  0  0  0  0  0  0
  186.0340  176.5890  142.5410 O   0  0  0  0  0  0  0  0  0  0  0  0
  187.3650  176.5100  142.0470 C   0  0  0  0  0  2  0  0  0  0  0  0
  193.2410  174.9090  143.9650 C   0  0  1  0  0  3  0  0  0  0  0  0
  188.3220  175.8960  143.0110 C   0  0  0  0  0  0  0  0  0  0  0  0
  193.9810  169.6660  140.9310 C   0  0  2  0  0  3  0  0  0  0  0  0
  195.8030  175.2880  145.1250 C   0  0  0  0  0  2  0  0  0  0  0  0
  193.5670  173.3840  144.1360 C   0  0  1  0  0  3  0  0  0  0  0  0
  186.4660  177.4630  145.4110 C   0  0  0  0  0  2  0  0  0  0  0  0
  195.6860  172.4200  142.6840 N   0  0  0  0  0  2  0  0  0  0  0  0
  191.2390  173.8000  142.8340 C   0  0  0  0  0  0  0  0  0  0  0  0
  193.7500  170.5620  142.4890 S   0  0  0  0  0  0  0  0  0  0  0  0
  185.4840  178.2610  144.4400 C   0  0  1  0  0  3  0  0  0  0  0  0
  193.4040  175.6550  146.1930 C   0  0  0  0  0  2  0  0  0  0  0  0
  190.5870  177.3260  146.1990 S   0  0  0  0  0  0  0  0  0  0  0  0
  185.6230  177.8840  142.9510 C   0  0  0  0  0  0  0  0  0  0  0  0
  196.0310  173.9890  144.4040 N   0  0  0  0  0  0  0  0  0  0  0  0
  188.1530  176.0260  144.3080 N   0  0  0  0  0  0  0  0  0  0  0  0
  189.0050  174.7850  142.5110 N   0  0  0  0  0  2  0  0  0  0  0  0
  185.7920  178.8070  142.1290 O   0  0  0  0  0  0  0  0  0  0  0  0
  190.9080  172.5660  142.5010 C   0  0  0  0  0  2  0  0  0  0  0  0
  188.7510  177.2000  146.2750 C   0  0  0  0  0  2  0  0  0  0  0  0
  187.9330  177.2860  145.0100 C   0  0  2  0  0  3  0  0  0  0  0  0
  192.7730  173.9190  142.9360 C   0  0  1  0  0  3  0  0  0  0  0  0
  195.1700  173.2840  143.7740 C   0  0  0  0  0  0  0  0  0  0  0  0
  196.1100  170.5500  141.3470 N   0  0  0  0  0  0  0  0  0  0  0  0
  195.4600  169.4670  140.6160 C   0  0  0  0  0  2  0  0  0  0  0  0
  190.4160  174.9590  142.4020 C   0  0  0  0  0  2  0  0  0  0  0  0
  195.3280  171.1750  142.2100 C   0  0  0  0  0  0  0  0  0  0  0  0
  194.7840  175.2420  146.3060 C   0  0  0  0  0  2  0  0  0  0  0  0
  191.4620  168.7800  140.6460 C   0  0  0  0  0  2  0  0  0  0  0  0
  192.6870  170.1170  138.8420 N   0  0  0  0  0  0  0  0  0  0  0  0
  191.2600  168.2780  138.0880 C   0  0  0  0  0  2  0  0  0  0  0  0
  192.0660  169.5540  137.8920 C   0  0  0  0  0  0  0  0  0  0  0  0
  190.4680  168.3480  139.4700 C   0  0  0  0  0  2  0  0  0  0  0  0
  192.8290  169.2560  139.9680 C   0  0  1  0  0  3  0  0  0  0  0  0
  192.3050  170.1000  136.6590 O   0  0  0  0  0  0  0  0  0  0  0  0
  191.3520  170.2280  135.6580 C   0  0  0  0  0  2  0  0  0  0  0  0
  190.4570  171.3080  136.2020 C   0  0  0  0  0  2  0  0  0  0  0  0
  190.4750  172.5880  135.4230 C   0  0  1  0  0  3  0  0  0  0  0  0
  189.3400  173.3120  135.8140 O   0  0  0  0  0  1  0  0  0  0  0  0
  192.4030  174.1460  139.5650 O   0  0  0  0  0  0  0  0  0  0  0  0
  192.2540  174.0360  134.5130 O   0  0  0  0  0  0  0  0  0  0  0  0
  194.8090  173.8720  136.9870 N   0  0  0  0  0  0  0  0  0  0  0  0
  195.6740  173.9970  135.7790 C   0  0  0  0  0  0  0  0  0  0  0  0
  193.4620  174.5050  137.2650 C   0  0  1  0  0  3  0  0  0  0  0  0
  192.3090  173.6700  136.7820 N   0  0  0  0  0  0  0  0  0  0  0  0
  195.2400  174.9540  140.5030 O   0  0  0  0  0  1  0  0  0  0  0  0
  191.7830  173.3990  135.5140 C   0  0  0  0  0  0  0  0  0  0  0  0
  191.1830  173.7650  137.7550 C   0  0  0  0  0  2  0  0  0  0  0  0
  191.6180  173.3150  138.9480 O   0  0  0  0  0  0  0  0  0  0  0  0
  193.5410  174.4950  138.8320 C   0  0  2  0  0  3  0  0  0  0  0  0
  194.8330  173.9730  139.5220 C   0  0  1  0  0  3  0  0  0  0  0  0
  195.3030  174.5460  134.7480 O   0  0  0  0  0  0  0  0  0  0  0  0
  197.0310  173.4200  135.8700 C   0  0  0  0  0  1  0  0  0  0  0  0
  195.6390  174.2010  138.1960 C   0  0  0  0  0  2  0  0  0  0  0  0
  183.9100  178.6510  146.2270 C   0  0  0  0  0  1  0  0  0  0  0  0
  184.0530  178.7090  144.7300 C   0  0  0  0  0  2  0  0  0  0  0  0
  1  2  1  6  0  0  0
  1 15  1  0  0  0  0
  2 16  1  0  0  0  0
  3 17  1  0  0  0  0
  4  3  1  0  0  0  0
  4  6  1  0  0  0  0
  5  9  1  0  0  0  0
  5  1  1  0  0  0  0
  6 19  2  0  0  0  0
  7 13  1  0  0  0  0
  8 31  1  0  0  0  0
 11 26  1  0  0  0  0
 12 25  1  0  0  0  0
 14 59  1  0  0  0  0
 14 10  1  0  0  0  0
 15 31  1  0  0  0  0
 16 23  1  0  0  0  0
 17 14  1  0  0  0  0
 18  8  1  0  0  0  0
 19 24  1  0  0  0  0
 20  6  1  0  0  0  0
 21 17  2  0  0  0  0
 22 12  2  0  0  0  0
 24 10  1  0  0  0  0
 24 23  1  0  0  0  0
 25  5  1  0  0  0  0
 25  9  1  0  0  0  0
 26  9  1  0  0  0  0
 26 18  2  0  0  0  0
 27 30  2  0  0  0  0
 28  7  1  0  0  0  0
 28 27  1  0  0  0  0
 29 20  1  0  0  0  0
 29 12  1  0  0  0  0
 30 13  1  0  0  0  0
 30 11  1  0  0  0  0
 33 37  1  0  0  0  0
 34 36  1  0  0  0  0
 35 34  1  0  0  0  0
 35 33  2  0  0  0  0
 36 32  1  0  0  0  0
 37 32  1  0  0  0  0
 37  7  1  0  0  0  0
 38 35  1  0  0  0  0
 39 40  1  0  0  0  0
 39 38  1  0  0  0  0
 41 50  1  0  0  0  0
 41 42  1  0  0  0  0
 41 40  1  0  0  0  0
 44 50  2  0  0  0  0
 45 47  1  0  0  0  0
 45 57  1  0  0  0  0
 46 56  1  0  0  0  0
 46 45  1  0  0  0  0
 47 53  1  0  0  0  0
 48 47  1  0  0  0  0
 48 51  1  0  0  0  0
 50 48  1  0  0  0  0
 51 52  1  0  0  0  0
 52 43  1  0  0  0  0
 53 54  1  0  0  0  0
 53 43  1  0  0  0  0
 54 49  1  0  0  0  0
 55 46  2  0  0  0  0
 57 54  1  0  0  0  0
 59 58  1  0  0  0  0
M  END
>  <MODEL>
2

>  <REMARK>
 VINA RESULT:      -7.9      2.462      4.685
  Name = 
  7 active torsions:
  status: ('A' for Active; 'I' for Inactive)
    1  A    between atoms: C_11  and  C_28
    2  A    between atoms: C_11  and  C_33
    3  A    between atoms: C_12  and  C_57
    4  A    between atoms: C_21  and  O_26
    5  A    between atoms: O_26  and  C_32
    6  A    between atoms: C_28  and  C_32
    7  A    between atoms: C_30  and  C_44
                            x       y       z     vdW  Elec       q    Type
                         _______ _______ _______ _____ _____    ______ ____

>  <TORSDO>
F 7

$$$$
=
 OpenBabel11042415443D

 59 66  0  0  1  0  0  0  0  0999 V2000
  189.5080  176.6820  146.1310 C   0  0  1  0  0  3  0  0  0  0  0  0
  190.9010  176.0800  145.9640 C   0  0  0  0  0  2  0  0  0  0  0  0
  194.2720  172.0850  143.4830 O   0  0  0  0  0  0  0  0  0  0  0  0
  192.8570  172.1690  143.6050 C   0  0  0  0  0  2  0  0  0  0  0  0
  188.3000  176.2960  145.3270 C   0  0  1  0  0  3  0  0  0  0  0  0
  192.3700  173.5340  143.9540 C   0  0  0  0  0  0  0  0  0  0  0  0
  185.8610  177.5550  139.8760 C   0  0  2  0  0  3  0  0  0  0  0  0
  186.5460  177.6640  147.0890 C   0  0  0  0  0  2  0  0  0  0  0  0
  187.9520  177.4610  144.3350 C   0  0  1  0  0  3  0  0  0  0  0  0
  195.2150  173.7580  145.8280 C   0  0  0  0  0  2  0  0  0  0  0  0
  185.3380  177.6300  143.5210 N   0  0  0  0  0  2  0  0  0  0  0  0
  189.5020  175.5670  143.1960 C   0  0  0  0  0  0  0  0  0  0  0  0
  186.8260  178.0650  141.3220 S   0  0  0  0  0  0  0  0  0  0  0  0
  195.7380  172.2680  145.6100 C   0  0  1  0  0  3  0  0  0  0  0  0
  189.1920  177.5030  147.1420 C   0  0  0  0  0  2  0  0  0  0  0  0
  191.8600  175.6370  147.5110 S   0  0  0  0  0  0  0  0  0  0  0  0
  194.9300  171.4590  144.5740 C   0  0  0  0  0  0  0  0  0  0  0  0
  185.9160  178.0120  145.7700 N   0  0  0  0  0  0  0  0  0  0  0  0
  193.1000  174.3470  144.6850 N   0  0  0  0  0  0  0  0  0  0  0  0
  191.4450  174.0610  143.0490 N   0  0  0  0  0  2  0  0  0  0  0  0
  194.4970  170.3400  144.9160 O   0  0  0  0  0  0  0  0  0  0  0  0
  189.5470  175.9910  141.9460 C   0  0  0  0  0  2  0  0  0  0  0  0
  193.5260  175.2270  146.8410 C   0  0  0  0  0  2  0  0  0  0  0  0
  193.7120  174.0110  145.9660 C   0  0  2  0  0  3  0  0  0  0  0  0
  188.1830  176.0220  143.8540 C   0  0  1  0  0  3  0  0  0  0  0  0
  186.3510  177.7350  144.6000 C   0  0  0  0  0  0  0  0  0  0  0  0
  184.2130  177.9410  141.4960 N   0  0  0  0  0  0  0  0  0  0  0  0
  184.3830  177.8880  140.0470 C   0  0  0  0  0  2  0  0  0  0  0  0
  190.1490  174.2910  143.5980 C   0  0  0  0  0  2  0  0  0  0  0  0
  185.3440  177.9500  142.1790 C   0  0  0  0  0  0  0  0  0  0  0  0
  187.9720  178.2490  147.3380 C   0  0  0  0  0  2  0  0  0  0  0  0
  186.7100  177.6040  137.3290 C   0  0  0  0  0  2  0  0  0  0  0  0
  187.4480  175.8280  139.0150 N   0  0  0  0  0  0  0  0  0  0  0  0
  187.0250  175.0800  136.7240 C   0  0  0  0  0  2  0  0  0  0  0  0
  187.5910  174.9340  138.1290 C   0  0  0  0  0  0  0  0  0  0  0  0
  187.2260  176.5780  136.2160 C   0  0  0  0  0  2  0  0  0  0  0  0
  186.4360  176.7680  138.6630 C   0  0  1  0  0  3  0  0  0  0  0  0
  188.1580  173.7740  138.5850 O   0  0  0  0  0  0  0  0  0  0  0  0
  188.9630  172.9400  137.8200 C   0  0  0  0  0  2  0  0  0  0  0  0
  190.0900  173.8560  137.4240 C   0  0  0  0  0  2  0  0  0  0  0  0
  191.4600  173.3100  137.6850 C   0  0  1  0  0  3  0  0  0  0  0  0
  191.5930  172.1610  136.8930 O   0  0  0  0  0  1  0  0  0  0  0  0
  194.7870  174.2150  141.0630 O   0  0  0  0  0  0  0  0  0  0  0  0
  192.5810  175.2410  136.6320 O   0  0  0  0  0  0  0  0  0  0  0  0
  195.9310  175.0040  137.8110 N   0  0  0  0  0  0  0  0  0  0  0  0
  196.2090  175.5660  136.4580 C   0  0  0  0  0  0  0  0  0  0  0  0
  194.7710  175.2870  138.7410 C   0  0  1  0  0  3  0  0  0  0  0  0
  193.5950  174.3820  138.5080 N   0  0  0  0  0  0  0  0  0  0  0  0
  197.6810  175.3120  141.0610 O   0  0  0  0  0  1  0  0  0  0  0  0
  192.6170  174.3140  137.5080 C   0  0  0  0  0  0  0  0  0  0  0  0
  192.9660  174.0340  139.8140 C   0  0  0  0  0  2  0  0  0  0  0  0
  193.8890  173.4130  140.5740 O   0  0  0  0  0  0  0  0  0  0  0  0
  195.4880  174.9330  140.0910 C   0  0  2  0  0  3  0  0  0  0  0  0
  196.9890  174.5240  140.0670 C   0  0  1  0  0  3  0  0  0  0  0  0
  195.4020  176.2550  135.8450 O   0  0  0  0  0  0  0  0  0  0  0  0
  197.5250  175.2530  135.8650 C   0  0  0  0  0  1  0  0  0  0  0  0
  197.1550  175.1990  138.6610 C   0  0  0  0  0  2  0  0  0  0  0  0
  197.8580  172.4520  144.4720 C   0  0  0  0  0  1  0  0  0  0  0  0
  197.1840  171.7770  145.6360 C   0  0  0  0  0  2  0  0  0  0  0  0
  1  2  1  1  0  0  0
  1 15  1  0  0  0  0
  2 16  1  0  0  0  0
  3  4  1  0  0  0  0
  3 17  1  0  0  0  0
  4  6  1  0  0  0  0
  5  1  1  0  0  0  0
  6 19  2  0  0  0  0
  7 28  1  0  0  0  0
  7 13  1  0  0  0  0
  8 31  1  0  0  0  0
  9 26  1  0  0  0  0
  9  5  1  0  0  0  0
 10 24  1  0  0  0  0
 11 26  1  0  0  0  0
 12 29  1  0  0  0  0
 12 25  1  0  0  0  0
 13 30  1  0  0  0  0
 14 59  1  0  0  0  0
 14 10  1  0  0  0  0
 15 31  1  0  0  0  0
 17 21  2  0  0  0  0
 17 14  1  0  0  0  0
 18  8  1  0  0  0  0
 19 24  1  0  0  0  0
 20 29  1  0  0  0  0
 20  6  1  0  0  0  0
 22 12  2  0  0  0  0
 23 16  1  0  0  0  0
 24 23  1  0  0  0  0
 25  9  1  0  0  0  0
 25  5  1  0  0  0  0
 26 18  2  0  0  0  0
 27 30  2  0  0  0  0
 28 27  1  0  0  0  0
 30 11  1  0  0  0  0
 32 37  1  0  0  0  0
 34 35  1  0  0  0  0
 35 38  1  0  0  0  0
 35 33  2  0  0  0  0
 36 34  1  0  0  0  0
 36 32  1  0  0  0  0
 37 33  1  0  0  0  0
 37  7  1  0  0  0  0
 39 38  1  0  0  0  0
 40 41  1  0  0  0  0
 40 39  1  0  0  0  0
 42 41  1  0  0  0  0
 44 50  2  0  0  0  0
 45 57  1  0  0  0  0
 45 47  1  0  0  0  0
 46 45  1  0  0  0  0
 47 53  1  0  0  0  0
 48 47  1  0  0  0  0
 48 51  1  0  0  0  0
 50 41  1  0  0  0  0
 50 48  1  0  0  0  0
 51 52  1  0  0  0  0
 52 43  1  0  0  0  0
 53 43  1  0  0  0  0
 54 53  1  0  0  0  0
 54 49  1  0  0  0  0
 55 46  2  0  0  0  0
 56 46  1  0  0  0  0
 57 54  1  0  0  0  0
 58 59  1  0  0  0  0
M  END
>  <MODEL>
3

>  <REMARK>
 VINA RESULT:      -7.5      3.300      7.963
  Name = 
  7 active torsions:
  status: ('A' for Active; 'I' for Inactive)
    1  A    between atoms: C_11  and  C_28
    2  A    between atoms: C_11  and  C_33
    3  A    between atoms: C_12  and  C_57
    4  A    between atoms: C_21  and  O_26
    5  A    between atoms: O_26  and  C_32
    6  A    between atoms: C_28  and  C_32
    7  A    between atoms: C_30  and  C_44
                            x       y       z     vdW  Elec       q    Type
                         _______ _______ _______ _____ _____    ______ ____

>  <TORSDO>
F 7

$$$$
=
 OpenBabel11042415443D

 59 66  0  0  1  0  0  0  0  0999 V2000
  191.9080  170.2570  139.0330 C   0  0  1  0  0  3  0  0  0  0  0  0
  192.2850  169.8630  140.4580 C   0  0  0  0  0  2  0  0  0  0  0  0
  193.8930  171.5220  145.7630 O   0  0  0  0  0  0  0  0  0  0  0  0
  193.8930  172.2220  144.5250 C   0  0  0  0  0  2  0  0  0  0  0  0
  191.7020  171.6660  138.5540 C   0  0  1  0  0  3  0  0  0  0  0  0
  193.0390  171.5870  143.4820 C   0  0  0  0  0  0  0  0  0  0  0  0
  187.3090  175.9020  138.6120 C   0  0  2  0  0  3  0  0  0  0  0  0
  191.7160  170.8650  135.8310 C   0  0  0  0  0  2  0  0  0  0  0  0
  190.1710  171.9040  138.3100 C   0  0  1  0  0  3  0  0  0  0  0  0
  194.0480  168.6320  144.8630 C   0  0  0  0  0  2  0  0  0  0  0  0
  189.5140  173.8510  136.4910 N   0  0  0  0  0  2  0  0  0  0  0  0
  190.9560  172.6950  140.7680 C   0  0  0  0  0  0  0  0  0  0  0  0
  187.8160  174.1630  138.5550 S   0  0  0  0  0  0  0  0  0  0  0  0
  195.0830  169.2270  145.9200 C   0  0  1  0  0  3  0  0  0  0  0  0
  191.8930  169.3800  138.0210 C   0  0  0  0  0  2  0  0  0  0  0  0
  193.6010  168.5500  140.6900 S   0  0  0  0  0  0  0  0  0  0  0  0
  195.0660  170.7660  146.0230 C   0  0  0  0  0  0  0  0  0  0  0  0
  190.6180  171.8910  135.7970 N   0  0  0  0  0  0  0  0  0  0  0  0
  192.8620  170.2850  143.4530 N   0  0  0  0  0  0  0  0  0  0  0  0
  192.0570  172.4290  142.9550 N   0  0  0  0  0  2  0  0  0  0  0  0
  196.1520  171.3700  145.9130 O   0  0  0  0  0  0  0  0  0  0  0  0
  189.8470  173.2470  141.2250 C   0  0  0  0  0  2  0  0  0  0  0  0
  193.5170  168.2190  142.5000 C   0  0  0  0  0  2  0  0  0  0  0  0
  193.9250  169.2870  143.4850 C   0  0  2  0  0  3  0  0  0  0  0  0
  190.9990  172.8090  139.2300 C   0  0  1  0  0  3  0  0  0  0  0  0
  190.1100  172.5240  136.7860 C   0  0  0  0  0  0  0  0  0  0  0  0
  188.0030  175.6310  136.3910 N   0  0  0  0  0  0  0  0  0  0  0  0
  187.1450  176.4810  137.2110 C   0  0  0  0  0  2  0  0  0  0  0  0
  192.2090  172.7140  141.5660 C   0  0  0  0  0  2  0  0  0  0  0  0
  188.4290  174.5360  136.9960 C   0  0  0  0  0  0  0  0  0  0  0  0
  191.4220  169.5820  136.6700 C   0  0  0  0  0  2  0  0  0  0  0  0
  185.7900  177.5060  140.1380 C   0  0  0  0  0  2  0  0  0  0  0  0
  187.7110  176.0990  141.0700 N   0  0  0  0  0  0  0  0  0  0  0  0
  187.4310  178.3480  141.9900 C   0  0  0  0  0  2  0  0  0  0  0  0
  187.9750  176.9270  141.9910 C   0  0  0  0  0  0  0  0  0  0  0  0
  185.9160  178.3450  141.4940 C   0  0  0  0  0  2  0  0  0  0  0  0
  187.1740  176.7410  139.9160 C   0  0  1  0  0  3  0  0  0  0  0  0
  188.9040  176.4870  142.8960 O   0  0  0  0  0  0  0  0  0  0  0  0
  188.6310  175.6160  143.9420 C   0  0  0  0  0  2  0  0  0  0  0  0
  189.9970  175.3810  144.5280 C   0  0  0  0  0  2  0  0  0  0  0  0
  190.7940  176.6250  144.7760 C   0  0  1  0  0  3  0  0  0  0  0  0
  191.0350  176.6790  146.1570 O   0  0  0  0  0  1  0  0  0  0  0  0
  195.1990  175.3260  146.2600 O   0  0  0  0  0  0  0  0  0  0  0  0
  192.1300  177.5780  142.9330 O   0  0  0  0  0  0  0  0  0  0  0  0
  194.9420  175.4040  142.7330 N   0  0  0  0  0  0  0  0  0  0  0  0
  194.8170  175.7420  141.2870 C   0  0  0  0  0  0  0  0  0  0  0  0
  194.6890  176.2790  143.9420 C   0  0  1  0  0  3  0  0  0  0  0  0
  193.2630  176.2320  144.4140 N   0  0  0  0  0  0  0  0  0  0  0  0
  197.8470  174.5390  144.8620 O   0  0  0  0  0  1  0  0  0  0  0  0
  192.0690  176.7750  143.9240 C   0  0  0  0  0  0  0  0  0  0  0  0
  193.2290  176.2750  145.9040 C   0  0  0  0  0  2  0  0  0  0  0  0
  193.9100  175.2100  146.3710 O   0  0  0  0  0  0  0  0  0  0  0  0
  195.6340  175.5330  144.9480 C   0  0  2  0  0  3  0  0  0  0  0  0
  196.4800  174.3300  144.4420 C   0  0  1  0  0  3  0  0  0  0  0  0
  194.3220  176.7900  140.8870 O   0  0  0  0  0  0  0  0  0  0  0  0
  195.3210  174.7410  140.3230 C   0  0  0  0  0  1  0  0  0  0  0  0
  196.3110  174.8260  142.9640 C   0  0  0  0  0  2  0  0  0  0  0  0
  196.9870  168.4550  147.1850 C   0  0  0  0  0  1  0  0  0  0  0  0
  195.4930  168.6220  147.2610 C   0  0  0  0  0  2  0  0  0  0  0  0
  1 15  1  6  0  0  0
  1  2  1  0  0  0  0
  2 16  1  0  0  0  0
  3 17  1  0  0  0  0
  4  3  1  0  0  0  0
  5  1  1  0  0  0  0
  5 25  1  0  0  0  0
  6  4  1  0  0  0  0
  7 37  1  0  0  0  0
  8 31  1  0  0  0  0
  9  5  1  0  0  0  0
  9 25  1  0  0  0  0
 10 14  1  0  0  0  0
 11 26  1  0  0  0  0
 11 30  1  0  0  0  0
 12 22  2  0  0  0  0
 12 29  1  0  0  0  0
 13  7  1  0  0  0  0
 14 17  1  0  0  0  0
 14 59  1  0  0  0  0
 16 23  1  0  0  0  0
 18  8  1  0  0  0  0
 18 26  2  0  0  0  0
 19  6  2  0  0  0  0
 19 24  1  0  0  0  0
 20  6  1  0  0  0  0
 21 17  2  0  0  0  0
 23 24  1  0  0  0  0
 24 10  1  0  0  0  0
 25 12  1  0  0  0  0
 26  9  1  0  0  0  0
 27 30  2  0  0  0  0
 27 28  1  0  0  0  0
 28  7  1  0  0  0  0
 29 20  1  0  0  0  0
 30 13  1  0  0  0  0
 31 15  1  0  0  0  0
 32 36  1  0  0  0  0
 33 35  2  0  0  0  0
 34 35  1  0  0  0  0
 35 38  1  0  0  0  0
 36 34  1  0  0  0  0
 37 32  1  0  0  0  0
 37 33  1  0  0  0  0
 38 39  1  0  0  0  0
 39 40  1  0  0  0  0
 40 41  1  0  0  0  0
 41 42  1  0  0  0  0
 43 52  1  0  0  0  0
 44 50  2  0  0  0  0
 45 57  1  0  0  0  0
 45 47  1  0  0  0  0
 46 45  1  0  0  0  0
 47 48  1  0  0  0  0
 47 53  1  0  0  0  0
 48 51  1  0  0  0  0
 50 48  1  0  0  0  0
 50 41  1  0  0  0  0
 51 52  1  0  0  0  0
 53 43  1  0  0  0  0
 54 49  1  0  0  0  0
 54 53  1  0  0  0  0
 55 46  2  0  0  0  0
 56 46  1  0  0  0  0
 57 54  1  0  0  0  0
 58 59  1  0  0  0  0
M  END
>  <MODEL>
4

>  <REMARK>
 VINA RESULT:      -7.4      3.291      8.203
  Name = 
  7 active torsions:
  status: ('A' for Active; 'I' for Inactive)
    1  A    between atoms: C_11  and  C_28
    2  A    between atoms: C_11  and  C_33
    3  A    between atoms: C_12  and  C_57
    4  A    between atoms: C_21  and  O_26
    5  A    between atoms: O_26  and  C_32
    6  A    between atoms: C_28  and  C_32
    7  A    between atoms: C_30  and  C_44
                            x       y       z     vdW  Elec       q    Type
                         _______ _______ _______ _____ _____    ______ ____

>  <TORSDO>
F 7

$$$$
=
 OpenBabel11042415443D

 59 66  0  0  1  0  0  0  0  0999 V2000
  189.0900  177.2200  146.4020 C   0  0  1  0  0  3  0  0  0  0  0  0
  190.5580  176.8170  146.2830 C   0  0  0  0  0  2  0  0  0  0  0  0
  194.5340  173.3530  143.9010 O   0  0  0  0  0  0  0  0  0  0  0  0
  193.1180  173.2410  143.9690 C   0  0  0  0  0  2  0  0  0  0  0  0
  187.9760  176.6820  145.5490 C   0  0  1  0  0  3  0  0  0  0  0  0
  192.4350  174.5210  144.3100 C   0  0  0  0  0  0  0  0  0  0  0  0
  185.5870  177.6640  140.0210 C   0  0  2  0  0  3  0  0  0  0  0  0
  185.9880  177.7740  147.2550 C   0  0  0  0  0  2  0  0  0  0  0  0
  187.5090  177.8010  144.5540 C   0  0  1  0  0  3  0  0  0  0  0  0
  195.1530  175.1100  146.2920 C   0  0  0  0  0  2  0  0  0  0  0  0
  184.9270  177.6200  143.6440 N   0  0  0  0  0  2  0  0  0  0  0  0
  189.3440  176.1520  143.4600 C   0  0  0  0  0  0  0  0  0  0  0  0
  186.4200  178.2830  141.5050 S   0  0  0  0  0  0  0  0  0  0  0  0
  195.8820  173.7080  146.0820 C   0  0  1  0  0  3  0  0  0  0  0  0
  188.6280  177.9760  147.4060 C   0  0  0  0  0  2  0  0  0  0  0  0
  191.5110  176.4900  147.8610 S   0  0  0  0  0  0  0  0  0  0  0  0
  195.2310  172.8100  145.0110 C   0  0  0  0  0  0  0  0  0  0  0  0
  185.3650  178.0490  145.9160 N   0  0  0  0  0  0  0  0  0  0  0  0
  193.0190  175.4170  145.0740 N   0  0  0  0  0  0  0  0  0  0  0  0
  191.4800  174.9280  143.3750 N   0  0  0  0  0  2  0  0  0  0  0  0
  194.9450  171.6380  145.3280 O   0  0  0  0  0  0  0  0  0  0  0  0
  189.3760  176.5930  142.2160 C   0  0  0  0  0  2  0  0  0  0  0  0
  193.2410  176.3200  147.2520 C   0  0  0  0  0  2  0  0  0  0  0  0
  193.6240  175.1530  146.3750 C   0  0  2  0  0  3  0  0  0  0  0  0
  187.9520  176.4140  144.0710 C   0  0  1  0  0  3  0  0  0  0  0  0
  185.8760  177.8490  144.7610 C   0  0  0  0  0  0  0  0  0  0  0  0
  183.8450  177.8000  141.5790 N   0  0  0  0  0  0  0  0  0  0  0  0
  184.0720  177.7880  140.1380 C   0  0  0  0  0  2  0  0  0  0  0  0
  190.1450  174.9720  143.8760 C   0  0  0  0  0  2  0  0  0  0  0  0
  184.9380  177.9550  142.3050 C   0  0  0  0  0  0  0  0  0  0  0  0
  187.3100  178.5460  147.5620 C   0  0  0  0  0  2  0  0  0  0  0  0
  186.6910  177.9130  137.5850 C   0  0  0  0  0  2  0  0  0  0  0  0
  187.3090  176.0420  139.2150 N   0  0  0  0  0  0  0  0  0  0  0  0
  187.1480  175.4460  136.8480 C   0  0  0  0  0  2  0  0  0  0  0  0
  187.5710  175.2160  138.2920 C   0  0  0  0  0  0  0  0  0  0  0  0
  187.3510  176.9810  136.4650 C   0  0  0  0  0  2  0  0  0  0  0  0
  186.3090  176.9790  138.8230 C   0  0  1  0  0  3  0  0  0  0  0  0
  188.1260  174.0420  138.7250 O   0  0  0  0  0  0  0  0  0  0  0  0
  188.8690  173.1820  137.9270 C   0  0  0  0  0  2  0  0  0  0  0  0
  189.3600  172.1650  138.9220 C   0  0  0  0  0  2  0  0  0  0  0  0
  190.4020  172.6710  139.8710 C   0  0  1  0  0  3  0  0  0  0  0  0
  189.8090  172.6990  141.1420 O   0  0  0  0  0  1  0  0  0  0  0  0
  194.7010  174.8470  139.5930 O   0  0  0  0  0  0  0  0  0  0  0  0
  191.8280  170.6890  139.5120 O   0  0  0  0  0  0  0  0  0  0  0  0
  194.9270  171.6100  141.0010 N   0  0  0  0  0  0  0  0  0  0  0  0
  194.9550  170.1530  141.3090 C   0  0  0  0  0  0  0  0  0  0  0  0
  194.3830  172.3160  139.7770 C   0  0  1  0  0  3  0  0  0  0  0  0
  192.9280  172.6700  139.8990 N   0  0  0  0  0  0  0  0  0  0  0  0
  197.6030  174.0890  140.3580 O   0  0  0  0  0  1  0  0  0  0  0  0
  191.7480  171.9200  139.8390 C   0  0  0  0  0  0  0  0  0  0  0  0
  192.6820  173.9960  139.2640 C   0  0  0  0  0  2  0  0  0  0  0  0
  193.4400  174.9130  139.8970 O   0  0  0  0  0  0  0  0  0  0  0  0
  195.2790  173.6020  139.8560 C   0  0  2  0  0  3  0  0  0  0  0  0
  196.3530  173.7090  140.9760 C   0  0  1  0  0  3  0  0  0  0  0  0
  194.3740  169.3160  140.6280 O   0  0  0  0  0  0  0  0  0  0  0  0
  195.7290  169.7380  142.4980 C   0  0  0  0  0  1  0  0  0  0  0  0
  196.3190  172.1530  141.1630 C   0  0  0  0  0  2  0  0  0  0  0  0
  197.9400  173.8420  144.8270 C   0  0  0  0  0  1  0  0  0  0  0  0
  197.3810  173.4200  146.1600 C   0  0  0  0  0  2  0  0  0  0  0  0
  1  2  1  1  0  0  0
  1 15  1  0  0  0  0
  2 16  1  0  0  0  0
  3  4  1  0  0  0  0
  3 17  1  0  0  0  0
  4  6  1  0  0  0  0
  5  1  1  0  0  0  0
  6 19  2  0  0  0  0
  7 28  1  0  0  0  0
  7 13  1  0  0  0  0
  8 31  1  0  0  0  0
  9 26  1  0  0  0  0
  9  5  1  0  0  0  0
 10 24  1  0  0  0  0
 11 26  1  0  0  0  0
 12 29  1  0  0  0  0
 12 25  1  0  0  0  0
 13 30  1  0  0  0  0
 14 59  1  0  0  0  0
 14 10  1  0  0  0  0
 15 31  1  0  0  0  0
 17 21  2  0  0  0  0
 17 14  1  0  0  0  0
 18  8  1  0  0  0  0
 19 24  1  0  0  0  0
 20 29  1  0  0  0  0
 20  6  1  0  0  0  0
 22 12  2  0  0  0  0
 23 16  1  0  0  0  0
 24 23  1  0  0  0  0
 25  9  1  0  0  0  0
 25  5  1  0  0  0  0
 26 18  2  0  0  0  0
 27 30  2  0  0  0  0
 28 27  1  0  0  0  0
 30 11  1  0  0  0  0
 32 37  1  0  0  0  0
 34 35  1  0  0  0  0
 35 38  1  0  0  0  0
 35 33  2  0  0  0  0
 36 34  1  0  0  0  0
 36 32  1  0  0  0  0
 37 33  1  0  0  0  0
 37  7  1  0  0  0  0
 39 38  1  0  0  0  0
 39 40  1  0  0  0  0
 40 41  1  0  0  0  0
 41 42  1  0  0  0  0
 43 53  1  0  0  0  0
 43 52  1  0  0  0  0
 44 50  2  0  0  0  0
 45 57  1  0  0  0  0
 45 46  1  0  0  0  0
 46 56  1  0  0  0  0
 47 53  1  0  0  0  0
 47 48  1  0  0  0  0
 47 45  1  0  0  0  0
 49 54  1  0  0  0  0
 50 41  1  0  0  0  0
 50 48  1  0  0  0  0
 51 52  1  0  0  0  0
 51 48  1  0  0  0  0
 53 54  1  0  0  0  0
 54 57  1  0  0  0  0
 55 46  2  0  0  0  0
 58 59  1  0  0  0  0
M  END
>  <MODEL>
5

>  <REMARK>
 VINA RESULT:      -7.3      3.218      7.550
  Name = 
  7 active torsions:
  status: ('A' for Active; 'I' for Inactive)
    1  A    between atoms: C_11  and  C_28
    2  A    between atoms: C_11  and  C_33
    3  A    between atoms: C_12  and  C_57
    4  A    between atoms: C_21  and  O_26
    5  A    between atoms: O_26  and  C_32
    6  A    between atoms: C_28  and  C_32
    7  A    between atoms: C_30  and  C_44
                            x       y       z     vdW  Elec       q    Type
                         _______ _______ _______ _____ _____    ______ ____

>  <TORSDO>
F 7

$$$$
=
 OpenBabel11042415443D

 59 66  0  0  1  0  0  0  0  0999 V2000
  188.9620  177.2580  146.3410 C   0  0  1  0  0  3  0  0  0  0  0  0
  190.4370  176.8800  146.2480 C   0  0  0  0  0  2  0  0  0  0  0  0
  194.5100  173.4750  143.9460 O   0  0  0  0  0  0  0  0  0  0  0  0
  193.0950  173.3380  143.9930 C   0  0  0  0  0  2  0  0  0  0  0  0
  187.8710  176.6980  145.4740 C   0  0  1  0  0  3  0  0  0  0  0  0
  192.3850  174.6080  144.3160 C   0  0  0  0  0  0  0  0  0  0  0  0
  185.5530  177.6120  139.9040 C   0  0  2  0  0  3  0  0  0  0  0  0
  185.8380  177.7630  147.1430 C   0  0  0  0  0  2  0  0  0  0  0  0
  187.4000  177.8030  144.4660 C   0  0  1  0  0  3  0  0  0  0  0  0
  195.0600  175.2530  146.3380 C   0  0  0  0  0  2  0  0  0  0  0  0
  184.8360  177.5740  143.5160 N   0  0  0  0  0  2  0  0  0  0  0  0
  189.2800  176.1810  143.4100 C   0  0  0  0  0  0  0  0  0  0  0  0
  186.3520  178.2520  141.3980 S   0  0  0  0  0  0  0  0  0  0  0  0
  195.8170  173.8630  146.1470 C   0  0  1  0  0  3  0  0  0  0  0  0
  188.4710  178.0120  147.3340 C   0  0  0  0  0  2  0  0  0  0  0  0
  191.3710  176.5770  147.8430 S   0  0  0  0  0  0  0  0  0  0  0  0
  195.1990  172.9490  145.0690 C   0  0  0  0  0  0  0  0  0  0  0  0
  185.2310  178.0210  145.7930 N   0  0  0  0  0  0  0  0  0  0  0  0
  192.9410  175.5180  145.0850 N   0  0  0  0  0  0  0  0  0  0  0  0
  191.4380  174.9940  143.3650 N   0  0  0  0  0  2  0  0  0  0  0  0
  194.9270  171.7730  145.3880 O   0  0  0  0  0  0  0  0  0  0  0  0
  189.3240  176.6170  142.1640 C   0  0  0  0  0  2  0  0  0  0  0  0
  193.1140  176.4350  147.2610 C   0  0  0  0  0  2  0  0  0  0  0  0
  193.5300  175.2700  146.3970 C   0  0  2  0  0  3  0  0  0  0  0  0
  187.8750  176.4220  143.9970 C   0  0  1  0  0  3  0  0  0  0  0  0
  185.7630  177.8240  144.6470 C   0  0  0  0  0  0  0  0  0  0  0  0
  183.7840  177.7250  141.4340 N   0  0  0  0  0  0  0  0  0  0  0  0
  184.0340  177.7110  139.9970 C   0  0  0  0  0  2  0  0  0  0  0  0
  190.0950  175.0170  143.8440 C   0  0  0  0  0  2  0  0  0  0  0  0
  184.8630  177.9030  142.1760 C   0  0  0  0  0  0  0  0  0  0  0  0
  187.1410  178.5590  147.4670 C   0  0  0  0  0  2  0  0  0  0  0  0
  186.7570  177.8830  137.5180 C   0  0  0  0  0  2  0  0  0  0  0  0
  187.2680  175.9660  139.1320 N   0  0  0  0  0  0  0  0  0  0  0  0
  187.1860  175.4210  136.7490 C   0  0  0  0  0  2  0  0  0  0  0  0
  187.5470  175.1530  138.2030 C   0  0  0  0  0  0  0  0  0  0  0  0
  187.4390  176.9580  136.4060 C   0  0  0  0  0  2  0  0  0  0  0  0
  186.3050  176.9340  138.7220 C   0  0  1  0  0  3  0  0  0  0  0  0
  188.0570  173.9570  138.6330 O   0  0  0  0  0  0  0  0  0  0  0  0
  188.5520  172.9670  137.7950 C   0  0  0  0  0  2  0  0  0  0  0  0
  190.0010  173.3540  137.6620 C   0  0  0  0  0  2  0  0  0  0  0  0
  190.9690  172.2250  137.8380 C   0  0  1  0  0  3  0  0  0  0  0  0
  191.5820  172.0240  136.5930 O   0  0  0  0  0  1  0  0  0  0  0  0
  191.0030  169.4490  141.7870 O   0  0  0  0  0  0  0  0  0  0  0  0
  192.6190  173.4720  139.1860 O   0  0  0  0  0  0  0  0  0  0  0  0
  194.1490  170.9460  141.1750 N   0  0  0  0  0  0  0  0  0  0  0  0
  195.3300  171.8370  140.9970 C   0  0  0  0  0  0  0  0  0  0  0  0
  192.6890  171.3170  141.3320 C   0  0  1  0  0  3  0  0  0  0  0  0
  191.9660  171.4310  140.0190 N   0  0  0  0  0  0  0  0  0  0  0  0
  193.1200  168.6620  143.9040 O   0  0  0  0  0  1  0  0  0  0  0  0
  191.9730  172.3870  138.9970 C   0  0  0  0  0  0  0  0  0  0  0  0
  190.5810  170.8990  140.1650 C   0  0  0  0  0  2  0  0  0  0  0  0
  190.6630  169.6080  140.5430 O   0  0  0  0  0  0  0  0  0  0  0  0
  192.2260  170.0390  142.1150 C   0  0  2  0  0  3  0  0  0  0  0  0
  193.2820  168.9630  142.4990 C   0  0  1  0  0  3  0  0  0  0  0  0
  195.2320  173.0430  140.7990 O   0  0  0  0  0  0  0  0  0  0  0  0
  196.6610  171.2000  141.0670 C   0  0  0  0  0  1  0  0  0  0  0  0
  194.4290  170.0180  142.3230 C   0  0  0  0  0  2  0  0  0  0  0  0
  197.8660  173.8590  144.8710 C   0  0  0  0  0  1  0  0  0  0  0  0
  197.3190  173.6010  146.2490 C   0  0  0  0  0  2  0  0  0  0  0  0
  1  2  1  1  0  0  0
  1 15  1  0  0  0  0
  2 16  1  0  0  0  0
  3  4  1  0  0  0  0
  3 17  1  0  0  0  0
  4  6  1  0  0  0  0
  5  1  1  0  0  0  0
  6 19  2  0  0  0  0
  7 28  1  0  0  0  0
  7 13  1  0  0  0  0
  8 31  1  0  0  0  0
  9 26  1  0  0  0  0
  9  5  1  0  0  0  0
 10 24  1  0  0  0  0
 11 26  1  0  0  0  0
 12 29  1  0  0  0  0
 12 25  1  0  0  0  0
 13 30  1  0  0  0  0
 14 59  1  0  0  0  0
 14 10  1  0  0  0  0
 15 31  1  0  0  0  0
 17 21  2  0  0  0  0
 17 14  1  0  0  0  0
 18  8  1  0  0  0  0
 19 24  1  0  0  0  0
 20 29  1  0  0  0  0
 20  6  1  0  0  0  0
 22 12  2  0  0  0  0
 23 16  1  0  0  0  0
 24 23  1  0  0  0  0
 25  9  1  0  0  0  0
 25  5  1  0  0  0  0
 26 18  2  0  0  0  0
 27 30  2  0  0  0  0
 28 27  1  0  0  0  0
 30 11  1  0  0  0  0
 32 37  1  0  0  0  0
 34 35  1  0  0  0  0
 35 38  1  0  0  0  0
 35 33  2  0  0  0  0
 36 34  1  0  0  0  0
 36 32  1  0  0  0  0
 37 33  1  0  0  0  0
 37  7  1  0  0  0  0
 39 38  1  0  0  0  0
 40 39  1  0  0  0  0
 40 41  1  0  0  0  0
 41 50  1  0  0  0  0
 42 41  1  0  0  0  0
 43 53  1  0  0  0  0
 45 47  1  0  0  0  0
 45 57  1  0  0  0  0
 46 56  1  0  0  0  0
 46 45  1  0  0  0  0
 47 53  1  0  0  0  0
 48 51  1  0  0  0  0
 48 47  1  0  0  0  0
 50 44  2  0  0  0  0
 50 48  1  0  0  0  0
 51 52  1  0  0  0  0
 52 43  1  0  0  0  0
 53 54  1  0  0  0  0
 54 49  1  0  0  0  0
 55 46  2  0  0  0  0
 57 54  1  0  0  0  0
 58 59  1  0  0  0  0
M  END
>  <MODEL>
6

>  <REMARK>
 VINA RESULT:      -7.2      3.101      7.348
  Name = 
  7 active torsions:
  status: ('A' for Active; 'I' for Inactive)
    1  A    between atoms: C_11  and  C_28
    2  A    between atoms: C_11  and  C_33
    3  A    between atoms: C_12  and  C_57
    4  A    between atoms: C_21  and  O_26
    5  A    between atoms: O_26  and  C_32
    6  A    between atoms: C_28  and  C_32
    7  A    between atoms: C_30  and  C_44
                            x       y       z     vdW  Elec       q    Type
                         _______ _______ _______ _____ _____    ______ ____

>  <TORSDO>
F 7

$$$$
=
 OpenBabel11042415443D

 59 66  0  0  1  0  0  0  0  0999 V2000
  192.6610  175.5450  145.5000 C   0  0  1  0  0  3  0  0  0  0  0  0
  191.1670  175.8440  145.5980 C   0  0  0  0  0  2  0  0  0  0  0  0
  186.1130  176.6100  142.8880 O   0  0  0  0  0  0  0  0  0  0  0  0
  187.4470  176.6090  142.3950 C   0  0  0  0  0  2  0  0  0  0  0  0
  193.3800  175.1440  144.2440 C   0  0  1  0  0  3  0  0  0  0  0  0
  188.4260  175.9850  143.3290 C   0  0  0  0  0  0  0  0  0  0  0  0
  194.3280  170.0970  140.9480 C   0  0  2  0  0  3  0  0  0  0  0  0
  195.9240  175.5640  145.4280 C   0  0  0  0  0  2  0  0  0  0  0  0
  193.7650  173.6270  144.3370 C   0  0  1  0  0  3  0  0  0  0  0  0
  186.5080  177.3530  145.8000 C   0  0  0  0  0  2  0  0  0  0  0  0
  195.9220  172.8220  142.8440 N   0  0  0  0  0  2  0  0  0  0  0  0
  191.4240  174.0170  143.0520 C   0  0  0  0  0  0  0  0  0  0  0  0
  194.0600  170.9010  142.5490 S   0  0  0  0  0  0  0  0  0  0  0  0
  185.4960  178.1600  144.8690 C   0  0  1  0  0  3  0  0  0  0  0  0
  193.5120  175.7820  146.5070 C   0  0  0  0  0  2  0  0  0  0  0  0
  190.6310  177.3390  146.5910 S   0  0  0  0  0  0  0  0  0  0  0  0
  185.6510  177.8650  143.3620 C   0  0  0  0  0  0  0  0  0  0  0  0
  196.2040  174.3140  144.6430 N   0  0  0  0  0  0  0  0  0  0  0  0
  188.2510  176.0410  144.6300 N   0  0  0  0  0  0  0  0  0  0  0  0
  189.1520  174.9280  142.7750 N   0  0  0  0  0  2  0  0  0  0  0  0
  185.7840  178.8350  142.5890 O   0  0  0  0  0  0  0  0  0  0  0  0
  191.1420  172.7900  142.6560 C   0  0  0  0  0  2  0  0  0  0  0  0
  188.8010  177.1370  146.6560 C   0  0  0  0  0  2  0  0  0  0  0  0
  187.9820  177.2540  145.3940 C   0  0  2  0  0  3  0  0  0  0  0  0
  192.9520  174.1900  143.1640 C   0  0  1  0  0  3  0  0  0  0  0  0
  195.3710  173.6090  143.9750 C   0  0  0  0  0  0  0  0  0  0  0  0
  196.4200  171.0410  141.4150 N   0  0  0  0  0  0  0  0  0  0  0  0
  195.8130  169.9720  140.6280 C   0  0  0  0  0  2  0  0  0  0  0  0
  190.5560  175.1630  142.6780 C   0  0  0  0  0  2  0  0  0  0  0  0
  195.6130  171.5900  142.3070 C   0  0  0  0  0  0  0  0  0  0  0  0
  194.9070  175.4180  146.6030 C   0  0  0  0  0  2  0  0  0  0  0  0
  191.7470  170.3130  140.2360 C   0  0  0  0  0  2  0  0  0  0  0  0
  193.6000  169.6630  138.5980 N   0  0  0  0  0  0  0  0  0  0  0  0
  191.4580  168.5050  138.3710 C   0  0  0  0  0  2  0  0  0  0  0  0
  192.8320  168.9480  137.8890 C   0  0  0  0  0  0  0  0  0  0  0  0
  190.7470  169.7020  139.1480 C   0  0  0  0  0  2  0  0  0  0  0  0
  193.1930  169.6900  139.9630 C   0  0  1  0  0  3  0  0  0  0  0  0
  193.3980  168.4870  136.7310 O   0  0  0  0  0  0  0  0  0  0  0  0
  192.6870  168.1660  135.5830 C   0  0  0  0  0  2  0  0  0  0  0  0
  193.0780  169.2750  134.6430 C   0  0  0  0  0  2  0  0  0  0  0  0
  192.0680  170.3740  134.5170 C   0  0  1  0  0  3  0  0  0  0  0  0
  190.8150  169.7990  134.7720 O   0  0  0  0  0  1  0  0  0  0  0  0
  188.7140  172.6980  137.0950 O   0  0  0  0  0  0  0  0  0  0  0  0
  193.3730  172.3670  135.1610 O   0  0  0  0  0  0  0  0  0  0  0  0
  191.9840  173.2920  138.3060 N   0  0  0  0  0  0  0  0  0  0  0  0
  193.3950  173.7010  138.5550 C   0  0  0  0  0  0  0  0  0  0  0  0
  191.1830  173.3610  137.0230 C   0  0  1  0  0  3  0  0  0  0  0  0
  191.3230  172.1290  136.1740 N   0  0  0  0  0  0  0  0  0  0  0  0
  188.7420  174.5750  139.5560 O   0  0  0  0  0  1  0  0  0  0  0  0
  192.3490  171.6320  135.3620 C   0  0  0  0  0  0  0  0  0  0  0  0
  190.0140  171.8130  135.5340 C   0  0  0  0  0  2  0  0  0  0  0  0
  189.1070  171.6070  136.5100 O   0  0  0  0  0  0  0  0  0  0  0  0
  189.7540  173.4360  137.6670 C   0  0  2  0  0  3  0  0  0  0  0  0
  189.6230  173.4810  139.2160 C   0  0  1  0  0  3  0  0  0  0  0  0
  194.1630  174.0280  137.6570 O   0  0  0  0  0  0  0  0  0  0  0  0
  193.8510  173.7000  139.9610 C   0  0  0  0  0  1  0  0  0  0  0  0
  191.1120  173.9580  139.3330 C   0  0  0  0  0  2  0  0  0  0  0  0
  184.0300  178.8940  146.6390 C   0  0  0  0  0  1  0  0  0  0  0  0
  184.0480  178.5360  145.1770 C   0  0  0  0  0  2  0  0  0  0  0  0
  1  2  1  6  0  0  0
  1 15  1  0  0  0  0
  2 16  1  0  0  0  0
  3 17  1  0  0  0  0
  4  3  1  0  0  0  0
  4  6  1  0  0  0  0
  5  9  1  0  0  0  0
  5  1  1  0  0  0  0
  6 19  2  0  0  0  0
  7 13  1  0  0  0  0
  8 31  1  0  0  0  0
 11 26  1  0  0  0  0
 12 25  1  0  0  0  0
 14 59  1  0  0  0  0
 14 10  1  0  0  0  0
 15 31  1  0  0  0  0
 16 23  1  0  0  0  0
 17 14  1  0  0  0  0
 18  8  1  0  0  0  0
 19 24  1  0  0  0  0
 20  6  1  0  0  0  0
 21 17  2  0  0  0  0
 22 12  2  0  0  0  0
 24 10  1  0  0  0  0
 24 23  1  0  0  0  0
 25  5  1  0  0  0  0
 25  9  1  0  0  0  0
 26  9  1  0  0  0  0
 26 18  2  0  0  0  0
 27 30  2  0  0  0  0
 28  7  1  0  0  0  0
 28 27  1  0  0  0  0
 29 20  1  0  0  0  0
 29 12  1  0  0  0  0
 30 13  1  0  0  0  0
 30 11  1  0  0  0  0
 33 37  1  0  0  0  0
 34 36  1  0  0  0  0
 35 34  1  0  0  0  0
 35 33  2  0  0  0  0
 36 32  1  0  0  0  0
 37 32  1  0  0  0  0
 37  7  1  0  0  0  0
 38 35  1  0  0  0  0
 39 38  1  0  0  0  0
 40 39  1  0  0  0  0
 41 40  1  0  0  0  0
 41 42  1  0  0  0  0
 41 50  1  0  0  0  0
 43 53  1  0  0  0  0
 44 50  2  0  0  0  0
 45 46  1  0  0  0  0
 45 57  1  0  0  0  0
 46 56  1  0  0  0  0
 47 53  1  0  0  0  0
 47 45  1  0  0  0  0
 48 47  1  0  0  0  0
 50 48  1  0  0  0  0
 51 48  1  0  0  0  0
 51 52  1  0  0  0  0
 52 43  1  0  0  0  0
 53 54  1  0  0  0  0
 54 57  1  0  0  0  0
 54 49  1  0  0  0  0
 55 46  2  0  0  0  0
 59 58  1  0  0  0  0
M  END
>  <MODEL>
7

>  <REMARK>
 VINA RESULT:      -7.0      2.440      4.472
  Name = 
  7 active torsions:
  status: ('A' for Active; 'I' for Inactive)
    1  A    between atoms: C_11  and  C_28
    2  A    between atoms: C_11  and  C_33
    3  A    between atoms: C_12  and  C_57
    4  A    between atoms: C_21  and  O_26
    5  A    between atoms: O_26  and  C_32
    6  A    between atoms: C_28  and  C_32
    7  A    between atoms: C_30  and  C_44
                            x       y       z     vdW  Elec       q    Type
                         _______ _______ _______ _____ _____    ______ ____

>  <TORSDO>
F 7

$$$$
=
 OpenBabel11042415443D

 59 66  0  0  1  0  0  0  0  0999 V2000
  191.4520  176.1070  145.5400 C   0  0  1  0  0  3  0  0  0  0  0  0
  189.9890  176.3110  145.1570 C   0  0  0  0  0  2  0  0  0  0  0  0
  185.9790  176.5660  140.9930 O   0  0  0  0  0  0  0  0  0  0  0  0
  187.3990  176.6230  140.9280 C   0  0  0  0  0  2  0  0  0  0  0  0
  192.5390  175.6770  144.5960 C   0  0  1  0  0  3  0  0  0  0  0  0
  188.0720  176.1260  142.1620 C   0  0  0  0  0  0  0  0  0  0  0  0
  194.6730  170.5050  142.1580 C   0  0  2  0  0  3  0  0  0  0  0  0
  194.5770  176.3390  146.4560 C   0  0  0  0  0  2  0  0  0  0  0  0
  192.9440  174.1970  144.9230 C   0  0  1  0  0  3  0  0  0  0  0  0
  185.4300  177.5170  143.8190 C   0  0  0  0  0  2  0  0  0  0  0  0
  195.4870  173.4450  144.2220 N   0  0  0  0  0  2  0  0  0  0  0  0
  191.0940  174.3480  142.9640 C   0  0  0  0  0  0  0  0  0  0  0  0
  193.8930  171.3900  143.5330 S   0  0  0  0  0  0  0  0  0  0  0  0
  184.7180  178.1940  142.5640 C   0  0  1  0  0  3  0  0  0  0  0  0
  191.9430  176.4630  146.7340 C   0  0  0  0  0  2  0  0  0  0  0  0
  189.1090  177.8260  145.8180 S   0  0  0  0  0  0  0  0  0  0  0  0
  185.3390  177.8150  141.2030 C   0  0  0  0  0  0  0  0  0  0  0  0
  195.1380  175.0630  145.8960 N   0  0  0  0  0  0  0  0  0  0  0  0
  187.5040  176.2520  143.3400 N   0  0  0  0  0  0  0  0  0  0  0  0
  188.9790  175.0870  141.9400 N   0  0  0  0  0  2  0  0  0  0  0  0
  185.6610  178.7410  140.4310 O   0  0  0  0  0  0  0  0  0  0  0  0
  191.0010  173.0820  142.6010 C   0  0  0  0  0  2  0  0  0  0  0  0
  187.3580  177.5080  145.3430 C   0  0  0  0  0  2  0  0  0  0  0  0
  186.9600  177.4910  143.8870 C   0  0  2  0  0  3  0  0  0  0  0  0
  192.5050  174.6300  143.5180 C   0  0  1  0  0  3  0  0  0  0  0  0
  194.5820  174.2630  145.0670 C   0  0  0  0  0  0  0  0  0  0  0  0
  196.4780  171.6150  143.1580 N   0  0  0  0  0  0  0  0  0  0  0  0
  196.1890  170.4600  142.3130 C   0  0  0  0  0  2  0  0  0  0  0  0
  190.3320  175.4080  142.2540 C   0  0  0  0  0  2  0  0  0  0  0  0
  195.4130  172.1630  143.7170 C   0  0  0  0  0  0  0  0  0  0  0  0
  193.2560  176.1990  147.2760 C   0  0  0  0  0  2  0  0  0  0  0  0
  194.2580  168.4710  140.4550 C   0  0  0  0  0  2  0  0  0  0  0  0
  192.5320  170.3080  140.8860 N   0  0  0  0  0  0  0  0  0  0  0  0
  192.7610  169.5160  138.5830 C   0  0  0  0  0  2  0  0  0  0  0  0
  192.0490  170.2390  139.7180 C   0  0  0  0  0  0  0  0  0  0  0  0
  193.4150  168.1690  139.1290 C   0  0  0  0  0  2  0  0  0  0  0  0
  193.9140  169.9630  140.9120 C   0  0  1  0  0  3  0  0  0  0  0  0
  190.9200  170.9900  139.5280 O   0  0  0  0  0  0  0  0  0  0  0  0
  190.4510  171.4030  138.2880 C   0  0  0  0  0  2  0  0  0  0  0  0
  191.6000  172.2230  137.7660 C   0  0  0  0  0  2  0  0  0  0  0  0
  191.2830  173.6690  137.5340 C   0  0  1  0  0  3  0  0  0  0  0  0
  190.4380  174.0680  138.5790 O   0  0  0  0  0  1  0  0  0  0  0  0
  194.8450  174.1310  140.7580 O   0  0  0  0  0  0  0  0  0  0  0  0
  192.4900  175.5680  136.5210 O   0  0  0  0  0  0  0  0  0  0  0  0
  195.8710  175.0180  137.4910 N   0  0  0  0  0  0  0  0  0  0  0  0
  196.1180  175.6330  136.1570 C   0  0  0  0  0  0  0  0  0  0  0  0
  194.7870  175.3330  138.5010 C   0  0  1  0  0  3  0  0  0  0  0  0
  193.5340  174.5310  138.2880 N   0  0  0  0  0  0  0  0  0  0  0  0
  197.8110  175.0110  140.6470 O   0  0  0  0  0  1  0  0  0  0  0  0
  192.5020  174.5920  137.3440 C   0  0  0  0  0  0  0  0  0  0  0  0
  192.9510  174.1570  139.6080 C   0  0  0  0  0  2  0  0  0  0  0  0
  193.8630  173.4280  140.2800 O   0  0  0  0  0  0  0  0  0  0  0  0
  195.5460  174.8500  139.7860 C   0  0  2  0  0  3  0  0  0  0  0  0
  197.0080  174.3330  139.6540 C   0  0  1  0  0  3  0  0  0  0  0  0
  195.3360  176.4150  135.6270 O   0  0  0  0  0  0  0  0  0  0  0  0
  197.3730  175.2590  135.4720 C   0  0  0  0  0  1  0  0  0  0  0  0
  197.1500  175.0730  138.2790 C   0  0  0  0  0  2  0  0  0  0  0  0
  182.8600  177.9160  141.0480 C   0  0  0  0  0  1  0  0  0  0  0  0
  183.2300  178.4910  142.3890 C   0  0  0  0  0  2  0  0  0  0  0  0
  1  2  1  6  0  0  0
  1 15  1  0  0  0  0
  2 16  1  0  0  0  0
  3 17  1  0  0  0  0
  4  3  1  0  0  0  0
  4  6  1  0  0  0  0
  5  9  1  0  0  0  0
  5  1  1  0  0  0  0
  6 19  2  0  0  0  0
  7 28  1  0  0  0  0
  7 13  1  0  0  0  0
  8 31  1  0  0  0  0
  9 26  1  0  0  0  0
 10 24  1  0  0  0  0
 11 26  1  0  0  0  0
 12 25  1  0  0  0  0
 13 30  1  0  0  0  0
 14 10  1  0  0  0  0
 15 31  1  0  0  0  0
 17 14  1  0  0  0  0
 18  8  1  0  0  0  0
 19 24  1  0  0  0  0
 20  6  1  0  0  0  0
 20 29  1  0  0  0  0
 21 17  2  0  0  0  0
 22 12  2  0  0  0  0
 23 16  1  0  0  0  0
 24 23  1  0  0  0  0
 25  5  1  0  0  0  0
 25  9  1  0  0  0  0
 26 18  2  0  0  0  0
 27 30  2  0  0  0  0
 28 27  1  0  0  0  0
 29 12  1  0  0  0  0
 30 11  1  0  0  0  0
 32 37  1  0  0  0  0
 33 37  1  0  0  0  0
 34 36  1  0  0  0  0
 34 35  1  0  0  0  0
 35 33  2  0  0  0  0
 36 32  1  0  0  0  0
 37  7  1  0  0  0  0
 38 35  1  0  0  0  0
 39 38  1  0  0  0  0
 40 39  1  0  0  0  0
 41 40  1  0  0  0  0
 41 42  1  0  0  0  0
 44 50  2  0  0  0  0
 45 57  1  0  0  0  0
 45 47  1  0  0  0  0
 46 45  1  0  0  0  0
 47 53  1  0  0  0  0
 48 47  1  0  0  0  0
 48 51  1  0  0  0  0
 50 41  1  0  0  0  0
 50 48  1  0  0  0  0
 51 52  1  0  0  0  0
 52 43  1  0  0  0  0
 53 43  1  0  0  0  0
 54 53  1  0  0  0  0
 54 49  1  0  0  0  0
 55 46  2  0  0  0  0
 56 46  1  0  0  0  0
 57 54  1  0  0  0  0
 58 59  1  0  0  0  0
 59 14  1  0  0  0  0
M  END
>  <MODEL>
8

>  <REMARK>
 VINA RESULT:      -6.9      2.980      5.329
  Name = 
  7 active torsions:
  status: ('A' for Active; 'I' for Inactive)
    1  A    between atoms: C_11  and  C_28
    2  A    between atoms: C_11  and  C_33
    3  A    between atoms: C_12  and  C_57
    4  A    between atoms: C_21  and  O_26
    5  A    between atoms: O_26  and  C_32
    6  A    between atoms: C_28  and  C_32
    7  A    between atoms: C_30  and  C_44
                            x       y       z     vdW  Elec       q    Type
                         _______ _______ _______ _____ _____    ______ ____

>  <TORSDO>
F 7

$$$$
=
 OpenBabel11042415443D

 59 66  0  0  1  0  0  0  0  0999 V2000
  189.0250  177.1940  146.3360 C   0  0  1  0  0  3  0  0  0  0  0  0
  190.4990  176.8170  146.2070 C   0  0  0  0  0  2  0  0  0  0  0  0
  194.5260  173.4630  143.7540 O   0  0  0  0  0  0  0  0  0  0  0  0
  193.1120  173.3260  143.8230 C   0  0  0  0  0  2  0  0  0  0  0  0
  187.9180  176.6530  145.4760 C   0  0  1  0  0  3  0  0  0  0  0  0
  192.4090  174.5890  144.1890 C   0  0  0  0  0  0  0  0  0  0  0  0
  185.5000  177.6950  139.9710 C   0  0  2  0  0  3  0  0  0  0  0  0
  185.9170  177.6810  147.2060 C   0  0  0  0  0  2  0  0  0  0  0  0
  187.4300  177.7820  144.5020 C   0  0  1  0  0  3  0  0  0  0  0  0
  195.1210  175.1870  146.1750 C   0  0  0  0  0  2  0  0  0  0  0  0
  184.8490  177.5750  143.5940 N   0  0  0  0  0  2  0  0  0  0  0  0
  189.2890  176.1830  143.3750 C   0  0  0  0  0  0  0  0  0  0  0  0
  186.3270  178.3010  141.4650 S   0  0  0  0  0  0  0  0  0  0  0  0
  195.8740  173.8010  145.9380 C   0  0  1  0  0  3  0  0  0  0  0  0
  188.5530  177.9240  147.3540 C   0  0  0  0  0  2  0  0  0  0  0  0
  191.4620  176.4770  147.7770 S   0  0  0  0  0  0  0  0  0  0  0  0
  195.2350  172.9110  144.8520 C   0  0  0  0  0  0  0  0  0  0  0  0
  185.2860  177.9700  145.8730 N   0  0  0  0  0  0  0  0  0  0  0  0
  192.9800  175.4810  144.9670 N   0  0  0  0  0  0  0  0  0  0  0  0
  191.4450  174.9970  143.2640 N   0  0  0  0  0  2  0  0  0  0  0  0
  194.9680  171.7290  145.1490 O   0  0  0  0  0  0  0  0  0  0  0  0
  189.3110  176.6480  142.1390 C   0  0  0  0  0  2  0  0  0  0  0  0
  193.1930  176.3470  147.1610 C   0  0  0  0  0  2  0  0  0  0  0  0
  193.5930  175.2030  146.2620 C   0  0  2  0  0  3  0  0  0  0  0  0
  187.8950  176.4110  143.9930 C   0  0  1  0  0  3  0  0  0  0  0  0
  185.7970  177.7990  144.7130 C   0  0  0  0  0  0  0  0  0  0  0  0
  183.7590  177.7740  141.5360 N   0  0  0  0  0  0  0  0  0  0  0  0
  183.9840  177.7920  140.0940 C   0  0  0  0  0  2  0  0  0  0  0  0
  190.1110  175.0100  143.7680 C   0  0  0  0  0  2  0  0  0  0  0  0
  184.8520  177.9350  142.2620 C   0  0  0  0  0  0  0  0  0  0  0  0
  187.2260  178.4690  147.5240 C   0  0  0  0  0  2  0  0  0  0  0  0
  186.6680  178.0210  137.5750 C   0  0  0  0  0  2  0  0  0  0  0  0
  187.1930  176.0610  139.1310 N   0  0  0  0  0  0  0  0  0  0  0  0
  187.0710  175.5780  136.7360 C   0  0  0  0  0  2  0  0  0  0  0  0
  187.4530  175.2700  138.1770 C   0  0  0  0  0  0  0  0  0  0  0  0
  187.3270  177.1210  136.4290 C   0  0  0  0  0  2  0  0  0  0  0  0
  186.2300  177.0440  138.7610 C   0  0  1  0  0  3  0  0  0  0  0  0
  187.9630  174.0610  138.5680 O   0  0  0  0  0  0  0  0  0  0  0  0
  188.7540  173.2460  137.7690 C   0  0  0  0  0  2  0  0  0  0  0  0
  189.8840  172.8870  138.6960 C   0  0  0  0  0  2  0  0  0  0  0  0
  191.2520  173.0550  138.1080 C   0  0  1  0  0  3  0  0  0  0  0  0
  191.1510  174.0590  137.1350 O   0  0  0  0  0  1  0  0  0  0  0  0
  194.6800  169.8210  139.1530 O   0  0  0  0  0  0  0  0  0  0  0  0
  192.3010  174.1950  140.0290 O   0  0  0  0  0  0  0  0  0  0  0  0
  195.6950  173.1320  139.8770 N   0  0  0  0  0  0  0  0  0  0  0  0
  195.9150  174.5060  140.4080 C   0  0  0  0  0  0  0  0  0  0  0  0
  194.5640  172.1670  140.1650 C   0  0  1  0  0  3  0  0  0  0  0  0
  193.3960  172.3360  139.2350 N   0  0  0  0  0  0  0  0  0  0  0  0
  197.5530  169.9550  140.2970 O   0  0  0  0  0  1  0  0  0  0  0  0
  192.3850  173.2980  139.1260 C   0  0  0  0  0  0  0  0  0  0  0  0
  192.8190  171.0000  138.9110 C   0  0  0  0  0  2  0  0  0  0  0  0
  193.7790  170.2580  138.3250 O   0  0  0  0  0  0  0  0  0  0  0  0
  195.3340  170.8360  139.8580 C   0  0  2  0  0  3  0  0  0  0  0  0
  196.8400  170.9040  139.4720 C   0  0  1  0  0  3  0  0  0  0  0  0
  195.0760  175.1080  141.0690 O   0  0  0  0  0  0  0  0  0  0  0  0
  197.2150  175.1390  140.1020 C   0  0  0  0  0  1  0  0  0  0  0  0
  196.9450  172.3300  140.1140 C   0  0  0  0  0  2  0  0  0  0  0  0
  197.9410  174.0940  144.7280 C   0  0  0  0  0  1  0  0  0  0  0  0
  197.3770  173.5360  146.0070 C   0  0  0  0  0  2  0  0  0  0  0  0
  1  2  1  1  0  0  0
  1 15  1  0  0  0  0
  2 16  1  0  0  0  0
  3  4  1  0  0  0  0
  3 17  1  0  0  0  0
  4  6  1  0  0  0  0
  5  1  1  0  0  0  0
  6 19  2  0  0  0  0
  7 28  1  0  0  0  0
  7 13  1  0  0  0  0
  8 31  1  0  0  0  0
  9 26  1  0  0  0  0
  9  5  1  0  0  0  0
 10 24  1  0  0  0  0
 11 26  1  0  0  0  0
 12 29  1  0  0  0  0
 12 25  1  0  0  0  0
 13 30  1  0  0  0  0
 14 59  1  0  0  0  0
 14 10  1  0  0  0  0
 15 31  1  0  0  0  0
 17 21  2  0  0  0  0
 17 14  1  0  0  0  0
 18  8  1  0  0  0  0
 19 24  1  0  0  0  0
 20 29  1  0  0  0  0
 20  6  1  0  0  0  0
 22 12  2  0  0  0  0
 23 16  1  0  0  0  0
 24 23  1  0  0  0  0
 25  9  1  0  0  0  0
 25  5  1  0  0  0  0
 26 18  2  0  0  0  0
 27 30  2  0  0  0  0
 28 27  1  0  0  0  0
 30 11  1  0  0  0  0
 32 37  1  0  0  0  0
 34 35  1  0  0  0  0
 35 38  1  0  0  0  0
 35 33  2  0  0  0  0
 36 34  1  0  0  0  0
 36 32  1  0  0  0  0
 37 33  1  0  0  0  0
 37  7  1  0  0  0  0
 39 38  1  0  0  0  0
 39 40  1  0  0  0  0
 41 40  1  0  0  0  0
 41 50  1  0  0  0  0
 42 41  1  0  0  0  0
 43 53  1  0  0  0  0
 45 57  1  0  0  0  0
 45 47  1  0  0  0  0
 45 46  1  0  0  0  0
 46 55  2  0  0  0  0
 48 47  1  0  0  0  0
 50 48  1  0  0  0  0
 50 44  2  0  0  0  0
 51 48  1  0  0  0  0
 52 51  1  0  0  0  0
 52 43  1  0  0  0  0
 53 47  1  0  0  0  0
 54 53  1  0  0  0  0
 54 57  1  0  0  0  0
 54 49  1  0  0  0  0
 56 46  1  0  0  0  0
 58 59  1  0  0  0  0
M  END
>  <MODEL>
9

>  <REMARK>
 VINA RESULT:      -6.9      3.184      7.558
  Name = 
  7 active torsions:
  status: ('A' for Active; 'I' for Inactive)
    1  A    between atoms: C_11  and  C_28
    2  A    between atoms: C_11  and  C_33
    3  A    between atoms: C_12  and  C_57
    4  A    between atoms: C_21  and  O_26
    5  A    between atoms: O_26  and  C_32
    6  A    between atoms: C_28  and  C_32
    7  A    between atoms: C_30  and  C_44
                            x       y       z     vdW  Elec       q    Type
                         _______ _______ _______ _____ _____    ______ ____

>  <TORSDO>
F 7

$$$$
