=
 OpenBabel11042416523D

 29 31  0  0  1  0  0  0  0  0999 V2000
  185.2660  177.1420  143.5470 S   0  0  0  0  0  0  0  0  0  0  0  0
  184.6690  178.4510  145.8870 C   0  0  0  0  0  2  0  0  0  0  0  0
  186.0640  178.2700  146.4720 C   0  0  2  0  0  3  0  0  0  0  0  0
  186.7390  177.0180  145.8910 C   0  0  1  0  0  3  0  0  0  0  0  0
  184.7330  178.6710  144.3850 C   0  0  0  0  0  2  0  0  0  0  0  0
  186.8980  177.0810  144.3630 C   0  0  2  0  0  3  0  0  0  0  0  0
  185.9550  178.1600  147.8590 O   0  0  0  0  0  1  0  0  0  0  0  0
  188.0320  176.6770  146.5720 C   0  0  0  0  0  0  0  0  0  0  0  0
  188.7310  177.6030  147.0630 O   0  0  0  0  0  0  0  0  0  0  0  0
  188.4480  175.3130  146.6960 N   0  0  0  0  0  2  0  0  0  0  0  0
  189.7060  174.9260  147.3200 C   0  0  0  0  0  2  0  0  0  0  0  0
  190.8210  174.8690  146.2840 C   0  0  0  0  0  2  0  0  0  0  0  0
  192.1470  175.3550  146.8560 C   0  0  0  0  0  2  0  0  0  0  0  0
  193.3250  174.6610  146.1920 C   0  0  0  0  0  2  0  0  0  0  0  0
  194.1430  176.9600  146.5960 C   0  0  0  0  0  1  0  0  0  0  0  0
  194.5490  175.5570  146.2020 C   0  0  0  0  0  2  0  0  0  0  0  0
  187.7750  178.2360  143.8770 C   0  0  0  0  0  2  0  0  0  0  0  0
  188.5240  177.8470  142.6870 N   0  0  0  0  0  2  0  0  0  0  0  0
  189.5650  176.8630  142.6790 C   0  0  0  0  0  0  0  0  0  0  0  0
  189.2620  175.5560  142.4820 C   0  0  0  0  0  3  0  0  0  0  0  0
  192.7270  174.0500  142.4920 N   0  0  0  0  0  0  0  0  0  0  0  0
  191.0000  177.3410  142.8840 C   0  0  2  0  0  3  0  0  0  0  0  0
  190.2970  174.4990  142.4300 C   0  0  0  0  0  0  0  0  0  0  0  0
  191.5680  174.8580  142.5600 C   0  0  0  0  0  0  0  0  0  0  0  0
  191.9730  176.2080  142.7550 C   0  0  0  0  0  0  0  0  0  0  0  0
  191.1390  177.9780  144.2560 C   0  0  0  0  0  1  0  0  0  0  0  0
  189.9340  173.1390  142.2160 N   0  0  0  0  0  1  0  0  0  0  0  0
  193.2590  176.2700  142.8040 N   0  0  0  0  0  0  0  0  0  0  0  0
  193.6970  174.9080  142.6380 C   0  0  0  0  0  3  0  0  0  0  0  0
  1  6  1  0  0  0  0
  1  5  1  0  0  0  0
  2  3  1  0  0  0  0
  3  7  1  1  0  0  0
  4  3  1  0  0  0  0
  4  8  1  1  0  0  0
  5  2  1  0  0  0  0
  6 17  1  1  0  0  0
  6  4  1  0  0  0  0
  8 10  1  0  0  0  0
  8  9  2  0  0  0  0
 10 11  1  0  0  0  0
 12 13  1  0  0  0  0
 12 11  1  0  0  0  0
 14 16  1  0  0  0  0
 14 13  1  0  0  0  0
 16 15  1  0  0  0  0
 18 17  1  0  0  0  0
 19 18  1  0  0  0  0
 19 22  1  0  0  0  0
 20 19  2  0  0  0  0
 21 24  1  0  0  0  0
 21 29  2  0  0  0  0
 22 26  1  1  0  0  0
 23 20  1  0  0  0  0
 23 24  2  0  0  0  0
 24 25  1  0  0  0  0
 25 28  2  0  0  0  0
 25 22  1  0  0  0  0
 27 23  1  0  0  0  0
 29 28  1  0  0  0  0
M  END
>  <MODEL>
1

>  <REMARK>
 VINA RESULT:      -6.3      0.000      0.000
  Name = 
  9 active torsions:
  status: ('A' for Active; 'I' for Inactive)
    1  A    between atoms: C_1  and  C_24
    2  A    between atoms: C_2  and  N_5
    3  A    between atoms: C_3  and  C_17
    4  A    between atoms: C_3  and  C_19
    5  A    between atoms: N_5  and  C_6
    6  A    between atoms: C_6  and  C_26
    7  A    between atoms: N_16  and  C_19
    8  A    between atoms: C_17  and  C_23
    9  A    between atoms: C_23  and  C_29
                            x       y       z     vdW  Elec       q    Type
                         _______ _______ _______ _____ _____    ______ ____

>  <TORSDO>
F 9

$$$$
=
 OpenBabel11042416523D

 29 31  0  0  1  0  0  0  0  0999 V2000
  185.6050  179.5280  145.7030 S   0  0  0  0  0  0  0  0  0  0  0  0
  183.6990  178.8810  143.8350 C   0  0  0  0  0  2  0  0  0  0  0  0
  184.6580  178.0620  142.9800 C   0  0  2  0  0  3  0  0  0  0  0  0
  186.1020  178.5580  143.1560 C   0  0  1  0  0  3  0  0  0  0  0  0
  184.0170  178.7230  145.3120 C   0  0  0  0  0  2  0  0  0  0  0  0
  186.5950  178.4540  144.6080 C   0  0  2  0  0  3  0  0  0  0  0  0
  184.2690  178.1720  141.6440 O   0  0  0  0  0  1  0  0  0  0  0  0
  187.0630  177.9230  142.1940 C   0  0  0  0  0  0  0  0  0  0  0  0
  188.1020  178.5500  141.8600 O   0  0  0  0  0  0  0  0  0  0  0  0
  186.8200  176.6050  141.6910 N   0  0  0  0  0  2  0  0  0  0  0  0
  187.7010  175.9520  140.7320 C   0  0  0  0  0  2  0  0  0  0  0  0
  188.1690  174.6050  141.2670 C   0  0  0  0  0  2  0  0  0  0  0  0
  189.4830  174.7270  142.0280 C   0  0  0  0  0  2  0  0  0  0  0  0
  189.9730  173.3700  142.5090 C   0  0  0  0  0  2  0  0  0  0  0  0
  189.8110  172.1760  144.6700 C   0  0  0  0  0  1  0  0  0  0  0  0
  190.3280  173.4220  143.9830 C   0  0  0  0  0  2  0  0  0  0  0  0
  186.6230  177.0250  145.1540 C   0  0  0  0  0  2  0  0  0  0  0  0
  187.6270  176.8960  146.2040 N   0  0  0  0  0  2  0  0  0  0  0  0
  189.0300  176.7370  145.9580 C   0  0  0  0  0  0  0  0  0  0  0  0
  189.5700  177.1790  144.7960 C   0  0  0  0  0  3  0  0  0  0  0  0
  193.2140  176.3860  145.4000 N   0  0  0  0  0  0  0  0  0  0  0  0
  189.8730  176.0760  147.0460 C   0  0  2  0  0  3  0  0  0  0  0  0
  191.0170  177.0720  144.5000 C   0  0  0  0  0  0  0  0  0  0  0  0
  191.8090  176.5440  145.4250 C   0  0  0  0  0  0  0  0  0  0  0  0
  191.3270  176.0710  146.6770 C   0  0  0  0  0  0  0  0  0  0  0  0
  189.3990  174.6510  147.2690 C   0  0  0  0  0  1  0  0  0  0  0  0
  191.5410  177.5530  143.2680 N   0  0  0  0  0  1  0  0  0  0  0  0
  192.3140  175.6540  147.3910 N   0  0  0  0  0  0  0  0  0  0  0  0
  193.4750  175.8640  146.5650 C   0  0  0  0  0  3  0  0  0  0  0  0
  2  5  1  0  0  0  0
  3  7  1  6  0  0  0
  3  4  1  0  0  0  0
  3  2  1  0  0  0  0
  4  8  1  6  0  0  0
  4  6  1  0  0  0  0
  5  1  1  0  0  0  0
  6 17  1  1  0  0  0
  6  1  1  0  0  0  0
  9  8  2  0  0  0  0
 10  8  1  0  0  0  0
 11 12  1  0  0  0  0
 11 10  1  0  0  0  0
 12 13  1  0  0  0  0
 13 14  1  0  0  0  0
 14 16  1  0  0  0  0
 16 15  1  0  0  0  0
 17 18  1  0  0  0  0
 19 18  1  0  0  0  0
 19 22  1  0  0  0  0
 20 19  2  0  0  0  0
 21 24  1  0  0  0  0
 21 29  2  0  0  0  0
 22 26  1  6  0  0  0
 23 20  1  0  0  0  0
 23 24  2  0  0  0  0
 24 25  1  0  0  0  0
 25 22  1  0  0  0  0
 25 28  2  0  0  0  0
 27 23  1  0  0  0  0
 29 28  1  0  0  0  0
M  END
>  <MODEL>
2

>  <REMARK>
 VINA RESULT:      -6.3      2.498      4.436
  Name = 
  9 active torsions:
  status: ('A' for Active; 'I' for Inactive)
    1  A    between atoms: C_1  and  C_24
    2  A    between atoms: C_2  and  N_5
    3  A    between atoms: C_3  and  C_17
    4  A    between atoms: C_3  and  C_19
    5  A    between atoms: N_5  and  C_6
    6  A    between atoms: C_6  and  C_26
    7  A    between atoms: N_16  and  C_19
    8  A    between atoms: C_17  and  C_23
    9  A    between atoms: C_23  and  C_29
                            x       y       z     vdW  Elec       q    Type
                         _______ _______ _______ _____ _____    ______ ____

>  <TORSDO>
F 9

$$$$
=
 OpenBabel11042416523D

 29 31  0  0  1  0  0  0  0  0999 V2000
  190.2440  173.4510  143.8600 S   0  0  0  0  0  0  0  0  0  0  0  0
  188.6480  174.5850  141.9340 C   0  0  0  0  0  2  0  0  0  0  0  0
  188.4640  175.8900  142.6990 C   0  0  2  0  0  3  0  0  0  0  0  0
  188.6040  175.6560  144.2120 C   0  0  1  0  0  3  0  0  0  0  0  0
  190.0450  174.0260  142.1410 C   0  0  0  0  0  2  0  0  0  0  0  0
  189.9820  175.0980  144.6030 C   0  0  2  0  0  3  0  0  0  0  0  0
  187.2000  176.4040  142.4060 O   0  0  0  0  0  1  0  0  0  0  0  0
  188.2380  176.8600  145.0290 C   0  0  0  0  0  0  0  0  0  0  0  0
  188.5060  178.0080  144.5860 O   0  0  0  0  0  0  0  0  0  0  0  0
  187.5580  176.7080  146.2790 N   0  0  0  0  0  2  0  0  0  0  0  0
  187.2070  177.8380  147.1290 C   0  0  0  0  0  2  0  0  0  0  0  0
  185.7500  177.7470  147.5640 C   0  0  0  0  0  2  0  0  0  0  0  0
  184.8330  177.4010  146.3980 C   0  0  0  0  0  2  0  0  0  0  0  0
  184.0940  178.6280  145.8910 C   0  0  0  0  0  2  0  0  0  0  0  0
  185.4590  179.7910  144.1860 C   0  0  0  0  0  1  0  0  0  0  0  0
  184.3240  178.8140  144.4030 C   0  0  0  0  0  2  0  0  0  0  0  0
  191.1480  176.0250  144.2600 C   0  0  0  0  0  2  0  0  0  0  0  0
  192.2410  175.8490  145.2090 N   0  0  0  0  0  2  0  0  0  0  0  0
  193.5980  175.5810  144.8310 C   0  0  0  0  0  0  0  0  0  0  0  0
  194.1360  176.2000  143.7520 C   0  0  0  0  0  3  0  0  0  0  0  0
  197.6670  174.8650  143.9000 N   0  0  0  0  0  0  0  0  0  0  0  0
  194.3960  174.6020  145.6880 C   0  0  2  0  0  3  0  0  0  0  0  0
  195.5400  175.9890  143.3320 C   0  0  0  0  0  0  0  0  0  0  0  0
  196.2980  175.1800  144.0630 C   0  0  0  0  0  0  0  0  0  0  0  0
  195.8170  174.5050  145.2180 C   0  0  0  0  0  0  0  0  0  0  0  0
  193.7490  173.2290  145.6390 C   0  0  0  0  0  1  0  0  0  0  0  0
  196.0650  176.6630  142.1940 N   0  0  0  0  0  1  0  0  0  0  0  0
  196.7730  173.8270  145.7520 N   0  0  0  0  0  0  0  0  0  0  0  0
  197.9120  174.0730  144.9050 C   0  0  0  0  0  3  0  0  0  0  0  0
  1  6  1  0  0  0  0
  2  5  1  0  0  0  0
  2  3  1  0  0  0  0
  3  7  1  1  0  0  0
  3  4  1  0  0  0  0
  4  6  1  0  0  0  0
  4  8  1  1  0  0  0
  5  1  1  0  0  0  0
  6 17  1  6  0  0  0
  8 10  1  0  0  0  0
  9  8  2  0  0  0  0
 10 11  1  0  0  0  0
 11 12  1  0  0  0  0
 13 12  1  0  0  0  0
 14 13  1  0  0  0  0
 15 16  1  0  0  0  0
 16 14  1  0  0  0  0
 17 18  1  0  0  0  0
 19 18  1  0  0  0  0
 19 22  1  0  0  0  0
 20 19  2  0  0  0  0
 21 24  1  0  0  0  0
 21 29  2  0  0  0  0
 22 26  1  6  0  0  0
 23 20  1  0  0  0  0
 23 24  2  0  0  0  0
 24 25  1  0  0  0  0
 25 22  1  0  0  0  0
 25 28  2  0  0  0  0
 27 23  1  0  0  0  0
 29 28  1  0  0  0  0
M  END
>  <MODEL>
3

>  <REMARK>
 VINA RESULT:      -6.2      2.639      5.883
  Name = 
  9 active torsions:
  status: ('A' for Active; 'I' for Inactive)
    1  A    between atoms: C_1  and  C_24
    2  A    between atoms: C_2  and  N_5
    3  A    between atoms: C_3  and  C_17
    4  A    between atoms: C_3  and  C_19
    5  A    between atoms: N_5  and  C_6
    6  A    between atoms: C_6  and  C_26
    7  A    between atoms: N_16  and  C_19
    8  A    between atoms: C_17  and  C_23
    9  A    between atoms: C_23  and  C_29
                            x       y       z     vdW  Elec       q    Type
                         _______ _______ _______ _____ _____    ______ ____

>  <TORSDO>
F 9

$$$$
=
 OpenBabel11042416523D

 29 31  0  0  1  0  0  0  0  0999 V2000
  189.2990  173.1680  140.6510 S   0  0  0  0  0  0  0  0  0  0  0  0
  190.7040  171.6860  142.4890 C   0  0  0  0  0  2  0  0  0  0  0  0
  191.2220  172.9070  143.2390 C   0  0  2  0  0  3  0  0  0  0  0  0
  191.3060  174.1240  142.3050 C   0  0  1  0  0  3  0  0  0  0  0  0
  189.2910  171.9200  141.9810 C   0  0  0  0  0  2  0  0  0  0  0  0
  189.9440  174.5110  141.7060 C   0  0  2  0  0  3  0  0  0  0  0  0
  192.4830  172.6080  143.7580 O   0  0  0  0  0  1  0  0  0  0  0  0
  191.9940  175.3010  142.9330 C   0  0  0  0  0  0  0  0  0  0  0  0
  192.8020  175.9790  142.2450 O   0  0  0  0  0  0  0  0  0  0  0  0
  191.7080  175.6700  144.2850 N   0  0  0  0  0  2  0  0  0  0  0  0
  192.3680  176.7820  144.9560 C   0  0  0  0  0  2  0  0  0  0  0  0
  192.9600  176.3310  146.2850 C   0  0  0  0  0  2  0  0  0  0  0  0
  192.2350  175.1110  146.8390 C   0  0  0  0  0  2  0  0  0  0  0  0
  191.2660  175.4960  147.9440 C   0  0  0  0  0  2  0  0  0  0  0  0
  189.5050  174.3670  146.6230 C   0  0  0  0  0  1  0  0  0  0  0  0
  189.8550  175.6180  147.4000 C   0  0  0  0  0  2  0  0  0  0  0  0
  188.9000  174.9140  142.7480 C   0  0  0  0  0  2  0  0  0  0  0  0
  188.0250  175.9550  142.2230 N   0  0  0  0  0  2  0  0  0  0  0  0
  187.0480  176.6540  143.0050 C   0  0  0  0  0  0  0  0  0  0  0  0
  185.9170  177.1180  142.4210 C   0  0  0  0  0  3  0  0  0  0  0  0
  184.1370  178.5460  145.4320 N   0  0  0  0  0  0  0  0  0  0  0  0
  187.3240  176.8340  144.4950 C   0  0  2  0  0  3  0  0  0  0  0  0
  184.8570  177.8180  143.1820 C   0  0  0  0  0  0  0  0  0  0  0  0
  185.0210  177.9690  144.4910 C   0  0  0  0  0  0  0  0  0  0  0  0
  186.1690  177.4970  145.1850 C   0  0  0  0  0  0  0  0  0  0  0  0
  188.5790  177.6670  144.6880 C   0  0  0  0  0  1  0  0  0  0  0  0
  183.6830  178.2860  142.5280 N   0  0  0  0  0  1  0  0  0  0  0  0
  186.0430  177.7380  146.4430 N   0  0  0  0  0  0  0  0  0  0  0  0
  184.7660  178.3930  146.5630 C   0  0  0  0  0  3  0  0  0  0  0  0
  1  6  1  0  0  0  0
  1  5  1  0  0  0  0
  2  3  1  0  0  0  0
  3  7  1  6  0  0  0
  4  8  1  1  0  0  0
  4  3  1  0  0  0  0
  5  2  1  0  0  0  0
  6  4  1  0  0  0  0
  6 17  1  1  0  0  0
  8 10  1  0  0  0  0
  9  8  2  0  0  0  0
 10 11  1  0  0  0  0
 11 12  1  0  0  0  0
 12 13  1  0  0  0  0
 13 14  1  0  0  0  0
 15 16  1  0  0  0  0
 16 14  1  0  0  0  0
 18 17  1  0  0  0  0
 18 19  1  0  0  0  0
 19 22  1  0  0  0  0
 20 19  2  0  0  0  0
 20 23  1  0  0  0  0
 21 29  2  0  0  0  0
 22 26  1  6  0  0  0
 22 25  1  0  0  0  0
 23 24  2  0  0  0  0
 24 25  1  0  0  0  0
 24 21  1  0  0  0  0
 25 28  2  0  0  0  0
 27 23  1  0  0  0  0
 28 29  1  0  0  0  0
M  END
>  <MODEL>
4

>  <REMARK>
 VINA RESULT:      -6.2      2.928      6.277
  Name = 
  9 active torsions:
  status: ('A' for Active; 'I' for Inactive)
    1  A    between atoms: C_1  and  C_24
    2  A    between atoms: C_2  and  N_5
    3  A    between atoms: C_3  and  C_17
    4  A    between atoms: C_3  and  C_19
    5  A    between atoms: N_5  and  C_6
    6  A    between atoms: C_6  and  C_26
    7  A    between atoms: N_16  and  C_19
    8  A    between atoms: C_17  and  C_23
    9  A    between atoms: C_23  and  C_29
                            x       y       z     vdW  Elec       q    Type
                         _______ _______ _______ _____ _____    ______ ____

>  <TORSDO>
F 9

$$$$
=
 OpenBabel11042416523D

 29 31  0  0  1  0  0  0  0  0999 V2000
  186.3750  178.7930  147.6580 S   0  0  0  0  0  0  0  0  0  0  0  0
  184.2440  178.6760  145.9290 C   0  0  0  0  0  2  0  0  0  0  0  0
  184.9990  177.8680  144.8810 C   0  0  2  0  0  3  0  0  0  0  0  0
  186.5090  178.1390  144.9690 C   0  0  1  0  0  3  0  0  0  0  0  0
  184.6600  178.2680  147.3330 C   0  0  0  0  0  2  0  0  0  0  0  0
  187.1040  177.7650  146.3370 C   0  0  2  0  0  3  0  0  0  0  0  0
  184.5190  178.2180  143.6180 O   0  0  0  0  0  1  0  0  0  0  0  0
  187.2840  177.5280  143.8390 C   0  0  0  0  0  0  0  0  0  0  0  0
  188.4140  177.9990  143.5420 O   0  0  0  0  0  0  0  0  0  0  0  0
  186.7620  176.3990  143.1300 N   0  0  0  0  0  2  0  0  0  0  0  0
  187.4550  175.7850  142.0060 C   0  0  0  0  0  2  0  0  0  0  0  0
  188.3060  174.6120  142.4770 C   0  0  0  0  0  2  0  0  0  0  0  0
  188.1000  173.3810  141.6040 C   0  0  0  0  0  2  0  0  0  0  0  0
  188.9900  173.4190  140.3720 C   0  0  0  0  0  2  0  0  0  0  0  0
  188.2310  173.7080  138.0350 C   0  0  0  0  0  1  0  0  0  0  0  0
  188.3070  172.7430  139.1990 C   0  0  0  0  0  2  0  0  0  0  0  0
  186.9710  176.2820  146.6860 C   0  0  0  0  0  2  0  0  0  0  0  0
  188.2070  175.7820  147.2790 N   0  0  0  0  0  2  0  0  0  0  0  0
  189.3870  175.4690  146.5290 C   0  0  0  0  0  0  0  0  0  0  0  0
  189.5220  174.2500  145.9520 C   0  0  0  0  0  3  0  0  0  0  0  0
  192.8300  174.7000  144.1840 N   0  0  0  0  0  0  0  0  0  0  0  0
  190.4570  176.5500  146.4000 C   0  0  2  0  0  3  0  0  0  0  0  0
  190.7030  173.8800  145.1390 C   0  0  0  0  0  0  0  0  0  0  0  0
  191.6480  174.7930  144.9560 C   0  0  0  0  0  0  0  0  0  0  0  0
  191.5790  176.1000  145.5120 C   0  0  0  0  0  0  0  0  0  0  0  0
  191.0030  176.9000  147.7730 C   0  0  0  0  0  1  0  0  0  0  0  0
  190.8000  172.5890  144.5480 N   0  0  0  0  0  1  0  0  0  0  0  0
  192.6030  176.7850  145.1380 N   0  0  0  0  0  0  0  0  0  0  0  0
  193.3630  175.8810  144.3120 C   0  0  0  0  0  3  0  0  0  0  0  0
  2  5  1  0  0  0  0
  3  7  1  6  0  0  0
  3  4  1  0  0  0  0
  3  2  1  0  0  0  0
  4  8  1  6  0  0  0
  4  6  1  0  0  0  0
  5  1  1  0  0  0  0
  6 17  1  1  0  0  0
  6  1  1  0  0  0  0
  9  8  2  0  0  0  0
 10  8  1  0  0  0  0
 11 12  1  0  0  0  0
 11 10  1  0  0  0  0
 13 12  1  0  0  0  0
 14 13  1  0  0  0  0
 15 16  1  0  0  0  0
 16 14  1  0  0  0  0
 17 18  1  0  0  0  0
 19 18  1  0  0  0  0
 20 19  2  0  0  0  0
 21 29  2  0  0  0  0
 21 24  1  0  0  0  0
 22 19  1  0  0  0  0
 22 26  1  1  0  0  0
 23 20  1  0  0  0  0
 24 23  2  0  0  0  0
 24 25  1  0  0  0  0
 25 22  1  0  0  0  0
 27 23  1  0  0  0  0
 28 25  2  0  0  0  0
 29 28  1  0  0  0  0
M  END
>  <MODEL>
5

>  <REMARK>
 VINA RESULT:      -6.1      2.393      4.574
  Name = 
  9 active torsions:
  status: ('A' for Active; 'I' for Inactive)
    1  A    between atoms: C_1  and  C_24
    2  A    between atoms: C_2  and  N_5
    3  A    between atoms: C_3  and  C_17
    4  A    between atoms: C_3  and  C_19
    5  A    between atoms: N_5  and  C_6
    6  A    between atoms: C_6  and  C_26
    7  A    between atoms: N_16  and  C_19
    8  A    between atoms: C_17  and  C_23
    9  A    between atoms: C_23  and  C_29
                            x       y       z     vdW  Elec       q    Type
                         _______ _______ _______ _____ _____    ______ ____

>  <TORSDO>
F 9

$$$$
=
 OpenBabel11042416523D

 29 31  0  0  1  0  0  0  0  0999 V2000
  187.3690  178.2890  147.6340 S   0  0  0  0  0  0  0  0  0  0  0  0
  184.6470  178.2950  147.2630 C   0  0  0  0  0  2  0  0  0  0  0  0
  184.7420  178.0380  145.7640 C   0  0  2  0  0  3  0  0  0  0  0  0
  186.0700  178.5720  145.2040 C   0  0  1  0  0  3  0  0  0  0  0  0
  185.7430  177.5550  148.0110 C   0  0  0  0  0  2  0  0  0  0  0  0
  187.2980  177.9110  145.8500 C   0  0  2  0  0  3  0  0  0  0  0  0
  183.6660  178.6670  145.1360 O   0  0  0  0  0  1  0  0  0  0  0  0
  186.1360  178.5280  143.7050 C   0  0  0  0  0  0  0  0  0  0  0  0
  186.3460  179.5930  143.0670 O   0  0  0  0  0  0  0  0  0  0  0  0
  186.0000  177.2840  143.0110 N   0  0  0  0  0  2  0  0  0  0  0  0
  186.0250  177.1850  141.5580 C   0  0  0  0  0  2  0  0  0  0  0  0
  187.4510  176.9940  141.0590 C   0  0  0  0  0  2  0  0  0  0  0  0
  188.0930  175.7460  141.6520 C   0  0  0  0  0  2  0  0  0  0  0  0
  189.3430  176.0910  142.4460 C   0  0  0  0  0  2  0  0  0  0  0  0
  190.8620  177.9180  143.1370 C   0  0  0  0  0  1  0  0  0  0  0  0
  189.4930  177.5950  142.5790 C   0  0  0  0  0  2  0  0  0  0  0  0
  187.3800  176.4010  145.6260 C   0  0  0  0  0  2  0  0  0  0  0  0
  188.3670  175.8020  146.5170 N   0  0  0  0  0  2  0  0  0  0  0  0
  189.7010  175.4590  146.1220 C   0  0  0  0  0  0  0  0  0  0  0  0
  189.9410  174.2840  145.4900 C   0  0  0  0  0  3  0  0  0  0  0  0
  193.6470  174.6130  144.8330 N   0  0  0  0  0  0  0  0  0  0  0  0
  190.8140  176.4590  146.4240 C   0  0  2  0  0  3  0  0  0  0  0  0
  191.2920  173.8890  145.0290 C   0  0  0  0  0  0  0  0  0  0  0  0
  192.2940  174.7370  145.2270 C   0  0  0  0  0  0  0  0  0  0  0  0
  192.1270  175.9960  145.8660 C   0  0  0  0  0  0  0  0  0  0  0  0
  190.9380  176.6530  147.9250 C   0  0  0  0  0  1  0  0  0  0  0  0
  191.4970  172.6470  144.3660 N   0  0  0  0  0  1  0  0  0  0  0  0
  193.2500  176.6250  145.8830 N   0  0  0  0  0  0  0  0  0  0  0  0
  194.1760  175.7350  145.2310 C   0  0  0  0  0  3  0  0  0  0  0  0
  1  5  1  0  0  0  0
  2  5  1  0  0  0  0
  3  7  1  6  0  0  0
  3  2  1  0  0  0  0
  4  8  1  6  0  0  0
  4  3  1  0  0  0  0
  4  6  1  0  0  0  0
  6 17  1  1  0  0  0
  6  1  1  0  0  0  0
  9  8  2  0  0  0  0
 10  8  1  0  0  0  0
 11 10  1  0  0  0  0
 12 11  1  0  0  0  0
 12 13  1  0  0  0  0
 13 14  1  0  0  0  0
 14 16  1  0  0  0  0
 16 15  1  0  0  0  0
 17 18  1  0  0  0  0
 19 22  1  0  0  0  0
 19 18  1  0  0  0  0
 20 19  2  0  0  0  0
 21 24  1  0  0  0  0
 21 29  2  0  0  0  0
 22 26  1  1  0  0  0
 23 24  2  0  0  0  0
 23 20  1  0  0  0  0
 24 25  1  0  0  0  0
 25 28  2  0  0  0  0
 25 22  1  0  0  0  0
 27 23  1  0  0  0  0
 29 28  1  0  0  0  0
M  END
>  <MODEL>
6

>  <REMARK>
 VINA RESULT:      -6.1      2.186      4.146
  Name = 
  9 active torsions:
  status: ('A' for Active; 'I' for Inactive)
    1  A    between atoms: C_1  and  C_24
    2  A    between atoms: C_2  and  N_5
    3  A    between atoms: C_3  and  C_17
    4  A    between atoms: C_3  and  C_19
    5  A    between atoms: N_5  and  C_6
    6  A    between atoms: C_6  and  C_26
    7  A    between atoms: N_16  and  C_19
    8  A    between atoms: C_17  and  C_23
    9  A    between atoms: C_23  and  C_29
                            x       y       z     vdW  Elec       q    Type
                         _______ _______ _______ _____ _____    ______ ____

>  <TORSDO>
F 9

$$$$
=
 OpenBabel11042416523D

 29 31  0  0  1  0  0  0  0  0999 V2000
  189.7920  174.1220  144.8950 S   0  0  0  0  0  0  0  0  0  0  0  0
  189.3500  173.5630  142.2420 C   0  0  0  0  0  2  0  0  0  0  0  0
  189.1020  175.0180  141.8650 C   0  0  2  0  0  3  0  0  0  0  0  0
  188.5680  175.8080  143.0700 C   0  0  1  0  0  3  0  0  0  0  0  0
  190.4190  173.4560  143.3170 C   0  0  0  0  0  2  0  0  0  0  0  0
  189.5430  175.8140  144.2580 C   0  0  2  0  0  3  0  0  0  0  0  0
  188.1800  175.0550  140.8170 O   0  0  0  0  0  1  0  0  0  0  0  0
  188.1170  177.1940  142.7110 C   0  0  0  0  0  0  0  0  0  0  0  0
  188.9000  177.9500  142.0770 O   0  0  0  0  0  0  0  0  0  0  0  0
  186.8010  177.6390  143.0520 N   0  0  0  0  0  2  0  0  0  0  0  0
  186.3210  178.9830  142.7580 C   0  0  0  0  0  2  0  0  0  0  0  0
  185.5980  179.5690  143.9630 C   0  0  0  0  0  2  0  0  0  0  0  0
  185.9340  178.8150  145.2440 C   0  0  0  0  0  2  0  0  0  0  0  0
  184.7430  178.0150  145.7440 C   0  0  0  0  0  2  0  0  0  0  0  0
  186.7170  176.7860  146.5890 C   0  0  0  0  0  1  0  0  0  0  0  0
  185.2060  176.7940  146.5170 C   0  0  0  0  0  2  0  0  0  0  0  0
  190.8910  176.4680  143.9520 C   0  0  0  0  0  2  0  0  0  0  0  0
  191.8840  176.0890  144.9500 N   0  0  0  0  0  2  0  0  0  0  0  0
  193.2410  175.7450  144.6430 C   0  0  0  0  0  0  0  0  0  0  0  0
  193.8180  176.2060  143.5070 C   0  0  0  0  0  3  0  0  0  0  0  0
  197.3100  174.8230  143.9110 N   0  0  0  0  0  0  0  0  0  0  0  0
  193.9960  174.8670  145.6380 C   0  0  2  0  0  3  0  0  0  0  0  0
  195.2240  175.9120  143.1520 C   0  0  0  0  0  0  0  0  0  0  0  0
  195.9460  175.1870  143.9980 C   0  0  0  0  0  0  0  0  0  0  0  0
  195.4240  174.6780  145.2190 C   0  0  0  0  0  0  0  0  0  0  0  0
  193.3150  173.5140  145.7510 C   0  0  0  0  0  1  0  0  0  0  0  0
  195.7900  176.4210  141.9490 N   0  0  0  0  0  1  0  0  0  0  0  0
  196.3500  174.0530  145.8580 N   0  0  0  0  0  0  0  0  0  0  0  0
  197.5130  174.1620  145.0150 C   0  0  0  0  0  3  0  0  0  0  0  0
  2  5  1  0  0  0  0
  3  7  1  6  0  0  0
  3  2  1  0  0  0  0
  3  4  1  0  0  0  0
  4  8  1  6  0  0  0
  4  6  1  0  0  0  0
  5  1  1  0  0  0  0
  6 17  1  6  0  0  0
  6  1  1  0  0  0  0
  8 10  1  0  0  0  0
  9  8  2  0  0  0  0
 11 10  1  0  0  0  0
 11 12  1  0  0  0  0
 12 13  1  0  0  0  0
 13 14  1  0  0  0  0
 14 16  1  0  0  0  0
 16 15  1  0  0  0  0
 17 18  1  0  0  0  0
 19 18  1  0  0  0  0
 19 22  1  0  0  0  0
 20 19  2  0  0  0  0
 21 24  1  0  0  0  0
 21 29  2  0  0  0  0
 22 26  1  6  0  0  0
 23 20  1  0  0  0  0
 23 24  2  0  0  0  0
 24 25  1  0  0  0  0
 25 22  1  0  0  0  0
 25 28  2  0  0  0  0
 27 23  1  0  0  0  0
 29 28  1  0  0  0  0
M  END
>  <MODEL>
7

>  <REMARK>
 VINA RESULT:      -6.0      2.754      5.959
  Name = 
  9 active torsions:
  status: ('A' for Active; 'I' for Inactive)
    1  A    between atoms: C_1  and  C_24
    2  A    between atoms: C_2  and  N_5
    3  A    between atoms: C_3  and  C_17
    4  A    between atoms: C_3  and  C_19
    5  A    between atoms: N_5  and  C_6
    6  A    between atoms: C_6  and  C_26
    7  A    between atoms: N_16  and  C_19
    8  A    between atoms: C_17  and  C_23
    9  A    between atoms: C_23  and  C_29
                            x       y       z     vdW  Elec       q    Type
                         _______ _______ _______ _____ _____    ______ ____

>  <TORSDO>
F 9

$$$$
=
 OpenBabel11042416523D

 29 31  0  0  1  0  0  0  0  0999 V2000
  192.5120  175.8770  144.0780 S   0  0  0  0  0  0  0  0  0  0  0  0
  192.3840  176.3750  146.7770 C   0  0  0  0  0  2  0  0  0  0  0  0
  190.8620  176.4330  146.8040 C   0  0  2  0  0  3  0  0  0  0  0  0
  190.3100  176.8680  145.4370 C   0  0  1  0  0  3  0  0  0  0  0  0
  192.8700  175.3340  145.7820 C   0  0  0  0  0  2  0  0  0  0  0  0
  190.7010  175.9050  144.3040 C   0  0  2  0  0  3  0  0  0  0  0  0
  190.4690  177.3380  147.7920 O   0  0  0  0  0  1  0  0  0  0  0  0
  188.8340  177.1350  145.4570 C   0  0  0  0  0  0  0  0  0  0  0  0
  188.3380  177.9110  144.5980 O   0  0  0  0  0  0  0  0  0  0  0  0
  187.9930  176.4870  146.4170 N   0  0  0  0  0  2  0  0  0  0  0  0
  186.5600  176.7330  146.5030 C   0  0  0  0  0  2  0  0  0  0  0  0
  186.2710  177.8940  147.4460 C   0  0  0  0  0  2  0  0  0  0  0  0
  185.5700  179.0410  146.7280 C   0  0  0  0  0  2  0  0  0  0  0  0
  184.2420  178.5950  146.1370 C   0  0  0  0  0  2  0  0  0  0  0  0
  185.3270  179.7910  144.2630 C   0  0  0  0  0  1  0  0  0  0  0  0
  184.2150  178.8370  144.6400 C   0  0  0  0  0  2  0  0  0  0  0  0
  190.1680  174.4830  144.4860 C   0  0  0  0  0  2  0  0  0  0  0  0
  189.1190  174.1990  143.5130 N   0  0  0  0  0  2  0  0  0  0  0  0
  189.3530  174.0110  142.1120 C   0  0  0  0  0  0  0  0  0  0  0  0
  190.4790  173.3870  141.6890 C   0  0  0  0  0  3  0  0  0  0  0  0
  189.8700  173.3420  137.9610 N   0  0  0  0  0  0  0  0  0  0  0  0
  188.2940  174.5210  141.1380 C   0  0  0  0  0  0  0  0  0  0  0  0
  190.7610  173.1350  140.2580 C   0  0  0  0  0  0  0  0  0  0  0  0
  189.8570  173.5190  139.3640 C   0  0  2  0  0  3  0  0  0  0  0  0
  188.6420  174.1650  139.7230 C   0  0  0  0  0  0  0  0  0  0  0  0
  188.1610  176.0290  141.2650 C   0  0  0  0  0  1  0  0  0  0  0  0
  191.9550  172.4720  139.8590 N   0  0  0  0  0  1  0  0  0  0  0  0
  187.9390  174.3820  138.6660 N   0  0  0  0  0  0  0  0  0  0  0  0
  188.7350  173.8580  137.5850 C   0  0  0  0  0  3  0  0  0  0  0  0
  1  6  1  0  0  0  0
  1  5  1  0  0  0  0
  2  3  1  0  0  0  0
  3  7  1  1  0  0  0
  4  8  1  1  0  0  0
  4  3  1  0  0  0  0
  5  2  1  0  0  0  0
  6 17  1  1  0  0  0
  6  4  1  0  0  0  0
  8 10  1  0  0  0  0
  9  8  2  0  0  0  0
 10 11  1  0  0  0  0
 11 12  1  0  0  0  0
 13 12  1  0  0  0  0
 14 13  1  0  0  0  0
 15 16  1  0  0  0  0
 16 14  1  0  0  0  0
 18 17  1  0  0  0  0
 19 18  1  0  0  0  0
 20 19  1  0  0  0  0
 22 26  1  0  0  0  0
 22 19  2  0  0  0  0
 23 20  2  0  0  0  0
 24 21  1  1  0  0  0
 24 25  1  0  0  0  0
 24 23  1  0  0  0  0
 25 22  1  0  0  0  0
 27 23  1  0  0  0  0
 28 25  2  0  0  0  0
 29 21  2  0  0  0  0
 29 28  1  0  0  0  0
M  END
>  <MODEL>
8

>  <REMARK>
 VINA RESULT:      -6.0      2.639      5.787
  Name = 
  9 active torsions:
  status: ('A' for Active; 'I' for Inactive)
    1  A    between atoms: C_1  and  C_24
    2  A    between atoms: C_2  and  N_5
    3  A    between atoms: C_3  and  C_17
    4  A    between atoms: C_3  and  C_19
    5  A    between atoms: N_5  and  C_6
    6  A    between atoms: C_6  and  C_26
    7  A    between atoms: N_16  and  C_19
    8  A    between atoms: C_17  and  C_23
    9  A    between atoms: C_23  and  C_29
                            x       y       z     vdW  Elec       q    Type
                         _______ _______ _______ _____ _____    ______ ____

>  <TORSDO>
F 9

$$$$
=
 OpenBabel11042416523D

 29 31  0  0  1  0  0  0  0  0999 V2000
  189.7980  174.0000  140.5050 S   0  0  0  0  0  0  0  0  0  0  0  0
  190.0730  171.7270  142.0230 C   0  0  0  0  0  2  0  0  0  0  0  0
  189.8840  172.4570  143.3470 C   0  0  2  0  0  3  0  0  0  0  0  0
  190.3210  173.9260  143.2250 C   0  0  1  0  0  3  0  0  0  0  0  0
  189.1990  172.3340  140.9380 C   0  0  0  0  0  2  0  0  0  0  0  0
  189.5180  174.7010  142.1680 C   0  0  2  0  0  3  0  0  0  0  0  0
  190.6400  171.8080  144.3240 O   0  0  0  0  0  1  0  0  0  0  0  0
  190.3450  174.6430  144.5430 C   0  0  0  0  0  0  0  0  0  0  0  0
  189.4390  174.4100  145.3860 O   0  0  0  0  0  0  0  0  0  0  0  0
  191.4060  175.5520  144.8540 N   0  0  0  0  0  2  0  0  0  0  0  0
  191.4640  176.2990  146.1030 C   0  0  0  0  0  2  0  0  0  0  0  0
  192.9060  176.4480  146.5710 C   0  0  0  0  0  2  0  0  0  0  0  0
  193.8930  175.9600  145.5180 C   0  0  0  0  0  2  0  0  0  0  0  0
  194.9870  175.1050  146.1380 C   0  0  0  0  0  2  0  0  0  0  0  0
  193.8700  173.0440  145.3460 C   0  0  0  0  0  1  0  0  0  0  0  0
  195.1690  173.8200  145.3540 C   0  0  0  0  0  2  0  0  0  0  0  0
  188.0200  174.7810  142.4620 C   0  0  0  0  0  2  0  0  0  0  0  0
  187.5230  176.1330  142.2320 N   0  0  0  0  0  2  0  0  0  0  0  0
  186.6130  176.8140  143.1050 C   0  0  0  0  0  0  0  0  0  0  0  0
  185.4920  177.3870  142.6040 C   0  0  0  0  0  3  0  0  0  0  0  0
  183.8950  178.6460  145.7880 N   0  0  0  0  0  0  0  0  0  0  0  0
  186.9480  176.8510  144.5940 C   0  0  2  0  0  3  0  0  0  0  0  0
  184.4990  178.0750  143.4600 C   0  0  0  0  0  0  0  0  0  0  0  0
  184.7140  178.1050  144.7700 C   0  0  0  0  0  0  0  0  0  0  0  0
  185.8560  177.5150  145.3790 C   0  0  0  0  0  0  0  0  0  0  0  0
  188.2540  177.5960  144.8090 C   0  0  0  0  0  1  0  0  0  0  0  0
  183.3330  178.6600  142.8920 N   0  0  0  0  0  1  0  0  0  0  0  0
  185.7840  177.6540  146.6570 N   0  0  0  0  0  0  0  0  0  0  0  0
  184.5510  178.3640  146.8780 C   0  0  0  0  0  3  0  0  0  0  0  0
  1  5  1  0  0  0  0
  1  6  1  0  0  0  0
  2  3  1  0  0  0  0
  3  7  1  1  0  0  0
  4  3  1  0  0  0  0
  4  8  1  1  0  0  0
  5  2  1  0  0  0  0
  6 17  1  1  0  0  0
  6  4  1  0  0  0  0
  8 10  1  0  0  0  0
  8  9  2  0  0  0  0
 10 11  1  0  0  0  0
 11 12  1  0  0  0  0
 13 14  1  0  0  0  0
 13 12  1  0  0  0  0
 15 16  1  0  0  0  0
 16 14  1  0  0  0  0
 18 17  1  0  0  0  0
 18 19  1  0  0  0  0
 19 22  1  0  0  0  0
 20 19  2  0  0  0  0
 20 23  1  0  0  0  0
 21 29  2  0  0  0  0
 22 26  1  6  0  0  0
 22 25  1  0  0  0  0
 23 24  2  0  0  0  0
 24 25  1  0  0  0  0
 24 21  1  0  0  0  0
 25 28  2  0  0  0  0
 27 23  1  0  0  0  0
 28 29  1  0  0  0  0
M  END
>  <MODEL>
9

>  <REMARK>
 VINA RESULT:      -6.0      2.852      6.052
  Name = 
  9 active torsions:
  status: ('A' for Active; 'I' for Inactive)
    1  A    between atoms: C_1  and  C_24
    2  A    between atoms: C_2  and  N_5
    3  A    between atoms: C_3  and  C_17
    4  A    between atoms: C_3  and  C_19
    5  A    between atoms: N_5  and  C_6
    6  A    between atoms: C_6  and  C_26
    7  A    between atoms: N_16  and  C_19
    8  A    between atoms: C_17  and  C_23
    9  A    between atoms: C_23  and  C_29
                            x       y       z     vdW  Elec       q    Type
                         _______ _______ _______ _____ _____    ______ ____

>  <TORSDO>
F 9

$$$$
