=
 OpenBabel11042416543D

 35 40  0  0  1  0  0  0  0  0999 V2000
  194.5460  177.5320  146.9540 O   0  0  0  0  0  0  0  0  0  0  0  0
  195.1340  176.0750  143.9230 C   0  0  0  0  0  0  0  0  0  0  0  0
  195.4580  177.0410  144.8620 O   0  0  0  0  0  0  0  0  0  0  0  0
  195.7690  175.9010  142.8480 O   0  0  0  0  0  0  0  0  0  0  0  0
  193.9990  175.2710  144.3840 C   0  0  0  0  0  0  0  0  0  0  0  0
  194.5510  176.8530  145.8930 C   0  0  0  0  0  0  0  0  0  0  0  0
  193.6380  175.7500  145.5790 C   0  0  0  0  0  0  0  0  0  0  0  0
  197.3900  169.7960  146.6590 F   0  0  0  0  0  0  0  0  0  0  0  0
  191.4360  171.9110  143.6600 N   0  0  0  0  0  1  0  0  0  0  0  0
  196.4650  170.5830  146.0580 C   0  0  0  0  0  0  0  0  0  0  0  0
  194.5800  172.2100  144.8500 C   0  0  0  0  0  0  0  0  0  0  0  0
  195.8330  172.7590  145.1290 C   0  0  0  0  0  3  0  0  0  0  0  0
  192.7970  174.2750  142.6060 O   0  0  0  0  0  0  0  0  0  0  0  0
  193.0300  170.6030  144.7310 N   0  0  0  0  0  0  0  0  0  0  0  0
  196.7810  171.9240  145.7470 C   0  0  0  0  0  3  0  0  0  0  0  0
  195.1940  170.0570  145.7510 C   0  0  0  0  0  3  0  0  0  0  0  0
  192.6090  171.7720  144.1830 C   0  0  0  0  0  0  0  0  0  0  0  0
  193.5210  172.7800  144.2460 N   0  0  0  0  0  0  0  0  0  0  0  0
  194.2770  170.9070  145.1390 C   0  0  0  0  0  0  0  0  0  0  0  0
  193.4150  174.1040  143.6910 C   0  0  0  0  0  0  0  0  0  0  0  0
  191.8860  176.2510  147.2570 C   0  0  0  0  0  2  0  0  0  0  0  0
  191.1570  175.6820  146.1130 N   0  0  0  0  0  0  0  0  0  0  0  0
  192.5310  175.2090  146.4600 C   0  0  1  0  0  3  0  0  0  0  0  0
  191.1160  176.7440  145.1090 C   0  0  0  0  0  2  0  0  0  0  0  0
  190.1760  176.3570  143.9830 C   0  0  0  0  0  2  0  0  0  0  0  0
  189.0180  175.7320  144.5170 O   0  0  0  0  0  0  0  0  0  0  0  0
  185.2410  178.6330  143.8740 C   0  0  0  0  0  3  0  0  0  0  0  0
  187.1340  176.4490  146.1090 C   0  0  0  0  0  2  0  0  0  0  0  0
  186.1510  177.7620  144.4710 C   0  0  0  0  0  0  0  0  0  0  0  0
  184.0290  178.6860  145.9960 C   0  0  0  0  0  3  0  0  0  0  0  0
  186.0180  177.3640  145.7740 C   0  0  0  0  0  0  0  0  0  0  0  0
  187.2930  177.1880  143.8650 N   0  0  0  0  0  0  0  0  0  0  0  0
  184.1680  179.0980  144.6540 C   0  0  0  0  0  3  0  0  0  0  0  0
  184.9630  177.8060  146.5700 C   0  0  0  0  0  3  0  0  0  0  0  0
  187.8520  176.4510  144.7780 C   0  0  0  0  0  0  0  0  0  0  0  0
  2  5  1  0  0  0  0
  2  3  1  0  0  0  0
  3  6  1  0  0  0  0
  4  2  2  0  0  0  0
  5  7  2  0  0  0  0
  6  1  2  0  0  0  0
  7  6  1  0  0  0  0
  9 17  1  0  0  0  0
 10  8  1  0  0  0  0
 11 12  2  0  0  0  0
 11 19  1  0  0  0  0
 12 15  1  0  0  0  0
 13 20  2  0  0  0  0
 14 19  1  0  0  0  0
 15 10  2  0  0  0  0
 16 10  1  0  0  0  0
 17 18  1  0  0  0  0
 17 14  2  0  0  0  0
 18 11  1  0  0  0  0
 19 16  2  0  0  0  0
 20 18  1  0  0  0  0
 20  5  1  0  0  0  0
 22 23  1  0  0  0  0
 22 21  1  0  0  0  0
 23  7  1  6  0  0  0
 23 21  1  0  0  0  0
 24 22  1  0  0  0  0
 25 26  1  0  0  0  0
 25 24  1  0  0  0  0
 26 35  1  0  0  0  0
 27 29  2  0  0  0  0
 27 33  1  0  0  0  0
 29 31  1  0  0  0  0
 30 34  1  0  0  0  0
 31 28  1  0  0  0  0
 31 34  2  0  0  0  0
 32 29  1  0  0  0  0
 32 35  2  0  0  0  0
 33 30  2  0  0  0  0
 35 28  1  0  0  0  0
M  END
>  <MODEL>
1

>  <REMARK>
 VINA RESULT:      -8.1      0.000      0.000
  Name = 
  6 active torsions:
  status: ('A' for Active; 'I' for Inactive)
    1  A    between atoms: O_4  and  C_25
    2  A    between atoms: O_4  and  C_34
    3  A    between atoms: N_9  and  C_12
    4  A    between atoms: C_12  and  C_25
    5  A    between atoms: C_22  and  C_35
    6  A    between atoms: C_29  and  C_33
                            x       y       z     vdW  Elec       q    Type
                         _______ _______ _______ _____ _____    ______ ____

>  <TORSDO>
F 6

$$$$
=
 OpenBabel11042416543D

 35 40  0  0  1  0  0  0  0  0999 V2000
  192.7340  177.0490  147.5470 O   0  0  0  0  0  0  0  0  0  0  0  0
  190.0100  175.0350  147.1200 C   0  0  0  0  0  0  0  0  0  0  0  0
  190.8580  175.7260  147.9710 O   0  0  0  0  0  0  0  0  0  0  0  0
  188.9920  174.4030  147.5080 O   0  0  0  0  0  0  0  0  0  0  0  0
  190.4390  175.1940  145.7280 C   0  0  0  0  0  0  0  0  0  0  0  0
  191.8010  176.3080  147.1380 C   0  0  0  0  0  0  0  0  0  0  0  0
  191.5340  175.9610  145.7390 C   0  0  0  0  0  0  0  0  0  0  0  0
  185.5430  179.7060  144.2050 F   0  0  0  0  0  0  0  0  0  0  0  0
  189.4990  174.5650  141.5920 N   0  0  0  0  0  1  0  0  0  0  0  0
  186.4120  178.6690  144.1270 C   0  0  0  0  0  0  0  0  0  0  0  0
  188.2040  176.5660  143.9820 C   0  0  0  0  0  0  0  0  0  0  0  0
  187.8990  177.0780  145.2440 C   0  0  0  0  0  3  0  0  0  0  0  0
  189.8170  173.4360  144.2710 O   0  0  0  0  0  0  0  0  0  0  0  0
  188.0490  176.3720  141.7590 N   0  0  0  0  0  0  0  0  0  0  0  0
  186.9910  178.1490  145.3050 C   0  0  0  0  0  3  0  0  0  0  0  0
  186.7320  178.1210  142.8680 C   0  0  0  0  0  3  0  0  0  0  0  0
  188.8800  175.4460  142.3040 C   0  0  0  0  0  0  0  0  0  0  0  0
  189.0110  175.5390  143.6550 N   0  0  0  0  0  0  0  0  0  0  0  0
  187.6340  177.0610  142.8400 C   0  0  0  0  0  0  0  0  0  0  0  0
  189.7460  174.6670  144.5340 C   0  0  0  0  0  0  0  0  0  0  0  0
  193.7370  176.5850  144.7950 C   0  0  0  0  0  2  0  0  0  0  0  0
  193.2950  175.4390  143.9860 N   0  0  0  0  0  0  0  0  0  0  0  0
  192.3100  176.4260  144.5240 C   0  0  1  0  0  3  0  0  0  0  0  0
  193.4990  174.2630  144.8290 C   0  0  0  0  0  2  0  0  0  0  0  0
  193.4980  173.0080  143.9780 C   0  0  0  0  0  2  0  0  0  0  0  0
  194.7980  172.4380  143.9630 O   0  0  0  0  0  0  0  0  0  0  0  0
  194.5230  168.9180  147.2240 C   0  0  0  0  0  3  0  0  0  0  0  0
  196.6210  171.1730  145.2580 C   0  0  0  0  0  2  0  0  0  0  0  0
  195.0430  169.8790  146.3590 C   0  0  0  0  0  0  0  0  0  0  0  0
  196.8170  168.3880  147.8780 C   0  0  0  0  0  3  0  0  0  0  0  0
  196.3900  170.0960  146.2490 C   0  0  0  0  0  0  0  0  0  0  0  0
  194.3070  170.7380  145.5090 N   0  0  0  0  0  0  0  0  0  0  0  0
  195.4280  168.1670  147.9920 C   0  0  0  0  0  3  0  0  0  0  0  0
  197.3120  169.3640  146.9960 C   0  0  0  0  0  3  0  0  0  0  0  0
  195.1840  171.4680  144.8890 C   0  0  0  0  0  0  0  0  0  0  0  0
  2  4  2  0  0  0  0
  2  3  1  0  0  0  0
  5  7  2  0  0  0  0
  5  2  1  0  0  0  0
  6  1  2  0  0  0  0
  6  3  1  0  0  0  0
  7  6  1  0  0  0  0
  9 17  1  0  0  0  0
 10  8  1  0  0  0  0
 10 15  1  0  0  0  0
 11 12  1  0  0  0  0
 12 15  2  0  0  0  0
 13 20  2  0  0  0  0
 14 17  2  0  0  0  0
 14 19  1  0  0  0  0
 16 10  2  0  0  0  0
 17 18  1  0  0  0  0
 18 11  1  0  0  0  0
 18 20  1  0  0  0  0
 19 16  1  0  0  0  0
 19 11  2  0  0  0  0
 20  5  1  0  0  0  0
 22 23  1  0  0  0  0
 22 21  1  0  0  0  0
 22 24  1  0  0  0  0
 23 21  1  0  0  0  0
 23  7  1  1  0  0  0
 25 24  1  0  0  0  0
 26 25  1  0  0  0  0
 26 35  1  0  0  0  0
 27 33  1  0  0  0  0
 28 31  1  0  0  0  0
 29 27  2  0  0  0  0
 30 33  2  0  0  0  0
 31 29  1  0  0  0  0
 31 34  2  0  0  0  0
 32 29  1  0  0  0  0
 34 30  1  0  0  0  0
 35 28  1  0  0  0  0
 35 32  2  0  0  0  0
M  END
>  <MODEL>
2

>  <REMARK>
 VINA RESULT:      -8.0      3.325      9.117
  Name = 
  6 active torsions:
  status: ('A' for Active; 'I' for Inactive)
    1  A    between atoms: O_4  and  C_25
    2  A    between atoms: O_4  and  C_34
    3  A    between atoms: N_9  and  C_12
    4  A    between atoms: C_12  and  C_25
    5  A    between atoms: C_22  and  C_35
    6  A    between atoms: C_29  and  C_33
                            x       y       z     vdW  Elec       q    Type
                         _______ _______ _______ _____ _____    ______ ____

>  <TORSDO>
F 6

$$$$
=
 OpenBabel11042416543D

 35 40  0  0  1  0  0  0  0  0999 V2000
  195.7530  176.4210  144.1430 O   0  0  0  0  0  0  0  0  0  0  0  0
  193.4680  175.1650  141.9390 C   0  0  0  0  0  0  0  0  0  0  0  0
  194.6040  175.9230  142.1730 O   0  0  0  0  0  0  0  0  0  0  0  0
  192.9980  174.9430  140.7910 O   0  0  0  0  0  0  0  0  0  0  0  0
  192.9400  174.6290  143.1970 C   0  0  0  0  0  0  0  0  0  0  0  0
  194.7910  175.8690  143.5450 C   0  0  0  0  0  0  0  0  0  0  0  0
  193.7400  175.0660  144.1750 C   0  0  0  0  0  0  0  0  0  0  0  0
  187.4190  178.2380  141.4260 F   0  0  0  0  0  0  0  0  0  0  0  0
  189.9450  171.7530  142.1280 N   0  0  0  0  0  1  0  0  0  0  0  0
  188.2380  177.2080  141.7480 C   0  0  0  0  0  0  0  0  0  0  0  0
  189.9330  175.1180  142.3960 C   0  0  0  0  0  0  0  0  0  0  0  0
  190.3180  176.4090  142.7630 C   0  0  0  0  0  3  0  0  0  0  0  0
  191.8830  172.7130  144.0970 O   0  0  0  0  0  0  0  0  0  0  0  0
  188.5860  173.5470  141.5500 N   0  0  0  0  0  0  0  0  0  0  0  0
  189.4520  177.4630  142.4250 C   0  0  0  0  0  3  0  0  0  0  0  0
  187.8730  175.8910  141.4030 C   0  0  0  0  0  3  0  0  0  0  0  0
  189.7090  173.0230  142.1060 C   0  0  0  0  0  0  0  0  0  0  0  0
  190.5610  173.9490  142.6220 N   0  0  0  0  0  0  0  0  0  0  0  0
  188.7520  174.8680  141.7510 C   0  0  0  0  0  0  0  0  0  0  0  0
  191.7860  173.7190  143.3430 C   0  0  0  0  0  0  0  0  0  0  0  0
  194.0020  175.8480  146.5110 C   0  0  0  0  0  2  0  0  0  0  0  0
  192.5730  175.5220  146.3830 N   0  0  0  0  0  0  0  0  0  0  0  0
  193.6090  174.7360  145.6480 C   0  0  1  0  0  3  0  0  0  0  0  0
  191.9880  176.6220  145.6180 C   0  0  0  0  0  2  0  0  0  0  0  0
  190.8090  177.2090  146.3700 C   0  0  0  0  0  2  0  0  0  0  0  0
  189.6740  176.3700  146.2130 O   0  0  0  0  0  0  0  0  0  0  0  0
  186.0140  179.0900  144.6970 C   0  0  0  0  0  3  0  0  0  0  0  0
  187.1960  176.4160  146.8880 C   0  0  0  0  0  2  0  0  0  0  0  0
  186.7460  178.1290  145.3920 C   0  0  0  0  0  0  0  0  0  0  0  0
  184.0440  178.3780  145.9550 C   0  0  0  0  0  3  0  0  0  0  0  0
  186.1640  177.3210  146.3320 C   0  0  0  0  0  0  0  0  0  0  0  0
  188.1260  177.8520  145.2510 N   0  0  0  0  0  0  0  0  0  0  0  0
  184.6450  179.2120  144.9880 C   0  0  0  0  0  3  0  0  0  0  0  0
  184.8070  177.4170  146.6400 C   0  0  0  0  0  3  0  0  0  0  0  0
  188.3880  176.8940  146.0880 C   0  0  0  0  0  0  0  0  0  0  0  0
  2  3  1  0  0  0  0
  2  5  1  0  0  0  0
  3  6  1  0  0  0  0
  4  2  2  0  0  0  0
  5 20  1  0  0  0  0
  5  7  2  0  0  0  0
  6  1  2  0  0  0  0
  6  7  1  0  0  0  0
  8 10  1  0  0  0  0
 10 15  1  0  0  0  0
 11 18  1  0  0  0  0
 11 12  1  0  0  0  0
 14 19  1  0  0  0  0
 14 17  2  0  0  0  0
 15 12  2  0  0  0  0
 16 10  2  0  0  0  0
 16 19  1  0  0  0  0
 17  9  1  0  0  0  0
 17 18  1  0  0  0  0
 18 20  1  0  0  0  0
 19 11  2  0  0  0  0
 20 13  2  0  0  0  0
 22 21  1  0  0  0  0
 23  7  1  6  0  0  0
 23 22  1  0  0  0  0
 23 21  1  0  0  0  0
 24 25  1  0  0  0  0
 24 22  1  0  0  0  0
 26 25  1  0  0  0  0
 27 33  2  0  0  0  0
 27 29  1  0  0  0  0
 29 31  2  0  0  0  0
 30 34  2  0  0  0  0
 31 34  1  0  0  0  0
 31 28  1  0  0  0  0
 32 29  1  0  0  0  0
 32 35  2  0  0  0  0
 33 30  1  0  0  0  0
 35 26  1  0  0  0  0
 35 28  1  0  0  0  0
M  END
>  <MODEL>
3

>  <REMARK>
 VINA RESULT:      -7.8      3.306      4.883
  Name = 
  6 active torsions:
  status: ('A' for Active; 'I' for Inactive)
    1  A    between atoms: O_4  and  C_25
    2  A    between atoms: O_4  and  C_34
    3  A    between atoms: N_9  and  C_12
    4  A    between atoms: C_12  and  C_25
    5  A    between atoms: C_22  and  C_35
    6  A    between atoms: C_29  and  C_33
                            x       y       z     vdW  Elec       q    Type
                         _______ _______ _______ _____ _____    ______ ____

>  <TORSDO>
F 6

$$$$
=
 OpenBabel11042416543D

 35 40  0  0  1  0  0  0  0  0999 V2000
  188.1490  173.7510  141.1970 O   0  0  0  0  0  0  0  0  0  0  0  0
  188.4410  177.0820  141.8910 C   0  0  0  0  0  0  0  0  0  0  0  0
  188.0860  176.0770  141.0040 O   0  0  0  0  0  0  0  0  0  0  0  0
  188.2920  178.3100  141.6520 O   0  0  0  0  0  0  0  0  0  0  0  0
  188.9540  176.5090  143.1380 C   0  0  0  0  0  0  0  0  0  0  0  0
  188.3670  174.8960  141.6740 C   0  0  0  0  0  0  0  0  0  0  0  0
  188.9180  175.1790  143.0030 C   0  0  0  0  0  0  0  0  0  0  0  0
  183.2020  178.8700  145.9640 F   0  0  0  0  0  0  0  0  0  0  0  0
  189.8930  177.2870  147.2480 N   0  0  0  0  0  1  0  0  0  0  0  0
  184.4980  178.5230  145.7730 C   0  0  0  0  0  0  0  0  0  0  0  0
  187.1370  177.7940  145.3670 C   0  0  0  0  0  0  0  0  0  0  0  0
  186.3230  177.9530  144.2440 C   0  0  0  0  0  3  0  0  0  0  0  0
  190.5410  177.7010  144.4270 O   0  0  0  0  0  0  0  0  0  0  0  0
  187.6550  177.8360  147.5420 N   0  0  0  0  0  0  0  0  0  0  0  0
  184.9830  178.3190  144.4620 C   0  0  0  0  0  3  0  0  0  0  0  0
  185.3500  178.3660  146.8850 C   0  0  0  0  0  3  0  0  0  0  0  0
  188.7210  177.5270  146.7600 C   0  0  0  0  0  0  0  0  0  0  0  0
  188.4440  177.4800  145.4290 N   0  0  0  0  0  0  0  0  0  0  0  0
  186.6710  178.0040  146.6370 C   0  0  0  0  0  0  0  0  0  0  0  0
  189.3620  177.2610  144.3420 C   0  0  0  0  0  0  0  0  0  0  0  0
  189.9190  172.9630  143.4780 C   0  0  0  0  0  2  0  0  0  0  0  0
  190.7880  173.9240  144.1750 N   0  0  0  0  0  0  0  0  0  0  0  0
  189.3180  174.1640  144.0550 C   0  0  1  0  0  3  0  0  0  0  0  0
  191.5940  174.5520  143.1300 C   0  0  0  0  0  2  0  0  0  0  0  0
  192.9370  174.9760  143.6950 C   0  0  0  0  0  2  0  0  0  0  0  0
  193.1040  174.4320  144.9950 O   0  0  0  0  0  0  0  0  0  0  0  0
  194.7290  170.0110  145.9470 C   0  0  0  0  0  3  0  0  0  0  0  0
  195.4890  173.5220  145.2790 C   0  0  0  0  0  2  0  0  0  0  0  0
  194.7020  171.3770  145.6710 C   0  0  0  0  0  0  0  0  0  0  0  0
  197.1670  170.1640  146.0300 C   0  0  0  0  0  3  0  0  0  0  0  0
  195.8500  172.1160  145.5770 C   0  0  0  0  0  0  0  0  0  0  0  0
  193.5510  172.1730  145.4600 N   0  0  0  0  0  0  0  0  0  0  0  0
  195.9830  169.4030  146.1290 C   0  0  0  0  0  3  0  0  0  0  0  0
  197.1070  171.5400  145.7500 C   0  0  0  0  0  3  0  0  0  0  0  0
  193.9840  173.3780  145.2420 C   0  0  0  0  0  0  0  0  0  0  0  0
  1  6  2  0  0  0  0
  2  5  1  0  0  0  0
  3  6  1  0  0  0  0
  3  2  1  0  0  0  0
  4  2  2  0  0  0  0
  5 20  1  0  0  0  0
  6  7  1  0  0  0  0
  7  5  2  0  0  0  0
 10  8  1  0  0  0  0
 10 16  1  0  0  0  0
 11 18  1  0  0  0  0
 11 19  1  0  0  0  0
 12 15  1  0  0  0  0
 12 11  2  0  0  0  0
 15 10  2  0  0  0  0
 17  9  1  0  0  0  0
 17 14  2  0  0  0  0
 18 17  1  0  0  0  0
 19 16  2  0  0  0  0
 19 14  1  0  0  0  0
 20 13  2  0  0  0  0
 20 18  1  0  0  0  0
 21 23  1  0  0  0  0
 21 22  1  0  0  0  0
 23  7  1  6  0  0  0
 23 22  1  0  0  0  0
 24 25  1  0  0  0  0
 24 22  1  0  0  0  0
 25 26  1  0  0  0  0
 26 35  1  0  0  0  0
 27 33  1  0  0  0  0
 28 31  1  0  0  0  0
 29 27  2  0  0  0  0
 30 33  2  0  0  0  0
 31 29  1  0  0  0  0
 31 34  2  0  0  0  0
 32 29  1  0  0  0  0
 34 30  1  0  0  0  0
 35 28  1  0  0  0  0
 35 32  2  0  0  0  0
M  END
>  <MODEL>
4

>  <REMARK>
 VINA RESULT:      -7.8      3.511      9.545
  Name = 
  6 active torsions:
  status: ('A' for Active; 'I' for Inactive)
    1  A    between atoms: O_4  and  C_25
    2  A    between atoms: O_4  and  C_34
    3  A    between atoms: N_9  and  C_12
    4  A    between atoms: C_12  and  C_25
    5  A    between atoms: C_22  and  C_35
    6  A    between atoms: C_29  and  C_33
                            x       y       z     vdW  Elec       q    Type
                         _______ _______ _______ _____ _____    ______ ____

>  <TORSDO>
F 6

$$$$
=
 OpenBabel11042416543D

 35 40  0  0  1  0  0  0  0  0999 V2000
  191.9340  174.8970  142.0460 O   0  0  0  0  0  0  0  0  0  0  0  0
  191.1550  177.8600  143.5540 C   0  0  0  0  0  0  0  0  0  0  0  0
  191.8820  177.1640  142.6010 O   0  0  0  0  0  0  0  0  0  0  0  0
  191.1990  179.1110  143.6920 O   0  0  0  0  0  0  0  0  0  0  0  0
  190.3080  176.9440  144.3230 C   0  0  0  0  0  0  0  0  0  0  0  0
  191.5040  175.8400  142.7620 C   0  0  0  0  0  0  0  0  0  0  0  0
  190.5270  175.7140  143.8480 C   0  0  0  0  0  0  0  0  0  0  0  0
  184.4550  178.3860  141.1130 F   0  0  0  0  0  0  0  0  0  0  0  0
  187.2150  176.5200  147.2620 N   0  0  0  0  0  1  0  0  0  0  0  0
  185.3610  178.1120  142.0820 C   0  0  0  0  0  0  0  0  0  0  0  0
  187.2270  177.5360  144.0430 C   0  0  0  0  0  0  0  0  0  0  0  0
  187.6950  178.0060  142.8160 C   0  0  0  0  0  3  0  0  0  0  0  0
  189.7670  177.7230  146.4910 O   0  0  0  0  0  0  0  0  0  0  0  0
  185.6920  176.9570  145.5640 N   0  0  0  0  0  0  0  0  0  0  0  0
  186.7390  178.2910  141.8250 C   0  0  0  0  0  3  0  0  0  0  0  0
  184.9210  177.6470  143.3380 C   0  0  0  0  0  3  0  0  0  0  0  0
  186.9580  176.8860  146.0510 C   0  0  0  0  0  0  0  0  0  0  0  0
  187.9220  177.2200  145.1520 N   0  0  0  0  0  0  0  0  0  0  0  0
  185.8920  177.3730  144.2980 C   0  0  0  0  0  0  0  0  0  0  0  0
  189.3410  177.3230  145.3740 C   0  0  0  0  0  0  0  0  0  0  0  0
  190.5800  173.2390  143.9330 C   0  0  0  0  0  2  0  0  0  0  0  0
  190.5920  173.6630  145.3420 N   0  0  0  0  0  0  0  0  0  0  0  0
  189.8440  174.4430  144.3110 C   0  0  1  0  0  3  0  0  0  0  0  0
  191.9510  174.1370  145.5960 C   0  0  0  0  0  2  0  0  0  0  0  0
  191.9940  174.9180  146.8960 C   0  0  0  0  0  2  0  0  0  0  0  0
  192.9800  175.9350  146.8120 O   0  0  0  0  0  0  0  0  0  0  0  0
  196.0940  176.7840  143.2510 C   0  0  0  0  0  3  0  0  0  0  0  0
  195.1570  174.7500  146.1380 C   0  0  0  0  0  2  0  0  0  0  0  0
  195.4880  176.2090  144.3670 C   0  0  0  0  0  0  0  0  0  0  0  0
  197.8500  175.0960  143.4390 C   0  0  0  0  0  3  0  0  0  0  0  0
  196.0300  175.1220  145.0000 C   0  0  0  0  0  0  0  0  0  0  0  0
  194.2860  176.6260  144.9850 N   0  0  0  0  0  0  0  0  0  0  0  0
  197.2910  176.2140  142.7860 C   0  0  0  0  0  3  0  0  0  0  0  0
  197.2170  174.5370  144.5620 C   0  0  0  0  0  3  0  0  0  0  0  0
  194.0920  175.8110  145.9790 C   0  0  0  0  0  0  0  0  0  0  0  0
  1  6  2  0  0  0  0
  2  4  2  0  0  0  0
  2  5  1  0  0  0  0
  3  6  1  0  0  0  0
  3  2  1  0  0  0  0
  5 20  1  0  0  0  0
  6  7  1  0  0  0  0
  7  5  2  0  0  0  0
  8 10  1  0  0  0  0
 10 16  1  0  0  0  0
 11 19  1  0  0  0  0
 11 18  1  0  0  0  0
 12 11  2  0  0  0  0
 14 17  2  0  0  0  0
 15 10  2  0  0  0  0
 15 12  1  0  0  0  0
 16 19  2  0  0  0  0
 17  9  1  0  0  0  0
 18 20  1  0  0  0  0
 18 17  1  0  0  0  0
 19 14  1  0  0  0  0
 20 13  2  0  0  0  0
 21 23  1  0  0  0  0
 21 22  1  0  0  0  0
 22 24  1  0  0  0  0
 23  7  1  6  0  0  0
 23 22  1  0  0  0  0
 24 25  1  0  0  0  0
 26 25  1  0  0  0  0
 27 29  1  0  0  0  0
 29 32  1  0  0  0  0
 29 31  2  0  0  0  0
 30 34  2  0  0  0  0
 31 28  1  0  0  0  0
 32 35  2  0  0  0  0
 33 27  2  0  0  0  0
 33 30  1  0  0  0  0
 34 31  1  0  0  0  0
 35 28  1  0  0  0  0
 35 26  1  0  0  0  0
M  END
>  <MODEL>
5

>  <REMARK>
 VINA RESULT:      -7.7      3.692      8.763
  Name = 
  6 active torsions:
  status: ('A' for Active; 'I' for Inactive)
    1  A    between atoms: O_4  and  C_25
    2  A    between atoms: O_4  and  C_34
    3  A    between atoms: N_9  and  C_12
    4  A    between atoms: C_12  and  C_25
    5  A    between atoms: C_22  and  C_35
    6  A    between atoms: C_29  and  C_33
                            x       y       z     vdW  Elec       q    Type
                         _______ _______ _______ _____ _____    ______ ____

>  <TORSDO>
F 6

$$$$
=
 OpenBabel11042416543D

 35 40  0  0  1  0  0  0  0  0999 V2000
  189.9030  176.4910  142.4400 O   0  0  0  0  0  0  0  0  0  0  0  0
  191.5960  173.5270  142.4770 C   0  0  0  0  0  0  0  0  0  0  0  0
  190.5430  174.2910  141.9980 O   0  0  0  0  0  0  0  0  0  0  0  0
  191.8410  172.3530  142.0910 O   0  0  0  0  0  0  0  0  0  0  0  0
  192.3900  174.2940  143.4400 C   0  0  0  0  0  0  0  0  0  0  0  0
  190.6690  175.5120  142.6410 C   0  0  0  0  0  0  0  0  0  0  0  0
  191.8210  175.4990  143.5470 C   0  0  0  0  0  0  0  0  0  0  0  0
  197.5340  175.9640  139.2690 F   0  0  0  0  0  0  0  0  0  0  0  0
  195.9010  174.4450  145.8980 N   0  0  0  0  0  1  0  0  0  0  0  0
  196.8330  175.5690  140.3600 C   0  0  0  0  0  0  0  0  0  0  0  0
  195.3810  174.7810  142.5790 C   0  0  0  0  0  0  0  0  0  0  0  0
  194.7610  174.7010  141.3320 C   0  0  0  0  0  3  0  0  0  0  0  0
  193.5640  172.9400  144.9860 O   0  0  0  0  0  0  0  0  0  0  0  0
  197.0570  175.1550  144.0120 N   0  0  0  0  0  0  0  0  0  0  0  0
  195.5060  175.1090  140.2110 C   0  0  0  0  0  3  0  0  0  0  0  0
  197.4340  175.6260  141.6330 C   0  0  0  0  0  3  0  0  0  0  0  0
  195.9500  174.6620  144.6260 C   0  0  0  0  0  0  0  0  0  0  0  0
  194.9030  174.4320  143.7880 N   0  0  0  0  0  0  0  0  0  0  0  0
  196.6710  175.2160  142.7230 C   0  0  0  0  0  0  0  0  0  0  0  0
  193.6290  173.8420  144.1080 C   0  0  0  0  0  0  0  0  0  0  0  0
  191.2300  177.4740  144.9190 C   0  0  0  0  0  2  0  0  0  0  0  0
  191.9350  176.5740  145.8440 N   0  0  0  0  0  0  0  0  0  0  0  0
  192.3170  176.6470  144.4020 C   0  0  1  0  0  3  0  0  0  0  0  0
  190.9780  175.5170  146.1660 C   0  0  0  0  0  2  0  0  0  0  0  0
  189.9880  176.0110  147.2040 C   0  0  0  0  0  2  0  0  0  0  0  0
  188.6930  175.5100  146.9080 O   0  0  0  0  0  0  0  0  0  0  0  0
  186.1700  178.6740  144.3150 C   0  0  0  0  0  3  0  0  0  0  0  0
  186.3640  176.5330  147.2700 C   0  0  0  0  0  2  0  0  0  0  0  0
  186.5300  177.7800  145.3220 C   0  0  0  0  0  0  0  0  0  0  0  0
  184.0600  179.0240  145.4970 C   0  0  0  0  0  3  0  0  0  0  0  0
  185.7000  177.5120  146.3780 C   0  0  0  0  0  0  0  0  0  0  0  0
  187.7400  177.0530  145.4140 N   0  0  0  0  0  0  0  0  0  0  0  0
  184.9160  179.3020  144.4110 C   0  0  0  0  0  3  0  0  0  0  0  0
  184.4510  178.1180  146.4980 C   0  0  0  0  0  3  0  0  0  0  0  0
  187.6570  176.3520  146.5050 C   0  0  0  0  0  0  0  0  0  0  0  0
  1  6  2  0  0  0  0
  2  5  1  0  0  0  0
  3  2  1  0  0  0  0
  3  6  1  0  0  0  0
  4  2  2  0  0  0  0
  5  7  2  0  0  0  0
  5 20  1  0  0  0  0
  6  7  1  0  0  0  0
  8 10  1  0  0  0  0
 10 16  1  0  0  0  0
 11 19  1  0  0  0  0
 11 18  1  0  0  0  0
 12 11  2  0  0  0  0
 14 17  2  0  0  0  0
 15 10  2  0  0  0  0
 15 12  1  0  0  0  0
 16 19  2  0  0  0  0
 17  9  1  0  0  0  0
 18 20  1  0  0  0  0
 18 17  1  0  0  0  0
 19 14  1  0  0  0  0
 20 13  2  0  0  0  0
 21 22  1  0  0  0  0
 22 24  1  0  0  0  0
 23  7  1  6  0  0  0
 23 21  1  0  0  0  0
 23 22  1  0  0  0  0
 24 25  1  0  0  0  0
 26 25  1  0  0  0  0
 27 33  2  0  0  0  0
 27 29  1  0  0  0  0
 29 32  1  0  0  0  0
 29 31  2  0  0  0  0
 30 34  2  0  0  0  0
 31 34  1  0  0  0  0
 31 28  1  0  0  0  0
 32 35  2  0  0  0  0
 33 30  1  0  0  0  0
 35 26  1  0  0  0  0
 35 28  1  0  0  0  0
M  END
>  <MODEL>
6

>  <REMARK>
 VINA RESULT:      -7.7      3.014      4.232
  Name = 
  6 active torsions:
  status: ('A' for Active; 'I' for Inactive)
    1  A    between atoms: O_4  and  C_25
    2  A    between atoms: O_4  and  C_34
    3  A    between atoms: N_9  and  C_12
    4  A    between atoms: C_12  and  C_25
    5  A    between atoms: C_22  and  C_35
    6  A    between atoms: C_29  and  C_33
                            x       y       z     vdW  Elec       q    Type
                         _______ _______ _______ _____ _____    ______ ____

>  <TORSDO>
F 6

$$$$
=
 OpenBabel11042416543D

 35 40  0  0  1  0  0  0  0  0999 V2000
  191.4120  175.2940  147.6620 O   0  0  0  0  0  0  0  0  0  0  0  0
  193.9860  176.6440  145.8700 C   0  0  0  0  0  0  0  0  0  0  0  0
  193.2360  176.6090  147.0350 O   0  0  0  0  0  0  0  0  0  0  0  0
  194.9920  177.3850  145.7060 O   0  0  0  0  0  0  0  0  0  0  0  0
  193.4730  175.6720  144.9000 C   0  0  0  0  0  0  0  0  0  0  0  0
  192.2730  175.6380  146.8090 C   0  0  0  0  0  0  0  0  0  0  0  0
  192.4240  175.0670  145.4680 C   0  0  0  0  0  0  0  0  0  0  0  0
  197.7770  170.4530  145.8400 F   0  0  0  0  0  0  0  0  0  0  0  0
  193.9420  173.8250  141.0590 N   0  0  0  0  0  1  0  0  0  0  0  0
  196.9880  171.3860  145.2520 C   0  0  0  0  0  0  0  0  0  0  0  0
  195.3610  173.2900  144.0750 C   0  0  0  0  0  0  0  0  0  0  0  0
  195.7780  173.5100  145.3890 C   0  0  0  0  0  3  0  0  0  0  0  0
  194.0460  176.2570  142.6800 O   0  0  0  0  0  0  0  0  0  0  0  0
  195.2570  172.2240  142.1120 N   0  0  0  0  0  0  0  0  0  0  0  0
  196.6010  172.5340  145.9790 C   0  0  0  0  0  3  0  0  0  0  0  0
  196.5590  171.2000  143.9220 C   0  0  0  0  0  3  0  0  0  0  0  0
  194.5740  173.3980  142.1020 C   0  0  0  0  0  0  0  0  0  0  0  0
  194.6040  174.0720  143.2840 N   0  0  0  0  0  0  0  0  0  0  0  0
  195.7460  172.1840  143.3660 C   0  0  0  0  0  0  0  0  0  0  0  0
  194.0530  175.3700  143.5750 C   0  0  0  0  0  0  0  0  0  0  0  0
  190.1650  174.1130  145.1190 C   0  0  0  0  0  2  0  0  0  0  0  0
  190.6680  174.3900  143.7640 N   0  0  0  0  0  0  0  0  0  0  0  0
  191.5940  173.9580  144.8540 C   0  0  1  0  0  3  0  0  0  0  0  0
  190.5610  175.8380  143.5970 C   0  0  0  0  0  2  0  0  0  0  0  0
  189.3560  176.1740  142.7380 C   0  0  0  0  0  2  0  0  0  0  0  0
  188.9390  177.5060  142.9970 O   0  0  0  0  0  0  0  0  0  0  0  0
  186.0450  177.9250  146.8100 C   0  0  0  0  0  3  0  0  0  0  0  0
  186.5150  178.3300  143.2100 C   0  0  0  0  0  2  0  0  0  0  0  0
  186.5170  177.9680  145.5000 C   0  0  0  0  0  0  0  0  0  0  0  0
  183.9180  178.7990  145.9830 C   0  0  0  0  0  3  0  0  0  0  0  0
  185.7330  178.4050  144.4660 C   0  0  0  0  0  0  0  0  0  0  0  0
  187.8040  177.5870  145.0520 N   0  0  0  0  0  0  0  0  0  0  0  0
  184.7250  178.3470  147.0470 C   0  0  0  0  0  3  0  0  0  0  0  0
  184.4220  178.8320  144.6710 C   0  0  0  0  0  3  0  0  0  0  0  0
  187.8110  177.7840  143.7680 C   0  0  0  0  0  0  0  0  0  0  0  0
  2  3  1  0  0  0  0
  4  2  2  0  0  0  0
  5  7  2  0  0  0  0
  5  2  1  0  0  0  0
  6  3  1  0  0  0  0
  6  1  2  0  0  0  0
  7  6  1  0  0  0  0
  9 17  1  0  0  0  0
 10  8  1  0  0  0  0
 10 15  1  0  0  0  0
 11 12  1  0  0  0  0
 12 15  2  0  0  0  0
 13 20  2  0  0  0  0
 14 19  1  0  0  0  0
 16 10  2  0  0  0  0
 17 14  2  0  0  0  0
 17 18  1  0  0  0  0
 18 20  1  0  0  0  0
 18 11  1  0  0  0  0
 19 16  1  0  0  0  0
 19 11  2  0  0  0  0
 20  5  1  0  0  0  0
 22 23  1  0  0  0  0
 22 21  1  0  0  0  0
 23 21  1  0  0  0  0
 23  7  1  1  0  0  0
 24 22  1  0  0  0  0
 25 26  1  0  0  0  0
 25 24  1  0  0  0  0
 26 35  1  0  0  0  0
 27 33  1  0  0  0  0
 28 35  1  0  0  0  0
 28 31  1  0  0  0  0
 29 27  2  0  0  0  0
 30 33  2  0  0  0  0
 31 34  2  0  0  0  0
 31 29  1  0  0  0  0
 32 29  1  0  0  0  0
 34 30  1  0  0  0  0
 35 32  2  0  0  0  0
M  END
>  <MODEL>
7

>  <REMARK>
 VINA RESULT:      -7.7      1.693      2.407
  Name = 
  6 active torsions:
  status: ('A' for Active; 'I' for Inactive)
    1  A    between atoms: O_4  and  C_25
    2  A    between atoms: O_4  and  C_34
    3  A    between atoms: N_9  and  C_12
    4  A    between atoms: C_12  and  C_25
    5  A    between atoms: C_22  and  C_35
    6  A    between atoms: C_29  and  C_33
                            x       y       z     vdW  Elec       q    Type
                         _______ _______ _______ _____ _____    ______ ____

>  <TORSDO>
F 6

$$$$
=
 OpenBabel11042416543D

 35 40  0  0  1  0  0  0  0  0999 V2000
  192.0430  170.6140  141.2700 O   0  0  0  0  0  0  0  0  0  0  0  0
  193.3300  171.8350  144.1870 C   0  0  0  0  0  0  0  0  0  0  0  0
  192.9380  170.7480  143.4210 O   0  0  0  0  0  0  0  0  0  0  0  0
  193.8550  171.7340  145.3280 O   0  0  0  0  0  0  0  0  0  0  0  0
  193.0940  173.0850  143.4610 C   0  0  0  0  0  0  0  0  0  0  0  0
  192.4660  171.2980  142.2400 C   0  0  0  0  0  0  0  0  0  0  0  0
  192.5600  172.7600  142.2800 C   0  0  0  0  0  0  0  0  0  0  0  0
  188.2900  174.9040  147.9620 F   0  0  0  0  0  0  0  0  0  0  0  0
  194.8450  176.1680  145.8750 N   0  0  0  0  0  1  0  0  0  0  0  0
  189.4310  174.8820  147.2310 C   0  0  0  0  0  0  0  0  0  0  0  0
  191.7590  174.8070  145.7370 C   0  0  0  0  0  0  0  0  0  0  0  0
  190.6510  174.1080  145.2540 C   0  0  0  0  0  3  0  0  0  0  0  0
  194.1970  175.1640  143.2050 O   0  0  0  0  0  0  0  0  0  0  0  0
  192.8870  176.1480  147.1250 N   0  0  0  0  0  0  0  0  0  0  0  0
  189.4750  174.1490  146.0240 C   0  0  0  0  0  3  0  0  0  0  0  0
  190.5650  175.5860  147.6840 C   0  0  0  0  0  3  0  0  0  0  0  0
  193.6270  175.7760  146.0490 C   0  0  0  0  0  0  0  0  0  0  0  0
  192.9790  174.9480  145.1850 N   0  0  0  0  0  0  0  0  0  0  0  0
  191.7140  175.5270  146.9000 C   0  0  0  0  0  0  0  0  0  0  0  0
  193.4510  174.4440  143.9220 C   0  0  0  0  0  0  0  0  0  0  0  0
  191.2750  173.1310  140.1950 C   0  0  0  0  0  2  0  0  0  0  0  0
  190.7410  174.1190  141.1450 N   0  0  0  0  0  0  0  0  0  0  0  0
  192.1810  173.7250  141.1750 C   0  0  1  0  0  3  0  0  0  0  0  0
  189.8840  173.3630  142.0570 C   0  0  0  0  0  2  0  0  0  0  0  0
  188.4300  173.7190  141.8180 C   0  0  0  0  0  2  0  0  0  0  0  0
  188.3320  175.0630  141.3700 O   0  0  0  0  0  0  0  0  0  0  0  0
  186.7970  177.5010  145.2160 C   0  0  0  0  0  3  0  0  0  0  0  0
  187.0210  177.2620  141.5770 C   0  0  0  0  0  2  0  0  0  0  0  0
  187.0430  177.1410  143.8920 C   0  0  0  0  0  0  0  0  0  0  0  0
  185.6320  179.4770  144.3730 C   0  0  0  0  0  3  0  0  0  0  0  0
  186.6070  177.9070  142.8450 C   0  0  0  0  0  0  0  0  0  0  0  0
  187.7380  175.9930  143.4440 N   0  0  0  0  0  0  0  0  0  0  0  0
  186.0790  178.6860  145.4520 C   0  0  0  0  0  3  0  0  0  0  0  0
  185.8950  179.0890  143.0480 C   0  0  0  0  0  3  0  0  0  0  0  0
  187.7280  176.0520  142.1460 C   0  0  0  0  0  0  0  0  0  0  0  0
  1  6  2  0  0  0  0
  2  4  2  0  0  0  0
  3  2  1  0  0  0  0
  5 20  1  0  0  0  0
  5  2  1  0  0  0  0
  6  7  1  0  0  0  0
  6  3  1  0  0  0  0
  7  5  2  0  0  0  0
  9 17  1  0  0  0  0
 10 16  1  0  0  0  0
 10  8  1  0  0  0  0
 11 19  1  0  0  0  0
 12 11  2  0  0  0  0
 12 15  1  0  0  0  0
 13 20  2  0  0  0  0
 15 10  2  0  0  0  0
 17 14  2  0  0  0  0
 18 11  1  0  0  0  0
 18 17  1  0  0  0  0
 19 14  1  0  0  0  0
 19 16  2  0  0  0  0
 20 18  1  0  0  0  0
 21 22  1  0  0  0  0
 21 23  1  0  0  0  0
 22 23  1  0  0  0  0
 22 24  1  0  0  0  0
 23  7  1  1  0  0  0
 25 24  1  0  0  0  0
 26 25  1  0  0  0  0
 26 35  1  0  0  0  0
 27 33  1  0  0  0  0
 28 35  1  0  0  0  0
 28 31  1  0  0  0  0
 29 27  2  0  0  0  0
 30 33  2  0  0  0  0
 31 34  2  0  0  0  0
 31 29  1  0  0  0  0
 32 29  1  0  0  0  0
 34 30  1  0  0  0  0
 35 32  2  0  0  0  0
M  END
>  <MODEL>
8

>  <REMARK>
 VINA RESULT:      -7.6      3.036      5.253
  Name = 
  6 active torsions:
  status: ('A' for Active; 'I' for Inactive)
    1  A    between atoms: O_4  and  C_25
    2  A    between atoms: O_4  and  C_34
    3  A    between atoms: N_9  and  C_12
    4  A    between atoms: C_12  and  C_25
    5  A    between atoms: C_22  and  C_35
    6  A    between atoms: C_29  and  C_33
                            x       y       z     vdW  Elec       q    Type
                         _______ _______ _______ _____ _____    ______ ____

>  <TORSDO>
F 6

$$$$
=
 OpenBabel11042416543D

 35 40  0  0  1  0  0  0  0  0999 V2000
  195.9860  176.9610  144.2540 O   0  0  0  0  0  0  0  0  0  0  0  0
  195.1400  173.9870  142.8040 C   0  0  0  0  0  0  0  0  0  0  0  0
  195.8410  175.1820  142.7490 O   0  0  0  0  0  0  0  0  0  0  0  0
  195.2120  173.0920  141.9200 O   0  0  0  0  0  0  0  0  0  0  0  0
  194.3610  173.9060  144.0420 C   0  0  0  0  0  0  0  0  0  0  0  0
  195.5140  175.8400  143.9240 C   0  0  0  0  0  0  0  0  0  0  0  0
  194.5810  175.0370  144.7200 C   0  0  0  0  0  0  0  0  0  0  0  0
  188.4330  174.3400  140.6780 F   0  0  0  0  0  0  0  0  0  0  0  0
  192.6870  169.9580  144.0880 N   0  0  0  0  0  1  0  0  0  0  0  0
  189.4570  173.8730  141.4330 C   0  0  0  0  0  0  0  0  0  0  0  0
  191.5660  172.9360  142.9600 C   0  0  0  0  0  0  0  0  0  0  0  0
  191.4470  174.3160  142.7890 C   0  0  0  0  0  3  0  0  0  0  0  0
  193.8080  172.2030  145.5900 O   0  0  0  0  0  0  0  0  0  0  0  0
  190.9700  170.7900  142.7620 N   0  0  0  0  0  0  0  0  0  0  0  0
  190.3750  174.7810  142.0070 C   0  0  0  0  0  3  0  0  0  0  0  0
  189.5990  172.4860  141.6360 C   0  0  0  0  0  3  0  0  0  0  0  0
  192.0720  170.9520  143.5390 C   0  0  0  0  0  0  0  0  0  0  0  0
  192.4740  172.2450  143.6750 N   0  0  0  0  0  0  0  0  0  0  0  0
  190.6700  172.0560  142.4140 C   0  0  0  0  0  0  0  0  0  0  0  0
  193.5460  172.7560  144.4880 C   0  0  0  0  0  0  0  0  0  0  0  0
  194.1240  176.8110  146.3870 C   0  0  0  0  0  2  0  0  0  0  0  0
  192.8010  176.2580  146.0560 N   0  0  0  0  0  0  0  0  0  0  0  0
  194.0140  175.3860  146.0810 C   0  0  1  0  0  3  0  0  0  0  0  0
  192.4690  176.8000  144.7400 C   0  0  0  0  0  2  0  0  0  0  0  0
  191.1200  177.4930  144.7900 C   0  0  0  0  0  2  0  0  0  0  0  0
  190.1210  176.5700  145.1960 O   0  0  0  0  0  0  0  0  0  0  0  0
  185.9410  178.8860  144.6850 C   0  0  0  0  0  3  0  0  0  0  0  0
  187.9140  176.4040  146.5020 C   0  0  0  0  0  2  0  0  0  0  0  0
  186.9210  178.0200  145.1680 C   0  0  0  0  0  0  0  0  0  0  0  0
  184.4500  178.0320  146.4230 C   0  0  0  0  0  3  0  0  0  0  0  0
  186.6880  177.1910  146.2330 C   0  0  0  0  0  0  0  0  0  0  0  0
  188.2360  177.8690  144.6690 N   0  0  0  0  0  0  0  0  0  0  0  0
  184.6910  178.8870  145.3280 C   0  0  0  0  0  3  0  0  0  0  0  0
  185.4580  177.1690  146.8880 C   0  0  0  0  0  3  0  0  0  0  0  0
  188.8010  176.9660  145.4130 C   0  0  0  0  0  0  0  0  0  0  0  0
  2  5  1  0  0  0  0
  3  2  1  0  0  0  0
  3  6  1  0  0  0  0
  4  2  2  0  0  0  0
  5 20  1  0  0  0  0
  5  7  2  0  0  0  0
  6  1  2  0  0  0  0
  6  7  1  0  0  0  0
  8 10  1  0  0  0  0
 10 16  2  0  0  0  0
 10 15  1  0  0  0  0
 11 18  1  0  0  0  0
 12 11  1  0  0  0  0
 14 17  2  0  0  0  0
 15 12  2  0  0  0  0
 16 19  1  0  0  0  0
 17 18  1  0  0  0  0
 17  9  1  0  0  0  0
 18 20  1  0  0  0  0
 19 14  1  0  0  0  0
 19 11  2  0  0  0  0
 20 13  2  0  0  0  0
 22 23  1  0  0  0  0
 22 21  1  0  0  0  0
 23  7  1  6  0  0  0
 23 21  1  0  0  0  0
 24 25  1  0  0  0  0
 24 22  1  0  0  0  0
 25 26  1  0  0  0  0
 26 35  1  0  0  0  0
 27 29  2  0  0  0  0
 27 33  1  0  0  0  0
 29 31  1  0  0  0  0
 30 34  1  0  0  0  0
 31 28  1  0  0  0  0
 31 34  2  0  0  0  0
 32 29  1  0  0  0  0
 32 35  2  0  0  0  0
 33 30  2  0  0  0  0
 35 28  1  0  0  0  0
M  END
>  <MODEL>
9

>  <REMARK>
 VINA RESULT:      -7.5      2.630      3.786
  Name = 
  6 active torsions:
  status: ('A' for Active; 'I' for Inactive)
    1  A    between atoms: O_4  and  C_25
    2  A    between atoms: O_4  and  C_34
    3  A    between atoms: N_9  and  C_12
    4  A    between atoms: C_12  and  C_25
    5  A    between atoms: C_22  and  C_35
    6  A    between atoms: C_29  and  C_33
                            x       y       z     vdW  Elec       q    Type
                         _______ _______ _______ _____ _____    ______ ____

>  <TORSDO>
F 6

$$$$
