=
 OpenBabel11042418343D

 37 40  0  0  1  0  0  0  0  0999 V2000
  192.1130  175.8420  147.4090 C   0  0  0  0  0  3  0  0  0  0  0  0
  192.8150  174.4160  145.3400 C   0  0  0  0  0  0  0  0  0  0  0  0
  192.4710  175.1240  146.3830 C   0  0  0  0  0  0  0  0  0  0  0  0
  191.1300  176.8790  142.8540 C   0  0  1  0  0  3  0  0  0  0  0  0
  192.3930  174.7990  144.0240 N   0  0  0  0  0  2  0  0  0  0  0  0
  191.2740  177.3010  144.1450 N   0  0  0  0  0  0  0  0  0  0  0  0
  191.7490  176.0400  143.7320 C   0  0  0  0  0  0  0  0  0  0  0  0
  187.4610  176.8570  141.7310 C   0  0  0  0  0  0  0  0  0  0  0  0
  188.0490  174.6670  142.6070 C   0  0  0  0  0  3  0  0  0  0  0  0
  187.1160  175.5350  142.0430 C   0  0  0  0  0  3  0  0  0  0  0  0
  189.1570  178.6050  141.6720 O   0  0  0  0  0  1  0  0  0  0  0  0
  189.7120  176.4370  142.5980 C   0  0  0  0  0  0  0  0  0  0  0  0
  189.3410  175.1130  142.8770 C   0  0  0  0  0  3  0  0  0  0  0  0
  188.7740  177.3070  142.0000 C   0  0  0  0  0  0  0  0  0  0  0  0
  186.2370  177.7310  139.8730 O   0  0  0  0  0  0  0  0  0  0  0  0
  186.4290  177.7250  141.1180 C   0  0  0  0  0  0  0  0  0  0  0  0
  185.6510  178.5510  141.9210 O   0  0  0  0  0  1  0  0  0  0  0  0
  195.7100  174.1200  145.1840 O   0  0  0  0  0  0  0  0  0  0  0  0
  195.0020  173.1100  145.4450 C   0  0  0  0  0  0  0  0  0  0  0  0
  193.5770  173.2190  145.5440 N   0  0  0  0  0  2  0  0  0  0  0  0
  196.9250  171.6660  145.6960 N   0  0  0  0  0  0  0  0  0  0  0  0
  197.2580  170.3300  145.9130 N   0  0  0  0  0  2  0  0  0  0  0  0
  196.0540  169.5230  146.0190 C   0  0  2  0  0  3  0  0  0  0  0  0
  194.9110  170.5280  145.8530 C   0  0  0  0  0  2  0  0  0  0  0  0
  195.6480  171.8100  145.6570 C   0  0  0  0  0  0  0  0  0  0  0  0
  194.8690  168.5900  147.8810 O   0  0  0  0  0  0  0  0  0  0  0  0
  195.9820  168.8640  147.3580 C   0  0  0  0  0  0  0  0  0  0  0  0
  197.1550  168.5260  148.0180 O   0  0  0  0  0  1  0  0  0  0  0  0
  190.6810  176.1940  147.5970 C   0  0  0  0  0  2  0  0  0  0  0  0
  189.8190  175.3020  146.7240 C   0  0  0  0  0  2  0  0  0  0  0  0
  188.3810  175.3010  147.2210 C   0  0  0  0  0  2  0  0  0  0  0  0
  187.7160  177.0470  145.5650 C   0  0  0  0  0  2  0  0  0  0  0  0
  186.0700  178.0370  147.6790 C   0  0  0  0  0  2  0  0  0  0  0  0
  187.7450  176.6710  147.0540 C   0  0  1  0  0  3  0  0  0  0  0  0
  186.4480  176.6830  147.6020 O   0  0  0  0  0  0  0  0  0  0  0  0
  186.3970  177.7240  145.1780 C   0  0  0  0  0  2  0  0  0  0  0  0
  185.8980  178.6600  146.2830 C   0  0  0  0  0  2  0  0  0  0  0  0
  1 29  1  0  0  0  0
  2 20  1  0  0  0  0
  2  3  2  0  0  0  0
  3  1  2  0  0  0  0
  4 12  1  1  0  0  0
  4  7  1  0  0  0  0
  4  6  1  0  0  0  0
  5  2  1  0  0  0  0
  7  5  1  0  0  0  0
  7  6  2  0  0  0  0
  8 14  2  0  0  0  0
  8 10  1  0  0  0  0
  9 13  1  0  0  0  0
 10  9  2  0  0  0  0
 11 14  1  0  0  0  0
 12 13  2  0  0  0  0
 14 12  1  0  0  0  0
 15 16  2  0  0  0  0
 16  8  1  0  0  0  0
 16 17  1  0  0  0  0
 18 19  2  0  0  0  0
 19 20  1  0  0  0  0
 19 25  1  0  0  0  0
 21 22  1  0  0  0  0
 22 23  1  0  0  0  0
 23 27  1  1  0  0  0
 24 23  1  0  0  0  0
 25 21  2  0  0  0  0
 25 24  1  0  0  0  0
 27 26  2  0  0  0  0
 27 28  1  0  0  0  0
 30 31  1  0  0  0  0
 30 29  1  0  0  0  0
 32 34  1  0  0  0  0
 34 31  1  6  0  0  0
 34 35  1  0  0  0  0
 35 33  1  0  0  0  0
 36 32  1  0  0  0  0
 36 37  1  0  0  0  0
 37 33  1  0  0  0  0
M  END
>  <MODEL>
1

>  <REMARK>
 VINA RESULT:      -7.6      0.000      0.000
  Name = 
  10 active torsions:
  status: ('A' for Active; 'I' for Inactive)
    1  A    between atoms: C_1  and  C_15
    2  A    between atoms: C_6  and  C_36
    3  A    between atoms: C_7  and  C_26
    4  A    between atoms: C_8  and  C_24
    5  A    between atoms: C_9  and  C_34
    6  A    between atoms: N_11  and  C_13
    7  A    between atoms: C_13  and  N_20
    8  A    between atoms: C_16  and  C_26
    9  A    between atoms: C_16  and  C_34
   10  A    between atoms: C_18  and  C_29
                            x       y       z     vdW  Elec       q    Type
                         _______ _______ _______ _____ _____    ______ ____

>  <TORSDO>
F 10

$$$$
=
 OpenBabel11042418343D

 37 40  0  0  1  0  0  0  0  0999 V2000
  192.9080  176.3730  147.0610 C   0  0  0  0  0  3  0  0  0  0  0  0
  190.9840  176.4670  145.3000 C   0  0  0  0  0  0  0  0  0  0  0  0
  191.9400  176.4220  146.1910 C   0  0  0  0  0  0  0  0  0  0  0  0
  189.7360  175.0780  141.8940 C   0  0  1  0  0  3  0  0  0  0  0  0
  191.2070  175.9980  143.9630 N   0  0  0  0  0  2  0  0  0  0  0  0
  188.7840  175.4420  142.8030 N   0  0  0  0  0  0  0  0  0  0  0  0
  190.1570  175.5980  143.0820 C   0  0  0  0  0  0  0  0  0  0  0  0
  190.7050  171.5270  140.8090 C   0  0  0  0  0  0  0  0  0  0  0  0
  189.7040  171.4480  143.0220 C   0  0  0  0  0  3  0  0  0  0  0  0
  190.2890  170.8040  141.9340 C   0  0  0  0  0  3  0  0  0  0  0  0
  190.9540  173.6800  139.6960 O   0  0  0  0  0  1  0  0  0  0  0  0
  189.9030  173.5800  141.8760 C   0  0  0  0  0  0  0  0  0  0  0  0
  189.5190  172.8290  142.9960 C   0  0  0  0  0  3  0  0  0  0  0  0
  190.5210  172.9290  140.7860 C   0  0  0  0  0  0  0  0  0  0  0  0
  192.5660  170.5200  139.6980 O   0  0  0  0  0  1  0  0  0  0  0  0
  191.3350  170.7860  139.6920 C   0  0  0  0  0  0  0  0  0  0  0  0
  190.5630  170.3710  138.6130 O   0  0  0  0  0  0  0  0  0  0  0  0
  188.7800  175.1550  146.6830 O   0  0  0  0  0  0  0  0  0  0  0  0
  188.6590  176.3620  146.3400 C   0  0  0  0  0  0  0  0  0  0  0  0
  189.7270  177.0450  145.6720 N   0  0  0  0  0  2  0  0  0  0  0  0
  187.3300  177.9790  147.5500 N   0  0  0  0  0  0  0  0  0  0  0  0
  186.0350  178.4900  147.6130 N   0  0  0  0  0  2  0  0  0  0  0  0
  185.1880  177.8330  146.6310 C   0  0  2  0  0  3  0  0  0  0  0  0
  186.1220  176.8460  145.9270 C   0  0  0  0  0  2  0  0  0  0  0  0
  187.4130  177.0760  146.6370 C   0  0  0  0  0  0  0  0  0  0  0  0
  183.4040  178.9900  145.5240 O   0  0  0  0  0  1  0  0  0  0  0  0
  184.6480  178.8290  145.6570 C   0  0  0  0  0  0  0  0  0  0  0  0
  185.5250  179.6040  144.9120 O   0  0  0  0  0  0  0  0  0  0  0  0
  194.2380  176.9400  146.7160 C   0  0  0  0  0  2  0  0  0  0  0  0
  194.7890  176.2360  145.4910 C   0  0  0  0  0  2  0  0  0  0  0  0
  195.4840  174.9420  145.8880 C   0  0  0  0  0  2  0  0  0  0  0  0
  193.7980  173.1340  145.5390 C   0  0  0  0  0  2  0  0  0  0  0  0
  194.7760  173.1140  142.8560 C   0  0  0  0  0  2  0  0  0  0  0  0
  195.0650  173.7970  144.9800 C   0  0  1  0  0  3  0  0  0  0  0  0
  194.8530  174.2620  143.6670 O   0  0  0  0  0  0  0  0  0  0  0  0
  192.8060  172.7810  144.4260 C   0  0  0  0  0  2  0  0  0  0  0  0
  193.5240  172.2780  143.1700 C   0  0  0  0  0  2  0  0  0  0  0  0
  2 20  1  0  0  0  0
  2  3  2  0  0  0  0
  3  1  2  0  0  0  0
  4 12  1  1  0  0  0
  4  6  1  0  0  0  0
  4  7  1  0  0  0  0
  5  2  1  0  0  0  0
  6  7  2  0  0  0  0
  7  5  1  0  0  0  0
  8 10  1  0  0  0  0
 10  9  2  0  0  0  0
 11 14  1  0  0  0  0
 12 13  2  0  0  0  0
 13  9  1  0  0  0  0
 14  8  2  0  0  0  0
 14 12  1  0  0  0  0
 16 15  1  0  0  0  0
 16  8  1  0  0  0  0
 17 16  2  0  0  0  0
 19 25  1  0  0  0  0
 19 18  2  0  0  0  0
 20 19  1  0  0  0  0
 21 22  1  0  0  0  0
 23 27  1  6  0  0  0
 23 22  1  0  0  0  0
 24 23  1  0  0  0  0
 24 25  1  0  0  0  0
 25 21  2  0  0  0  0
 26 27  1  0  0  0  0
 28 27  2  0  0  0  0
 29  1  1  0  0  0  0
 30 31  1  0  0  0  0
 30 29  1  0  0  0  0
 33 37  1  0  0  0  0
 33 35  1  0  0  0  0
 34 32  1  0  0  0  0
 34 31  1  1  0  0  0
 35 34  1  0  0  0  0
 36 32  1  0  0  0  0
 37 36  1  0  0  0  0
M  END
>  <MODEL>
2

>  <REMARK>
 VINA RESULT:      -7.1      3.526      8.490
  Name = 
  10 active torsions:
  status: ('A' for Active; 'I' for Inactive)
    1  A    between atoms: C_1  and  C_15
    2  A    between atoms: C_6  and  C_36
    3  A    between atoms: C_7  and  C_26
    4  A    between atoms: C_8  and  C_24
    5  A    between atoms: C_9  and  C_34
    6  A    between atoms: N_11  and  C_13
    7  A    between atoms: C_13  and  N_20
    8  A    between atoms: C_16  and  C_26
    9  A    between atoms: C_16  and  C_34
   10  A    between atoms: C_18  and  C_29
                            x       y       z     vdW  Elec       q    Type
                         _______ _______ _______ _____ _____    ______ ____

>  <TORSDO>
F 10

$$$$
=
 OpenBabel11042418343D

 37 40  0  0  1  0  0  0  0  0999 V2000
  191.9060  175.2860  147.2420 C   0  0  0  0  0  3  0  0  0  0  0  0
  189.7840  174.8740  145.7820 C   0  0  0  0  0  0  0  0  0  0  0  0
  190.8410  175.0890  146.5190 C   0  0  0  0  0  0  0  0  0  0  0  0
  191.3680  171.8760  143.8860 C   0  0  1  0  0  3  0  0  0  0  0  0
  189.6930  173.7040  144.9560 N   0  0  0  0  0  2  0  0  0  0  0  0
  192.2010  172.6320  144.6600 N   0  0  0  0  0  0  0  0  0  0  0  0
  190.8220  172.9120  144.5840 C   0  0  0  0  0  0  0  0  0  0  0  0
  190.5790  172.7090  140.2240 C   0  0  0  0  0  0  0  0  0  0  0  0
  192.9670  172.9500  140.6080 C   0  0  0  0  0  3  0  0  0  0  0  0
  191.8650  173.0140  139.7580 C   0  0  0  0  0  3  0  0  0  0  0  0
  189.1400  172.0510  142.0770 O   0  0  0  0  0  1  0  0  0  0  0  0
  191.5290  172.2360  142.4310 C   0  0  0  0  0  0  0  0  0  0  0  0
  192.7990  172.5700  141.9380 C   0  0  0  0  0  3  0  0  0  0  0  0
  190.4090  172.3290  141.5750 C   0  0  0  0  0  0  0  0  0  0  0  0
  188.8980  171.7830  138.8010 O   0  0  0  0  0  0  0  0  0  0  0  0
  189.4460  172.8120  139.2750 C   0  0  0  0  0  0  0  0  0  0  0  0
  188.9710  174.0620  138.8950 O   0  0  0  0  0  1  0  0  0  0  0  0
  187.7790  175.3370  147.8450 O   0  0  0  0  0  0  0  0  0  0  0  0
  187.7630  176.0460  146.8030 C   0  0  0  0  0  0  0  0  0  0  0  0
  188.7420  175.8580  145.7730 N   0  0  0  0  0  2  0  0  0  0  0  0
  186.7650  178.1920  147.2950 N   0  0  0  0  0  0  0  0  0  0  0  0
  185.6710  178.9840  146.9520 N   0  0  0  0  0  2  0  0  0  0  0  0
  184.8400  178.2980  145.9760 C   0  0  2  0  0  3  0  0  0  0  0  0
  185.5610  176.9690  145.7360 C   0  0  0  0  0  2  0  0  0  0  0  0
  186.7360  177.0810  146.6480 C   0  0  0  0  0  0  0  0  0  0  0  0
  185.6030  179.9930  144.4630 O   0  0  0  0  0  1  0  0  0  0  0  0
  184.7610  179.0880  144.7100 C   0  0  0  0  0  0  0  0  0  0  0  0
  183.7650  178.8020  143.7870 O   0  0  0  0  0  0  0  0  0  0  0  0
  193.2500  175.2070  146.6120 C   0  0  0  0  0  2  0  0  0  0  0  0
  193.5210  176.4770  145.8290 C   0  0  0  0  0  2  0  0  0  0  0  0
  193.6240  176.1750  144.3430 C   0  0  0  0  0  2  0  0  0  0  0  0
  191.8490  175.9500  142.6020 C   0  0  0  0  0  2  0  0  0  0  0  0
  190.8870  178.4260  143.6520 C   0  0  0  0  0  2  0  0  0  0  0  0
  192.5560  176.9210  143.5590 C   0  0  1  0  0  3  0  0  0  0  0  0
  191.6340  177.5260  144.4350 O   0  0  0  0  0  0  0  0  0  0  0  0
  190.3380  176.1970  142.5600 C   0  0  0  0  0  2  0  0  0  0  0  0
  190.0090  177.6920  142.6240 C   0  0  0  0  0  2  0  0  0  0  0  0
  2  3  2  0  0  0  0
  3  1  2  0  0  0  0
  4 12  1  6  0  0  0
  4  7  1  0  0  0  0
  4  6  1  0  0  0  0
  5  2  1  0  0  0  0
  7  6  2  0  0  0  0
  7  5  1  0  0  0  0
  8 14  1  0  0  0  0
  9 13  2  0  0  0  0
 10  8  2  0  0  0  0
 10  9  1  0  0  0  0
 13 12  1  0  0  0  0
 14 11  1  0  0  0  0
 14 12  2  0  0  0  0
 15 16  2  0  0  0  0
 16  8  1  0  0  0  0
 17 16  1  0  0  0  0
 19 18  2  0  0  0  0
 20  2  1  0  0  0  0
 20 19  1  0  0  0  0
 22 21  1  0  0  0  0
 23 27  1  6  0  0  0
 23 22  1  0  0  0  0
 24 23  1  0  0  0  0
 24 25  1  0  0  0  0
 25 19  1  0  0  0  0
 25 21  2  0  0  0  0
 26 27  1  0  0  0  0
 28 27  2  0  0  0  0
 29  1  1  0  0  0  0
 30 29  1  0  0  0  0
 31 30  1  0  0  0  0
 32 34  1  0  0  0  0
 33 35  1  0  0  0  0
 34 31  1  1  0  0  0
 34 35  1  0  0  0  0
 36 32  1  0  0  0  0
 36 37  1  0  0  0  0
 37 33  1  0  0  0  0
M  END
>  <MODEL>
3

>  <REMARK>
 VINA RESULT:      -7.0      3.776      8.047
  Name = 
  10 active torsions:
  status: ('A' for Active; 'I' for Inactive)
    1  A    between atoms: C_1  and  C_15
    2  A    between atoms: C_6  and  C_36
    3  A    between atoms: C_7  and  C_26
    4  A    between atoms: C_8  and  C_24
    5  A    between atoms: C_9  and  C_34
    6  A    between atoms: N_11  and  C_13
    7  A    between atoms: C_13  and  N_20
    8  A    between atoms: C_16  and  C_26
    9  A    between atoms: C_16  and  C_34
   10  A    between atoms: C_18  and  C_29
                            x       y       z     vdW  Elec       q    Type
                         _______ _______ _______ _____ _____    ______ ____

>  <TORSDO>
F 10

$$$$
=
 OpenBabel11042418343D

 37 40  0  0  1  0  0  0  0  0999 V2000
  187.0150  178.6570  142.6960 C   0  0  0  0  0  3  0  0  0  0  0  0
  188.2920  176.4040  142.3740 C   0  0  0  0  0  0  0  0  0  0  0  0
  187.6600  177.5360  142.5440 C   0  0  0  0  0  0  0  0  0  0  0  0
  188.7580  173.1520  140.3000 C   0  0  1  0  0  3  0  0  0  0  0  0
  188.0070  175.5690  141.2430 N   0  0  0  0  0  2  0  0  0  0  0  0
  189.3830  173.2110  141.5140 N   0  0  0  0  0  0  0  0  0  0  0  0
  188.5780  174.2740  141.0560 C   0  0  0  0  0  0  0  0  0  0  0  0
  190.2460  174.0960  136.8910 C   0  0  0  0  0  0  0  0  0  0  0  0
  192.0470  173.5990  138.4470 C   0  0  0  0  0  3  0  0  0  0  0  0
  191.6130  173.9780  137.1780 C   0  0  0  0  0  3  0  0  0  0  0  0
  187.9390  173.9590  137.6640 O   0  0  0  0  0  1  0  0  0  0  0  0
  189.7420  173.4090  139.1870 C   0  0  0  0  0  0  0  0  0  0  0  0
  191.1170  173.3230  139.4470 C   0  0  0  0  0  3  0  0  0  0  0  0
  189.3040  173.8200  137.9090 C   0  0  0  0  0  0  0  0  0  0  0  0
  189.6120  173.6710  134.6270 O   0  0  0  0  0  0  0  0  0  0  0  0
  189.8490  174.5180  135.5280 C   0  0  0  0  0  0  0  0  0  0  0  0
  189.7330  175.8700  135.2280 O   0  0  0  0  0  1  0  0  0  0  0  0
  191.0650  177.2620  142.6410 O   0  0  0  0  0  0  0  0  0  0  0  0
  190.5990  176.4240  143.4600 C   0  0  0  0  0  0  0  0  0  0  0  0
  189.2360  175.9900  143.3700 N   0  0  0  0  0  2  0  0  0  0  0  0
  191.8610  174.6730  144.5490 N   0  0  0  0  0  0  0  0  0  0  0  0
  192.6670  174.4500  145.6640 N   0  0  0  0  0  2  0  0  0  0  0  0
  192.7910  175.6680  146.4470 C   0  0  2  0  0  3  0  0  0  0  0  0
  191.9680  176.7000  145.6710 C   0  0  0  0  0  2  0  0  0  0  0  0
  191.4610  175.8960  144.5220 C   0  0  0  0  0  0  0  0  0  0  0  0
  195.1500  175.2760  146.2860 O   0  0  0  0  0  0  0  0  0  0  0  0
  194.2210  176.0930  146.5290 C   0  0  0  0  0  0  0  0  0  0  0  0
  194.5280  177.4080  146.8490 O   0  0  0  0  0  1  0  0  0  0  0  0
  185.5300  178.6670  142.6280 C   0  0  0  0  0  2  0  0  0  0  0  0
  184.9770  179.5400  143.7390 C   0  0  0  0  0  2  0  0  0  0  0  0
  184.0110  178.7480  144.6070 C   0  0  0  0  0  2  0  0  0  0  0  0
  185.2570  176.8980  145.7310 C   0  0  0  0  0  2  0  0  0  0  0  0
  186.0150  178.9150  147.6060 C   0  0  0  0  0  2  0  0  0  0  0  0
  184.6770  178.3100  145.9020 C   0  0  1  0  0  3  0  0  0  0  0  0
  185.6800  179.2250  146.2750 O   0  0  0  0  0  0  0  0  0  0  0  0
  186.6320  176.7670  146.3940 C   0  0  0  0  0  2  0  0  0  0  0  0
  186.6950  177.5390  147.7160 C   0  0  0  0  0  2  0  0  0  0  0  0
  2  3  2  0  0  0  0
  2 20  1  0  0  0  0
  3  1  2  0  0  0  0
  4 12  1  6  0  0  0
  4  7  1  0  0  0  0
  4  6  1  0  0  0  0
  5  2  1  0  0  0  0
  7  5  1  0  0  0  0
  7  6  2  0  0  0  0
  8 10  2  0  0  0  0
  8 14  1  0  0  0  0
  9 13  2  0  0  0  0
 10  9  1  0  0  0  0
 11 14  1  0  0  0  0
 12 13  1  0  0  0  0
 14 12  2  0  0  0  0
 15 16  2  0  0  0  0
 16  8  1  0  0  0  0
 17 16  1  0  0  0  0
 18 19  2  0  0  0  0
 19 25  1  0  0  0  0
 20 19  1  0  0  0  0
 21 22  1  0  0  0  0
 22 23  1  0  0  0  0
 23 27  1  6  0  0  0
 24 23  1  0  0  0  0
 25 21  2  0  0  0  0
 25 24  1  0  0  0  0
 26 27  2  0  0  0  0
 27 28  1  0  0  0  0
 29  1  1  0  0  0  0
 29 30  1  0  0  0  0
 30 31  1  0  0  0  0
 32 34  1  0  0  0  0
 32 36  1  0  0  0  0
 33 37  1  0  0  0  0
 34 31  1  6  0  0  0
 34 35  1  0  0  0  0
 35 33  1  0  0  0  0
 36 37  1  0  0  0  0
M  END
>  <MODEL>
4

>  <REMARK>
 VINA RESULT:      -7.0      3.535      5.969
  Name = 
  10 active torsions:
  status: ('A' for Active; 'I' for Inactive)
    1  A    between atoms: C_1  and  C_15
    2  A    between atoms: C_6  and  C_36
    3  A    between atoms: C_7  and  C_26
    4  A    between atoms: C_8  and  C_24
    5  A    between atoms: C_9  and  C_34
    6  A    between atoms: N_11  and  C_13
    7  A    between atoms: C_13  and  N_20
    8  A    between atoms: C_16  and  C_26
    9  A    between atoms: C_16  and  C_34
   10  A    between atoms: C_18  and  C_29
                            x       y       z     vdW  Elec       q    Type
                         _______ _______ _______ _____ _____    ______ ____

>  <TORSDO>
F 10

$$$$
=
 OpenBabel11042418343D

 37 40  0  0  1  0  0  0  0  0999 V2000
  185.5840  178.3480  140.3670 C   0  0  0  0  0  3  0  0  0  0  0  0
  183.9680  178.1420  142.4040 C   0  0  0  0  0  0  0  0  0  0  0  0
  184.7700  178.2520  141.3780 C   0  0  0  0  0  0  0  0  0  0  0  0
  185.9410  178.4410  145.7370 C   0  0  1  0  0  3  0  0  0  0  0  0
  184.4420  177.6110  143.6490 N   0  0  0  0  0  2  0  0  0  0  0  0
  185.8340  179.5690  144.9750 N   0  0  0  0  0  0  0  0  0  0  0  0
  185.2240  178.3610  144.5800 C   0  0  0  0  0  0  0  0  0  0  0  0
  189.0640  176.2840  146.3070 C   0  0  0  0  0  0  0  0  0  0  0  0
  189.2910  177.4930  144.2100 C   0  0  0  0  0  3  0  0  0  0  0  0
  189.7950  176.6000  145.1540 C   0  0  0  0  0  3  0  0  0  0  0  0
  187.0370  176.5720  147.6280 O   0  0  0  0  0  1  0  0  0  0  0  0
  187.3030  177.8170  145.5670 C   0  0  0  0  0  0  0  0  0  0  0  0
  188.0500  178.0930  144.4120 C   0  0  0  0  0  3  0  0  0  0  0  0
  187.8020  176.8900  146.5080 C   0  0  0  0  0  0  0  0  0  0  0  0
  190.7770  175.5100  147.7820 O   0  0  0  0  0  1  0  0  0  0  0  0
  189.6470  175.3150  147.2630 C   0  0  0  0  0  0  0  0  0  0  0  0
  188.9410  174.1660  147.6020 O   0  0  0  0  0  0  0  0  0  0  0  0
  182.2340  177.5410  140.1400 O   0  0  0  0  0  0  0  0  0  0  0  0
  181.7750  178.2090  141.1060 C   0  0  0  0  0  0  0  0  0  0  0  0
  182.5930  178.5120  142.2430 N   0  0  0  0  0  2  0  0  0  0  0  0
  179.7440  179.0390  142.1210 N   0  0  0  0  0  0  0  0  0  0  0  0
  178.4480  179.4340  141.7900 N   0  0  0  0  0  2  0  0  0  0  0  0
  178.2320  179.3000  140.3580 C   0  0  2  0  0  3  0  0  0  0  0  0
  179.5680  178.7800  139.8230 C   0  0  0  0  0  2  0  0  0  0  0  0
  180.3840  178.6740  141.0670 C   0  0  0  0  0  0  0  0  0  0  0  0
  177.7490  180.7440  138.5080 O   0  0  0  0  0  0  0  0  0  0  0  0
  177.9050  180.6260  139.7530 C   0  0  0  0  0  0  0  0  0  0  0  0
  177.7440  181.7330  140.5750 O   0  0  0  0  0  1  0  0  0  0  0  0
  186.3870  177.1680  139.9520 C   0  0  0  0  0  2  0  0  0  0  0  0
  187.5570  176.9900  140.9010 C   0  0  0  0  0  2  0  0  0  0  0  0
  187.4810  175.6370  141.5920 C   0  0  0  0  0  2  0  0  0  0  0  0
  189.7490  174.6540  141.9470 C   0  0  0  0  0  2  0  0  0  0  0  0
  188.8790  172.6660  140.0890 C   0  0  0  0  0  2  0  0  0  0  0  0
  188.5180  174.6780  141.0290 C   0  0  1  0  0  3  0  0  0  0  0  0
  187.9700  173.3890  140.8860 O   0  0  0  0  0  0  0  0  0  0  0  0
  190.2960  173.2340  142.1210 C   0  0  0  0  0  2  0  0  0  0  0  0
  190.2140  172.4340  140.8170 C   0  0  0  0  0  2  0  0  0  0  0  0
  1  3  2  0  0  0  0
  2  5  1  0  0  0  0
  3  2  2  0  0  0  0
  4 12  1  6  0  0  0
  5  7  1  0  0  0  0
  6  4  1  0  0  0  0
  7  6  2  0  0  0  0
  7  4  1  0  0  0  0
  8 14  1  0  0  0  0
  8 16  1  0  0  0  0
  9 13  2  0  0  0  0
  9 10  1  0  0  0  0
 10  8  2  0  0  0  0
 12 14  2  0  0  0  0
 13 12  1  0  0  0  0
 14 11  1  0  0  0  0
 16 17  2  0  0  0  0
 16 15  1  0  0  0  0
 18 19  2  0  0  0  0
 19 20  1  0  0  0  0
 20  2  1  0  0  0  0
 22 21  1  0  0  0  0
 23 27  1  6  0  0  0
 23 22  1  0  0  0  0
 24 23  1  0  0  0  0
 24 25  1  0  0  0  0
 25 19  1  0  0  0  0
 25 21  2  0  0  0  0
 26 27  2  0  0  0  0
 27 28  1  0  0  0  0
 29  1  1  0  0  0  0
 29 30  1  0  0  0  0
 30 31  1  0  0  0  0
 32 36  1  0  0  0  0
 33 37  1  0  0  0  0
 33 35  1  0  0  0  0
 34 31  1  1  0  0  0
 34 32  1  0  0  0  0
 35 34  1  0  0  0  0
 37 36  1  0  0  0  0
M  END
>  <MODEL>
5

>  <REMARK>
 VINA RESULT:      -6.9      5.642     12.191
  Name = 
  10 active torsions:
  status: ('A' for Active; 'I' for Inactive)
    1  A    between atoms: C_1  and  C_15
    2  A    between atoms: C_6  and  C_36
    3  A    between atoms: C_7  and  C_26
    4  A    between atoms: C_8  and  C_24
    5  A    between atoms: C_9  and  C_34
    6  A    between atoms: N_11  and  C_13
    7  A    between atoms: C_13  and  N_20
    8  A    between atoms: C_16  and  C_26
    9  A    between atoms: C_16  and  C_34
   10  A    between atoms: C_18  and  C_29
                            x       y       z     vdW  Elec       q    Type
                         _______ _______ _______ _____ _____    ______ ____

>  <TORSDO>
F 10

$$$$
=
 OpenBabel11042418343D

 37 40  0  0  1  0  0  0  0  0999 V2000
  189.1990  174.0890  145.3210 C   0  0  0  0  0  3  0  0  0  0  0  0
  189.7990  175.4900  143.2030 C   0  0  0  0  0  0  0  0  0  0  0  0
  189.4880  174.7870  144.2600 C   0  0  0  0  0  0  0  0  0  0  0  0
  193.4630  174.5840  142.2830 C   0  0  1  0  0  3  0  0  0  0  0  0
  191.1640  175.8420  142.9350 N   0  0  0  0  0  2  0  0  0  0  0  0
  192.5470  173.5710  142.2560 N   0  0  0  0  0  0  0  0  0  0  0  0
  192.1660  174.8920  142.5720 C   0  0  0  0  0  0  0  0  0  0  0  0
  195.9500  173.3970  144.9540 C   0  0  0  0  0  0  0  0  0  0  0  0
  195.0600  175.5680  145.5900 C   0  0  0  0  0  3  0  0  0  0  0  0
  195.8890  174.4770  145.8440 C   0  0  0  0  0  3  0  0  0  0  0  0
  195.2140  172.3780  142.8660 O   0  0  0  0  0  1  0  0  0  0  0  0
  194.2900  174.5140  143.5420 C   0  0  0  0  0  0  0  0  0  0  0  0
  194.2710  175.5890  144.4420 C   0  0  0  0  0  3  0  0  0  0  0  0
  195.1520  173.4220  143.7870 C   0  0  0  0  0  0  0  0  0  0  0  0
  197.9410  172.1130  144.6430 O   0  0  0  0  0  0  0  0  0  0  0  0
  196.8630  172.2750  145.2730 C   0  0  0  0  0  0  0  0  0  0  0  0
  196.5350  171.3800  146.2840 O   0  0  0  0  0  1  0  0  0  0  0  0
  188.5180  178.1070  143.2320 O   0  0  0  0  0  0  0  0  0  0  0  0
  188.1280  177.2410  142.4030 C   0  0  0  0  0  0  0  0  0  0  0  0
  188.7440  175.9480  142.3490 N   0  0  0  0  0  2  0  0  0  0  0  0
  186.9000  176.9890  140.3360 N   0  0  0  0  0  0  0  0  0  0  0  0
  185.7820  177.4880  139.6700 N   0  0  0  0  0  2  0  0  0  0  0  0
  185.1310  178.5080  140.4760 C   0  0  2  0  0  3  0  0  0  0  0  0
  185.9780  178.5790  141.7490 C   0  0  0  0  0  2  0  0  0  0  0  0
  187.0380  177.5650  141.4770 C   0  0  0  0  0  0  0  0  0  0  0  0
  182.9630  177.6640  139.9030 O   0  0  0  0  0  0  0  0  0  0  0  0
  183.7300  178.1020  140.8010 C   0  0  0  0  0  0  0  0  0  0  0  0
  183.2800  178.1830  142.1110 O   0  0  0  0  0  1  0  0  0  0  0  0
  189.7090  174.5230  146.6490 C   0  0  0  0  0  2  0  0  0  0  0  0
  188.7220  175.4850  147.2820 C   0  0  0  0  0  2  0  0  0  0  0  0
  188.9120  176.8870  146.7240 C   0  0  0  0  0  2  0  0  0  0  0  0
  186.6080  176.6670  145.7860 C   0  0  0  0  0  2  0  0  0  0  0  0
  185.9890  178.8520  147.5190 C   0  0  0  0  0  2  0  0  0  0  0  0
  187.5750  177.5880  146.5450 C   0  0  1  0  0  3  0  0  0  0  0  0
  187.0420  177.9590  147.7950 O   0  0  0  0  0  0  0  0  0  0  0  0
  185.1930  176.7290  146.3700 C   0  0  0  0  0  2  0  0  0  0  0  0
  184.8220  178.1520  146.8010 C   0  0  0  0  0  2  0  0  0  0  0  0
  1 29  1  0  0  0  0
  2  3  2  0  0  0  0
  3  1  2  0  0  0  0
  4  7  1  0  0  0  0
  4 12  1  1  0  0  0
  5  2  1  0  0  0  0
  6  4  1  0  0  0  0
  6  7  2  0  0  0  0
  7  5  1  0  0  0  0
  8 16  1  0  0  0  0
  8 10  1  0  0  0  0
  9 10  2  0  0  0  0
 11 14  1  0  0  0  0
 12 14  1  0  0  0  0
 12 13  2  0  0  0  0
 13  9  1  0  0  0  0
 14  8  2  0  0  0  0
 15 16  2  0  0  0  0
 16 17  1  0  0  0  0
 19 18  2  0  0  0  0
 20 19  1  0  0  0  0
 20  2  1  0  0  0  0
 21 25  2  0  0  0  0
 22 21  1  0  0  0  0
 22 23  1  0  0  0  0
 23 27  1  1  0  0  0
 23 24  1  0  0  0  0
 25 24  1  0  0  0  0
 25 19  1  0  0  0  0
 26 27  2  0  0  0  0
 27 28  1  0  0  0  0
 29 30  1  0  0  0  0
 31 30  1  0  0  0  0
 32 36  1  0  0  0  0
 32 34  1  0  0  0  0
 33 35  1  0  0  0  0
 34 31  1  1  0  0  0
 34 35  1  0  0  0  0
 36 37  1  0  0  0  0
 37 33  1  0  0  0  0
M  END
>  <MODEL>
6

>  <REMARK>
 VINA RESULT:      -6.8      2.548      9.065
  Name = 
  10 active torsions:
  status: ('A' for Active; 'I' for Inactive)
    1  A    between atoms: C_1  and  C_15
    2  A    between atoms: C_6  and  C_36
    3  A    between atoms: C_7  and  C_26
    4  A    between atoms: C_8  and  C_24
    5  A    between atoms: C_9  and  C_34
    6  A    between atoms: N_11  and  C_13
    7  A    between atoms: C_13  and  N_20
    8  A    between atoms: C_16  and  C_26
    9  A    between atoms: C_16  and  C_34
   10  A    between atoms: C_18  and  C_29
                            x       y       z     vdW  Elec       q    Type
                         _______ _______ _______ _____ _____    ______ ____

>  <TORSDO>
F 10

$$$$
=
 OpenBabel11042418343D

 37 40  0  0  1  0  0  0  0  0999 V2000
  189.9090  174.8740  146.9940 C   0  0  0  0  0  3  0  0  0  0  0  0
  189.4330  175.0630  144.4360 C   0  0  0  0  0  0  0  0  0  0  0  0
  189.6600  174.9710  145.7200 C   0  0  0  0  0  0  0  0  0  0  0  0
  191.5290  172.1950  142.8640 C   0  0  1  0  0  3  0  0  0  0  0  0
  190.3830  174.5600  143.4870 N   0  0  0  0  0  2  0  0  0  0  0  0
  190.6230  171.8480  143.8260 N   0  0  0  0  0  0  0  0  0  0  0  0
  190.7620  173.1860  143.4030 C   0  0  0  0  0  0  0  0  0  0  0  0
  195.3530  172.3440  143.1560 C   0  0  0  0  0  0  0  0  0  0  0  0
  194.3730  172.3680  145.3810 C   0  0  0  0  0  3  0  0  0  0  0  0
  195.4910  172.3880  144.5500 C   0  0  0  0  0  3  0  0  0  0  0  0
  193.8840  172.2610  141.2140 O   0  0  0  0  0  1  0  0  0  0  0  0
  192.9230  172.2250  143.4380 C   0  0  0  0  0  0  0  0  0  0  0  0
  193.0960  172.2940  144.8280 C   0  0  0  0  0  3  0  0  0  0  0  0
  194.0560  172.2740  142.5960 C   0  0  0  0  0  0  0  0  0  0  0  0
  197.1140  173.4790  142.0080 O   0  0  0  0  0  1  0  0  0  0  0  0
  196.5800  172.3850  142.3270 C   0  0  0  0  0  0  0  0  0  0  0  0
  197.1610  171.2000  141.8900 O   0  0  0  0  0  0  0  0  0  0  0  0
  188.8250  177.9070  144.6200 O   0  0  0  0  0  0  0  0  0  0  0  0
  187.9710  177.1280  144.1170 C   0  0  0  0  0  0  0  0  0  0  0  0
  188.2400  175.7250  143.9960 N   0  0  0  0  0  2  0  0  0  0  0  0
  186.3190  178.8750  143.8700 N   0  0  0  0  0  0  0  0  0  0  0  0
  185.0680  179.1140  143.3030 N   0  0  0  0  0  2  0  0  0  0  0  0
  184.5800  177.9150  142.6410 C   0  0  2  0  0  3  0  0  0  0  0  0
  185.6940  176.8870  142.8520 C   0  0  0  0  0  2  0  0  0  0  0  0
  186.6920  177.6650  143.6430 C   0  0  0  0  0  0  0  0  0  0  0  0
  183.2120  178.1640  140.6890 O   0  0  0  0  0  1  0  0  0  0  0  0
  184.3720  178.1700  141.1840 C   0  0  0  0  0  0  0  0  0  0  0  0
  185.4650  178.4440  140.3740 O   0  0  0  0  0  0  0  0  0  0  0  0
  191.2120  175.3510  147.5290 C   0  0  0  0  0  2  0  0  0  0  0  0
  192.2860  175.1880  146.4710 C   0  0  0  0  0  2  0  0  0  0  0  0
  193.1710  176.4230  146.4150 C   0  0  0  0  0  2  0  0  0  0  0  0
  195.2380  176.8230  145.0730 C   0  0  0  0  0  2  0  0  0  0  0  0
  193.6350  175.9890  142.8610 C   0  0  0  0  0  2  0  0  0  0  0  0
  193.7150  176.6420  145.0120 C   0  0  1  0  0  3  0  0  0  0  0  0
  193.3680  175.5630  144.1760 O   0  0  0  0  0  0  0  0  0  0  0  0
  195.9410  176.0900  143.9260 C   0  0  0  0  0  2  0  0  0  0  0  0
  195.1420  176.1870  142.6220 C   0  0  0  0  0  2  0  0  0  0  0  0
  1 29  1  0  0  0  0
  2  3  2  0  0  0  0
  3  1  2  0  0  0  0
  4  7  1  0  0  0  0
  4 12  1  1  0  0  0
  4  6  1  0  0  0  0
  5  2  1  0  0  0  0
  7  5  1  0  0  0  0
  7  6  2  0  0  0  0
  8 10  1  0  0  0  0
 10  9  2  0  0  0  0
 11 14  1  0  0  0  0
 12 13  2  0  0  0  0
 13  9  1  0  0  0  0
 14  8  2  0  0  0  0
 14 12  1  0  0  0  0
 15 16  1  0  0  0  0
 16  8  1  0  0  0  0
 17 16  2  0  0  0  0
 19 18  2  0  0  0  0
 20 19  1  0  0  0  0
 20  2  1  0  0  0  0
 22 21  1  0  0  0  0
 23 27  1  6  0  0  0
 23 24  1  0  0  0  0
 23 22  1  0  0  0  0
 24 25  1  0  0  0  0
 25 21  2  0  0  0  0
 25 19  1  0  0  0  0
 26 27  1  0  0  0  0
 28 27  2  0  0  0  0
 30 29  1  0  0  0  0
 31 30  1  0  0  0  0
 33 35  1  0  0  0  0
 34 32  1  0  0  0  0
 34 31  1  1  0  0  0
 35 34  1  0  0  0  0
 36 32  1  0  0  0  0
 37 33  1  0  0  0  0
 37 36  1  0  0  0  0
M  END
>  <MODEL>
7

>  <REMARK>
 VINA RESULT:      -6.8      3.183      9.428
  Name = 
  10 active torsions:
  status: ('A' for Active; 'I' for Inactive)
    1  A    between atoms: C_1  and  C_15
    2  A    between atoms: C_6  and  C_36
    3  A    between atoms: C_7  and  C_26
    4  A    between atoms: C_8  and  C_24
    5  A    between atoms: C_9  and  C_34
    6  A    between atoms: N_11  and  C_13
    7  A    between atoms: C_13  and  N_20
    8  A    between atoms: C_16  and  C_26
    9  A    between atoms: C_16  and  C_34
   10  A    between atoms: C_18  and  C_29
                            x       y       z     vdW  Elec       q    Type
                         _______ _______ _______ _____ _____    ______ ____

>  <TORSDO>
F 10

$$$$
=
 OpenBabel11042418343D

 37 40  0  0  1  0  0  0  0  0999 V2000
  190.5080  176.2830  144.5480 C   0  0  0  0  0  3  0  0  0  0  0  0
  189.4810  174.9390  142.5620 C   0  0  0  0  0  0  0  0  0  0  0  0
  190.0030  175.6040  143.5590 C   0  0  0  0  0  0  0  0  0  0  0  0
  187.7800  178.0800  141.0340 C   0  0  1  0  0  3  0  0  0  0  0  0
  188.5570  175.5720  141.6650 N   0  0  0  0  0  2  0  0  0  0  0  0
  188.8040  178.2930  141.9130 N   0  0  0  0  0  0  0  0  0  0  0  0
  188.4100  176.9880  141.5550 C   0  0  0  0  0  0  0  0  0  0  0  0
  184.0030  178.2320  141.6950 C   0  0  0  0  0  0  0  0  0  0  0  0
  185.2000  178.8490  143.7190 C   0  0  0  0  0  3  0  0  0  0  0  0
  184.0040  178.6310  143.0380 C   0  0  0  0  0  3  0  0  0  0  0  0
  185.2710  177.6300  139.7030 O   0  0  0  0  0  1  0  0  0  0  0  0
  186.4500  178.3040  141.7090 C   0  0  0  0  0  0  0  0  0  0  0  0
  186.4160  178.6790  143.0600 C   0  0  0  0  0  3  0  0  0  0  0  0
  185.2380  178.0560  141.0290 C   0  0  0  0  0  0  0  0  0  0  0  0
  182.6340  177.5580  139.8560 O   0  0  0  0  0  0  0  0  0  0  0  0
  182.6980  178.0010  141.0330 C   0  0  0  0  0  0  0  0  0  0  0  0
  181.5170  178.2740  141.7130 O   0  0  0  0  0  1  0  0  0  0  0  0
  191.7720  173.8060  141.1620 O   0  0  0  0  0  0  0  0  0  0  0  0
  190.9390  173.0310  141.7060 C   0  0  0  0  0  0  0  0  0  0  0  0
  189.8080  173.5520  142.4160 N   0  0  0  0  0  2  0  0  0  0  0  0
  190.4370  170.7410  142.2960 N   0  0  0  0  0  0  0  0  0  0  0  0
  190.8360  169.4360  142.0140 N   0  0  0  0  0  2  0  0  0  0  0  0
  191.9220  169.4390  141.0480 C   0  0  2  0  0  3  0  0  0  0  0  0
  192.1500  170.9220  140.7440 C   0  0  0  0  0  2  0  0  0  0  0  0
  191.1370  171.5810  141.6180 C   0  0  0  0  0  0  0  0  0  0  0  0
  190.3860  168.1660  139.7190 O   0  0  0  0  0  1  0  0  0  0  0  0
  191.5220  168.7060  139.8090 C   0  0  0  0  0  0  0  0  0  0  0  0
  192.4010  168.6420  138.7380 O   0  0  0  0  0  0  0  0  0  0  0  0
  189.6080  177.0370  145.4600 C   0  0  0  0  0  2  0  0  0  0  0  0
  188.2560  176.3510  145.5200 C   0  0  0  0  0  2  0  0  0  0  0  0
  187.8620  176.0750  146.9630 C   0  0  0  0  0  2  0  0  0  0  0  0
  186.8940  178.2180  147.8010 C   0  0  0  0  0  2  0  0  0  0  0  0
  184.4450  177.2160  146.7260 C   0  0  0  0  0  2  0  0  0  0  0  0
  186.5720  176.7950  147.3230 C   0  0  1  0  0  3  0  0  0  0  0  0
  185.6970  176.8190  146.2200 O   0  0  0  0  0  0  0  0  0  0  0  0
  185.8900  179.2390  147.2540 C   0  0  0  0  0  2  0  0  0  0  0  0
  184.4680  178.6710  147.2250 C   0  0  0  0  0  2  0  0  0  0  0  0
  1 29  1  0  0  0  0
  2  3  2  0  0  0  0
  3  1  2  0  0  0  0
  4  7  1  0  0  0  0
  4 12  1  1  0  0  0
  4  6  1  0  0  0  0
  5  2  1  0  0  0  0
  7  5  1  0  0  0  0
  7  6  2  0  0  0  0
  8 10  1  0  0  0  0
 10  9  2  0  0  0  0
 11 14  1  0  0  0  0
 12 13  2  0  0  0  0
 13  9  1  0  0  0  0
 14  8  2  0  0  0  0
 14 12  1  0  0  0  0
 15 16  2  0  0  0  0
 16  8  1  0  0  0  0
 16 17  1  0  0  0  0
 18 19  2  0  0  0  0
 19 20  1  0  0  0  0
 20  2  1  0  0  0  0
 22 21  1  0  0  0  0
 23 27  1  6  0  0  0
 23 22  1  0  0  0  0
 24 23  1  0  0  0  0
 24 25  1  0  0  0  0
 25 19  1  0  0  0  0
 25 21  2  0  0  0  0
 26 27  1  0  0  0  0
 28 27  2  0  0  0  0
 29 30  1  0  0  0  0
 30 31  1  0  0  0  0
 33 37  1  0  0  0  0
 34 31  1  6  0  0  0
 34 32  1  0  0  0  0
 35 33  1  0  0  0  0
 35 34  1  0  0  0  0
 36 32  1  0  0  0  0
 37 36  1  0  0  0  0
M  END
>  <MODEL>
8

>  <REMARK>
 VINA RESULT:      -6.7      4.252      4.948
  Name = 
  10 active torsions:
  status: ('A' for Active; 'I' for Inactive)
    1  A    between atoms: C_1  and  C_15
    2  A    between atoms: C_6  and  C_36
    3  A    between atoms: C_7  and  C_26
    4  A    between atoms: C_8  and  C_24
    5  A    between atoms: C_9  and  C_34
    6  A    between atoms: N_11  and  C_13
    7  A    between atoms: C_13  and  N_20
    8  A    between atoms: C_16  and  C_26
    9  A    between atoms: C_16  and  C_34
   10  A    between atoms: C_18  and  C_29
                            x       y       z     vdW  Elec       q    Type
                         _______ _______ _______ _____ _____    ______ ____

>  <TORSDO>
F 10

$$$$
=
 OpenBabel11042418343D

 37 40  0  0  1  0  0  0  0  0999 V2000
  190.5580  175.3280  147.6060 C   0  0  0  0  0  3  0  0  0  0  0  0
  189.3470  174.9310  145.3290 C   0  0  0  0  0  0  0  0  0  0  0  0
  189.9450  175.1370  146.4720 C   0  0  0  0  0  0  0  0  0  0  0  0
  191.3490  173.4260  142.3590 C   0  0  1  0  0  3  0  0  0  0  0  0
  189.7370  173.8370  144.4870 N   0  0  0  0  0  2  0  0  0  0  0  0
  191.5970  174.7310  142.6790 N   0  0  0  0  0  0  0  0  0  0  0  0
  190.6790  173.9600  143.4200 C   0  0  0  0  0  0  0  0  0  0  0  0
  189.7240  172.2110  139.1020 C   0  0  0  0  0  0  0  0  0  0  0  0
  188.5370  174.1720  139.9130 C   0  0  0  0  0  3  0  0  0  0  0  0
  188.7000  173.1580  138.9700 C   0  0  0  0  0  3  0  0  0  0  0  0
  191.6100  171.3520  140.3840 O   0  0  0  0  0  1  0  0  0  0  0  0
  190.4550  173.3400  141.1480 C   0  0  0  0  0  0  0  0  0  0  0  0
  189.4050  174.2570  140.9990 C   0  0  0  0  0  3  0  0  0  0  0  0
  190.6010  172.2970  140.2080 C   0  0  0  0  0  0  0  0  0  0  0  0
  189.6850  169.9360  138.3740 O   0  0  0  0  0  1  0  0  0  0  0  0
  189.8350  171.1500  138.0750 C   0  0  0  0  0  0  0  0  0  0  0  0
  190.1070  171.4880  136.7540 O   0  0  0  0  0  0  0  0  0  0  0  0
  189.7310  177.4900  143.9890 O   0  0  0  0  0  0  0  0  0  0  0  0
  188.5610  177.1100  144.2650 C   0  0  0  0  0  0  0  0  0  0  0  0
  188.3320  175.8510  144.9100 N   0  0  0  0  0  2  0  0  0  0  0  0
  187.0920  178.2150  142.6940 N   0  0  0  0  0  0  0  0  0  0  0  0
  185.9750  179.0470  142.6550 N   0  0  0  0  0  2  0  0  0  0  0  0
  185.5420  179.3720  144.0040 C   0  0  2  0  0  3  0  0  0  0  0  0
  186.5260  178.6230  144.9060 C   0  0  0  0  0  2  0  0  0  0  0  0
  187.4220  177.9630  143.9120 C   0  0  0  0  0  0  0  0  0  0  0  0
  183.3780  178.6540  143.2650 O   0  0  0  0  0  0  0  0  0  0  0  0
  184.1470  178.8890  144.2360 C   0  0  0  0  0  0  0  0  0  0  0  0
  183.7050  178.6710  145.5330 O   0  0  0  0  0  1  0  0  0  0  0  0
  192.0430  175.3820  147.6400 C   0  0  0  0  0  2  0  0  0  0  0  0
  192.5610  175.9700  146.3420 C   0  0  0  0  0  2  0  0  0  0  0  0
  193.9240  176.6110  146.5540 C   0  0  0  0  0  2  0  0  0  0  0  0
  195.1230  174.5750  145.7470 C   0  0  0  0  0  2  0  0  0  0  0  0
  195.6340  176.1350  143.4100 C   0  0  0  0  0  2  0  0  0  0  0  0
  194.9360  176.0860  145.5470 C   0  0  1  0  0  3  0  0  0  0  0  0
  194.5180  176.3730  144.2330 O   0  0  0  0  0  0  0  0  0  0  0  0
  195.2180  173.8350  144.4090 C   0  0  0  0  0  2  0  0  0  0  0  0
  196.0070  174.6420  143.3730 C   0  0  0  0  0  2  0  0  0  0  0  0
  1 29  1  0  0  0  0
  2  3  2  0  0  0  0
  3  1  2  0  0  0  0
  4 12  1  6  0  0  0
  4  6  1  0  0  0  0
  4  7  1  0  0  0  0
  5  2  1  0  0  0  0
  6  7  2  0  0  0  0
  7  5  1  0  0  0  0
  8 14  1  0  0  0  0
  9 13  2  0  0  0  0
 10  8  2  0  0  0  0
 10  9  1  0  0  0  0
 13 12  1  0  0  0  0
 14 11  1  0  0  0  0
 14 12  2  0  0  0  0
 16 15  1  0  0  0  0
 16  8  1  0  0  0  0
 17 16  2  0  0  0  0
 18 19  2  0  0  0  0
 19 20  1  0  0  0  0
 20  2  1  0  0  0  0
 21 25  2  0  0  0  0
 22 21  1  0  0  0  0
 22 23  1  0  0  0  0
 23 27  1  6  0  0  0
 23 24  1  0  0  0  0
 25 19  1  0  0  0  0
 25 24  1  0  0  0  0
 26 27  2  0  0  0  0
 27 28  1  0  0  0  0
 30 31  1  0  0  0  0
 30 29  1  0  0  0  0
 33 35  1  0  0  0  0
 34 32  1  0  0  0  0
 34 31  1  1  0  0  0
 35 34  1  0  0  0  0
 36 32  1  0  0  0  0
 37 33  1  0  0  0  0
 37 36  1  0  0  0  0
M  END
>  <MODEL>
9

>  <REMARK>
 VINA RESULT:      -6.7      3.713      8.675
  Name = 
  10 active torsions:
  status: ('A' for Active; 'I' for Inactive)
    1  A    between atoms: C_1  and  C_15
    2  A    between atoms: C_6  and  C_36
    3  A    between atoms: C_7  and  C_26
    4  A    between atoms: C_8  and  C_24
    5  A    between atoms: C_9  and  C_34
    6  A    between atoms: N_11  and  C_13
    7  A    between atoms: C_13  and  N_20
    8  A    between atoms: C_16  and  C_26
    9  A    between atoms: C_16  and  C_34
   10  A    between atoms: C_18  and  C_29
                            x       y       z     vdW  Elec       q    Type
                         _______ _______ _______ _____ _____    ______ ____

>  <TORSDO>
F 10

$$$$
