=
 OpenBabel11042414073D

 49 55  0  0  1  0  0  0  0  0999 V2000
  191.1520  176.7160  147.2690 O   0  0  0  0  0  0  0  0  0  0  0  0
  193.2500  176.4000  146.3410 N   0  0  0  0  0  0  0  0  0  0  0  0
  191.8710  176.0540  146.4710 C   0  0  0  0  0  0  0  0  0  0  0  0
  194.6330  176.7400  144.2970 C   0  0  0  0  0  1  0  0  0  0  0  0
  194.4430  177.2270  146.7150 C   0  0  0  0  0  2  0  0  0  0  0  0
  191.3070  174.9760  145.6950 N   0  0  0  0  0  0  0  0  0  0  0  0
  194.6050  176.2690  145.7390 C   0  0  1  0  0  0  0  0  0  0  0  0
  189.8590  174.7100  145.6910 C   0  0  1  0  0  3  0  0  0  0  0  0
  187.0080  177.0790  146.0270 N   0  0  0  0  0  2  0  0  0  0  0  0
  188.0530  176.1120  146.1680 C   0  0  0  0  0  0  0  0  0  0  0  0
  188.1720  175.3680  147.2140 N   0  0  0  0  0  0  0  0  0  0  0  0
  189.3140  174.4830  147.1020 C   0  0  0  0  0  2  0  0  0  0  0  0
  189.0670  175.8790  145.1170 C   0  0  0  0  0  2  0  0  0  0  0  0
  186.0090  177.3240  147.0600 C   0  0  0  0  0  2  0  0  0  0  0  0
  185.4910  178.7220  146.9710 C   0  0  0  0  0  0  0  0  0  0  0  0
  184.5570  178.9970  146.1690 O   0  0  0  0  0  0  0  0  0  0  0  0
  187.1450  179.4410  148.6450 C   0  0  0  0  0  1  0  0  0  0  0  0
  186.0420  179.7070  147.7920 O   0  0  0  0  0  0  0  0  0  0  0  0
  191.5250  172.8250  144.5430 C   0  0  0  0  0  2  0  0  0  0  0  0
  192.2880  174.4990  143.4390 C   0  0  0  0  0  2  0  0  0  0  0  0
  192.2190  174.1250  144.9160 C   0  0  1  0  0  3  0  0  0  0  0  0
  191.5920  173.2000  143.0730 C   0  0  2  0  0  3  0  0  0  0  0  0
  190.2440  173.4850  142.5720 C   0  0  0  0  0  0  0  0  0  0  0  0
  189.1390  173.7210  142.1480 C   0  0  0  0  0  0  0  0  0  0  0  0
  187.8030  174.0110  141.6270 C   0  0  0  0  0  2  0  0  0  0  0  0
  187.2040  175.0520  142.3880 O   0  0  0  0  0  0  0  0  0  0  0  0
  185.0930  177.4200  142.9130 S   0  0  0  0  0  0  0  0  0  0  0  0
  188.5010  178.1970  141.7050 C   0  0  0  0  0  3  0  0  0  0  0  0
  187.2610  178.6130  142.0540 N   0  0  0  0  0  0  0  0  0  0  0  0
  188.6160  176.8540  141.7770 N   0  0  0  0  0  2  0  0  0  0  0  0
  187.4420  176.3990  142.1710 N   0  0  0  0  0  0  0  0  0  0  0  0
  186.6270  177.4610  142.3410 C   0  0  0  0  0  0  0  0  0  0  0  0
  195.2890  174.9720  146.1360 C   0  0  0  0  0  2  0  0  0  0  0  0
  196.3350  174.6530  145.1800 N   0  0  0  0  0  2  0  0  0  0  0  0
  196.3070  173.2130  144.9870 C   0  0  0  0  0  2  0  0  0  0  0  0
  195.2590  173.6310  141.3630 C   0  0  0  0  0  0  0  0  0  0  0  0
  195.8170  173.8780  142.6300 C   0  0  0  0  0  3  0  0  0  0  0  0
  195.1590  171.6740  143.3840 C   0  0  0  0  0  3  0  0  0  0  0  0
  195.7680  172.9080  143.6350 C   0  0  0  0  0  0  0  0  0  0  0  0
  194.6690  172.3770  141.1200 C   0  0  0  0  0  3  0  0  0  0  0  0
  194.6160  171.4060  142.1240 C   0  0  0  0  0  3  0  0  0  0  0  0
  194.0540  174.3200  138.2150 C   0  0  0  0  0  2  0  0  0  0  0  0
  196.2910  174.2900  139.1490 C   0  0  2  0  0  0  0  0  0  0  0  0
  193.9700  174.8580  139.6380 C   0  0  0  0  0  2  0  0  0  0  0  0
  196.3990  175.1130  137.8820 C   0  0  0  0  0  2  0  0  0  0  0  0
  195.4870  173.8910  137.9360 C   0  0  2  0  0  3  0  0  0  0  0  0
  195.7830  176.0490  140.8300 C   0  0  0  0  0  1  0  0  0  0  0  0
  195.3400  174.6960  140.2780 C   0  0  1  0  0  0  0  0  0  0  0  0
  197.3600  173.4280  139.4040 O   0  0  0  0  0  1  0  0  0  0  0  0
  2  3  1  0  0  0  0
  2  5  1  0  0  0  0
  3  1  2  0  0  0  0
  6  3  1  0  0  0  0
  7  4  1  6  0  0  0
  7 33  1  0  0  0  0
  7  2  1  0  0  0  0
  7  5  1  0  0  0  0
  8  6  1  1  0  0  0
  8 12  1  0  0  0  0
  9 10  1  0  0  0  0
  9 14  1  0  0  0  0
 10 11  2  0  0  0  0
 12 11  1  0  0  0  0
 13  8  1  0  0  0  0
 13 10  1  0  0  0  0
 15 14  1  0  0  0  0
 15 18  1  0  0  0  0
 16 15  2  0  0  0  0
 18 17  1  0  0  0  0
 19 21  1  0  0  0  0
 20 21  1  0  0  0  0
 21  6  1  1  0  0  0
 22 23  1  1  0  0  0
 22 20  1  0  0  0  0
 22 19  1  0  0  0  0
 24 23  3  0  0  0  0
 25 24  1  0  0  0  0
 25 26  1  0  0  0  0
 28 30  1  0  0  0  0
 28 29  2  0  0  0  0
 29 32  1  0  0  0  0
 30 31  1  0  0  0  0
 31 32  1  0  0  0  0
 31 26  1  0  0  0  0
 32 27  2  0  0  0  0
 34 33  1  0  0  0  0
 35 34  1  0  0  0  0
 36 37  1  0  0  0  0
 37 39  2  0  0  0  0
 38 39  1  0  0  0  0
 39 35  1  0  0  0  0
 40 36  2  0  0  0  0
 40 41  1  0  0  0  0
 41 38  2  0  0  0  0
 42 44  1  0  0  0  0
 43 49  1  1  0  0  0
 43 48  1  0  0  0  0
 44 48  1  0  0  0  0
 45 43  1  0  0  0  0
 46 45  1  6  0  0  0
 46 42  1  0  0  0  0
 46 43  1  0  0  0  0
 48 47  1  1  0  0  0
 48 36  1  0  0  0  0
M  END
>  <MODEL>
1

>  <REMARK>
 VINA RESULT:      -6.7      0.000      0.000
  Name = 
  14 active torsions:
  status: ('A' for Active; 'I' for Inactive)
    1  A    between atoms: C_1  and  N_36
    2  A    between atoms: N_3  and  C_44
    3  A    between atoms: C_4  and  O_15
    4  A    between atoms: C_4  and  C_26
    5  A    between atoms: C_5  and  C_32
    6  A    between atoms: C_7  and  C_35
    7  A    between atoms: O_15  and  N_45
    8  A    between atoms: C_24  and  N_36
    9  A    between atoms: C_27  and  C_43
   10  A    between atoms: C_37  and  O_39
   11  A    between atoms: C_37  and  C_44
   12  A    between atoms: C_38  and  C_41
   13  A    between atoms: C_38  and  N_49
   14  A    between atoms: C_43  and  N_49
                            x       y       z     vdW  Elec       q    Type
                         _______ _______ _______ _____ _____    ______ ____

>  <TORSDO>
F 14

$$$$
=
 OpenBabel11042414073D

 49 55  0  0  1  0  0  0  0  0999 V2000
  187.5290  175.5550  140.1240 O   0  0  0  0  0  0  0  0  0  0  0  0
  189.0500  173.8170  139.9460 N   0  0  0  0  0  0  0  0  0  0  0  0
  188.5400  174.9750  140.6080 C   0  0  0  0  0  0  0  0  0  0  0  0
  189.7100  171.6010  140.8710 C   0  0  0  0  0  1  0  0  0  0  0  0
  189.0220  172.8170  138.8300 C   0  0  0  0  0  2  0  0  0  0  0  0
  189.1610  175.4650  141.8150 N   0  0  0  0  0  0  0  0  0  0  0  0
  189.9720  172.6570  139.8140 C   0  0  1  0  0  0  0  0  0  0  0  0
  188.5560  176.5530  142.6000 C   0  0  1  0  0  3  0  0  0  0  0  0
  184.9730  177.4620  143.0350 N   0  0  0  0  0  2  0  0  0  0  0  0
  186.3530  177.3270  142.6860 C   0  0  0  0  0  0  0  0  0  0  0  0
  186.9790  178.2040  141.9790 N   0  0  0  0  0  0  0  0  0  0  0  0
  188.3600  177.8210  141.7680 C   0  0  0  0  0  2  0  0  0  0  0  0
  187.1750  176.1780  143.1250 C   0  0  0  0  0  2  0  0  0  0  0  0
  184.1510  178.5840  142.6010 C   0  0  0  0  0  2  0  0  0  0  0  0
  183.4040  178.2390  141.3550 C   0  0  0  0  0  0  0  0  0  0  0  0
  183.9970  178.2530  140.2410 O   0  0  0  0  0  0  0  0  0  0  0  0
  181.0210  178.8480  141.2670 C   0  0  0  0  0  1  0  0  0  0  0  0
  182.0550  177.8910  141.4420 O   0  0  0  0  0  0  0  0  0  0  0  0
  191.3120  175.9170  142.8950 C   0  0  0  0  0  2  0  0  0  0  0  0
  190.3450  174.1240  143.5700 C   0  0  0  0  0  2  0  0  0  0  0  0
  190.4350  174.8640  142.2390 C   0  0  1  0  0  3  0  0  0  0  0  0
  191.2200  175.1800  144.2200 C   0  0  2  0  0  3  0  0  0  0  0  0
  190.4260  175.9650  145.1700 C   0  0  0  0  0  0  0  0  0  0  0  0
  189.7820  176.6120  145.9590 C   0  0  0  0  0  0  0  0  0  0  0  0
  189.0070  177.3940  146.9230 C   0  0  0  0  0  2  0  0  0  0  0  0
  187.8130  176.6980  147.2600 O   0  0  0  0  0  0  0  0  0  0  0  0
  186.8180  179.4480  148.5970 S   0  0  0  0  0  0  0  0  0  0  0  0
  184.5350  177.4890  146.4450 C   0  0  0  0  0  3  0  0  0  0  0  0
  184.7570  178.5560  147.2490 N   0  0  0  0  0  0  0  0  0  0  0  0
  185.6190  176.6880  146.3670 N   0  0  0  0  0  2  0  0  0  0  0  0
  186.5450  177.2380  147.1300 N   0  0  0  0  0  0  0  0  0  0  0  0
  186.0250  178.3660  147.6580 C   0  0  0  0  0  0  0  0  0  0  0  0
  191.3940  173.0840  139.4920 C   0  0  0  0  0  2  0  0  0  0  0  0
  192.3260  172.0510  139.9100 N   0  0  0  0  0  2  0  0  0  0  0  0
  193.5460  172.7240  140.3230 C   0  0  0  0  0  2  0  0  0  0  0  0
  194.5610  173.6580  143.8590 C   0  0  0  0  0  0  0  0  0  0  0  0
  194.4200  173.6760  142.4600 C   0  0  0  0  0  3  0  0  0  0  0  0
  192.9680  171.7430  142.5490 C   0  0  0  0  0  3  0  0  0  0  0  0
  193.6300  172.7260  141.8080 C   0  0  0  0  0  0  0  0  0  0  0  0
  193.8700  172.6760  144.5920 C   0  0  0  0  0  3  0  0  0  0  0  0
  193.0820  171.7220  143.9420 C   0  0  0  0  0  3  0  0  0  0  0  0
  194.3940  175.9600  146.4100 C   0  0  0  0  0  2  0  0  0  0  0  0
  195.0560  176.1290  144.0840 C   0  0  2  0  0  0  0  0  0  0  0  0
  195.1330  174.6790  146.0440 C   0  0  0  0  0  2  0  0  0  0  0  0
  195.6520  177.3490  144.7570 C   0  0  0  0  0  2  0  0  0  0  0  0
  194.2760  176.8310  145.1690 C   0  0  2  0  0  3  0  0  0  0  0  0
  196.9050  174.4870  144.3270 C   0  0  0  0  0  1  0  0  0  0  0  0
  195.4130  174.7150  144.5490 C   0  0  1  0  0  0  0  0  0  0  0  0
  194.5290  176.3390  142.8080 O   0  0  0  0  0  1  0  0  0  0  0  0
  1  3  2  0  0  0  0
  2  3  1  0  0  0  0
  3  6  1  0  0  0  0
  5  7  1  0  0  0  0
  5  2  1  0  0  0  0
  7  2  1  0  0  0  0
  7  4  1  1  0  0  0
  8  6  1  6  0  0  0
  8 13  1  0  0  0  0
 10  9  1  0  0  0  0
 10 13  1  0  0  0  0
 11 10  2  0  0  0  0
 12 11  1  0  0  0  0
 12  8  1  0  0  0  0
 14  9  1  0  0  0  0
 15 18  1  0  0  0  0
 15 14  1  0  0  0  0
 16 15  2  0  0  0  0
 17 18  1  0  0  0  0
 19 22  1  0  0  0  0
 20 22  1  0  0  0  0
 21  6  1  1  0  0  0
 21 19  1  0  0  0  0
 21 20  1  0  0  0  0
 22 23  1  1  0  0  0
 23 24  3  0  0  0  0
 24 25  1  0  0  0  0
 25 26  1  0  0  0  0
 28 29  2  0  0  0  0
 29 32  1  0  0  0  0
 30 28  1  0  0  0  0
 30 31  1  0  0  0  0
 31 26  1  0  0  0  0
 31 32  1  0  0  0  0
 32 27  2  0  0  0  0
 33  7  1  0  0  0  0
 33 34  1  0  0  0  0
 34 35  1  0  0  0  0
 35 39  1  0  0  0  0
 36 48  1  0  0  0  0
 36 40  1  0  0  0  0
 37 36  2  0  0  0  0
 38 41  1  0  0  0  0
 39 37  1  0  0  0  0
 39 38  2  0  0  0  0
 41 40  2  0  0  0  0
 43 49  1  6  0  0  0
 43 48  1  0  0  0  0
 43 45  1  0  0  0  0
 43 46  1  0  0  0  0
 44 42  1  0  0  0  0
 46 45  1  1  0  0  0
 46 42  1  0  0  0  0
 48 47  1  6  0  0  0
 48 44  1  0  0  0  0
M  END
>  <MODEL>
2

>  <REMARK>
 VINA RESULT:      -6.7      2.742      5.812
  Name = 
  14 active torsions:
  status: ('A' for Active; 'I' for Inactive)
    1  A    between atoms: C_1  and  N_36
    2  A    between atoms: N_3  and  C_44
    3  A    between atoms: C_4  and  O_15
    4  A    between atoms: C_4  and  C_26
    5  A    between atoms: C_5  and  C_32
    6  A    between atoms: C_7  and  C_35
    7  A    between atoms: O_15  and  N_45
    8  A    between atoms: C_24  and  N_36
    9  A    between atoms: C_27  and  C_43
   10  A    between atoms: C_37  and  O_39
   11  A    between atoms: C_37  and  C_44
   12  A    between atoms: C_38  and  C_41
   13  A    between atoms: C_38  and  N_49
   14  A    between atoms: C_43  and  N_49
                            x       y       z     vdW  Elec       q    Type
                         _______ _______ _______ _____ _____    ______ ____

>  <TORSDO>
F 14

$$$$
=
 OpenBabel11042414073D

 49 55  0  0  1  0  0  0  0  0999 V2000
  187.6810  175.3330  139.9510 O   0  0  0  0  0  0  0  0  0  0  0  0
  189.3050  173.7260  139.5680 N   0  0  0  0  0  0  0  0  0  0  0  0
  188.7220  174.7540  140.3690 C   0  0  0  0  0  0  0  0  0  0  0  0
  190.0910  171.4500  140.2030 C   0  0  0  0  0  1  0  0  0  0  0  0
  189.3450  172.8810  138.3300 C   0  0  0  0  0  2  0  0  0  0  0  0
  189.3050  175.1170  141.6380 N   0  0  0  0  0  0  0  0  0  0  0  0
  190.2960  172.6500  139.2980 C   0  0  1  0  0  0  0  0  0  0  0  0
  188.6310  176.0550  142.5510 C   0  0  1  0  0  3  0  0  0  0  0  0
  185.0760  177.1530  142.6290 N   0  0  0  0  0  2  0  0  0  0  0  0
  186.4870  176.9790  142.4750 C   0  0  0  0  0  0  0  0  0  0  0  0
  187.2660  177.9320  142.0930 N   0  0  0  0  0  0  0  0  0  0  0  0
  188.6430  177.4870  142.0130 C   0  0  0  0  0  2  0  0  0  0  0  0
  187.1650  175.6950  142.7570 C   0  0  0  0  0  2  0  0  0  0  0  0
  184.3960  178.4100  142.3450 C   0  0  0  0  0  2  0  0  0  0  0  0
  183.9480  178.4570  140.9210 C   0  0  0  0  0  0  0  0  0  0  0  0
  184.8000  178.5710  139.9970 O   0  0  0  0  0  0  0  0  0  0  0  0
  181.5990  178.3750  141.6500 C   0  0  0  0  0  1  0  0  0  0  0  0
  182.5870  178.3610  140.6300 O   0  0  0  0  0  0  0  0  0  0  0  0
  191.5500  175.6400  142.4670 C   0  0  0  0  0  2  0  0  0  0  0  0
  190.6420  173.9310  143.3940 C   0  0  0  0  0  2  0  0  0  0  0  0
  190.6110  174.5410  141.9970 C   0  0  1  0  0  3  0  0  0  0  0  0
  191.5790  175.0320  143.8590 C   0  0  2  0  0  3  0  0  0  0  0  0
  190.8810  175.9130  144.7990 C   0  0  0  0  0  0  0  0  0  0  0  0
  190.3130  176.6460  145.5710 C   0  0  0  0  0  0  0  0  0  0  0  0
  189.6330  177.5420  146.5070 C   0  0  0  0  0  2  0  0  0  0  0  0
  188.5670  176.8510  147.1460 O   0  0  0  0  0  0  0  0  0  0  0  0
  186.9610  179.3400  148.3990 S   0  0  0  0  0  0  0  0  0  0  0  0
  185.2590  176.9890  146.1070 C   0  0  0  0  0  3  0  0  0  0  0  0
  185.2110  178.0710  146.9190 N   0  0  0  0  0  0  0  0  0  0  0  0
  186.4830  176.4180  146.1070 N   0  0  0  0  0  2  0  0  0  0  0  0
  187.2280  177.1320  146.9280 N   0  0  0  0  0  0  0  0  0  0  0  0
  186.4620  178.1310  147.4140 C   0  0  0  0  0  0  0  0  0  0  0  0
  191.6920  173.1990  139.0540 C   0  0  0  0  0  2  0  0  0  0  0  0
  192.6750  172.3550  139.7120 N   0  0  0  0  0  2  0  0  0  0  0  0
  193.9820  172.9120  139.4060 C   0  0  0  0  0  2  0  0  0  0  0  0
  194.9260  173.8980  142.9480 C   0  0  0  0  0  0  0  0  0  0  0  0
  194.5380  173.1380  141.8310 C   0  0  0  0  0  3  0  0  0  0  0  0
  194.7630  175.0730  140.3950 C   0  0  0  0  0  3  0  0  0  0  0  0
  194.4560  173.7190  140.5630 C   0  0  0  0  0  0  0  0  0  0  0  0
  195.2530  175.2540  142.7590 C   0  0  0  0  0  3  0  0  0  0  0  0
  195.1690  175.8390  141.4920 C   0  0  0  0  0  3  0  0  0  0  0  0
  196.0530  174.5400  146.1340 C   0  0  0  0  0  2  0  0  0  0  0  0
  196.4340  172.7080  144.5940 C   0  0  2  0  0  0  0  0  0  0  0  0
  194.7480  174.2810  145.3910 C   0  0  0  0  0  2  0  0  0  0  0  0
  196.8130  172.1670  145.9580 C   0  0  0  0  0  2  0  0  0  0  0  0
  197.1260  173.6140  145.5830 C   0  0  2  0  0  3  0  0  0  0  0  0
  194.0280  172.0950  144.4800 C   0  0  0  0  0  1  0  0  0  0  0  0
  195.0250  173.2390  144.3170 C   0  0  1  0  0  0  0  0  0  0  0  0
  197.2600  172.3190  143.5370 O   0  0  0  0  0  1  0  0  0  0  0  0
  1  3  2  0  0  0  0
  2  3  1  0  0  0  0
  3  6  1  0  0  0  0
  5  7  1  0  0  0  0
  5  2  1  0  0  0  0
  7  2  1  0  0  0  0
  7  4  1  1  0  0  0
  8  6  1  6  0  0  0
  8 13  1  0  0  0  0
 10  9  1  0  0  0  0
 10 13  1  0  0  0  0
 11 10  2  0  0  0  0
 12 11  1  0  0  0  0
 12  8  1  0  0  0  0
 14  9  1  0  0  0  0
 15 14  1  0  0  0  0
 16 15  2  0  0  0  0
 18 15  1  0  0  0  0
 18 17  1  0  0  0  0
 19 22  1  0  0  0  0
 20 22  1  0  0  0  0
 21  6  1  1  0  0  0
 21 19  1  0  0  0  0
 21 20  1  0  0  0  0
 22 23  1  1  0  0  0
 23 24  3  0  0  0  0
 24 25  1  0  0  0  0
 25 26  1  0  0  0  0
 28 30  1  0  0  0  0
 28 29  2  0  0  0  0
 29 32  1  0  0  0  0
 30 31  1  0  0  0  0
 31 26  1  0  0  0  0
 31 32  1  0  0  0  0
 32 27  2  0  0  0  0
 33  7  1  0  0  0  0
 33 34  1  0  0  0  0
 35 34  1  0  0  0  0
 35 39  1  0  0  0  0
 36 48  1  0  0  0  0
 37 36  2  0  0  0  0
 38 39  2  0  0  0  0
 38 41  1  0  0  0  0
 39 37  1  0  0  0  0
 40 36  1  0  0  0  0
 41 40  2  0  0  0  0
 43 49  1  6  0  0  0
 43 46  1  0  0  0  0
 43 45  1  0  0  0  0
 44 42  1  0  0  0  0
 46 45  1  1  0  0  0
 46 42  1  0  0  0  0
 48 47  1  1  0  0  0
 48 43  1  0  0  0  0
 48 44  1  0  0  0  0
M  END
>  <MODEL>
3

>  <REMARK>
 VINA RESULT:      -6.4      2.624      5.874
  Name = 
  14 active torsions:
  status: ('A' for Active; 'I' for Inactive)
    1  A    between atoms: C_1  and  N_36
    2  A    between atoms: N_3  and  C_44
    3  A    between atoms: C_4  and  O_15
    4  A    between atoms: C_4  and  C_26
    5  A    between atoms: C_5  and  C_32
    6  A    between atoms: C_7  and  C_35
    7  A    between atoms: O_15  and  N_45
    8  A    between atoms: C_24  and  N_36
    9  A    between atoms: C_27  and  C_43
   10  A    between atoms: C_37  and  O_39
   11  A    between atoms: C_37  and  C_44
   12  A    between atoms: C_38  and  C_41
   13  A    between atoms: C_38  and  N_49
   14  A    between atoms: C_43  and  N_49
                            x       y       z     vdW  Elec       q    Type
                         _______ _______ _______ _____ _____    ______ ____

>  <TORSDO>
F 14

$$$$
=
 OpenBabel11042414073D

 49 55  0  0  1  0  0  0  0  0999 V2000
  188.5810  174.6060  140.6420 O   0  0  0  0  0  0  0  0  0  0  0  0
  190.6190  173.5130  140.5220 N   0  0  0  0  0  0  0  0  0  0  0  0
  189.7640  174.5160  141.0710 C   0  0  0  0  0  0  0  0  0  0  0  0
  192.1100  171.8760  141.6620 C   0  0  0  0  0  1  0  0  0  0  0  0
  190.8880  172.3840  139.5730 C   0  0  0  0  0  2  0  0  0  0  0  0
  190.2390  175.4020  142.1070 N   0  0  0  0  0  0  0  0  0  0  0  0
  191.8930  172.7490  140.4410 C   0  0  1  0  0  0  0  0  0  0  0  0
  189.3300  176.3290  142.7990 C   0  0  1  0  0  3  0  0  0  0  0  0
  185.6850  176.8960  142.3040 N   0  0  0  0  0  2  0  0  0  0  0  0
  187.1150  176.9130  142.3440 C   0  0  0  0  0  0  0  0  0  0  0  0
  187.8070  177.9210  141.9360 N   0  0  0  0  0  0  0  0  0  0  0  0
  189.2280  177.6760  142.0810 C   0  0  0  0  0  2  0  0  0  0  0  0
  187.9090  175.7840  142.8740 C   0  0  0  0  0  2  0  0  0  0  0  0
  184.8930  177.9990  141.7760 C   0  0  0  0  0  2  0  0  0  0  0  0
  183.8180  178.3850  142.7390 C   0  0  0  0  0  0  0  0  0  0  0  0
  182.6070  178.3190  142.3890 O   0  0  0  0  0  0  0  0  0  0  0  0
  185.1630  179.7900  144.2460 C   0  0  0  0  0  1  0  0  0  0  0  0
  184.1690  178.8000  144.0230 O   0  0  0  0  0  0  0  0  0  0  0  0
  192.0830  176.7010  143.0620 C   0  0  0  0  0  2  0  0  0  0  0  0
  191.9680  174.6790  143.7710 C   0  0  0  0  0  2  0  0  0  0  0  0
  191.6710  175.3740  142.4460 C   0  0  1  0  0  3  0  0  0  0  0  0
  192.3770  176.0080  144.3810 C   0  0  2  0  0  3  0  0  0  0  0  0
  191.3910  176.4160  145.3860 C   0  0  0  0  0  0  0  0  0  0  0  0
  190.5720  176.7570  146.2040 C   0  0  0  0  0  0  0  0  0  0  0  0
  189.5760  177.1760  147.1910 C   0  0  0  0  0  2  0  0  0  0  0  0
  188.5440  177.9140  146.5490 O   0  0  0  0  0  0  0  0  0  0  0  0
  186.5900  179.6870  148.3880 S   0  0  0  0  0  0  0  0  0  0  0  0
  185.2610  176.7900  146.5110 C   0  0  0  0  0  3  0  0  0  0  0  0
  185.0660  177.8090  147.3800 N   0  0  0  0  0  0  0  0  0  0  0  0
  186.5500  176.7070  146.1200 N   0  0  0  0  0  2  0  0  0  0  0  0
  187.1930  177.6760  146.7430 N   0  0  0  0  0  0  0  0  0  0  0  0
  186.2960  178.3420  147.5000 C   0  0  0  0  0  0  0  0  0  0  0  0
  193.0330  173.5840  139.8830 C   0  0  0  0  0  2  0  0  0  0  0  0
  194.2950  173.1360  140.4450 N   0  0  0  0  0  2  0  0  0  0  0  0
  195.1570  174.3030  140.5340 C   0  0  0  0  0  2  0  0  0  0  0  0
  195.9690  173.6950  144.1910 C   0  0  0  0  0  0  0  0  0  0  0  0
  195.7030  173.4790  142.8280 C   0  0  0  0  0  3  0  0  0  0  0  0
  195.5600  175.8640  142.4460 C   0  0  0  0  0  3  0  0  0  0  0  0
  195.4990  174.5550  141.9590 C   0  0  0  0  0  0  0  0  0  0  0  0
  196.0470  175.0190  144.6600 C   0  0  0  0  0  3  0  0  0  0  0  0
  195.8410  176.0970  143.7950 C   0  0  0  0  0  3  0  0  0  0  0  0
  196.3540  170.2780  144.0860 C   0  0  0  0  0  2  0  0  0  0  0  0
  194.9150  171.7300  145.3880 C   0  0  2  0  0  0  0  0  0  0  0  0
  197.1510  171.5300  144.4330 C   0  0  0  0  0  2  0  0  0  0  0  0
  194.9360  170.4140  146.1380 C   0  0  0  0  0  2  0  0  0  0  0  0
  194.9350  170.4360  144.6120 C   0  0  2  0  0  3  0  0  0  0  0  0
  196.8170  172.9270  146.4480 C   0  0  0  0  0  1  0  0  0  0  0  0
  196.2050  172.5080  145.1150 C   0  0  1  0  0  0  0  0  0  0  0  0
  193.6780  172.3790  145.3380 O   0  0  0  0  0  1  0  0  0  0  0  0
  1  3  2  0  0  0  0
  2  3  1  0  0  0  0
  3  6  1  0  0  0  0
  5  7  1  0  0  0  0
  5  2  1  0  0  0  0
  7  2  1  0  0  0  0
  7  4  1  1  0  0  0
  8  6  1  6  0  0  0
  8 13  1  0  0  0  0
  9 10  1  0  0  0  0
 10 13  1  0  0  0  0
 11 12  1  0  0  0  0
 11 10  2  0  0  0  0
 12  8  1  0  0  0  0
 14  9  1  0  0  0  0
 14 15  1  0  0  0  0
 15 18  1  0  0  0  0
 16 15  2  0  0  0  0
 18 17  1  0  0  0  0
 19 22  1  0  0  0  0
 20 22  1  0  0  0  0
 21  6  1  1  0  0  0
 21 19  1  0  0  0  0
 21 20  1  0  0  0  0
 22 23  1  1  0  0  0
 23 24  3  0  0  0  0
 24 25  1  0  0  0  0
 26 31  1  0  0  0  0
 26 25  1  0  0  0  0
 28 29  2  0  0  0  0
 29 32  1  0  0  0  0
 30 28  1  0  0  0  0
 30 31  1  0  0  0  0
 31 32  1  0  0  0  0
 32 27  2  0  0  0  0
 33  7  1  0  0  0  0
 33 34  1  0  0  0  0
 34 35  1  0  0  0  0
 35 39  1  0  0  0  0
 36 40  1  0  0  0  0
 36 48  1  0  0  0  0
 37 36  2  0  0  0  0
 38 41  1  0  0  0  0
 39 38  2  0  0  0  0
 39 37  1  0  0  0  0
 41 40  2  0  0  0  0
 42 44  1  0  0  0  0
 43 49  1  1  0  0  0
 43 45  1  0  0  0  0
 44 48  1  0  0  0  0
 46 42  1  6  0  0  0
 46 43  1  0  0  0  0
 46 45  1  0  0  0  0
 48 43  1  0  0  0  0
 48 47  1  1  0  0  0
M  END
>  <MODEL>
4

>  <REMARK>
 VINA RESULT:      -6.3      2.532      5.506
  Name = 
  14 active torsions:
  status: ('A' for Active; 'I' for Inactive)
    1  A    between atoms: C_1  and  N_36
    2  A    between atoms: N_3  and  C_44
    3  A    between atoms: C_4  and  O_15
    4  A    between atoms: C_4  and  C_26
    5  A    between atoms: C_5  and  C_32
    6  A    between atoms: C_7  and  C_35
    7  A    between atoms: O_15  and  N_45
    8  A    between atoms: C_24  and  N_36
    9  A    between atoms: C_27  and  C_43
   10  A    between atoms: C_37  and  O_39
   11  A    between atoms: C_37  and  C_44
   12  A    between atoms: C_38  and  C_41
   13  A    between atoms: C_38  and  N_49
   14  A    between atoms: C_43  and  N_49
                            x       y       z     vdW  Elec       q    Type
                         _______ _______ _______ _____ _____    ______ ____

>  <TORSDO>
F 14

$$$$
=
 OpenBabel11042414073D

 49 55  0  0  1  0  0  0  0  0999 V2000
  195.0020  174.9040  141.1510 O   0  0  0  0  0  0  0  0  0  0  0  0
  195.6990  174.3630  143.2920 N   0  0  0  0  0  0  0  0  0  0  0  0
  194.8170  174.1990  142.1820 C   0  0  0  0  0  0  0  0  0  0  0  0
  196.8820  172.6550  144.6660 C   0  0  0  0  0  1  0  0  0  0  0  0
  196.8620  175.0270  143.9670 C   0  0  0  0  0  2  0  0  0  0  0  0
  193.7420  173.2380  142.2320 N   0  0  0  0  0  0  0  0  0  0  0  0
  196.2160  174.0170  144.6440 C   0  0  1  0  0  0  0  0  0  0  0  0
  192.9270  172.9370  141.0440 C   0  0  1  0  0  3  0  0  0  0  0  0
  193.9110  172.8080  137.4570 N   0  0  0  0  0  2  0  0  0  0  0  0
  193.4290  173.1100  138.7690 C   0  0  0  0  0  0  0  0  0  0  0  0
  192.6730  174.1260  139.0130 N   0  0  0  0  0  0  0  0  0  0  0  0
  192.3350  174.2030  140.4200 C   0  0  0  0  0  2  0  0  0  0  0  0
  193.7440  172.2700  139.9450 C   0  0  0  0  0  2  0  0  0  0  0  0
  193.6140  173.6330  136.2930 C   0  0  0  0  0  2  0  0  0  0  0  0
  194.8260  174.3910  135.8610 C   0  0  0  0  0  0  0  0  0  0  0  0
  195.3760  174.1220  134.7570 O   0  0  0  0  0  0  0  0  0  0  0  0
  196.5860  175.2850  137.3290 C   0  0  0  0  0  1  0  0  0  0  0  0
  195.3280  175.4010  136.6810 O   0  0  0  0  0  0  0  0  0  0  0  0
  192.4800  173.4010  144.3250 C   0  0  0  0  0  2  0  0  0  0  0  0
  192.4180  171.4640  143.4050 C   0  0  0  0  0  2  0  0  0  0  0  0
  193.4610  172.5710  143.5130 C   0  0  1  0  0  3  0  0  0  0  0  0
  191.4420  172.2980  144.2150 C   0  0  2  0  0  3  0  0  0  0  0  0
  190.3380  172.7390  143.3580 C   0  0  0  0  0  0  0  0  0  0  0  0
  189.4230  173.0920  142.6560 C   0  0  0  0  0  0  0  0  0  0  0  0
  188.3100  173.5120  141.8030 C   0  0  0  0  0  2  0  0  0  0  0  0
  188.2000  172.6350  140.6880 O   0  0  0  0  0  0  0  0  0  0  0  0
  190.3170  170.8290  139.0760 S   0  0  0  0  0  0  0  0  0  0  0  0
  188.9610  173.9150  137.5550 C   0  0  0  0  0  3  0  0  0  0  0  0
  189.7880  172.8460  137.4900 N   0  0  0  0  0  2  0  0  0  0  0  0
  188.2980  173.9640  138.7300 N   0  0  0  0  0  0  0  0  0  0  0  0
  188.7040  172.9230  139.4310 N   0  0  0  0  0  0  0  0  0  0  0  0
  189.6000  172.2470  138.6810 C   0  0  0  0  0  0  0  0  0  0  0  0
  195.2530  174.4190  145.7490 C   0  0  0  0  0  2  0  0  0  0  0  0
  195.1930  175.8670  145.8490 N   0  0  0  0  0  2  0  0  0  0  0  0
  194.0530  176.1860  146.6910 C   0  0  0  0  0  2  0  0  0  0  0  0
  190.4700  176.3250  145.4450 C   0  0  0  0  0  0  0  0  0  0  0  0
  191.5920  176.1160  146.2660 C   0  0  0  0  0  3  0  0  0  0  0  0
  193.0460  177.0480  144.5710 C   0  0  0  0  0  3  0  0  0  0  0  0
  192.8720  176.4740  145.8330 C   0  0  0  0  0  0  0  0  0  0  0  0
  190.6590  176.9240  144.1860 C   0  0  0  0  0  3  0  0  0  0  0  0
  191.9380  177.2800  143.7490 C   0  0  0  0  0  3  0  0  0  0  0  0
  187.1470  176.7950  144.6890 C   0  0  0  0  0  2  0  0  0  0  0  0
  188.4250  177.0830  146.7290 C   0  0  2  0  0  0  0  0  0  0  0  0
  188.1810  175.6770  144.7500 C   0  0  0  0  0  2  0  0  0  0  0  0
  186.9800  176.9950  147.1740 C   0  0  0  0  0  2  0  0  0  0  0  0
  187.3500  177.7180  145.8820 C   0  0  2  0  0  3  0  0  0  0  0  0
  189.1100  174.6950  146.8230 C   0  0  0  0  0  1  0  0  0  0  0  0
  189.0840  175.9440  145.9450 C   0  0  1  0  0  0  0  0  0  0  0  0
  189.2120  178.0170  147.4060 O   0  0  0  0  0  1  0  0  0  0  0  0
  1  3  2  0  0  0  0
  2  5  1  0  0  0  0
  2  7  1  0  0  0  0
  3  6  1  0  0  0  0
  3  2  1  0  0  0  0
  5  7  1  0  0  0  0
  7  4  1  1  0  0  0
  7 33  1  0  0  0  0
  8  6  1  1  0  0  0
  9 10  1  0  0  0  0
 10 11  2  0  0  0  0
 10 13  1  0  0  0  0
 11 12  1  0  0  0  0
 12  8  1  0  0  0  0
 13  8  1  0  0  0  0
 14  9  1  0  0  0  0
 15 14  1  0  0  0  0
 15 18  1  0  0  0  0
 16 15  2  0  0  0  0
 18 17  1  0  0  0  0
 20 21  1  0  0  0  0
 20 22  1  0  0  0  0
 21  6  1  6  0  0  0
 21 19  1  0  0  0  0
 22 23  1  6  0  0  0
 22 19  1  0  0  0  0
 24 23  3  0  0  0  0
 25 24  1  0  0  0  0
 26 25  1  0  0  0  0
 28 30  2  0  0  0  0
 29 28  1  0  0  0  0
 29 32  1  0  0  0  0
 30 31  1  0  0  0  0
 31 26  1  0  0  0  0
 32 27  2  0  0  0  0
 32 31  1  0  0  0  0
 33 34  1  0  0  0  0
 34 35  1  0  0  0  0
 36 48  1  0  0  0  0
 36 37  1  0  0  0  0
 38 39  1  0  0  0  0
 39 37  2  0  0  0  0
 39 35  1  0  0  0  0
 40 36  2  0  0  0  0
 41 40  1  0  0  0  0
 41 38  2  0  0  0  0
 42 44  1  0  0  0  0
 43 45  1  0  0  0  0
 43 49  1  1  0  0  0
 44 48  1  0  0  0  0
 46 42  1  6  0  0  0
 46 43  1  0  0  0  0
 46 45  1  0  0  0  0
 48 43  1  0  0  0  0
 48 47  1  1  0  0  0
M  END
>  <MODEL>
5

>  <REMARK>
 VINA RESULT:      -6.3      3.031      8.162
  Name = 
  14 active torsions:
  status: ('A' for Active; 'I' for Inactive)
    1  A    between atoms: C_1  and  N_36
    2  A    between atoms: N_3  and  C_44
    3  A    between atoms: C_4  and  O_15
    4  A    between atoms: C_4  and  C_26
    5  A    between atoms: C_5  and  C_32
    6  A    between atoms: C_7  and  C_35
    7  A    between atoms: O_15  and  N_45
    8  A    between atoms: C_24  and  N_36
    9  A    between atoms: C_27  and  C_43
   10  A    between atoms: C_37  and  O_39
   11  A    between atoms: C_37  and  C_44
   12  A    between atoms: C_38  and  C_41
   13  A    between atoms: C_38  and  N_49
   14  A    between atoms: C_43  and  N_49
                            x       y       z     vdW  Elec       q    Type
                         _______ _______ _______ _____ _____    ______ ____

>  <TORSDO>
F 14

$$$$
=
 OpenBabel11042414073D

 49 55  0  0  1  0  0  0  0  0999 V2000
  193.9710  175.6020  141.9310 O   0  0  0  0  0  0  0  0  0  0  0  0
  194.2750  175.4740  144.2230 N   0  0  0  0  0  0  0  0  0  0  0  0
  193.7390  174.9720  142.9990 C   0  0  0  0  0  0  0  0  0  0  0  0
  195.5030  174.2930  146.0410 C   0  0  0  0  0  1  0  0  0  0  0  0
  195.0500  176.4920  145.0050 C   0  0  0  0  0  2  0  0  0  0  0  0
  192.9560  173.7590  142.9820 N   0  0  0  0  0  0  0  0  0  0  0  0
  194.5400  175.4100  145.6860 C   0  0  1  0  0  0  0  0  0  0  0  0
  192.5350  173.1380  141.7160 C   0  0  1  0  0  3  0  0  0  0  0  0
  194.4100  172.7320  138.5270 N   0  0  0  0  0  2  0  0  0  0  0  0
  193.5650  173.1020  139.6200 C   0  0  0  0  0  0  0  0  0  0  0  0
  192.6120  173.9610  139.4990 N   0  0  0  0  0  0  0  0  0  0  0  0
  191.9170  174.1560  140.7560 C   0  0  0  0  0  2  0  0  0  0  0  0
  193.7070  172.5130  140.9690 C   0  0  0  0  0  2  0  0  0  0  0  0
  194.2860  173.3120  137.1960 C   0  0  0  0  0  2  0  0  0  0  0  0
  195.5830  173.9070  136.7560 C   0  0  0  0  0  0  0  0  0  0  0  0
  196.2620  173.3400  135.8560 O   0  0  0  0  0  0  0  0  0  0  0  0
  197.3960  175.3420  137.6000 C   0  0  0  0  0  1  0  0  0  0  0  0
  196.0210  175.0960  137.3400 O   0  0  0  0  0  0  0  0  0  0  0  0
  191.2740  173.7890  144.7610 C   0  0  0  0  0  2  0  0  0  0  0  0
  191.8480  171.8230  144.1240 C   0  0  0  0  0  2  0  0  0  0  0  0
  192.5660  173.1610  144.2680 C   0  0  1  0  0  3  0  0  0  0  0  0
  190.5600  172.4570  144.6150 C   0  0  2  0  0  3  0  0  0  0  0  0
  189.5930  172.5300  143.5160 C   0  0  0  0  0  0  0  0  0  0  0  0
  188.7880  172.5880  142.6190 C   0  0  0  0  0  0  0  0  0  0  0  0
  187.8060  172.6550  141.5360 C   0  0  0  0  0  2  0  0  0  0  0  0
  188.2960  173.4860  140.4910 O   0  0  0  0  0  0  0  0  0  0  0  0
  187.8200  174.8950  137.6400 S   0  0  0  0  0  0  0  0  0  0  0  0
  189.7900  171.7730  137.8700 C   0  0  0  0  0  3  0  0  0  0  0  0
  189.2340  172.7530  137.1180 N   0  0  0  0  0  2  0  0  0  0  0  0
  189.5020  171.9250  139.1800 N   0  0  0  0  0  0  0  0  0  0  0  0
  188.7510  173.0050  139.2750 N   0  0  0  0  0  0  0  0  0  0  0  0
  188.5940  173.5060  138.0310 C   0  0  0  0  0  0  0  0  0  0  0  0
  193.2820  175.6290  146.5100 C   0  0  0  0  0  2  0  0  0  0  0  0
  192.6480  176.8760  146.1190 N   0  0  0  0  0  2  0  0  0  0  0  0
  191.2550  176.7870  146.5230 C   0  0  0  0  0  2  0  0  0  0  0  0
  188.1550  177.4750  144.4430 C   0  0  0  0  0  0  0  0  0  0  0  0
  188.9950  177.1480  145.5230 C   0  0  0  0  0  3  0  0  0  0  0  0
  190.9550  177.5800  144.1700 C   0  0  0  0  0  3  0  0  0  0  0  0
  190.3850  177.1990  145.3890 C   0  0  0  0  0  0  0  0  0  0  0  0
  188.7440  177.8770  143.2300 C   0  0  0  0  0  3  0  0  0  0  0  0
  190.1340  177.9260  143.0930 C   0  0  0  0  0  3  0  0  0  0  0  0
  185.5550  179.3920  145.6240 C   0  0  0  0  0  2  0  0  0  0  0  0
  186.2450  177.1100  146.0610 C   0  0  2  0  0  0  0  0  0  0  0  0
  186.0670  178.8040  144.3150 C   0  0  0  0  0  2  0  0  0  0  0  0
  184.7990  177.1820  146.5090 C   0  0  0  0  0  2  0  0  0  0  0  0
  185.7380  178.3640  146.7300 C   0  0  2  0  0  3  0  0  0  0  0  0
  185.9860  176.4110  143.6900 C   0  0  0  0  0  1  0  0  0  0  0  0
  186.6440  177.4290  144.6180 C   0  0  1  0  0  0  0  0  0  0  0  0
  187.0950  176.3600  146.8770 O   0  0  0  0  0  1  0  0  0  0  0  0
  1  3  2  0  0  0  0
  2  5  1  0  0  0  0
  2  7  1  0  0  0  0
  3  2  1  0  0  0  0
  5  7  1  0  0  0  0
  6  3  1  0  0  0  0
  7  4  1  1  0  0  0
  7 33  1  0  0  0  0
  8  6  1  1  0  0  0
  9 10  1  0  0  0  0
 10 13  1  0  0  0  0
 11 10  2  0  0  0  0
 11 12  1  0  0  0  0
 12  8  1  0  0  0  0
 13  8  1  0  0  0  0
 14  9  1  0  0  0  0
 15 14  1  0  0  0  0
 15 18  1  0  0  0  0
 16 15  2  0  0  0  0
 18 17  1  0  0  0  0
 20 21  1  0  0  0  0
 20 22  1  0  0  0  0
 21  6  1  6  0  0  0
 21 19  1  0  0  0  0
 22 23  1  6  0  0  0
 22 19  1  0  0  0  0
 24 23  3  0  0  0  0
 25 24  1  0  0  0  0
 26 25  1  0  0  0  0
 27 32  2  0  0  0  0
 28 30  2  0  0  0  0
 29 28  1  0  0  0  0
 29 32  1  0  0  0  0
 30 31  1  0  0  0  0
 31 26  1  0  0  0  0
 32 31  1  0  0  0  0
 34 33  1  0  0  0  0
 34 35  1  0  0  0  0
 36 48  1  0  0  0  0
 36 37  1  0  0  0  0
 38 39  1  0  0  0  0
 39 37  2  0  0  0  0
 39 35  1  0  0  0  0
 40 36  2  0  0  0  0
 41 40  1  0  0  0  0
 41 38  2  0  0  0  0
 43 45  1  0  0  0  0
 43 46  1  0  0  0  0
 43 49  1  1  0  0  0
 44 48  1  0  0  0  0
 44 42  1  0  0  0  0
 45 46  1  0  0  0  0
 46 42  1  6  0  0  0
 48 47  1  6  0  0  0
 48 43  1  0  0  0  0
M  END
>  <MODEL>
6

>  <REMARK>
 VINA RESULT:      -6.2      2.906      8.544
  Name = 
  14 active torsions:
  status: ('A' for Active; 'I' for Inactive)
    1  A    between atoms: C_1  and  N_36
    2  A    between atoms: N_3  and  C_44
    3  A    between atoms: C_4  and  O_15
    4  A    between atoms: C_4  and  C_26
    5  A    between atoms: C_5  and  C_32
    6  A    between atoms: C_7  and  C_35
    7  A    between atoms: O_15  and  N_45
    8  A    between atoms: C_24  and  N_36
    9  A    between atoms: C_27  and  C_43
   10  A    between atoms: C_37  and  O_39
   11  A    between atoms: C_37  and  C_44
   12  A    between atoms: C_38  and  C_41
   13  A    between atoms: C_38  and  N_49
   14  A    between atoms: C_43  and  N_49
                            x       y       z     vdW  Elec       q    Type
                         _______ _______ _______ _____ _____    ______ ____

>  <TORSDO>
F 14

$$$$
=
 OpenBabel11042414073D

 49 55  0  0  1  0  0  0  0  0999 V2000
  194.9240  174.9510  141.0500 O   0  0  0  0  0  0  0  0  0  0  0  0
  195.8450  174.6430  143.1530 N   0  0  0  0  0  0  0  0  0  0  0  0
  194.9120  174.2970  142.1290 C   0  0  0  0  0  0  0  0  0  0  0  0
  197.3430  173.1930  144.5160 C   0  0  0  0  0  1  0  0  0  0  0  0
  196.9570  175.4920  143.6920 C   0  0  0  0  0  2  0  0  0  0  0  0
  193.9800  173.2120  142.3200 N   0  0  0  0  0  0  0  0  0  0  0  0
  196.5020  174.4550  144.4740 C   0  0  1  0  0  0  0  0  0  0  0  0
  193.1250  172.7330  141.2220 C   0  0  1  0  0  3  0  0  0  0  0  0
  193.9220  172.2820  137.6140 N   0  0  0  0  0  2  0  0  0  0  0  0
  193.4910  172.6920  138.9150 C   0  0  0  0  0  0  0  0  0  0  0  0
  192.6800  173.6770  139.0980 N   0  0  0  0  0  0  0  0  0  0  0  0
  192.4130  173.8830  140.5070 C   0  0  0  0  0  2  0  0  0  0  0  0
  193.9270  172.0050  140.1500 C   0  0  0  0  0  2  0  0  0  0  0  0
  193.5050  172.9560  136.3910 C   0  0  0  0  0  2  0  0  0  0  0  0
  194.6270  173.7630  135.8260 C   0  0  0  0  0  0  0  0  0  0  0  0
  195.3150  173.3040  134.8730 O   0  0  0  0  0  0  0  0  0  0  0  0
  196.1820  175.3900  136.8220 C   0  0  0  0  0  1  0  0  0  0  0  0
  194.8920  175.0280  136.3530 O   0  0  0  0  0  0  0  0  0  0  0  0
  192.7630  173.2500  144.4460 C   0  0  0  0  0  2  0  0  0  0  0  0
  193.1150  171.2830  143.6660 C   0  0  0  0  0  2  0  0  0  0  0  0
  193.8860  172.5990  143.6540 C   0  0  1  0  0  3  0  0  0  0  0  0
  191.9970  171.9390  144.4550 C   0  0  2  0  0  3  0  0  0  0  0  0
  190.8020  172.0580  143.6140 C   0  0  0  0  0  0  0  0  0  0  0  0
  189.8130  172.1630  142.9310 C   0  0  0  0  0  0  0  0  0  0  0  0
  188.6090  172.2940  142.1090 C   0  0  0  0  0  2  0  0  0  0  0  0
  188.9200  172.9870  140.9070 O   0  0  0  0  0  0  0  0  0  0  0  0
  188.3450  174.0670  137.9320 S   0  0  0  0  0  0  0  0  0  0  0  0
  190.2740  170.9530  138.4440 C   0  0  0  0  0  3  0  0  0  0  0  0
  189.7020  171.8500  137.6060 N   0  0  0  0  0  2  0  0  0  0  0  0
  190.0450  171.2600  139.7380 N   0  0  0  0  0  0  0  0  0  0  0  0
  189.3150  172.3600  139.7370 N   0  0  0  0  0  0  0  0  0  0  0  0
  189.1130  172.7160  138.4510 C   0  0  0  0  0  0  0  0  0  0  0  0
  195.5800  174.8010  145.6310 C   0  0  0  0  0  2  0  0  0  0  0  0
  194.8730  176.0370  145.3450 N   0  0  0  0  0  2  0  0  0  0  0  0
  194.2120  176.4410  146.5750 C   0  0  0  0  0  2  0  0  0  0  0  0
  190.6080  176.6100  145.3970 C   0  0  0  0  0  0  0  0  0  0  0  0
  191.9970  176.8090  145.4800 C   0  0  0  0  0  3  0  0  0  0  0  0
  192.1290  175.3150  147.3800 C   0  0  0  0  0  3  0  0  0  0  0  0
  192.7540  176.1670  146.4650 C   0  0  0  0  0  0  0  0  0  0  0  0
  189.9970  175.7330  146.3120 C   0  0  0  0  0  3  0  0  0  0  0  0
  190.7510  175.0920  147.2990 C   0  0  0  0  0  3  0  0  0  0  0  0
  187.4030  176.8030  144.1620 C   0  0  0  0  0  2  0  0  0  0  0  0
  189.5470  176.3840  143.1110 C   0  0  2  0  0  0  0  0  0  0  0  0
  188.4380  177.6800  144.8550 C   0  0  0  0  0  2  0  0  0  0  0  0
  188.6260  176.8030  141.9830 C   0  0  0  0  0  2  0  0  0  0  0  0
  188.1060  175.9370  143.1270 C   0  0  2  0  0  3  0  0  0  0  0  0
  190.4930  178.5750  143.8060 C   0  0  0  0  0  1  0  0  0  0  0  0
  189.8070  177.3060  144.3050 C   0  0  1  0  0  0  0  0  0  0  0  0
  190.4380  175.3500  142.8140 O   0  0  0  0  0  1  0  0  0  0  0  0
  1  3  2  0  0  0  0
  2  5  1  0  0  0  0
  2  7  1  0  0  0  0
  3  6  1  0  0  0  0
  3  2  1  0  0  0  0
  5  7  1  0  0  0  0
  7  4  1  1  0  0  0
  7 33  1  0  0  0  0
  8  6  1  1  0  0  0
  9 10  1  0  0  0  0
 10 11  2  0  0  0  0
 10 13  1  0  0  0  0
 11 12  1  0  0  0  0
 12  8  1  0  0  0  0
 13  8  1  0  0  0  0
 14  9  1  0  0  0  0
 15 18  1  0  0  0  0
 15 14  1  0  0  0  0
 16 15  2  0  0  0  0
 18 17  1  0  0  0  0
 19 22  1  0  0  0  0
 20 22  1  0  0  0  0
 21  6  1  6  0  0  0
 21 20  1  0  0  0  0
 21 19  1  0  0  0  0
 22 23  1  6  0  0  0
 24 23  3  0  0  0  0
 25 24  1  0  0  0  0
 26 25  1  0  0  0  0
 27 32  2  0  0  0  0
 28 30  2  0  0  0  0
 29 28  1  0  0  0  0
 29 32  1  0  0  0  0
 31 30  1  0  0  0  0
 31 26  1  0  0  0  0
 32 31  1  0  0  0  0
 34 33  1  0  0  0  0
 34 35  1  0  0  0  0
 36 37  2  0  0  0  0
 36 40  1  0  0  0  0
 37 39  1  0  0  0  0
 39 35  1  0  0  0  0
 39 38  2  0  0  0  0
 40 41  2  0  0  0  0
 41 38  1  0  0  0  0
 42 44  1  0  0  0  0
 43 49  1  6  0  0  0
 43 46  1  0  0  0  0
 43 48  1  0  0  0  0
 45 43  1  0  0  0  0
 46 45  1  6  0  0  0
 46 42  1  0  0  0  0
 48 47  1  6  0  0  0
 48 44  1  0  0  0  0
 48 36  1  0  0  0  0
M  END
>  <MODEL>
7

>  <REMARK>
 VINA RESULT:      -6.1      3.421      7.794
  Name = 
  14 active torsions:
  status: ('A' for Active; 'I' for Inactive)
    1  A    between atoms: C_1  and  N_36
    2  A    between atoms: N_3  and  C_44
    3  A    between atoms: C_4  and  O_15
    4  A    between atoms: C_4  and  C_26
    5  A    between atoms: C_5  and  C_32
    6  A    between atoms: C_7  and  C_35
    7  A    between atoms: O_15  and  N_45
    8  A    between atoms: C_24  and  N_36
    9  A    between atoms: C_27  and  C_43
   10  A    between atoms: C_37  and  O_39
   11  A    between atoms: C_37  and  C_44
   12  A    between atoms: C_38  and  C_41
   13  A    between atoms: C_38  and  N_49
   14  A    between atoms: C_43  and  N_49
                            x       y       z     vdW  Elec       q    Type
                         _______ _______ _______ _____ _____    ______ ____

>  <TORSDO>
F 14

$$$$
=
 OpenBabel11042414073D

 49 55  0  0  1  0  0  0  0  0999 V2000
  193.0830  175.5920  142.2050 O   0  0  0  0  0  0  0  0  0  0  0  0
  192.9490  175.9880  144.4830 N   0  0  0  0  0  0  0  0  0  0  0  0
  193.4010  175.2200  143.3680 C   0  0  0  0  0  0  0  0  0  0  0  0
  194.1990  176.8180  146.4710 C   0  0  0  0  0  1  0  0  0  0  0  0
  192.1860  177.1370  145.0710 C   0  0  0  0  0  2  0  0  0  0  0  0
  194.2160  174.0450  143.5660 N   0  0  0  0  0  0  0  0  0  0  0  0
  192.8730  176.3130  145.9330 C   0  0  1  0  0  0  0  0  0  0  0  0
  194.8260  173.3350  142.4300 C   0  0  1  0  0  3  0  0  0  0  0  0
  196.0390  174.6650  139.1730 N   0  0  0  0  0  2  0  0  0  0  0  0
  195.3480  174.0740  140.2760 C   0  0  0  0  0  0  0  0  0  0  0  0
  194.2820  173.3650  140.1280 N   0  0  0  0  0  0  0  0  0  0  0  0
  193.7820  172.8930  141.4030 C   0  0  0  0  0  2  0  0  0  0  0  0
  195.8140  174.2140  141.6730 C   0  0  0  0  0  2  0  0  0  0  0  0
  195.5850  174.5410  137.7940 C   0  0  0  0  0  2  0  0  0  0  0  0
  196.4730  175.3130  136.8740 C   0  0  0  0  0  0  0  0  0  0  0  0
  197.7130  175.3730  137.1000 O   0  0  0  0  0  0  0  0  0  0  0  0
  196.4500  177.1610  135.2490 C   0  0  0  0  0  1  0  0  0  0  0  0
  195.9170  175.9500  135.7640 O   0  0  0  0  0  0  0  0  0  0  0  0
  193.2490  172.6580  145.3390 C   0  0  0  0  0  2  0  0  0  0  0  0
  195.3510  172.3560  145.0290 C   0  0  0  0  0  2  0  0  0  0  0  0
  194.4100  173.5540  144.9390 C   0  0  1  0  0  3  0  0  0  0  0  0
  194.1870  171.4660  145.4260 C   0  0  2  0  0  3  0  0  0  0  0  0
  193.8930  170.5230  144.3420 C   0  0  0  0  0  0  0  0  0  0  0  0
  193.6400  169.7510  143.4510 C   0  0  0  0  0  0  0  0  0  0  0  0
  193.3230  168.8150  142.3710 C   0  0  0  0  0  2  0  0  0  0  0  0
  191.9300  168.8600  142.0880 O   0  0  0  0  0  0  0  0  0  0  0  0
  191.8600  169.6350  138.9680 S   0  0  0  0  0  0  0  0  0  0  0  0
  190.0670  171.7160  141.4450 C   0  0  0  0  0  3  0  0  0  0  0  0
  190.4510  171.4910  140.1670 N   0  0  0  0  0  2  0  0  0  0  0  0
  190.5700  170.7900  142.2890 N   0  0  0  0  0  0  0  0  0  0  0  0
  191.2890  169.9650  141.5520 N   0  0  0  0  0  0  0  0  0  0  0  0
  191.2130  170.3860  140.2720 C   0  0  0  0  0  0  0  0  0  0  0  0
  192.0690  175.2870  146.7130 C   0  0  0  0  0  2  0  0  0  0  0  0
  190.8080  175.0330  146.0390 N   0  0  0  0  0  2  0  0  0  0  0  0
  189.7590  175.1780  147.0340 C   0  0  0  0  0  2  0  0  0  0  0  0
  187.6240  177.1010  144.5540 C   0  0  0  0  0  0  0  0  0  0  0  0
  188.6880  176.3800  145.1250 C   0  0  0  0  0  3  0  0  0  0  0  0
  187.4380  176.0990  147.1780 C   0  0  0  0  0  3  0  0  0  0  0  0
  188.5980  175.8820  146.4270 C   0  0  0  0  0  0  0  0  0  0  0  0
  186.4560  177.2920  145.3150 C   0  0  0  0  0  3  0  0  0  0  0  0
  186.3640  176.7980  146.6190 C   0  0  0  0  0  3  0  0  0  0  0  0
  185.7340  178.6270  142.1190 C   0  0  0  0  0  2  0  0  0  0  0  0
  187.1280  176.6450  142.1150 C   0  0  2  0  0  0  0  0  0  0  0  0
  186.9430  178.9100  143.0020 C   0  0  0  0  0  2  0  0  0  0  0  0
  186.9730  177.0240  140.6570 C   0  0  0  0  0  2  0  0  0  0  0  0
  185.8070  177.1890  141.6290 C   0  0  2  0  0  3  0  0  0  0  0  0
  189.1850  177.8980  142.7280 C   0  0  0  0  0  1  0  0  0  0  0  0
  187.7390  177.6190  143.1270 C   0  0  1  0  0  0  0  0  0  0  0  0
  187.0880  175.2760  142.3930 O   0  0  0  0  0  1  0  0  0  0  0  0
  1  3  2  0  0  0  0
  2  5  1  0  0  0  0
  2  7  1  0  0  0  0
  3  6  1  0  0  0  0
  3  2  1  0  0  0  0
  5  7  1  0  0  0  0
  7  4  1  1  0  0  0
  7 33  1  0  0  0  0
  8  6  1  1  0  0  0
  9 10  1  0  0  0  0
 10 13  1  0  0  0  0
 11 10  2  0  0  0  0
 11 12  1  0  0  0  0
 12  8  1  0  0  0  0
 13  8  1  0  0  0  0
 14  9  1  0  0  0  0
 15 16  2  0  0  0  0
 15 14  1  0  0  0  0
 17 18  1  0  0  0  0
 18 15  1  0  0  0  0
 19 22  1  0  0  0  0
 20 22  1  0  0  0  0
 21  6  1  6  0  0  0
 21 20  1  0  0  0  0
 21 19  1  0  0  0  0
 22 23  1  6  0  0  0
 24 23  3  0  0  0  0
 25 24  1  0  0  0  0
 26 25  1  0  0  0  0
 27 32  2  0  0  0  0
 28 30  2  0  0  0  0
 29 32  1  0  0  0  0
 29 28  1  0  0  0  0
 31 26  1  0  0  0  0
 31 30  1  0  0  0  0
 32 31  1  0  0  0  0
 34 33  1  0  0  0  0
 34 35  1  0  0  0  0
 36 37  2  0  0  0  0
 36 40  1  0  0  0  0
 37 39  1  0  0  0  0
 39 35  1  0  0  0  0
 39 38  2  0  0  0  0
 40 41  2  0  0  0  0
 41 38  1  0  0  0  0
 42 44  1  0  0  0  0
 43 49  1  1  0  0  0
 43 48  1  0  0  0  0
 44 48  1  0  0  0  0
 45 43  1  0  0  0  0
 46 45  1  6  0  0  0
 46 43  1  0  0  0  0
 46 42  1  0  0  0  0
 48 47  1  6  0  0  0
 48 36  1  0  0  0  0
M  END
>  <MODEL>
8

>  <REMARK>
 VINA RESULT:      -6.0      3.278      8.752
  Name = 
  14 active torsions:
  status: ('A' for Active; 'I' for Inactive)
    1  A    between atoms: C_1  and  N_36
    2  A    between atoms: N_3  and  C_44
    3  A    between atoms: C_4  and  O_15
    4  A    between atoms: C_4  and  C_26
    5  A    between atoms: C_5  and  C_32
    6  A    between atoms: C_7  and  C_35
    7  A    between atoms: O_15  and  N_45
    8  A    between atoms: C_24  and  N_36
    9  A    between atoms: C_27  and  C_43
   10  A    between atoms: C_37  and  O_39
   11  A    between atoms: C_37  and  C_44
   12  A    between atoms: C_38  and  C_41
   13  A    between atoms: C_38  and  N_49
   14  A    between atoms: C_43  and  N_49
                            x       y       z     vdW  Elec       q    Type
                         _______ _______ _______ _____ _____    ______ ____

>  <TORSDO>
F 14

$$$$
=
 OpenBabel11042414073D

 49 55  0  0  1  0  0  0  0  0999 V2000
  196.7470  174.2420  142.4140 O   0  0  0  0  0  0  0  0  0  0  0  0
  195.6410  174.0820  144.4420 N   0  0  0  0  0  0  0  0  0  0  0  0
  195.6640  174.3800  143.0460 C   0  0  0  0  0  0  0  0  0  0  0  0
  194.0250  172.7260  145.7660 C   0  0  0  0  0  1  0  0  0  0  0  0
  196.3160  173.6560  145.7110 C   0  0  0  0  0  2  0  0  0  0  0  0
  194.4680  174.8210  142.3680 N   0  0  0  0  0  0  0  0  0  0  0  0
  194.9650  173.9170  145.7570 C   0  0  1  0  0  0  0  0  0  0  0  0
  194.4290  174.9740  140.9050 C   0  0  1  0  0  3  0  0  0  0  0  0
  196.3390  173.1640  138.2740 N   0  0  0  0  0  2  0  0  0  0  0  0
  195.7930  174.0640  139.2410 C   0  0  0  0  0  0  0  0  0  0  0  0
  196.1810  175.2890  139.3460 N   0  0  0  0  0  0  0  0  0  0  0  0
  195.4720  175.9760  140.4070 C   0  0  0  0  0  2  0  0  0  0  0  0
  194.7270  173.6650  140.1850 C   0  0  0  0  0  2  0  0  0  0  0  0
  197.3960  173.5430  137.3440 C   0  0  0  0  0  2  0  0  0  0  0  0
  196.8770  173.5840  135.9440 C   0  0  0  0  0  0  0  0  0  0  0  0
  196.7930  172.5190  135.2730 O   0  0  0  0  0  0  0  0  0  0  0  0
  196.9600  176.0430  135.9010 C   0  0  0  0  0  1  0  0  0  0  0  0
  196.4780  174.8050  135.4000 O   0  0  0  0  0  0  0  0  0  0  0  0
  192.2900  175.9410  142.3570 C   0  0  0  0  0  2  0  0  0  0  0  0
  192.2750  173.9910  143.2520 C   0  0  0  0  0  2  0  0  0  0  0  0
  193.2810  175.1350  143.1790 C   0  0  1  0  0  3  0  0  0  0  0  0
  191.2890  174.8000  142.4280 C   0  0  2  0  0  3  0  0  0  0  0  0
  191.1350  174.1920  141.1040 C   0  0  0  0  0  0  0  0  0  0  0  0
  190.9970  173.6850  140.0170 C   0  0  0  0  0  0  0  0  0  0  0  0
  190.8260  173.0640  138.7040 C   0  0  0  0  0  2  0  0  0  0  0  0
  190.8450  171.6480  138.8350 O   0  0  0  0  0  0  0  0  0  0  0  0
  190.8400  170.1470  141.6790 S   0  0  0  0  0  0  0  0  0  0  0  0
  193.8230  169.9960  139.4980 C   0  0  0  0  0  3  0  0  0  0  0  0
  193.2110  169.6870  140.6660 N   0  0  0  0  0  0  0  0  0  0  0  0
  193.0340  170.7530  138.7060 N   0  0  0  0  0  2  0  0  0  0  0  0
  191.9080  170.9380  139.3670 N   0  0  0  0  0  0  0  0  0  0  0  0
  192.0150  170.2920  140.5470 C   0  0  0  0  0  0  0  0  0  0  0  0
  194.5270  175.2450  146.3520 C   0  0  0  0  0  2  0  0  0  0  0  0
  193.1620  175.1420  146.8360 N   0  0  0  0  0  2  0  0  0  0  0  0
  192.5080  176.4030  146.5270 C   0  0  0  0  0  2  0  0  0  0  0  0
  189.0120  176.6300  145.0660 C   0  0  0  0  0  0  0  0  0  0  0  0
  190.3960  176.7950  145.2520 C   0  0  0  0  0  3  0  0  0  0  0  0
  190.3370  175.3570  147.1980 C   0  0  0  0  0  3  0  0  0  0  0  0
  191.0550  176.1640  146.3110 C   0  0  0  0  0  0  0  0  0  0  0  0
  188.3070  175.7980  145.9550 C   0  0  0  0  0  3  0  0  0  0  0  0
  188.9640  175.1680  147.0160 C   0  0  0  0  0  3  0  0  0  0  0  0
  185.8930  177.6870  144.0710 C   0  0  0  0  0  2  0  0  0  0  0  0
  187.5790  176.3100  143.0050 C   0  0  2  0  0  0  0  0  0  0  0  0
  187.2580  178.2620  144.4320 C   0  0  0  0  0  2  0  0  0  0  0  0
  186.6770  176.7760  141.8810 C   0  0  0  0  0  2  0  0  0  0  0  0
  186.0940  176.4250  143.2470 C   0  0  2  0  0  3  0  0  0  0  0  0
  189.2930  178.1100  143.0320 C   0  0  0  0  0  1  0  0  0  0  0  0
  188.3190  177.3130  143.8950 C   0  0  1  0  0  0  0  0  0  0  0  0
  188.0200  174.9870  142.9200 O   0  0  0  0  0  1  0  0  0  0  0  0
  1  3  2  0  0  0  0
  2  5  1  0  0  0  0
  2  7  1  0  0  0  0
  3  2  1  0  0  0  0
  5  7  1  0  0  0  0
  6  3  1  0  0  0  0
  7  4  1  1  0  0  0
  7 33  1  0  0  0  0
  8  6  1  1  0  0  0
  9 10  1  0  0  0  0
 10 11  2  0  0  0  0
 10 13  1  0  0  0  0
 11 12  1  0  0  0  0
 12  8  1  0  0  0  0
 13  8  1  0  0  0  0
 14  9  1  0  0  0  0
 15 14  1  0  0  0  0
 16 15  2  0  0  0  0
 18 17  1  0  0  0  0
 18 15  1  0  0  0  0
 19 22  1  0  0  0  0
 19 21  1  0  0  0  0
 21  6  1  6  0  0  0
 21 20  1  0  0  0  0
 22 23  1  6  0  0  0
 22 20  1  0  0  0  0
 24 23  3  0  0  0  0
 25 26  1  0  0  0  0
 25 24  1  0  0  0  0
 26 31  1  0  0  0  0
 28 29  2  0  0  0  0
 30 31  1  0  0  0  0
 30 28  1  0  0  0  0
 31 32  1  0  0  0  0
 32 29  1  0  0  0  0
 32 27  2  0  0  0  0
 33 34  1  0  0  0  0
 35 34  1  0  0  0  0
 36 37  2  0  0  0  0
 36 40  1  0  0  0  0
 37 39  1  0  0  0  0
 39 35  1  0  0  0  0
 39 38  2  0  0  0  0
 40 41  2  0  0  0  0
 41 38  1  0  0  0  0
 42 44  1  0  0  0  0
 43 49  1  6  0  0  0
 43 46  1  0  0  0  0
 43 48  1  0  0  0  0
 45 43  1  0  0  0  0
 46 45  1  6  0  0  0
 46 42  1  0  0  0  0
 48 47  1  6  0  0  0
 48 44  1  0  0  0  0
 48 36  1  0  0  0  0
M  END
>  <MODEL>
9

>  <REMARK>
 VINA RESULT:      -6.0      3.408      8.892
  Name = 
  14 active torsions:
  status: ('A' for Active; 'I' for Inactive)
    1  A    between atoms: C_1  and  N_36
    2  A    between atoms: N_3  and  C_44
    3  A    between atoms: C_4  and  O_15
    4  A    between atoms: C_4  and  C_26
    5  A    between atoms: C_5  and  C_32
    6  A    between atoms: C_7  and  C_35
    7  A    between atoms: O_15  and  N_45
    8  A    between atoms: C_24  and  N_36
    9  A    between atoms: C_27  and  C_43
   10  A    between atoms: C_37  and  O_39
   11  A    between atoms: C_37  and  C_44
   12  A    between atoms: C_38  and  C_41
   13  A    between atoms: C_38  and  N_49
   14  A    between atoms: C_43  and  N_49
                            x       y       z     vdW  Elec       q    Type
                         _______ _______ _______ _____ _____    ______ ____

>  <TORSDO>
F 14

$$$$
