=
 OpenBabel11042419423D

 61 66  0  0  1  0  0  0  0  0999 V2000
  184.8570  177.8740  143.7190 C   0  0  1  0  0  3  0  0  0  0  0  0
  184.3510  178.6040  145.9690 O   0  0  0  0  0  1  0  0  0  0  0  0
  186.9250  178.8920  146.0090 F   0  0  0  0  0  0  0  0  0  0  0  0
  189.1900  173.9930  142.0550 C   0  0  0  0  0  0  0  0  0  0  0  0
  188.5350  175.2280  146.8640 C   0  0  0  0  0  2  0  0  0  0  0  0
  188.1800  176.5780  146.9220 O   0  0  0  0  0  0  0  0  0  0  0  0
  186.5260  177.6380  145.5580 C   0  0  2  0  0  0  0  0  0  0  0  0
  190.1640  174.4260  145.2830 C   0  0  0  0  0  0  0  0  0  0  0  0
  187.1080  178.2510  143.3810 C   0  0  1  0  0  3  0  0  0  0  0  0
  188.0630  174.6480  142.1560 C   0  0  0  0  0  0  0  0  0  0  0  0
  186.8090  176.6110  146.6550 C   0  0  2  0  0  3  0  0  0  0  0  0
  186.9350  175.2960  142.2560 C   0  0  0  0  0  3  0  0  0  0  0  0
  185.8050  178.8160  143.2830 O   0  0  0  0  0  0  0  0  0  0  0  0
  190.3540  174.4640  142.8680 C   0  0  0  0  0  2  0  0  0  0  0  0
  187.2740  177.2830  144.4130 O   0  0  0  0  0  0  0  0  0  0  0  0
  186.7100  176.5700  141.5070 C   0  0  0  0  0  2  0  0  0  0  0  0
  190.3910  173.7650  144.1840 C   0  0  0  0  0  3  0  0  0  0  0  0
  185.0230  177.6280  145.2200 C   0  0  2  0  0  3  0  0  0  0  0  0
  189.9460  175.0880  146.3850 C   0  0  0  0  0  0  0  0  0  0  0  0
  186.1190  176.9410  147.8250 O   0  0  0  0  0  1  0  0  0  0  0  0
  187.5870  177.7060  142.0340 C   0  0  0  0  0  2  0  0  0  0  0  0
  183.5120  178.3340  143.4030 N   0  0  0  0  0  2  0  0  0  0  0  0
  183.5910  177.6560  141.1690 O   0  0  0  0  0  0  0  0  0  0  0  0
  182.9600  178.2560  142.0840 C   0  0  0  0  0  0  0  0  0  0  0  0
  177.9400  180.5610  140.9670 F   0  0  0  0  0  0  0  0  0  0  0  0
  180.6480  178.8930  142.7770 C   0  0  0  0  0  3  0  0  0  0  0  0
  179.4000  179.4600  142.4980 C   0  0  0  0  0  3  0  0  0  0  0  0
  181.3840  179.4130  140.5300 C   0  0  0  0  0  3  0  0  0  0  0  0
  181.6480  178.8630  141.7950 C   0  0  0  0  0  0  0  0  0  0  0  0
  180.1370  179.9820  140.2530 C   0  0  0  0  0  3  0  0  0  0  0  0
  179.1450  180.0040  141.2350 C   0  0  0  0  0  0  0  0  0  0  0  0
  189.3720  171.6490  141.8320 O   0  0  0  0  0  0  0  0  0  0  0  0
  189.3130  172.7590  141.2360 C   0  0  0  0  0  0  0  0  0  0  0  0
  189.6900  171.9840  135.3910 C   0  0  0  0  0  3  0  0  0  0  0  0
  189.5300  171.6090  139.0420 N   0  0  0  0  0  0  0  0  0  0  0  0
  189.5540  172.0490  137.7770 C   0  0  0  0  0  0  0  0  0  0  0  0
  189.4260  173.4020  137.7470 C   0  0  0  0  0  0  0  0  0  0  0  0
  189.3780  172.7580  139.7560 C   0  0  0  0  0  0  0  0  0  0  0  0
  189.6910  171.2920  136.6170 C   0  0  0  0  0  3  0  0  0  0  0  0
  189.5530  173.3890  135.3600 C   0  0  0  0  0  3  0  0  0  0  0  0
  189.4180  174.1200  136.5560 C   0  0  0  0  0  3  0  0  0  0  0  0
  189.3130  173.8830  138.9930 N   0  0  0  0  0  2  0  0  0  0  0  0
  191.1330  175.5550  147.1810 C   0  0  0  0  0  2  0  0  0  0  0  0
  191.7960  176.8000  146.6020 C   0  0  2  0  0  3  0  0  0  0  0  0
  191.9430  177.0570  144.4700 C   0  0  0  0  0  2  0  0  0  0  0  0
  190.9130  177.4080  145.5260 C   0  0  0  0  0  2  0  0  0  0  0  0
  192.8150  176.4240  145.5390 C   0  0  1  0  0  3  0  0  0  0  0  0
  194.1430  177.1830  145.6770 C   0  0  0  0  0  2  0  0  0  0  0  0
  195.8450  176.4030  144.3370 O   0  0  0  0  0  1  0  0  0  0  0  0
  195.3030  176.2960  145.5790 N   0  0  0  0  0  0  0  0  0  0  0  0
  194.9310  174.9990  145.8440 O   0  0  0  0  0  0  0  0  0  0  0  0
  195.6680  174.1050  145.0290 C   0  0  0  0  0  2  0  0  0  0  0  0
  193.9680  172.3960  145.4430 C   0  0  0  0  0  1  0  0  0  0  0  0
  194.7890  173.0460  144.3420 C   0  0  2  0  0  0  0  0  0  0  0  0
  195.6080  171.9500  143.6390 C   0  0  0  0  0  2  0  0  0  0  0  0
  196.9100  171.8950  144.1440 O   0  0  0  0  0  1  0  0  0  0  0  0
  193.8500  173.7070  143.4230 N   0  0  0  0  0  2  0  0  0  0  0  0
  194.2080  172.6010  140.8460 O   0  0  0  0  0  0  0  0  0  0  0  0
  194.5040  173.9680  141.7990 P   0  0  0  0  0  0  0  0  0  0  0  0
  195.9930  174.2300  141.8440 O   0  0  0  0  0  1  0  0  0  0  0  0
  193.7290  175.3010  141.1030 O   0  0  0  0  0  1  0  0  0  0  0  0
  1 22  1  1  0  0  0
  1 18  1  0  0  0  0
  4 10  2  0  0  0  0
  4 14  1  0  0  0  0
  5  6  1  0  0  0  0
  7  3  1  1  0  0  0
  7 11  1  0  0  0  0
  8 19  2  0  0  0  0
  9 21  1  6  0  0  0
  9 15  1  0  0  0  0
 10 12  2  0  0  0  0
 11  6  1  0  0  0  0
 11 20  1  1  0  0  0
 13  9  1  0  0  0  0
 13  1  1  0  0  0  0
 14 17  1  0  0  0  0
 15  7  1  0  0  0  0
 16 21  1  0  0  0  0
 16 12  1  0  0  0  0
 17  8  2  0  0  0  0
 18  7  1  0  0  0  0
 18  2  1  1  0  0  0
 19  5  1  0  0  0  0
 19 43  1  0  0  0  0
 23 24  2  0  0  0  0
 24 22  1  0  0  0  0
 25 31  1  0  0  0  0
 27 26  1  0  0  0  0
 28 29  1  0  0  0  0
 29 24  1  0  0  0  0
 29 26  2  0  0  0  0
 30 28  2  0  0  0  0
 30 31  1  0  0  0  0
 31 27  2  0  0  0  0
 33 32  2  0  0  0  0
 33  4  1  0  0  0  0
 34 39  1  0  0  0  0
 35 38  2  0  0  0  0
 36 35  1  0  0  0  0
 37 36  1  0  0  0  0
 37 42  1  0  0  0  0
 38 33  1  0  0  0  0
 39 36  2  0  0  0  0
 40 34  2  0  0  0  0
 40 41  1  0  0  0  0
 41 37  2  0  0  0  0
 42 38  1  0  0  0  0
 44 43  1  6  0  0  0
 45 46  1  0  0  0  0
 45 47  1  0  0  0  0
 46 44  1  0  0  0  0
 47 48  1  1  0  0  0
 47 44  1  0  0  0  0
 49 50  1  0  0  0  0
 50 48  1  0  0  0  0
 50 51  1  0  0  0  0
 52 51  1  0  0  0  0
 54 52  1  0  0  0  0
 54 53  1  1  0  0  0
 55 56  1  0  0  0  0
 55 54  1  0  0  0  0
 57 54  1  0  0  0  0
 58 59  2  0  0  0  0
 59 60  1  0  0  0  0
 59 57  1  0  0  0  0
 61 59  1  0  0  0  0
M  END
>  <MODEL>
1

>  <REMARK>
 VINA RESULT:      -8.0      0.000      0.000
  Name = 
  14 active torsions:
  status: ('A' for Active; 'I' for Inactive)
    1  A    between atoms: N_1  and  C_2
    2  A    between atoms: C_4  and  C_53
    3  A    between atoms: C_4  and  N_57
    4  A    between atoms: C_9  and  C_49
    5  A    between atoms: C_12  and  C_17
    6  A    between atoms: C_12  and  O_40
    7  A    between atoms: C_14  and  C_55
    8  A    between atoms: C_15  and  C_42
    9  A    between atoms: C_16  and  C_17
   10  A    between atoms: C_17  and  N_30
   11  A    between atoms: N_30  and  P_32
   12  A    between atoms: C_36  and  C_55
   13  A    between atoms: O_40  and  N_57
   14  A    between atoms: C_49  and  C_52
                            x       y       z     vdW  Elec       q    Type
                         _______ _______ _______ _____ _____    ______ ____

>  <TORSDO>
F 14

$$$$
=
 OpenBabel11042419423D

 61 66  0  0  1  0  0  0  0  0999 V2000
  185.0300  177.7050  143.1030 C   0  0  1  0  0  3  0  0  0  0  0  0
  184.5660  178.5250  145.3310 O   0  0  0  0  0  1  0  0  0  0  0  0
  187.0730  179.1570  145.1720 F   0  0  0  0  0  0  0  0  0  0  0  0
  189.7510  174.3290  141.3930 C   0  0  0  0  0  0  0  0  0  0  0  0
  189.2250  175.8150  146.1460 C   0  0  0  0  0  2  0  0  0  0  0  0
  188.6900  177.1060  146.1420 O   0  0  0  0  0  0  0  0  0  0  0  0
  186.8250  177.8310  144.8320 C   0  0  2  0  0  0  0  0  0  0  0  0
  190.8500  175.1260  144.5100 C   0  0  0  0  0  0  0  0  0  0  0  0
  187.1820  178.3550  142.5840 C   0  0  1  0  0  3  0  0  0  0  0  0
  188.5520  174.8310  141.5310 C   0  0  0  0  0  0  0  0  0  0  0  0
  187.3140  176.9350  145.9700 C   0  0  2  0  0  3  0  0  0  0  0  0
  187.3530  175.3280  141.6680 C   0  0  0  0  0  3  0  0  0  0  0  0
  185.8110  178.7310  142.5420 O   0  0  0  0  0  0  0  0  0  0  0  0
  190.8850  175.0100  142.0890 C   0  0  0  0  0  2  0  0  0  0  0  0
  187.5430  177.4960  143.6620 O   0  0  0  0  0  0  0  0  0  0  0  0
  186.9080  176.5010  140.8550 C   0  0  0  0  0  2  0  0  0  0  0  0
  191.0990  174.4210  143.4420 C   0  0  0  0  0  3  0  0  0  0  0  0
  185.3200  177.5950  144.6020 C   0  0  2  0  0  3  0  0  0  0  0  0
  190.6100  175.8320  145.5780 C   0  0  0  0  0  0  0  0  0  0  0  0
  186.6580  177.2550  147.1620 O   0  0  0  0  0  1  0  0  0  0  0  0
  187.6490  177.7810  141.2450 C   0  0  0  0  0  2  0  0  0  0  0  0
  183.6170  177.9550  142.8540 N   0  0  0  0  0  2  0  0  0  0  0  0
  183.8110  177.8770  140.5280 O   0  0  0  0  0  0  0  0  0  0  0  0
  183.0810  178.0980  141.5340 C   0  0  0  0  0  0  0  0  0  0  0  0
  177.6990  179.6090  140.8190 F   0  0  0  0  0  0  0  0  0  0  0  0
  180.9940  178.1560  140.1660 C   0  0  0  0  0  3  0  0  0  0  0  0
  179.6590  178.5360  139.9870 C   0  0  0  0  0  3  0  0  0  0  0  0
  180.9950  179.2020  142.3490 C   0  0  0  0  0  3  0  0  0  0  0  0
  181.6720  178.4880  141.3480 C   0  0  0  0  0  0  0  0  0  0  0  0
  179.6600  179.5790  142.1700 C   0  0  0  0  0  3  0  0  0  0  0  0
  178.9930  179.2480  140.9890 C   0  0  0  0  0  0  0  0  0  0  0  0
  190.0200  171.9840  141.2990 O   0  0  0  0  0  0  0  0  0  0  0  0
  189.9930  173.0650  140.6490 C   0  0  0  0  0  0  0  0  0  0  0  0
  191.5180  173.2320  134.9430 C   0  0  0  0  0  3  0  0  0  0  0  0
  191.3170  173.5410  138.5990 N   0  0  0  0  0  0  0  0  0  0  0  0
  191.1170  173.2810  137.3000 C   0  0  0  0  0  0  0  0  0  0  0  0
  189.9410  172.6200  137.1280 C   0  0  0  0  0  0  0  0  0  0  0  0
  190.2140  173.0020  139.1850 C   0  0  0  0  0  0  0  0  0  0  0  0
  191.9430  173.6130  136.2300 C   0  0  0  0  0  3  0  0  0  0  0  0
  190.2980  172.5420  134.7660 C   0  0  0  0  0  3  0  0  0  0  0  0
  189.4880  172.2260  135.8730 C   0  0  0  0  0  3  0  0  0  0  0  0
  189.3420  172.4290  138.3120 N   0  0  0  0  0  2  0  0  0  0  0  0
  191.7670  176.5110  146.2570 C   0  0  0  0  0  2  0  0  0  0  0  0
  193.1080  175.8430  145.9750 C   0  0  2  0  0  3  0  0  0  0  0  0
  194.8890  177.0330  145.7690 C   0  0  0  0  0  2  0  0  0  0  0  0
  194.1650  176.3730  146.9270 C   0  0  0  0  0  2  0  0  0  0  0  0
  193.8200  176.5280  144.8190 C   0  0  1  0  0  3  0  0  0  0  0  0
  194.4160  175.5410  143.8040 C   0  0  0  0  0  2  0  0  0  0  0  0
  193.9490  176.4670  141.7480 O   0  0  0  0  0  1  0  0  0  0  0  0
  194.9580  176.2170  142.6240 N   0  0  0  0  0  0  0  0  0  0  0  0
  195.9350  175.4430  142.0420 O   0  0  0  0  0  0  0  0  0  0  0  0
  195.7080  174.0750  142.3310 C   0  0  0  0  0  2  0  0  0  0  0  0
  197.9400  173.8050  141.3680 C   0  0  0  0  0  1  0  0  0  0  0  0
  197.0030  173.2520  142.4290 C   0  0  2  0  0  0  0  0  0  0  0  0
  196.7880  171.7550  142.1490 C   0  0  0  0  0  2  0  0  0  0  0  0
  196.2440  171.5560  140.8770 O   0  0  0  0  0  1  0  0  0  0  0  0
  197.6350  173.4820  143.7380 N   0  0  0  0  0  2  0  0  0  0  0  0
  197.6710  171.1040  145.2670 O   0  0  0  0  0  1  0  0  0  0  0  0
  196.8780  172.5850  145.0640 P   0  0  0  0  0  0  0  0  0  0  0  0
  195.4120  172.3310  144.7860 O   0  0  0  0  0  0  0  0  0  0  0  0
  197.0220  173.4860  146.4880 O   0  0  0  0  0  1  0  0  0  0  0  0
  1 22  1  1  0  0  0
  1 18  1  0  0  0  0
  4 10  2  0  0  0  0
  4 14  1  0  0  0  0
  6  5  1  0  0  0  0
  7  3  1  1  0  0  0
  7 11  1  0  0  0  0
  8 19  2  0  0  0  0
  9 21  1  6  0  0  0
  9 15  1  0  0  0  0
 10 12  2  0  0  0  0
 11  6  1  0  0  0  0
 11 20  1  1  0  0  0
 13  9  1  0  0  0  0
 13  1  1  0  0  0  0
 14 17  1  0  0  0  0
 15  7  1  0  0  0  0
 16 21  1  0  0  0  0
 16 12  1  0  0  0  0
 17  8  2  0  0  0  0
 18  7  1  0  0  0  0
 18  2  1  1  0  0  0
 19  5  1  0  0  0  0
 19 43  1  0  0  0  0
 23 24  2  0  0  0  0
 24 22  1  0  0  0  0
 25 31  1  0  0  0  0
 26 29  1  0  0  0  0
 27 26  2  0  0  0  0
 27 31  1  0  0  0  0
 29 24  1  0  0  0  0
 29 28  2  0  0  0  0
 30 28  1  0  0  0  0
 31 30  2  0  0  0  0
 33 32  2  0  0  0  0
 33  4  1  0  0  0  0
 34 39  1  0  0  0  0
 35 38  2  0  0  0  0
 36 35  1  0  0  0  0
 37 36  1  0  0  0  0
 37 42  1  0  0  0  0
 38 33  1  0  0  0  0
 39 36  2  0  0  0  0
 40 34  2  0  0  0  0
 40 41  1  0  0  0  0
 41 37  2  0  0  0  0
 42 38  1  0  0  0  0
 44 43  1  1  0  0  0
 44 46  1  0  0  0  0
 45 46  1  0  0  0  0
 47 48  1  6  0  0  0
 47 45  1  0  0  0  0
 47 44  1  0  0  0  0
 49 50  1  0  0  0  0
 50 48  1  0  0  0  0
 51 52  1  0  0  0  0
 51 50  1  0  0  0  0
 52 54  1  0  0  0  0
 54 53  1  6  0  0  0
 54 57  1  0  0  0  0
 55 54  1  0  0  0  0
 56 55  1  0  0  0  0
 57 59  1  0  0  0  0
 59 58  1  0  0  0  0
 59 61  1  0  0  0  0
 60 59  2  0  0  0  0
M  END
>  <MODEL>
2

>  <REMARK>
 VINA RESULT:      -8.0      1.568      2.368
  Name = 
  14 active torsions:
  status: ('A' for Active; 'I' for Inactive)
    1  A    between atoms: N_1  and  C_2
    2  A    between atoms: C_4  and  C_53
    3  A    between atoms: C_4  and  N_57
    4  A    between atoms: C_9  and  C_49
    5  A    between atoms: C_12  and  C_17
    6  A    between atoms: C_12  and  O_40
    7  A    between atoms: C_14  and  C_55
    8  A    between atoms: C_15  and  C_42
    9  A    between atoms: C_16  and  C_17
   10  A    between atoms: C_17  and  N_30
   11  A    between atoms: N_30  and  P_32
   12  A    between atoms: C_36  and  C_55
   13  A    between atoms: O_40  and  N_57
   14  A    between atoms: C_49  and  C_52
                            x       y       z     vdW  Elec       q    Type
                         _______ _______ _______ _____ _____    ______ ____

>  <TORSDO>
F 14

$$$$
=
 OpenBabel11042419423D

 61 66  0  0  1  0  0  0  0  0999 V2000
  184.7990  177.8440  142.6770 C   0  0  1  0  0  3  0  0  0  0  0  0
  184.1460  178.6010  144.8790 O   0  0  0  0  0  1  0  0  0  0  0  0
  186.6590  179.2250  144.9560 F   0  0  0  0  0  0  0  0  0  0  0  0
  189.6420  174.4960  141.2820 C   0  0  0  0  0  0  0  0  0  0  0  0
  188.7100  175.8460  146.0130 C   0  0  0  0  0  2  0  0  0  0  0  0
  188.1810  177.1390  146.0010 O   0  0  0  0  0  0  0  0  0  0  0  0
  186.4380  177.9110  144.5570 C   0  0  2  0  0  0  0  0  0  0  0  0
  190.4690  175.1960  144.5040 C   0  0  0  0  0  0  0  0  0  0  0  0
  186.9900  178.4980  142.3650 C   0  0  1  0  0  3  0  0  0  0  0  0
  188.4370  175.0000  141.3300 C   0  0  0  0  0  0  0  0  0  0  0  0
  186.8250  176.9800  145.7060 C   0  0  2  0  0  3  0  0  0  0  0  0
  187.2320  175.4980  141.3770 C   0  0  0  0  0  3  0  0  0  0  0  0
  185.6280  178.8820  142.2150 O   0  0  0  0  0  0  0  0  0  0  0  0
  190.7140  175.1510  142.0930 C   0  0  0  0  0  2  0  0  0  0  0  0
  187.2540  177.6070  143.4440 O   0  0  0  0  0  0  0  0  0  0  0  0
  186.8610  176.6980  140.5650 C   0  0  0  0  0  2  0  0  0  0  0  0
  190.8080  174.5210  143.4410 C   0  0  0  0  0  3  0  0  0  0  0  0
  184.9580  177.6890  144.1910 C   0  0  2  0  0  3  0  0  0  0  0  0
  190.1390  175.8720  145.5680 C   0  0  0  0  0  0  0  0  0  0  0  0
  186.0690  177.2680  146.8460 O   0  0  0  0  0  1  0  0  0  0  0  0
  187.5690  177.9610  141.0540 C   0  0  0  0  0  2  0  0  0  0  0  0
  183.4140  178.1090  142.3130 N   0  0  0  0  0  2  0  0  0  0  0  0
  183.7430  177.7770  140.0250 O   0  0  0  0  0  0  0  0  0  0  0  0
  182.9630  178.1260  140.9550 C   0  0  0  0  0  0  0  0  0  0  0  0
  177.6920  179.7060  139.7360 F   0  0  0  0  0  0  0  0  0  0  0  0
  180.6970  177.6370  140.0270 C   0  0  0  0  0  3  0  0  0  0  0  0
  179.3910  178.0320  139.7200 C   0  0  0  0  0  3  0  0  0  0  0  0
  181.1410  179.8330  140.9450 C   0  0  0  0  0  3  0  0  0  0  0  0
  181.5820  178.5360  140.6400 C   0  0  0  0  0  0  0  0  0  0  0  0
  179.8340  180.2260  140.6400 C   0  0  0  0  0  3  0  0  0  0  0  0
  178.9600  179.3260  140.0260 C   0  0  0  0  0  0  0  0  0  0  0  0
  190.0460  172.1710  141.1650 O   0  0  0  0  0  0  0  0  0  0  0  0
  189.9440  173.2530  140.5240 C   0  0  0  0  0  0  0  0  0  0  0  0
  191.3910  172.6960  134.8230 C   0  0  0  0  0  3  0  0  0  0  0  0
  191.1920  172.5580  138.4890 N   0  0  0  0  0  0  0  0  0  0  0  0
  191.0040  172.7780  137.1810 C   0  0  0  0  0  0  0  0  0  0  0  0
  189.8920  173.5350  136.9870 C   0  0  0  0  0  0  0  0  0  0  0  0
  190.1430  173.2120  139.0560 C   0  0  0  0  0  0  0  0  0  0  0  0
  191.7920  172.3340  136.1230 C   0  0  0  0  0  3  0  0  0  0  0  0
  190.2330  173.4790  134.6210 C   0  0  0  0  0  3  0  0  0  0  0  0
  189.4630  173.9120  135.7170 C   0  0  0  0  0  3  0  0  0  0  0  0
  189.3220  173.8290  138.1640 N   0  0  0  0  0  2  0  0  0  0  0  0
  191.2350  176.5250  146.3640 C   0  0  0  0  0  2  0  0  0  0  0  0
  192.5460  175.7480  146.3350 C   0  0  2  0  0  3  0  0  0  0  0  0
  194.4260  176.7960  146.2970 C   0  0  0  0  0  2  0  0  0  0  0  0
  193.4980  176.2930  147.3850 C   0  0  0  0  0  2  0  0  0  0  0  0
  193.4640  176.2780  145.2440 C   0  0  1  0  0  3  0  0  0  0  0  0
  194.1170  175.1670  144.4090 C   0  0  0  0  0  2  0  0  0  0  0  0
  193.5500  176.6230  142.7190 O   0  0  0  0  0  1  0  0  0  0  0  0
  194.3670  175.5820  143.0280 N   0  0  0  0  0  0  0  0  0  0  0  0
  194.1650  174.5250  142.1720 O   0  0  0  0  0  0  0  0  0  0  0  0
  194.7260  173.3440  142.7160 C   0  0  0  0  0  2  0  0  0  0  0  0
  197.1660  173.4560  142.5840 C   0  0  0  0  0  1  0  0  0  0  0  0
  195.9440  172.8330  141.9290 C   0  0  2  0  0  0  0  0  0  0  0  0
  195.9230  173.2520  140.4480 C   0  0  0  0  0  2  0  0  0  0  0  0
  197.0700  172.8050  139.7850 O   0  0  0  0  0  1  0  0  0  0  0  0
  196.0550  171.3740  142.0860 N   0  0  0  0  0  2  0  0  0  0  0  0
  193.6480  171.4900  140.6080 O   0  0  0  0  0  0  0  0  0  0  0  0
  194.6110  170.4880  141.5740 P   0  0  0  0  0  0  0  0  0  0  0  0
  193.8040  170.0210  142.7660 O   0  0  0  0  0  1  0  0  0  0  0  0
  195.0850  169.1420  140.6660 O   0  0  0  0  0  1  0  0  0  0  0  0
  1 22  1  1  0  0  0
  1 18  1  0  0  0  0
  4 10  2  0  0  0  0
  4 14  1  0  0  0  0
  6  5  1  0  0  0  0
  7  3  1  1  0  0  0
  7 11  1  0  0  0  0
  8 19  2  0  0  0  0
  9 21  1  6  0  0  0
  9 15  1  0  0  0  0
 10 12  2  0  0  0  0
 11  6  1  0  0  0  0
 11 20  1  1  0  0  0
 13  9  1  0  0  0  0
 13  1  1  0  0  0  0
 14 17  1  0  0  0  0
 15  7  1  0  0  0  0
 16 21  1  0  0  0  0
 16 12  1  0  0  0  0
 17  8  2  0  0  0  0
 18  7  1  0  0  0  0
 18  2  1  1  0  0  0
 19  5  1  0  0  0  0
 19 43  1  0  0  0  0
 23 24  2  0  0  0  0
 24 22  1  0  0  0  0
 25 31  1  0  0  0  0
 26 29  1  0  0  0  0
 27 31  1  0  0  0  0
 27 26  2  0  0  0  0
 29 28  2  0  0  0  0
 29 24  1  0  0  0  0
 30 28  1  0  0  0  0
 31 30  2  0  0  0  0
 33 32  2  0  0  0  0
 33  4  1  0  0  0  0
 34 39  1  0  0  0  0
 35 38  2  0  0  0  0
 36 35  1  0  0  0  0
 37 36  1  0  0  0  0
 37 42  1  0  0  0  0
 38 33  1  0  0  0  0
 39 36  2  0  0  0  0
 40 34  2  0  0  0  0
 40 41  1  0  0  0  0
 41 37  2  0  0  0  0
 42 38  1  0  0  0  0
 44 43  1  1  0  0  0
 44 46  1  0  0  0  0
 45 46  1  0  0  0  0
 47 48  1  6  0  0  0
 47 45  1  0  0  0  0
 47 44  1  0  0  0  0
 49 50  1  0  0  0  0
 50 48  1  0  0  0  0
 51 52  1  0  0  0  0
 51 50  1  0  0  0  0
 54 57  1  0  0  0  0
 54 53  1  1  0  0  0
 54 52  1  0  0  0  0
 55 54  1  0  0  0  0
 56 55  1  0  0  0  0
 58 59  2  0  0  0  0
 59 57  1  0  0  0  0
 59 60  1  0  0  0  0
 61 59  1  0  0  0  0
M  END
>  <MODEL>
3

>  <REMARK>
 VINA RESULT:      -7.5      1.636      2.185
  Name = 
  14 active torsions:
  status: ('A' for Active; 'I' for Inactive)
    1  A    between atoms: N_1  and  C_2
    2  A    between atoms: C_4  and  C_53
    3  A    between atoms: C_4  and  N_57
    4  A    between atoms: C_9  and  C_49
    5  A    between atoms: C_12  and  C_17
    6  A    between atoms: C_12  and  O_40
    7  A    between atoms: C_14  and  C_55
    8  A    between atoms: C_15  and  C_42
    9  A    between atoms: C_16  and  C_17
   10  A    between atoms: C_17  and  N_30
   11  A    between atoms: N_30  and  P_32
   12  A    between atoms: C_36  and  C_55
   13  A    between atoms: O_40  and  N_57
   14  A    between atoms: C_49  and  C_52
                            x       y       z     vdW  Elec       q    Type
                         _______ _______ _______ _____ _____    ______ ____

>  <TORSDO>
F 14

$$$$
=
 OpenBabel11042419423D

 61 66  0  0  1  0  0  0  0  0999 V2000
  188.7140  174.2510  141.2210 C   0  0  1  0  0  3  0  0  0  0  0  0
  187.8720  174.7650  139.0120 O   0  0  0  0  0  1  0  0  0  0  0  0
  188.5250  172.2860  138.6400 F   0  0  0  0  0  0  0  0  0  0  0  0
  193.8710  171.3850  142.5590 C   0  0  0  0  0  0  0  0  0  0  0  0
  192.5300  172.2040  137.8050 C   0  0  0  0  0  2  0  0  0  0  0  0
  191.1430  172.0640  137.7130 O   0  0  0  0  0  0  0  0  0  0  0  0
  189.5480  173.0370  139.2070 C   0  0  2  0  0  0  0  0  0  0  0  0
  193.8460  170.7660  139.2170 C   0  0  0  0  0  0  0  0  0  0  0  0
  189.1630  171.9880  141.2580 C   0  0  1  0  0  3  0  0  0  0  0  0
  192.8580  172.2110  142.5600 C   0  0  0  0  0  0  0  0  0  0  0  0
  190.6190  173.2850  138.1440 C   0  0  2  0  0  3  0  0  0  0  0  0
  191.8510  173.0400  142.5630 C   0  0  0  0  0  3  0  0  0  0  0  0
  188.1690  172.9810  141.4820 O   0  0  0  0  0  0  0  0  0  0  0  0
  193.8550  170.2510  141.5850 C   0  0  0  0  0  2  0  0  0  0  0  0
  190.1360  172.3160  140.2710 O   0  0  0  0  0  0  0  0  0  0  0  0
  190.5730  172.6980  143.2600 C   0  0  0  0  0  2  0  0  0  0  0  0
  194.5340  170.6410  140.3160 C   0  0  0  0  0  3  0  0  0  0  0  0
  189.0170  174.3860  139.7270 C   0  0  2  0  0  3  0  0  0  0  0  0
  193.1600  170.8820  138.1150 C   0  0  0  0  0  0  0  0  0  0  0  0
  190.0760  173.9650  137.0510 O   0  0  0  0  0  1  0  0  0  0  0  0
  189.8310  171.5560  142.5650 C   0  0  0  0  0  2  0  0  0  0  0  0
  187.8000  175.2910  141.6730 N   0  0  0  0  0  2  0  0  0  0  0  0
  189.1880  176.0380  143.3960 O   0  0  0  0  0  0  0  0  0  0  0  0
  188.0690  176.1110  142.8150 C   0  0  0  0  0  0  0  0  0  0  0  0
  184.1460  179.6920  144.6980 F   0  0  0  0  0  0  0  0  0  0  0  0
  187.1790  177.6480  144.5690 C   0  0  0  0  0  3  0  0  0  0  0  0
  186.2020  178.5330  145.0380 C   0  0  0  0  0  3  0  0  0  0  0  0
  185.9240  177.3560  142.5190 C   0  0  0  0  0  3  0  0  0  0  0  0
  187.0460  177.0520  143.3070 C   0  0  0  0  0  0  0  0  0  0  0  0
  184.9500  178.2420  142.9880 C   0  0  0  0  0  3  0  0  0  0  0  0
  185.0880  178.8290  144.2480 C   0  0  0  0  0  0  0  0  0  0  0  0
  195.8490  172.5390  143.1400 O   0  0  0  0  0  0  0  0  0  0  0  0
  195.0600  171.5970  143.4260 C   0  0  0  0  0  0  0  0  0  0  0  0
  197.0740  168.3320  147.9200 C   0  0  0  0  0  3  0  0  0  0  0  0
  196.6590  170.4700  144.9610 N   0  0  0  0  0  0  0  0  0  0  0  0
  196.4980  169.6970  146.0430 C   0  0  0  0  0  0  0  0  0  0  0  0
  195.1750  169.5340  146.3120 C   0  0  0  0  0  0  0  0  0  0  0  0
  195.3770  170.7590  144.6060 C   0  0  0  0  0  0  0  0  0  0  0  0
  197.4900  169.1100  146.8230 C   0  0  0  0  0  3  0  0  0  0  0  0
  195.6990  168.1660  148.2010 C   0  0  0  0  0  3  0  0  0  0  0  0
  194.7250  168.7740  147.3880 C   0  0  0  0  0  3  0  0  0  0  0  0
  194.4360  170.1980  145.4130 N   0  0  0  0  0  2  0  0  0  0  0  0
  193.1560  169.7260  137.1540 C   0  0  0  0  0  2  0  0  0  0  0  0
  193.9600  169.9920  135.8860 C   0  0  2  0  0  3  0  0  0  0  0  0
  195.4950  168.6170  135.2680 C   0  0  0  0  0  2  0  0  0  0  0  0
  194.0040  168.7430  135.0250 C   0  0  0  0  0  2  0  0  0  0  0  0
  195.4500  169.8490  136.1510 C   0  0  1  0  0  3  0  0  0  0  0  0
  196.2860  170.9860  135.5440 C   0  0  0  0  0  2  0  0  0  0  0  0
  197.2390  170.7910  137.6310 O   0  0  0  0  0  1  0  0  0  0  0  0
  197.3660  171.4180  136.4320 N   0  0  0  0  0  0  0  0  0  0  0  0
  197.3340  172.7850  136.5850 O   0  0  0  0  0  0  0  0  0  0  0  0
  196.0640  173.1920  137.0600 C   0  0  0  0  0  2  0  0  0  0  0  0
  197.2030  175.3250  137.4290 C   0  0  0  0  0  1  0  0  0  0  0  0
  196.1280  174.4120  137.9940 C   0  0  2  0  0  0  0  0  0  0  0  0
  196.5160  174.0460  139.4380 C   0  0  0  0  0  2  0  0  0  0  0  0
  197.9060  174.0050  139.5870 O   0  0  0  0  0  1  0  0  0  0  0  0
  194.8530  175.1430  137.9370 N   0  0  0  0  0  2  0  0  0  0  0  0
  194.2370  174.0300  135.4120 O   0  0  0  0  0  0  0  0  0  0  0  0
  194.2920  175.4750  136.2910 P   0  0  0  0  0  0  0  0  0  0  0  0
  195.2100  176.4510  135.5870 O   0  0  0  0  0  1  0  0  0  0  0  0
  192.7360  176.1340  136.3630 O   0  0  0  0  0  1  0  0  0  0  0  0
  1 13  1  0  0  0  0
  1 22  1  6  0  0  0
  4 10  2  0  0  0  0
  4 33  1  0  0  0  0
  5 19  1  0  0  0  0
  6  5  1  0  0  0  0
  6 11  1  0  0  0  0
  7  3  1  6  0  0  0
  7 18  1  0  0  0  0
  7 15  1  0  0  0  0
  8 17  2  0  0  0  0
  9 13  1  0  0  0  0
  9 21  1  1  0  0  0
 10 12  2  0  0  0  0
 11 20  1  6  0  0  0
 11  7  1  0  0  0  0
 12 16  1  0  0  0  0
 14  4  1  0  0  0  0
 15  9  1  0  0  0  0
 17 14  1  0  0  0  0
 18  2  1  6  0  0  0
 18  1  1  0  0  0  0
 19  8  2  0  0  0  0
 21 16  1  0  0  0  0
 22 24  1  0  0  0  0
 24 29  1  0  0  0  0
 24 23  2  0  0  0  0
 26 27  1  0  0  0  0
 28 30  2  0  0  0  0
 28 29  1  0  0  0  0
 29 26  2  0  0  0  0
 30 31  1  0  0  0  0
 31 25  1  0  0  0  0
 31 27  2  0  0  0  0
 32 33  2  0  0  0  0
 33 38  1  0  0  0  0
 34 40  1  0  0  0  0
 35 36  1  0  0  0  0
 36 37  2  0  0  0  0
 36 39  1  0  0  0  0
 37 41  1  0  0  0  0
 38 35  2  0  0  0  0
 38 42  1  0  0  0  0
 39 34  2  0  0  0  0
 41 40  2  0  0  0  0
 42 37  1  0  0  0  0
 43 19  1  0  0  0  0
 44 47  1  0  0  0  0
 44 43  1  1  0  0  0
 45 47  1  0  0  0  0
 46 45  1  0  0  0  0
 46 44  1  0  0  0  0
 47 48  1  6  0  0  0
 48 50  1  0  0  0  0
 50 51  1  0  0  0  0
 50 49  1  0  0  0  0
 51 52  1  0  0  0  0
 52 54  1  0  0  0  0
 54 53  1  6  0  0  0
 54 55  1  0  0  0  0
 55 56  1  0  0  0  0
 57 54  1  0  0  0  0
 58 59  2  0  0  0  0
 59 61  1  0  0  0  0
 59 57  1  0  0  0  0
 60 59  1  0  0  0  0
M  END
>  <MODEL>
4

>  <REMARK>
 VINA RESULT:      -6.8      4.249      8.811
  Name = 
  14 active torsions:
  status: ('A' for Active; 'I' for Inactive)
    1  A    between atoms: N_1  and  C_2
    2  A    between atoms: C_4  and  C_53
    3  A    between atoms: C_4  and  N_57
    4  A    between atoms: C_9  and  C_49
    5  A    between atoms: C_12  and  C_17
    6  A    between atoms: C_12  and  O_40
    7  A    between atoms: C_14  and  C_55
    8  A    between atoms: C_15  and  C_42
    9  A    between atoms: C_16  and  C_17
   10  A    between atoms: C_17  and  N_30
   11  A    between atoms: N_30  and  P_32
   12  A    between atoms: C_36  and  C_55
   13  A    between atoms: O_40  and  N_57
   14  A    between atoms: C_49  and  C_52
                            x       y       z     vdW  Elec       q    Type
                         _______ _______ _______ _____ _____    ______ ____

>  <TORSDO>
F 14

$$$$
=
 OpenBabel11042419423D

 61 66  0  0  1  0  0  0  0  0999 V2000
  186.3210  176.9980  143.5710 C   0  0  1  0  0  3  0  0  0  0  0  0
  186.0490  178.0160  145.7490 O   0  0  0  0  0  1  0  0  0  0  0  0
  188.6160  178.2570  145.4960 F   0  0  0  0  0  0  0  0  0  0  0  0
  190.4400  172.8570  141.9940 C   0  0  0  0  0  0  0  0  0  0  0  0
  190.2810  174.7010  146.6470 C   0  0  0  0  0  2  0  0  0  0  0  0
  189.9420  176.0540  146.5680 O   0  0  0  0  0  0  0  0  0  0  0  0
  188.1660  176.9650  145.2510 C   0  0  2  0  0  0  0  0  0  0  0  0
  191.7370  173.6750  145.0270 C   0  0  0  0  0  0  0  0  0  0  0  0
  188.5280  177.2870  142.9660 C   0  0  1  0  0  3  0  0  0  0  0  0
  189.3320  173.5400  142.1220 C   0  0  0  0  0  0  0  0  0  0  0  0
  188.5520  176.0790  146.4360 C   0  0  2  0  0  3  0  0  0  0  0  0
  188.2240  174.2170  142.2500 C   0  0  0  0  0  3  0  0  0  0  0  0
  187.2270  177.8590  142.9270 O   0  0  0  0  0  0  0  0  0  0  0  0
  191.6830  173.4040  142.6200 C   0  0  0  0  0  2  0  0  0  0  0  0
  188.7920  176.4540  144.0910 O   0  0  0  0  0  0  0  0  0  0  0  0
  187.9320  175.3900  141.3710 C   0  0  0  0  0  2  0  0  0  0  0  0
  191.8470  172.8760  144.0040 C   0  0  0  0  0  3  0  0  0  0  0  0
  186.6360  176.9410  145.0680 C   0  0  2  0  0  3  0  0  0  0  0  0
  191.6350  174.4750  146.0510 C   0  0  0  0  0  0  0  0  0  0  0  0
  187.9860  176.5670  147.6170 O   0  0  0  0  0  1  0  0  0  0  0  0
  188.8650  176.5670  141.6590 C   0  0  0  0  0  2  0  0  0  0  0  0
  184.9530  177.4400  143.3340 N   0  0  0  0  0  2  0  0  0  0  0  0
  185.1610  177.4870  141.0090 O   0  0  0  0  0  0  0  0  0  0  0  0
  184.4530  177.7330  142.0250 C   0  0  0  0  0  0  0  0  0  0  0  0
  179.2960  179.9140  141.3930 F   0  0  0  0  0  0  0  0  0  0  0  0
  182.4310  178.8600  142.9580 C   0  0  0  0  0  3  0  0  0  0  0  0
  181.1490  179.3960  142.8020 C   0  0  0  0  0  3  0  0  0  0  0  0
  182.4830  178.3050  140.6030 C   0  0  0  0  0  3  0  0  0  0  0  0
  183.1070  178.3090  141.8600 C   0  0  0  0  0  0  0  0  0  0  0  0
  181.2020  178.8440  140.4470 C   0  0  0  0  0  3  0  0  0  0  0  0
  180.5340  179.3880  141.5470 C   0  0  0  0  0  0  0  0  0  0  0  0
  190.4710  170.4960  142.0570 O   0  0  0  0  0  0  0  0  0  0  0  0
  190.4710  171.5270  141.3310 C   0  0  0  0  0  0  0  0  0  0  0  0
  190.3420  171.5120  135.4230 C   0  0  0  0  0  3  0  0  0  0  0  0
  190.1620  172.3360  139.0000 N   0  0  0  0  0  0  0  0  0  0  0  0
  190.3220  171.7570  137.8020 C   0  0  0  0  0  0  0  0  0  0  0  0
  190.7430  170.4730  137.9520 C   0  0  0  0  0  0  0  0  0  0  0  0
  190.5100  171.3410  139.8610 C   0  0  0  0  0  0  0  0  0  0  0  0
  190.1050  172.3240  136.5490 C   0  0  0  0  0  3  0  0  0  0  0  0
  190.7830  170.1790  135.5800 C   0  0  0  0  0  3  0  0  0  0  0  0
  190.9890  169.6410  136.8640 C   0  0  0  0  0  3  0  0  0  0  0  0
  190.8700  170.1790  139.2530 N   0  0  0  0  0  2  0  0  0  0  0  0
  192.9000  175.0160  146.6590 C   0  0  0  0  0  2  0  0  0  0  0  0
  193.8990  175.5210  145.6240 C   0  0  2  0  0  3  0  0  0  0  0  0
  194.0790  177.6300  145.2330 C   0  0  0  0  0  2  0  0  0  0  0  0
  194.7200  176.6590  146.2050 C   0  0  0  0  0  2  0  0  0  0  0  0
  193.2370  176.5010  144.6690 C   0  0  1  0  0  3  0  0  0  0  0  0
  193.5880  176.2430  143.1960 C   0  0  0  0  0  2  0  0  0  0  0  0
  195.7140  176.4400  142.3360 O   0  0  0  0  0  1  0  0  0  0  0  0
  194.8990  175.6110  143.0390 N   0  0  0  0  0  0  0  0  0  0  0  0
  194.7660  174.3970  142.4070 O   0  0  0  0  0  0  0  0  0  0  0  0
  195.5780  173.4270  143.0430 C   0  0  0  0  0  2  0  0  0  0  0  0
  197.8630  173.6190  142.1920 C   0  0  0  0  0  1  0  0  0  0  0  0
  196.6020  172.7770  142.0970 C   0  0  2  0  0  0  0  0  0  0  0  0
  196.1400  172.7640  140.6280 C   0  0  0  0  0  2  0  0  0  0  0  0
  197.2280  172.6230  139.7630 O   0  0  0  0  0  1  0  0  0  0  0  0
  196.9340  171.4280  142.5810 N   0  0  0  0  0  2  0  0  0  0  0  0
  195.6810  168.9980  141.8600 O   0  0  0  0  0  0  0  0  0  0  0  0
  195.5220  170.3860  142.8160 P   0  0  0  0  0  0  0  0  0  0  0  0
  194.2440  171.1040  142.4430 O   0  0  0  0  0  1  0  0  0  0  0  0
  195.4440  169.9260  144.4420 O   0  0  0  0  0  1  0  0  0  0  0  0
  1 22  1  1  0  0  0
  1 18  1  0  0  0  0
  4 10  2  0  0  0  0
  4 14  1  0  0  0  0
  6  5  1  0  0  0  0
  7  3  1  1  0  0  0
  7 11  1  0  0  0  0
  8 19  2  0  0  0  0
  9 21  1  6  0  0  0
  9 15  1  0  0  0  0
 10 12  2  0  0  0  0
 11  6  1  0  0  0  0
 11 20  1  1  0  0  0
 13  9  1  0  0  0  0
 13  1  1  0  0  0  0
 14 17  1  0  0  0  0
 15  7  1  0  0  0  0
 16 21  1  0  0  0  0
 16 12  1  0  0  0  0
 17  8  2  0  0  0  0
 18  7  1  0  0  0  0
 18  2  1  1  0  0  0
 19  5  1  0  0  0  0
 19 43  1  0  0  0  0
 23 24  2  0  0  0  0
 24 22  1  0  0  0  0
 25 31  1  0  0  0  0
 27 26  1  0  0  0  0
 28 29  1  0  0  0  0
 29 24  1  0  0  0  0
 29 26  2  0  0  0  0
 30 28  2  0  0  0  0
 30 31  1  0  0  0  0
 31 27  2  0  0  0  0
 33  4  1  0  0  0  0
 33 32  2  0  0  0  0
 34 40  2  0  0  0  0
 34 39  1  0  0  0  0
 35 38  2  0  0  0  0
 36 37  1  0  0  0  0
 36 35  1  0  0  0  0
 37 42  1  0  0  0  0
 38 33  1  0  0  0  0
 39 36  2  0  0  0  0
 40 41  1  0  0  0  0
 41 37  2  0  0  0  0
 42 38  1  0  0  0  0
 44 46  1  0  0  0  0
 44 43  1  1  0  0  0
 45 46  1  0  0  0  0
 47 48  1  6  0  0  0
 47 45  1  0  0  0  0
 47 44  1  0  0  0  0
 49 50  1  0  0  0  0
 50 48  1  0  0  0  0
 51 50  1  0  0  0  0
 51 52  1  0  0  0  0
 54 53  1  1  0  0  0
 54 57  1  0  0  0  0
 54 52  1  0  0  0  0
 55 54  1  0  0  0  0
 56 55  1  0  0  0  0
 57 59  1  0  0  0  0
 58 59  2  0  0  0  0
 59 61  1  0  0  0  0
 60 59  1  0  0  0  0
M  END
>  <MODEL>
5

>  <REMARK>
 VINA RESULT:      -6.5      1.821      2.566
  Name = 
  14 active torsions:
  status: ('A' for Active; 'I' for Inactive)
    1  A    between atoms: N_1  and  C_2
    2  A    between atoms: C_4  and  C_53
    3  A    between atoms: C_4  and  N_57
    4  A    between atoms: C_9  and  C_49
    5  A    between atoms: C_12  and  C_17
    6  A    between atoms: C_12  and  O_40
    7  A    between atoms: C_14  and  C_55
    8  A    between atoms: C_15  and  C_42
    9  A    between atoms: C_16  and  C_17
   10  A    between atoms: C_17  and  N_30
   11  A    between atoms: N_30  and  P_32
   12  A    between atoms: C_36  and  C_55
   13  A    between atoms: O_40  and  N_57
   14  A    between atoms: C_49  and  C_52
                            x       y       z     vdW  Elec       q    Type
                         _______ _______ _______ _____ _____    ______ ____

>  <TORSDO>
F 14

$$$$
=
 OpenBabel11042419423D

 61 66  0  0  1  0  0  0  0  0999 V2000
  184.9230  177.8630  142.7090 C   0  0  1  0  0  3  0  0  0  0  0  0
  184.4560  178.6470  144.9490 O   0  0  0  0  0  1  0  0  0  0  0  0
  186.9950  179.1510  144.8550 F   0  0  0  0  0  0  0  0  0  0  0  0
  189.4970  174.2900  140.9990 C   0  0  0  0  0  0  0  0  0  0  0  0
  188.9500  175.6770  145.7790 C   0  0  0  0  0  2  0  0  0  0  0  0
  188.4830  176.9940  145.8000 O   0  0  0  0  0  0  0  0  0  0  0  0
  186.6850  177.8490  144.4750 C   0  0  2  0  0  0  0  0  0  0  0  0
  190.5710  174.9460  144.1570 C   0  0  0  0  0  0  0  0  0  0  0  0
  187.1160  178.4130  142.2500 C   0  0  1  0  0  3  0  0  0  0  0  0
  188.3230  174.8510  141.1270 C   0  0  0  0  0  0  0  0  0  0  0  0
  187.1040  176.8990  145.5980 C   0  0  2  0  0  3  0  0  0  0  0  0
  187.1490  175.4060  141.2540 C   0  0  0  0  0  3  0  0  0  0  0  0
  185.7670  178.8610  142.1910 O   0  0  0  0  0  0  0  0  0  0  0  0
  190.6510  174.8930  141.7350 C   0  0  0  0  0  2  0  0  0  0  0  0
  187.4100  177.5080  143.3100 O   0  0  0  0  0  0  0  0  0  0  0  0
  186.7820  176.6220  140.4660 C   0  0  0  0  0  2  0  0  0  0  0  0
  190.8050  174.2580  143.0750 C   0  0  0  0  0  3  0  0  0  0  0  0
  185.1760  177.6990  144.2100 C   0  0  2  0  0  3  0  0  0  0  0  0
  190.3450  175.6350  145.2390 C   0  0  0  0  0  0  0  0  0  0  0  0
  186.4400  177.2210  146.7850 O   0  0  0  0  0  1  0  0  0  0  0  0
  187.5800  177.8500  140.9040 C   0  0  0  0  0  2  0  0  0  0  0  0
  183.5300  178.1930  142.4390 N   0  0  0  0  0  2  0  0  0  0  0  0
  183.5980  177.5230  140.2030 O   0  0  0  0  0  0  0  0  0  0  0  0
  182.9450  178.0620  141.1390 C   0  0  0  0  0  0  0  0  0  0  0  0
  177.6910  179.8820  140.2170 F   0  0  0  0  0  0  0  0  0  0  0  0
  181.0600  179.6250  141.6250 C   0  0  0  0  0  3  0  0  0  0  0  0
  179.7530  180.0720  141.3990 C   0  0  0  0  0  3  0  0  0  0  0  0
  180.7620  177.9170  139.9340 C   0  0  0  0  0  3  0  0  0  0  0  0
  181.5730  178.5420  140.8960 C   0  0  0  0  0  0  0  0  0  0  0  0
  179.4580  178.3680  139.7070 C   0  0  0  0  0  3  0  0  0  0  0  0
  178.9530  179.4430  140.4410 C   0  0  0  0  0  0  0  0  0  0  0  0
  189.0530  172.8960  139.1440 O   0  0  0  0  0  0  0  0  0  0  0  0
  189.6890  173.0360  140.2250 C   0  0  0  0  0  0  0  0  0  0  0  0
  192.6370  168.3860  142.3700 C   0  0  0  0  0  3  0  0  0  0  0  0
  190.1490  170.9390  141.4790 N   0  0  0  0  0  0  0  0  0  0  0  0
  191.2430  170.1800  141.6220 C   0  0  0  0  0  0  0  0  0  0  0  0
  192.2780  170.7080  140.9150 C   0  0  0  0  0  0  0  0  0  0  0  0
  190.5790  171.9320  140.6550 C   0  0  0  0  0  0  0  0  0  0  0  0
  191.3770  169.0140  142.3710 C   0  0  0  0  0  3  0  0  0  0  0  0
  193.7100  168.9340  141.6320 C   0  0  0  0  0  3  0  0  0  0  0  0
  193.5370  170.1160  140.8880 C   0  0  0  0  0  3  0  0  0  0  0  0
  191.8850  171.8260  140.2890 N   0  0  0  0  0  2  0  0  0  0  0  0
  191.5220  176.2350  145.9590 C   0  0  0  0  0  2  0  0  0  0  0  0
  192.7880  175.3930  145.8510 C   0  0  2  0  0  3  0  0  0  0  0  0
  194.7210  176.3380  145.8420 C   0  0  0  0  0  2  0  0  0  0  0  0
  193.7860  175.8140  146.9140 C   0  0  0  0  0  2  0  0  0  0  0  0
  193.7130  175.9440  144.7780 C   0  0  1  0  0  3  0  0  0  0  0  0
  194.2900  174.8580  143.8580 C   0  0  0  0  0  2  0  0  0  0  0  0
  195.4810  176.6860  143.1230 O   0  0  0  0  0  1  0  0  0  0  0  0
  195.1270  175.4160  142.7950 N   0  0  0  0  0  0  0  0  0  0  0  0
  194.4520  175.3860  141.5970 O   0  0  0  0  0  0  0  0  0  0  0  0
  194.4620  174.0740  141.0650 C   0  0  0  0  0  2  0  0  0  0  0  0
  196.7150  173.1550  140.8120 C   0  0  0  0  0  1  0  0  0  0  0  0
  195.5930  173.8390  140.0500 C   0  0  2  0  0  0  0  0  0  0  0  0
  196.1440  175.1450  139.4500 C   0  0  0  0  0  2  0  0  0  0  0  0
  197.3910  174.9360  138.8550 O   0  0  0  0  0  1  0  0  0  0  0  0
  195.1340  172.9070  139.0080 N   0  0  0  0  0  2  0  0  0  0  0  0
  192.8320  174.4320  138.4050 O   0  0  0  0  0  1  0  0  0  0  0  0
  194.1850  173.6760  137.7270 P   0  0  0  0  0  0  0  0  0  0  0  0
  193.7280  172.6620  136.7010 O   0  0  0  0  0  0  0  0  0  0  0  0
  195.1400  174.8440  136.9620 O   0  0  0  0  0  1  0  0  0  0  0  0
  1 22  1  1  0  0  0
  1 18  1  0  0  0  0
  4 10  2  0  0  0  0
  4 14  1  0  0  0  0
  5  6  1  0  0  0  0
  7  3  1  1  0  0  0
  7 11  1  0  0  0  0
  8 19  2  0  0  0  0
  9 21  1  6  0  0  0
  9 15  1  0  0  0  0
 10 12  2  0  0  0  0
 11  6  1  0  0  0  0
 11 20  1  1  0  0  0
 13  9  1  0  0  0  0
 13  1  1  0  0  0  0
 14 17  1  0  0  0  0
 15  7  1  0  0  0  0
 16 21  1  0  0  0  0
 16 12  1  0  0  0  0
 17  8  2  0  0  0  0
 18  7  1  0  0  0  0
 18  2  1  1  0  0  0
 19  5  1  0  0  0  0
 19 43  1  0  0  0  0
 23 24  2  0  0  0  0
 24 22  1  0  0  0  0
 25 31  1  0  0  0  0
 27 26  1  0  0  0  0
 28 29  1  0  0  0  0
 29 24  1  0  0  0  0
 29 26  2  0  0  0  0
 30 28  2  0  0  0  0
 30 31  1  0  0  0  0
 31 27  2  0  0  0  0
 32 33  2  0  0  0  0
 33 38  1  0  0  0  0
 33  4  1  0  0  0  0
 34 39  1  0  0  0  0
 35 36  1  0  0  0  0
 36 39  2  0  0  0  0
 37 36  1  0  0  0  0
 38 35  2  0  0  0  0
 40 34  2  0  0  0  0
 41 37  2  0  0  0  0
 41 40  1  0  0  0  0
 42 38  1  0  0  0  0
 42 37  1  0  0  0  0
 44 43  1  1  0  0  0
 44 46  1  0  0  0  0
 45 46  1  0  0  0  0
 47 48  1  6  0  0  0
 47 45  1  0  0  0  0
 47 44  1  0  0  0  0
 50 49  1  0  0  0  0
 50 48  1  0  0  0  0
 51 50  1  0  0  0  0
 52 51  1  0  0  0  0
 54 53  1  1  0  0  0
 54 52  1  0  0  0  0
 55 54  1  0  0  0  0
 56 55  1  0  0  0  0
 57 54  1  0  0  0  0
 59 58  1  0  0  0  0
 59 57  1  0  0  0  0
 60 59  2  0  0  0  0
 61 59  1  0  0  0  0
M  END
>  <MODEL>
6

>  <REMARK>
 VINA RESULT:      -6.4      2.373      3.301
  Name = 
  14 active torsions:
  status: ('A' for Active; 'I' for Inactive)
    1  A    between atoms: N_1  and  C_2
    2  A    between atoms: C_4  and  C_53
    3  A    between atoms: C_4  and  N_57
    4  A    between atoms: C_9  and  C_49
    5  A    between atoms: C_12  and  C_17
    6  A    between atoms: C_12  and  O_40
    7  A    between atoms: C_14  and  C_55
    8  A    between atoms: C_15  and  C_42
    9  A    between atoms: C_16  and  C_17
   10  A    between atoms: C_17  and  N_30
   11  A    between atoms: N_30  and  P_32
   12  A    between atoms: C_36  and  C_55
   13  A    between atoms: O_40  and  N_57
   14  A    between atoms: C_49  and  C_52
                            x       y       z     vdW  Elec       q    Type
                         _______ _______ _______ _____ _____    ______ ____

>  <TORSDO>
F 14

$$$$
=
 OpenBabel11042419423D

 61 66  0  0  1  0  0  0  0  0999 V2000
  191.2600  172.9660  139.6490 C   0  0  1  0  0  3  0  0  0  0  0  0
  193.4920  172.9950  140.5790 O   0  0  0  0  0  1  0  0  0  0  0  0
  192.1280  173.2050  142.7710 F   0  0  0  0  0  0  0  0  0  0  0  0
  186.7160  176.7220  141.0110 C   0  0  0  0  0  0  0  0  0  0  0  0
  191.1830  177.1600  143.2310 C   0  0  0  0  0  2  0  0  0  0  0  0
  191.6970  175.8760  143.4340 O   0  0  0  0  0  0  0  0  0  0  0  0
  191.7450  174.1270  141.8030 C   0  0  2  0  0  0  0  0  0  0  0  0
  188.8390  177.6320  143.5060 C   0  0  0  0  0  0  0  0  0  0  0  0
  189.7920  172.9030  141.4290 C   0  0  1  0  0  3  0  0  0  0  0  0
  187.5620  175.9550  140.3750 C   0  0  0  0  0  0  0  0  0  0  0  0
  192.2630  175.5070  142.2110 C   0  0  2  0  0  3  0  0  0  0  0  0
  188.4060  175.1930  139.7360 C   0  0  0  0  0  3  0  0  0  0  0  0
  190.5600  172.1170  140.5240 O   0  0  0  0  0  0  0  0  0  0  0  0
  186.8030  176.7830  142.5030 C   0  0  0  0  0  2  0  0  0  0  0  0
  190.3350  174.1850  141.7310 O   0  0  0  0  0  0  0  0  0  0  0  0
  188.1840  173.7180  139.6270 C   0  0  0  0  0  2  0  0  0  0  0  0
  187.6990  177.8940  142.9300 C   0  0  0  0  0  3  0  0  0  0  0  0
  192.3210  173.7490  140.4260 C   0  0  2  0  0  3  0  0  0  0  0  0
  189.9750  177.3710  144.0880 C   0  0  0  0  0  0  0  0  0  0  0  0
  193.6550  175.4920  142.3340 O   0  0  0  0  0  1  0  0  0  0  0  0
  188.3350  173.0160  140.9760 C   0  0  0  0  0  2  0  0  0  0  0  0
  191.8560  172.1920  138.5690 N   0  0  0  0  0  2  0  0  0  0  0  0
  191.8450  170.1730  139.7440 O   0  0  0  0  0  0  0  0  0  0  0  0
  192.1870  170.8060  138.7060 C   0  0  0  0  0  0  0  0  0  0  0  0
  194.9740  168.1660  134.5800 F   0  0  0  0  0  0  0  0  0  0  0  0
  194.1390  169.4800  137.8920 C   0  0  0  0  0  3  0  0  0  0  0  0
  194.8340  168.8300  136.8660 C   0  0  0  0  0  3  0  0  0  0  0  0
  192.3920  170.0770  136.3260 C   0  0  0  0  0  3  0  0  0  0  0  0
  192.9150  170.1110  137.6290 C   0  0  0  0  0  0  0  0  0  0  0  0
  193.0850  169.4240  135.3020 C   0  0  0  0  0  3  0  0  0  0  0  0
  194.3060  168.8030  135.5710 C   0  0  0  0  0  0  0  0  0  0  0  0
  186.0820  178.0570  139.1690 O   0  0  0  0  0  0  0  0  0  0  0  0
  185.7470  177.5900  140.2920 C   0  0  0  0  0  0  0  0  0  0  0  0
  180.1510  178.8680  141.6910 C   0  0  0  0  0  3  0  0  0  0  0  0
  183.2880  177.8690  140.0590 N   0  0  0  0  0  0  0  0  0  0  0  0
  182.3310  178.2840  140.9000 C   0  0  0  0  0  0  0  0  0  0  0  0
  182.8690  178.5980  142.1080 C   0  0  0  0  0  0  0  0  0  0  0  0
  184.4110  177.9470  140.8230 C   0  0  0  0  0  0  0  0  0  0  0  0
  180.9680  178.4050  140.6420 C   0  0  0  0  0  3  0  0  0  0  0  0
  180.7110  179.1900  142.9470 C   0  0  0  0  0  3  0  0  0  0  0  0
  182.0940  179.0570  143.1690 C   0  0  0  0  0  3  0  0  0  0  0  0
  184.1940  178.3950  142.0890 N   0  0  0  0  0  2  0  0  0  0  0  0
  190.0350  177.4340  145.5900 C   0  0  0  0  0  2  0  0  0  0  0  0
  190.6500  176.1900  146.2210 C   0  0  2  0  0  3  0  0  0  0  0  0
  191.3360  176.2370  148.2610 C   0  0  0  0  0  2  0  0  0  0  0  0
  190.0180  175.9280  147.5770 C   0  0  0  0  0  2  0  0  0  0  0  0
  191.9620  176.5270  146.9100 C   0  0  1  0  0  3  0  0  0  0  0  0
  193.0830  175.5230  146.6030 C   0  0  0  0  0  2  0  0  0  0  0  0
  194.4000  177.1100  145.5800 O   0  0  0  0  0  1  0  0  0  0  0  0
  194.4010  176.1580  146.5500 N   0  0  0  0  0  0  0  0  0  0  0  0
  195.3720  175.2140  146.3130 O   0  0  0  0  0  0  0  0  0  0  0  0
  195.0920  174.5170  145.1130 C   0  0  0  0  0  2  0  0  0  0  0  0
  197.3540  173.7070  145.5660 C   0  0  0  0  0  1  0  0  0  0  0  0
  196.3440  173.9190  144.4510 C   0  0  2  0  0  0  0  0  0  0  0  0
  196.9740  174.8500  143.4000 C   0  0  0  0  0  2  0  0  0  0  0  0
  197.6800  174.1190  142.4410 O   0  0  0  0  0  1  0  0  0  0  0  0
  196.0210  172.5970  143.8910 N   0  0  0  0  0  2  0  0  0  0  0  0
  194.1620  171.7060  145.8260 O   0  0  0  0  0  1  0  0  0  0  0  0
  195.6610  171.3700  145.1150 P   0  0  0  0  0  0  0  0  0  0  0  0
  196.7260  171.3400  146.1900 O   0  0  0  0  0  1  0  0  0  0  0  0
  195.5870  169.8550  144.3690 O   0  0  0  0  0  0  0  0  0  0  0  0
  1 22  1  6  0  0  0
  1 18  1  0  0  0  0
  1 13  1  0  0  0  0
  4 14  1  0  0  0  0
  5  6  1  0  0  0  0
  5 19  1  0  0  0  0
  7 11  1  0  0  0  0
  7  3  1  1  0  0  0
  8 19  2  0  0  0  0
  9 21  1  6  0  0  0
  9 15  1  0  0  0  0
 10  4  2  0  0  0  0
 11 20  1  1  0  0  0
 11  6  1  0  0  0  0
 12 10  2  0  0  0  0
 13  9  1  0  0  0  0
 14 17  1  0  0  0  0
 15  7  1  0  0  0  0
 16 12  1  0  0  0  0
 16 21  1  0  0  0  0
 17  8  2  0  0  0  0
 18  2  1  1  0  0  0
 18  7  1  0  0  0  0
 19 43  1  0  0  0  0
 22 24  1  0  0  0  0
 24 23  2  0  0  0  0
 25 31  1  0  0  0  0
 27 26  2  0  0  0  0
 28 29  2  0  0  0  0
 29 26  1  0  0  0  0
 29 24  1  0  0  0  0
 30 31  2  0  0  0  0
 30 28  1  0  0  0  0
 31 27  1  0  0  0  0
 32 33  2  0  0  0  0
 33 38  1  0  0  0  0
 33  4  1  0  0  0  0
 34 40  1  0  0  0  0
 35 38  2  0  0  0  0
 35 36  1  0  0  0  0
 36 37  2  0  0  0  0
 37 41  1  0  0  0  0
 38 42  1  0  0  0  0
 39 36  1  0  0  0  0
 39 34  2  0  0  0  0
 40 41  2  0  0  0  0
 42 37  1  0  0  0  0
 44 43  1  1  0  0  0
 44 47  1  0  0  0  0
 44 46  1  0  0  0  0
 46 45  1  0  0  0  0
 47 48  1  6  0  0  0
 47 45  1  0  0  0  0
 49 50  1  0  0  0  0
 50 48  1  0  0  0  0
 51 50  1  0  0  0  0
 52 51  1  0  0  0  0
 54 52  1  0  0  0  0
 54 53  1  1  0  0  0
 55 54  1  0  0  0  0
 56 55  1  0  0  0  0
 57 54  1  0  0  0  0
 57 59  1  0  0  0  0
 59 58  1  0  0  0  0
 59 60  1  0  0  0  0
 61 59  2  0  0  0  0
M  END
>  <MODEL>
7

>  <REMARK>
 VINA RESULT:      -5.8      3.480      8.966
  Name = 
  14 active torsions:
  status: ('A' for Active; 'I' for Inactive)
    1  A    between atoms: N_1  and  C_2
    2  A    between atoms: C_4  and  C_53
    3  A    between atoms: C_4  and  N_57
    4  A    between atoms: C_9  and  C_49
    5  A    between atoms: C_12  and  C_17
    6  A    between atoms: C_12  and  O_40
    7  A    between atoms: C_14  and  C_55
    8  A    between atoms: C_15  and  C_42
    9  A    between atoms: C_16  and  C_17
   10  A    between atoms: C_17  and  N_30
   11  A    between atoms: N_30  and  P_32
   12  A    between atoms: C_36  and  C_55
   13  A    between atoms: O_40  and  N_57
   14  A    between atoms: C_49  and  C_52
                            x       y       z     vdW  Elec       q    Type
                         _______ _______ _______ _____ _____    ______ ____

>  <TORSDO>
F 14

$$$$
=
 OpenBabel11042419423D

 61 66  0  0  1  0  0  0  0  0999 V2000
  186.9960  176.7710  143.4510 C   0  0  1  0  0  3  0  0  0  0  0  0
  187.0250  177.8030  145.6380 O   0  0  0  0  0  1  0  0  0  0  0  0
  189.5390  178.0140  145.0490 F   0  0  0  0  0  0  0  0  0  0  0  0
  190.8270  172.5750  141.3730 C   0  0  0  0  0  0  0  0  0  0  0  0
  191.3030  174.4440  145.9940 C   0  0  0  0  0  2  0  0  0  0  0  0
  190.9710  175.8010  145.9510 O   0  0  0  0  0  0  0  0  0  0  0  0
  189.0460  176.7250  144.8730 C   0  0  2  0  0  0  0  0  0  0  0  0
  192.5220  173.3940  144.2030 C   0  0  0  0  0  0  0  0  0  0  0  0
  189.1080  177.0310  142.5590 C   0  0  1  0  0  3  0  0  0  0  0  0
  189.7540  173.2710  141.6410 C   0  0  0  0  0  0  0  0  0  0  0  0
  189.5760  175.8410  146.0030 C   0  0  2  0  0  3  0  0  0  0  0  0
  188.6800  173.9610  141.9090 C   0  0  0  0  0  3  0  0  0  0  0  0
  187.8190  177.6180  142.6880 O   0  0  0  0  0  0  0  0  0  0  0  0
  192.1480  173.1110  141.8260 C   0  0  0  0  0  2  0  0  0  0  0  0
  189.5090  176.2010  143.6450 O   0  0  0  0  0  0  0  0  0  0  0  0
  188.2870  175.1330  141.0680 C   0  0  0  0  0  2  0  0  0  0  0  0
  192.4880  172.5880  143.1800 C   0  0  0  0  0  3  0  0  0  0  0  0
  187.5060  176.7180  144.8940 C   0  0  2  0  0  3  0  0  0  0  0  0
  192.5650  174.2000  145.2270 C   0  0  0  0  0  0  0  0  0  0  0  0
  189.1750  176.3420  147.2450 O   0  0  0  0  0  1  0  0  0  0  0  0
  189.2620  176.3010  141.2230 C   0  0  0  0  0  2  0  0  0  0  0  0
  185.6150  177.2270  143.3930 N   0  0  0  0  0  2  0  0  0  0  0  0
  185.5340  177.3190  141.0610 O   0  0  0  0  0  0  0  0  0  0  0  0
  184.9600  177.5500  142.1620 C   0  0  0  0  0  0  0  0  0  0  0  0
  179.8010  179.8170  142.2140 F   0  0  0  0  0  0  0  0  0  0  0  0
  182.8020  178.0900  141.0290 C   0  0  0  0  0  3  0  0  0  0  0  0
  181.5240  178.6590  141.0410 C   0  0  0  0  0  3  0  0  0  0  0  0
  183.1160  178.7570  143.3350 C   0  0  0  0  0  3  0  0  0  0  0  0
  183.6080  178.1380  142.1760 C   0  0  0  0  0  0  0  0  0  0  0  0
  181.8370  179.3220  143.3470 C   0  0  0  0  0  3  0  0  0  0  0  0
  181.0420  179.2750  142.2000 C   0  0  0  0  0  0  0  0  0  0  0  0
  189.7210  170.5430  140.8960 O   0  0  0  0  0  0  0  0  0  0  0  0
  190.7570  171.2410  140.7200 C   0  0  0  0  0  0  0  0  0  0  0  0
  194.6140  169.1620  136.7560 C   0  0  0  0  0  3  0  0  0  0  0  0
  191.7650  170.6700  138.5200 N   0  0  0  0  0  0  0  0  0  0  0  0
  192.9130  170.0760  138.1670 C   0  0  0  0  0  0  0  0  0  0  0  0
  193.6310  169.7440  139.2720 C   0  0  0  0  0  0  0  0  0  0  0  0
  191.8390  170.6790  139.8790 C   0  0  0  0  0  0  0  0  0  0  0  0
  193.3660  169.8010  136.8790 C   0  0  0  0  0  3  0  0  0  0  0  0
  195.3610  168.8210  137.9050 C   0  0  0  0  0  3  0  0  0  0  0  0
  194.8680  169.1130  139.1910 C   0  0  0  0  0  3  0  0  0  0  0  0
  192.9720  170.1140  140.3790 N   0  0  0  0  0  2  0  0  0  0  0  0
  193.9040  174.7290  145.6590 C   0  0  0  0  0  2  0  0  0  0  0  0
  194.9830  173.6550  145.7310 C   0  0  2  0  0  3  0  0  0  0  0  0
  197.0320  174.1450  145.2920 C   0  0  0  0  0  2  0  0  0  0  0  0
  196.1670  174.1570  146.5370 C   0  0  0  0  0  2  0  0  0  0  0  0
  195.8430  173.6690  144.4780 C   0  0  1  0  0  3  0  0  0  0  0  0
  196.1030  172.2680  143.9040 C   0  0  0  0  0  2  0  0  0  0  0  0
  197.8120  172.9070  142.5000 O   0  0  0  0  0  1  0  0  0  0  0  0
  196.5900  172.3130  142.5250 N   0  0  0  0  0  0  0  0  0  0  0  0
  195.6960  172.9920  141.7290 O   0  0  0  0  0  0  0  0  0  0  0  0
  196.3420  173.4530  140.5560 C   0  0  0  0  0  2  0  0  0  0  0  0
  197.3660  175.6740  140.6030 C   0  0  0  0  0  1  0  0  0  0  0  0
  196.0790  174.9400  140.2640 C   0  0  2  0  0  0  0  0  0  0  0  0
  194.9460  175.5310  141.1200 C   0  0  0  0  0  2  0  0  0  0  0  0
  195.1170  176.9070  141.2970 O   0  0  0  0  0  1  0  0  0  0  0  0
  195.8340  175.1220  138.8250 N   0  0  0  0  0  2  0  0  0  0  0  0
  193.3120  173.8450  138.8090 O   0  0  0  0  0  1  0  0  0  0  0  0
  194.8480  173.8430  138.0990 P   0  0  0  0  0  0  0  0  0  0  0  0
  195.4850  172.4840  138.2950 O   0  0  0  0  0  1  0  0  0  0  0  0
  194.6880  174.1450  136.4430 O   0  0  0  0  0  0  0  0  0  0  0  0
  1 22  1  1  0  0  0
  1 18  1  0  0  0  0
  4 10  2  0  0  0  0
  4 14  1  0  0  0  0
  6  5  1  0  0  0  0
  6 11  1  0  0  0  0
  7 18  1  0  0  0  0
  7  3  1  1  0  0  0
  7 11  1  0  0  0  0
  8 19  2  0  0  0  0
  9 21  1  6  0  0  0
  9 13  1  0  0  0  0
  9 15  1  0  0  0  0
 10 12  2  0  0  0  0
 11 20  1  1  0  0  0
 13  1  1  0  0  0  0
 14 17  1  0  0  0  0
 15  7  1  0  0  0  0
 16 21  1  0  0  0  0
 16 12  1  0  0  0  0
 17  8  2  0  0  0  0
 18  2  1  1  0  0  0
 19 43  1  0  0  0  0
 19  5  1  0  0  0  0
 23 24  2  0  0  0  0
 24 29  1  0  0  0  0
 24 22  1  0  0  0  0
 26 27  2  0  0  0  0
 26 29  1  0  0  0  0
 27 31  1  0  0  0  0
 28 30  1  0  0  0  0
 29 28  2  0  0  0  0
 31 25  1  0  0  0  0
 31 30  2  0  0  0  0
 33 32  2  0  0  0  0
 33  4  1  0  0  0  0
 34 39  2  0  0  0  0
 34 40  1  0  0  0  0
 35 38  2  0  0  0  0
 36 35  1  0  0  0  0
 36 37  2  0  0  0  0
 37 42  1  0  0  0  0
 38 42  1  0  0  0  0
 38 33  1  0  0  0  0
 39 36  1  0  0  0  0
 40 41  2  0  0  0  0
 41 37  1  0  0  0  0
 44 43  1  6  0  0  0
 44 46  1  0  0  0  0
 45 46  1  0  0  0  0
 47 48  1  1  0  0  0
 47 45  1  0  0  0  0
 47 44  1  0  0  0  0
 49 50  1  0  0  0  0
 50 48  1  0  0  0  0
 51 50  1  0  0  0  0
 52 51  1  0  0  0  0
 54 52  1  0  0  0  0
 54 53  1  1  0  0  0
 54 55  1  0  0  0  0
 55 56  1  0  0  0  0
 57 54  1  0  0  0  0
 59 60  1  0  0  0  0
 59 58  1  0  0  0  0
 59 57  1  0  0  0  0
 61 59  2  0  0  0  0
M  END
>  <MODEL>
8

>  <REMARK>
 VINA RESULT:      -5.5      2.794      3.937
  Name = 
  14 active torsions:
  status: ('A' for Active; 'I' for Inactive)
    1  A    between atoms: N_1  and  C_2
    2  A    between atoms: C_4  and  C_53
    3  A    between atoms: C_4  and  N_57
    4  A    between atoms: C_9  and  C_49
    5  A    between atoms: C_12  and  C_17
    6  A    between atoms: C_12  and  O_40
    7  A    between atoms: C_14  and  C_55
    8  A    between atoms: C_15  and  C_42
    9  A    between atoms: C_16  and  C_17
   10  A    between atoms: C_17  and  N_30
   11  A    between atoms: N_30  and  P_32
   12  A    between atoms: C_36  and  C_55
   13  A    between atoms: O_40  and  N_57
   14  A    between atoms: C_49  and  C_52
                            x       y       z     vdW  Elec       q    Type
                         _______ _______ _______ _____ _____    ______ ____

>  <TORSDO>
F 14

$$$$
=
 OpenBabel11042419423D

 61 66  0  0  1  0  0  0  0  0999 V2000
  188.5410  174.1720  140.3580 C   0  0  1  0  0  3  0  0  0  0  0  0
  187.5140  174.5740  138.2060 O   0  0  0  0  0  1  0  0  0  0  0  0
  188.1870  172.0930  137.8860 F   0  0  0  0  0  0  0  0  0  0  0  0
  193.8490  171.4590  141.3930 C   0  0  0  0  0  0  0  0  0  0  0  0
  192.1130  172.0460  136.7330 C   0  0  0  0  0  2  0  0  0  0  0  0
  190.7260  171.8780  136.7600 O   0  0  0  0  0  0  0  0  0  0  0  0
  189.2370  172.8860  138.3360 C   0  0  2  0  0  0  0  0  0  0  0  0
  193.5680  170.6940  138.0920 C   0  0  0  0  0  0  0  0  0  0  0  0
  189.0400  171.9220  140.4540 C   0  0  1  0  0  3  0  0  0  0  0  0
  192.8220  172.2670  141.4410 C   0  0  0  0  0  0  0  0  0  0  0  0
  190.2130  173.1070  137.1800 C   0  0  2  0  0  3  0  0  0  0  0  0
  191.8010  173.0770  141.4910 C   0  0  0  0  0  3  0  0  0  0  0  0
  188.0460  172.9060  140.7160 O   0  0  0  0  0  0  0  0  0  0  0  0
  193.7790  170.2830  140.4710 C   0  0  0  0  0  2  0  0  0  0  0  0
  189.9230  172.2230  139.3780 O   0  0  0  0  0  0  0  0  0  0  0  0
  190.5910  172.7430  142.3030 C   0  0  0  0  0  2  0  0  0  0  0  0
  194.3450  170.6310  139.1370 C   0  0  0  0  0  3  0  0  0  0  0  0
  188.7200  174.2470  138.8400 C   0  0  2  0  0  3  0  0  0  0  0  0
  192.7940  170.7510  137.0460 C   0  0  0  0  0  0  0  0  0  0  0  0
  189.5690  173.7290  136.1070 O   0  0  0  0  0  1  0  0  0  0  0  0
  189.8190  171.5590  141.7200 C   0  0  0  0  0  2  0  0  0  0  0  0
  187.6450  175.2150  140.8390 N   0  0  0  0  0  2  0  0  0  0  0  0
  188.9030  175.6940  142.7470 O   0  0  0  0  0  0  0  0  0  0  0  0
  187.8490  175.8940  142.0820 C   0  0  0  0  0  0  0  0  0  0  0  0
  183.9600  179.5050  143.9790 F   0  0  0  0  0  0  0  0  0  0  0  0
  186.2340  176.6420  143.8330 C   0  0  0  0  0  3  0  0  0  0  0  0
  185.2650  177.5350  144.3010 C   0  0  0  0  0  3  0  0  0  0  0  0
  186.4560  177.9480  141.8070 C   0  0  0  0  0  3  0  0  0  0  0  0
  186.8350  176.8410  142.5820 C   0  0  0  0  0  0  0  0  0  0  0  0
  185.4890  178.8430  142.2770 C   0  0  0  0  0  3  0  0  0  0  0  0
  184.8920  178.6350  143.5230 C   0  0  0  0  0  0  0  0  0  0  0  0
  195.8870  170.7700  142.3680 O   0  0  0  0  0  0  0  0  0  0  0  0
  195.0990  171.7300  142.1510 C   0  0  0  0  0  0  0  0  0  0  0  0
  197.2190  176.9930  143.8010 C   0  0  0  0  0  3  0  0  0  0  0  0
  196.5910  173.7150  142.2620 N   0  0  0  0  0  0  0  0  0  0  0  0
  196.5540  174.8490  142.9760 C   0  0  0  0  0  0  0  0  0  0  0  0
  195.4580  174.8630  143.7800 C   0  0  0  0  0  0  0  0  0  0  0  0
  195.4690  173.0660  142.6750 C   0  0  0  0  0  0  0  0  0  0  0  0
  197.4700  175.8970  142.9530 C   0  0  0  0  0  3  0  0  0  0  0  0
  196.0770  177.0080  144.6330 C   0  0  0  0  0  3  0  0  0  0  0  0
  195.1750  175.9280  144.6290 C   0  0  0  0  0  3  0  0  0  0  0  0
  194.7480  173.7390  143.6110 N   0  0  0  0  0  2  0  0  0  0  0  0
  192.7370  169.5540  136.1380 C   0  0  0  0  0  2  0  0  0  0  0  0
  193.7930  169.5800  135.0390 C   0  0  2  0  0  3  0  0  0  0  0  0
  195.5090  168.2860  135.1530 C   0  0  0  0  0  2  0  0  0  0  0  0
  194.1090  168.1660  134.5840 C   0  0  0  0  0  2  0  0  0  0  0  0
  195.1880  169.6890  135.6320 C   0  0  1  0  0  3  0  0  0  0  0  0
  196.0720  170.7230  134.9190 C   0  0  0  0  0  2  0  0  0  0  0  0
  197.1980  170.8560  136.9230 O   0  0  0  0  0  1  0  0  0  0  0  0
  196.7810  171.5920  135.8590 N   0  0  0  0  0  0  0  0  0  0  0  0
  195.9630  172.6220  136.2620 O   0  0  0  0  0  0  0  0  0  0  0  0
  196.7360  173.7680  136.5650 C   0  0  0  0  0  2  0  0  0  0  0  0
  195.0350  174.7600  135.1140 C   0  0  0  0  0  1  0  0  0  0  0  0
  196.0270  175.0880  136.2170 C   0  0  2  0  0  0  0  0  0  0  0  0
  196.9890  176.1690  135.6950 C   0  0  0  0  0  2  0  0  0  0  0  0
  196.2860  177.2240  135.1070 O   0  0  0  0  0  1  0  0  0  0  0  0
  195.2550  175.5530  137.3800 N   0  0  0  0  0  2  0  0  0  0  0  0
  197.3800  175.5500  139.2450 O   0  0  0  0  0  1  0  0  0  0  0  0
  195.8420  174.9220  138.9270 P   0  0  0  0  0  0  0  0  0  0  0  0
  195.9160  173.4100  138.9070 O   0  0  0  0  0  0  0  0  0  0  0  0
  194.7850  175.4070  140.1540 O   0  0  0  0  0  1  0  0  0  0  0  0
  1 13  1  0  0  0  0
  1 22  1  6  0  0  0
  4 10  2  0  0  0  0
  4 33  1  0  0  0  0
  5  6  1  0  0  0  0
  5 19  1  0  0  0  0
  6 11  1  0  0  0  0
  7  3  1  6  0  0  0
  7 18  1  0  0  0  0
  7 15  1  0  0  0  0
  8 17  2  0  0  0  0
  9 13  1  0  0  0  0
  9 21  1  1  0  0  0
 10 12  2  0  0  0  0
 11 20  1  6  0  0  0
 11  7  1  0  0  0  0
 12 16  1  0  0  0  0
 14  4  1  0  0  0  0
 15  9  1  0  0  0  0
 17 14  1  0  0  0  0
 18  2  1  6  0  0  0
 18  1  1  0  0  0  0
 19  8  2  0  0  0  0
 21 16  1  0  0  0  0
 22 24  1  0  0  0  0
 24 29  1  0  0  0  0
 24 23  2  0  0  0  0
 26 27  1  0  0  0  0
 28 30  2  0  0  0  0
 28 29  1  0  0  0  0
 29 26  2  0  0  0  0
 30 31  1  0  0  0  0
 31 25  1  0  0  0  0
 31 27  2  0  0  0  0
 33 32  2  0  0  0  0
 33 38  1  0  0  0  0
 34 40  1  0  0  0  0
 35 38  2  0  0  0  0
 35 36  1  0  0  0  0
 36 37  2  0  0  0  0
 37 41  1  0  0  0  0
 38 42  1  0  0  0  0
 39 36  1  0  0  0  0
 39 34  2  0  0  0  0
 41 40  2  0  0  0  0
 42 37  1  0  0  0  0
 43 19  1  0  0  0  0
 44 47  1  0  0  0  0
 44 43  1  1  0  0  0
 45 47  1  0  0  0  0
 46 44  1  0  0  0  0
 46 45  1  0  0  0  0
 47 48  1  6  0  0  0
 48 50  1  0  0  0  0
 50 51  1  0  0  0  0
 50 49  1  0  0  0  0
 51 52  1  0  0  0  0
 54 53  1  6  0  0  0
 54 52  1  0  0  0  0
 54 57  1  0  0  0  0
 55 54  1  0  0  0  0
 56 55  1  0  0  0  0
 57 59  1  0  0  0  0
 59 58  1  0  0  0  0
 59 61  1  0  0  0  0
 60 59  2  0  0  0  0
M  END
>  <MODEL>
9

>  <REMARK>
 VINA RESULT:      -5.2      4.134      8.759
  Name = 
  14 active torsions:
  status: ('A' for Active; 'I' for Inactive)
    1  A    between atoms: N_1  and  C_2
    2  A    between atoms: C_4  and  C_53
    3  A    between atoms: C_4  and  N_57
    4  A    between atoms: C_9  and  C_49
    5  A    between atoms: C_12  and  C_17
    6  A    between atoms: C_12  and  O_40
    7  A    between atoms: C_14  and  C_55
    8  A    between atoms: C_15  and  C_42
    9  A    between atoms: C_16  and  C_17
   10  A    between atoms: C_17  and  N_30
   11  A    between atoms: N_30  and  P_32
   12  A    between atoms: C_36  and  C_55
   13  A    between atoms: O_40  and  N_57
   14  A    between atoms: C_49  and  C_52
                            x       y       z     vdW  Elec       q    Type
                         _______ _______ _______ _____ _____    ______ ____

>  <TORSDO>
F 14

$$$$
