=
 OpenBabel11042418443D

 44 48  0  0  1  0  0  0  0  0999 V2000
  195.2490  175.5140  144.9870 C   0  0  2  0  0  3  0  0  0  0  0  0
  195.8330  174.1850  145.1160 N   0  0  0  0  0  2  0  0  0  0  0  0
  193.7810  173.0780  145.1210 O   0  0  0  0  0  0  0  0  0  0  0  0
  195.0360  173.0030  145.2260 C   0  0  0  0  0  0  0  0  0  0  0  0
  196.9810  168.2920  148.0140 C   0  0  0  0  0  1  0  0  0  0  0  0
  196.6680  169.1800  146.9060 N   0  0  0  0  0  0  0  0  0  0  0  0
  195.6930  171.7010  145.4480 C   0  0  0  0  0  0  0  0  0  0  0  0
  197.6980  169.3650  145.9390 C   0  0  0  0  0  3  0  0  0  0  0  0
  194.8850  170.6250  145.9310 N   0  0  0  0  0  2  0  0  0  0  0  0
  197.7950  170.3960  145.1590 N   0  0  0  0  0  0  0  0  0  0  0  0
  196.9720  171.5660  145.0790 C   0  0  0  0  0  3  0  0  0  0  0  0
  195.2960  169.4390  146.6060 C   0  0  0  0  0  0  0  0  0  0  0  0
  194.4100  168.6270  146.9860 O   0  0  0  0  0  0  0  0  0  0  0  0
  194.5580  175.9190  146.2840 C   0  0  0  0  0  2  0  0  0  0  0  0
  193.1730  176.3040  146.0470 N   0  0  0  0  0  2  0  0  0  0  0  0
  192.3750  175.6410  147.0640 C   0  0  0  0  0  2  0  0  0  0  0  0
  189.0840  174.9090  146.8670 C   0  0  0  0  0  2  0  0  0  0  0  0
  188.6480  175.6070  145.6420 C   0  0  2  0  0  3  0  0  0  0  0  0
  190.1800  175.4260  145.9280 C   0  0  1  0  0  0  0  0  0  0  0  0
  190.9560  176.1710  147.0240 C   0  0  2  0  0  3  0  0  0  0  0  0
  190.7230  176.8580  145.7450 C   0  0  0  0  0  2  0  0  0  0  0  0
  186.4020  178.5000  144.9540 C   0  0  0  0  0  0  0  0  0  0  0  0
  186.8580  176.6660  147.0550 C   0  0  0  0  0  3  0  0  0  0  0  0
  185.8490  177.5410  147.1790 C   0  0  0  0  0  3  0  0  0  0  0  0
  185.8070  178.7770  146.3150 C   0  0  2  0  0  3  0  0  0  0  0  0
  185.9200  179.1320  143.8520 F   0  0  0  0  0  0  0  0  0  0  0  0
  184.5030  179.2230  146.1930 F   0  0  0  0  0  0  0  0  0  0  0  0
  187.4040  177.6160  144.8300 C   0  0  0  0  0  3  0  0  0  0  0  0
  187.9600  176.9210  146.0500 C   0  0  2  0  0  3  0  0  0  0  0  0
  194.2640  175.5570  143.8270 C   0  0  0  0  0  2  0  0  0  0  0  0
  194.9430  175.9710  142.6090 N   0  0  0  0  0  2  0  0  0  0  0  0
  194.6980  174.9420  141.6120 C   0  0  0  0  0  2  0  0  0  0  0  0
  192.8250  173.5250  141.0890 N   0  0  0  0  0  0  0  0  0  0  0  0
  193.2390  174.6460  141.5490 C   0  0  0  0  0  3  0  0  0  0  0  0
  191.1440  173.1850  141.0330 S   0  0  0  0  0  0  0  0  0  0  0  0
  190.5640  173.7320  139.7580 O   0  0  0  0  0  0  0  0  0  0  0  0
  190.9500  171.6950  141.0520 O   0  0  0  0  0  0  0  0  0  0  0  0
  189.2090  172.9840  142.9700 C   0  0  0  0  0  2  0  0  0  0  0  0
  188.4290  175.1820  141.4400 C   0  0  2  0  0  3  0  0  0  0  0  0
  190.3270  173.8970  142.4580 C   0  0  2  0  0  3  0  0  0  0  0  0
  189.7790  175.2910  142.1450 C   0  0  0  0  0  2  0  0  0  0  0  0
  187.8370  176.5640  141.2650 C   0  0  0  0  0  1  0  0  0  0  0  0
  187.5670  174.3930  142.2200 O   0  0  0  0  0  0  0  0  0  0  0  0
  188.0300  173.1150  142.1110 N   0  0  0  0  0  2  0  0  0  0  0  0
  1 30  1  6  0  0  0
  1  2  1  0  0  0  0
  1 14  1  0  0  0  0
  2  4  1  0  0  0  0
  3  4  2  0  0  0  0
  4  7  1  0  0  0  0
  6  5  1  0  0  0  0
  7  9  1  0  0  0  0
  8  6  1  0  0  0  0
  9 12  1  0  0  0  0
 10  8  2  0  0  0  0
 11 10  1  0  0  0  0
 11  7  2  0  0  0  0
 12  6  1  0  0  0  0
 12 13  2  0  0  0  0
 15 14  1  0  0  0  0
 15 16  1  0  0  0  0
 18 19  1  0  0  0  0
 18 29  1  0  0  0  0
 18 17  1  1  0  0  0
 19 21  1  6  0  0  0
 19 17  1  0  0  0  0
 19 20  1  0  0  0  0
 20 16  1  6  0  0  0
 21 20  1  0  0  0  0
 22 25  1  0  0  0  0
 23 24  2  0  0  0  0
 25 27  1  6  0  0  0
 25 24  1  0  0  0  0
 26 22  1  0  0  0  0
 28 22  2  0  0  0  0
 29 28  1  6  0  0  0
 29 23  1  0  0  0  0
 31 30  1  0  0  0  0
 32 31  1  0  0  0  0
 33 34  2  0  0  0  0
 34 32  1  0  0  0  0
 35 37  2  0  0  0  0
 35 33  1  0  0  0  0
 36 35  2  0  0  0  0
 39 42  1  1  0  0  0
 39 41  1  0  0  0  0
 39 43  1  0  0  0  0
 40 35  1  6  0  0  0
 40 38  1  0  0  0  0
 41 40  1  0  0  0  0
 44 43  1  0  0  0  0
 44 38  1  0  0  0  0
M  END
>  <MODEL>
1

>  <REMARK>
 VINA RESULT:      -7.6      0.000      0.000
  Name = 
  13 active torsions:
  status: ('A' for Active; 'I' for Inactive)
    1  A    between atoms: C_1  and  N_17
    2  A    between atoms: C_1  and  C_34
    3  A    between atoms: N_2  and  C_29
    4  A    between atoms: C_8  and  C_33
    5  A    between atoms: C_11  and  S_21
    6  A    between atoms: C_14  and  C_43
    7  A    between atoms: N_17  and  C_42
    8  A    between atoms: N_18  and  C_22
    9  A    between atoms: N_18  and  C_25
   10  A    between atoms: S_21  and  N_26
   11  A    between atoms: C_22  and  C_23
   12  A    between atoms: C_25  and  C_29
   13  A    between atoms: C_29  and  C_42
                            x       y       z     vdW  Elec       q    Type
                         _______ _______ _______ _____ _____    ______ ____

>  <TORSDO>
F 13

$$$$
=
 OpenBabel11042418443D

 44 48  0  0  1  0  0  0  0  0999 V2000
  190.1640  172.2530  142.8260 C   0  0  2  0  0  3  0  0  0  0  0  0
  190.0440  172.6220  141.4210 N   0  0  0  0  0  2  0  0  0  0  0  0
  187.7310  172.9040  141.4970 O   0  0  0  0  0  0  0  0  0  0  0  0
  188.7840  172.8920  140.8020 C   0  0  0  0  0  0  0  0  0  0  0  0
  190.5870  173.6310  135.3290 C   0  0  0  0  0  1  0  0  0  0  0  0
  189.6680  173.4980  136.4480 N   0  0  0  0  0  0  0  0  0  0  0  0
  188.7290  173.1670  139.3540 C   0  0  0  0  0  0  0  0  0  0  0  0
  188.6190  174.4590  136.5190 C   0  0  0  0  0  3  0  0  0  0  0  0
  189.1450  172.1270  138.4650 N   0  0  0  0  0  2  0  0  0  0  0  0
  187.9940  174.7840  137.6070 N   0  0  0  0  0  0  0  0  0  0  0  0
  188.1900  174.3230  138.9490 C   0  0  0  0  0  3  0  0  0  0  0  0
  189.5820  172.2360  137.1130 C   0  0  0  0  0  0  0  0  0  0  0  0
  189.9450  171.1890  136.5130 O   0  0  0  0  0  0  0  0  0  0  0  0
  190.3590  173.4960  143.6880 C   0  0  0  0  0  2  0  0  0  0  0  0
  191.0100  173.1680  144.9480 N   0  0  0  0  0  2  0  0  0  0  0  0
  191.1770  174.4180  145.6710 C   0  0  0  0  0  2  0  0  0  0  0  0
  189.7910  177.4960  145.5730 C   0  0  0  0  0  2  0  0  0  0  0  0
  188.8940  177.5070  146.7450 C   0  0  2  0  0  3  0  0  0  0  0  0
  189.9690  176.3750  146.6030 C   0  0  1  0  0  0  0  0  0  0  0  0
  189.9040  175.2350  145.5740 C   0  0  2  0  0  3  0  0  0  0  0  0
  189.1340  175.0950  146.8190 C   0  0  0  0  0  2  0  0  0  0  0  0
  185.2110  178.0540  146.9050 C   0  0  0  0  0  0  0  0  0  0  0  0
  187.2120  177.8930  144.9160 C   0  0  0  0  0  3  0  0  0  0  0  0
  185.9610  178.2020  144.5400 C   0  0  0  0  0  3  0  0  0  0  0  0
  184.8000  177.9100  145.4580 C   0  0  2  0  0  3  0  0  0  0  0  0
  184.3210  178.4970  147.8310 F   0  0  0  0  0  0  0  0  0  0  0  0
  183.7450  178.7550  145.1670 F   0  0  0  0  0  0  0  0  0  0  0  0
  186.4650  177.7540  147.2770 C   0  0  0  0  0  3  0  0  0  0  0  0
  187.4590  177.2430  146.2600 C   0  0  2  0  0  3  0  0  0  0  0  0
  191.3180  171.2810  143.0300 C   0  0  0  0  0  2  0  0  0  0  0  0
  192.1940  171.2940  141.8690 N   0  0  0  0  0  2  0  0  0  0  0  0
  193.5020  171.7360  142.3250 C   0  0  0  0  0  2  0  0  0  0  0  0
  193.9660  173.9470  143.1550 N   0  0  0  0  0  0  0  0  0  0  0  0
  193.6110  173.2130  142.1660 C   0  0  0  0  0  3  0  0  0  0  0  0
  194.1040  175.6450  142.9620 S   0  0  0  0  0  0  0  0  0  0  0  0
  194.4670  175.9610  141.5370 O   0  0  0  0  0  0  0  0  0  0  0  0
  192.7780  176.2790  143.2750 O   0  0  0  0  0  0  0  0  0  0  0  0
  196.6560  176.5760  143.3600 C   0  0  0  0  0  2  0  0  0  0  0  0
  196.5350  174.2290  144.8620 C   0  0  2  0  0  3  0  0  0  0  0  0
  195.3390  176.2910  144.0870 C   0  0  2  0  0  3  0  0  0  0  0  0
  195.5700  175.3410  145.2640 C   0  0  0  0  0  2  0  0  0  0  0  0
  196.8640  173.3820  146.0730 C   0  0  0  0  0  1  0  0  0  0  0  0
  197.7120  174.8050  144.3540 O   0  0  0  0  0  0  0  0  0  0  0  0
  197.3800  175.3230  143.1370 N   0  0  0  0  0  2  0  0  0  0  0  0
  1 30  1  6  0  0  0
  1 14  1  0  0  0  0
  2  1  1  0  0  0  0
  4  2  1  0  0  0  0
  4  3  2  0  0  0  0
  5  6  1  0  0  0  0
  6  8  1  0  0  0  0
  6 12  1  0  0  0  0
  7  4  1  0  0  0  0
  8 10  2  0  0  0  0
  9  7  1  0  0  0  0
 10 11  1  0  0  0  0
 11  7  2  0  0  0  0
 12  9  1  0  0  0  0
 13 12  2  0  0  0  0
 14 15  1  0  0  0  0
 15 16  1  0  0  0  0
 18 17  1  6  0  0  0
 19 17  1  1  0  0  0
 19 18  1  0  0  0  0
 19 21  1  0  0  0  0
 20 16  1  1  0  0  0
 20 19  1  0  0  0  0
 20 21  1  0  0  0  0
 22 28  2  0  0  0  0
 22 26  1  0  0  0  0
 24 23  2  0  0  0  0
 24 25  1  0  0  0  0
 25 27  1  6  0  0  0
 25 22  1  0  0  0  0
 29 23  1  6  0  0  0
 29 18  1  0  0  0  0
 29 28  1  0  0  0  0
 31 32  1  0  0  0  0
 31 30  1  0  0  0  0
 34 32  1  0  0  0  0
 34 33  2  0  0  0  0
 35 33  1  0  0  0  0
 35 37  2  0  0  0  0
 36 35  2  0  0  0  0
 38 40  1  0  0  0  0
 39 41  1  0  0  0  0
 39 42  1  1  0  0  0
 40 35  1  6  0  0  0
 40 41  1  0  0  0  0
 43 39  1  0  0  0  0
 44 38  1  0  0  0  0
 44 43  1  0  0  0  0
M  END
>  <MODEL>
2

>  <REMARK>
 VINA RESULT:      -7.4      2.946      7.322
  Name = 
  13 active torsions:
  status: ('A' for Active; 'I' for Inactive)
    1  A    between atoms: C_1  and  N_17
    2  A    between atoms: C_1  and  C_34
    3  A    between atoms: N_2  and  C_29
    4  A    between atoms: C_8  and  C_33
    5  A    between atoms: C_11  and  S_21
    6  A    between atoms: C_14  and  C_43
    7  A    between atoms: N_17  and  C_42
    8  A    between atoms: N_18  and  C_22
    9  A    between atoms: N_18  and  C_25
   10  A    between atoms: S_21  and  N_26
   11  A    between atoms: C_22  and  C_23
   12  A    between atoms: C_25  and  C_29
   13  A    between atoms: C_29  and  C_42
                            x       y       z     vdW  Elec       q    Type
                         _______ _______ _______ _____ _____    ______ ____

>  <TORSDO>
F 13

$$$$
=
 OpenBabel11042418443D

 44 48  0  0  1  0  0  0  0  0999 V2000
  193.2470  173.4230  144.6640 C   0  0  2  0  0  3  0  0  0  0  0  0
  194.1560  173.9300  143.6430 N   0  0  0  0  0  2  0  0  0  0  0  0
  192.4990  175.0790  142.4710 O   0  0  0  0  0  0  0  0  0  0  0  0
  193.7070  174.7200  142.5390 C   0  0  0  0  0  0  0  0  0  0  0  0
  196.9380  174.4380  137.7190 C   0  0  0  0  0  1  0  0  0  0  0  0
  196.3300  175.0020  138.9130 N   0  0  0  0  0  0  0  0  0  0  0  0
  194.6680  175.1200  141.4930 C   0  0  0  0  0  0  0  0  0  0  0  0
  197.2000  175.7270  139.7790 C   0  0  0  0  0  3  0  0  0  0  0  0
  194.1800  175.2360  140.1540 N   0  0  0  0  0  2  0  0  0  0  0  0
  196.9840  175.9180  141.0430 N   0  0  0  0  0  0  0  0  0  0  0  0
  195.9060  175.4620  141.8680 C   0  0  0  0  0  3  0  0  0  0  0  0
  194.9140  175.1920  138.9340 C   0  0  0  0  0  0  0  0  0  0  0  0
  194.2810  175.2750  137.8480 O   0  0  0  0  0  0  0  0  0  0  0  0
  193.3420  174.2700  145.9290 C   0  0  0  0  0  2  0  0  0  0  0  0
  192.1290  175.0490  146.1350 N   0  0  0  0  0  2  0  0  0  0  0  0
  191.0380  174.2870  145.5500 C   0  0  0  0  0  2  0  0  0  0  0  0
  189.7450  177.4070  145.5750 C   0  0  0  0  0  2  0  0  0  0  0  0
  188.8560  177.4020  146.7530 C   0  0  2  0  0  3  0  0  0  0  0  0
  189.8960  176.2430  146.5620 C   0  0  1  0  0  0  0  0  0  0  0  0
  189.7910  175.1450  145.4920 C   0  0  2  0  0  3  0  0  0  0  0  0
  189.0240  174.9820  146.7370 C   0  0  0  0  0  2  0  0  0  0  0  0
  185.1920  178.0530  146.9590 C   0  0  0  0  0  0  0  0  0  0  0  0
  187.1760  177.9020  144.9520 C   0  0  0  0  0  3  0  0  0  0  0  0
  185.9330  178.2620  144.5960 C   0  0  0  0  0  3  0  0  0  0  0  0
  184.7690  177.9730  145.5110 C   0  0  2  0  0  3  0  0  0  0  0  0
  184.3220  178.4900  147.9060 F   0  0  0  0  0  0  0  0  0  0  0  0
  183.7380  178.8600  145.2580 F   0  0  0  0  0  0  0  0  0  0  0  0
  186.4390  177.7020  147.3110 C   0  0  0  0  0  3  0  0  0  0  0  0
  187.4110  177.1980  146.2700 C   0  0  2  0  0  3  0  0  0  0  0  0
  193.5530  171.9650  144.9790 C   0  0  0  0  0  2  0  0  0  0  0  0
  193.4890  171.1660  143.7660 N   0  0  0  0  0  2  0  0  0  0  0  0
  192.2340  170.4360  143.7990 C   0  0  0  0  0  2  0  0  0  0  0  0
  191.7560  171.7710  141.8540 N   0  0  0  0  0  0  0  0  0  0  0  0
  191.4240  170.7810  142.5970 C   0  0  0  0  0  3  0  0  0  0  0  0
  190.8280  172.1540  140.4640 S   0  0  0  0  0  0  0  0  0  0  0  0
  191.4330  173.3440  139.7690 O   0  0  0  0  0  0  0  0  0  0  0  0
  190.8550  170.9820  139.5240 O   0  0  0  0  0  0  0  0  0  0  0  0
  188.2670  172.7840  139.7030 C   0  0  0  0  0  2  0  0  0  0  0  0
  189.1000  174.9810  141.2060 C   0  0  2  0  0  3  0  0  0  0  0  0
  189.1330  172.4890  140.9310 C   0  0  2  0  0  3  0  0  0  0  0  0
  189.0490  173.6400  141.9350 C   0  0  0  0  0  2  0  0  0  0  0  0
  188.8750  176.1040  142.1960 C   0  0  0  0  0  1  0  0  0  0  0  0
  188.0950  175.0060  140.2240 O   0  0  0  0  0  0  0  0  0  0  0  0
  188.5090  174.1530  139.2440 N   0  0  0  0  0  2  0  0  0  0  0  0
  1 30  1  1  0  0  0
  1 14  1  0  0  0  0
  2  1  1  0  0  0  0
  3  4  2  0  0  0  0
  4  2  1  0  0  0  0
  5  6  1  0  0  0  0
  6 12  1  0  0  0  0
  6  8  1  0  0  0  0
  7 11  2  0  0  0  0
  7  4  1  0  0  0  0
  8 10  2  0  0  0  0
  9  7  1  0  0  0  0
 10 11  1  0  0  0  0
 12  9  1  0  0  0  0
 13 12  2  0  0  0  0
 14 15  1  0  0  0  0
 16 15  1  0  0  0  0
 18 17  1  6  0  0  0
 19 17  1  1  0  0  0
 19 21  1  0  0  0  0
 19 18  1  0  0  0  0
 20 16  1  1  0  0  0
 20 19  1  0  0  0  0
 20 21  1  0  0  0  0
 22 28  2  0  0  0  0
 22 26  1  0  0  0  0
 24 23  2  0  0  0  0
 24 25  1  0  0  0  0
 25 27  1  1  0  0  0
 25 22  1  0  0  0  0
 29 23  1  6  0  0  0
 29 18  1  0  0  0  0
 29 28  1  0  0  0  0
 31 32  1  0  0  0  0
 31 30  1  0  0  0  0
 33 34  2  0  0  0  0
 34 32  1  0  0  0  0
 35 33  1  0  0  0  0
 36 35  2  0  0  0  0
 37 35  2  0  0  0  0
 38 40  1  0  0  0  0
 39 41  1  0  0  0  0
 39 42  1  1  0  0  0
 40 35  1  6  0  0  0
 40 41  1  0  0  0  0
 43 39  1  0  0  0  0
 44 38  1  0  0  0  0
 44 43  1  0  0  0  0
M  END
>  <MODEL>
3

>  <REMARK>
 VINA RESULT:      -7.3      2.622      4.682
  Name = 
  13 active torsions:
  status: ('A' for Active; 'I' for Inactive)
    1  A    between atoms: C_1  and  N_17
    2  A    between atoms: C_1  and  C_34
    3  A    between atoms: N_2  and  C_29
    4  A    between atoms: C_8  and  C_33
    5  A    between atoms: C_11  and  S_21
    6  A    between atoms: C_14  and  C_43
    7  A    between atoms: N_17  and  C_42
    8  A    between atoms: N_18  and  C_22
    9  A    between atoms: N_18  and  C_25
   10  A    between atoms: S_21  and  N_26
   11  A    between atoms: C_22  and  C_23
   12  A    between atoms: C_25  and  C_29
   13  A    between atoms: C_29  and  C_42
                            x       y       z     vdW  Elec       q    Type
                         _______ _______ _______ _____ _____    ______ ____

>  <TORSDO>
F 13

$$$$
=
 OpenBabel11042418443D

 44 48  0  0  1  0  0  0  0  0999 V2000
  188.9920  174.7200  141.6000 C   0  0  2  0  0  3  0  0  0  0  0  0
  189.1760  174.8120  143.0440 N   0  0  0  0  0  2  0  0  0  0  0  0
  190.3590  176.8190  142.9550 O   0  0  0  0  0  0  0  0  0  0  0  0
  189.9150  175.8710  143.6580 C   0  0  0  0  0  0  0  0  0  0  0  0
  191.6880  177.5830  148.9190 C   0  0  0  0  0  1  0  0  0  0  0  0
  191.0200  176.7800  147.9070 N   0  0  0  0  0  0  0  0  0  0  0  0
  190.1400  175.8490  145.1160 C   0  0  0  0  0  0  0  0  0  0  0  0
  191.1910  175.3690  148.0110 C   0  0  0  0  0  3  0  0  0  0  0  0
  189.5560  176.8980  145.8920 N   0  0  0  0  0  2  0  0  0  0  0  0
  191.0670  174.5400  147.0220 N   0  0  0  0  0  0  0  0  0  0  0  0
  190.7750  174.7960  145.6430 C   0  0  0  0  0  3  0  0  0  0  0  0
  189.9290  177.3570  147.1890 C   0  0  0  0  0  0  0  0  0  0  0  0
  189.3020  178.3310  147.6840 O   0  0  0  0  0  0  0  0  0  0  0  0
  187.6050  175.2160  141.2080 C   0  0  0  0  0  2  0  0  0  0  0  0
  187.6560  176.0280  140.0010 N   0  0  0  0  0  2  0  0  0  0  0  0
  186.9700  177.2730  140.3050 C   0  0  0  0  0  2  0  0  0  0  0  0
  184.6590  177.8240  142.7050 C   0  0  0  0  0  2  0  0  0  0  0  0
  185.2150  178.9620  143.4640 C   0  0  2  0  0  3  0  0  0  0  0  0
  185.8230  178.5910  142.0660 C   0  0  1  0  0  0  0  0  0  0  0  0
  186.6720  177.3410  141.7890 C   0  0  2  0  0  3  0  0  0  0  0  0
  187.3340  178.5180  142.3710 C   0  0  0  0  0  2  0  0  0  0  0  0
  185.9480  179.1040  147.1150 C   0  0  0  0  0  0  0  0  0  0  0  0
  185.1910  177.1560  145.2130 C   0  0  0  0  0  3  0  0  0  0  0  0
  185.2710  176.7920  146.5030 C   0  0  0  0  0  3  0  0  0  0  0  0
  186.0420  177.6420  147.4830 C   0  0  2  0  0  3  0  0  0  0  0  0
  185.9410  180.0570  148.0840 F   0  0  0  0  0  0  0  0  0  0  0  0
  185.5670  177.4320  148.7640 F   0  0  0  0  0  0  0  0  0  0  0  0
  185.8560  179.4650  145.8260 C   0  0  0  0  0  3  0  0  0  0  0  0
  185.8810  178.4170  144.7390 C   0  0  2  0  0  3  0  0  0  0  0  0
  189.1980  173.2890  141.1230 C   0  0  0  0  0  2  0  0  0  0  0  0
  190.1950  172.6240  141.9480 N   0  0  0  0  0  2  0  0  0  0  0  0
  191.4950  172.9190  141.3690 C   0  0  0  0  0  2  0  0  0  0  0  0
  193.0720  174.3420  142.5000 N   0  0  0  0  0  0  0  0  0  0  0  0
  192.4700  173.2120  142.4570 C   0  0  0  0  0  3  0  0  0  0  0  0
  194.1820  174.6790  143.7630 S   0  0  0  0  0  0  0  0  0  0  0  0
  193.9610  176.0800  144.2650 O   0  0  0  0  0  0  0  0  0  0  0  0
  193.9400  173.7180  144.8920 O   0  0  0  0  0  0  0  0  0  0  0  0
  196.7260  175.6870  143.5350 C   0  0  0  0  0  2  0  0  0  0  0  0
  195.8020  175.5440  140.9070 C   0  0  2  0  0  3  0  0  0  0  0  0
  195.8610  174.4750  143.1740 C   0  0  2  0  0  3  0  0  0  0  0  0
  195.8950  174.2220  141.6660 C   0  0  0  0  0  2  0  0  0  0  0  0
  195.9780  175.2900  139.4250 C   0  0  0  0  0  1  0  0  0  0  0  0
  196.8130  176.4060  141.3630 O   0  0  0  0  0  0  0  0  0  0  0  0
  196.4390  176.7910  142.6170 N   0  0  0  0  0  2  0  0  0  0  0  0
  1 30  1  1  0  0  0
  1  2  1  0  0  0  0
  2  4  1  0  0  0  0
  3  4  2  0  0  0  0
  4  7  1  0  0  0  0
  6  8  1  0  0  0  0
  6  5  1  0  0  0  0
  7 11  2  0  0  0  0
  7  9  1  0  0  0  0
  9 12  1  0  0  0  0
 10  8  2  0  0  0  0
 11 10  1  0  0  0  0
 12 13  2  0  0  0  0
 12  6  1  0  0  0  0
 14  1  1  0  0  0  0
 15 16  1  0  0  0  0
 15 14  1  0  0  0  0
 18 17  1  6  0  0  0
 18 29  1  0  0  0  0
 19 21  1  6  0  0  0
 19 17  1  0  0  0  0
 19 18  1  0  0  0  0
 20 16  1  6  0  0  0
 20 19  1  0  0  0  0
 20 21  1  0  0  0  0
 22 25  1  0  0  0  0
 22 26  1  0  0  0  0
 23 24  2  0  0  0  0
 24 25  1  0  0  0  0
 25 27  1  1  0  0  0
 28 22  2  0  0  0  0
 29 23  1  1  0  0  0
 29 28  1  0  0  0  0
 30 31  1  0  0  0  0
 32 31  1  0  0  0  0
 32 34  1  0  0  0  0
 33 35  1  0  0  0  0
 34 33  2  0  0  0  0
 35 36  2  0  0  0  0
 35 37  2  0  0  0  0
 39 42  1  6  0  0  0
 39 43  1  0  0  0  0
 39 41  1  0  0  0  0
 40 38  1  0  0  0  0
 40 35  1  6  0  0  0
 41 40  1  0  0  0  0
 43 44  1  0  0  0  0
 44 38  1  0  0  0  0
M  END
>  <MODEL>
4

>  <REMARK>
 VINA RESULT:      -7.3      3.484      6.710
  Name = 
  13 active torsions:
  status: ('A' for Active; 'I' for Inactive)
    1  A    between atoms: C_1  and  N_17
    2  A    between atoms: C_1  and  C_34
    3  A    between atoms: N_2  and  C_29
    4  A    between atoms: C_8  and  C_33
    5  A    between atoms: C_11  and  S_21
    6  A    between atoms: C_14  and  C_43
    7  A    between atoms: N_17  and  C_42
    8  A    between atoms: N_18  and  C_22
    9  A    between atoms: N_18  and  C_25
   10  A    between atoms: S_21  and  N_26
   11  A    between atoms: C_22  and  C_23
   12  A    between atoms: C_25  and  C_29
   13  A    between atoms: C_29  and  C_42
                            x       y       z     vdW  Elec       q    Type
                         _______ _______ _______ _____ _____    ______ ____

>  <TORSDO>
F 13

$$$$
=
 OpenBabel11042418443D

 44 48  0  0  1  0  0  0  0  0999 V2000
  195.1220  175.5890  145.5130 C   0  0  2  0  0  3  0  0  0  0  0  0
  194.7170  174.2270  145.1850 N   0  0  0  0  0  2  0  0  0  0  0  0
  196.6260  173.2410  146.0920 O   0  0  0  0  0  0  0  0  0  0  0  0
  195.5430  173.0930  145.4620 C   0  0  0  0  0  0  0  0  0  0  0  0
  192.3950  168.9830  142.8250 C   0  0  0  0  0  1  0  0  0  0  0  0
  193.4870  169.5840  143.5750 N   0  0  0  0  0  0  0  0  0  0  0  0
  195.1120  171.7540  145.0180 C   0  0  0  0  0  0  0  0  0  0  0  0
  193.8900  168.8970  144.7570 C   0  0  0  0  0  3  0  0  0  0  0  0
  195.0840  171.4990  143.6120 N   0  0  0  0  0  2  0  0  0  0  0  0
  194.4990  169.4550  145.7570 N   0  0  0  0  0  0  0  0  0  0  0  0
  194.8820  170.8220  145.9510 C   0  0  0  0  0  3  0  0  0  0  0  0
  194.3510  170.5020  142.9040 C   0  0  0  0  0  0  0  0  0  0  0  0
  194.4380  170.4720  141.6480 O   0  0  0  0  0  0  0  0  0  0  0  0
  194.1630  176.1990  146.5290 C   0  0  0  0  0  2  0  0  0  0  0  0
  192.7860  175.8120  146.2530 N   0  0  0  0  0  2  0  0  0  0  0  0
  192.0860  175.8190  147.5270 C   0  0  0  0  0  2  0  0  0  0  0  0
  188.8420  175.0840  146.9450 C   0  0  0  0  0  2  0  0  0  0  0  0
  188.5460  175.7990  145.6880 C   0  0  2  0  0  3  0  0  0  0  0  0
  190.0360  175.6160  146.1440 C   0  0  1  0  0  0  0  0  0  0  0  0
  190.6790  176.3470  147.3320 C   0  0  2  0  0  3  0  0  0  0  0  0
  190.5920  177.0520  146.0450 C   0  0  0  0  0  2  0  0  0  0  0  0
  186.2760  178.6270  144.8280 C   0  0  0  0  0  0  0  0  0  0  0  0
  186.6670  176.8470  146.9880 C   0  0  0  0  0  3  0  0  0  0  0  0
  185.6350  177.7020  147.0440 C   0  0  0  0  0  3  0  0  0  0  0  0
  185.6090  178.9190  146.1520 C   0  0  2  0  0  3  0  0  0  0  0  0
  185.8360  179.2240  143.6910 F   0  0  0  0  0  0  0  0  0  0  0  0
  184.3040  179.3330  145.9570 F   0  0  0  0  0  0  0  0  0  0  0  0
  187.3020  177.7620  144.7730 C   0  0  0  0  0  3  0  0  0  0  0  0
  187.8120  177.1050  146.0330 C   0  0  2  0  0  3  0  0  0  0  0  0
  195.1790  176.4480  144.2570 C   0  0  0  0  0  2  0  0  0  0  0  0
  195.3050  175.6050  143.0790 N   0  0  0  0  0  2  0  0  0  0  0  0
  194.4070  176.1420  142.0700 C   0  0  0  0  0  2  0  0  0  0  0  0
  192.2950  175.0420  141.7230 N   0  0  0  0  0  0  0  0  0  0  0  0
  192.9980  175.8340  142.4440 C   0  0  0  0  0  3  0  0  0  0  0  0
  190.6780  174.6810  142.1660 S   0  0  0  0  0  0  0  0  0  0  0  0
  190.6750  173.8450  143.4170 O   0  0  0  0  0  0  0  0  0  0  0  0
  189.9510  175.9660  142.4420 O   0  0  0  0  0  0  0  0  0  0  0  0
  189.0670  172.6140  141.3480 C   0  0  0  0  0  2  0  0  0  0  0  0
  191.5300  172.0840  140.1510 C   0  0  2  0  0  3  0  0  0  0  0  0
  189.8530  173.8210  140.8290 C   0  0  2  0  0  3  0  0  0  0  0  0
  190.8470  173.3890  139.7480 C   0  0  0  0  0  2  0  0  0  0  0  0
  192.4020  171.5980  139.0140 C   0  0  0  0  0  1  0  0  0  0  0  0
  190.5470  171.1220  140.4380 O   0  0  0  0  0  0  0  0  0  0  0  0
  189.9830  171.5050  141.6200 N   0  0  0  0  0  2  0  0  0  0  0  0
  1 30  1  6  0  0  0
  1 14  1  0  0  0  0
  2  4  1  0  0  0  0
  2  1  1  0  0  0  0
  4  3  2  0  0  0  0
  5  6  1  0  0  0  0
  6  8  1  0  0  0  0
  7  4  1  0  0  0  0
  7 11  2  0  0  0  0
  8 10  2  0  0  0  0
  9  7  1  0  0  0  0
 10 11  1  0  0  0  0
 12  6  1  0  0  0  0
 12  9  1  0  0  0  0
 13 12  2  0  0  0  0
 15 14  1  0  0  0  0
 15 16  1  0  0  0  0
 18 29  1  0  0  0  0
 18 19  1  0  0  0  0
 18 17  1  1  0  0  0
 19 21  1  6  0  0  0
 19 17  1  0  0  0  0
 19 20  1  0  0  0  0
 20 16  1  6  0  0  0
 21 20  1  0  0  0  0
 22 25  1  0  0  0  0
 23 24  2  0  0  0  0
 25 27  1  6  0  0  0
 25 24  1  0  0  0  0
 26 22  1  0  0  0  0
 28 22  2  0  0  0  0
 29 28  1  6  0  0  0
 29 23  1  0  0  0  0
 31 30  1  0  0  0  0
 32 34  1  0  0  0  0
 32 31  1  0  0  0  0
 33 35  1  0  0  0  0
 33 34  2  0  0  0  0
 35 37  2  0  0  0  0
 35 36  2  0  0  0  0
 38 44  1  0  0  0  0
 39 42  1  6  0  0  0
 39 43  1  0  0  0  0
 40 38  1  0  0  0  0
 40 35  1  1  0  0  0
 41 39  1  0  0  0  0
 41 40  1  0  0  0  0
 43 44  1  0  0  0  0
M  END
>  <MODEL>
5

>  <REMARK>
 VINA RESULT:      -7.2      1.923      2.763
  Name = 
  13 active torsions:
  status: ('A' for Active; 'I' for Inactive)
    1  A    between atoms: C_1  and  N_17
    2  A    between atoms: C_1  and  C_34
    3  A    between atoms: N_2  and  C_29
    4  A    between atoms: C_8  and  C_33
    5  A    between atoms: C_11  and  S_21
    6  A    between atoms: C_14  and  C_43
    7  A    between atoms: N_17  and  C_42
    8  A    between atoms: N_18  and  C_22
    9  A    between atoms: N_18  and  C_25
   10  A    between atoms: S_21  and  N_26
   11  A    between atoms: C_22  and  C_23
   12  A    between atoms: C_25  and  C_29
   13  A    between atoms: C_29  and  C_42
                            x       y       z     vdW  Elec       q    Type
                         _______ _______ _______ _____ _____    ______ ____

>  <TORSDO>
F 13

$$$$
=
 OpenBabel11042418443D

 44 48  0  0  1  0  0  0  0  0999 V2000
  194.5420  175.8810  143.3770 C   0  0  2  0  0  3  0  0  0  0  0  0
  194.7350  174.4730  143.7020 N   0  0  0  0  0  2  0  0  0  0  0  0
  195.4320  174.8810  145.8900 O   0  0  0  0  0  0  0  0  0  0  0  0
  195.2310  174.0390  144.9720 C   0  0  0  0  0  0  0  0  0  0  0  0
  194.5690  168.6460  147.0290 C   0  0  0  0  0  1  0  0  0  0  0  0
  195.1080  169.7390  146.2350 N   0  0  0  0  0  0  0  0  0  0  0  0
  195.4900  172.6050  145.1990 C   0  0  0  0  0  0  0  0  0  0  0  0
  196.5290  169.8330  146.1780 C   0  0  0  0  0  3  0  0  0  0  0  0
  194.4800  171.6760  144.7960 N   0  0  0  0  0  2  0  0  0  0  0  0
  197.1810  170.9220  145.9160 N   0  0  0  0  0  0  0  0  0  0  0  0
  196.6930  172.2450  145.6610 C   0  0  0  0  0  3  0  0  0  0  0  0
  194.2710  170.3400  145.2460 C   0  0  0  0  0  0  0  0  0  0  0  0
  193.2880  169.6990  144.7870 O   0  0  0  0  0  0  0  0  0  0  0  0
  193.0900  176.1440  142.9960 C   0  0  0  0  0  2  0  0  0  0  0  0
  192.1780  175.6370  144.0120 N   0  0  0  0  0  2  0  0  0  0  0  0
  192.1750  176.6080  145.0930 C   0  0  0  0  0  2  0  0  0  0  0  0
  189.0100  175.4500  145.3110 C   0  0  0  0  0  2  0  0  0  0  0  0
  188.2310  176.4280  144.5260 C   0  0  2  0  0  3  0  0  0  0  0  0
  189.7950  176.4170  144.4170 C   0  0  1  0  0  0  0  0  0  0  0  0
  190.7490  176.8820  145.5280 C   0  0  2  0  0  3  0  0  0  0  0  0
  190.1540  177.9000  144.6500 C   0  0  0  0  0  2  0  0  0  0  0  0
  185.4590  178.7230  145.4960 C   0  0  0  0  0  0  0  0  0  0  0  0
  186.9870  176.6710  146.6980 C   0  0  0  0  0  3  0  0  0  0  0  0
  185.9790  177.2120  147.4000 C   0  0  0  0  0  3  0  0  0  0  0  0
  185.4050  178.5480  146.9970 C   0  0  2  0  0  3  0  0  0  0  0  0
  184.4910  179.4250  144.8520 F   0  0  0  0  0  0  0  0  0  0  0  0
  184.1040  178.6580  147.4510 F   0  0  0  0  0  0  0  0  0  0  0  0
  186.4620  178.1730  144.7950 C   0  0  0  0  0  3  0  0  0  0  0  0
  187.5540  177.4050  145.5020 C   0  0  2  0  0  3  0  0  0  0  0  0
  195.4710  176.3010  142.2450 C   0  0  0  0  0  2  0  0  0  0  0  0
  194.7360  176.3660  140.9920 N   0  0  0  0  0  2  0  0  0  0  0  0
  195.1970  175.2620  140.1680 C   0  0  0  0  0  2  0  0  0  0  0  0
  193.3250  174.4630  138.8840 N   0  0  0  0  0  0  0  0  0  0  0  0
  194.0690  174.3220  139.9170 C   0  0  0  0  0  3  0  0  0  0  0  0
  192.0360  173.3690  138.5940 S   0  0  0  0  0  0  0  0  0  0  0  0
  190.9600  174.0600  137.8010 O   0  0  0  0  0  0  0  0  0  0  0  0
  192.5560  172.2080  137.7940 O   0  0  0  0  0  0  0  0  0  0  0  0
  190.5150  171.5200  139.9370 C   0  0  0  0  0  2  0  0  0  0  0  0
  189.1770  173.9350  140.3370 C   0  0  2  0  0  3  0  0  0  0  0  0
  191.3860  172.7620  140.1480 C   0  0  2  0  0  3  0  0  0  0  0  0
  190.6000  173.8490  140.8850 C   0  0  0  0  0  2  0  0  0  0  0  0
  188.3740  174.9120  141.1670 C   0  0  0  0  0  1  0  0  0  0  0  0
  188.5850  172.6620  140.3980 O   0  0  0  0  0  0  0  0  0  0  0  0
  189.1980  171.9180  139.4340 N   0  0  0  0  0  2  0  0  0  0  0  0
  1 30  1  6  0  0  0
  1  2  1  0  0  0  0
  2  4  1  0  0  0  0
  4  7  1  0  0  0  0
  4  3  2  0  0  0  0
  6  5  1  0  0  0  0
  7 11  2  0  0  0  0
  8  6  1  0  0  0  0
  9  7  1  0  0  0  0
  9 12  1  0  0  0  0
 10  8  2  0  0  0  0
 11 10  1  0  0  0  0
 12  6  1  0  0  0  0
 13 12  2  0  0  0  0
 14  1  1  0  0  0  0
 14 15  1  0  0  0  0
 15 16  1  0  0  0  0
 18 17  1  1  0  0  0
 18 29  1  0  0  0  0
 19 18  1  0  0  0  0
 19 21  1  6  0  0  0
 19 17  1  0  0  0  0
 19 20  1  0  0  0  0
 20 16  1  6  0  0  0
 21 20  1  0  0  0  0
 22 25  1  0  0  0  0
 23 24  2  0  0  0  0
 25 24  1  0  0  0  0
 25 27  1  6  0  0  0
 26 22  1  0  0  0  0
 28 22  2  0  0  0  0
 29 28  1  6  0  0  0
 29 23  1  0  0  0  0
 31 30  1  0  0  0  0
 32 31  1  0  0  0  0
 33 34  2  0  0  0  0
 34 32  1  0  0  0  0
 35 33  1  0  0  0  0
 36 35  2  0  0  0  0
 37 35  2  0  0  0  0
 38 40  1  0  0  0  0
 39 43  1  0  0  0  0
 39 41  1  0  0  0  0
 39 42  1  1  0  0  0
 40 35  1  6  0  0  0
 40 41  1  0  0  0  0
 44 38  1  0  0  0  0
 44 43  1  0  0  0  0
M  END
>  <MODEL>
6

>  <REMARK>
 VINA RESULT:      -7.2      1.757      2.030
  Name = 
  13 active torsions:
  status: ('A' for Active; 'I' for Inactive)
    1  A    between atoms: C_1  and  N_17
    2  A    between atoms: C_1  and  C_34
    3  A    between atoms: N_2  and  C_29
    4  A    between atoms: C_8  and  C_33
    5  A    between atoms: C_11  and  S_21
    6  A    between atoms: C_14  and  C_43
    7  A    between atoms: N_17  and  C_42
    8  A    between atoms: N_18  and  C_22
    9  A    between atoms: N_18  and  C_25
   10  A    between atoms: S_21  and  N_26
   11  A    between atoms: C_22  and  C_23
   12  A    between atoms: C_25  and  C_29
   13  A    between atoms: C_29  and  C_42
                            x       y       z     vdW  Elec       q    Type
                         _______ _______ _______ _____ _____    ______ ____

>  <TORSDO>
F 13

$$$$
=
 OpenBabel11042418443D

 44 48  0  0  1  0  0  0  0  0999 V2000
  190.0350  171.8700  142.0300 C   0  0  2  0  0  3  0  0  0  0  0  0
  189.3910  173.1020  141.5910 N   0  0  0  0  0  2  0  0  0  0  0  0
  188.6400  172.2110  139.5710 O   0  0  0  0  0  0  0  0  0  0  0  0
  188.7460  173.2210  140.3200 C   0  0  0  0  0  0  0  0  0  0  0  0
  185.3250  177.9160  140.2450 C   0  0  0  0  0  1  0  0  0  0  0  0
  186.4310  177.0370  139.8990 N   0  0  0  0  0  0  0  0  0  0  0  0
  188.1970  174.5250  139.9030 C   0  0  0  0  0  0  0  0  0  0  0  0
  186.6880  176.8690  138.5070 C   0  0  0  0  0  3  0  0  0  0  0  0
  188.2220  175.5910  140.8560 N   0  0  0  0  0  2  0  0  0  0  0  0
  187.2970  175.8470  137.9930 N   0  0  0  0  0  0  0  0  0  0  0  0
  187.8150  174.6720  138.6290 C   0  0  0  0  0  3  0  0  0  0  0  0
  187.4260  176.7720  140.8880 C   0  0  0  0  0  0  0  0  0  0  0  0
  187.5810  177.5740  141.8480 O   0  0  0  0  0  0  0  0  0  0  0  0
  190.3880  171.9530  143.5110 C   0  0  0  0  0  2  0  0  0  0  0  0
  190.8610  173.2830  143.8670 N   0  0  0  0  0  2  0  0  0  0  0  0
  190.5960  173.4550  145.2860 C   0  0  0  0  0  2  0  0  0  0  0  0
  189.3500  176.5500  144.7610 C   0  0  0  0  0  2  0  0  0  0  0  0
  189.0900  177.0530  146.1250 C   0  0  2  0  0  3  0  0  0  0  0  0
  189.9700  175.7690  145.9260 C   0  0  1  0  0  0  0  0  0  0  0  0
  189.4290  174.4040  145.4750 C   0  0  2  0  0  3  0  0  0  0  0  0
  189.3130  174.7640  146.8960 C   0  0  0  0  0  2  0  0  0  0  0  0
  185.8000  178.3840  147.2600 C   0  0  0  0  0  0  0  0  0  0  0  0
  186.7910  176.7970  145.1420 C   0  0  0  0  0  3  0  0  0  0  0  0
  185.4900  177.1310  145.1360 C   0  0  0  0  0  3  0  0  0  0  0  0
  184.8250  177.6100  146.4020 C   0  0  2  0  0  3  0  0  0  0  0  0
  185.3680  179.4200  148.0250 F   0  0  0  0  0  0  0  0  0  0  0  0
  183.7270  178.3910  146.0910 F   0  0  0  0  0  0  0  0  0  0  0  0
  187.1010  178.0550  147.2560 C   0  0  0  0  0  3  0  0  0  0  0  0
  187.5900  176.8940  146.4230 C   0  0  2  0  0  3  0  0  0  0  0  0
  191.2830  171.5930  141.2030 C   0  0  0  0  0  2  0  0  0  0  0  0
  192.1350  170.6340  141.8870 N   0  0  0  0  0  2  0  0  0  0  0  0
  193.4680  170.7660  141.3240 C   0  0  0  0  0  2  0  0  0  0  0  0
  194.1260  172.0250  143.2660 N   0  0  0  0  0  0  0  0  0  0  0  0
  194.1830  171.8880  141.9940 C   0  0  0  0  0  3  0  0  0  0  0  0
  194.9630  173.3110  144.0330 S   0  0  0  0  0  0  0  0  0  0  0  0
  194.9980  173.0720  145.5180 O   0  0  0  0  0  0  0  0  0  0  0  0
  196.3730  173.3490  143.5170 O   0  0  0  0  0  0  0  0  0  0  0  0
  195.1450  175.8560  143.0200 C   0  0  0  0  0  2  0  0  0  0  0  0
  194.5840  176.2290  145.7270 C   0  0  2  0  0  3  0  0  0  0  0  0
  194.1640  174.8700  143.6620 C   0  0  2  0  0  3  0  0  0  0  0  0
  193.5310  175.4820  144.9130 C   0  0  0  0  0  2  0  0  0  0  0  0
  193.9180  176.9460  146.8820 C   0  0  0  0  0  1  0  0  0  0  0  0
  195.2260  177.1640  144.8970 O   0  0  0  0  0  0  0  0  0  0  0  0
  196.0090  176.4370  144.0500 N   0  0  0  0  0  2  0  0  0  0  0  0
  1 30  1  6  0  0  0
  1 14  1  0  0  0  0
  2  1  1  0  0  0  0
  3  4  2  0  0  0  0
  4  2  1  0  0  0  0
  6  5  1  0  0  0  0
  6 12  1  0  0  0  0
  7  4  1  0  0  0  0
  7  9  1  0  0  0  0
  8  6  1  0  0  0  0
  9 12  1  0  0  0  0
 10  8  2  0  0  0  0
 10 11  1  0  0  0  0
 11  7  2  0  0  0  0
 12 13  2  0  0  0  0
 14 15  1  0  0  0  0
 15 16  1  0  0  0  0
 18 17  1  6  0  0  0
 18 29  1  0  0  0  0
 19 17  1  1  0  0  0
 19 18  1  0  0  0  0
 19 21  1  0  0  0  0
 20 16  1  1  0  0  0
 20 19  1  0  0  0  0
 20 21  1  0  0  0  0
 22 26  1  0  0  0  0
 24 23  2  0  0  0  0
 24 25  1  0  0  0  0
 25 27  1  6  0  0  0
 25 22  1  0  0  0  0
 28 22  2  0  0  0  0
 29 23  1  6  0  0  0
 29 28  1  0  0  0  0
 30 31  1  0  0  0  0
 32 31  1  0  0  0  0
 32 34  1  0  0  0  0
 33 35  1  0  0  0  0
 34 33  2  0  0  0  0
 35 36  2  0  0  0  0
 37 35  2  0  0  0  0
 38 40  1  0  0  0  0
 38 44  1  0  0  0  0
 39 42  1  1  0  0  0
 40 35  1  1  0  0  0
 40 41  1  0  0  0  0
 41 39  1  0  0  0  0
 43 39  1  0  0  0  0
 44 43  1  0  0  0  0
M  END
>  <MODEL>
7

>  <REMARK>
 VINA RESULT:      -7.2      2.929      7.537
  Name = 
  13 active torsions:
  status: ('A' for Active; 'I' for Inactive)
    1  A    between atoms: C_1  and  N_17
    2  A    between atoms: C_1  and  C_34
    3  A    between atoms: N_2  and  C_29
    4  A    between atoms: C_8  and  C_33
    5  A    between atoms: C_11  and  S_21
    6  A    between atoms: C_14  and  C_43
    7  A    between atoms: N_17  and  C_42
    8  A    between atoms: N_18  and  C_22
    9  A    between atoms: N_18  and  C_25
   10  A    between atoms: S_21  and  N_26
   11  A    between atoms: C_22  and  C_23
   12  A    between atoms: C_25  and  C_29
   13  A    between atoms: C_29  and  C_42
                            x       y       z     vdW  Elec       q    Type
                         _______ _______ _______ _____ _____    ______ ____

>  <TORSDO>
F 13

$$$$
=
 OpenBabel11042418443D

 44 48  0  0  1  0  0  0  0  0999 V2000
  191.7110  171.8060  144.0000 C   0  0  2  0  0  3  0  0  0  0  0  0
  191.3740  172.1740  142.6300 N   0  0  0  0  0  2  0  0  0  0  0  0
  189.0770  171.9020  142.9240 O   0  0  0  0  0  0  0  0  0  0  0  0
  190.0310  172.1560  142.1390 C   0  0  0  0  0  0  0  0  0  0  0  0
  190.8960  174.1330  136.7440 C   0  0  0  0  0  1  0  0  0  0  0  0
  190.2520  173.4380  137.8480 N   0  0  0  0  0  0  0  0  0  0  0  0
  189.7740  172.4500  140.7160 C   0  0  0  0  0  0  0  0  0  0  0  0
  188.8500  173.6470  137.9900 C   0  0  0  0  0  3  0  0  0  0  0  0
  190.6600  171.8780  139.7510 N   0  0  0  0  0  2  0  0  0  0  0  0
  188.1950  173.4960  139.0980 N   0  0  0  0  0  0  0  0  0  0  0  0
  188.6680  173.1340  140.4010 C   0  0  0  0  0  3  0  0  0  0  0  0
  190.9070  172.3010  138.4120 C   0  0  0  0  0  0  0  0  0  0  0  0
  191.7650  171.6750  137.7340 O   0  0  0  0  0  0  0  0  0  0  0  0
  192.4630  172.9410  144.6860 C   0  0  0  0  0  2  0  0  0  0  0  0
  191.7160  174.1890  144.6110 N   0  0  0  0  0  2  0  0  0  0  0  0
  191.0780  174.3730  145.9040 C   0  0  0  0  0  2  0  0  0  0  0  0
  189.7370  177.4690  145.7580 C   0  0  0  0  0  2  0  0  0  0  0  0
  188.7700  177.4790  146.8740 C   0  0  2  0  0  3  0  0  0  0  0  0
  189.8390  176.3340  146.7840 C   0  0  1  0  0  0  0  0  0  0  0  0
  189.8240  175.2070  145.7400 C   0  0  2  0  0  3  0  0  0  0  0  0
  188.9770  175.0630  146.9330 C   0  0  0  0  0  2  0  0  0  0  0  0
  185.0880  178.0550  146.8250 C   0  0  0  0  0  0  0  0  0  0  0  0
  187.2040  177.9160  144.9560 C   0  0  0  0  0  3  0  0  0  0  0  0
  185.9800  178.2440  144.5130 C   0  0  0  0  0  3  0  0  0  0  0  0
  184.7640  177.9440  145.3540 C   0  0  2  0  0  3  0  0  0  0  0  0
  184.1480  178.4880  147.7050 F   0  0  0  0  0  0  0  0  0  0  0  0
  183.7350  178.8050  145.0180 F   0  0  0  0  0  0  0  0  0  0  0  0
  186.3160  177.7370  147.2650 C   0  0  0  0  0  3  0  0  0  0  0  0
  187.3640  177.2370  146.2990 C   0  0  2  0  0  3  0  0  0  0  0  0
  192.5430  170.5300  144.0240 C   0  0  0  0  0  2  0  0  0  0  0  0
  193.9360  170.8460  144.2970 N   0  0  0  0  0  2  0  0  0  0  0  0
  194.7180  170.3310  143.1860 C   0  0  0  0  0  2  0  0  0  0  0  0
  195.1630  172.5400  142.3410 N   0  0  0  0  0  0  0  0  0  0  0  0
  195.6290  171.3970  142.6820 C   0  0  0  0  0  3  0  0  0  0  0  0
  196.2190  173.7670  141.7750 S   0  0  0  0  0  0  0  0  0  0  0  0
  197.4820  173.7580  142.5920 O   0  0  0  0  0  0  0  0  0  0  0  0
  196.5690  173.4840  140.3410 O   0  0  0  0  0  0  0  0  0  0  0  0
  196.4230  176.5040  141.7260 C   0  0  0  0  0  2  0  0  0  0  0  0
  195.5570  175.9230  144.3130 C   0  0  2  0  0  3  0  0  0  0  0  0
  195.4120  175.3630  141.8730 C   0  0  2  0  0  3  0  0  0  0  0  0
  194.6250  175.5090  143.1770 C   0  0  0  0  0  2  0  0  0  0  0  0
  194.7440  176.2000  145.5590 C   0  0  0  0  0  1  0  0  0  0  0  0
  196.2530  177.0830  143.9340 O   0  0  0  0  0  0  0  0  0  0  0  0
  197.1480  176.6890  142.9840 N   0  0  0  0  0  2  0  0  0  0  0  0
  1 30  1  6  0  0  0
  1 14  1  0  0  0  0
  2  1  1  0  0  0  0
  4  2  1  0  0  0  0
  4  3  2  0  0  0  0
  5  6  1  0  0  0  0
  6  8  1  0  0  0  0
  6 12  1  0  0  0  0
  7  4  1  0  0  0  0
  8 10  2  0  0  0  0
  9  7  1  0  0  0  0
 10 11  1  0  0  0  0
 11  7  2  0  0  0  0
 12  9  1  0  0  0  0
 13 12  2  0  0  0  0
 15 14  1  0  0  0  0
 15 16  1  0  0  0  0
 18 17  1  6  0  0  0
 19 17  1  1  0  0  0
 19 18  1  0  0  0  0
 19 21  1  0  0  0  0
 20 16  1  1  0  0  0
 20 19  1  0  0  0  0
 20 21  1  0  0  0  0
 22 28  2  0  0  0  0
 22 26  1  0  0  0  0
 24 23  2  0  0  0  0
 24 25  1  0  0  0  0
 25 27  1  6  0  0  0
 25 22  1  0  0  0  0
 29 23  1  6  0  0  0
 29 18  1  0  0  0  0
 29 28  1  0  0  0  0
 30 31  1  0  0  0  0
 32 31  1  0  0  0  0
 33 34  2  0  0  0  0
 34 32  1  0  0  0  0
 35 33  1  0  0  0  0
 35 36  2  0  0  0  0
 37 35  2  0  0  0  0
 38 40  1  0  0  0  0
 38 44  1  0  0  0  0
 39 42  1  1  0  0  0
 40 35  1  1  0  0  0
 40 41  1  0  0  0  0
 41 39  1  0  0  0  0
 43 39  1  0  0  0  0
 44 43  1  0  0  0  0
M  END
>  <MODEL>
8

>  <REMARK>
 VINA RESULT:      -7.2      2.829      6.610
  Name = 
  13 active torsions:
  status: ('A' for Active; 'I' for Inactive)
    1  A    between atoms: C_1  and  N_17
    2  A    between atoms: C_1  and  C_34
    3  A    between atoms: N_2  and  C_29
    4  A    between atoms: C_8  and  C_33
    5  A    between atoms: C_11  and  S_21
    6  A    between atoms: C_14  and  C_43
    7  A    between atoms: N_17  and  C_42
    8  A    between atoms: N_18  and  C_22
    9  A    between atoms: N_18  and  C_25
   10  A    between atoms: S_21  and  N_26
   11  A    between atoms: C_22  and  C_23
   12  A    between atoms: C_25  and  C_29
   13  A    between atoms: C_29  and  C_42
                            x       y       z     vdW  Elec       q    Type
                         _______ _______ _______ _____ _____    ______ ____

>  <TORSDO>
F 13

$$$$
=
 OpenBabel11042418443D

 44 48  0  0  1  0  0  0  0  0999 V2000
  184.2020  178.2760  142.7610 C   0  0  2  0  0  3  0  0  0  0  0  0
  182.8100  178.6870  142.6300 N   0  0  0  0  0  2  0  0  0  0  0  0
  182.5200  177.7020  140.5360 O   0  0  0  0  0  0  0  0  0  0  0  0
  182.0330  178.4060  141.4630 C   0  0  0  0  0  0  0  0  0  0  0  0
  177.7010  182.1950  140.6650 C   0  0  0  0  0  1  0  0  0  0  0  0
  178.3660  180.9190  140.8770 N   0  0  0  0  0  0  0  0  0  0  0  0
  180.6590  178.9340  141.3600 C   0  0  0  0  0  0  0  0  0  0  0  0
  177.8070  180.0790  141.8840 C   0  0  0  0  0  3  0  0  0  0  0  0
  180.2530  179.4830  140.1040 N   0  0  0  0  0  2  0  0  0  0  0  0
  178.4620  179.1540  142.5130 N   0  0  0  0  0  0  0  0  0  0  0  0
  179.8370  178.7660  142.4020 C   0  0  0  0  0  3  0  0  0  0  0  0
  179.1950  180.4000  139.8360 C   0  0  0  0  0  0  0  0  0  0  0  0
  179.0280  180.7940  138.6510 O   0  0  0  0  0  0  0  0  0  0  0  0
  184.8250  178.8980  144.0060 C   0  0  0  0  0  2  0  0  0  0  0  0
  184.0910  178.5250  145.2070 N   0  0  0  0  0  2  0  0  0  0  0  0
  184.8800  178.9830  146.3380 C   0  0  0  0  0  2  0  0  0  0  0  0
  186.8470  176.3750  145.4830 C   0  0  0  0  0  2  0  0  0  0  0  0
  187.5510  176.0480  146.7390 C   0  0  2  0  0  3  0  0  0  0  0  0
  186.3040  176.9990  146.7740 C   0  0  1  0  0  0  0  0  0  0  0  0
  186.2890  178.4370  146.2320 C   0  0  2  0  0  3  0  0  0  0  0  0
  186.8300  178.2050  147.5800 C   0  0  0  0  0  2  0  0  0  0  0  0
  191.2650  175.7930  146.9220 C   0  0  0  0  0  0  0  0  0  0  0  0
  189.3360  177.0170  145.2580 C   0  0  0  0  0  3  0  0  0  0  0  0
  190.6290  177.1030  144.9080 C   0  0  0  0  0  3  0  0  0  0  0  0
  191.7090  176.8410  145.9280 C   0  0  2  0  0  3  0  0  0  0  0  0
  192.1670  174.9340  147.4640 F   0  0  0  0  0  0  0  0  0  0  0  0
  192.8710  176.4430  145.2920 F   0  0  0  0  0  0  0  0  0  0  0  0
  189.9700  175.7010  147.2620 C   0  0  0  0  0  3  0  0  0  0  0  0
  188.9600  176.6620  146.6790 C   0  0  2  0  0  3  0  0  0  0  0  0
  184.9960  178.6650  141.5210 C   0  0  0  0  0  2  0  0  0  0  0  0
  185.7630  177.5270  141.0400 N   0  0  0  0  0  2  0  0  0  0  0  0
  187.1510  177.7640  141.3980 C   0  0  0  0  0  2  0  0  0  0  0  0
  188.1230  175.5850  141.0790 N   0  0  0  0  0  0  0  0  0  0  0  0
  187.7590  176.4990  141.9000 C   0  0  0  0  0  3  0  0  0  0  0  0
  188.8360  174.1380  141.6630 S   0  0  0  0  0  0  0  0  0  0  0  0
  188.6560  174.0560  143.1540 O   0  0  0  0  0  0  0  0  0  0  0  0
  188.1440  172.9660  141.0270 O   0  0  0  0  0  0  0  0  0  0  0  0
  190.9510  172.7530  140.5930 C   0  0  0  0  0  2  0  0  0  0  0  0
  191.6400  173.1030  143.2730 C   0  0  2  0  0  3  0  0  0  0  0  0
  190.5730  174.0930  141.2310 C   0  0  2  0  0  3  0  0  0  0  0  0
  191.4560  174.3750  142.4480 C   0  0  0  0  0  2  0  0  0  0  0  0
  192.6270  173.3630  144.3910 C   0  0  0  0  0  1  0  0  0  0  0  0
  192.1280  172.0830  142.4380 O   0  0  0  0  0  0  0  0  0  0  0  0
  191.0870  171.7300  141.6320 N   0  0  0  0  0  2  0  0  0  0  0  0
  1 30  1  6  0  0  0
  1 14  1  0  0  0  0
  2  1  1  0  0  0  0
  3  4  2  0  0  0  0
  4  2  1  0  0  0  0
  5  6  1  0  0  0  0
  6  8  1  0  0  0  0
  7  4  1  0  0  0  0
  7 11  2  0  0  0  0
  8 10  2  0  0  0  0
  9  7  1  0  0  0  0
 11 10  1  0  0  0  0
 12  9  1  0  0  0  0
 12  6  1  0  0  0  0
 13 12  2  0  0  0  0
 14 15  1  0  0  0  0
 15 16  1  0  0  0  0
 18 17  1  6  0  0  0
 18 19  1  0  0  0  0
 19 17  1  1  0  0  0
 19 21  1  0  0  0  0
 20 16  1  1  0  0  0
 20 19  1  0  0  0  0
 20 21  1  0  0  0  0
 22 28  2  0  0  0  0
 22 26  1  0  0  0  0
 24 23  2  0  0  0  0
 24 25  1  0  0  0  0
 25 27  1  6  0  0  0
 25 22  1  0  0  0  0
 29 23  1  6  0  0  0
 29 18  1  0  0  0  0
 29 28  1  0  0  0  0
 31 32  1  0  0  0  0
 31 30  1  0  0  0  0
 32 34  1  0  0  0  0
 33 35  1  0  0  0  0
 33 34  2  0  0  0  0
 35 36  2  0  0  0  0
 37 35  2  0  0  0  0
 38 40  1  0  0  0  0
 38 44  1  0  0  0  0
 39 42  1  1  0  0  0
 40 35  1  1  0  0  0
 40 41  1  0  0  0  0
 41 39  1  0  0  0  0
 43 39  1  0  0  0  0
 44 43  1  0  0  0  0
M  END
>  <MODEL>
9

>  <REMARK>
 VINA RESULT:      -7.1      5.460     11.439
  Name = 
  13 active torsions:
  status: ('A' for Active; 'I' for Inactive)
    1  A    between atoms: C_1  and  N_17
    2  A    between atoms: C_1  and  C_34
    3  A    between atoms: N_2  and  C_29
    4  A    between atoms: C_8  and  C_33
    5  A    between atoms: C_11  and  S_21
    6  A    between atoms: C_14  and  C_43
    7  A    between atoms: N_17  and  C_42
    8  A    between atoms: N_18  and  C_22
    9  A    between atoms: N_18  and  C_25
   10  A    between atoms: S_21  and  N_26
   11  A    between atoms: C_22  and  C_23
   12  A    between atoms: C_25  and  C_29
   13  A    between atoms: C_29  and  C_42
                            x       y       z     vdW  Elec       q    Type
                         _______ _______ _______ _____ _____    ______ ____

>  <TORSDO>
F 13

$$$$
