=
 OpenBabel11042415073D

 53 57  0  0  1  0  0  0  0  0999 V2000
  193.6540  175.6610  137.2980 N   0  0  0  0  0  2  0  0  0  0  0  0
  192.5250  175.7140  136.4120 C   0  0  0  0  0  0  0  0  0  0  0  0
  194.4610  172.6960  140.2340 C   0  0  0  0  0  0  0  0  0  0  0  0
  195.1410  174.5210  138.8580 O   0  0  0  0  0  0  0  0  0  0  0  0
  193.0200  173.0400  139.9020 C   0  0  2  0  0  3  0  0  0  0  0  0
  195.4530  173.4670  139.7240 C   0  0  0  0  0  0  0  0  0  0  0  0
  191.4880  174.7330  136.4800 N   0  0  0  0  0  2  0  0  0  0  0  0
  192.4600  176.6370  135.5510 O   0  0  0  0  0  0  0  0  0  0  0  0
  192.8740  173.9900  138.7980 N   0  0  0  0  0  0  0  0  0  0  0  0
  193.8580  174.7020  138.3430 C   0  0  0  0  0  0  0  0  0  0  0  0
  190.5490  173.2420  142.7900 C   0  0  0  0  0  3  0  0  0  0  0  0
  191.2840  172.7410  141.7110 C   0  0  0  0  0  3  0  0  0  0  0  0
  192.5110  174.8230  141.5820 C   0  0  0  0  0  3  0  0  0  0  0  0
  191.7760  175.3260  142.6570 C   0  0  0  0  0  3  0  0  0  0  0  0
  192.2670  173.5320  141.1050 C   0  0  0  0  0  0  0  0  0  0  0  0
  190.7980  174.5310  143.2760 C   0  0  0  0  0  0  0  0  0  0  0  0
  188.7760  177.2290  144.3260 C   0  0  2  0  0  0  0  0  0  0  0  0
  187.9480  175.3610  143.1080 O   0  0  0  0  0  0  0  0  0  0  0  0
  188.8920  178.0940  143.2490 F   0  0  0  0  0  0  0  0  0  0  0  0
  190.6850  175.9890  145.2390 N   0  0  0  0  0  0  0  0  0  0  0  0
  189.9370  175.0690  144.3830 C   0  0  1  0  0  3  0  0  0  0  0  0
  190.0460  177.3140  145.1680 C   0  0  0  0  0  3  0  0  0  0  0  0
  188.7970  175.8380  143.8450 C   0  0  0  0  0  0  0  0  0  0  0  0
  185.1370  178.5420  145.1340 C   0  0  0  0  0  2  0  0  0  0  0  0
  187.3590  176.8930  146.3270 C   0  0  0  0  0  3  0  0  0  0  0  0
  187.5180  177.5090  145.1280 C   0  0  0  0  0  0  0  0  0  0  0  0
  186.1550  176.9480  147.2330 C   0  0  0  0  0  2  0  0  0  0  0  0
  186.5340  178.5010  144.5300 C   0  0  0  0  0  2  0  0  0  0  0  0
  185.2190  179.0390  146.5470 C   0  0  0  0  0  3  0  0  0  0  0  0
  185.7130  178.3040  147.4810 N   0  0  0  0  0  0  0  0  0  0  0  0
  194.6560  171.4820  141.1310 C   0  0  2  0  0  3  0  0  0  0  0  0
  194.8860  171.9120  142.5390 C   0  0  2  0  0  3  0  0  0  0  0  0
  195.9320  171.4360  141.7220 O   0  0  0  0  0  0  0  0  0  0  0  0
  194.6220  170.8430  143.5990 C   0  0  0  0  0  2  0  0  0  0  0  0
  194.7710  170.1530  146.0200 C   0  0  0  0  0  1  0  0  0  0  0  0
  195.2870  171.1030  144.9510 C   0  0  2  0  0  3  0  0  0  0  0  0
  197.3270  173.1520  145.2800 O   0  0  0  0  0  0  0  0  0  0  0  0
  195.0800  172.4950  145.3410 N   0  0  0  0  0  2  0  0  0  0  0  0
  196.1280  173.4580  145.5270 C   0  0  0  0  0  0  0  0  0  0  0  0
  195.8150  174.7880  145.9350 N   0  0  0  0  0  2  0  0  0  0  0  0
  194.1520  175.3370  146.1710 S   0  0  0  0  0  0  0  0  0  0  0  0
  194.3860  176.7510  145.0550 C   0  0  0  0  0  1  0  0  0  0  0  0
  190.4450  174.6150  135.4670 C   0  0  0  0  0  2  0  0  0  0  0  0
  188.8120  173.7830  136.9950 O   0  0  0  0  0  0  0  0  0  0  0  0
  186.9990  175.7930  136.4660 O   0  0  0  0  0  1  0  0  0  0  0  0
  189.0990  174.6420  136.1190 C   0  0  0  0  0  0  0  0  0  0  0  0
  188.1680  175.6730  135.7910 N   0  0  0  0  0  2  0  0  0  0  0  0
  196.8980  173.2440  140.0230 C   0  0  0  0  0  2  0  0  0  0  0  0
  197.5270  174.5250  140.5490 C   0  0  0  0  0  2  0  0  0  0  0  0
  197.4000  174.5990  142.0610 C   0  0  0  0  0  2  0  0  0  0  0  0
  196.9190  175.9720  142.4920 C   0  0  0  0  0  2  0  0  0  0  0  0
  195.0470  176.8190  141.3090 O   0  0  0  0  0  1  0  0  0  0  0  0
  196.4390  176.7360  141.2770 C   0  0  0  0  0  2  0  0  0  0  0  0
  1 10  1  0  0  0  0
  2  7  1  0  0  0  0
  2  1  1  0  0  0  0
  4  6  1  0  0  0  0
  5  3  1  0  0  0  0
  5 15  1  1  0  0  0
  6 48  1  0  0  0  0
  6  3  2  0  0  0  0
  8  2  2  0  0  0  0
  9  5  1  0  0  0  0
 10  9  2  0  0  0  0
 10  4  1  0  0  0  0
 11 16  1  0  0  0  0
 12 11  2  0  0  0  0
 13 14  1  0  0  0  0
 14 16  2  0  0  0  0
 15 13  2  0  0  0  0
 15 12  1  0  0  0  0
 17 19  1  6  0  0  0
 17 26  1  0  0  0  0
 17 22  1  0  0  0  0
 18 23  2  0  0  0  0
 21 16  1  6  0  0  0
 21 20  1  0  0  0  0
 22 20  2  0  0  0  0
 23 17  1  0  0  0  0
 23 21  1  0  0  0  0
 24 29  1  0  0  0  0
 25 27  1  0  0  0  0
 26 25  2  0  0  0  0
 27 30  1  0  0  0  0
 28 26  1  0  0  0  0
 28 24  1  0  0  0  0
 29 30  2  0  0  0  0
 31  3  1  6  0  0  0
 31 33  1  0  0  0  0
 31 32  1  0  0  0  0
 32 34  1  1  0  0  0
 33 32  1  0  0  0  0
 34 36  1  0  0  0  0
 36 38  1  0  0  0  0
 36 35  1  1  0  0  0
 37 39  2  0  0  0  0
 38 39  1  0  0  0  0
 39 40  1  0  0  0  0
 40 41  1  0  0  0  0
 42 41  1  0  0  0  0
 43 46  1  0  0  0  0
 43  7  1  0  0  0  0
 46 44  2  0  0  0  0
 47 46  1  0  0  0  0
 47 45  1  0  0  0  0
 48 49  1  0  0  0  0
 49 50  1  0  0  0  0
 50 51  1  0  0  0  0
 53 52  1  0  0  0  0
 53 51  1  0  0  0  0
M  END
>  <MODEL>
1

>  <REMARK>
 VINA RESULT:      -6.7      0.000      0.000
  Name = 
  15 active torsions:
  status: ('A' for Active; 'I' for Inactive)
    1  A    between atoms: C_2  and  C_7
    2  A    between atoms: C_5  and  C_33
    3  A    between atoms: C_5  and  N_44
    4  A    between atoms: C_8  and  C_39
    5  A    between atoms: C_8  and  C_48
    6  A    between atoms: C_9  and  C_16
    7  A    between atoms: C_9  and  C_52
    8  A    between atoms: C_11  and  C_21
    9  A    between atoms: S_14  and  N_28
   10  A    between atoms: N_18  and  C_52
   11  A    between atoms: C_29  and  C_35
   12  A    between atoms: C_29  and  C_48
   13  A    between atoms: C_37  and  C_46
   14  A    between atoms: C_38  and  C_51
   15  A    between atoms: C_39  and  C_43
                            x       y       z     vdW  Elec       q    Type
                         _______ _______ _______ _____ _____    ______ ____

>  <TORSDO>
F 15

$$$$
=
 OpenBabel11042415073D

 53 57  0  0  1  0  0  0  0  0999 V2000
  186.3360  177.1740  146.4700 N   0  0  0  0  0  2  0  0  0  0  0  0
  185.0840  177.6670  145.9670 C   0  0  0  0  0  0  0  0  0  0  0  0
  190.1080  177.3200  144.5180 C   0  0  0  0  0  0  0  0  0  0  0  0
  188.7690  177.0180  146.4670 O   0  0  0  0  0  0  0  0  0  0  0  0
  188.8450  177.1960  143.6850 C   0  0  2  0  0  3  0  0  0  0  0  0
  190.0200  177.1950  145.8650 C   0  0  0  0  0  0  0  0  0  0  0  0
  184.9900  178.2450  144.6630 N   0  0  0  0  0  2  0  0  0  0  0  0
  184.0560  177.5990  146.6990 O   0  0  0  0  0  0  0  0  0  0  0  0
  187.6080  177.2710  144.4640 N   0  0  0  0  0  0  0  0  0  0  0  0
  187.5780  177.1500  145.7550 C   0  0  0  0  0  0  0  0  0  0  0  0
  189.2500  173.5770  142.5770 C   0  0  0  0  0  3  0  0  0  0  0  0
  189.1930  174.7120  143.3910 C   0  0  0  0  0  3  0  0  0  0  0  0
  188.5600  176.0510  141.4780 C   0  0  0  0  0  3  0  0  0  0  0  0
  188.6200  174.9190  140.6620 C   0  0  0  0  0  3  0  0  0  0  0  0
  188.8460  175.9520  142.8420 C   0  0  0  0  0  0  0  0  0  0  0  0
  188.9540  173.6720  141.2130 C   0  0  0  0  0  0  0  0  0  0  0  0
  190.4480  172.3440  138.3020 C   0  0  2  0  0  0  0  0  0  0  0  0
  191.4780  172.3000  140.4450 O   0  0  0  0  0  0  0  0  0  0  0  0
  191.1260  173.4500  137.8130 F   0  0  0  0  0  0  0  0  0  0  0  0
  188.1780  172.4830  139.2180 N   0  0  0  0  0  0  0  0  0  0  0  0
  189.1040  172.4510  140.3500 C   0  0  1  0  0  3  0  0  0  0  0  0
  188.9650  172.4880  137.9730 C   0  0  0  0  0  3  0  0  0  0  0  0
  190.4600  172.3690  139.7740 C   0  0  0  0  0  0  0  0  0  0  0  0
  190.7420  168.4930  137.4580 C   0  0  0  0  0  2  0  0  0  0  0  0
  192.1370  171.1190  136.9700 C   0  0  0  0  0  3  0  0  0  0  0  0
  191.0450  171.0510  137.7750 C   0  0  0  0  0  0  0  0  0  0  0  0
  192.8250  169.9800  136.2620 C   0  0  0  0  0  2  0  0  0  0  0  0
  190.3840  169.7590  138.2240 C   0  0  0  0  0  2  0  0  0  0  0  0
  192.1890  168.1660  137.6830 C   0  0  0  0  0  3  0  0  0  0  0  0
  193.1200  168.8750  137.1500 N   0  0  0  0  0  0  0  0  0  0  0  0
  191.3870  177.5800  143.7350 C   0  0  2  0  0  3  0  0  0  0  0  0
  192.1340  176.3080  143.5260 C   0  0  2  0  0  3  0  0  0  0  0  0
  192.5500  177.2720  144.4660 O   0  0  0  0  0  0  0  0  0  0  0  0
  193.1480  176.3270  142.3830 C   0  0  0  0  0  2  0  0  0  0  0  0
  195.4110  175.8860  143.4050 C   0  0  0  0  0  1  0  0  0  0  0  0
  194.2990  175.3310  142.5300 C   0  0  2  0  0  3  0  0  0  0  0  0
  194.7940  172.6430  141.5280 O   0  0  0  0  0  0  0  0  0  0  0  0
  194.8030  174.9630  141.2100 N   0  0  0  0  0  2  0  0  0  0  0  0
  195.0670  173.6210  140.7780 C   0  0  0  0  0  0  0  0  0  0  0  0
  195.5850  173.3760  139.4720 N   0  0  0  0  0  2  0  0  0  0  0  0
  195.8680  174.6760  138.3090 S   0  0  0  0  0  0  0  0  0  0  0  0
  197.6590  174.3780  138.3050 C   0  0  0  0  0  1  0  0  0  0  0  0
  183.8030  178.9550  144.1990 C   0  0  0  0  0  2  0  0  0  0  0  0
  182.3380  178.6310  142.3420 O   0  0  0  0  0  0  0  0  0  0  0  0
  184.3800  178.0770  140.5710 O   0  0  0  0  0  1  0  0  0  0  0  0
  183.5220  178.5960  142.7730 C   0  0  0  0  0  0  0  0  0  0  0  0
  184.5990  178.2740  141.8940 N   0  0  0  0  0  2  0  0  0  0  0  0
  191.2040  177.2550  146.7720 C   0  0  0  0  0  2  0  0  0  0  0  0
  191.2560  176.0120  147.6460 C   0  0  0  0  0  2  0  0  0  0  0  0
  191.5320  174.7790  146.8030 C   0  0  0  0  0  2  0  0  0  0  0  0
  193.0140  174.6520  146.5070 C   0  0  0  0  0  2  0  0  0  0  0  0
  194.5750  173.1180  145.5960 O   0  0  0  0  0  1  0  0  0  0  0  0
  193.2350  173.5010  145.5500 C   0  0  0  0  0  2  0  0  0  0  0  0
  2  1  1  0  0  0  0
  2  8  2  0  0  0  0
  3  6  2  0  0  0  0
  5 15  1  1  0  0  0
  5  9  1  0  0  0  0
  5  3  1  0  0  0  0
  6  4  1  0  0  0  0
  6 48  1  0  0  0  0
  7  2  1  0  0  0  0
  9 10  2  0  0  0  0
 10  4  1  0  0  0  0
 10  1  1  0  0  0  0
 11 12  1  0  0  0  0
 13 15  1  0  0  0  0
 14 16  1  0  0  0  0
 14 13  2  0  0  0  0
 15 12  2  0  0  0  0
 16 11  2  0  0  0  0
 17 19  1  6  0  0  0
 17 23  1  0  0  0  0
 20 21  1  0  0  0  0
 21 16  1  6  0  0  0
 22 17  1  0  0  0  0
 22 20  2  0  0  0  0
 23 21  1  0  0  0  0
 23 18  2  0  0  0  0
 24 29  1  0  0  0  0
 24 28  1  0  0  0  0
 25 26  2  0  0  0  0
 26 28  1  0  0  0  0
 26 17  1  0  0  0  0
 27 25  1  0  0  0  0
 27 30  1  0  0  0  0
 30 29  2  0  0  0  0
 31 33  1  0  0  0  0
 31  3  1  1  0  0  0
 32 34  1  6  0  0  0
 32 31  1  0  0  0  0
 32 33  1  0  0  0  0
 34 36  1  0  0  0  0
 36 35  1  1  0  0  0
 38 36  1  0  0  0  0
 39 38  1  0  0  0  0
 39 37  2  0  0  0  0
 40 39  1  0  0  0  0
 41 40  1  0  0  0  0
 42 41  1  0  0  0  0
 43  7  1  0  0  0  0
 44 46  2  0  0  0  0
 45 47  1  0  0  0  0
 46 43  1  0  0  0  0
 47 46  1  0  0  0  0
 48 49  1  0  0  0  0
 50 49  1  0  0  0  0
 51 50  1  0  0  0  0
 53 52  1  0  0  0  0
 53 51  1  0  0  0  0
M  END
>  <MODEL>
2

>  <REMARK>
 VINA RESULT:      -6.6      3.558      8.680
  Name = 
  15 active torsions:
  status: ('A' for Active; 'I' for Inactive)
    1  A    between atoms: C_2  and  C_7
    2  A    between atoms: C_5  and  C_33
    3  A    between atoms: C_5  and  N_44
    4  A    between atoms: C_8  and  C_39
    5  A    between atoms: C_8  and  C_48
    6  A    between atoms: C_9  and  C_16
    7  A    between atoms: C_9  and  C_52
    8  A    between atoms: C_11  and  C_21
    9  A    between atoms: S_14  and  N_28
   10  A    between atoms: N_18  and  C_52
   11  A    between atoms: C_29  and  C_35
   12  A    between atoms: C_29  and  C_48
   13  A    between atoms: C_37  and  C_46
   14  A    between atoms: C_38  and  C_51
   15  A    between atoms: C_39  and  C_43
                            x       y       z     vdW  Elec       q    Type
                         _______ _______ _______ _____ _____    ______ ____

>  <TORSDO>
F 15

$$$$
=
 OpenBabel11042415073D

 53 57  0  0  1  0  0  0  0  0999 V2000
  192.8080  175.4990  136.7060 N   0  0  0  0  0  2  0  0  0  0  0  0
  191.6630  175.7330  135.8710 C   0  0  0  0  0  0  0  0  0  0  0  0
  193.3940  172.2560  139.3890 C   0  0  0  0  0  0  0  0  0  0  0  0
  194.2170  174.1000  138.1210 O   0  0  0  0  0  0  0  0  0  0  0  0
  191.9870  172.7690  139.1400 C   0  0  2  0  0  3  0  0  0  0  0  0
  194.4440  172.9570  138.8970 C   0  0  0  0  0  0  0  0  0  0  0  0
  190.5320  174.8600  135.9110 N   0  0  0  0  0  2  0  0  0  0  0  0
  191.6670  176.7200  135.0820 O   0  0  0  0  0  0  0  0  0  0  0  0
  191.9060  173.8090  138.1130 N   0  0  0  0  0  0  0  0  0  0  0  0
  192.9440  174.4490  137.6720 C   0  0  0  0  0  0  0  0  0  0  0  0
  189.4970  173.1770  141.9900 C   0  0  0  0  0  3  0  0  0  0  0  0
  190.1270  172.6780  140.8460 C   0  0  0  0  0  3  0  0  0  0  0  0
  191.8950  174.3100  141.1100 C   0  0  0  0  0  3  0  0  0  0  0  0
  191.2650  174.8120  142.2510 C   0  0  0  0  0  3  0  0  0  0  0  0
  191.3290  173.2440  140.4050 C   0  0  0  0  0  0  0  0  0  0  0  0
  190.0670  174.2380  142.7040 C   0  0  0  0  0  0  0  0  0  0  0  0
  188.4990  177.1080  144.0350 C   0  0  2  0  0  0  0  0  0  0  0  0
  187.3700  175.4910  142.7060 O   0  0  0  0  0  0  0  0  0  0  0  0
  188.7160  178.0330  143.0240 F   0  0  0  0  0  0  0  0  0  0  0  0
  190.2230  175.5300  144.7770 N   0  0  0  0  0  0  0  0  0  0  0  0
  189.3240  174.8040  143.8800 C   0  0  1  0  0  3  0  0  0  0  0  0
  189.7880  176.9360  144.8330 C   0  0  0  0  0  3  0  0  0  0  0  0
  188.2990  175.7740  143.4470 C   0  0  0  0  0  0  0  0  0  0  0  0
  186.0950  177.2010  147.1710 C   0  0  0  0  0  2  0  0  0  0  0  0
  186.5650  178.5710  144.5290 C   0  0  0  0  0  3  0  0  0  0  0  0
  187.3170  177.5040  144.9020 C   0  0  0  0  0  0  0  0  0  0  0  0
  185.4190  179.1940  145.2860 C   0  0  0  0  0  2  0  0  0  0  0  0
  187.0430  176.6400  146.1210 C   0  0  0  0  0  2  0  0  0  0  0  0
  184.7170  177.3160  146.5880 C   0  0  0  0  0  3  0  0  0  0  0  0
  184.4420  178.2150  145.7100 N   0  0  0  0  0  0  0  0  0  0  0  0
  193.4890  170.9640  140.1900 C   0  0  2  0  0  3  0  0  0  0  0  0
  193.8730  171.2570  141.6000 C   0  0  2  0  0  3  0  0  0  0  0  0
  194.7870  170.7140  140.6740 O   0  0  0  0  0  0  0  0  0  0  0  0
  193.5460  170.1560  142.6080 C   0  0  0  0  0  2  0  0  0  0  0  0
  192.2280  171.5960  144.2040 C   0  0  0  0  0  1  0  0  0  0  0  0
  193.3950  170.6340  144.0520 C   0  0  2  0  0  3  0  0  0  0  0  0
  194.9800  169.8870  146.3760 O   0  0  0  0  0  0  0  0  0  0  0  0
  194.6430  171.2470  144.5000 N   0  0  0  0  0  2  0  0  0  0  0  0
  195.3660  170.8650  145.6780 C   0  0  0  0  0  0  0  0  0  0  0  0
  196.5650  171.5490  146.0380 N   0  0  0  0  0  2  0  0  0  0  0  0
  197.2500  172.8400  145.0430 S   0  0  0  0  0  0  0  0  0  0  0  0
  196.3270  174.1190  145.9430 C   0  0  0  0  0  1  0  0  0  0  0  0
  189.4500  174.9260  134.9340 C   0  0  0  0  0  2  0  0  0  0  0  0
  188.1390  176.9170  134.8200 O   0  0  0  0  0  0  0  0  0  0  0  0
  186.5130  176.2070  136.9320 O   0  0  0  0  0  1  0  0  0  0  0  0
  188.3730  175.8390  135.4300 C   0  0  0  0  0  0  0  0  0  0  0  0
  187.5770  175.4590  136.5520 N   0  0  0  0  0  2  0  0  0  0  0  0
  195.8670  172.5660  139.1220 C   0  0  0  0  0  2  0  0  0  0  0  0
  196.7920  173.7020  138.7130 C   0  0  0  0  0  2  0  0  0  0  0  0
  197.5670  174.2160  139.9140 C   0  0  0  0  0  2  0  0  0  0  0  0
  196.8840  175.4310  140.5120 C   0  0  0  0  0  2  0  0  0  0  0  0
  195.3040  174.4820  142.0040 O   0  0  0  0  0  1  0  0  0  0  0  0
  196.5310  175.1440  141.9560 C   0  0  0  0  0  2  0  0  0  0  0  0
  1 10  1  0  0  0  0
  2  7  1  0  0  0  0
  2  1  1  0  0  0  0
  4  6  1  0  0  0  0
  5  3  1  0  0  0  0
  5 15  1  1  0  0  0
  6 48  1  0  0  0  0
  6  3  2  0  0  0  0
  8  2  2  0  0  0  0
  9  5  1  0  0  0  0
 10  9  2  0  0  0  0
 10  4  1  0  0  0  0
 11 16  1  0  0  0  0
 12 11  2  0  0  0  0
 13 14  1  0  0  0  0
 14 16  2  0  0  0  0
 15 12  1  0  0  0  0
 15 13  2  0  0  0  0
 17 19  1  6  0  0  0
 17 22  1  0  0  0  0
 17 26  1  0  0  0  0
 18 23  2  0  0  0  0
 20 22  2  0  0  0  0
 21 16  1  6  0  0  0
 21 20  1  0  0  0  0
 23 21  1  0  0  0  0
 23 17  1  0  0  0  0
 25 26  2  0  0  0  0
 25 27  1  0  0  0  0
 26 28  1  0  0  0  0
 27 30  1  0  0  0  0
 28 24  1  0  0  0  0
 29 24  1  0  0  0  0
 30 29  2  0  0  0  0
 31  3  1  6  0  0  0
 31 33  1  0  0  0  0
 31 32  1  0  0  0  0
 32 34  1  1  0  0  0
 33 32  1  0  0  0  0
 34 36  1  0  0  0  0
 36 35  1  6  0  0  0
 36 38  1  0  0  0  0
 38 39  1  0  0  0  0
 39 40  1  0  0  0  0
 39 37  2  0  0  0  0
 41 42  1  0  0  0  0
 41 40  1  0  0  0  0
 43 46  1  0  0  0  0
 43  7  1  0  0  0  0
 44 46  2  0  0  0  0
 46 47  1  0  0  0  0
 47 45  1  0  0  0  0
 49 48  1  0  0  0  0
 49 50  1  0  0  0  0
 50 51  1  0  0  0  0
 51 53  1  0  0  0  0
 53 52  1  0  0  0  0
M  END
>  <MODEL>
3

>  <REMARK>
 VINA RESULT:      -6.3      1.545      1.949
  Name = 
  15 active torsions:
  status: ('A' for Active; 'I' for Inactive)
    1  A    between atoms: C_2  and  C_7
    2  A    between atoms: C_5  and  C_33
    3  A    between atoms: C_5  and  N_44
    4  A    between atoms: C_8  and  C_39
    5  A    between atoms: C_8  and  C_48
    6  A    between atoms: C_9  and  C_16
    7  A    between atoms: C_9  and  C_52
    8  A    between atoms: C_11  and  C_21
    9  A    between atoms: S_14  and  N_28
   10  A    between atoms: N_18  and  C_52
   11  A    between atoms: C_29  and  C_35
   12  A    between atoms: C_29  and  C_48
   13  A    between atoms: C_37  and  C_46
   14  A    between atoms: C_38  and  C_51
   15  A    between atoms: C_39  and  C_43
                            x       y       z     vdW  Elec       q    Type
                         _______ _______ _______ _____ _____    ______ ____

>  <TORSDO>
F 15

$$$$
=
 OpenBabel11042415073D

 53 57  0  0  1  0  0  0  0  0999 V2000
  193.7970  176.0140  137.0120 N   0  0  0  0  0  2  0  0  0  0  0  0
  192.7850  176.0500  135.9940 C   0  0  0  0  0  0  0  0  0  0  0  0
  194.3060  173.0370  140.0020 C   0  0  0  0  0  0  0  0  0  0  0  0
  195.1060  174.8920  138.7360 O   0  0  0  0  0  0  0  0  0  0  0  0
  192.9090  173.3500  139.4970 C   0  0  2  0  0  3  0  0  0  0  0  0
  195.3340  173.8360  139.6260 C   0  0  0  0  0  0  0  0  0  0  0  0
  191.7720  175.0450  135.9250 N   0  0  0  0  0  2  0  0  0  0  0  0
  192.8050  176.9810  135.1390 O   0  0  0  0  0  0  0  0  0  0  0  0
  192.8780  174.3090  138.3900 N   0  0  0  0  0  0  0  0  0  0  0  0
  193.8930  175.0490  138.0670 C   0  0  0  0  0  0  0  0  0  0  0  0
  191.5260  175.2690  142.4780 C   0  0  0  0  0  3  0  0  0  0  0  0
  192.3520  174.8950  141.4150 C   0  0  0  0  0  3  0  0  0  0  0  0
  190.8230  173.1040  140.8570 C   0  0  0  0  0  3  0  0  0  0  0  0
  189.9980  173.4740  141.9210 C   0  0  0  0  0  3  0  0  0  0  0  0
  192.0010  173.8120  140.6010 C   0  0  0  0  0  0  0  0  0  0  0  0
  190.3400  174.5700  142.7310 C   0  0  0  0  0  0  0  0  0  0  0  0
  188.7070  177.2070  144.4180 C   0  0  2  0  0  0  0  0  0  0  0  0
  187.6650  175.8690  142.7510 O   0  0  0  0  0  0  0  0  0  0  0  0
  189.0120  178.2860  143.6010 F   0  0  0  0  0  0  0  0  0  0  0  0
  190.3520  175.4840  145.0010 N   0  0  0  0  0  0  0  0  0  0  0  0
  189.5160  174.9440  143.9300 C   0  0  1  0  0  3  0  0  0  0  0  0
  189.9300  176.8700  145.2670 C   0  0  0  0  0  3  0  0  0  0  0  0
  188.5380  175.9980  143.5960 C   0  0  0  0  0  0  0  0  0  0  0  0
  186.1830  176.9820  147.4510 C   0  0  0  0  0  2  0  0  0  0  0  0
  186.6540  178.5050  144.8940 C   0  0  0  0  0  3  0  0  0  0  0  0
  187.4670  177.4780  145.2510 C   0  0  0  0  0  0  0  0  0  0  0  0
  185.4380  179.0090  145.6290 C   0  0  0  0  0  2  0  0  0  0  0  0
  187.2100  176.5390  146.4180 C   0  0  0  0  0  2  0  0  0  0  0  0
  184.8240  177.0270  146.8160 C   0  0  0  0  0  3  0  0  0  0  0  0
  184.5180  177.9430  145.9680 N   0  0  0  0  0  0  0  0  0  0  0  0
  194.4180  171.8180  140.9070 C   0  0  2  0  0  3  0  0  0  0  0  0
  194.5890  172.2410  142.3260 C   0  0  2  0  0  3  0  0  0  0  0  0
  195.6600  171.7340  141.5630 O   0  0  0  0  0  0  0  0  0  0  0  0
  194.2380  171.1810  143.3700 C   0  0  0  0  0  2  0  0  0  0  0  0
  194.4750  170.3240  145.7300 C   0  0  0  0  0  1  0  0  0  0  0  0
  194.9790  171.3230  144.6990 C   0  0  2  0  0  3  0  0  0  0  0  0
  197.1300  173.0850  145.5570 O   0  0  0  0  0  0  0  0  0  0  0  0
  194.8510  172.6920  145.1910 N   0  0  0  0  0  2  0  0  0  0  0  0
  195.9440  173.5070  145.6380 C   0  0  0  0  0  0  0  0  0  0  0  0
  195.7030  174.8270  146.1240 N   0  0  0  0  0  2  0  0  0  0  0  0
  194.0880  175.5450  146.1450 S   0  0  0  0  0  0  0  0  0  0  0  0
  194.3540  176.3630  144.5450 C   0  0  0  0  0  1  0  0  0  0  0  0
  190.8660  174.9140  134.7890 C   0  0  0  0  0  2  0  0  0  0  0  0
  188.6750  174.9490  135.7350 O   0  0  0  0  0  0  0  0  0  0  0  0
  188.2350  177.6020  135.1200 O   0  0  0  0  0  1  0  0  0  0  0  0
  189.5630  175.5800  135.1000 C   0  0  0  0  0  0  0  0  0  0  0  0
  189.3520  176.9420  134.7310 N   0  0  0  0  0  2  0  0  0  0  0  0
  196.7360  173.6440  140.1000 C   0  0  0  0  0  2  0  0  0  0  0  0
  197.6750  173.4980  138.9120 C   0  0  0  0  0  2  0  0  0  0  0  0
  197.6870  172.0630  138.4160 C   0  0  0  0  0  2  0  0  0  0  0  0
  196.7850  171.9060  137.2070 C   0  0  0  0  0  2  0  0  0  0  0  0
  194.6090  170.9630  137.1920 O   0  0  0  0  0  1  0  0  0  0  0  0
  195.9570  170.6480  137.3620 C   0  0  0  0  0  2  0  0  0  0  0  0
  1 10  1  0  0  0  0
  2  1  1  0  0  0  0
  4  6  1  0  0  0  0
  5  3  1  0  0  0  0
  5 15  1  1  0  0  0
  6  3  2  0  0  0  0
  6 48  1  0  0  0  0
  7  2  1  0  0  0  0
  8  2  2  0  0  0  0
  9  5  1  0  0  0  0
 10  9  2  0  0  0  0
 10  4  1  0  0  0  0
 11 16  1  0  0  0  0
 12 11  2  0  0  0  0
 13 14  1  0  0  0  0
 14 16  2  0  0  0  0
 15 13  2  0  0  0  0
 15 12  1  0  0  0  0
 17 19  1  6  0  0  0
 17 26  1  0  0  0  0
 17 22  1  0  0  0  0
 18 23  2  0  0  0  0
 20 22  2  0  0  0  0
 21 16  1  6  0  0  0
 21 20  1  0  0  0  0
 23 21  1  0  0  0  0
 23 17  1  0  0  0  0
 25 26  2  0  0  0  0
 25 27  1  0  0  0  0
 26 28  1  0  0  0  0
 27 30  1  0  0  0  0
 28 24  1  0  0  0  0
 29 24  1  0  0  0  0
 30 29  2  0  0  0  0
 31  3  1  6  0  0  0
 31 33  1  0  0  0  0
 31 32  1  0  0  0  0
 32 34  1  1  0  0  0
 33 32  1  0  0  0  0
 34 36  1  0  0  0  0
 36 38  1  0  0  0  0
 36 35  1  1  0  0  0
 37 39  2  0  0  0  0
 38 39  1  0  0  0  0
 39 40  1  0  0  0  0
 40 41  1  0  0  0  0
 42 41  1  0  0  0  0
 43 46  1  0  0  0  0
 43  7  1  0  0  0  0
 46 44  2  0  0  0  0
 47 46  1  0  0  0  0
 47 45  1  0  0  0  0
 49 48  1  0  0  0  0
 50 49  1  0  0  0  0
 51 53  1  0  0  0  0
 51 50  1  0  0  0  0
 52 53  1  0  0  0  0
M  END
>  <MODEL>
4

>  <REMARK>
 VINA RESULT:      -5.9      1.220      2.208
  Name = 
  15 active torsions:
  status: ('A' for Active; 'I' for Inactive)
    1  A    between atoms: C_2  and  C_7
    2  A    between atoms: C_5  and  C_33
    3  A    between atoms: C_5  and  N_44
    4  A    between atoms: C_8  and  C_39
    5  A    between atoms: C_8  and  C_48
    6  A    between atoms: C_9  and  C_16
    7  A    between atoms: C_9  and  C_52
    8  A    between atoms: C_11  and  C_21
    9  A    between atoms: S_14  and  N_28
   10  A    between atoms: N_18  and  C_52
   11  A    between atoms: C_29  and  C_35
   12  A    between atoms: C_29  and  C_48
   13  A    between atoms: C_37  and  C_46
   14  A    between atoms: C_38  and  C_51
   15  A    between atoms: C_39  and  C_43
                            x       y       z     vdW  Elec       q    Type
                         _______ _______ _______ _____ _____    ______ ____

>  <TORSDO>
F 15

$$$$
=
 OpenBabel11042415073D

 53 57  0  0  1  0  0  0  0  0999 V2000
  187.0640  176.6170  146.3080 N   0  0  0  0  0  2  0  0  0  0  0  0
  185.7730  177.1300  145.9410 C   0  0  0  0  0  0  0  0  0  0  0  0
  190.6560  176.8920  144.0540 C   0  0  0  0  0  0  0  0  0  0  0  0
  189.4880  176.4750  146.0900 O   0  0  0  0  0  0  0  0  0  0  0  0
  189.3270  176.8080  143.3250 C   0  0  2  0  0  3  0  0  0  0  0  0
  190.6830  176.6920  145.3950 C   0  0  0  0  0  0  0  0  0  0  0  0
  185.5670  177.7780  144.6850 N   0  0  0  0  0  2  0  0  0  0  0  0
  184.8110  177.0150  146.7530 O   0  0  0  0  0  0  0  0  0  0  0  0
  188.1600  176.8330  144.2100 N   0  0  0  0  0  0  0  0  0  0  0  0
  188.2400  176.6400  145.4900 C   0  0  0  0  0  0  0  0  0  0  0  0
  189.9280  173.3580  141.8340 C   0  0  0  0  0  3  0  0  0  0  0  0
  189.9530  174.4370  142.7230 C   0  0  0  0  0  3  0  0  0  0  0  0
  188.5400  175.7050  141.2210 C   0  0  0  0  0  3  0  0  0  0  0  0
  188.5160  174.6290  140.3310 C   0  0  0  0  0  3  0  0  0  0  0  0
  189.2570  175.6130  142.4180 C   0  0  0  0  0  0  0  0  0  0  0  0
  189.2020  173.4430  140.6400 C   0  0  0  0  0  0  0  0  0  0  0  0
  190.5350  172.3080  137.5740 C   0  0  2  0  0  0  0  0  0  0  0  0
  191.6260  172.0220  139.6680 O   0  0  0  0  0  0  0  0  0  0  0  0
  191.2560  173.4180  137.1600 F   0  0  0  0  0  0  0  0  0  0  0  0
  188.3050  172.4770  138.5780 N   0  0  0  0  0  0  0  0  0  0  0  0
  189.2620  172.2980  139.6690 C   0  0  1  0  0  3  0  0  0  0  0  0
  189.0520  172.5540  137.3120 C   0  0  0  0  0  3  0  0  0  0  0  0
  190.5940  172.2020  139.0410 C   0  0  0  0  0  0  0  0  0  0  0  0
  191.0690  168.4440  136.9320 C   0  0  0  0  0  2  0  0  0  0  0  0
  191.6480  171.1330  135.7010 C   0  0  0  0  0  3  0  0  0  0  0  0
  191.0480  171.0400  136.9160 C   0  0  0  0  0  0  0  0  0  0  0  0
  192.1360  170.0030  134.8310 C   0  0  0  0  0  2  0  0  0  0  0  0
  190.8770  169.7470  137.6960 C   0  0  0  0  0  2  0  0  0  0  0  0
  192.5000  168.3280  136.4970 C   0  0  0  0  0  3  0  0  0  0  0  0
  192.9700  169.0680  135.5560 N   0  0  0  0  0  0  0  0  0  0  0  0
  191.8640  177.2030  143.1810 C   0  0  2  0  0  3  0  0  0  0  0  0
  192.5430  175.9420  142.7710 C   0  0  2  0  0  3  0  0  0  0  0  0
  193.0790  176.7920  143.7600 O   0  0  0  0  0  0  0  0  0  0  0  0
  193.4460  176.0570  141.5420 C   0  0  0  0  0  2  0  0  0  0  0  0
  193.8810  174.3670  139.7220 C   0  0  0  0  0  1  0  0  0  0  0  0
  194.1740  174.7690  141.1590 C   0  0  2  0  0  3  0  0  0  0  0  0
  195.9670  172.8660  142.4370 O   0  0  0  0  0  0  0  0  0  0  0  0
  193.8080  173.7020  142.0880 N   0  0  0  0  0  2  0  0  0  0  0  0
  194.7290  172.7640  142.6610 C   0  0  0  0  0  0  0  0  0  0  0  0
  194.2590  171.7430  143.5390 N   0  0  0  0  0  2  0  0  0  0  0  0
  192.5620  171.6130  144.0140 S   0  0  0  0  0  0  0  0  0  0  0  0
  192.1780  170.5310  142.6060 C   0  0  0  0  0  1  0  0  0  0  0  0
  184.3450  178.5060  144.3630 C   0  0  0  0  0  2  0  0  0  0  0  0
  182.8620  178.5390  142.4930 O   0  0  0  0  0  0  0  0  0  0  0  0
  184.8640  178.1120  140.6430 O   0  0  0  0  0  1  0  0  0  0  0  0
  184.0420  178.3690  142.9040 C   0  0  0  0  0  0  0  0  0  0  0  0
  185.0950  178.1070  141.9780 N   0  0  0  0  0  2  0  0  0  0  0  0
  191.9390  176.7090  146.2000 C   0  0  0  0  0  2  0  0  0  0  0  0
  192.2450  175.3120  146.7200 C   0  0  0  0  0  2  0  0  0  0  0  0
  193.3790  174.6850  145.9290 C   0  0  0  0  0  2  0  0  0  0  0  0
  194.7160  175.2510  146.3670 C   0  0  0  0  0  2  0  0  0  0  0  0
  196.1800  173.4370  145.9360 O   0  0  0  0  0  1  0  0  0  0  0  0
  195.8080  174.7000  145.4760 C   0  0  0  0  0  2  0  0  0  0  0  0
  2  1  1  0  0  0  0
  2  8  2  0  0  0  0
  3  6  2  0  0  0  0
  5 15  1  1  0  0  0
  5  3  1  0  0  0  0
  5  9  1  0  0  0  0
  6  4  1  0  0  0  0
  6 48  1  0  0  0  0
  7  2  1  0  0  0  0
  9 10  2  0  0  0  0
 10  4  1  0  0  0  0
 10  1  1  0  0  0  0
 11 12  1  0  0  0  0
 13 15  1  0  0  0  0
 14 16  1  0  0  0  0
 14 13  2  0  0  0  0
 15 12  2  0  0  0  0
 16 11  2  0  0  0  0
 17 19  1  6  0  0  0
 17 23  1  0  0  0  0
 20 21  1  0  0  0  0
 21 16  1  1  0  0  0
 22 17  1  0  0  0  0
 22 20  2  0  0  0  0
 23 18  2  0  0  0  0
 23 21  1  0  0  0  0
 24 28  1  0  0  0  0
 25 26  2  0  0  0  0
 26 17  1  0  0  0  0
 26 28  1  0  0  0  0
 27 30  1  0  0  0  0
 27 25  1  0  0  0  0
 29 24  1  0  0  0  0
 30 29  2  0  0  0  0
 31 33  1  0  0  0  0
 31  3  1  1  0  0  0
 32 34  1  6  0  0  0
 32 31  1  0  0  0  0
 32 33  1  0  0  0  0
 36 35  1  6  0  0  0
 36 34  1  0  0  0  0
 36 38  1  0  0  0  0
 37 39  2  0  0  0  0
 38 39  1  0  0  0  0
 39 40  1  0  0  0  0
 40 41  1  0  0  0  0
 42 41  1  0  0  0  0
 43  7  1  0  0  0  0
 44 46  2  0  0  0  0
 45 47  1  0  0  0  0
 46 43  1  0  0  0  0
 47 46  1  0  0  0  0
 48 49  1  0  0  0  0
 50 51  1  0  0  0  0
 50 49  1  0  0  0  0
 53 52  1  0  0  0  0
 53 51  1  0  0  0  0
M  END
>  <MODEL>
5

>  <REMARK>
 VINA RESULT:      -5.9      3.367      8.476
  Name = 
  15 active torsions:
  status: ('A' for Active; 'I' for Inactive)
    1  A    between atoms: C_2  and  C_7
    2  A    between atoms: C_5  and  C_33
    3  A    between atoms: C_5  and  N_44
    4  A    between atoms: C_8  and  C_39
    5  A    between atoms: C_8  and  C_48
    6  A    between atoms: C_9  and  C_16
    7  A    between atoms: C_9  and  C_52
    8  A    between atoms: C_11  and  C_21
    9  A    between atoms: S_14  and  N_28
   10  A    between atoms: N_18  and  C_52
   11  A    between atoms: C_29  and  C_35
   12  A    between atoms: C_29  and  C_48
   13  A    between atoms: C_37  and  C_46
   14  A    between atoms: C_38  and  C_51
   15  A    between atoms: C_39  and  C_43
                            x       y       z     vdW  Elec       q    Type
                         _______ _______ _______ _____ _____    ______ ____

>  <TORSDO>
F 15

$$$$
=
 OpenBabel11042415073D

 53 57  0  0  1  0  0  0  0  0999 V2000
  194.6470  174.9290  137.3660 N   0  0  0  0  0  2  0  0  0  0  0  0
  193.8080  174.9430  136.2010 C   0  0  0  0  0  0  0  0  0  0  0  0
  193.9840  172.7710  140.9670 C   0  0  0  0  0  0  0  0  0  0  0  0
  195.3960  174.0050  139.4950 O   0  0  0  0  0  0  0  0  0  0  0  0
  192.7920  173.2650  140.1670 C   0  0  2  0  0  3  0  0  0  0  0  0
  195.2260  173.1850  140.6160 C   0  0  0  0  0  0  0  0  0  0  0  0
  192.5760  174.2190  136.1710 N   0  0  0  0  0  2  0  0  0  0  0  0
  194.1770  175.5950  135.1830 O   0  0  0  0  0  0  0  0  0  0  0  0
  193.1480  173.8930  138.8930 N   0  0  0  0  0  0  0  0  0  0  0  0
  194.3560  174.2670  138.6040 C   0  0  0  0  0  0  0  0  0  0  0  0
  189.7310  174.9840  141.6380 C   0  0  0  0  0  3  0  0  0  0  0  0
  190.5260  174.0740  140.9370 C   0  0  0  0  0  3  0  0  0  0  0  0
  192.5140  175.2230  141.7020 C   0  0  0  0  0  3  0  0  0  0  0  0
  191.7210  176.1350  142.4000 C   0  0  0  0  0  3  0  0  0  0  0  0
  191.9210  174.1910  140.9680 C   0  0  0  0  0  0  0  0  0  0  0  0
  190.3220  176.0120  142.3820 C   0  0  0  0  0  0  0  0  0  0  0  0
  187.0200  176.7730  143.3750 C   0  0  2  0  0  0  0  0  0  0  0  0
  188.5630  175.5860  144.7410 O   0  0  0  0  0  0  0  0  0  0  0  0
  186.3300  175.6670  142.9020 F   0  0  0  0  0  0  0  0  0  0  0  0
  188.7780  177.8880  142.0800 N   0  0  0  0  0  0  0  0  0  0  0  0
  189.4390  177.0220  143.0570 C   0  0  1  0  0  3  0  0  0  0  0  0
  187.3230  177.7050  142.2050 C   0  0  0  0  0  3  0  0  0  0  0  0
  188.3620  176.3630  143.8200 C   0  0  0  0  0  0  0  0  0  0  0  0
  185.3030  179.6910  145.4150 C   0  0  0  0  0  2  0  0  0  0  0  0
  185.6170  176.6940  145.4120 C   0  0  0  0  0  3  0  0  0  0  0  0
  186.2610  177.4610  144.4960 C   0  0  0  0  0  0  0  0  0  0  0  0
  184.7290  177.1630  146.5370 C   0  0  0  0  0  2  0  0  0  0  0  0
  186.3120  178.9790  144.5240 C   0  0  0  0  0  2  0  0  0  0  0  0
  185.5930  179.3690  146.8510 C   0  0  0  0  0  3  0  0  0  0  0  0
  185.3490  178.2020  147.3320 N   0  0  0  0  0  0  0  0  0  0  0  0
  193.6560  171.8300  142.1170 C   0  0  2  0  0  3  0  0  0  0  0  0
  193.8260  172.5300  143.4220 C   0  0  2  0  0  3  0  0  0  0  0  0
  194.7600  171.5830  142.9550 O   0  0  0  0  0  0  0  0  0  0  0  0
  193.0940  171.8940  144.6040 C   0  0  0  0  0  2  0  0  0  0  0  0
  190.6800  172.5150  144.2180 C   0  0  0  0  0  1  0  0  0  0  0  0
  191.8940  172.6890  145.1170 C   0  0  2  0  0  3  0  0  0  0  0  0
  190.7570  174.6330  146.9610 O   0  0  0  0  0  0  0  0  0  0  0  0
  192.2560  174.0990  145.2430 N   0  0  0  0  0  2  0  0  0  0  0  0
  191.6350  175.0270  146.1450 C   0  0  0  0  0  0  0  0  0  0  0  0
  192.0500  176.3910  146.1680 N   0  0  0  0  0  2  0  0  0  0  0  0
  193.3660  176.9950  145.1550 S   0  0  0  0  0  0  0  0  0  0  0  0
  194.5670  176.8540  146.5090 C   0  0  0  0  0  1  0  0  0  0  0  0
  191.8060  174.0220  134.9480 C   0  0  0  0  0  2  0  0  0  0  0  0
  190.8650  176.2110  134.8270 O   0  0  0  0  0  0  0  0  0  0  0  0
  188.2600  175.3070  134.7630 O   0  0  0  0  0  1  0  0  0  0  0  0
  190.6510  174.9720  134.9160 C   0  0  0  0  0  0  0  0  0  0  0  0
  189.3150  174.4720  134.9260 N   0  0  0  0  0  2  0  0  0  0  0  0
  196.4590  172.7950  141.3610 C   0  0  0  0  0  2  0  0  0  0  0  0
  197.3940  173.9890  141.4860 C   0  0  0  0  0  2  0  0  0  0  0  0
  197.8140  174.1880  142.9310 C   0  0  0  0  0  2  0  0  0  0  0  0
  196.7060  174.8550  143.7240 C   0  0  0  0  0  2  0  0  0  0  0  0
  197.0410  177.1700  143.3400 O   0  0  0  0  0  1  0  0  0  0  0  0
  196.2360  176.0880  142.9840 C   0  0  0  0  0  2  0  0  0  0  0  0
  1 10  1  0  0  0  0
  2  1  1  0  0  0  0
  4  6  1  0  0  0  0
  5  3  1  0  0  0  0
  5 15  1  1  0  0  0
  6  3  2  0  0  0  0
  6 48  1  0  0  0  0
  7  2  1  0  0  0  0
  8  2  2  0  0  0  0
  9  5  1  0  0  0  0
 10  9  2  0  0  0  0
 10  4  1  0  0  0  0
 11 16  1  0  0  0  0
 12 15  1  0  0  0  0
 12 11  2  0  0  0  0
 13 14  1  0  0  0  0
 15 13  2  0  0  0  0
 16 14  2  0  0  0  0
 17 19  1  6  0  0  0
 17 23  1  0  0  0  0
 17 26  1  0  0  0  0
 20 22  2  0  0  0  0
 20 21  1  0  0  0  0
 21 16  1  6  0  0  0
 21 23  1  0  0  0  0
 22 17  1  0  0  0  0
 23 18  2  0  0  0  0
 24 29  1  0  0  0  0
 25 27  1  0  0  0  0
 26 28  1  0  0  0  0
 26 25  2  0  0  0  0
 27 30  1  0  0  0  0
 28 24  1  0  0  0  0
 29 30  2  0  0  0  0
 31  3  1  6  0  0  0
 31 33  1  0  0  0  0
 31 32  1  0  0  0  0
 32 34  1  1  0  0  0
 33 32  1  0  0  0  0
 34 36  1  0  0  0  0
 36 35  1  6  0  0  0
 36 38  1  0  0  0  0
 38 39  1  0  0  0  0
 39 40  1  0  0  0  0
 39 37  2  0  0  0  0
 41 40  1  0  0  0  0
 41 42  1  0  0  0  0
 43  7  1  0  0  0  0
 44 46  2  0  0  0  0
 45 47  1  0  0  0  0
 46 47  1  0  0  0  0
 46 43  1  0  0  0  0
 48 49  1  0  0  0  0
 49 50  1  0  0  0  0
 50 51  1  0  0  0  0
 53 52  1  0  0  0  0
 53 51  1  0  0  0  0
M  END
>  <MODEL>
6

>  <REMARK>
 VINA RESULT:      -5.8      1.821      2.382
  Name = 
  15 active torsions:
  status: ('A' for Active; 'I' for Inactive)
    1  A    between atoms: C_2  and  C_7
    2  A    between atoms: C_5  and  C_33
    3  A    between atoms: C_5  and  N_44
    4  A    between atoms: C_8  and  C_39
    5  A    between atoms: C_8  and  C_48
    6  A    between atoms: C_9  and  C_16
    7  A    between atoms: C_9  and  C_52
    8  A    between atoms: C_11  and  C_21
    9  A    between atoms: S_14  and  N_28
   10  A    between atoms: N_18  and  C_52
   11  A    between atoms: C_29  and  C_35
   12  A    between atoms: C_29  and  C_48
   13  A    between atoms: C_37  and  C_46
   14  A    between atoms: C_38  and  C_51
   15  A    between atoms: C_39  and  C_43
                            x       y       z     vdW  Elec       q    Type
                         _______ _______ _______ _____ _____    ______ ____

>  <TORSDO>
F 15

$$$$
=
 OpenBabel11042415073D

 53 57  0  0  1  0  0  0  0  0999 V2000
  194.2710  168.9800  142.3060 N   0  0  0  0  0  2  0  0  0  0  0  0
  195.4460  169.1680  143.1100 C   0  0  0  0  0  0  0  0  0  0  0  0
  192.2030  171.9450  140.0720 C   0  0  0  0  0  0  0  0  0  0  0  0
  192.6740  169.6680  140.5960 O   0  0  0  0  0  0  0  0  0  0  0  0
  192.9120  172.3420  141.3550 C   0  0  2  0  0  3  0  0  0  0  0  0
  192.0890  170.6290  139.7660 C   0  0  0  0  0  0  0  0  0  0  0  0
  196.0280  170.4630  143.2720 N   0  0  0  0  0  2  0  0  0  0  0  0
  195.9770  168.1660  143.6690 O   0  0  0  0  0  0  0  0  0  0  0  0
  193.6810  171.2580  141.9690 N   0  0  0  0  0  0  0  0  0  0  0  0
  193.5370  170.0130  141.6360 C   0  0  0  0  0  0  0  0  0  0  0  0
  189.9860  172.7790  143.7490 C   0  0  0  0  0  3  0  0  0  0  0  0
  190.8920  172.1900  142.8640 C   0  0  0  0  0  3  0  0  0  0  0  0
  192.1270  174.2680  142.7460 C   0  0  0  0  0  3  0  0  0  0  0  0
  191.2200  174.8600  143.6280 C   0  0  0  0  0  3  0  0  0  0  0  0
  191.9660  172.9340  142.3610 C   0  0  0  0  0  0  0  0  0  0  0  0
  190.1500  174.1110  144.1450 C   0  0  0  0  0  0  0  0  0  0  0  0
  188.6930  177.1490  145.2030 C   0  0  2  0  0  0  0  0  0  0  0  0
  187.9170  175.8990  143.3340 O   0  0  0  0  0  0  0  0  0  0  0  0
  189.4380  178.0750  144.4880 F   0  0  0  0  0  0  0  0  0  0  0  0
  189.7000  175.1970  146.2920 N   0  0  0  0  0  0  0  0  0  0  0  0
  189.1140  174.7390  145.0330 C   0  0  1  0  0  3  0  0  0  0  0  0
  189.5200  176.6560  146.3860 C   0  0  0  0  0  3  0  0  0  0  0  0
  188.5170  175.9300  144.3970 C   0  0  0  0  0  0  0  0  0  0  0  0
  185.6580  178.0960  147.5520 C   0  0  0  0  0  2  0  0  0  0  0  0
  186.7040  178.5550  144.7640 C   0  0  0  0  0  3  0  0  0  0  0  0
  187.3510  177.7240  145.6200 C   0  0  0  0  0  0  0  0  0  0  0  0
  185.4220  179.3100  145.0120 C   0  0  0  0  0  2  0  0  0  0  0  0
  186.8120  177.2890  146.9730 C   0  0  0  0  0  2  0  0  0  0  0  0
  184.4430  177.9180  146.6900 C   0  0  0  0  0  3  0  0  0  0  0  0
  184.3710  178.4580  145.5250 N   0  0  0  0  0  0  0  0  0  0  0  0
  191.6760  173.0990  139.2310 C   0  0  2  0  0  3  0  0  0  0  0  0
  192.5840  173.3540  138.0770 C   0  0  2  0  0  3  0  0  0  0  0  0
  192.5500  174.2020  139.2030 O   0  0  0  0  0  0  0  0  0  0  0  0
  191.9610  174.1260  136.9140 C   0  0  0  0  0  2  0  0  0  0  0  0
  192.2620  172.8240  134.7760 C   0  0  0  0  0  1  0  0  0  0  0  0
  192.7220  174.0200  135.5930 C   0  0  2  0  0  3  0  0  0  0  0  0
  194.4900  176.2410  136.2380 O   0  0  0  0  0  0  0  0  0  0  0  0
  194.1580  173.9540  135.8570 N   0  0  0  0  0  2  0  0  0  0  0  0
  194.9930  175.0880  136.1330 C   0  0  0  0  0  0  0  0  0  0  0  0
  196.3910  174.9130  136.3520 N   0  0  0  0  0  2  0  0  0  0  0  0
  197.1530  173.3180  136.3590 S   0  0  0  0  0  0  0  0  0  0  0  0
  197.2660  173.2870  134.5470 C   0  0  0  0  0  1  0  0  0  0  0  0
  197.3340  170.6690  143.8890 C   0  0  0  0  0  2  0  0  0  0  0  0
  197.5750  173.0430  143.8390 O   0  0  0  0  0  0  0  0  0  0  0  0
  197.0510  173.3540  146.5290 O   0  0  0  0  0  1  0  0  0  0  0  0
  197.3810  172.0140  144.5420 C   0  0  0  0  0  0  0  0  0  0  0  0
  197.1460  172.1350  145.9440 N   0  0  0  0  0  2  0  0  0  0  0  0
  191.3730  170.1300  138.5540 C   0  0  0  0  0  2  0  0  0  0  0  0
  192.1890  169.0390  137.8790 C   0  0  0  0  0  2  0  0  0  0  0  0
  191.5290  168.6070  136.5810 C   0  0  0  0  0  2  0  0  0  0  0  0
  192.5670  168.4010  135.4940 C   0  0  0  0  0  2  0  0  0  0  0  0
  194.9000  168.3150  135.9090 O   0  0  0  0  0  1  0  0  0  0  0  0
  193.8130  169.1870  135.8400 C   0  0  0  0  0  2  0  0  0  0  0  0
  1  2  1  0  0  0  0
  2  7  1  0  0  0  0
  2  8  2  0  0  0  0
  3  5  1  0  0  0  0
  4 10  1  0  0  0  0
  5  9  1  0  0  0  0
  5 15  1  1  0  0  0
  6  3  2  0  0  0  0
  6  4  1  0  0  0  0
  7 43  1  0  0  0  0
 10  9  2  0  0  0  0
 10  1  1  0  0  0  0
 11 16  1  0  0  0  0
 12 11  2  0  0  0  0
 13 14  1  0  0  0  0
 14 16  2  0  0  0  0
 15 13  2  0  0  0  0
 15 12  1  0  0  0  0
 17 19  1  6  0  0  0
 17 26  1  0  0  0  0
 17 22  1  0  0  0  0
 18 23  2  0  0  0  0
 20 22  2  0  0  0  0
 21 16  1  6  0  0  0
 21 20  1  0  0  0  0
 23 21  1  0  0  0  0
 23 17  1  0  0  0  0
 25 27  1  0  0  0  0
 25 26  2  0  0  0  0
 26 28  1  0  0  0  0
 27 30  1  0  0  0  0
 28 24  1  0  0  0  0
 29 24  1  0  0  0  0
 30 29  2  0  0  0  0
 31  3  1  1  0  0  0
 32 34  1  6  0  0  0
 32 33  1  0  0  0  0
 32 31  1  0  0  0  0
 33 31  1  0  0  0  0
 36 35  1  1  0  0  0
 36 38  1  0  0  0  0
 36 34  1  0  0  0  0
 38 39  1  0  0  0  0
 39 37  2  0  0  0  0
 39 40  1  0  0  0  0
 40 41  1  0  0  0  0
 42 41  1  0  0  0  0
 43 46  1  0  0  0  0
 44 46  2  0  0  0  0
 46 47  1  0  0  0  0
 47 45  1  0  0  0  0
 48  6  1  0  0  0  0
 49 48  1  0  0  0  0
 50 49  1  0  0  0  0
 51 53  1  0  0  0  0
 51 50  1  0  0  0  0
 53 52  1  0  0  0  0
M  END
>  <MODEL>
7

>  <REMARK>
 VINA RESULT:      -5.4      3.110      7.394
  Name = 
  15 active torsions:
  status: ('A' for Active; 'I' for Inactive)
    1  A    between atoms: C_2  and  C_7
    2  A    between atoms: C_5  and  C_33
    3  A    between atoms: C_5  and  N_44
    4  A    between atoms: C_8  and  C_39
    5  A    between atoms: C_8  and  C_48
    6  A    between atoms: C_9  and  C_16
    7  A    between atoms: C_9  and  C_52
    8  A    between atoms: C_11  and  C_21
    9  A    between atoms: S_14  and  N_28
   10  A    between atoms: N_18  and  C_52
   11  A    between atoms: C_29  and  C_35
   12  A    between atoms: C_29  and  C_48
   13  A    between atoms: C_37  and  C_46
   14  A    between atoms: C_38  and  C_51
   15  A    between atoms: C_39  and  C_43
                            x       y       z     vdW  Elec       q    Type
                         _______ _______ _______ _____ _____    ______ ____

>  <TORSDO>
F 15

$$$$
=
 OpenBabel11042415073D

 53 57  0  0  1  0  0  0  0  0999 V2000
  195.0530  169.4320  141.3410 N   0  0  0  0  0  2  0  0  0  0  0  0
  196.0510  169.3150  142.3670 C   0  0  0  0  0  0  0  0  0  0  0  0
  193.4940  173.0260  139.6930 C   0  0  0  0  0  0  0  0  0  0  0  0
  193.8280  170.6660  139.6320 O   0  0  0  0  0  0  0  0  0  0  0  0
  193.9440  173.0080  141.1430 C   0  0  2  0  0  3  0  0  0  0  0  0
  193.4260  171.8550  139.0130 C   0  0  0  0  0  0  0  0  0  0  0  0
  196.6060  170.4750  142.9920 N   0  0  0  0  0  2  0  0  0  0  0  0
  196.4520  168.1660  142.7090 O   0  0  0  0  0  0  0  0  0  0  0  0
  194.5660  171.7490  141.5570 N   0  0  0  0  0  0  0  0  0  0  0  0
  194.4760  170.6550  140.8670 C   0  0  0  0  0  0  0  0  0  0  0  0
  190.6520  172.9100  143.0510 C   0  0  0  0  0  3  0  0  0  0  0  0
  191.7100  172.5310  142.2190 C   0  0  0  0  0  3  0  0  0  0  0  0
  192.8800  174.5740  142.7800 C   0  0  0  0  0  3  0  0  0  0  0  0
  191.8230  174.9560  143.6080 C   0  0  0  0  0  3  0  0  0  0  0  0
  192.8280  173.3630  142.0830 C   0  0  0  0  0  0  0  0  0  0  0  0
  190.7070  174.1160  143.7570 C   0  0  0  0  0  0  0  0  0  0  0  0
  188.8390  176.8560  144.9730 C   0  0  2  0  0  0  0  0  0  0  0  0
  188.4080  175.7920  142.8900 O   0  0  0  0  0  0  0  0  0  0  0  0
  189.5620  177.9260  144.4680 F   0  0  0  0  0  0  0  0  0  0  0  0
  189.9120  174.8760  145.9440 N   0  0  0  0  0  0  0  0  0  0  0  0
  189.5190  174.5330  144.5780 C   0  0  1  0  0  3  0  0  0  0  0  0
  189.5750  176.2900  146.1840 C   0  0  0  0  0  3  0  0  0  0  0  0
  188.8800  175.7380  144.0150 C   0  0  0  0  0  0  0  0  0  0  0  0
  185.2400  178.3980  144.4330 C   0  0  0  0  0  2  0  0  0  0  0  0
  186.8140  176.7330  146.3900 C   0  0  0  0  0  3  0  0  0  0  0  0
  187.4080  177.2530  145.2850 C   0  0  0  0  0  0  0  0  0  0  0  0
  185.3830  176.9110  146.8310 C   0  0  0  0  0  2  0  0  0  0  0  0
  186.7520  178.2460  144.3400 C   0  0  0  0  0  2  0  0  0  0  0  0
  184.8790  178.9900  145.7630 C   0  0  0  0  0  3  0  0  0  0  0  0
  184.9790  178.3010  146.8440 N   0  0  0  0  0  0  0  0  0  0  0  0
  193.1540  174.3980  139.1290 C   0  0  2  0  0  3  0  0  0  0  0  0
  194.1350  174.7810  138.0750 C   0  0  2  0  0  3  0  0  0  0  0  0
  194.1610  175.3520  139.3630 O   0  0  0  0  0  0  0  0  0  0  0  0
  193.6660  175.8690  137.1100 C   0  0  0  0  0  2  0  0  0  0  0  0
  192.5170  176.4780  134.9480 C   0  0  0  0  0  1  0  0  0  0  0  0
  192.8180  175.3660  135.9410 C   0  0  2  0  0  3  0  0  0  0  0  0
  191.0870  173.4790  134.5570 O   0  0  0  0  0  0  0  0  0  0  0  0
  191.5860  174.7680  136.4480 N   0  0  0  0  0  2  0  0  0  0  0  0
  190.7460  173.8700  135.7080 C   0  0  0  0  0  0  0  0  0  0  0  0
  189.5480  173.3630  136.2920 N   0  0  0  0  0  2  0  0  0  0  0  0
  189.0670  173.7520  137.9480 S   0  0  0  0  0  0  0  0  0  0  0  0
  187.8320  174.9560  137.3810 C   0  0  0  0  0  1  0  0  0  0  0  0
  197.7690  170.4180  143.8700 C   0  0  0  0  0  2  0  0  0  0  0  0
  197.0890  171.6150  145.8200 O   0  0  0  0  0  0  0  0  0  0  0  0
  196.6060  169.3350  147.2950 O   0  0  0  0  0  1  0  0  0  0  0  0
  197.3310  170.4930  145.2990 C   0  0  0  0  0  0  0  0  0  0  0  0
  197.1300  169.2940  146.0470 N   0  0  0  0  0  2  0  0  0  0  0  0
  192.9550  171.7550  137.6000 C   0  0  0  0  0  2  0  0  0  0  0  0
  193.9750  171.0020  136.7600 C   0  0  0  0  0  2  0  0  0  0  0  0
  193.3190  169.8350  136.0430 C   0  0  0  0  0  2  0  0  0  0  0  0
  192.0040  169.4700  136.7050 C   0  0  0  0  0  2  0  0  0  0  0  0
  191.2540  170.0020  134.5200 O   0  0  0  0  0  1  0  0  0  0  0  0
  190.8600  169.9830  135.8580 C   0  0  0  0  0  2  0  0  0  0  0  0
  1  2  1  0  0  0  0
  2  8  2  0  0  0  0
  2  7  1  0  0  0  0
  3  5  1  0  0  0  0
  4 10  1  0  0  0  0
  5  9  1  0  0  0  0
  5 15  1  1  0  0  0
  6  4  1  0  0  0  0
  6  3  2  0  0  0  0
  7 43  1  0  0  0  0
 10  1  1  0  0  0  0
 10  9  2  0  0  0  0
 11 16  1  0  0  0  0
 12 11  2  0  0  0  0
 13 14  1  0  0  0  0
 14 16  2  0  0  0  0
 15 12  1  0  0  0  0
 15 13  2  0  0  0  0
 17 19  1  6  0  0  0
 17 26  1  0  0  0  0
 17 22  1  0  0  0  0
 18 23  2  0  0  0  0
 20 22  2  0  0  0  0
 21 16  1  6  0  0  0
 21 20  1  0  0  0  0
 23 21  1  0  0  0  0
 23 17  1  0  0  0  0
 24 29  1  0  0  0  0
 25 27  1  0  0  0  0
 26 25  2  0  0  0  0
 27 30  1  0  0  0  0
 28 24  1  0  0  0  0
 28 26  1  0  0  0  0
 29 30  2  0  0  0  0
 31 33  1  0  0  0  0
 31  3  1  1  0  0  0
 32 34  1  6  0  0  0
 32 31  1  0  0  0  0
 32 33  1  0  0  0  0
 36 35  1  6  0  0  0
 36 38  1  0  0  0  0
 36 34  1  0  0  0  0
 37 39  2  0  0  0  0
 39 40  1  0  0  0  0
 39 38  1  0  0  0  0
 40 41  1  0  0  0  0
 42 41  1  0  0  0  0
 43 46  1  0  0  0  0
 46 44  2  0  0  0  0
 46 47  1  0  0  0  0
 47 45  1  0  0  0  0
 48  6  1  0  0  0  0
 49 48  1  0  0  0  0
 50 51  1  0  0  0  0
 50 49  1  0  0  0  0
 52 53  1  0  0  0  0
 53 51  1  0  0  0  0
M  END
>  <MODEL>
8

>  <REMARK>
 VINA RESULT:      -5.3      2.729      7.482
  Name = 
  15 active torsions:
  status: ('A' for Active; 'I' for Inactive)
    1  A    between atoms: C_2  and  C_7
    2  A    between atoms: C_5  and  C_33
    3  A    between atoms: C_5  and  N_44
    4  A    between atoms: C_8  and  C_39
    5  A    between atoms: C_8  and  C_48
    6  A    between atoms: C_9  and  C_16
    7  A    between atoms: C_9  and  C_52
    8  A    between atoms: C_11  and  C_21
    9  A    between atoms: S_14  and  N_28
   10  A    between atoms: N_18  and  C_52
   11  A    between atoms: C_29  and  C_35
   12  A    between atoms: C_29  and  C_48
   13  A    between atoms: C_37  and  C_46
   14  A    between atoms: C_38  and  C_51
   15  A    between atoms: C_39  and  C_43
                            x       y       z     vdW  Elec       q    Type
                         _______ _______ _______ _____ _____    ______ ____

>  <TORSDO>
F 15

$$$$
=
 OpenBabel11042415073D

 53 57  0  0  1  0  0  0  0  0999 V2000
  194.7420  174.9910  137.8380 N   0  0  0  0  0  2  0  0  0  0  0  0
  193.9050  174.9090  136.6750 C   0  0  0  0  0  0  0  0  0  0  0  0
  194.1450  173.0240  141.5580 C   0  0  0  0  0  0  0  0  0  0  0  0
  195.5180  174.2160  140.0160 O   0  0  0  0  0  0  0  0  0  0  0  0
  192.9380  173.4310  140.7310 C   0  0  2  0  0  3  0  0  0  0  0  0
  195.3730  173.4580  141.1830 C   0  0  0  0  0  0  0  0  0  0  0  0
  192.6970  174.1450  136.6870 N   0  0  0  0  0  2  0  0  0  0  0  0
  194.2530  175.5140  135.6210 O   0  0  0  0  0  0  0  0  0  0  0  0
  193.2760  173.9950  139.4230 N   0  0  0  0  0  0  0  0  0  0  0  0
  194.4710  174.3920  139.1120 C   0  0  0  0  0  0  0  0  0  0  0  0
  189.8200  175.1270  142.1060 C   0  0  0  0  0  3  0  0  0  0  0  0
  190.6470  174.2040  141.4590 C   0  0  0  0  0  3  0  0  0  0  0  0
  192.5930  175.4670  142.1460 C   0  0  0  0  0  3  0  0  0  0  0  0
  191.7690  176.3920  142.7900 C   0  0  0  0  0  3  0  0  0  0  0  0
  192.0360  174.3720  141.4780 C   0  0  0  0  0  0  0  0  0  0  0  0
  190.3760  176.2180  142.7840 C   0  0  0  0  0  0  0  0  0  0  0  0
  187.0290  176.9770  143.6160 C   0  0  2  0  0  0  0  0  0  0  0  0
  188.5170  175.8260  145.0720 O   0  0  0  0  0  0  0  0  0  0  0  0
  186.3660  175.8580  143.1350 F   0  0  0  0  0  0  0  0  0  0  0  0
  188.8360  178.0780  142.3780 N   0  0  0  0  0  0  0  0  0  0  0  0
  189.4580  177.2360  143.4000 C   0  0  1  0  0  3  0  0  0  0  0  0
  187.3770  177.8880  142.4420 C   0  0  0  0  0  3  0  0  0  0  0  0
  188.3520  176.5840  144.1280 C   0  0  0  0  0  0  0  0  0  0  0  0
  186.2130  178.7450  147.0560 C   0  0  0  0  0  2  0  0  0  0  0  0
  184.9880  178.1580  144.3670 C   0  0  0  0  0  3  0  0  0  0  0  0
  186.2170  177.6820  144.6890 C   0  0  0  0  0  0  0  0  0  0  0  0
  184.0620  178.9690  145.2380 C   0  0  0  0  0  2  0  0  0  0  0  0
  186.8420  177.7690  146.0710 C   0  0  0  0  0  2  0  0  0  0  0  0
  184.8270  178.2860  147.3980 C   0  0  0  0  0  3  0  0  0  0  0  0
  183.8700  178.3730  146.5430 N   0  0  0  0  0  0  0  0  0  0  0  0
  193.8470  172.1400  142.7610 C   0  0  2  0  0  3  0  0  0  0  0  0
  192.7950  171.1410  142.4210 C   0  0  2  0  0  3  0  0  0  0  0  0
  192.5230  172.2680  143.2210 O   0  0  0  0  0  0  0  0  0  0  0  0
  192.7380  169.9160  143.3340 C   0  0  0  0  0  2  0  0  0  0  0  0
  194.6290  168.3380  142.7890 C   0  0  0  0  0  1  0  0  0  0  0  0
  193.1360  168.6000  142.6660 C   0  0  2  0  0  3  0  0  0  0  0  0
  190.4440  168.2000  141.6350 O   0  0  0  0  0  0  0  0  0  0  0  0
  192.7190  168.6130  141.2660 N   0  0  0  0  0  2  0  0  0  0  0  0
  191.3810  168.3720  140.8070 C   0  0  0  0  0  0  0  0  0  0  0  0
  191.0880  168.3830  139.4110 N   0  0  0  0  0  2  0  0  0  0  0  0
  192.3150  168.7500  138.1930 S   0  0  0  0  0  0  0  0  0  0  0  0
  191.8630  170.5080  138.1650 C   0  0  0  0  0  1  0  0  0  0  0  0
  191.9360  173.8510  135.4780 C   0  0  0  0  0  2  0  0  0  0  0  0
  189.6360  173.6900  134.8610 O   0  0  0  0  0  0  0  0  0  0  0  0
  188.7280  173.7100  137.4660 O   0  0  0  0  0  1  0  0  0  0  0  0
  190.4740  173.8190  135.7940 C   0  0  0  0  0  0  0  0  0  0  0  0
  190.0360  173.8730  137.1510 N   0  0  0  0  0  2  0  0  0  0  0  0
  196.6170  173.1530  141.9490 C   0  0  0  0  0  2  0  0  0  0  0  0
  197.4190  174.4260  142.1730 C   0  0  0  0  0  2  0  0  0  0  0  0
  197.4050  174.8130  143.6420 C   0  0  0  0  0  2  0  0  0  0  0  0
  196.4140  175.9340  143.8910 C   0  0  0  0  0  2  0  0  0  0  0  0
  194.4380  176.4440  145.0980 O   0  0  0  0  0  1  0  0  0  0  0  0
  195.5100  175.5540  145.0440 C   0  0  0  0  0  2  0  0  0  0  0  0
  1 10  1  0  0  0  0
  2  7  1  0  0  0  0
  2  1  1  0  0  0  0
  4  6  1  0  0  0  0
  5 15  1  1  0  0  0
  5  3  1  0  0  0  0
  6  3  2  0  0  0  0
  6 48  1  0  0  0  0
  8  2  2  0  0  0  0
  9  5  1  0  0  0  0
 10  9  2  0  0  0  0
 10  4  1  0  0  0  0
 11 16  1  0  0  0  0
 12 15  1  0  0  0  0
 12 11  2  0  0  0  0
 13 14  1  0  0  0  0
 15 13  2  0  0  0  0
 16 14  2  0  0  0  0
 17 19  1  6  0  0  0
 17 23  1  0  0  0  0
 17 26  1  0  0  0  0
 20 22  2  0  0  0  0
 20 21  1  0  0  0  0
 21 16  1  6  0  0  0
 21 23  1  0  0  0  0
 22 17  1  0  0  0  0
 23 18  2  0  0  0  0
 24 29  1  0  0  0  0
 25 26  2  0  0  0  0
 25 27  1  0  0  0  0
 26 28  1  0  0  0  0
 27 30  1  0  0  0  0
 28 24  1  0  0  0  0
 30 29  2  0  0  0  0
 31  3  1  6  0  0  0
 31 33  1  0  0  0  0
 32 31  1  0  0  0  0
 32 33  1  0  0  0  0
 32 34  1  1  0  0  0
 36 35  1  6  0  0  0
 36 34  1  0  0  0  0
 38 36  1  0  0  0  0
 39 38  1  0  0  0  0
 39 37  2  0  0  0  0
 40 39  1  0  0  0  0
 41 40  1  0  0  0  0
 42 41  1  0  0  0  0
 43 46  1  0  0  0  0
 43  7  1  0  0  0  0
 44 46  2  0  0  0  0
 46 47  1  0  0  0  0
 47 45  1  0  0  0  0
 48 49  1  0  0  0  0
 49 50  1  0  0  0  0
 50 51  1  0  0  0  0
 51 53  1  0  0  0  0
 53 52  1  0  0  0  0
M  END
>  <MODEL>
9

>  <REMARK>
 VINA RESULT:      -5.2      2.786      3.783
  Name = 
  15 active torsions:
  status: ('A' for Active; 'I' for Inactive)
    1  A    between atoms: C_2  and  C_7
    2  A    between atoms: C_5  and  C_33
    3  A    between atoms: C_5  and  N_44
    4  A    between atoms: C_8  and  C_39
    5  A    between atoms: C_8  and  C_48
    6  A    between atoms: C_9  and  C_16
    7  A    between atoms: C_9  and  C_52
    8  A    between atoms: C_11  and  C_21
    9  A    between atoms: S_14  and  N_28
   10  A    between atoms: N_18  and  C_52
   11  A    between atoms: C_29  and  C_35
   12  A    between atoms: C_29  and  C_48
   13  A    between atoms: C_37  and  C_46
   14  A    between atoms: C_38  and  C_51
   15  A    between atoms: C_39  and  C_43
                            x       y       z     vdW  Elec       q    Type
                         _______ _______ _______ _____ _____    ______ ____

>  <TORSDO>
F 15

$$$$
