=
 OpenBabel11042413573D

 30 34  0  0  1  0  0  0  0  0999 V2000
  189.0740  176.4900  145.3500 C   0  0  1  0  0  3  0  0  0  0  0  0
  186.2510  177.2210  145.5420 O   0  0  0  0  0  0  0  0  0  0  0  0
  188.1890  176.8790  144.1790 C   0  0  0  0  0  2  0  0  0  0  0  0
  186.8440  176.6740  146.7210 C   0  0  2  0  0  3  0  0  0  0  0  0
  187.1650  177.8660  144.6850 C   0  0  1  0  0  3  0  0  0  0  0  0
  187.9130  177.4500  147.2110 O   0  0  0  0  0  0  0  0  0  0  0  0
  188.2720  176.2080  146.6360 C   0  0  2  0  0  3  0  0  0  0  0  0
  186.4520  178.5710  143.5270 C   0  0  2  0  0  3  0  0  0  0  0  0
  185.3630  179.8420  144.2450 S   0  0  0  0  0  1  0  0  0  0  0  0
  185.6520  177.6420  142.5870 C   0  0  2  0  0  3  0  0  0  0  0  0
  186.0370  177.7760  141.1540 C   0  0  0  0  0  0  0  0  0  0  0  0
  187.1220  177.4330  140.7170 O   0  0  0  0  0  0  0  0  0  0  0  0
  183.7130  178.1860  141.1480 C   0  0  0  0  0  2  0  0  0  0  0  0
  184.9470  178.2370  140.2690 C   0  0  0  0  0  2  0  0  0  0  0  0
  184.1810  178.0490  142.5940 C   0  0  0  0  0  2  0  0  0  0  0  0
  189.9690  175.2980  144.9870 C   0  0  2  0  0  3  0  0  0  0  0  0
  191.9200  176.1300  146.5220 C   0  0  0  0  0  3  0  0  0  0  0  0
  194.4410  176.2670  145.9330 C   0  0  0  0  0  3  0  0  0  0  0  0
  194.5920  175.8290  144.6520 C   0  0  0  0  0  0  0  0  0  0  0  0
  192.3140  175.4030  144.3430 C   0  0  0  0  0  0  0  0  0  0  0  0
  193.2150  176.4080  146.7960 C   0  0  0  0  0  3  0  0  0  0  0  0
  191.4160  175.5980  145.2410 C   0  0  0  0  0  0  0  0  0  0  0  0
  193.4750  175.3690  143.7960 C   0  0  0  0  0  3  0  0  0  0  0  0
  196.8340  174.8080  144.2390 N   0  0  0  0  0  0  0  0  0  0  0  0
  196.4670  176.7950  143.3210 N   0  0  0  0  0  2  0  0  0  0  0  0
  197.6870  176.3800  143.0200 N   0  0  0  0  0  0  0  0  0  0  0  0
  197.9050  175.1950  143.5670 N   0  0  0  0  0  0  0  0  0  0  0  0
  195.9480  175.8090  144.0790 C   0  0  0  0  0  0  0  0  0  0  0  0
  189.7900  174.9320  143.5880 N   0  0  0  0  0  2  0  0  0  0  0  0
  189.5390  173.5020  143.5490 C   0  0  0  0  0  1  0  0  0  0  0  0
  1 16  1  6  0  0  0
  1  7  1  0  0  0  0
  3  5  1  0  0  0  0
  3  1  1  0  0  0  0
  4  2  1  6  0  0  0
  4  6  1  0  0  0  0
  5  8  1  6  0  0  0
  5  2  1  0  0  0  0
  7  4  1  0  0  0  0
  7  6  1  1  0  0  0
  8  9  1  1  0  0  0
 10 15  1  0  0  0  0
 10  8  1  1  0  0  0
 11 10  1  0  0  0  0
 12 11  2  0  0  0  0
 13 15  1  0  0  0  0
 14 13  1  0  0  0  0
 14 11  1  0  0  0  0
 16 29  1  6  0  0  0
 16 22  1  0  0  0  0
 17 21  2  0  0  0  0
 18 21  1  0  0  0  0
 19 18  2  0  0  0  0
 20 22  2  0  0  0  0
 22 17  1  0  0  0  0
 23 20  2  0  0  0  0
 23 19  1  0  0  0  0
 25 28  1  0  0  0  0
 26 25  1  0  0  0  0
 26 27  2  0  0  0  0
 27 24  1  0  0  0  0
 28 24  2  0  0  0  0
 28 19  1  0  0  0  0
 30 29  1  0  0  0  0
M  END
>  <MODEL>
1

>  <REMARK>
 VINA RESULT:      -7.8      0.000      0.000
  Name = 
  6 active torsions:
  status: ('A' for Active; 'I' for Inactive)
    1  A    between atoms: C_2  and  C_24
    2  A    between atoms: C_3  and  C_15
    3  A    between atoms: C_7  and  C_30
    4  A    between atoms: N_8  and  C_15
    5  A    between atoms: C_15  and  C_16
    6  A    between atoms: C_22  and  C_24
                            x       y       z     vdW  Elec       q    Type
                         _______ _______ _______ _____ _____    ______ ____

>  <TORSDO>
F 6

$$$$
=
 OpenBabel11042413573D

 30 34  0  0  1  0  0  0  0  0999 V2000
  190.5910  176.3040  144.9790 C   0  0  1  0  0  3  0  0  0  0  0  0
  188.7390  177.7690  143.2570 O   0  0  0  0  0  0  0  0  0  0  0  0
  189.1780  176.7130  145.3600 C   0  0  0  0  0  2  0  0  0  0  0  0
  190.0890  177.6760  142.7990 C   0  0  2  0  0  3  0  0  0  0  0  0
  188.3440  176.7110  144.1020 C   0  0  1  0  0  3  0  0  0  0  0  0
  190.5100  176.3490  142.5860 O   0  0  0  0  0  0  0  0  0  0  0  0
  191.0900  177.0030  143.6990 C   0  0  2  0  0  3  0  0  0  0  0  0
  186.8490  176.7760  144.4250 C   0  0  2  0  0  3  0  0  0  0  0  0
  185.9500  176.9090  142.8460 S   0  0  0  0  0  1  0  0  0  0  0  0
  186.4330  177.9160  145.3810 C   0  0  2  0  0  3  0  0  0  0  0  0
  185.6810  177.4410  146.5770 C   0  0  0  0  0  0  0  0  0  0  0  0
  186.1820  176.7630  147.4580 O   0  0  0  0  0  0  0  0  0  0  0  0
  184.2350  179.0310  145.6040 C   0  0  0  0  0  2  0  0  0  0  0  0
  184.3050  177.9690  146.6830 C   0  0  0  0  0  2  0  0  0  0  0  0
  185.4340  178.8340  144.6820 C   0  0  0  0  0  2  0  0  0  0  0  0
  191.5600  176.5330  146.1450 C   0  0  2  0  0  3  0  0  0  0  0  0
  194.1330  176.6630  145.6840 C   0  0  0  0  0  3  0  0  0  0  0  0
  195.7770  174.6860  145.3540 C   0  0  0  0  0  3  0  0  0  0  0  0
  195.0630  173.5310  145.4560 C   0  0  0  0  0  0  0  0  0  0  0  0
  193.0280  174.6180  145.8370 C   0  0  0  0  0  0  0  0  0  0  0  0
  195.3550  176.1270  145.4570 C   0  0  0  0  0  3  0  0  0  0  0  0
  192.8910  175.8940  145.8900 C   0  0  0  0  0  0  0  0  0  0  0  0
  193.6050  173.4780  145.7100 C   0  0  0  0  0  3  0  0  0  0  0  0
  195.5680  171.3680  144.3120 N   0  0  0  0  0  0  0  0  0  0  0  0
  196.7370  171.8150  146.1440 N   0  0  0  0  0  2  0  0  0  0  0  0
  197.1080  170.6450  145.6490 N   0  0  0  0  0  0  0  0  0  0  0  0
  196.4110  170.3800  144.5560 N   0  0  0  0  0  0  0  0  0  0  0  0
  195.7800  172.2530  145.3040 C   0  0  0  0  0  0  0  0  0  0  0  0
  191.0010  176.0090  147.3850 N   0  0  0  0  0  2  0  0  0  0  0  0
  191.3350  176.9530  148.4370 C   0  0  0  0  0  1  0  0  0  0  0  0
  1  3  1  0  0  0  0
  1 16  1  1  0  0  0
  2  5  1  0  0  0  0
  4  6  1  6  0  0  0
  4  2  1  0  0  0  0
  4  7  1  0  0  0  0
  5  8  1  1  0  0  0
  5  3  1  0  0  0  0
  7  6  1  6  0  0  0
  7  1  1  0  0  0  0
  8  9  1  6  0  0  0
 10  8  1  6  0  0  0
 10 11  1  0  0  0  0
 11 14  1  0  0  0  0
 11 12  2  0  0  0  0
 13 14  1  0  0  0  0
 15 10  1  0  0  0  0
 15 13  1  0  0  0  0
 16 29  1  1  0  0  0
 17 22  1  0  0  0  0
 18 19  2  0  0  0  0
 18 21  1  0  0  0  0
 19 23  1  0  0  0  0
 20 22  2  0  0  0  0
 21 17  2  0  0  0  0
 22 16  1  0  0  0  0
 23 20  2  0  0  0  0
 24 27  1  0  0  0  0
 24 28  2  0  0  0  0
 26 25  1  0  0  0  0
 27 26  2  0  0  0  0
 28 19  1  0  0  0  0
 28 25  1  0  0  0  0
 29 30  1  0  0  0  0
M  END
>  <MODEL>
2

>  <REMARK>
 VINA RESULT:      -7.7      2.798      4.029
  Name = 
  6 active torsions:
  status: ('A' for Active; 'I' for Inactive)
    1  A    between atoms: C_2  and  C_24
    2  A    between atoms: C_3  and  C_15
    3  A    between atoms: C_7  and  C_30
    4  A    between atoms: N_8  and  C_15
    5  A    between atoms: C_15  and  C_16
    6  A    between atoms: C_22  and  C_24
                            x       y       z     vdW  Elec       q    Type
                         _______ _______ _______ _____ _____    ______ ____

>  <TORSDO>
F 6

$$$$
=
 OpenBabel11042413573D

 30 34  0  0  1  0  0  0  0  0999 V2000
  189.0650  177.2180  145.8170 C   0  0  1  0  0  3  0  0  0  0  0  0
  186.1800  177.0430  145.3880 O   0  0  0  0  0  0  0  0  0  0  0  0
  188.3570  177.4980  144.5030 C   0  0  0  0  0  2  0  0  0  0  0  0
  186.6670  176.5280  146.6270 C   0  0  2  0  0  3  0  0  0  0  0  0
  186.9910  178.0510  144.8260 C   0  0  1  0  0  3  0  0  0  0  0  0
  187.3080  177.5030  147.4170 O   0  0  0  0  0  0  0  0  0  0  0  0
  188.1560  176.5230  146.8490 C   0  0  2  0  0  3  0  0  0  0  0  0
  186.3370  178.6770  143.5900 C   0  0  2  0  0  3  0  0  0  0  0  0
  185.1910  179.9690  144.1700 S   0  0  0  0  0  1  0  0  0  0  0  0
  185.6050  177.6840  142.6610 C   0  0  2  0  0  3  0  0  0  0  0  0
  186.2010  177.6010  141.2970 C   0  0  0  0  0  0  0  0  0  0  0  0
  187.3050  177.1340  141.0760 O   0  0  0  0  0  0  0  0  0  0  0  0
  183.9440  178.1520  140.8870 C   0  0  0  0  0  2  0  0  0  0  0  0
  185.2900  178.0070  140.2070 C   0  0  0  0  0  2  0  0  0  0  0  0
  184.1870  178.1790  142.3930 C   0  0  0  0  0  2  0  0  0  0  0  0
  190.3500  176.4130  145.5850 C   0  0  2  0  0  3  0  0  0  0  0  0
  189.9180  173.8360  145.4390 C   0  0  0  0  0  3  0  0  0  0  0  0
  189.5000  172.4250  143.3040 C   0  0  0  0  0  3  0  0  0  0  0  0
  189.5490  173.2660  142.2340 C   0  0  0  0  0  0  0  0  0  0  0  0
  189.9770  175.1670  143.5280 C   0  0  0  0  0  0  0  0  0  0  0  0
  189.6690  172.6810  144.7780 C   0  0  0  0  0  3  0  0  0  0  0  0
  190.0820  175.1590  144.8080 C   0  0  0  0  0  0  0  0  0  0  0  0
  189.8030  174.7220  142.3360 C   0  0  0  0  0  3  0  0  0  0  0  0
  190.1700  171.8290  140.2880 N   0  0  0  0  0  0  0  0  0  0  0  0
  188.2850  172.9850  140.1030 N   0  0  0  0  0  2  0  0  0  0  0  0
  188.4850  172.2740  139.0050 N   0  0  0  0  0  0  0  0  0  0  0  0
  189.6090  171.5850  139.1160 N   0  0  0  0  0  0  0  0  0  0  0  0
  189.3390  172.7000  140.8920 C   0  0  0  0  0  0  0  0  0  0  0  0
  190.9760  176.0710  146.8560 N   0  0  0  0  0  2  0  0  0  0  0  0
  192.4050  176.2790  146.6980 C   0  0  0  0  0  1  0  0  0  0  0  0
  1 16  1  6  0  0  0
  1  7  1  0  0  0  0
  3  5  1  0  0  0  0
  3  1  1  0  0  0  0
  4  2  1  6  0  0  0
  4  7  1  0  0  0  0
  4  6  1  0  0  0  0
  5  8  1  6  0  0  0
  5  2  1  0  0  0  0
  7  6  1  1  0  0  0
  8  9  1  1  0  0  0
 10  8  1  1  0  0  0
 11 10  1  0  0  0  0
 12 11  2  0  0  0  0
 13 15  1  0  0  0  0
 14 13  1  0  0  0  0
 14 11  1  0  0  0  0
 15 10  1  0  0  0  0
 16 29  1  1  0  0  0
 18 21  1  0  0  0  0
 19 23  1  0  0  0  0
 19 18  2  0  0  0  0
 20 22  2  0  0  0  0
 21 17  2  0  0  0  0
 22 17  1  0  0  0  0
 22 16  1  0  0  0  0
 23 20  2  0  0  0  0
 24 28  2  0  0  0  0
 25 28  1  0  0  0  0
 26 27  2  0  0  0  0
 26 25  1  0  0  0  0
 27 24  1  0  0  0  0
 28 19  1  0  0  0  0
 30 29  1  0  0  0  0
M  END
>  <MODEL>
3

>  <REMARK>
 VINA RESULT:      -7.4      3.027      4.607
  Name = 
  6 active torsions:
  status: ('A' for Active; 'I' for Inactive)
    1  A    between atoms: C_2  and  C_24
    2  A    between atoms: C_3  and  C_15
    3  A    between atoms: C_7  and  C_30
    4  A    between atoms: N_8  and  C_15
    5  A    between atoms: C_15  and  C_16
    6  A    between atoms: C_22  and  C_24
                            x       y       z     vdW  Elec       q    Type
                         _______ _______ _______ _____ _____    ______ ____

>  <TORSDO>
F 6

$$$$
=
 OpenBabel11042413573D

 30 34  0  0  1  0  0  0  0  0999 V2000
  187.3950  175.3370  141.8210 C   0  0  1  0  0  3  0  0  0  0  0  0
  187.0290  178.1440  142.5450 O   0  0  0  0  0  0  0  0  0  0  0  0
  187.0200  175.8430  143.2030 C   0  0  0  0  0  2  0  0  0  0  0  0
  187.5950  177.8920  141.2590 C   0  0  2  0  0  3  0  0  0  0  0  0
  186.2090  177.1030  143.0270 C   0  0  1  0  0  3  0  0  0  0  0  0
  186.7380  177.1590  140.4130 O   0  0  0  0  0  0  0  0  0  0  0  0
  187.8770  176.4620  140.8840 C   0  0  2  0  0  3  0  0  0  0  0  0
  185.5030  177.4970  144.3280 C   0  0  2  0  0  3  0  0  0  0  0  0
  184.1620  178.6530  143.8970 S   0  0  0  0  0  1  0  0  0  0  0  0
  186.4180  178.1110  145.4110 C   0  0  2  0  0  3  0  0  0  0  0  0
  186.6080  177.2260  146.5950 C   0  0  0  0  0  0  0  0  0  0  0  0
  187.2160  176.1700  146.5510 O   0  0  0  0  0  0  0  0  0  0  0  0
  185.7850  179.2320  147.5250 C   0  0  0  0  0  2  0  0  0  0  0  0
  186.1160  177.7930  147.8670 C   0  0  0  0  0  2  0  0  0  0  0  0
  185.7530  179.3500  146.0040 C   0  0  0  0  0  2  0  0  0  0  0  0
  188.4360  174.2140  141.9130 C   0  0  2  0  0  3  0  0  0  0  0  0
  189.1810  173.6040  144.3470 C   0  0  0  0  0  3  0  0  0  0  0  0
  191.1430  174.6270  145.6980 C   0  0  0  0  0  3  0  0  0  0  0  0
  191.7400  175.5680  144.9160 C   0  0  0  0  0  0  0  0  0  0  0  0
  190.2900  175.2380  143.1110 C   0  0  0  0  0  0  0  0  0  0  0  0
  189.9670  173.7220  145.4420 C   0  0  0  0  0  3  0  0  0  0  0  0
  189.3280  174.3860  143.1050 C   0  0  0  0  0  0  0  0  0  0  0  0
  191.2990  175.9050  143.5430 C   0  0  0  0  0  3  0  0  0  0  0  0
  193.1350  176.4810  146.7760 N   0  0  0  0  0  0  0  0  0  0  0  0
  193.8530  176.8770  144.7140 N   0  0  0  0  0  2  0  0  0  0  0  0
  194.6850  177.4160  145.5900 N   0  0  0  0  0  0  0  0  0  0  0  0
  194.2570  177.1790  146.8200 N   0  0  0  0  0  0  0  0  0  0  0  0
  192.8940  176.2990  145.4630 C   0  0  0  0  0  0  0  0  0  0  0  0
  189.2470  174.1680  140.7040 N   0  0  0  0  0  2  0  0  0  0  0  0
  189.3690  172.7710  140.3240 C   0  0  0  0  0  1  0  0  0  0  0  0
  1 16  1  1  0  0  0
  1  3  1  0  0  0  0
  2  5  1  0  0  0  0
  4  6  1  6  0  0  0
  4  2  1  0  0  0  0
  5  3  1  0  0  0  0
  5  8  1  1  0  0  0
  7  6  1  6  0  0  0
  7  4  1  0  0  0  0
  7  1  1  0  0  0  0
  8  9  1  6  0  0  0
 10  8  1  6  0  0  0
 10 15  1  0  0  0  0
 10 11  1  0  0  0  0
 11 14  1  0  0  0  0
 12 11  2  0  0  0  0
 13 14  1  0  0  0  0
 15 13  1  0  0  0  0
 16 29  1  6  0  0  0
 16 22  1  0  0  0  0
 17 21  2  0  0  0  0
 19 28  1  0  0  0  0
 19 18  2  0  0  0  0
 20 23  2  0  0  0  0
 21 18  1  0  0  0  0
 22 20  2  0  0  0  0
 22 17  1  0  0  0  0
 23 19  1  0  0  0  0
 24 27  1  0  0  0  0
 25 28  1  0  0  0  0
 25 26  1  0  0  0  0
 26 27  2  0  0  0  0
 28 24  2  0  0  0  0
 30 29  1  0  0  0  0
M  END
>  <MODEL>
4

>  <REMARK>
 VINA RESULT:      -7.3      2.254      4.286
  Name = 
  6 active torsions:
  status: ('A' for Active; 'I' for Inactive)
    1  A    between atoms: C_2  and  C_24
    2  A    between atoms: C_3  and  C_15
    3  A    between atoms: C_7  and  C_30
    4  A    between atoms: N_8  and  C_15
    5  A    between atoms: C_15  and  C_16
    6  A    between atoms: C_22  and  C_24
                            x       y       z     vdW  Elec       q    Type
                         _______ _______ _______ _____ _____    ______ ____

>  <TORSDO>
F 6

$$$$
=
 OpenBabel11042413573D

 30 34  0  0  1  0  0  0  0  0999 V2000
  190.1830  176.1750  145.5690 C   0  0  1  0  0  3  0  0  0  0  0  0
  192.4620  174.9320  146.9090 O   0  0  0  0  0  0  0  0  0  0  0  0
  191.3870  175.5700  144.8680 C   0  0  0  0  0  2  0  0  0  0  0  0
  191.5430  175.6340  147.7460 C   0  0  2  0  0  3  0  0  0  0  0  0
  191.8920  174.4320  145.7200 C   0  0  1  0  0  3  0  0  0  0  0  0
  190.2400  175.0990  147.7070 O   0  0  0  0  0  0  0  0  0  0  0  0
  190.4030  176.3590  147.0830 C   0  0  2  0  0  3  0  0  0  0  0  0
  192.8790  173.5520  144.9470 C   0  0  2  0  0  3  0  0  0  0  0  0
  191.9270  172.2040  144.1770 S   0  0  0  0  0  1  0  0  0  0  0  0
  194.0440  172.9810  145.7860 C   0  0  2  0  0  3  0  0  0  0  0  0
  195.3610  173.6030  145.4700 C   0  0  0  0  0  0  0  0  0  0  0  0
  195.6300  174.7650  145.7220 O   0  0  0  0  0  0  0  0  0  0  0  0
  195.7400  171.2980  145.1420 C   0  0  0  0  0  2  0  0  0  0  0  0
  196.3720  172.6620  144.9460 C   0  0  0  0  0  2  0  0  0  0  0  0
  194.2580  171.5110  145.4330 C   0  0  0  0  0  2  0  0  0  0  0  0
  189.7710  177.4960  144.9070 C   0  0  2  0  0  3  0  0  0  0  0  0
  187.3020  177.4240  145.7720 C   0  0  0  0  0  3  0  0  0  0  0  0
  185.1340  177.6970  144.3760 C   0  0  0  0  0  3  0  0  0  0  0  0
  185.4970  177.8830  143.0770 C   0  0  0  0  0  0  0  0  0  0  0  0
  187.7900  177.7510  143.5170 C   0  0  0  0  0  0  0  0  0  0  0  0
  185.9590  177.4850  145.6170 C   0  0  0  0  0  3  0  0  0  0  0  0
  188.2900  177.5630  144.6860 C   0  0  0  0  0  0  0  0  0  0  0  0
  186.9000  177.9130  142.6050 C   0  0  0  0  0  3  0  0  0  0  0  0
  184.6230  178.0410  140.7430 N   0  0  0  0  0  0  0  0  0  0  0  0
  183.1380  178.2820  142.3730 N   0  0  0  0  0  2  0  0  0  0  0  0
  182.5360  178.3880  141.2000 N   0  0  0  0  0  0  0  0  0  0  0  0
  183.4220  178.2440  140.2280 N   0  0  0  0  0  0  0  0  0  0  0  0
  184.4330  178.0660  142.0760 C   0  0  0  0  0  0  0  0  0  0  0  0
  190.4590  177.6660  143.6340 N   0  0  0  0  0  2  0  0  0  0  0  0
  191.2970  178.8460  143.7550 C   0  0  0  0  0  1  0  0  0  0  0  0
  1 16  1  6  0  0  0
  1  7  1  0  0  0  0
  3  1  1  0  0  0  0
  3  5  1  0  0  0  0
  4  2  1  6  0  0  0
  5  8  1  6  0  0  0
  5  2  1  0  0  0  0
  6  4  1  0  0  0  0
  7  6  1  1  0  0  0
  7  4  1  0  0  0  0
  8  9  1  1  0  0  0
 10  8  1  6  0  0  0
 11 12  2  0  0  0  0
 11 10  1  0  0  0  0
 13 15  1  0  0  0  0
 14 13  1  0  0  0  0
 14 11  1  0  0  0  0
 15 10  1  0  0  0  0
 16 29  1  6  0  0  0
 18 21  1  0  0  0  0
 19 18  2  0  0  0  0
 20 22  2  0  0  0  0
 21 17  2  0  0  0  0
 22 16  1  0  0  0  0
 22 17  1  0  0  0  0
 23 19  1  0  0  0  0
 23 20  2  0  0  0  0
 24 28  2  0  0  0  0
 26 25  1  0  0  0  0
 27 24  1  0  0  0  0
 27 26  2  0  0  0  0
 28 25  1  0  0  0  0
 28 19  1  0  0  0  0
 29 30  1  0  0  0  0
M  END
>  <MODEL>
5

>  <REMARK>
 VINA RESULT:      -7.2      4.302      9.193
  Name = 
  6 active torsions:
  status: ('A' for Active; 'I' for Inactive)
    1  A    between atoms: C_2  and  C_24
    2  A    between atoms: C_3  and  C_15
    3  A    between atoms: C_7  and  C_30
    4  A    between atoms: N_8  and  C_15
    5  A    between atoms: C_15  and  C_16
    6  A    between atoms: C_22  and  C_24
                            x       y       z     vdW  Elec       q    Type
                         _______ _______ _______ _____ _____    ______ ____

>  <TORSDO>
F 6

$$$$
=
 OpenBabel11042413573D

 30 34  0  0  1  0  0  0  0  0999 V2000
  190.1170  175.0970  144.7240 C   0  0  1  0  0  3  0  0  0  0  0  0
  192.5060  173.5320  144.1090 O   0  0  0  0  0  0  0  0  0  0  0  0
  191.4740  175.6760  144.3660 C   0  0  0  0  0  2  0  0  0  0  0  0
  191.3940  172.8070  144.6350 C   0  0  2  0  0  3  0  0  0  0  0  0
  192.1520  174.7120  143.4230 C   0  0  1  0  0  3  0  0  0  0  0  0
  190.2480  172.8850  143.8180 O   0  0  0  0  0  0  0  0  0  0  0  0
  190.1750  173.5910  145.0430 C   0  0  2  0  0  3  0  0  0  0  0  0
  193.3640  175.3550  142.7440 C   0  0  2  0  0  3  0  0  0  0  0  0
  193.4440  174.7150  141.0410 S   0  0  0  0  0  1  0  0  0  0  0  0
  194.7120  175.1390  143.4670 C   0  0  2  0  0  3  0  0  0  0  0  0
  195.2750  176.3860  144.0560 C   0  0  0  0  0  0  0  0  0  0  0  0
  194.7630  176.9740  144.9940 O   0  0  0  0  0  0  0  0  0  0  0  0
  197.0020  175.6050  142.6520 C   0  0  0  0  0  2  0  0  0  0  0  0
  196.5830  176.7890  143.5010 C   0  0  0  0  0  2  0  0  0  0  0  0
  195.7750  174.7190  142.4550 C   0  0  0  0  0  2  0  0  0  0  0  0
  189.4750  175.8800  145.8760 C   0  0  2  0  0  3  0  0  0  0  0  0
  187.0750  176.7340  146.4810 C   0  0  0  0  0  3  0  0  0  0  0  0
  185.2370  177.5580  144.8480 C   0  0  0  0  0  3  0  0  0  0  0  0
  185.7340  177.4670  143.5840 C   0  0  0  0  0  0  0  0  0  0  0  0
  187.8060  176.6270  144.2710 C   0  0  0  0  0  0  0  0  0  0  0  0
  185.8490  177.2220  146.1820 C   0  0  0  0  0  3  0  0  0  0  0  0
  188.1260  176.4130  145.4960 C   0  0  0  0  0  0  0  0  0  0  0  0
  187.0930  176.9740  143.2610 C   0  0  0  0  0  3  0  0  0  0  0  0
  183.5920  178.2830  142.5910 N   0  0  0  0  0  0  0  0  0  0  0  0
  185.2610  177.9120  141.1760 N   0  0  0  0  0  2  0  0  0  0  0  0
  184.1970  178.3380  140.5140 N   0  0  0  0  0  0  0  0  0  0  0  0
  183.2030  178.5590  141.3580 N   0  0  0  0  0  0  0  0  0  0  0  0
  184.8720  177.8830  142.4650 C   0  0  0  0  0  0  0  0  0  0  0  0
  190.3340  176.9830  146.2860 N   0  0  0  0  0  2  0  0  0  0  0  0
  190.7770  176.7000  147.6400 C   0  0  0  0  0  1  0  0  0  0  0  0
  1  7  1  0  0  0  0
  1 16  1  1  0  0  0
  2  4  1  0  0  0  0
  3  1  1  0  0  0  0
  4  6  1  6  0  0  0
  4  7  1  0  0  0  0
  5  8  1  1  0  0  0
  5  2  1  0  0  0  0
  5  3  1  0  0  0  0
  7  6  1  6  0  0  0
  8  9  1  6  0  0  0
 10  8  1  6  0  0  0
 10 11  1  0  0  0  0
 11 12  2  0  0  0  0
 13 14  1  0  0  0  0
 14 11  1  0  0  0  0
 15 13  1  0  0  0  0
 15 10  1  0  0  0  0
 16 29  1  6  0  0  0
 18 21  1  0  0  0  0
 19 18  2  0  0  0  0
 20 22  2  0  0  0  0
 21 17  2  0  0  0  0
 22 16  1  0  0  0  0
 22 17  1  0  0  0  0
 23 19  1  0  0  0  0
 23 20  2  0  0  0  0
 25 28  1  0  0  0  0
 26 25  1  0  0  0  0
 26 27  2  0  0  0  0
 27 24  1  0  0  0  0
 28 24  2  0  0  0  0
 28 19  1  0  0  0  0
 29 30  1  0  0  0  0
M  END
>  <MODEL>
6

>  <REMARK>
 VINA RESULT:      -7.1      4.082      8.836
  Name = 
  6 active torsions:
  status: ('A' for Active; 'I' for Inactive)
    1  A    between atoms: C_2  and  C_24
    2  A    between atoms: C_3  and  C_15
    3  A    between atoms: C_7  and  C_30
    4  A    between atoms: N_8  and  C_15
    5  A    between atoms: C_15  and  C_16
    6  A    between atoms: C_22  and  C_24
                            x       y       z     vdW  Elec       q    Type
                         _______ _______ _______ _____ _____    ______ ____

>  <TORSDO>
F 6

$$$$
=
 OpenBabel11042413573D

 30 34  0  0  1  0  0  0  0  0999 V2000
  190.2150  176.1630  145.6520 C   0  0  1  0  0  3  0  0  0  0  0  0
  192.5980  174.5370  146.1200 O   0  0  0  0  0  0  0  0  0  0  0  0
  190.8400  175.2160  144.6420 C   0  0  0  0  0  2  0  0  0  0  0  0
  192.3010  175.5230  147.1090 C   0  0  2  0  0  3  0  0  0  0  0  0
  191.4700  174.0780  145.4090 C   0  0  1  0  0  3  0  0  0  0  0  0
  191.0520  175.3230  147.7310 O   0  0  0  0  0  0  0  0  0  0  0  0
  191.1300  176.4360  146.8610 C   0  0  2  0  0  3  0  0  0  0  0  0
  191.8240  172.9110  144.4820 C   0  0  2  0  0  3  0  0  0  0  0  0
  193.6380  172.8610  144.3300 S   0  0  0  0  0  1  0  0  0  0  0  0
  191.1660  172.9600  143.0860 C   0  0  2  0  0  3  0  0  0  0  0  0
  190.1120  171.9230  142.8920 C   0  0  0  0  0  0  0  0  0  0  0  0
  189.0510  171.9260  143.4920 O   0  0  0  0  0  0  0  0  0  0  0  0
  191.6090  171.5370  141.1100 C   0  0  0  0  0  2  0  0  0  0  0  0
  190.3970  170.9570  141.8110 C   0  0  0  0  0  2  0  0  0  0  0  0
  192.1990  172.6120  142.0180 C   0  0  0  0  0  2  0  0  0  0  0  0
  189.7850  177.4730  144.9790 C   0  0  2  0  0  3  0  0  0  0  0  0
  187.3050  177.2610  145.7880 C   0  0  0  0  0  3  0  0  0  0  0  0
  185.1540  177.5590  144.3710 C   0  0  0  0  0  3  0  0  0  0  0  0
  185.5330  177.8460  143.0950 C   0  0  0  0  0  0  0  0  0  0  0  0
  187.8210  177.7590  143.5710 C   0  0  0  0  0  0  0  0  0  0  0  0
  185.9630  177.2890  145.6110 C   0  0  0  0  0  3  0  0  0  0  0  0
  188.3070  177.5070  144.7340 C   0  0  0  0  0  0  0  0  0  0  0  0
  186.9430  177.9540  142.6550 C   0  0  0  0  0  3  0  0  0  0  0  0
  184.6840  178.0610  140.7570 N   0  0  0  0  0  0  0  0  0  0  0  0
  183.1860  178.2900  142.3780 N   0  0  0  0  0  2  0  0  0  0  0  0
  182.5970  178.4270  141.2010 N   0  0  0  0  0  0  0  0  0  0  0  0
  183.4910  178.2900  140.2340 N   0  0  0  0  0  0  0  0  0  0  0  0
  184.4820  178.0630  142.0880 C   0  0  0  0  0  0  0  0  0  0  0  0
  190.4900  177.6540  143.7160 N   0  0  0  0  0  2  0  0  0  0  0  0
  191.4260  178.7490  143.9030 C   0  0  0  0  0  1  0  0  0  0  0  0
  1 16  1  6  0  0  0
  1  7  1  0  0  0  0
  3  5  1  0  0  0  0
  3  1  1  0  0  0  0
  4  2  1  6  0  0  0
  4  6  1  0  0  0  0
  5  8  1  6  0  0  0
  5  2  1  0  0  0  0
  7  4  1  0  0  0  0
  7  6  1  1  0  0  0
  8  9  1  6  0  0  0
 10  8  1  1  0  0  0
 11 10  1  0  0  0  0
 11 12  2  0  0  0  0
 13 14  1  0  0  0  0
 13 15  1  0  0  0  0
 14 11  1  0  0  0  0
 15 10  1  0  0  0  0
 16 29  1  6  0  0  0
 18 21  1  0  0  0  0
 19 18  2  0  0  0  0
 20 22  2  0  0  0  0
 21 17  2  0  0  0  0
 22 16  1  0  0  0  0
 22 17  1  0  0  0  0
 23 19  1  0  0  0  0
 23 20  2  0  0  0  0
 24 28  2  0  0  0  0
 26 25  1  0  0  0  0
 27 24  1  0  0  0  0
 27 26  2  0  0  0  0
 28 25  1  0  0  0  0
 28 19  1  0  0  0  0
 29 30  1  0  0  0  0
M  END
>  <MODEL>
7

>  <REMARK>
 VINA RESULT:      -7.1      4.170      8.377
  Name = 
  6 active torsions:
  status: ('A' for Active; 'I' for Inactive)
    1  A    between atoms: C_2  and  C_24
    2  A    between atoms: C_3  and  C_15
    3  A    between atoms: C_7  and  C_30
    4  A    between atoms: N_8  and  C_15
    5  A    between atoms: C_15  and  C_16
    6  A    between atoms: C_22  and  C_24
                            x       y       z     vdW  Elec       q    Type
                         _______ _______ _______ _____ _____    ______ ____

>  <TORSDO>
F 6

$$$$
=
 OpenBabel11042413573D

 30 34  0  0  1  0  0  0  0  0999 V2000
  192.9620  175.5900  144.7600 C   0  0  1  0  0  3  0  0  0  0  0  0
  195.4820  177.0640  144.8800 O   0  0  0  0  0  0  0  0  0  0  0  0
  194.1080  175.4450  143.7740 C   0  0  0  0  0  2  0  0  0  0  0  0
  194.4500  177.5030  145.7640 C   0  0  2  0  0  3  0  0  0  0  0  0
  195.3930  175.7030  144.5230 C   0  0  1  0  0  3  0  0  0  0  0  0
  194.0510  176.5120  146.6820 O   0  0  0  0  0  0  0  0  0  0  0  0
  193.1110  176.8230  145.6720 C   0  0  2  0  0  3  0  0  0  0  0  0
  196.6110  175.2520  143.7110 C   0  0  2  0  0  3  0  0  0  0  0  0
  196.1550  175.3260  141.9490 S   0  0  0  0  0  1  0  0  0  0  0  0
  197.1550  173.8510  144.0690 C   0  0  2  0  0  3  0  0  0  0  0  0
  196.1550  172.7620  143.8850 C   0  0  0  0  0  0  0  0  0  0  0  0
  195.7320  172.4180  142.7940 O   0  0  0  0  0  0  0  0  0  0  0  0
  196.8160  172.5360  146.1380 C   0  0  0  0  0  2  0  0  0  0  0  0
  195.8090  172.0340  145.1230 C   0  0  0  0  0  2  0  0  0  0  0  0
  197.4700  173.7890  145.5610 C   0  0  0  0  0  2  0  0  0  0  0  0
  191.6120  175.6040  144.0310 C   0  0  2  0  0  3  0  0  0  0  0  0
  190.3290  174.7610  146.1510 C   0  0  0  0  0  3  0  0  0  0  0  0
  188.1110  175.6860  147.1230 C   0  0  0  0  0  3  0  0  0  0  0  0
  187.7030  176.7110  146.3240 C   0  0  0  0  0  0  0  0  0  0  0  0
  189.5220  176.5290  144.8660 C   0  0  0  0  0  0  0  0  0  0  0  0
  189.3160  174.7870  147.0470 C   0  0  0  0  0  3  0  0  0  0  0  0
  190.4660  175.6660  144.9950 C   0  0  0  0  0  0  0  0  0  0  0  0
  188.4390  177.1690  145.1240 C   0  0  0  0  0  3  0  0  0  0  0  0
  186.3210  178.2850  147.6840 N   0  0  0  0  0  0  0  0  0  0  0  0
  185.2890  177.2550  146.0120 N   0  0  0  0  0  2  0  0  0  0  0  0
  184.4400  178.0520  146.6390 N   0  0  0  0  0  0  0  0  0  0  0  0
  185.0560  178.6660  147.6370 N   0  0  0  0  0  0  0  0  0  0  0  0
  186.4540  177.4090  146.6700 C   0  0  0  0  0  0  0  0  0  0  0  0
  191.4730  174.4220  143.1900 N   0  0  0  0  0  2  0  0  0  0  0  0
  190.7330  174.8250  142.0060 C   0  0  0  0  0  1  0  0  0  0  0  0
  1 16  1  6  0  0  0
  1  7  1  0  0  0  0
  3  5  1  0  0  0  0
  3  1  1  0  0  0  0
  4  2  1  6  0  0  0
  4  6  1  0  0  0  0
  5  8  1  6  0  0  0
  5  2  1  0  0  0  0
  7  4  1  0  0  0  0
  7  6  1  1  0  0  0
  8  9  1  6  0  0  0
 10  8  1  1  0  0  0
 10 15  1  0  0  0  0
 11 10  1  0  0  0  0
 11 14  1  0  0  0  0
 12 11  2  0  0  0  0
 14 13  1  0  0  0  0
 15 13  1  0  0  0  0
 16 29  1  1  0  0  0
 16 22  1  0  0  0  0
 17 21  2  0  0  0  0
 19 28  1  0  0  0  0
 19 18  2  0  0  0  0
 20 22  2  0  0  0  0
 20 23  2  0  0  0  0
 21 18  1  0  0  0  0
 22 17  1  0  0  0  0
 23 19  1  0  0  0  0
 25 26  1  0  0  0  0
 25 28  1  0  0  0  0
 26 27  2  0  0  0  0
 27 24  1  0  0  0  0
 28 24  2  0  0  0  0
 30 29  1  0  0  0  0
M  END
>  <MODEL>
8

>  <REMARK>
 VINA RESULT:      -7.0      4.614      9.148
  Name = 
  6 active torsions:
  status: ('A' for Active; 'I' for Inactive)
    1  A    between atoms: C_2  and  C_24
    2  A    between atoms: C_3  and  C_15
    3  A    between atoms: C_7  and  C_30
    4  A    between atoms: N_8  and  C_15
    5  A    between atoms: C_15  and  C_16
    6  A    between atoms: C_22  and  C_24
                            x       y       z     vdW  Elec       q    Type
                         _______ _______ _______ _____ _____    ______ ____

>  <TORSDO>
F 6

$$$$
=
 OpenBabel11042413573D

 30 34  0  0  1  0  0  0  0  0999 V2000
  192.6920  175.4480  145.2270 C   0  0  1  0  0  3  0  0  0  0  0  0
  195.6000  175.7070  145.1140 O   0  0  0  0  0  0  0  0  0  0  0  0
  193.6550  174.3400  144.8360 C   0  0  0  0  0  2  0  0  0  0  0  0
  194.8640  176.9180  145.2870 C   0  0  2  0  0  3  0  0  0  0  0  0
  194.9400  174.5590  145.5970 C   0  0  1  0  0  3  0  0  0  0  0  0
  194.0970  176.9350  146.4690 O   0  0  0  0  0  0  0  0  0  0  0  0
  193.3610  176.8350  145.2650 C   0  0  2  0  0  3  0  0  0  0  0  0
  195.8410  173.3220  145.5350 C   0  0  2  0  0  3  0  0  0  0  0  0
  197.5060  173.8780  145.0500 S   0  0  0  0  0  1  0  0  0  0  0  0
  195.3500  172.2000  144.5930 C   0  0  2  0  0  3  0  0  0  0  0  0
  195.3760  170.8480  145.2200 C   0  0  0  0  0  0  0  0  0  0  0  0
  194.6440  170.5210  146.1380 O   0  0  0  0  0  0  0  0  0  0  0  0
  196.6850  170.5860  143.2750 C   0  0  0  0  0  2  0  0  0  0  0  0
  196.2710  169.8810  144.5510 C   0  0  0  0  0  2  0  0  0  0  0  0
  196.3130  172.0590  143.4170 C   0  0  0  0  0  2  0  0  0  0  0  0
  191.4630  175.4530  144.3080 C   0  0  2  0  0  3  0  0  0  0  0  0
  189.8820  175.0290  146.3510 C   0  0  0  0  0  3  0  0  0  0  0  0
  187.5850  176.1330  146.8230 C   0  0  0  0  0  3  0  0  0  0  0  0
  187.3200  176.9940  145.8010 C   0  0  0  0  0  0  0  0  0  0  0  0
  189.3110  176.5320  144.6650 C   0  0  0  0  0  0  0  0  0  0  0  0
  188.7600  175.2280  147.0800 C   0  0  0  0  0  3  0  0  0  0  0  0
  190.2010  175.7020  145.0780 C   0  0  0  0  0  0  0  0  0  0  0  0
  188.2240  177.2150  144.6490 C   0  0  0  0  0  3  0  0  0  0  0  0
  185.8730  178.9590  145.2700 N   0  0  0  0  0  0  0  0  0  0  0  0
  184.9350  177.3290  146.4480 N   0  0  0  0  0  2  0  0  0  0  0  0
  184.0560  178.2970  146.2430 N   0  0  0  0  0  0  0  0  0  0  0  0
  184.6160  179.2690  145.5410 N   0  0  0  0  0  0  0  0  0  0  0  0
  186.0590  177.7520  145.8380 C   0  0  0  0  0  0  0  0  0  0  0  0
  191.3530  174.1880  143.5930 N   0  0  0  0  0  2  0  0  0  0  0  0
  191.0950  174.5060  142.2000 C   0  0  0  0  0  1  0  0  0  0  0  0
  1 16  1  6  0  0  0
  1  7  1  0  0  0  0
  2  5  1  0  0  0  0
  3  1  1  0  0  0  0
  3  5  1  0  0  0  0
  4  2  1  1  0  0  0
  4  6  1  0  0  0  0
  5  8  1  6  0  0  0
  7  4  1  0  0  0  0
  7  6  1  1  0  0  0
  8  9  1  6  0  0  0
 10 11  1  0  0  0  0
 10  8  1  1  0  0  0
 11 12  2  0  0  0  0
 13 15  1  0  0  0  0
 13 14  1  0  0  0  0
 14 11  1  0  0  0  0
 15 10  1  0  0  0  0
 16 29  1  1  0  0  0
 16 22  1  0  0  0  0
 17 21  2  0  0  0  0
 18 21  1  0  0  0  0
 19 28  1  0  0  0  0
 19 18  2  0  0  0  0
 20 22  2  0  0  0  0
 22 17  1  0  0  0  0
 23 20  2  0  0  0  0
 23 19  1  0  0  0  0
 24 27  1  0  0  0  0
 24 28  2  0  0  0  0
 26 25  1  0  0  0  0
 27 26  2  0  0  0  0
 28 25  1  0  0  0  0
 30 29  1  0  0  0  0
M  END
>  <MODEL>
9

>  <REMARK>
 VINA RESULT:      -7.0      4.861      9.419
  Name = 
  6 active torsions:
  status: ('A' for Active; 'I' for Inactive)
    1  A    between atoms: C_2  and  C_24
    2  A    between atoms: C_3  and  C_15
    3  A    between atoms: C_7  and  C_30
    4  A    between atoms: N_8  and  C_15
    5  A    between atoms: C_15  and  C_16
    6  A    between atoms: C_22  and  C_24
                            x       y       z     vdW  Elec       q    Type
                         _______ _______ _______ _____ _____    ______ ____

>  <TORSDO>
F 6

$$$$
