=
 OpenBabel11042414123D

 49 53  0  0  1  0  0  0  0  0999 V2000
  191.5570  176.2080  146.9140 S   0  0  0  0  0  0  0  0  0  0  0  0
  194.5050  175.1820  143.3910 C   0  0  0  0  0  3  0  0  0  0  0  0
  193.2650  173.8360  140.2940 C   0  0  0  0  0  0  0  0  0  0  0  0
  194.7220  172.7220  138.5860 N   0  0  0  0  0  2  0  0  0  0  0  0
  189.2660  173.9530  143.6350 O   0  0  0  0  0  0  0  0  0  0  0  0
  192.7640  171.6300  139.2610 N   0  0  0  0  0  0  0  0  0  0  0  0
  192.7940  176.1780  145.7820 C   0  0  0  0  0  0  0  0  0  0  0  0
  191.7440  171.4060  141.4230 C   0  0  2  0  0  3  0  0  0  0  0  0
  191.0920  174.8690  144.8480 C   0  0  0  0  0  0  0  0  0  0  0  0
  192.4660  175.0960  142.1730 N   0  0  0  0  0  2  0  0  0  0  0  0
  191.3180  172.8970  143.3160 N   0  0  0  0  0  2  0  0  0  0  0  0
  194.0430  175.0750  139.9580 C   0  0  0  0  0  1  0  0  0  0  0  0
  190.7580  170.4400  142.0590 C   0  0  0  0  0  1  0  0  0  0  0  0
  192.4860  173.8780  141.4130 C   0  0  0  0  0  0  0  0  0  0  0  0
  193.5340  172.6700  139.3860 C   0  0  0  0  0  0  0  0  0  0  0  0
  192.3860  175.4200  144.6690 C   0  0  0  0  0  0  0  0  0  0  0  0
  191.4760  172.8320  141.8670 C   0  0  1  0  0  3  0  0  0  0  0  0
  195.1340  176.7640  145.1140 C   0  0  0  0  0  2  0  0  0  0  0  0
  191.5130  171.3790  139.9410 C   0  0  0  0  0  2  0  0  0  0  0  0
  190.4910  173.8940  143.9200 C   0  0  0  0  0  0  0  0  0  0  0  0
  190.4830  175.2580  146.0410 C   0  0  0  0  0  0  0  0  0  0  0  0
  194.0330  176.7940  146.0110 O   0  0  0  0  0  0  0  0  0  0  0  0
  193.1700  175.2280  143.4140 C   0  0  0  0  0  0  0  0  0  0  0  0
  195.3630  175.3590  144.5930 C   0  0  2  0  0  3  0  0  0  0  0  0
  195.1030  171.6620  137.6650 C   0  0  0  0  0  1  0  0  0  0  0  0
  189.1600  174.7860  146.5480 C   0  0  0  0  0  2  0  0  0  0  0  0
  187.9440  176.3540  144.9830 N   0  0  0  0  0  2  0  0  0  0  0  0
  188.1020  175.8050  146.2940 C   0  0  0  0  0  0  0  0  0  0  0  0
  187.3770  176.1990  147.2470 O   0  0  0  0  0  0  0  0  0  0  0  0
  187.3090  178.5680  145.3720 O   0  0  0  0  0  1  0  0  0  0  0  0
  186.9710  177.3970  144.6880 C   0  0  1  0  0  3  0  0  0  0  0  0
  186.8810  177.6510  143.1770 C   0  0  2  0  0  3  0  0  0  0  0  0
  185.4720  177.2670  142.6480 C   0  0  0  0  0  3  0  0  0  0  0  0
  184.8020  178.3880  141.8700 C   0  0  0  0  0  2  0  0  0  0  0  0
  184.3490  178.0670  143.2820 C   0  0  0  0  0  2  0  0  0  0  0  0
  187.6430  176.0900  141.3580 C   0  0  0  0  0  1  0  0  0  0  0  0
  188.8220  178.0970  141.7800 O   0  0  0  0  0  1  0  0  0  0  0  0
  188.1000  177.0810  142.4130 C   0  0  1  0  0  3  0  0  0  0  0  0
  196.7040  175.2090  144.2330 O   0  0  0  0  0  0  0  0  0  0  0  0
  197.0970  173.9940  144.8010 C   0  0  1  0  0  3  0  0  0  0  0  0
  196.4540  173.8130  146.0280 O   0  0  0  0  0  1  0  0  0  0  0  0
  196.7990  172.8290  143.8570 C   0  0  0  0  0  2  0  0  0  0  0  0
  195.6070  170.7670  144.7960 N   0  0  0  0  0  0  0  0  0  0  0  0
  197.9400  171.0490  144.9410 O   0  0  0  0  0  0  0  0  0  0  0  0
  196.8280  171.5000  144.5540 C   0  0  0  0  0  0  0  0  0  0  0  0
  194.3230  171.4050  144.5500 C   0  0  0  0  0  1  0  0  0  0  0  0
  195.5890  169.4530  145.3120 N   0  0  0  0  0  2  0  0  0  0  0  0
  194.7460  168.8260  147.7070 C   0  0  0  0  0  3  0  0  0  0  0  0
  195.1350  169.1130  146.5980 C   0  0  0  0  0  0  0  0  0  0  0  0
  2 23  2  0  0  0  0
  2 24  1  0  0  0  0
  3 14  2  0  0  0  0
  4 15  1  0  0  0  0
  5 20  2  0  0  0  0
  6 15  2  0  0  0  0
  6 19  1  0  0  0  0
  7 22  1  0  0  0  0
  7  1  1  0  0  0  0
  8 17  1  0  0  0  0
  8 13  1  1  0  0  0
  9 21  2  0  0  0  0
 10 23  1  0  0  0  0
 11 20  1  0  0  0  0
 12  3  1  0  0  0  0
 14 10  1  0  0  0  0
 15  3  1  0  0  0  0
 16  9  1  0  0  0  0
 16  7  2  0  0  0  0
 17 14  1  1  0  0  0
 17 11  1  0  0  0  0
 18 22  1  0  0  0  0
 19  8  1  0  0  0  0
 20  9  1  0  0  0  0
 21 26  1  0  0  0  0
 21  1  1  0  0  0  0
 23 16  1  0  0  0  0
 24 39  1  6  0  0  0
 24 18  1  0  0  0  0
 25  4  1  0  0  0  0
 27 28  1  0  0  0  0
 28 26  1  0  0  0  0
 28 29  2  0  0  0  0
 31 27  1  0  0  0  0
 31 30  1  1  0  0  0
 32 38  1  6  0  0  0
 32 31  1  0  0  0  0
 33 32  1  0  0  0  0
 33 35  1  0  0  0  0
 34 33  1  0  0  0  0
 34 35  1  0  0  0  0
 37 38  1  0  0  0  0
 38 36  1  6  0  0  0
 39 40  1  0  0  0  0
 40 41  1  1  0  0  0
 42 45  1  0  0  0  0
 42 40  1  0  0  0  0
 43 47  1  0  0  0  0
 45 43  1  0  0  0  0
 45 44  2  0  0  0  0
 46 43  1  0  0  0  0
 47 49  1  0  0  0  0
 49 48  3  0  0  0  0
M  END
>  <MODEL>
1

>  <REMARK>
 VINA RESULT:      -6.9      0.000      0.000
  Name = 
  12 active torsions:
  status: ('A' for Active; 'I' for Inactive)
    1  A    between atoms: C_2  and  O_42
    2  A    between atoms: C_2  and  C_43
    3  A    between atoms: C_5  and  C_12
    4  A    between atoms: C_5  and  C_34
    5  A    between atoms: C_5  and  C_35
    6  A    between atoms: N_11  and  C_34
    7  A    between atoms: C_13  and  C_36
    8  A    between atoms: N_16  and  N_22
    9  A    between atoms: N_22  and  C_45
   10  A    between atoms: C_36  and  C_39
   11  A    between atoms: O_42  and  C_48
   12  A    between atoms: C_43  and  C_46
                            x       y       z     vdW  Elec       q    Type
                         _______ _______ _______ _____ _____    ______ ____

>  <TORSDO>
F 12

$$$$
=
 OpenBabel11042414123D

 49 53  0  0  1  0  0  0  0  0999 V2000
  192.0310  175.4630  144.8400 S   0  0  0  0  0  0  0  0  0  0  0  0
  193.5210  174.3340  140.5190 C   0  0  0  0  0  3  0  0  0  0  0  0
  191.5420  172.2140  138.3910 C   0  0  0  0  0  0  0  0  0  0  0  0
  192.4410  171.0780  136.3460 N   0  0  0  0  0  2  0  0  0  0  0  0
  189.2720  172.2390  143.0840 O   0  0  0  0  0  0  0  0  0  0  0  0
  191.2370  169.7970  137.8930 N   0  0  0  0  0  0  0  0  0  0  0  0
  192.6940  175.4410  143.2990 C   0  0  0  0  0  0  0  0  0  0  0  0
  191.2320  169.8100  140.2940 C   0  0  2  0  0  3  0  0  0  0  0  0
  191.1400  173.6890  143.3100 C   0  0  0  0  0  0  0  0  0  0  0  0
  191.2580  173.6450  140.2960 N   0  0  0  0  0  2  0  0  0  0  0  0
  191.2270  171.5350  142.0310 N   0  0  0  0  0  2  0  0  0  0  0  0
  191.7960  173.4870  137.6360 C   0  0  0  0  0  1  0  0  0  0  0  0
  190.8440  168.8210  141.3810 C   0  0  0  0  0  1  0  0  0  0  0  0
  191.2780  172.3280  139.7250 C   0  0  0  0  0  0  0  0  0  0  0  0
  191.7130  170.9640  137.5760 C   0  0  0  0  0  0  0  0  0  0  0  0
  192.0830  174.4220  142.5450 C   0  0  0  0  0  0  0  0  0  0  0  0
  190.8170  171.2210  140.6660 C   0  0  1  0  0  3  0  0  0  0  0  0
  194.3640  176.3050  141.6470 C   0  0  0  0  0  2  0  0  0  0  0  0
  190.4550  169.4570  139.0600 C   0  0  0  0  0  2  0  0  0  0  0  0
  190.4850  172.4610  142.8260 C   0  0  0  0  0  0  0  0  0  0  0  0
  190.9700  174.1820  144.6030 C   0  0  0  0  0  0  0  0  0  0  0  0
  193.7300  176.3060  142.9190 O   0  0  0  0  0  0  0  0  0  0  0  0
  192.3350  174.1390  141.1020 C   0  0  0  0  0  0  0  0  0  0  0  0
  194.7090  174.8930  141.2200 C   0  0  2  0  0  3  0  0  0  0  0  0
  192.6800  169.9480  135.4610 C   0  0  0  0  0  1  0  0  0  0  0  0
  190.1110  173.5830  145.6680 C   0  0  0  0  0  2  0  0  0  0  0  0
  188.5840  175.5940  145.5740 N   0  0  0  0  0  2  0  0  0  0  0  0
  189.3060  174.6350  146.3510 C   0  0  0  0  0  0  0  0  0  0  0  0
  189.2950  174.6890  147.6100 O   0  0  0  0  0  0  0  0  0  0  0  0
  188.7100  177.6110  146.7440 O   0  0  0  0  0  1  0  0  0  0  0  0
  187.8300  176.6810  146.1830 C   0  0  1  0  0  3  0  0  0  0  0  0
  186.9060  177.3500  145.1560 C   0  0  2  0  0  3  0  0  0  0  0  0
  185.4220  177.2080  145.5910 C   0  0  0  0  0  3  0  0  0  0  0  0
  184.7770  178.5360  145.9530 C   0  0  0  0  0  2  0  0  0  0  0  0
  185.1810  177.5650  147.0470 C   0  0  0  0  0  2  0  0  0  0  0  0
  185.9880  176.7060  142.9050 C   0  0  0  0  0  1  0  0  0  0  0  0
  187.9950  177.9480  143.0640 O   0  0  0  0  0  1  0  0  0  0  0  0
  187.2560  176.9490  143.7040 C   0  0  1  0  0  3  0  0  0  0  0  0
  195.7940  174.9240  140.3420 O   0  0  0  0  0  0  0  0  0  0  0  0
  196.3510  173.6440  140.4110 C   0  0  1  0  0  3  0  0  0  0  0  0
  196.7300  173.2210  139.1350 O   0  0  0  0  0  1  0  0  0  0  0  0
  197.5440  173.6180  141.3670 C   0  0  0  0  0  2  0  0  0  0  0  0
  196.9730  173.5910  143.8630 N   0  0  0  0  0  0  0  0  0  0  0  0
  197.2630  171.6160  142.6150 O   0  0  0  0  0  0  0  0  0  0  0  0
  197.2480  172.8760  142.6380 C   0  0  0  0  0  0  0  0  0  0  0  0
  197.1850  175.0290  143.9210 C   0  0  0  0  0  1  0  0  0  0  0  0
  196.5460  172.9520  145.0470 N   0  0  0  0  0  2  0  0  0  0  0  0
  194.0700  172.2880  145.5590 C   0  0  0  0  0  3  0  0  0  0  0  0
  195.2140  172.5950  145.3190 C   0  0  0  0  0  0  0  0  0  0  0  0
  2 23  2  0  0  0  0
  2 24  1  0  0  0  0
  3 14  2  0  0  0  0
  4 15  1  0  0  0  0
  6 19  1  0  0  0  0
  7  1  1  0  0  0  0
  8 17  1  0  0  0  0
  8 13  1  1  0  0  0
  9 21  2  0  0  0  0
 10 23  1  0  0  0  0
 11 20  1  0  0  0  0
 12  3  1  0  0  0  0
 14 10  1  0  0  0  0
 15  6  2  0  0  0  0
 15  3  1  0  0  0  0
 16  7  2  0  0  0  0
 16  9  1  0  0  0  0
 17 14  1  6  0  0  0
 17 11  1  0  0  0  0
 18 22  1  0  0  0  0
 19  8  1  0  0  0  0
 20  5  2  0  0  0  0
 20  9  1  0  0  0  0
 21  1  1  0  0  0  0
 21 26  1  0  0  0  0
 22  7  1  0  0  0  0
 23 16  1  0  0  0  0
 24 39  1  6  0  0  0
 24 18  1  0  0  0  0
 25  4  1  0  0  0  0
 26 28  1  0  0  0  0
 27 31  1  0  0  0  0
 27 28  1  0  0  0  0
 28 29  2  0  0  0  0
 31 30  1  6  0  0  0
 32 38  1  6  0  0  0
 32 33  1  0  0  0  0
 32 31  1  0  0  0  0
 33 34  1  0  0  0  0
 33 35  1  0  0  0  0
 34 35  1  0  0  0  0
 37 38  1  0  0  0  0
 38 36  1  6  0  0  0
 39 40  1  0  0  0  0
 40 41  1  6  0  0  0
 40 42  1  0  0  0  0
 42 45  1  0  0  0  0
 43 46  1  0  0  0  0
 43 47  1  0  0  0  0
 44 45  2  0  0  0  0
 45 43  1  0  0  0  0
 47 49  1  0  0  0  0
 49 48  3  0  0  0  0
M  END
>  <MODEL>
2

>  <REMARK>
 VINA RESULT:      -6.8      2.173      2.995
  Name = 
  12 active torsions:
  status: ('A' for Active; 'I' for Inactive)
    1  A    between atoms: C_2  and  O_42
    2  A    between atoms: C_2  and  C_43
    3  A    between atoms: C_5  and  C_12
    4  A    between atoms: C_5  and  C_34
    5  A    between atoms: C_5  and  C_35
    6  A    between atoms: N_11  and  C_34
    7  A    between atoms: C_13  and  C_36
    8  A    between atoms: N_16  and  N_22
    9  A    between atoms: N_22  and  C_45
   10  A    between atoms: C_36  and  C_39
   11  A    between atoms: O_42  and  C_48
   12  A    between atoms: C_43  and  C_46
                            x       y       z     vdW  Elec       q    Type
                         _______ _______ _______ _____ _____    ______ ____

>  <TORSDO>
F 12

$$$$
=
 OpenBabel11042414123D

 49 53  0  0  1  0  0  0  0  0999 V2000
  192.2720  170.9740  143.9540 S   0  0  0  0  0  0  0  0  0  0  0  0
  189.5690  173.1020  140.7410 C   0  0  0  0  0  3  0  0  0  0  0  0
  190.6710  173.4100  137.3310 C   0  0  0  0  0  0  0  0  0  0  0  0
  189.6360  174.9850  135.6790 N   0  0  0  0  0  2  0  0  0  0  0  0
  194.6750  171.5160  140.0790 O   0  0  0  0  0  0  0  0  0  0  0  0
  191.9680  174.9780  135.9010 N   0  0  0  0  0  0  0  0  0  0  0  0
  191.0120  171.5480  143.0090 C   0  0  0  0  0  0  0  0  0  0  0  0
  193.3700  174.8050  137.8410 C   0  0  2  0  0  3  0  0  0  0  0  0
  192.9140  171.7420  141.6570 C   0  0  0  0  0  0  0  0  0  0  0  0
  191.1070  172.0550  139.2620 N   0  0  0  0  0  2  0  0  0  0  0  0
  193.3800  173.4410  139.8740 N   0  0  0  0  0  2  0  0  0  0  0  0
  189.3390  172.7160  137.3050 C   0  0  0  0  0  1  0  0  0  0  0  0
  194.8050  175.1790  138.1760 C   0  0  0  0  0  1  0  0  0  0  0  0
  191.5330  173.0570  138.3270 C   0  0  0  0  0  0  0  0  0  0  0  0
  190.8310  174.4840  136.2930 C   0  0  0  0  0  0  0  0  0  0  0  0
  191.5090  171.9130  141.7440 C   0  0  0  0  0  0  0  0  0  0  0  0
  192.9920  173.4750  138.4670 C   0  0  1  0  0  3  0  0  0  0  0  0
  188.6040  172.1850  142.7640 C   0  0  0  0  0  2  0  0  0  0  0  0
  193.2880  174.6060  136.3570 C   0  0  0  0  0  2  0  0  0  0  0  0
  193.7170  172.2090  140.5130 C   0  0  0  0  0  0  0  0  0  0  0  0
  193.4780  171.1830  142.8030 C   0  0  0  0  0  0  0  0  0  0  0  0
  189.7030  171.6630  143.4980 O   0  0  0  0  0  0  0  0  0  0  0  0
  190.6880  172.3870  140.5920 C   0  0  0  0  0  0  0  0  0  0  0  0
  188.9890  173.4700  142.0610 C   0  0  2  0  0  3  0  0  0  0  0  0
  189.6470  176.0240  134.6590 C   0  0  0  0  0  1  0  0  0  0  0  0
  194.9340  170.9530  143.0460 C   0  0  0  0  0  2  0  0  0  0  0  0
  195.8100  173.3110  143.2860 N   0  0  0  0  0  2  0  0  0  0  0  0
  195.5080  172.0460  143.8810 C   0  0  0  0  0  0  0  0  0  0  0  0
  195.7550  171.8330  145.0980 O   0  0  0  0  0  0  0  0  0  0  0  0
  197.7910  174.4660  143.7290 O   0  0  0  0  0  1  0  0  0  0  0  0
  196.4290  174.3960  144.0360 C   0  0  1  0  0  3  0  0  0  0  0  0
  195.7320  175.7320  143.7440 C   0  0  2  0  0  3  0  0  0  0  0  0
  194.5090  175.9190  144.6840 C   0  0  0  0  0  3  0  0  0  0  0  0
  194.6640  177.0950  145.6350 C   0  0  0  0  0  2  0  0  0  0  0  0
  194.8280  175.6770  146.1480 C   0  0  0  0  0  2  0  0  0  0  0  0
  194.0310  176.2410  141.9620 C   0  0  0  0  0  1  0  0  0  0  0  0
  196.2520  177.0270  141.7510 O   0  0  0  0  0  1  0  0  0  0  0  0
  195.4970  175.9530  142.2310 C   0  0  1  0  0  3  0  0  0  0  0  0
  187.8500  174.2540  141.8660 O   0  0  0  0  0  0  0  0  0  0  0  0
  188.3300  175.5600  141.7270 C   0  0  1  0  0  3  0  0  0  0  0  0
  187.7270  176.1740  140.6270 O   0  0  0  0  0  1  0  0  0  0  0  0
  188.0840  176.3680  143.0020 C   0  0  0  0  0  2  0  0  0  0  0  0
  189.3640  176.9350  145.1460 N   0  0  0  0  0  0  0  0  0  0  0  0
  190.4140  176.8330  143.0410 O   0  0  0  0  0  0  0  0  0  0  0  0
  189.3570  176.7170  143.7170 C   0  0  0  0  0  0  0  0  0  0  0  0
  188.1030  177.0220  145.8670 C   0  0  0  0  0  1  0  0  0  0  0  0
  190.5490  177.1190  145.8890 N   0  0  0  0  0  2  0  0  0  0  0  0
  191.4120  175.4610  147.7180 C   0  0  0  0  0  3  0  0  0  0  0  0
  191.0130  176.2310  146.8740 C   0  0  0  0  0  0  0  0  0  0  0  0
  2 24  1  0  0  0  0
  3 14  2  0  0  0  0
  4 15  1  0  0  0  0
  5 20  2  0  0  0  0
  6 15  2  0  0  0  0
  6 19  1  0  0  0  0
  7 22  1  0  0  0  0
  7  1  1  0  0  0  0
  8 13  1  6  0  0  0
  8 17  1  0  0  0  0
  9 16  1  0  0  0  0
  9 21  2  0  0  0  0
 10 23  1  0  0  0  0
 11 20  1  0  0  0  0
 12  3  1  0  0  0  0
 14 10  1  0  0  0  0
 15  3  1  0  0  0  0
 16  7  2  0  0  0  0
 17 14  1  1  0  0  0
 17 11  1  0  0  0  0
 18 22  1  0  0  0  0
 19  8  1  0  0  0  0
 20  9  1  0  0  0  0
 21 26  1  0  0  0  0
 21  1  1  0  0  0  0
 23  2  2  0  0  0  0
 23 16  1  0  0  0  0
 24 39  1  6  0  0  0
 24 18  1  0  0  0  0
 25  4  1  0  0  0  0
 26 28  1  0  0  0  0
 27 28  1  0  0  0  0
 27 31  1  0  0  0  0
 28 29  2  0  0  0  0
 31 30  1  6  0  0  0
 32 38  1  6  0  0  0
 32 31  1  0  0  0  0
 32 33  1  0  0  0  0
 33 34  1  0  0  0  0
 33 35  1  0  0  0  0
 34 35  1  0  0  0  0
 37 38  1  0  0  0  0
 38 36  1  1  0  0  0
 40 41  1  6  0  0  0
 40 39  1  0  0  0  0
 40 42  1  0  0  0  0
 42 45  1  0  0  0  0
 43 46  1  0  0  0  0
 43 47  1  0  0  0  0
 44 45  2  0  0  0  0
 45 43  1  0  0  0  0
 47 49  1  0  0  0  0
 49 48  3  0  0  0  0
M  END
>  <MODEL>
3

>  <REMARK>
 VINA RESULT:      -6.8      2.761      7.574
  Name = 
  12 active torsions:
  status: ('A' for Active; 'I' for Inactive)
    1  A    between atoms: C_2  and  O_42
    2  A    between atoms: C_2  and  C_43
    3  A    between atoms: C_5  and  C_12
    4  A    between atoms: C_5  and  C_34
    5  A    between atoms: C_5  and  C_35
    6  A    between atoms: N_11  and  C_34
    7  A    between atoms: C_13  and  C_36
    8  A    between atoms: N_16  and  N_22
    9  A    between atoms: N_22  and  C_45
   10  A    between atoms: C_36  and  C_39
   11  A    between atoms: O_42  and  C_48
   12  A    between atoms: C_43  and  C_46
                            x       y       z     vdW  Elec       q    Type
                         _______ _______ _______ _____ _____    ______ ____

>  <TORSDO>
F 12

$$$$
=
 OpenBabel11042414123D

 49 53  0  0  1  0  0  0  0  0999 V2000
  191.9650  171.3890  144.0650 S   0  0  0  0  0  0  0  0  0  0  0  0
  190.1630  173.9210  140.5290 C   0  0  0  0  0  3  0  0  0  0  0  0
  191.8340  174.0760  137.3470 C   0  0  0  0  0  0  0  0  0  0  0  0
  191.3260  175.7990  135.5990 N   0  0  0  0  0  2  0  0  0  0  0  0
  195.0150  171.5820  140.6380 O   0  0  0  0  0  0  0  0  0  0  0  0
  193.5640  175.4370  136.1880 N   0  0  0  0  0  0  0  0  0  0  0  0
  190.9730  172.1540  142.9490 C   0  0  0  0  0  0  0  0  0  0  0  0
  194.5930  175.0420  138.3210 C   0  0  2  0  0  3  0  0  0  0  0  0
  193.0760  172.0630  141.9220 C   0  0  0  0  0  0  0  0  0  0  0  0
  191.7460  172.6600  139.2820 N   0  0  0  0  0  2  0  0  0  0  0  0
  194.0710  173.6820  140.2870 N   0  0  0  0  0  2  0  0  0  0  0  0
  190.4360  173.5930  137.0900 C   0  0  0  0  0  1  0  0  0  0  0  0
  195.9950  175.1920  138.8900 C   0  0  0  0  0  1  0  0  0  0  0  0
  192.4630  173.5910  138.4560 C   0  0  0  0  0  0  0  0  0  0  0  0
  192.3180  175.1190  136.3800 C   0  0  0  0  0  0  0  0  0  0  0  0
  191.7170  172.4460  141.7900 C   0  0  0  0  0  0  0  0  0  0  0  0
  193.9250  173.7820  138.8380 C   0  0  1  0  0  3  0  0  0  0  0  0
  188.7580  173.1500  142.3450 C   0  0  0  0  0  2  0  0  0  0  0  0
  194.7230  174.8660  136.8360 C   0  0  0  0  0  2  0  0  0  0  0  0
  194.1140  172.4090  140.9350 C   0  0  0  0  0  0  0  0  0  0  0  0
  193.3580  171.4190  143.1270 C   0  0  0  0  0  0  0  0  0  0  0  0
  189.6350  172.4640  143.2280 O   0  0  0  0  0  0  0  0  0  0  0  0
  191.1720  173.0450  140.5370 C   0  0  0  0  0  0  0  0  0  0  0  0
  189.4400  174.3660  141.7500 C   0  0  2  0  0  3  0  0  0  0  0  0
  191.6560  176.8300  134.6260 C   0  0  0  0  0  1  0  0  0  0  0  0
  194.7050  170.9700  143.5900 C   0  0  0  0  0  2  0  0  0  0  0  0
  195.7460  173.2050  144.1420 N   0  0  0  0  0  2  0  0  0  0  0  0
  195.2700  171.9300  144.5800 C   0  0  0  0  0  0  0  0  0  0  0  0
  195.3530  171.5950  145.7930 O   0  0  0  0  0  0  0  0  0  0  0  0
  197.7460  173.9510  145.0910 O   0  0  0  0  0  1  0  0  0  0  0  0
  196.3650  174.1600  145.0520 C   0  0  1  0  0  3  0  0  0  0  0  0
  196.0400  175.6020  144.6370 C   0  0  2  0  0  3  0  0  0  0  0  0
  194.5710  175.9510  145.0010 C   0  0  0  0  0  3  0  0  0  0  0  0
  194.4590  177.1060  145.9820 C   0  0  0  0  0  2  0  0  0  0  0  0
  194.2280  175.6830  146.4550 C   0  0  0  0  0  2  0  0  0  0  0  0
  195.3130  176.3140  142.3360 C   0  0  0  0  0  1  0  0  0  0  0  0
  197.4310  176.9580  143.1710 O   0  0  0  0  0  1  0  0  0  0  0  0
  196.5010  175.9140  143.1930 C   0  0  1  0  0  3  0  0  0  0  0  0
  188.4770  175.3150  141.4000 O   0  0  0  0  0  0  0  0  0  0  0  0
  188.2750  176.0690  142.5590 C   0  0  1  0  0  3  0  0  0  0  0  0
  189.0850  177.2070  142.5330 O   0  0  0  0  0  1  0  0  0  0  0  0
  186.8030  176.4550  142.7080 C   0  0  0  0  0  2  0  0  0  0  0  0
  185.2370  177.5180  144.4330 N   0  0  0  0  0  0  0  0  0  0  0  0
  187.1870  176.3520  145.0510 O   0  0  0  0  0  0  0  0  0  0  0  0
  186.4280  176.7580  144.1300 C   0  0  0  0  0  0  0  0  0  0  0  0
  184.5050  178.1700  143.3570 C   0  0  0  0  0  1  0  0  0  0  0  0
  184.7590  177.7070  145.7470 N   0  0  0  0  0  2  0  0  0  0  0  0
  185.8760  179.2870  147.5060 C   0  0  0  0  0  3  0  0  0  0  0  0
  185.3560  178.5570  146.6930 C   0  0  0  0  0  0  0  0  0  0  0  0
  2 23  2  0  0  0  0
  2 24  1  0  0  0  0
  3 14  2  0  0  0  0
  4 15  1  0  0  0  0
  5 20  2  0  0  0  0
  6 15  2  0  0  0  0
  6 19  1  0  0  0  0
  7 22  1  0  0  0  0
  7  1  1  0  0  0  0
  8 17  1  0  0  0  0
  8 13  1  1  0  0  0
  9 21  2  0  0  0  0
 10 23  1  0  0  0  0
 11 20  1  0  0  0  0
 12  3  1  0  0  0  0
 14 10  1  0  0  0  0
 15  3  1  0  0  0  0
 16  9  1  0  0  0  0
 16  7  2  0  0  0  0
 17 14  1  1  0  0  0
 17 11  1  0  0  0  0
 18 22  1  0  0  0  0
 19  8  1  0  0  0  0
 20  9  1  0  0  0  0
 21 26  1  0  0  0  0
 21  1  1  0  0  0  0
 23 16  1  0  0  0  0
 24 39  1  6  0  0  0
 24 18  1  0  0  0  0
 25  4  1  0  0  0  0
 26 28  1  0  0  0  0
 27 28  1  0  0  0  0
 27 31  1  0  0  0  0
 28 29  2  0  0  0  0
 31 30  1  6  0  0  0
 32 38  1  6  0  0  0
 32 33  1  0  0  0  0
 32 31  1  0  0  0  0
 33 34  1  0  0  0  0
 33 35  1  0  0  0  0
 34 35  1  0  0  0  0
 37 38  1  0  0  0  0
 38 36  1  6  0  0  0
 39 40  1  0  0  0  0
 40 41  1  6  0  0  0
 40 42  1  0  0  0  0
 42 45  1  0  0  0  0
 43 47  1  0  0  0  0
 45 43  1  0  0  0  0
 45 44  2  0  0  0  0
 46 43  1  0  0  0  0
 47 49  1  0  0  0  0
 49 48  3  0  0  0  0
M  END
>  <MODEL>
4

>  <REMARK>
 VINA RESULT:      -6.7      2.615      8.265
  Name = 
  12 active torsions:
  status: ('A' for Active; 'I' for Inactive)
    1  A    between atoms: C_2  and  O_42
    2  A    between atoms: C_2  and  C_43
    3  A    between atoms: C_5  and  C_12
    4  A    between atoms: C_5  and  C_34
    5  A    between atoms: C_5  and  C_35
    6  A    between atoms: N_11  and  C_34
    7  A    between atoms: C_13  and  C_36
    8  A    between atoms: N_16  and  N_22
    9  A    between atoms: N_22  and  C_45
   10  A    between atoms: C_36  and  C_39
   11  A    between atoms: O_42  and  C_48
   12  A    between atoms: C_43  and  C_46
                            x       y       z     vdW  Elec       q    Type
                         _______ _______ _______ _____ _____    ______ ____

>  <TORSDO>
F 12

$$$$
=
 OpenBabel11042414123D

 49 53  0  0  1  0  0  0  0  0999 V2000
  191.1870  176.6160  146.6850 S   0  0  0  0  0  0  0  0  0  0  0  0
  194.3680  175.3270  143.4630 C   0  0  0  0  0  3  0  0  0  0  0  0
  193.3280  173.9240  140.3180 C   0  0  0  0  0  0  0  0  0  0  0  0
  194.8690  172.6830  138.7790 N   0  0  0  0  0  2  0  0  0  0  0  0
  189.0730  174.3460  143.2990 O   0  0  0  0  0  0  0  0  0  0  0  0
  192.8100  171.7050  139.3210 N   0  0  0  0  0  0  0  0  0  0  0  0
  192.5120  176.4870  145.6650 C   0  0  0  0  0  0  0  0  0  0  0  0
  191.6030  171.6090  141.3930 C   0  0  2  0  0  3  0  0  0  0  0  0
  190.8330  175.2230  144.6320 C   0  0  0  0  0  0  0  0  0  0  0  0
  192.4360  175.2880  142.0790 N   0  0  0  0  0  2  0  0  0  0  0  0
  191.0910  173.1870  143.1920 N   0  0  0  0  0  2  0  0  0  0  0  0
  194.1900  175.1130  140.0090 C   0  0  0  0  0  1  0  0  0  0  0  0
  190.5210  170.7120  141.9750 C   0  0  0  0  0  1  0  0  0  0  0  0
  192.4610  174.0430  141.3640 C   0  0  0  0  0  0  0  0  0  0  0  0
  193.6160  172.7140  139.4760 C   0  0  0  0  0  0  0  0  0  0  0  0
  192.1620  175.7070  144.5470 C   0  0  0  0  0  0  0  0  0  0  0  0
  191.3670  173.0610  141.7650 C   0  0  1  0  0  3  0  0  0  0  0  0
  194.9250  176.9410  145.1810 C   0  0  0  0  0  2  0  0  0  0  0  0
  191.4960  171.5370  139.8980 C   0  0  0  0  0  2  0  0  0  0  0  0
  190.2660  174.2420  143.6900 C   0  0  0  0  0  0  0  0  0  0  0  0
  190.1450  175.6830  145.7550 C   0  0  0  0  0  0  0  0  0  0  0  0
  193.7550  177.0540  145.9790 O   0  0  0  0  0  0  0  0  0  0  0  0
  193.0390  175.4340  143.3710 C   0  0  0  0  0  0  0  0  0  0  0  0
  195.1290  175.5100  144.7280 C   0  0  2  0  0  3  0  0  0  0  0  0
  195.2740  171.5730  137.9300 C   0  0  0  0  0  1  0  0  0  0  0  0
  188.7630  175.2900  146.1630 C   0  0  0  0  0  2  0  0  0  0  0  0
  187.2180  176.5880  144.6410 N   0  0  0  0  0  2  0  0  0  0  0  0
  187.8060  176.4100  145.9320 C   0  0  0  0  0  0  0  0  0  0  0  0
  187.5500  177.2110  146.8710 O   0  0  0  0  0  0  0  0  0  0  0  0
  187.0040  178.9090  144.5020 O   0  0  0  0  0  1  0  0  0  0  0  0
  186.3250  177.6980  144.3390 C   0  0  1  0  0  3  0  0  0  0  0  0
  185.7580  177.5750  142.9170 C   0  0  2  0  0  3  0  0  0  0  0  0
  186.6930  178.2840  141.8990 C   0  0  0  0  0  3  0  0  0  0  0  0
  186.8980  177.4860  140.6220 C   0  0  0  0  0  2  0  0  0  0  0  0
  188.0000  177.5490  141.6640 C   0  0  0  0  0  2  0  0  0  0  0  0
  183.9140  178.9810  143.8900 C   0  0  0  0  0  1  0  0  0  0  0  0
  183.8980  178.4140  141.5930 O   0  0  0  0  0  1  0  0  0  0  0  0
  184.2530  177.9250  142.8530 C   0  0  1  0  0  3  0  0  0  0  0  0
  196.4870  175.2860  144.4900 O   0  0  0  0  0  0  0  0  0  0  0  0
  196.6070  173.8990  144.3630 C   0  0  1  0  0  3  0  0  0  0  0  0
  197.6850  173.5900  143.5300 O   0  0  0  0  0  1  0  0  0  0  0  0
  196.7730  173.2380  145.7320 C   0  0  0  0  0  2  0  0  0  0  0  0
  195.2330  171.1970  145.5960 N   0  0  0  0  0  0  0  0  0  0  0  0
  197.5750  171.0020  145.7400 O   0  0  0  0  0  0  0  0  0  0  0  0
  196.5640  171.7530  145.6830 C   0  0  0  0  0  0  0  0  0  0  0  0
  194.0780  172.0650  145.7620 C   0  0  0  0  0  1  0  0  0  0  0  0
  194.9860  169.8220  145.3990 N   0  0  0  0  0  2  0  0  0  0  0  0
  193.0080  168.8680  143.9800 C   0  0  0  0  0  3  0  0  0  0  0  0
  193.9250  169.3080  144.6340 C   0  0  0  0  0  0  0  0  0  0  0  0
  2 24  1  0  0  0  0
  3 14  2  0  0  0  0
  4 15  1  0  0  0  0
  5 20  2  0  0  0  0
  6 15  2  0  0  0  0
  6 19  1  0  0  0  0
  7 22  1  0  0  0  0
  7  1  1  0  0  0  0
  8 17  1  0  0  0  0
  8 13  1  1  0  0  0
  9 21  2  0  0  0  0
 10 23  1  0  0  0  0
 11 20  1  0  0  0  0
 12  3  1  0  0  0  0
 14 10  1  0  0  0  0
 15  3  1  0  0  0  0
 16  9  1  0  0  0  0
 16  7  2  0  0  0  0
 17 14  1  1  0  0  0
 17 11  1  0  0  0  0
 18 22  1  0  0  0  0
 19  8  1  0  0  0  0
 20  9  1  0  0  0  0
 21 26  1  0  0  0  0
 21  1  1  0  0  0  0
 23  2  2  0  0  0  0
 23 16  1  0  0  0  0
 24 39  1  6  0  0  0
 24 18  1  0  0  0  0
 25  4  1  0  0  0  0
 27 28  1  0  0  0  0
 28 26  1  0  0  0  0
 28 29  2  0  0  0  0
 31 30  1  6  0  0  0
 31 27  1  0  0  0  0
 32 38  1  1  0  0  0
 32 31  1  0  0  0  0
 33 32  1  0  0  0  0
 34 35  1  0  0  0  0
 34 33  1  0  0  0  0
 35 33  1  0  0  0  0
 37 38  1  0  0  0  0
 38 36  1  1  0  0  0
 40 41  1  6  0  0  0
 40 39  1  0  0  0  0
 40 42  1  0  0  0  0
 43 45  1  0  0  0  0
 43 46  1  0  0  0  0
 45 42  1  0  0  0  0
 45 44  2  0  0  0  0
 47 43  1  0  0  0  0
 48 49  3  0  0  0  0
 49 47  1  0  0  0  0
M  END
>  <MODEL>
5

>  <REMARK>
 VINA RESULT:      -6.6      1.149      1.713
  Name = 
  12 active torsions:
  status: ('A' for Active; 'I' for Inactive)
    1  A    between atoms: C_2  and  O_42
    2  A    between atoms: C_2  and  C_43
    3  A    between atoms: C_5  and  C_12
    4  A    between atoms: C_5  and  C_34
    5  A    between atoms: C_5  and  C_35
    6  A    between atoms: N_11  and  C_34
    7  A    between atoms: C_13  and  C_36
    8  A    between atoms: N_16  and  N_22
    9  A    between atoms: N_22  and  C_45
   10  A    between atoms: C_36  and  C_39
   11  A    between atoms: O_42  and  C_48
   12  A    between atoms: C_43  and  C_46
                            x       y       z     vdW  Elec       q    Type
                         _______ _______ _______ _____ _____    ______ ____

>  <TORSDO>
F 12

$$$$
=
 OpenBabel11042414123D

 49 53  0  0  1  0  0  0  0  0999 V2000
  189.5060  174.8770  141.6790 S   0  0  0  0  0  0  0  0  0  0  0  0
  192.3960  171.2440  142.4620 C   0  0  0  0  0  3  0  0  0  0  0  0
  194.5910  171.2270  145.3110 C   0  0  0  0  0  0  0  0  0  0  0  0
  196.5500  169.6810  145.5410 N   0  0  0  0  0  2  0  0  0  0  0  0
  192.3860  175.9460  145.0920 O   0  0  0  0  0  0  0  0  0  0  0  0
  196.8830  171.9660  145.9320 N   0  0  0  0  0  0  0  0  0  0  0  0
  190.2230  173.3670  141.8240 C   0  0  0  0  0  0  0  0  0  0  0  0
  196.0290  173.9040  144.8020 C   0  0  2  0  0  3  0  0  0  0  0  0
  191.4370  174.7510  143.2710 C   0  0  0  0  0  0  0  0  0  0  0  0
  192.5600  172.2830  144.5930 N   0  0  0  0  0  2  0  0  0  0  0  0
  193.8580  174.5870  143.9030 N   0  0  0  0  0  2  0  0  0  0  0  0
  193.7630  169.9770  145.3830 C   0  0  0  0  0  1  0  0  0  0  0  0
  196.4530  175.3590  144.6790 C   0  0  0  0  0  1  0  0  0  0  0  0
  193.9580  172.3670  144.9090 C   0  0  0  0  0  0  0  0  0  0  0  0
  196.0500  171.0230  145.6070 C   0  0  0  0  0  0  0  0  0  0  0  0
  191.2650  173.4370  142.7670 C   0  0  0  0  0  0  0  0  0  0  0  0
  194.5220  173.7820  144.9240 C   0  0  1  0  0  3  0  0  0  0  0  0
  190.4150  170.9810  141.0920 C   0  0  0  0  0  2  0  0  0  0  0  0
  196.5960  173.3740  146.0860 C   0  0  0  0  0  2  0  0  0  0  0  0
  192.5630  175.1460  144.1350 C   0  0  0  0  0  0  0  0  0  0  0  0
  190.4970  175.6600  142.7860 C   0  0  0  0  0  0  0  0  0  0  0  0
  189.8190  172.2710  141.0490 O   0  0  0  0  0  0  0  0  0  0  0  0
  192.0870  172.2850  143.2400 C   0  0  0  0  0  0  0  0  0  0  0  0
  191.9270  171.0880  141.0580 C   0  0  2  0  0  3  0  0  0  0  0  0
  197.9410  169.3420  145.8040 C   0  0  0  0  0  1  0  0  0  0  0  0
  190.4630  177.1260  143.0680 C   0  0  0  0  0  2  0  0  0  0  0  0
  188.1200  177.3430  143.9900 N   0  0  0  0  0  2  0  0  0  0  0  0
  189.0710  177.6510  142.9680 C   0  0  0  0  0  0  0  0  0  0  0  0
  188.7370  178.3350  141.9630 O   0  0  0  0  0  0  0  0  0  0  0  0
  185.9400  176.7420  143.4040 O   0  0  0  0  0  1  0  0  0  0  0  0
  186.7310  177.7750  143.9160 C   0  0  1  0  0  3  0  0  0  0  0  0
  186.2230  178.2240  145.2940 C   0  0  2  0  0  3  0  0  0  0  0  0
  185.8740  176.9890  146.1690 C   0  0  0  0  0  3  0  0  0  0  0  0
  186.0450  177.2470  147.6570 C   0  0  0  0  0  2  0  0  0  0  0  0
  187.0690  176.4150  146.9080 C   0  0  0  0  0  2  0  0  0  0  0  0
  185.3760  180.1650  143.9360 C   0  0  0  0  0  1  0  0  0  0  0  0
  183.8640  178.8020  145.1420 O   0  0  0  0  0  1  0  0  0  0  0  0
  185.1540  179.3380  145.1900 C   0  0  1  0  0  3  0  0  0  0  0  0
  192.4640  169.9190  140.5160 O   0  0  0  0  0  0  0  0  0  0  0  0
  193.4650  170.3530  139.6430 C   0  0  1  0  0  3  0  0  0  0  0  0
  193.8120  169.3220  138.7670 O   0  0  0  0  0  1  0  0  0  0  0  0
  193.0150  171.5930  138.8700 C   0  0  0  0  0  2  0  0  0  0  0  0
  194.7020  173.4950  139.1710 N   0  0  0  0  0  0  0  0  0  0  0  0
  194.6510  172.1490  137.2390 O   0  0  0  0  0  0  0  0  0  0  0  0
  194.1700  172.4130  138.3740 C   0  0  0  0  0  0  0  0  0  0  0  0
  193.9910  173.9280  140.3640 C   0  0  0  0  0  1  0  0  0  0  0  0
  195.8730  174.2010  138.8230 N   0  0  0  0  0  2  0  0  0  0  0  0
  197.7770  174.8230  140.5050 C   0  0  0  0  0  3  0  0  0  0  0  0
  196.8940  174.5380  139.7280 C   0  0  0  0  0  0  0  0  0  0  0  0
  1  7  1  0  0  0  0
  1 21  1  0  0  0  0
  2 23  2  0  0  0  0
  3 12  1  0  0  0  0
  3 15  1  0  0  0  0
  4 15  1  0  0  0  0
  4 25  1  0  0  0  0
  6 19  1  0  0  0  0
  7 16  2  0  0  0  0
  8 13  1  1  0  0  0
  8 17  1  0  0  0  0
  8 19  1  0  0  0  0
  9 20  1  0  0  0  0
 10 14  1  0  0  0  0
 11 20  1  0  0  0  0
 14 17  1  0  0  0  0
 14  3  2  0  0  0  0
 15  6  2  0  0  0  0
 16 23  1  0  0  0  0
 16  9  1  0  0  0  0
 17 11  1  6  0  0  0
 20  5  2  0  0  0  0
 21 26  1  0  0  0  0
 21  9  2  0  0  0  0
 22 18  1  0  0  0  0
 22  7  1  0  0  0  0
 23 10  1  0  0  0  0
 24 39  1  1  0  0  0
 24 18  1  0  0  0  0
 24  2  1  0  0  0  0
 28 26  1  0  0  0  0
 28 27  1  0  0  0  0
 29 28  2  0  0  0  0
 31 30  1  1  0  0  0
 31 27  1  0  0  0  0
 32 31  1  6  0  0  0
 32 33  1  0  0  0  0
 33 35  1  0  0  0  0
 33 34  1  0  0  0  0
 35 34  1  0  0  0  0
 37 38  1  0  0  0  0
 38 36  1  6  0  0  0
 38 32  1  0  0  0  0
 40 41  1  6  0  0  0
 40 39  1  0  0  0  0
 42 40  1  0  0  0  0
 43 46  1  0  0  0  0
 44 45  2  0  0  0  0
 45 42  1  0  0  0  0
 45 43  1  0  0  0  0
 47 43  1  0  0  0  0
 47 49  1  0  0  0  0
 49 48  3  0  0  0  0
M  END
>  <MODEL>
6

>  <REMARK>
 VINA RESULT:      -6.6      2.675      6.031
  Name = 
  12 active torsions:
  status: ('A' for Active; 'I' for Inactive)
    1  A    between atoms: C_2  and  O_42
    2  A    between atoms: C_2  and  C_43
    3  A    between atoms: C_5  and  C_12
    4  A    between atoms: C_5  and  C_34
    5  A    between atoms: C_5  and  C_35
    6  A    between atoms: N_11  and  C_34
    7  A    between atoms: C_13  and  C_36
    8  A    between atoms: N_16  and  N_22
    9  A    between atoms: N_22  and  C_45
   10  A    between atoms: C_36  and  C_39
   11  A    between atoms: O_42  and  C_48
   12  A    between atoms: C_43  and  C_46
                            x       y       z     vdW  Elec       q    Type
                         _______ _______ _______ _____ _____    ______ ____

>  <TORSDO>
F 12

$$$$
=
 OpenBabel11042414123D

 49 53  0  0  1  0  0  0  0  0999 V2000
  188.4370  172.7990  139.5160 S   0  0  0  0  0  0  0  0  0  0  0  0
  192.9400  171.5150  140.0020 C   0  0  0  0  0  3  0  0  0  0  0  0
  194.2730  170.6910  143.2400 C   0  0  0  0  0  0  0  0  0  0  0  0
  196.7270  170.5580  143.7340 N   0  0  0  0  0  2  0  0  0  0  0  0
  189.4700  172.5730  143.9850 O   0  0  0  0  0  0  0  0  0  0  0  0
  195.3670  171.8110  145.1720 N   0  0  0  0  0  0  0  0  0  0  0  0
  189.9750  172.1530  139.3400 C   0  0  0  0  0  0  0  0  0  0  0  0
  193.5280  173.2870  144.7210 C   0  0  2  0  0  3  0  0  0  0  0  0
  189.7710  172.6040  141.6290 C   0  0  0  0  0  0  0  0  0  0  0  0
  192.1490  170.8180  142.1320 N   0  0  0  0  0  2  0  0  0  0  0  0
  191.5750  173.2450  143.2480 N   0  0  0  0  0  2  0  0  0  0  0  0
  194.5240  169.5120  142.3450 C   0  0  0  0  0  1  0  0  0  0  0  0
  192.8500  174.4290  145.4630 C   0  0  0  0  0  1  0  0  0  0  0  0
  193.0740  171.3250  143.1070 C   0  0  0  0  0  0  0  0  0  0  0  0
  195.4400  171.0700  144.1070 C   0  0  0  0  0  0  0  0  0  0  0  0
  190.5930  172.0740  140.6020 C   0  0  0  0  0  0  0  0  0  0  0  0
  192.5110  172.4200  144.0050 C   0  0  1  0  0  3  0  0  0  0  0  0
  191.8150  171.3120  137.8670 C   0  0  0  0  0  2  0  0  0  0  0  0
  194.1810  172.4060  145.7460 C   0  0  0  0  0  2  0  0  0  0  0  0
  190.2350  172.8090  143.0130 C   0  0  0  0  0  0  0  0  0  0  0  0
  188.5150  173.0110  141.1810 C   0  0  0  0  0  0  0  0  0  0  0  0
  190.5060  171.8180  138.0870 O   0  0  0  0  0  0  0  0  0  0  0  0
  191.9320  171.4760  140.8780 C   0  0  0  0  0  0  0  0  0  0  0  0
  192.8380  172.1150  138.6450 C   0  0  2  0  0  3  0  0  0  0  0  0
  197.9400  170.8470  144.4850 C   0  0  0  0  0  1  0  0  0  0  0  0
  187.4600  173.6770  142.0020 C   0  0  0  0  0  2  0  0  0  0  0  0
  187.9260  175.7160  143.4210 N   0  0  0  0  0  2  0  0  0  0  0  0
  187.7330  175.1370  142.1280 C   0  0  0  0  0  0  0  0  0  0  0  0
  187.7570  175.8550  141.0920 O   0  0  0  0  0  0  0  0  0  0  0  0
  186.9020  177.7870  143.7640 O   0  0  0  0  0  1  0  0  0  0  0  0
  188.1340  177.1460  143.6100 C   0  0  1  0  0  3  0  0  0  0  0  0
  189.0460  177.4110  144.8170 C   0  0  2  0  0  3  0  0  0  0  0  0
  190.5020  176.9750  144.5000 C   0  0  0  0  0  3  0  0  0  0  0  0
  191.3440  178.0950  143.9110 C   0  0  0  0  0  2  0  0  0  0  0  0
  190.8270  176.9830  143.0170 C   0  0  0  0  0  2  0  0  0  0  0  0
  189.1250  175.6270  146.5880 C   0  0  0  0  0  1  0  0  0  0  0  0
  188.5520  177.8500  147.1580 O   0  0  0  0  0  1  0  0  0  0  0  0
  188.4290  176.9000  146.1400 C   0  0  1  0  0  3  0  0  0  0  0  0
  194.0780  172.0340  138.0070 O   0  0  0  0  0  0  0  0  0  0  0  0
  194.9780  172.6380  138.8880 C   0  0  1  0  0  3  0  0  0  0  0  0
  196.1840  171.9320  138.8950 O   0  0  0  0  0  1  0  0  0  0  0  0
  195.2100  174.1020  138.5130 C   0  0  0  0  0  2  0  0  0  0  0  0
  196.0880  175.7010  140.3100 N   0  0  0  0  0  0  0  0  0  0  0  0
  193.7980  175.2090  140.0720 O   0  0  0  0  0  0  0  0  0  0  0  0
  194.9790  175.0350  139.6660 C   0  0  0  0  0  0  0  0  0  0  0  0
  197.4510  175.3130  139.9790 C   0  0  0  0  0  1  0  0  0  0  0  0
  195.9200  176.6950  141.2960 N   0  0  0  0  0  2  0  0  0  0  0  0
  196.2630  176.3090  143.8600 C   0  0  0  0  0  3  0  0  0  0  0  0
  196.1030  176.4850  142.6740 C   0  0  0  0  0  0  0  0  0  0  0  0
  1 21  1  0  0  0  0
  2 23  2  0  0  0  0
  3 15  1  0  0  0  0
  4 15  1  0  0  0  0
  4 25  1  0  0  0  0
  6 19  1  0  0  0  0
  7  1  1  0  0  0  0
  7 16  2  0  0  0  0
  8 13  1  1  0  0  0
  8 19  1  0  0  0  0
  9 20  1  0  0  0  0
 10 14  1  0  0  0  0
 11 17  1  0  0  0  0
 12  3  1  0  0  0  0
 14  3  2  0  0  0  0
 15  6  2  0  0  0  0
 16 23  1  0  0  0  0
 16  9  1  0  0  0  0
 17 14  1  6  0  0  0
 17  8  1  0  0  0  0
 18 22  1  0  0  0  0
 18 24  1  0  0  0  0
 20 11  1  0  0  0  0
 20  5  2  0  0  0  0
 21  9  2  0  0  0  0
 21 26  1  0  0  0  0
 22  7  1  0  0  0  0
 23 10  1  0  0  0  0
 24 39  1  6  0  0  0
 24  2  1  0  0  0  0
 26 28  1  0  0  0  0
 27 31  1  0  0  0  0
 28 27  1  0  0  0  0
 29 28  2  0  0  0  0
 31 30  1  1  0  0  0
 32 31  1  6  0  0  0
 32 38  1  0  0  0  0
 33 32  1  0  0  0  0
 34 33  1  0  0  0  0
 35 34  1  0  0  0  0
 35 33  1  0  0  0  0
 38 36  1  1  0  0  0
 38 37  1  0  0  0  0
 39 40  1  0  0  0  0
 40 41  1  6  0  0  0
 42 40  1  0  0  0  0
 42 45  1  0  0  0  0
 43 47  1  0  0  0  0
 45 44  2  0  0  0  0
 45 43  1  0  0  0  0
 46 43  1  0  0  0  0
 47 49  1  0  0  0  0
 49 48  3  0  0  0  0
M  END
>  <MODEL>
7

>  <REMARK>
 VINA RESULT:      -6.5      2.912      5.956
  Name = 
  12 active torsions:
  status: ('A' for Active; 'I' for Inactive)
    1  A    between atoms: C_2  and  O_42
    2  A    between atoms: C_2  and  C_43
    3  A    between atoms: C_5  and  C_12
    4  A    between atoms: C_5  and  C_34
    5  A    between atoms: C_5  and  C_35
    6  A    between atoms: N_11  and  C_34
    7  A    between atoms: C_13  and  C_36
    8  A    between atoms: N_16  and  N_22
    9  A    between atoms: N_22  and  C_45
   10  A    between atoms: C_36  and  C_39
   11  A    between atoms: O_42  and  C_48
   12  A    between atoms: C_43  and  C_46
                            x       y       z     vdW  Elec       q    Type
                         _______ _______ _______ _____ _____    ______ ____

>  <TORSDO>
F 12

$$$$
=
 OpenBabel11042414123D

 49 53  0  0  1  0  0  0  0  0999 V2000
  184.8590  178.4920  144.1430 S   0  0  0  0  0  0  0  0  0  0  0  0
  189.0090  176.4700  145.0610 C   0  0  0  0  0  3  0  0  0  0  0  0
  191.2200  175.5210  142.3870 C   0  0  0  0  0  0  0  0  0  0  0  0
  193.1500  173.9490  142.6770 N   0  0  0  0  0  2  0  0  0  0  0  0
  186.7260  177.0220  140.2130 O   0  0  0  0  0  0  0  0  0  0  0  0
  191.6640  173.5720  140.9070 N   0  0  0  0  0  0  0  0  0  0  0  0
  186.3400  178.0300  144.7790 C   0  0  0  0  0  0  0  0  0  0  0  0
  189.2730  173.7500  140.7850 C   0  0  2  0  0  3  0  0  0  0  0  0
  186.3980  177.3240  142.5470 C   0  0  0  0  0  0  0  0  0  0  0  0
  189.3900  177.0220  142.7810 N   0  0  0  0  0  2  0  0  0  0  0  0
  187.5970  175.3470  141.5780 N   0  0  0  0  0  2  0  0  0  0  0  0
  191.9920  176.4300  143.2980 C   0  0  0  0  0  1  0  0  0  0  0  0
  188.1900  173.1750  139.8860 C   0  0  0  0  0  1  0  0  0  0  0  0
  189.9160  175.8440  142.1500 C   0  0  0  0  0  0  0  0  0  0  0  0
  191.9790  174.3080  141.9310 C   0  0  0  0  0  0  0  0  0  0  0  0
  187.1080  177.4180  143.7700 C   0  0  0  0  0  0  0  0  0  0  0  0
  188.9800  175.1960  141.1370 C   0  0  1  0  0  3  0  0  0  0  0  0
  187.8810  177.8040  146.7380 C   0  0  0  0  0  2  0  0  0  0  0  0
  190.5530  173.7610  140.0020 C   0  0  0  0  0  2  0  0  0  0  0  0
  186.8930  176.5740  141.3790 C   0  0  0  0  0  0  0  0  0  0  0  0
  185.1380  177.9210  142.5880 C   0  0  0  0  0  0  0  0  0  0  0  0
  186.6640  178.2150  146.1300 O   0  0  0  0  0  0  0  0  0  0  0  0
  188.5170  176.9490  143.9150 C   0  0  0  0  0  0  0  0  0  0  0  0
  188.2340  176.3880  146.3290 C   0  0  2  0  0  3  0  0  0  0  0  0
  193.9780  172.7990  142.3460 C   0  0  0  0  0  1  0  0  0  0  0  0
  184.1260  177.9200  141.4890 C   0  0  0  0  0  2  0  0  0  0  0  0
  181.7250  178.5810  141.0630 N   0  0  0  0  0  2  0  0  0  0  0  0
  182.8370  178.5020  141.9580 C   0  0  0  0  0  0  0  0  0  0  0  0
  182.7500  178.9520  143.1320 O   0  0  0  0  0  0  0  0  0  0  0  0
  180.1950  180.2880  140.6140 O   0  0  0  0  0  1  0  0  0  0  0  0
  180.4600  179.1960  141.4440 C   0  0  1  0  0  3  0  0  0  0  0  0
  179.3160  178.1730  141.3890 C   0  0  2  0  0  3  0  0  0  0  0  0
  178.5670  178.2740  140.0320 C   0  0  0  0  0  3  0  0  0  0  0  0
  177.7380  177.0400  139.7160 C   0  0  0  0  0  2  0  0  0  0  0  0
  179.0530  177.2760  138.9970 C   0  0  0  0  0  2  0  0  0  0  0  0
  178.3530  176.7930  143.2580 C   0  0  0  0  0  1  0  0  0  0  0  0
  179.0000  179.0360  143.6420 O   0  0  0  0  0  1  0  0  0  0  0  0
  178.4530  178.1900  142.6720 C   0  0  1  0  0  3  0  0  0  0  0  0
  189.0230  175.8000  147.3190 O   0  0  0  0  0  0  0  0  0  0  0  0
  190.3070  176.3120  147.1100 C   0  0  1  0  0  3  0  0  0  0  0  0
  190.4370  177.5460  147.7510 O   0  0  0  0  0  1  0  0  0  0  0  0
  191.3720  175.3310  147.6010 C   0  0  0  0  0  2  0  0  0  0  0  0
  193.5660  175.6190  146.3130 N   0  0  0  0  0  0  0  0  0  0  0  0
  191.9930  173.9550  145.7660 O   0  0  0  0  0  0  0  0  0  0  0  0
  192.3190  174.9170  146.5130 C   0  0  0  0  0  0  0  0  0  0  0  0
  193.8160  176.8600  147.0300 C   0  0  0  0  0  1  0  0  0  0  0  0
  194.5560  175.1850  145.4070 N   0  0  0  0  0  2  0  0  0  0  0  0
  196.6610  173.7890  146.0830 C   0  0  0  0  0  3  0  0  0  0  0  0
  195.6870  174.4320  145.7680 C   0  0  0  0  0  0  0  0  0  0  0  0
  1  7  1  0  0  0  0
  2 24  1  0  0  0  0
  3 12  1  0  0  0  0
  5 20  2  0  0  0  0
  6 15  2  0  0  0  0
  7 22  1  0  0  0  0
  8 13  1  6  0  0  0
  8 17  1  0  0  0  0
  9 21  2  0  0  0  0
  9 16  1  0  0  0  0
 10 23  1  0  0  0  0
 14  3  2  0  0  0  0
 14 10  1  0  0  0  0
 15  3  1  0  0  0  0
 15  4  1  0  0  0  0
 16 23  1  0  0  0  0
 16  7  2  0  0  0  0
 17 11  1  1  0  0  0
 17 14  1  0  0  0  0
 19  8  1  0  0  0  0
 19  6  1  0  0  0  0
 20 11  1  0  0  0  0
 20  9  1  0  0  0  0
 21  1  1  0  0  0  0
 22 18  1  0  0  0  0
 23  2  2  0  0  0  0
 24 18  1  0  0  0  0
 24 39  1  1  0  0  0
 25  4  1  0  0  0  0
 26 28  1  0  0  0  0
 26 21  1  0  0  0  0
 27 31  1  0  0  0  0
 27 28  1  0  0  0  0
 28 29  2  0  0  0  0
 31 30  1  6  0  0  0
 32 31  1  1  0  0  0
 32 38  1  0  0  0  0
 33 32  1  0  0  0  0
 34 33  1  0  0  0  0
 35 34  1  0  0  0  0
 35 33  1  0  0  0  0
 38 36  1  1  0  0  0
 38 37  1  0  0  0  0
 40 39  1  0  0  0  0
 40 42  1  0  0  0  0
 40 41  1  1  0  0  0
 43 45  1  0  0  0  0
 43 46  1  0  0  0  0
 44 45  2  0  0  0  0
 45 42  1  0  0  0  0
 47 49  1  0  0  0  0
 47 43  1  0  0  0  0
 49 48  3  0  0  0  0
M  END
>  <MODEL>
8

>  <REMARK>
 VINA RESULT:      -6.4      3.848      6.413
  Name = 
  12 active torsions:
  status: ('A' for Active; 'I' for Inactive)
    1  A    between atoms: C_2  and  O_42
    2  A    between atoms: C_2  and  C_43
    3  A    between atoms: C_5  and  C_12
    4  A    between atoms: C_5  and  C_34
    5  A    between atoms: C_5  and  C_35
    6  A    between atoms: N_11  and  C_34
    7  A    between atoms: C_13  and  C_36
    8  A    between atoms: N_16  and  N_22
    9  A    between atoms: N_22  and  C_45
   10  A    between atoms: C_36  and  C_39
   11  A    between atoms: O_42  and  C_48
   12  A    between atoms: C_43  and  C_46
                            x       y       z     vdW  Elec       q    Type
                         _______ _______ _______ _____ _____    ______ ____

>  <TORSDO>
F 12

$$$$
=
 OpenBabel11042414123D

 49 53  0  0  1  0  0  0  0  0999 V2000
  193.0590  175.9690  144.6210 S   0  0  0  0  0  0  0  0  0  0  0  0
  190.0040  174.0990  141.5660 C   0  0  0  0  0  3  0  0  0  0  0  0
  191.1650  172.1930  138.7450 C   0  0  0  0  0  0  0  0  0  0  0  0
  189.7340  171.6420  136.7630 N   0  0  0  0  0  2  0  0  0  0  0  0
  195.3600  174.2930  141.0180 O   0  0  0  0  0  0  0  0  0  0  0  0
  191.8600  172.5490  136.3840 N   0  0  0  0  0  0  0  0  0  0  0  0
  191.7530  175.2370  143.8650 C   0  0  0  0  0  0  0  0  0  0  0  0
  193.0610  174.2900  137.5200 C   0  0  2  0  0  3  0  0  0  0  0  0
  193.5300  174.9980  142.3600 C   0  0  0  0  0  0  0  0  0  0  0  0
  191.9390  172.8870  140.9070 N   0  0  0  0  0  2  0  0  0  0  0  0
  193.4390  174.9140  139.8560 N   0  0  0  0  0  2  0  0  0  0  0  0
  190.2150  171.3180  139.5100 C   0  0  0  0  0  1  0  0  0  0  0  0
  194.2060  175.2240  137.1640 C   0  0  0  0  0  1  0  0  0  0  0  0
  192.0160  172.9700  139.4760 C   0  0  0  0  0  0  0  0  0  0  0  0
  190.9770  172.1600  137.2550 C   0  0  0  0  0  0  0  0  0  0  0  0
  192.1670  174.7130  142.6260 C   0  0  0  0  0  0  0  0  0  0  0  0
  193.1810  173.7990  138.9500 C   0  0  1  0  0  3  0  0  0  0  0  0
  189.3140  174.6760  143.8150 C   0  0  0  0  0  2  0  0  0  0  0  0
  193.1800  173.0740  136.6490 C   0  0  0  0  0  2  0  0  0  0  0  0
  194.1770  174.7230  141.0640 C   0  0  0  0  0  0  0  0  0  0  0  0
  194.1750  175.6590  143.4050 C   0  0  0  0  0  0  0  0  0  0  0  0
  190.4680  175.2370  144.4260 O   0  0  0  0  0  0  0  0  0  0  0  0
  191.3210  173.9120  141.6950 C   0  0  0  0  0  0  0  0  0  0  0  0
  189.2240  175.0870  142.3590 C   0  0  2  0  0  3  0  0  0  0  0  0
  189.4210  171.5530  135.3440 C   0  0  0  0  0  1  0  0  0  0  0  0
  195.5810  176.1620  143.3940 C   0  0  0  0  0  2  0  0  0  0  0  0
  195.9980  173.9700  144.5810 N   0  0  0  0  0  2  0  0  0  0  0  0
  196.5160  175.1250  143.9160 C   0  0  0  0  0  0  0  0  0  0  0  0
  197.7600  175.2930  143.7940 O   0  0  0  0  0  0  0  0  0  0  0  0
  197.0940  173.2470  146.5120 O   0  0  0  0  0  1  0  0  0  0  0  0
  196.8640  172.9540  145.1650 C   0  0  1  0  0  3  0  0  0  0  0  0
  196.2520  171.5550  145.0050 C   0  0  2  0  0  3  0  0  0  0  0  0
  194.8970  171.4680  145.7590 C   0  0  0  0  0  3  0  0  0  0  0  0
  193.8510  170.6560  145.0130 C   0  0  0  0  0  2  0  0  0  0  0  0
  193.7590  172.1700  145.0410 C   0  0  0  0  0  2  0  0  0  0  0  0
  196.9410  169.7040  146.5620 C   0  0  0  0  0  1  0  0  0  0  0  0
  197.2980  169.4990  144.2320 O   0  0  0  0  0  1  0  0  0  0  0  0
  197.2810  170.4310  145.2730 C   0  0  1  0  0  3  0  0  0  0  0  0
  187.8890  175.0620  141.9500 O   0  0  0  0  0  0  0  0  0  0  0  0
  187.6110  176.3710  141.5470 C   0  0  1  0  0  3  0  0  0  0  0  0
  187.4420  176.4160  140.1610 O   0  0  0  0  0  1  0  0  0  0  0  0
  186.3710  176.9090  142.2620 C   0  0  0  0  0  2  0  0  0  0  0  0
  185.6850  178.5920  144.0650 N   0  0  0  0  0  0  0  0  0  0  0  0
  187.9240  177.9420  143.7340 O   0  0  0  0  0  0  0  0  0  0  0  0
  186.7150  177.8320  143.3950 C   0  0  0  0  0  0  0  0  0  0  0  0
  184.3400  178.6260  143.5130 C   0  0  0  0  0  1  0  0  0  0  0  0
  185.9280  179.3580  145.2250 N   0  0  0  0  0  2  0  0  0  0  0  0
  185.1910  178.6590  147.6350 C   0  0  0  0  0  3  0  0  0  0  0  0
  185.5350  178.9820  146.5210 C   0  0  0  0  0  0  0  0  0  0  0  0
  2 23  2  0  0  0  0
  2 24  1  0  0  0  0
  3 14  2  0  0  0  0
  3 12  1  0  0  0  0
  4 15  1  0  0  0  0
  5 20  2  0  0  0  0
  6 19  1  0  0  0  0
  6 15  2  0  0  0  0
  7 22  1  0  0  0  0
  7  1  1  0  0  0  0
  8 13  1  6  0  0  0
  8 17  1  0  0  0  0
  9 16  1  0  0  0  0
  9 21  2  0  0  0  0
 10 23  1  0  0  0  0
 11 20  1  0  0  0  0
 14 10  1  0  0  0  0
 15  3  1  0  0  0  0
 16  7  2  0  0  0  0
 17 14  1  1  0  0  0
 17 11  1  0  0  0  0
 18 22  1  0  0  0  0
 19  8  1  0  0  0  0
 20  9  1  0  0  0  0
 21  1  1  0  0  0  0
 23 16  1  0  0  0  0
 24 39  1  6  0  0  0
 24 18  1  0  0  0  0
 25  4  1  0  0  0  0
 26 21  1  0  0  0  0
 26 28  1  0  0  0  0
 27 31  1  0  0  0  0
 28 27  1  0  0  0  0
 29 28  2  0  0  0  0
 31 30  1  1  0  0  0
 32 31  1  1  0  0  0
 32 38  1  0  0  0  0
 32 33  1  0  0  0  0
 34 35  1  0  0  0  0
 34 33  1  0  0  0  0
 35 33  1  0  0  0  0
 37 38  1  0  0  0  0
 38 36  1  1  0  0  0
 40 41  1  6  0  0  0
 40 39  1  0  0  0  0
 40 42  1  0  0  0  0
 42 45  1  0  0  0  0
 43 47  1  0  0  0  0
 45 44  2  0  0  0  0
 45 43  1  0  0  0  0
 46 43  1  0  0  0  0
 47 49  1  0  0  0  0
 49 48  3  0  0  0  0
M  END
>  <MODEL>
9

>  <REMARK>
 VINA RESULT:      -6.4      2.196      8.669
  Name = 
  12 active torsions:
  status: ('A' for Active; 'I' for Inactive)
    1  A    between atoms: C_2  and  O_42
    2  A    between atoms: C_2  and  C_43
    3  A    between atoms: C_5  and  C_12
    4  A    between atoms: C_5  and  C_34
    5  A    between atoms: C_5  and  C_35
    6  A    between atoms: N_11  and  C_34
    7  A    between atoms: C_13  and  C_36
    8  A    between atoms: N_16  and  N_22
    9  A    between atoms: N_22  and  C_45
   10  A    between atoms: C_36  and  C_39
   11  A    between atoms: O_42  and  C_48
   12  A    between atoms: C_43  and  C_46
                            x       y       z     vdW  Elec       q    Type
                         _______ _______ _______ _____ _____    ______ ____

>  <TORSDO>
F 12

$$$$
