=
 OpenBabel11042418033D

 35 37  0  0  1  0  0  0  0  0999 V2000
  185.0360  177.9270  145.5910 C   0  0  0  0  0  0  0  0  0  0  0  0
  185.4330  177.9980  143.3440 C   0  0  0  0  0  0  0  0  0  0  0  0
  184.5090  178.8770  143.5540 N   0  0  0  0  0  0  0  0  0  0  0  0
  185.8800  177.2620  144.5630 C   0  0  1  0  0  3  0  0  0  0  0  0
  184.7630  177.3740  146.7140 N   0  0  0  0  0  2  0  0  0  0  0  0
  184.1280  178.9220  144.9550 C   0  0  0  0  0  2  0  0  0  0  0  0
  185.9330  177.7500  142.0290 N   0  0  0  0  0  2  0  0  0  0  0  0
  187.7120  175.9060  141.5390 C   0  0  0  0  0  0  0  0  0  0  0  0
  186.8890  176.7560  141.7700 C   0  0  0  0  0  0  0  0  0  0  0  0
  190.5930  172.9300  140.6930 C   0  0  0  0  0  3  0  0  0  0  0  0
  188.6040  174.1580  140.0690 C   0  0  0  0  0  3  0  0  0  0  0  0
  188.6890  174.8960  141.2530 C   0  0  0  0  0  0  0  0  0  0  0  0
  190.6860  173.6670  141.8830 C   0  0  0  0  0  0  0  0  0  0  0  0
  189.5550  173.1740  139.7880 C   0  0  0  0  0  3  0  0  0  0  0  0
  189.7280  174.6500  142.1550 C   0  0  0  0  0  3  0  0  0  0  0  0
  192.8960  172.4540  144.8380 C   0  0  0  0  0  1  0  0  0  0  0  0
  191.7370  173.4460  142.8330 N   0  0  0  0  0  2  0  0  0  0  0  0
  191.6980  172.5680  143.9650 C   0  0  0  0  0  0  0  0  0  0  0  0
  190.6710  171.8930  144.2360 O   0  0  0  0  0  0  0  0  0  0  0  0
  187.2800  177.5480  144.8310 N   0  0  0  0  0  2  0  0  0  0  0  0
  187.8720  176.3380  145.2190 N   0  0  0  0  0  2  0  0  0  0  0  0
  188.1760  176.4480  146.6380 C   0  0  2  0  0  3  0  0  0  0  0  0
  189.9860  174.6850  146.6200 C   0  0  0  0  0  2  0  0  0  0  0  0
  191.0290  175.7620  146.9100 C   0  0  2  0  0  3  0  0  0  0  0  0
  189.2430  177.5180  146.8730 C   0  0  0  0  0  2  0  0  0  0  0  0
  188.6320  175.0960  147.1970 C   0  0  0  0  0  2  0  0  0  0  0  0
  190.5930  177.0890  146.2980 C   0  0  0  0  0  2  0  0  0  0  0  0
  192.3100  175.3680  146.3460 N   0  0  0  0  0  2  0  0  0  0  0  0
  192.7480  176.4370  145.4570 C   0  0  0  0  0  2  0  0  0  0  0  0
  194.7890  175.6960  146.4080 O   0  0  0  0  0  1  0  0  0  0  0  0
  194.2690  176.4760  145.3740 C   0  0  1  0  0  3  0  0  0  0  0  0
  194.7630  175.9510  144.0250 C   0  0  1  0  0  3  0  0  0  0  0  0
  193.8190  176.2120  143.0290 O   0  0  0  0  0  1  0  0  0  0  0  0
  196.0570  176.6040  143.6530 C   0  0  0  0  0  3  0  0  0  0  0  0
  196.3670  176.7290  142.4800 O   0  0  0  0  0  0  0  0  0  0  0  0
  1  5  2  0  0  0  0
  2  3  2  0  0  0  0
  2  4  1  0  0  0  0
  3  6  1  0  0  0  0
  4 20  1  1  0  0  0
  4  1  1  0  0  0  0
  6  1  1  0  0  0  0
  7  2  1  0  0  0  0
  8  9  3  0  0  0  0
  9  7  1  0  0  0  0
 10 13  1  0  0  0  0
 11 12  2  0  0  0  0
 12  8  1  0  0  0  0
 12 15  1  0  0  0  0
 13 15  2  0  0  0  0
 13 17  1  0  0  0  0
 14 11  1  0  0  0  0
 14 10  2  0  0  0  0
 17 18  1  0  0  0  0
 18 19  2  0  0  0  0
 18 16  1  0  0  0  0
 20 21  1  0  0  0  0
 22 21  1  6  0  0  0
 22 25  1  0  0  0  0
 22 26  1  0  0  0  0
 23 24  1  0  0  0  0
 23 26  1  0  0  0  0
 24 28  1  6  0  0  0
 27 25  1  0  0  0  0
 27 24  1  0  0  0  0
 29 28  1  0  0  0  0
 31 29  1  0  0  0  0
 31 30  1  1  0  0  0
 32 33  1  6  0  0  0
 32 31  1  0  0  0  0
 34 32  1  0  0  0  0
 35 34  2  0  0  0  0
M  END
>  <MODEL>
1

>  <REMARK>
 VINA RESULT:      -6.8      0.000      0.000
  Name = 
  11 active torsions:
  status: ('A' for Active; 'I' for Inactive)
    1  A    between atoms: C_3  and  C_9
    2  A    between atoms: C_3  and  C_35
    3  A    between atoms: C_7  and  N_16
    4  A    between atoms: C_8  and  C_20
    5  A    between atoms: C_12  and  N_21
    6  A    between atoms: C_13  and  N_17
    7  A    between atoms: N_16  and  N_22
    8  A    between atoms: N_17  and  C_34
    9  A    between atoms: C_18  and  N_22
   10  A    between atoms: N_31  and  C_32
   11  A    between atoms: C_34  and  C_35
                            x       y       z     vdW  Elec       q    Type
                         _______ _______ _______ _____ _____    ______ ____

>  <TORSDO>
F 11

$$$$
=
 OpenBabel11042418033D

 35 37  0  0  1  0  0  0  0  0999 V2000
  196.0300  174.0330  143.4360 C   0  0  0  0  0  0  0  0  0  0  0  0
  195.2400  176.0000  144.2840 C   0  0  0  0  0  0  0  0  0  0  0  0
  196.4580  176.2480  143.9300 N   0  0  0  0  0  0  0  0  0  0  0  0
  194.7990  174.5920  144.0560 C   0  0  1  0  0  3  0  0  0  0  0  0
  196.2880  172.7780  143.4360 N   0  0  0  0  0  2  0  0  0  0  0  0
  197.1050  175.0630  143.3930 C   0  0  0  0  0  2  0  0  0  0  0  0
  194.4220  177.0090  144.8810 N   0  0  0  0  0  2  0  0  0  0  0  0
  192.0050  176.5100  145.7230 C   0  0  0  0  0  0  0  0  0  0  0  0
  193.1200  176.7440  145.3300 C   0  0  0  0  0  0  0  0  0  0  0  0
  188.1050  175.6660  147.1210 C   0  0  0  0  0  3  0  0  0  0  0  0
  190.3960  174.9770  146.7580 C   0  0  0  0  0  3  0  0  0  0  0  0
  190.6810  176.2240  146.1960 C   0  0  0  0  0  0  0  0  0  0  0  0
  188.3840  176.9210  146.5590 C   0  0  0  0  0  0  0  0  0  0  0  0
  189.1080  174.6970  147.2200 C   0  0  0  0  0  3  0  0  0  0  0  0
  189.6770  177.1930  146.0990 C   0  0  0  0  0  3  0  0  0  0  0  0
  185.0840  178.9250  146.1340 C   0  0  0  0  0  1  0  0  0  0  0  0
  187.3820  177.9400  146.4430 N   0  0  0  0  0  2  0  0  0  0  0  0
  185.9820  177.7430  146.2110 C   0  0  0  0  0  0  0  0  0  0  0  0
  185.4970  176.5900  146.0710 O   0  0  0  0  0  0  0  0  0  0  0  0
  193.7150  174.5610  143.0890 N   0  0  0  0  0  2  0  0  0  0  0  0
  192.7400  173.6960  143.6030 N   0  0  0  0  0  2  0  0  0  0  0  0
  191.9610  173.2120  142.4740 C   0  0  2  0  0  3  0  0  0  0  0  0
  189.7280  173.3930  143.6430 C   0  0  0  0  0  2  0  0  0  0  0  0
  189.3260  174.5160  142.6890 C   0  0  2  0  0  3  0  0  0  0  0  0
  191.5600  174.3750  141.5650 C   0  0  0  0  0  2  0  0  0  0  0  0
  190.7210  172.4530  142.9600 C   0  0  0  0  0  2  0  0  0  0  0  0
  190.5600  175.3010  142.2570 C   0  0  0  0  0  2  0  0  0  0  0  0
  188.3920  175.4110  143.3520 N   0  0  0  0  0  2  0  0  0  0  0  0
  187.6530  176.1220  142.3170 C   0  0  0  0  0  2  0  0  0  0  0  0
  188.6780  178.2450  142.0690 O   0  0  0  0  0  1  0  0  0  0  0  0
  187.5740  177.6100  142.6400 C   0  0  1  0  0  3  0  0  0  0  0  0
  186.2810  178.2250  142.1010 C   0  0  1  0  0  3  0  0  0  0  0  0
  186.2410  178.1260  140.7080 O   0  0  0  0  0  1  0  0  0  0  0  0
  185.0910  177.5220  142.6730 C   0  0  0  0  0  3  0  0  0  0  0  0
  183.9890  178.0440  142.6300 O   0  0  0  0  0  0  0  0  0  0  0  0
  1  4  1  0  0  0  0
  2  7  1  0  0  0  0
  3  2  2  0  0  0  0
  4 20  1  6  0  0  0
  4  2  1  0  0  0  0
  5  1  2  0  0  0  0
  6  1  1  0  0  0  0
  6  3  1  0  0  0  0
  7  9  1  0  0  0  0
  8 12  1  0  0  0  0
  9  8  3  0  0  0  0
 10 14  1  0  0  0  0
 11 14  2  0  0  0  0
 12 11  1  0  0  0  0
 13 10  2  0  0  0  0
 15 12  2  0  0  0  0
 15 13  1  0  0  0  0
 16 18  1  0  0  0  0
 17 13  1  0  0  0  0
 18 17  1  0  0  0  0
 19 18  2  0  0  0  0
 20 21  1  0  0  0  0
 22 26  1  0  0  0  0
 22 21  1  1  0  0  0
 24 28  1  1  0  0  0
 24 23  1  0  0  0  0
 25 27  1  0  0  0  0
 25 22  1  0  0  0  0
 26 23  1  0  0  0  0
 27 24  1  0  0  0  0
 29 31  1  0  0  0  0
 29 28  1  0  0  0  0
 31 30  1  6  0  0  0
 32 33  1  6  0  0  0
 32 31  1  0  0  0  0
 32 34  1  0  0  0  0
 35 34  2  0  0  0  0
M  END
>  <MODEL>
2

>  <REMARK>
 VINA RESULT:      -6.7      3.111      8.241
  Name = 
  11 active torsions:
  status: ('A' for Active; 'I' for Inactive)
    1  A    between atoms: C_3  and  C_9
    2  A    between atoms: C_3  and  C_35
    3  A    between atoms: C_7  and  N_16
    4  A    between atoms: C_8  and  C_20
    5  A    between atoms: C_12  and  N_21
    6  A    between atoms: C_13  and  N_17
    7  A    between atoms: N_16  and  N_22
    8  A    between atoms: N_17  and  C_34
    9  A    between atoms: C_18  and  N_22
   10  A    between atoms: N_31  and  C_32
   11  A    between atoms: C_34  and  C_35
                            x       y       z     vdW  Elec       q    Type
                         _______ _______ _______ _____ _____    ______ ____

>  <TORSDO>
F 11

$$$$
=
 OpenBabel11042418033D

 35 37  0  0  1  0  0  0  0  0999 V2000
  184.9330  177.9580  145.4640 C   0  0  0  0  0  0  0  0  0  0  0  0
  185.3590  178.0210  143.2230 C   0  0  0  0  0  0  0  0  0  0  0  0
  184.4200  178.8880  143.4150 N   0  0  0  0  0  0  0  0  0  0  0  0
  185.8010  177.2990  144.4530 C   0  0  1  0  0  3  0  0  0  0  0  0
  184.6520  177.4070  146.5870 N   0  0  0  0  0  2  0  0  0  0  0  0
  184.0190  178.9360  144.8100 C   0  0  0  0  0  2  0  0  0  0  0  0
  185.8810  177.7730  141.9160 N   0  0  0  0  0  2  0  0  0  0  0  0
  187.6860  175.9440  141.4670 C   0  0  0  0  0  0  0  0  0  0  0  0
  186.8550  176.7920  141.6770 C   0  0  0  0  0  0  0  0  0  0  0  0
  190.5750  172.9460  140.7300 C   0  0  0  0  0  3  0  0  0  0  0  0
  189.7260  174.7450  142.1080 C   0  0  0  0  0  3  0  0  0  0  0  0
  188.6660  174.9270  141.2160 C   0  0  0  0  0  0  0  0  0  0  0  0
  189.5120  173.1220  139.8300 C   0  0  0  0  0  0  0  0  0  0  0  0
  190.6820  173.7550  141.8650 C   0  0  0  0  0  3  0  0  0  0  0  0
  188.5600  174.1160  140.0820 C   0  0  0  0  0  3  0  0  0  0  0  0
  189.5000  171.6970  136.2170 C   0  0  0  0  0  1  0  0  0  0  0  0
  189.3690  172.3100  138.6570 N   0  0  0  0  0  2  0  0  0  0  0  0
  189.7030  172.6800  137.3130 C   0  0  0  0  0  0  0  0  0  0  0  0
  190.1650  173.8190  137.0420 O   0  0  0  0  0  0  0  0  0  0  0  0
  187.1920  177.6070  144.7370 N   0  0  0  0  0  2  0  0  0  0  0  0
  187.8160  176.3950  145.0620 N   0  0  0  0  0  2  0  0  0  0  0  0
  188.5360  176.6050  146.3090 C   0  0  2  0  0  3  0  0  0  0  0  0
  189.8280  174.4380  146.1940 C   0  0  0  0  0  2  0  0  0  0  0  0
  191.1210  175.2260  145.9930 C   0  0  2  0  0  3  0  0  0  0  0  0
  189.8330  177.3730  146.0510 C   0  0  0  0  0  2  0  0  0  0  0  0
  188.8260  175.2670  146.9960 C   0  0  0  0  0  2  0  0  0  0  0  0
  190.8290  176.5290  145.2570 C   0  0  0  0  0  2  0  0  0  0  0  0
  192.0620  174.4340  145.2190 N   0  0  0  0  0  2  0  0  0  0  0  0
  192.8930  175.3570  144.4560 C   0  0  0  0  0  2  0  0  0  0  0  0
  194.6940  174.4400  143.2170 O   0  0  0  0  0  1  0  0  0  0  0  0
  194.3510  174.9140  144.4840 C   0  0  1  0  0  3  0  0  0  0  0  0
  195.2730  176.0720  144.8750 C   0  0  1  0  0  3  0  0  0  0  0  0
  195.9040  176.5920  143.7430 O   0  0  0  0  0  1  0  0  0  0  0  0
  194.4910  177.1600  145.5390 C   0  0  0  0  0  3  0  0  0  0  0  0
  194.3380  177.1570  146.7500 O   0  0  0  0  0  0  0  0  0  0  0  0
  1  5  2  0  0  0  0
  2  3  2  0  0  0  0
  2  4  1  0  0  0  0
  3  6  1  0  0  0  0
  4 20  1  1  0  0  0
  4  1  1  0  0  0  0
  6  1  1  0  0  0  0
  7  2  1  0  0  0  0
  8  9  3  0  0  0  0
  9  7  1  0  0  0  0
 10 14  1  0  0  0  0
 12  8  1  0  0  0  0
 12 11  1  0  0  0  0
 13 15  1  0  0  0  0
 13 10  2  0  0  0  0
 14 11  2  0  0  0  0
 15 12  2  0  0  0  0
 16 18  1  0  0  0  0
 17 13  1  0  0  0  0
 18 17  1  0  0  0  0
 19 18  2  0  0  0  0
 20 21  1  0  0  0  0
 22 21  1  6  0  0  0
 22 26  1  0  0  0  0
 23 26  1  0  0  0  0
 24 28  1  6  0  0  0
 24 23  1  0  0  0  0
 25 22  1  0  0  0  0
 27 24  1  0  0  0  0
 27 25  1  0  0  0  0
 29 31  1  0  0  0  0
 29 28  1  0  0  0  0
 31 30  1  6  0  0  0
 31 32  1  0  0  0  0
 32 33  1  6  0  0  0
 32 34  1  0  0  0  0
 34 35  2  0  0  0  0
M  END
>  <MODEL>
3

>  <REMARK>
 VINA RESULT:      -6.7      1.855      2.913
  Name = 
  11 active torsions:
  status: ('A' for Active; 'I' for Inactive)
    1  A    between atoms: C_3  and  C_9
    2  A    between atoms: C_3  and  C_35
    3  A    between atoms: C_7  and  N_16
    4  A    between atoms: C_8  and  C_20
    5  A    between atoms: C_12  and  N_21
    6  A    between atoms: C_13  and  N_17
    7  A    between atoms: N_16  and  N_22
    8  A    between atoms: N_17  and  C_34
    9  A    between atoms: C_18  and  N_22
   10  A    between atoms: N_31  and  C_32
   11  A    between atoms: C_34  and  C_35
                            x       y       z     vdW  Elec       q    Type
                         _______ _______ _______ _____ _____    ______ ____

>  <TORSDO>
F 11

$$$$
=
 OpenBabel11042418033D

 35 37  0  0  1  0  0  0  0  0999 V2000
  184.7800  177.9980  145.4720 C   0  0  0  0  0  0  0  0  0  0  0  0
  185.4980  177.8110  143.3130 C   0  0  0  0  0  0  0  0  0  0  0  0
  184.5980  178.7380  143.2920 N   0  0  0  0  0  0  0  0  0  0  0  0
  185.7290  177.1970  144.6540 C   0  0  1  0  0  3  0  0  0  0  0  0
  184.3200  177.5800  146.5930 N   0  0  0  0  0  2  0  0  0  0  0  0
  184.0230  178.9480  144.6100 C   0  0  0  0  0  2  0  0  0  0  0  0
  186.1700  177.4040  142.1190 N   0  0  0  0  0  2  0  0  0  0  0  0
  187.9060  175.4570  142.1100 C   0  0  0  0  0  0  0  0  0  0  0  0
  187.1040  176.3570  142.1090 C   0  0  0  0  0  0  0  0  0  0  0  0
  190.7210  172.3030  142.1400 C   0  0  0  0  0  3  0  0  0  0  0  0
  188.4380  173.0770  142.3570 C   0  0  0  0  0  3  0  0  0  0  0  0
  188.8620  174.3880  142.1210 C   0  0  0  0  0  0  0  0  0  0  0  0
  191.1530  173.6160  141.9010 C   0  0  0  0  0  0  0  0  0  0  0  0
  189.3680  172.0340  142.3670 C   0  0  0  0  0  3  0  0  0  0  0  0
  190.2150  174.6540  141.8930 C   0  0  0  0  0  3  0  0  0  0  0  0
  194.6070  174.4520  140.3330 C   0  0  0  0  0  1  0  0  0  0  0  0
  192.5320  173.9300  141.6630 N   0  0  0  0  0  2  0  0  0  0  0  0
  193.1610  174.1140  140.3880 C   0  0  0  0  0  0  0  0  0  0  0  0
  192.5140  173.9950  139.3150 O   0  0  0  0  0  0  0  0  0  0  0  0
  187.0880  177.4640  145.0960 N   0  0  0  0  0  2  0  0  0  0  0  0
  187.6600  176.2240  145.4130 N   0  0  0  0  0  2  0  0  0  0  0  0
  188.4420  176.4120  146.6250 C   0  0  2  0  0  3  0  0  0  0  0  0
  190.0420  174.5130  146.1620 C   0  0  0  0  0  2  0  0  0  0  0  0
  191.1750  175.5200  145.9720 C   0  0  2  0  0  3  0  0  0  0  0  0
  189.5780  177.4070  146.3770 C   0  0  0  0  0  2  0  0  0  0  0  0
  188.9950  175.0730  147.1240 C   0  0  0  0  0  2  0  0  0  0  0  0
  190.6210  176.8300  145.4210 C   0  0  0  0  0  2  0  0  0  0  0  0
  192.1580  174.9840  145.0460 N   0  0  0  0  0  2  0  0  0  0  0  0
  193.2340  174.3980  145.8350 C   0  0  0  0  0  2  0  0  0  0  0  0
  195.0620  173.8430  144.4320 O   0  0  0  0  0  1  0  0  0  0  0  0
  194.5920  174.8330  145.2960 C   0  0  1  0  0  3  0  0  0  0  0  0
  194.4910  176.1670  144.5540 C   0  0  1  0  0  3  0  0  0  0  0  0
  194.6930  177.2290  145.4380 O   0  0  0  0  0  1  0  0  0  0  0  0
  195.5140  176.2380  143.4650 C   0  0  0  0  0  3  0  0  0  0  0  0
  196.5020  176.9410  143.5940 O   0  0  0  0  0  0  0  0  0  0  0  0
  1  5  2  0  0  0  0
  2  4  1  0  0  0  0
  3  2  2  0  0  0  0
  3  6  1  0  0  0  0
  4 20  1  1  0  0  0
  4  1  1  0  0  0  0
  6  1  1  0  0  0  0
  7  2  1  0  0  0  0
  8 12  1  0  0  0  0
  9  8  3  0  0  0  0
  9  7  1  0  0  0  0
 10 14  1  0  0  0  0
 11 14  2  0  0  0  0
 12 11  1  0  0  0  0
 13 10  2  0  0  0  0
 15 13  1  0  0  0  0
 15 12  2  0  0  0  0
 16 18  1  0  0  0  0
 17 13  1  0  0  0  0
 18 17  1  0  0  0  0
 19 18  2  0  0  0  0
 20 21  1  0  0  0  0
 22 21  1  6  0  0  0
 22 26  1  0  0  0  0
 23 26  1  0  0  0  0
 24 28  1  6  0  0  0
 24 23  1  0  0  0  0
 25 22  1  0  0  0  0
 27 24  1  0  0  0  0
 27 25  1  0  0  0  0
 28 29  1  0  0  0  0
 31 30  1  6  0  0  0
 31 29  1  0  0  0  0
 32 31  1  0  0  0  0
 32 33  1  1  0  0  0
 34 35  2  0  0  0  0
 34 32  1  0  0  0  0
M  END
>  <MODEL>
4

>  <REMARK>
 VINA RESULT:      -6.5      1.562      1.914
  Name = 
  11 active torsions:
  status: ('A' for Active; 'I' for Inactive)
    1  A    between atoms: C_3  and  C_9
    2  A    between atoms: C_3  and  C_35
    3  A    between atoms: C_7  and  N_16
    4  A    between atoms: C_8  and  C_20
    5  A    between atoms: C_12  and  N_21
    6  A    between atoms: C_13  and  N_17
    7  A    between atoms: N_16  and  N_22
    8  A    between atoms: N_17  and  C_34
    9  A    between atoms: C_18  and  N_22
   10  A    between atoms: N_31  and  C_32
   11  A    between atoms: C_34  and  C_35
                            x       y       z     vdW  Elec       q    Type
                         _______ _______ _______ _____ _____    ______ ____

>  <TORSDO>
F 11

$$$$
=
 OpenBabel11042418033D

 35 37  0  0  1  0  0  0  0  0999 V2000
  185.0450  178.0360  145.5450 C   0  0  0  0  0  0  0  0  0  0  0  0
  185.4990  177.6250  143.3460 C   0  0  0  0  0  0  0  0  0  0  0  0
  184.6390  178.5900  143.3410 N   0  0  0  0  0  0  0  0  0  0  0  0
  185.8610  177.1210  144.7040 C   0  0  1  0  0  3  0  0  0  0  0  0
  184.7040  177.7410  146.7450 N   0  0  0  0  0  2  0  0  0  0  0  0
  184.2300  178.9420  144.6890 C   0  0  0  0  0  2  0  0  0  0  0  0
  186.0110  177.0830  142.1270 N   0  0  0  0  0  2  0  0  0  0  0  0
  187.6640  175.0660  142.0930 C   0  0  0  0  0  0  0  0  0  0  0  0
  186.8960  175.9950  142.1080 C   0  0  0  0  0  0  0  0  0  0  0  0
  190.3790  171.8260  142.0390 C   0  0  0  0  0  3  0  0  0  0  0  0
  189.1840  173.5380  143.2620 C   0  0  0  0  0  3  0  0  0  0  0  0
  188.5860  173.9670  142.0740 C   0  0  0  0  0  0  0  0  0  0  0  0
  189.7820  172.2500  140.8420 C   0  0  0  0  0  0  0  0  0  0  0  0
  190.0810  172.4670  143.2450 C   0  0  0  0  0  3  0  0  0  0  0  0
  188.8840  173.3240  140.8690 C   0  0  0  0  0  3  0  0  0  0  0  0
  191.2220  171.2110  137.3870 C   0  0  0  0  0  1  0  0  0  0  0  0
  190.0620  171.6160  139.5870 N   0  0  0  0  0  2  0  0  0  0  0  0
  191.0630  172.0010  138.6370 C   0  0  0  0  0  0  0  0  0  0  0  0
  191.8110  172.9930  138.8380 O   0  0  0  0  0  0  0  0  0  0  0  0
  187.2720  177.3580  144.9620 N   0  0  0  0  0  2  0  0  0  0  0  0
  187.8300  176.1240  145.3210 N   0  0  0  0  0  2  0  0  0  0  0  0
  188.0930  176.1740  146.7520 C   0  0  2  0  0  3  0  0  0  0  0  0
  190.2880  174.9300  146.6230 C   0  0  0  0  0  2  0  0  0  0  0  0
  191.0270  176.2020  147.0340 C   0  0  2  0  0  3  0  0  0  0  0  0
  188.8570  177.4510  147.1080 C   0  0  0  0  0  2  0  0  0  0  0  0
  188.8730  174.9340  147.2000 C   0  0  0  0  0  2  0  0  0  0  0  0
  190.2730  177.4290  146.5320 C   0  0  0  0  0  2  0  0  0  0  0  0
  192.3660  176.1940  146.4690 N   0  0  0  0  0  2  0  0  0  0  0  0
  192.2860  175.5790  145.1510 C   0  0  0  0  0  2  0  0  0  0  0  0
  194.2360  176.0140  143.8750 O   0  0  0  0  0  1  0  0  0  0  0  0
  192.9370  176.4720  144.1010 C   0  0  1  0  0  3  0  0  0  0  0  0
  192.1430  176.4570  142.7940 C   0  0  1  0  0  3  0  0  0  0  0  0
  192.1220  175.1680  142.2540 O   0  0  0  0  0  1  0  0  0  0  0  0
  190.7370  176.9080  143.0320 C   0  0  0  0  0  3  0  0  0  0  0  0
  190.4560  178.0950  142.9930 O   0  0  0  0  0  0  0  0  0  0  0  0
  1  5  2  0  0  0  0
  2  4  1  0  0  0  0
  3  2  2  0  0  0  0
  3  6  1  0  0  0  0
  4 20  1  1  0  0  0
  4  1  1  0  0  0  0
  6  1  1  0  0  0  0
  7  2  1  0  0  0  0
  8  9  3  0  0  0  0
  9  7  1  0  0  0  0
 10 14  1  0  0  0  0
 12  8  1  0  0  0  0
 12 11  1  0  0  0  0
 13 15  1  0  0  0  0
 13 10  2  0  0  0  0
 14 11  2  0  0  0  0
 15 12  2  0  0  0  0
 16 18  1  0  0  0  0
 17 13  1  0  0  0  0
 18 19  2  0  0  0  0
 18 17  1  0  0  0  0
 20 21  1  0  0  0  0
 22 21  1  6  0  0  0
 22 25  1  0  0  0  0
 22 26  1  0  0  0  0
 23 24  1  0  0  0  0
 23 26  1  0  0  0  0
 24 28  1  6  0  0  0
 27 24  1  0  0  0  0
 27 25  1  0  0  0  0
 29 28  1  0  0  0  0
 31 30  1  6  0  0  0
 31 29  1  0  0  0  0
 32 33  1  1  0  0  0
 32 34  1  0  0  0  0
 32 31  1  0  0  0  0
 35 34  2  0  0  0  0
M  END
>  <MODEL>
5

>  <REMARK>
 VINA RESULT:      -6.5      1.859      2.770
  Name = 
  11 active torsions:
  status: ('A' for Active; 'I' for Inactive)
    1  A    between atoms: C_3  and  C_9
    2  A    between atoms: C_3  and  C_35
    3  A    between atoms: C_7  and  N_16
    4  A    between atoms: C_8  and  C_20
    5  A    between atoms: C_12  and  N_21
    6  A    between atoms: C_13  and  N_17
    7  A    between atoms: N_16  and  N_22
    8  A    between atoms: N_17  and  C_34
    9  A    between atoms: C_18  and  N_22
   10  A    between atoms: N_31  and  C_32
   11  A    between atoms: C_34  and  C_35
                            x       y       z     vdW  Elec       q    Type
                         _______ _______ _______ _____ _____    ______ ____

>  <TORSDO>
F 11

$$$$
=
 OpenBabel11042418033D

 35 37  0  0  1  0  0  0  0  0999 V2000
  195.2350  176.6010  144.8040 C   0  0  0  0  0  0  0  0  0  0  0  0
  194.8470  175.0590  143.1670 C   0  0  0  0  0  0  0  0  0  0  0  0
  196.1310  175.2010  143.2010 N   0  0  0  0  0  0  0  0  0  0  0  0
  194.0990  175.9170  144.1320 C   0  0  1  0  0  3  0  0  0  0  0  0
  195.0970  177.7190  145.4160 N   0  0  0  0  0  2  0  0  0  0  0  0
  196.5280  176.1890  144.1900 C   0  0  0  0  0  2  0  0  0  0  0  0
  194.2250  174.1680  142.2380 N   0  0  0  0  0  2  0  0  0  0  0  0
  191.6330  173.9350  142.0660 C   0  0  0  0  0  0  0  0  0  0  0  0
  192.8310  174.0460  142.1410 C   0  0  0  0  0  0  0  0  0  0  0  0
  187.4330  173.5220  141.8280 C   0  0  0  0  0  3  0  0  0  0  0  0
  189.6060  172.5810  142.3260 C   0  0  0  0  0  3  0  0  0  0  0  0
  190.2080  173.7950  141.9840 C   0  0  0  0  0  0  0  0  0  0  0  0
  188.0300  174.7440  141.4830 C   0  0  0  0  0  0  0  0  0  0  0  0
  188.2170  172.4440  142.2480 C   0  0  0  0  0  3  0  0  0  0  0  0
  189.4210  174.8720  141.5650 C   0  0  0  0  0  3  0  0  0  0  0  0
  185.9500  178.0160  141.2480 C   0  0  0  0  0  1  0  0  0  0  0  0
  187.2570  175.8710  141.0500 N   0  0  0  0  0  2  0  0  0  0  0  0
  186.7180  176.9100  141.8770 C   0  0  0  0  0  0  0  0  0  0  0  0
  186.8810  176.9050  143.1250 O   0  0  0  0  0  0  0  0  0  0  0  0
  193.3980  175.0870  145.0980 N   0  0  0  0  0  2  0  0  0  0  0  0
  192.1110  175.6230  145.2320 N   0  0  0  0  0  2  0  0  0  0  0  0
  191.4230  174.8330  146.2420 C   0  0  2  0  0  3  0  0  0  0  0  0
  190.2070  176.7920  147.2740 C   0  0  0  0  0  2  0  0  0  0  0  0
  188.8800  176.2290  146.7680 C   0  0  2  0  0  3  0  0  0  0  0  0
  190.0900  174.3150  145.6970 C   0  0  0  0  0  2  0  0  0  0  0  0
  191.2030  175.6590  147.5150 C   0  0  0  0  0  2  0  0  0  0  0  0
  189.1020  175.4590  145.4700 C   0  0  0  0  0  2  0  0  0  0  0  0
  187.9450  177.3160  146.5300 N   0  0  0  0  0  2  0  0  0  0  0  0
  186.5980  176.7780  146.6740 C   0  0  0  0  0  2  0  0  0  0  0  0
  186.2680  178.9550  147.5520 O   0  0  0  0  0  1  0  0  0  0  0  0
  185.5980  177.8990  146.9330 C   0  0  1  0  0  3  0  0  0  0  0  0
  184.9570  178.3800  145.6300 C   0  0  1  0  0  3  0  0  0  0  0  0
  183.6240  178.7360  145.8470 O   0  0  0  0  0  1  0  0  0  0  0  0
  185.6960  179.5640  145.0910 C   0  0  0  0  0  3  0  0  0  0  0  0
  185.3550  180.0740  144.0360 O   0  0  0  0  0  0  0  0  0  0  0  0
  1  5  2  0  0  0  0
  2  3  2  0  0  0  0
  2  4  1  0  0  0  0
  3  6  1  0  0  0  0
  4  1  1  0  0  0  0
  4 20  1  1  0  0  0
  6  1  1  0  0  0  0
  7  2  1  0  0  0  0
  8  9  3  0  0  0  0
  9  7  1  0  0  0  0
 10 14  1  0  0  0  0
 12  8  1  0  0  0  0
 12 11  1  0  0  0  0
 13 15  1  0  0  0  0
 13 10  2  0  0  0  0
 14 11  2  0  0  0  0
 15 12  2  0  0  0  0
 16 18  1  0  0  0  0
 17 13  1  0  0  0  0
 17 18  1  0  0  0  0
 18 19  2  0  0  0  0
 20 21  1  0  0  0  0
 22 21  1  6  0  0  0
 22 26  1  0  0  0  0
 23 26  1  0  0  0  0
 24 28  1  6  0  0  0
 24 23  1  0  0  0  0
 25 22  1  0  0  0  0
 27 25  1  0  0  0  0
 27 24  1  0  0  0  0
 28 29  1  0  0  0  0
 29 31  1  0  0  0  0
 31 30  1  6  0  0  0
 32 33  1  1  0  0  0
 32 31  1  0  0  0  0
 34 32  1  0  0  0  0
 35 34  2  0  0  0  0
M  END
>  <MODEL>
6

>  <REMARK>
 VINA RESULT:      -6.4      3.410      7.368
  Name = 
  11 active torsions:
  status: ('A' for Active; 'I' for Inactive)
    1  A    between atoms: C_3  and  C_9
    2  A    between atoms: C_3  and  C_35
    3  A    between atoms: C_7  and  N_16
    4  A    between atoms: C_8  and  C_20
    5  A    between atoms: C_12  and  N_21
    6  A    between atoms: C_13  and  N_17
    7  A    between atoms: N_16  and  N_22
    8  A    between atoms: N_17  and  C_34
    9  A    between atoms: C_18  and  N_22
   10  A    between atoms: N_31  and  C_32
   11  A    between atoms: C_34  and  C_35
                            x       y       z     vdW  Elec       q    Type
                         _______ _______ _______ _____ _____    ______ ____

>  <TORSDO>
F 11

$$$$
=
 OpenBabel11042418033D

 35 37  0  0  1  0  0  0  0  0999 V2000
  186.2390  177.5200  140.7780 C   0  0  0  0  0  0  0  0  0  0  0  0
  186.3060  178.0440  142.9980 C   0  0  0  0  0  0  0  0  0  0  0  0
  185.2310  178.6040  142.5500 N   0  0  0  0  0  0  0  0  0  0  0  0
  187.1020  177.3120  141.9700 C   0  0  1  0  0  3  0  0  0  0  0  0
  186.6900  177.4320  139.5820 N   0  0  0  0  0  2  0  0  0  0  0  0
  185.0710  178.3780  141.1240 C   0  0  0  0  0  2  0  0  0  0  0  0
  186.6900  178.1720  144.3690 N   0  0  0  0  0  2  0  0  0  0  0  0
  188.9070  177.1580  145.2950 C   0  0  0  0  0  0  0  0  0  0  0  0
  187.8840  177.6260  144.8620 C   0  0  0  0  0  0  0  0  0  0  0  0
  192.4840  175.5190  146.8440 C   0  0  0  0  0  3  0  0  0  0  0  0
  190.1510  176.0980  147.1230 C   0  0  0  0  0  3  0  0  0  0  0  0
  190.1210  176.6030  145.8200 C   0  0  0  0  0  0  0  0  0  0  0  0
  192.4620  176.0240  145.5340 C   0  0  0  0  0  0  0  0  0  0  0  0
  191.3330  175.5560  147.6360 C   0  0  0  0  0  3  0  0  0  0  0  0
  191.2740  176.5640  145.0300 C   0  0  0  0  0  3  0  0  0  0  0  0
  195.9280  176.6170  143.8840 C   0  0  0  0  0  1  0  0  0  0  0  0
  193.6220  176.0010  144.6930 N   0  0  0  0  0  2  0  0  0  0  0  0
  194.8110  176.7850  144.8510 C   0  0  0  0  0  0  0  0  0  0  0  0
  194.9300  177.6120  145.7920 O   0  0  0  0  0  0  0  0  0  0  0  0
  187.1470  175.8960  142.2920 N   0  0  0  0  0  2  0  0  0  0  0  0
  188.4760  175.4840  142.1200 N   0  0  0  0  0  2  0  0  0  0  0  0
  188.4500  174.0520  141.8650 C   0  0  2  0  0  3  0  0  0  0  0  0
  190.8200  173.9320  140.9990 C   0  0  0  0  0  2  0  0  0  0  0  0
  191.2210  173.1150  142.2270 C   0  0  2  0  0  3  0  0  0  0  0  0
  188.8840  173.2810  143.1130 C   0  0  0  0  0  2  0  0  0  0  0  0
  189.3460  173.7010  140.6720 C   0  0  0  0  0  2  0  0  0  0  0  0
  190.3630  173.5150  143.4220 C   0  0  0  0  0  2  0  0  0  0  0  0
  192.6210  173.3520  142.5370 N   0  0  0  0  0  2  0  0  0  0  0  0
  192.9910  172.4540  143.6230 C   0  0  0  0  0  2  0  0  0  0  0  0
  195.0750  173.3320  142.9140 O   0  0  0  0  0  1  0  0  0  0  0  0
  194.5050  172.4030  143.7860 C   0  0  1  0  0  3  0  0  0  0  0  0
  194.9170  172.7170  145.2250 C   0  0  1  0  0  3  0  0  0  0  0  0
  194.7720  171.5840  146.0290 O   0  0  0  0  0  1  0  0  0  0  0  0
  196.3430  173.1690  145.2730 C   0  0  0  0  0  3  0  0  0  0  0  0
  196.7630  173.7790  146.2420 O   0  0  0  0  0  0  0  0  0  0  0  0
  1  6  1  0  0  0  0
  1  4  1  0  0  0  0
  2  7  1  0  0  0  0
  3  2  2  0  0  0  0
  4 20  1  1  0  0  0
  4  2  1  0  0  0  0
  5  1  2  0  0  0  0
  6  3  1  0  0  0  0
  7  9  1  0  0  0  0
  8 12  1  0  0  0  0
  9  8  3  0  0  0  0
 10 14  1  0  0  0  0
 11 14  2  0  0  0  0
 12 11  1  0  0  0  0
 13 10  2  0  0  0  0
 15 13  1  0  0  0  0
 15 12  2  0  0  0  0
 16 18  1  0  0  0  0
 17 18  1  0  0  0  0
 17 13  1  0  0  0  0
 18 19  2  0  0  0  0
 21 20  1  0  0  0  0
 22 21  1  1  0  0  0
 22 25  1  0  0  0  0
 23 24  1  0  0  0  0
 24 28  1  1  0  0  0
 24 27  1  0  0  0  0
 25 27  1  0  0  0  0
 26 23  1  0  0  0  0
 26 22  1  0  0  0  0
 28 29  1  0  0  0  0
 29 31  1  0  0  0  0
 31 30  1  6  0  0  0
 31 32  1  0  0  0  0
 32 34  1  0  0  0  0
 32 33  1  1  0  0  0
 34 35  2  0  0  0  0
M  END
>  <MODEL>
7

>  <REMARK>
 VINA RESULT:      -6.4      1.878      4.969
  Name = 
  11 active torsions:
  status: ('A' for Active; 'I' for Inactive)
    1  A    between atoms: C_3  and  C_9
    2  A    between atoms: C_3  and  C_35
    3  A    between atoms: C_7  and  N_16
    4  A    between atoms: C_8  and  C_20
    5  A    between atoms: C_12  and  N_21
    6  A    between atoms: C_13  and  N_17
    7  A    between atoms: N_16  and  N_22
    8  A    between atoms: N_17  and  C_34
    9  A    between atoms: C_18  and  N_22
   10  A    between atoms: N_31  and  C_32
   11  A    between atoms: C_34  and  C_35
                            x       y       z     vdW  Elec       q    Type
                         _______ _______ _______ _____ _____    ______ ____

>  <TORSDO>
F 11

$$$$
=
 OpenBabel11042418033D

 35 37  0  0  1  0  0  0  0  0999 V2000
  186.2210  177.4950  140.8240 C   0  0  0  0  0  0  0  0  0  0  0  0
  186.2730  178.0150  143.0460 C   0  0  0  0  0  0  0  0  0  0  0  0
  185.1920  178.5600  142.5950 N   0  0  0  0  0  0  0  0  0  0  0  0
  187.0840  177.2970  142.0180 C   0  0  1  0  0  3  0  0  0  0  0  0
  186.6780  177.4170  139.6290 N   0  0  0  0  0  2  0  0  0  0  0  0
  185.0400  178.3350  141.1680 C   0  0  0  0  0  2  0  0  0  0  0  0
  186.6510  178.1440  144.4180 N   0  0  0  0  0  2  0  0  0  0  0  0
  188.8820  177.1640  145.3480 C   0  0  0  0  0  0  0  0  0  0  0  0
  187.8520  177.6140  144.9140 C   0  0  0  0  0  0  0  0  0  0  0  0
  192.4930  175.6010  146.8950 C   0  0  0  0  0  3  0  0  0  0  0  0
  190.0870  175.8310  147.0160 C   0  0  0  0  0  3  0  0  0  0  0  0
  190.1080  176.6350  145.8730 C   0  0  0  0  0  0  0  0  0  0  0  0
  192.5220  176.4060  145.7460 C   0  0  0  0  0  0  0  0  0  0  0  0
  191.2800  175.3140  147.5280 C   0  0  0  0  0  3  0  0  0  0  0  0
  191.3220  176.9190  145.2410 C   0  0  0  0  0  3  0  0  0  0  0  0
  195.6720  176.4150  143.4730 C   0  0  0  0  0  1  0  0  0  0  0  0
  193.7460  176.7200  145.0690 N   0  0  0  0  0  2  0  0  0  0  0  0
  194.4100  175.9200  144.0830 C   0  0  0  0  0  0  0  0  0  0  0  0
  193.9470  174.8060  143.7230 O   0  0  0  0  0  0  0  0  0  0  0  0
  187.1480  175.8800  142.3370 N   0  0  0  0  0  2  0  0  0  0  0  0
  188.3600  175.4040  141.8190 N   0  0  0  0  0  2  0  0  0  0  0  0
  188.8870  174.4460  142.7790 C   0  0  2  0  0  3  0  0  0  0  0  0
  189.1150  172.5590  141.1150 C   0  0  0  0  0  2  0  0  0  0  0  0
  190.6350  172.6380  141.2400 C   0  0  2  0  0  3  0  0  0  0  0  0
  190.4120  174.5460  142.8480 C   0  0  0  0  0  2  0  0  0  0  0  0
  188.4540  173.0220  142.4120 C   0  0  0  0  0  2  0  0  0  0  0  0
  191.0590  174.0710  141.5470 C   0  0  0  0  0  2  0  0  0  0  0  0
  191.2530  172.2080  139.9970 N   0  0  0  0  0  2  0  0  0  0  0  0
  190.1860  171.7940  139.0940 C   0  0  0  0  0  2  0  0  0  0  0  0
  189.6580  171.5720  136.7940 O   0  0  0  0  0  1  0  0  0  0  0  0
  190.4520  172.3000  137.6820 C   0  0  1  0  0  3  0  0  0  0  0  0
  190.1370  173.7920  137.5600 C   0  0  1  0  0  3  0  0  0  0  0  0
  190.7240  174.3190  136.4080 O   0  0  0  0  0  1  0  0  0  0  0  0
  188.6590  174.0100  137.4970 C   0  0  0  0  0  3  0  0  0  0  0  0
  188.0740  174.5370  138.4290 O   0  0  0  0  0  0  0  0  0  0  0  0
  1  6  1  0  0  0  0
  1  4  1  0  0  0  0
  2  7  1  0  0  0  0
  3  2  2  0  0  0  0
  4 20  1  1  0  0  0
  4  2  1  0  0  0  0
  5  1  2  0  0  0  0
  6  3  1  0  0  0  0
  7  9  1  0  0  0  0
  8 12  1  0  0  0  0
  9  8  3  0  0  0  0
 10 14  1  0  0  0  0
 11 14  2  0  0  0  0
 12 11  1  0  0  0  0
 13 10  2  0  0  0  0
 15 13  1  0  0  0  0
 15 12  2  0  0  0  0
 16 18  1  0  0  0  0
 17 13  1  0  0  0  0
 18 17  1  0  0  0  0
 19 18  2  0  0  0  0
 21 20  1  0  0  0  0
 22 21  1  6  0  0  0
 22 25  1  0  0  0  0
 23 24  1  0  0  0  0
 23 26  1  0  0  0  0
 24 28  1  6  0  0  0
 24 27  1  0  0  0  0
 26 22  1  0  0  0  0
 27 25  1  0  0  0  0
 29 28  1  0  0  0  0
 31 30  1  6  0  0  0
 31 29  1  0  0  0  0
 32 33  1  6  0  0  0
 32 31  1  0  0  0  0
 34 32  1  0  0  0  0
 34 35  2  0  0  0  0
M  END
>  <MODEL>
8

>  <REMARK>
 VINA RESULT:      -6.3      2.705      6.158
  Name = 
  11 active torsions:
  status: ('A' for Active; 'I' for Inactive)
    1  A    between atoms: C_3  and  C_9
    2  A    between atoms: C_3  and  C_35
    3  A    between atoms: C_7  and  N_16
    4  A    between atoms: C_8  and  C_20
    5  A    between atoms: C_12  and  N_21
    6  A    between atoms: C_13  and  N_17
    7  A    between atoms: N_16  and  N_22
    8  A    between atoms: N_17  and  C_34
    9  A    between atoms: C_18  and  N_22
   10  A    between atoms: N_31  and  C_32
   11  A    between atoms: C_34  and  C_35
                            x       y       z     vdW  Elec       q    Type
                         _______ _______ _______ _____ _____    ______ ____

>  <TORSDO>
F 11

$$$$
=
 OpenBabel11042418033D

 35 37  0  0  1  0  0  0  0  0999 V2000
  186.1760  177.5680  140.6960 C   0  0  0  0  0  0  0  0  0  0  0  0
  186.1010  178.0220  142.9310 C   0  0  0  0  0  0  0  0  0  0  0  0
  185.0590  178.6010  142.4320 N   0  0  0  0  0  0  0  0  0  0  0  0
  186.9610  177.3180  141.9340 C   0  0  1  0  0  3  0  0  0  0  0  0
  186.7040  177.5160  139.5290 N   0  0  0  0  0  2  0  0  0  0  0  0
  184.9910  178.4200  140.9920 C   0  0  0  0  0  2  0  0  0  0  0  0
  186.3960  178.1040  144.3270 N   0  0  0  0  0  2  0  0  0  0  0  0
  188.5540  177.0580  145.3530 C   0  0  0  0  0  0  0  0  0  0  0  0
  187.5540  177.5370  144.8790 C   0  0  0  0  0  0  0  0  0  0  0  0
  192.0740  175.4030  147.0100 C   0  0  0  0  0  3  0  0  0  0  0  0
  189.7030  175.8620  147.1590 C   0  0  0  0  0  3  0  0  0  0  0  0
  189.7490  176.4980  145.9150 C   0  0  0  0  0  0  0  0  0  0  0  0
  192.1280  176.0390  145.7600 C   0  0  0  0  0  0  0  0  0  0  0  0
  190.8660  175.3140  147.7070 C   0  0  0  0  0  3  0  0  0  0  0  0
  190.9580  176.5840  145.2190 C   0  0  0  0  0  3  0  0  0  0  0  0
  195.7070  176.8660  144.4970 C   0  0  0  0  0  1  0  0  0  0  0  0
  193.3490  176.1470  145.0150 N   0  0  0  0  0  2  0  0  0  0  0  0
  194.5210  176.8790  145.3930 C   0  0  0  0  0  0  0  0  0  0  0  0
  194.5670  177.5340  146.4670 O   0  0  0  0  0  0  0  0  0  0  0  0
  186.9800  175.8920  142.2120 N   0  0  0  0  0  2  0  0  0  0  0  0
  188.3070  175.4680  142.0550 N   0  0  0  0  0  2  0  0  0  0  0  0
  188.3200  174.0260  142.2460 C   0  0  2  0  0  3  0  0  0  0  0  0
  190.1080  173.5830  140.5170 C   0  0  0  0  0  2  0  0  0  0  0  0
  191.0660  173.1520  141.6270 C   0  0  2  0  0  3  0  0  0  0  0  0
  189.3120  173.6440  143.3460 C   0  0  0  0  0  2  0  0  0  0  0  0
  188.6630  173.3110  140.9350 C   0  0  0  0  0  2  0  0  0  0  0  0
  190.7520  173.9120  142.9110 C   0  0  0  0  0  2  0  0  0  0  0  0
  192.4350  173.4270  141.2250 N   0  0  0  0  0  2  0  0  0  0  0  0
  193.2610  173.4000  142.4260 C   0  0  0  0  0  2  0  0  0  0  0  0
  195.5540  173.2680  141.8390 O   0  0  0  0  0  1  0  0  0  0  0  0
  194.5560  174.1730  142.2040 C   0  0  1  0  0  3  0  0  0  0  0  0
  194.3870  175.2310  141.1130 C   0  0  1  0  0  3  0  0  0  0  0  0
  193.7940  176.3810  141.6400 O   0  0  0  0  0  1  0  0  0  0  0  0
  195.7150  175.5930  140.5270 C   0  0  0  0  0  3  0  0  0  0  0  0
  196.3000  176.5960  140.9030 O   0  0  0  0  0  0  0  0  0  0  0  0
  1  6  1  0  0  0  0
  1  4  1  0  0  0  0
  2  7  1  0  0  0  0
  3  2  2  0  0  0  0
  4 20  1  1  0  0  0
  4  2  1  0  0  0  0
  5  1  2  0  0  0  0
  6  3  1  0  0  0  0
  7  9  1  0  0  0  0
  8 12  1  0  0  0  0
  9  8  3  0  0  0  0
 10 14  1  0  0  0  0
 11 14  2  0  0  0  0
 12 11  1  0  0  0  0
 13 10  2  0  0  0  0
 15 13  1  0  0  0  0
 15 12  2  0  0  0  0
 16 18  1  0  0  0  0
 17 18  1  0  0  0  0
 17 13  1  0  0  0  0
 18 19  2  0  0  0  0
 21 20  1  0  0  0  0
 22 21  1  6  0  0  0
 22 25  1  0  0  0  0
 23 26  1  0  0  0  0
 23 24  1  0  0  0  0
 24 28  1  6  0  0  0
 24 27  1  0  0  0  0
 26 22  1  0  0  0  0
 27 25  1  0  0  0  0
 28 29  1  0  0  0  0
 31 30  1  6  0  0  0
 31 29  1  0  0  0  0
 32 33  1  1  0  0  0
 32 31  1  0  0  0  0
 34 35  2  0  0  0  0
 34 32  1  0  0  0  0
M  END
>  <MODEL>
9

>  <REMARK>
 VINA RESULT:      -6.3      1.851      4.853
  Name = 
  11 active torsions:
  status: ('A' for Active; 'I' for Inactive)
    1  A    between atoms: C_3  and  C_9
    2  A    between atoms: C_3  and  C_35
    3  A    between atoms: C_7  and  N_16
    4  A    between atoms: C_8  and  C_20
    5  A    between atoms: C_12  and  N_21
    6  A    between atoms: C_13  and  N_17
    7  A    between atoms: N_16  and  N_22
    8  A    between atoms: N_17  and  C_34
    9  A    between atoms: C_18  and  N_22
   10  A    between atoms: N_31  and  C_32
   11  A    between atoms: C_34  and  C_35
                            x       y       z     vdW  Elec       q    Type
                         _______ _______ _______ _____ _____    ______ ____

>  <TORSDO>
F 11

$$$$
