=
 OpenBabel11042416183D

 66 73  0  0  1  0  0  0  0  0999 V2000
  188.6500  174.0700  138.7970 C   0  0  0  0  0  3  0  0  0  0  0  0
  190.4440  172.6730  138.5030 C   0  0  0  0  0  0  0  0  0  0  0  0
  191.4730  172.3130  143.0830 C   0  0  0  0  0  3  0  0  0  0  0  0
  191.4650  171.6180  136.4500 C   0  0  0  0  0  1  0  0  0  0  0  0
  188.7260  174.3920  141.3660 C   0  0  0  0  0  0  0  0  0  0  0  0
  192.4010  171.1880  138.6430 N   0  0  0  0  0  0  0  0  0  0  0  0
  190.2930  173.0310  139.8980 C   0  0  0  0  0  0  0  0  0  0  0  0
  192.0420  171.7150  141.0250 C   0  0  0  0  0  0  0  0  0  0  0  0
  189.3890  173.3430  137.8610 C   0  0  0  0  0  0  0  0  0  0  0  0
  190.6640  172.9780  142.2330 N   0  0  0  0  0  0  0  0  0  0  0  0
  191.4370  171.8470  137.9320 C   0  0  0  0  0  0  0  0  0  0  0  0
  192.6970  171.0970  139.9690 C   0  0  0  0  0  3  0  0  0  0  0  0
  190.9880  172.5850  140.9900 C   0  0  0  0  0  0  0  0  0  0  0  0
  192.3610  171.5230  142.3610 C   0  0  0  0  0  3  0  0  0  0  0  0
  189.5710  173.8950  142.6000 C   0  0  0  0  0  0  0  0  0  0  0  0
  189.2240  173.8700  140.0360 C   0  0  0  0  0  0  0  0  0  0  0  0
  189.7110  174.5600  135.6760 C   0  0  0  0  0  1  0  0  0  0  0  0
  189.1160  173.3460  136.3870 C   0  0  0  0  0  2  0  0  0  0  0  0
  190.1100  175.0190  143.5000 C   0  0  0  0  0  2  0  0  0  0  0  0
  189.5580  174.9010  144.9150 C   0  0  2  0  0  3  0  0  0  0  0  0
  188.5550  176.0290  145.2250 C   0  0  2  0  0  3  0  0  0  0  0  0
  188.9150  177.4290  144.7160 C   0  0  0  0  0  1  0  0  0  0  0  0
  187.9760  175.9780  146.5150 O   0  0  0  0  0  0  0  0  0  0  0  0
  188.0450  177.2560  147.0910 C   0  0  0  0  0  1  0  0  0  0  0  0
  190.6820  174.7920  145.9040 C   0  0  0  0  0  3  0  0  0  0  0  0
  191.8700  175.3740  145.7190 C   0  0  0  0  0  3  0  0  0  0  0  0
  192.9720  175.1940  146.7110 C   0  0  0  0  0  2  0  0  0  0  0  0
  194.1130  176.5280  144.9240 C   0  0  0  0  0  2  0  0  0  0  0  0
  195.2000  174.1270  145.5670 S   0  0  0  0  0  0  0  0  0  0  0  0
  194.3130  175.6100  146.1180 C   0  0  2  0  0  3  0  0  0  0  0  0
  195.6000  174.8330  143.9220 C   0  0  2  0  0  0  0  0  0  0  0  0
  195.2930  176.3200  143.9980 C   0  0  0  0  0  2  0  0  0  0  0  0
  194.8330  174.4710  141.4800 C   0  0  0  0  0  2  0  0  0  0  0  0
  193.6630  175.1500  142.1660 C   0  0  0  0  0  2  0  0  0  0  0  0
  194.5580  174.2130  142.9450 C   0  0  0  0  0  3  0  0  0  0  0  0
  197.0610  174.6620  143.6510 N   0  0  0  0  0  0  0  0  0  0  0  0
  197.6700  173.3880  143.7500 N   0  0  0  0  0  0  0  0  0  0  0  0
  196.9990  172.3070  143.6960 N   0  0  0  0  0  0  0  0  0  0  0  0
  197.6770  171.0180  143.7340 C   0  0  0  0  0  2  0  0  0  0  0  0
  196.8430  170.0250  144.5380 C   0  0  1  0  0  3  0  0  0  0  0  0
  195.4520  169.9710  146.4480 C   0  0  0  0  0  2  0  0  0  0  0  0
  196.8310  170.3810  145.9960 C   0  0  0  0  0  2  0  0  0  0  0  0
  195.3950  170.0680  144.1080 C   0  0  0  0  0  2  0  0  0  0  0  0
  194.5550  170.0590  145.3010 N   0  0  0  0  0  2  0  0  0  0  0  0
  197.9410  175.7280  143.1900 C   0  0  0  0  0  2  0  0  0  0  0  0
  197.9340  175.7900  141.7970 O   0  0  0  0  0  1  0  0  0  0  0  0
  188.5700  175.9090  141.3100 C   0  0  0  0  0  2  0  0  0  0  0  0
  187.1160  176.3210  141.5290 C   0  0  0  0  0  2  0  0  0  0  0  0
  186.9130  177.8180  141.3160 C   0  0  0  0  0  2  0  0  0  0  0  0
  183.1830  178.0050  142.0090 C   0  0  1  0  0  3  0  0  0  0  0  0
  185.4490  177.6620  143.2370 O   0  0  0  0  0  0  0  0  0  0  0  0
  185.6260  178.2860  141.9870 C   0  0  2  0  0  3  0  0  0  0  0  0
  184.4170  178.0060  141.1060 C   0  0  0  0  0  2  0  0  0  0  0  0
  184.4110  178.3380  143.9380 C   0  0  2  0  0  3  0  0  0  0  0  0
  183.3740  178.8650  143.1120 O   0  0  0  0  0  0  0  0  0  0  0  0
  186.3190  179.2130  145.0770 F   0  0  0  0  0  0  0  0  0  0  0  0
  184.8420  180.6520  144.1800 F   0  0  0  0  0  0  0  0  0  0  0  0
  184.9790  179.4390  144.8230 C   0  0  0  0  0  0  0  0  0  0  0  0
  184.2840  179.4830  146.0230 F   0  0  0  0  0  0  0  0  0  0  0  0
  181.8100  178.0460  140.0730 O   0  0  0  0  0  0  0  0  0  0  0  0
  181.9470  178.3840  141.2420 C   0  0  0  0  0  0  0  0  0  0  0  0
  180.8530  179.1560  141.9210 C   0  0  0  0  0  2  0  0  0  0  0  0
  179.4720  178.6120  141.5520 C   0  0  1  0  0  3  0  0  0  0  0  0
  178.8690  178.0500  142.6810 O   0  0  0  0  0  1  0  0  0  0  0  0
  178.5900  179.7340  141.0400 C   0  0  0  0  0  2  0  0  0  0  0  0
  178.9840  180.1190  139.7590 O   0  0  0  0  0  1  0  0  0  0  0  0
  1 16  1  0  0  0  0
  2  7  1  0  0  0  0
  4 11  1  0  0  0  0
  5 15  2  0  0  0  0
  6 12  2  0  0  0  0
  7 16  2  0  0  0  0
  7 13  1  0  0  0  0
  8 14  1  0  0  0  0
  9  2  1  0  0  0  0
  9  1  2  0  0  0  0
 10 15  1  0  0  0  0
 10  3  1  0  0  0  0
 11  2  2  0  0  0  0
 11  6  1  0  0  0  0
 12  8  1  0  0  0  0
 13  8  2  0  0  0  0
 13 10  1  0  0  0  0
 14  3  2  0  0  0  0
 15 19  1  0  0  0  0
 16  5  1  0  0  0  0
 17 18  1  0  0  0  0
 18  9  1  0  0  0  0
 20 19  1  6  0  0  0
 20 21  1  0  0  0  0
 20 25  1  0  0  0  0
 21 22  1  1  0  0  0
 21 23  1  0  0  0  0
 23 24  1  0  0  0  0
 26 25  2  0  0  0  0
 26 27  1  0  0  0  0
 28 30  1  0  0  0  0
 29 30  1  0  0  0  0
 30 27  1  6  0  0  0
 31 36  1  6  0  0  0
 31 32  1  0  0  0  0
 31 29  1  0  0  0  0
 32 28  1  0  0  0  0
 33 34  1  0  0  0  0
 33 35  1  0  0  0  0
 34 35  1  0  0  0  0
 35 31  1  0  0  0  0
 36 37  1  0  0  0  0
 38 39  1  0  0  0  0
 38 37  2  0  0  0  0
 40 39  1  6  0  0  0
 40 42  1  0  0  0  0
 42 41  1  0  0  0  0
 43 40  1  0  0  0  0
 43 44  1  0  0  0  0
 44 41  1  0  0  0  0
 45 36  1  0  0  0  0
 46 45  1  0  0  0  0
 47  5  1  0  0  0  0
 47 48  1  0  0  0  0
 49 48  1  0  0  0  0
 50 61  1  6  0  0  0
 50 55  1  0  0  0  0
 51 54  1  0  0  0  0
 52 49  1  6  0  0  0
 52 51  1  0  0  0  0
 53 52  1  0  0  0  0
 53 50  1  0  0  0  0
 54 58  1  6  0  0  0
 55 54  1  0  0  0  0
 57 58  1  0  0  0  0
 58 56  1  0  0  0  0
 58 59  1  0  0  0  0
 60 61  2  0  0  0  0
 61 62  1  0  0  0  0
 63 62  1  0  0  0  0
 63 64  1  1  0  0  0
 65 63  1  0  0  0  0
 66 65  1  0  0  0  0
M  END
>  <MODEL>
1

>  <REMARK>
 VINA RESULT:      -7.2      0.000      0.000
  Name = 
  23 active torsions:
  status: ('A' for Active; 'I' for Inactive)
    1  A    between atoms: C_1  and  C_5
    2  A    between atoms: C_1  and  C_27
    3  A    between atoms: N_2  and  N_11
    4  A    between atoms: C_5  and  C_37
    5  A    between atoms: C_7  and  C_10
    6  A    between atoms: C_7  and  N_59
    7  A    between atoms: C_9  and  N_11
    8  A    between atoms: N_11  and  C_54
    9  A    between atoms: C_12  and  C_53
   10  A    between atoms: C_12  and  C_64
   11  A    between atoms: C_13  and  C_53
   12  A    between atoms: C_23  and  C_37
   13  A    between atoms: C_24  and  C_38
   14  A    between atoms: C_24  and  C_56
   15  A    between atoms: C_28  and  C_36
   16  A    between atoms: C_28  and  C_46
   17  A    between atoms: C_30  and  C_51
   18  A    between atoms: C_35  and  C_61
   19  A    between atoms: O_41  and  C_44
   20  A    between atoms: C_42  and  C_54
   21  A    between atoms: C_44  and  C_53
   22  A    between atoms: C_47  and  C_50
   23  A    between atoms: C_51  and  C_56
                            x       y       z     vdW  Elec       q    Type
                         _______ _______ _______ _____ _____    ______ ____

>  <TORSDO>
F 23

$$$$
=
 OpenBabel11042416183D

 66 73  0  0  1  0  0  0  0  0999 V2000
  188.6610  174.1730  140.1070 C   0  0  0  0  0  3  0  0  0  0  0  0
  189.9910  172.3230  139.8490 C   0  0  0  0  0  0  0  0  0  0  0  0
  191.4540  172.2080  144.3230 C   0  0  0  0  0  3  0  0  0  0  0  0
  190.4470  170.8140  137.8790 C   0  0  0  0  0  1  0  0  0  0  0  0
  189.1350  174.7450  142.5900 C   0  0  0  0  0  0  0  0  0  0  0  0
  191.5080  170.3930  140.0160 N   0  0  0  0  0  0  0  0  0  0  0  0
  190.1100  172.8600  141.1900 C   0  0  0  0  0  0  0  0  0  0  0  0
  191.5920  171.2560  142.3250 C   0  0  0  0  0  0  0  0  0  0  0  0
  189.0700  173.1770  139.2180 C   0  0  0  0  0  0  0  0  0  0  0  0
  190.7410  172.9670  143.4650 N   0  0  0  0  0  0  0  0  0  0  0  0
  190.6620  171.2040  139.3120 C   0  0  0  0  0  0  0  0  0  0  0  0
  191.9330  170.3730  141.3100 C   0  0  0  0  0  3  0  0  0  0  0  0
  190.7990  172.3670  142.2650 C   0  0  0  0  0  0  0  0  0  0  0  0
  192.0150  171.1340  143.6400 C   0  0  0  0  0  3  0  0  0  0  0  0
  189.9720  174.1790  143.7990 C   0  0  0  0  0  0  0  0  0  0  0  0
  189.3150  173.9650  141.3050 C   0  0  0  0  0  0  0  0  0  0  0  0
  188.3900  174.4610  137.1580 C   0  0  0  0  0  1  0  0  0  0  0  0
  188.6260  173.0900  137.7890 C   0  0  0  0  0  2  0  0  0  0  0  0
  190.8860  175.2090  144.4820 C   0  0  0  0  0  2  0  0  0  0  0  0
  190.9700  174.9600  145.9820 C   0  0  2  0  0  3  0  0  0  0  0  0
  190.0330  175.9020  146.7640 C   0  0  2  0  0  3  0  0  0  0  0  0
  189.4740  177.1050  145.9990 C   0  0  0  0  0  1  0  0  0  0  0  0
  190.4170  176.1520  148.1020 O   0  0  0  0  0  0  0  0  0  0  0  0
  190.9070  177.4640  148.1930 C   0  0  0  0  0  1  0  0  0  0  0  0
  192.4000  175.0020  146.4370 C   0  0  0  0  0  3  0  0  0  0  0  0
  193.3560  175.6490  145.7660 C   0  0  0  0  0  3  0  0  0  0  0  0
  194.7730  175.6190  146.2360 C   0  0  0  0  0  2  0  0  0  0  0  0
  195.7380  176.1160  143.9780 C   0  0  0  0  0  2  0  0  0  0  0  0
  195.0940  173.5360  144.5140 S   0  0  0  0  0  0  0  0  0  0  0  0
  195.7020  175.1290  145.1320 C   0  0  2  0  0  3  0  0  0  0  0  0
  195.2130  174.0390  142.7540 C   0  0  2  0  0  0  0  0  0  0  0  0
  196.0260  175.3230  142.7200 C   0  0  0  0  0  2  0  0  0  0  0  0
  193.4530  174.2260  140.8690 C   0  0  0  0  0  2  0  0  0  0  0  0
  193.5680  175.6250  141.4440 C   0  0  0  0  0  2  0  0  0  0  0  0
  193.7610  174.4210  142.3370 C   0  0  0  0  0  3  0  0  0  0  0  0
  195.9500  172.9880  141.9860 N   0  0  0  0  0  0  0  0  0  0  0  0
  196.9970  173.3420  141.1020 N   0  0  0  0  0  0  0  0  0  0  0  0
  196.8560  173.3250  139.8360 N   0  0  0  0  0  0  0  0  0  0  0  0
  197.9410  173.7640  138.9700 C   0  0  0  0  0  2  0  0  0  0  0  0
  197.3810  174.6370  137.8500 C   0  0  1  0  0  3  0  0  0  0  0  0
  196.0530  174.4400  135.9050 C   0  0  0  0  0  2  0  0  0  0  0  0
  197.2860  173.8730  136.5610 C   0  0  0  0  0  2  0  0  0  0  0  0
  195.9660  175.0650  138.1610 C   0  0  0  0  0  2  0  0  0  0  0  0
  195.1580  174.9120  136.9550 N   0  0  0  0  0  2  0  0  0  0  0  0
  195.7300  171.5560  142.1350 C   0  0  0  0  0  2  0  0  0  0  0  0
  196.8060  170.9700  142.8010 O   0  0  0  0  0  1  0  0  0  0  0  0
  189.3640  176.2320  142.3370 C   0  0  0  0  0  2  0  0  0  0  0  0
  188.1060  176.8960  141.7800 C   0  0  0  0  0  2  0  0  0  0  0  0
  187.8510  178.2560  142.4220 C   0  0  0  0  0  2  0  0  0  0  0  0
  184.0990  177.8440  142.0060 C   0  0  1  0  0  3  0  0  0  0  0  0
  185.9730  177.5730  143.7870 O   0  0  0  0  0  0  0  0  0  0  0  0
  186.3710  178.4290  142.7420 C   0  0  2  0  0  3  0  0  0  0  0  0
  185.5110  178.1620  141.5140 C   0  0  0  0  0  2  0  0  0  0  0  0
  184.6850  177.9760  144.2370 C   0  0  2  0  0  3  0  0  0  0  0  0
  183.8340  178.5080  143.2230 O   0  0  0  0  0  0  0  0  0  0  0  0
  185.9210  178.6980  146.1490 F   0  0  0  0  0  0  0  0  0  0  0  0
  184.8840  180.2430  144.8860 F   0  0  0  0  0  0  0  0  0  0  0  0
  184.7950  178.9620  145.3920 C   0  0  0  0  0  0  0  0  0  0  0  0
  183.6680  178.8720  146.1960 F   0  0  0  0  0  0  0  0  0  0  0  0
  183.1170  177.7010  139.8490 O   0  0  0  0  0  0  0  0  0  0  0  0
  183.0690  178.1960  140.9690 C   0  0  0  0  0  0  0  0  0  0  0  0
  181.9510  179.1360  141.3140 C   0  0  0  0  0  2  0  0  0  0  0  0
  180.6230  178.3950  141.4660 C   0  0  1  0  0  3  0  0  0  0  0  0
  179.9930  178.7900  142.6500 O   0  0  0  0  0  1  0  0  0  0  0  0
  179.7090  178.7190  140.3000 C   0  0  0  0  0  2  0  0  0  0  0  0
  179.8020  180.0690  139.9670 O   0  0  0  0  0  1  0  0  0  0  0  0
  1 16  1  0  0  0  0
  2  7  1  0  0  0  0
  4 11  1  0  0  0  0
  5 15  2  0  0  0  0
  6 12  2  0  0  0  0
  7 16  2  0  0  0  0
  7 13  1  0  0  0  0
  8 14  1  0  0  0  0
  9  2  1  0  0  0  0
  9  1  2  0  0  0  0
 10 15  1  0  0  0  0
 10  3  1  0  0  0  0
 11  2  2  0  0  0  0
 11  6  1  0  0  0  0
 12  8  1  0  0  0  0
 13  8  2  0  0  0  0
 13 10  1  0  0  0  0
 14  3  2  0  0  0  0
 15 19  1  0  0  0  0
 16  5  1  0  0  0  0
 17 18  1  0  0  0  0
 18  9  1  0  0  0  0
 20 19  1  6  0  0  0
 20 25  1  0  0  0  0
 20 21  1  0  0  0  0
 21 22  1  6  0  0  0
 21 23  1  0  0  0  0
 23 24  1  0  0  0  0
 26 27  1  0  0  0  0
 26 25  2  0  0  0  0
 28 30  1  0  0  0  0
 29 30  1  0  0  0  0
 30 27  1  1  0  0  0
 31 36  1  6  0  0  0
 31 29  1  0  0  0  0
 32 31  1  0  0  0  0
 32 28  1  0  0  0  0
 33 34  1  0  0  0  0
 33 35  1  0  0  0  0
 34 35  1  0  0  0  0
 35 31  1  0  0  0  0
 36 45  1  0  0  0  0
 37 36  1  0  0  0  0
 38 37  2  0  0  0  0
 39 38  1  0  0  0  0
 40 43  1  0  0  0  0
 40 39  1  1  0  0  0
 41 42  1  0  0  0  0
 41 44  1  0  0  0  0
 42 40  1  0  0  0  0
 44 43  1  0  0  0  0
 45 46  1  0  0  0  0
 47  5  1  0  0  0  0
 48 47  1  0  0  0  0
 48 49  1  0  0  0  0
 50 61  1  6  0  0  0
 50 55  1  0  0  0  0
 51 54  1  0  0  0  0
 52 49  1  6  0  0  0
 52 51  1  0  0  0  0
 53 50  1  0  0  0  0
 53 52  1  0  0  0  0
 54 58  1  1  0  0  0
 55 54  1  0  0  0  0
 57 58  1  0  0  0  0
 58 56  1  0  0  0  0
 58 59  1  0  0  0  0
 60 61  2  0  0  0  0
 61 62  1  0  0  0  0
 62 63  1  0  0  0  0
 63 64  1  1  0  0  0
 65 63  1  0  0  0  0
 66 65  1  0  0  0  0
M  END
>  <MODEL>
2

>  <REMARK>
 VINA RESULT:      -7.0      2.038      3.222
  Name = 
  23 active torsions:
  status: ('A' for Active; 'I' for Inactive)
    1  A    between atoms: C_1  and  C_5
    2  A    between atoms: C_1  and  C_27
    3  A    between atoms: N_2  and  N_11
    4  A    between atoms: C_5  and  C_37
    5  A    between atoms: C_7  and  C_10
    6  A    between atoms: C_7  and  N_59
    7  A    between atoms: C_9  and  N_11
    8  A    between atoms: N_11  and  C_54
    9  A    between atoms: C_12  and  C_53
   10  A    between atoms: C_12  and  C_64
   11  A    between atoms: C_13  and  C_53
   12  A    between atoms: C_23  and  C_37
   13  A    between atoms: C_24  and  C_38
   14  A    between atoms: C_24  and  C_56
   15  A    between atoms: C_28  and  C_36
   16  A    between atoms: C_28  and  C_46
   17  A    between atoms: C_30  and  C_51
   18  A    between atoms: C_35  and  C_61
   19  A    between atoms: O_41  and  C_44
   20  A    between atoms: C_42  and  C_54
   21  A    between atoms: C_44  and  C_53
   22  A    between atoms: C_47  and  C_50
   23  A    between atoms: C_51  and  C_56
                            x       y       z     vdW  Elec       q    Type
                         _______ _______ _______ _____ _____    ______ ____

>  <TORSDO>
F 23

$$$$
=
 OpenBabel11042416183D

 66 73  0  0  1  0  0  0  0  0999 V2000
  193.6270  170.5590  143.9120 C   0  0  0  0  0  3  0  0  0  0  0  0
  195.2920  169.5440  142.7070 C   0  0  0  0  0  0  0  0  0  0  0  0
  193.4830  170.5960  138.4890 C   0  0  0  0  0  3  0  0  0  0  0  0
  197.4080  168.3520  143.3930 C   0  0  0  0  0  1  0  0  0  0  0  0
  192.0750  171.3460  141.9920 C   0  0  0  0  0  0  0  0  0  0  0  0
  196.8440  168.5960  141.0490 N   0  0  0  0  0  0  0  0  0  0  0  0
  194.2590  170.0540  141.8290 C   0  0  0  0  0  0  0  0  0  0  0  0
  195.1320  169.5870  139.5760 C   0  0  0  0  0  0  0  0  0  0  0  0
  194.8500  169.8910  143.9950 C   0  0  0  0  0  0  0  0  0  0  0  0
  193.1980  170.6630  139.8060 N   0  0  0  0  0  0  0  0  0  0  0  0
  196.4630  168.8480  142.3380 C   0  0  0  0  0  0  0  0  0  0  0  0
  196.3080  168.8970  139.8330 C   0  0  0  0  0  3  0  0  0  0  0  0
  194.2160  170.0820  140.4610 C   0  0  0  0  0  0  0  0  0  0  0  0
  194.6820  169.9140  138.3050 C   0  0  0  0  0  3  0  0  0  0  0  0
  192.0320  171.3260  140.4170 C   0  0  0  0  0  0  0  0  0  0  0  0
  193.2800  170.6420  142.5790 C   0  0  0  0  0  0  0  0  0  0  0  0
  196.2430  170.7520  145.9120 C   0  0  0  0  0  1  0  0  0  0  0  0
  195.5380  169.5520  145.2820 C   0  0  0  0  0  2  0  0  0  0  0  0
  190.7340  170.7600  139.8200 C   0  0  0  0  0  2  0  0  0  0  0  0
  189.8890  171.8640  139.1970 C   0  0  2  0  0  3  0  0  0  0  0  0
  190.4540  172.3060  137.8330 C   0  0  2  0  0  3  0  0  0  0  0  0
  190.4250  173.8070  137.5300 C   0  0  0  0  0  1  0  0  0  0  0  0
  190.1310  171.4560  136.7490 O   0  0  0  0  0  0  0  0  0  0  0  0
  190.4850  172.0980  135.5520 C   0  0  0  0  0  1  0  0  0  0  0  0
  189.7000  172.9880  140.1750 C   0  0  0  0  0  3  0  0  0  0  0  0
  188.5280  173.2500  140.7600 C   0  0  0  0  0  3  0  0  0  0  0  0
  188.3810  174.4110  141.6880 C   0  0  0  0  0  2  0  0  0  0  0  0
  187.7160  176.4170  140.3430 C   0  0  0  0  0  2  0  0  0  0  0  0
  186.4840  176.0590  142.7330 S   0  0  0  0  0  0  0  0  0  0  0  0
  187.2260  175.3080  141.2590 C   0  0  2  0  0  3  0  0  0  0  0  0
  186.4970  177.7510  142.0240 C   0  0  2  0  0  0  0  0  0  0  0  0
  186.7910  177.6000  140.5400 C   0  0  0  0  0  2  0  0  0  0  0  0
  188.8600  177.5150  143.0460 C   0  0  0  0  0  2  0  0  0  0  0  0
  188.0320  178.2020  144.1160 C   0  0  0  0  0  2  0  0  0  0  0  0
  187.7380  178.4500  142.6540 C   0  0  0  0  0  3  0  0  0  0  0  0
  185.1430  178.3660  142.1810 N   0  0  0  0  0  0  0  0  0  0  0  0
  184.7690  178.9870  143.3960 N   0  0  0  0  0  0  0  0  0  0  0  0
  184.2510  178.3390  144.3630 N   0  0  0  0  0  0  0  0  0  0  0  0
  183.9470  179.0090  145.6190 C   0  0  0  0  0  2  0  0  0  0  0  0
  184.5560  178.2250  146.7780 C   0  0  1  0  0  3  0  0  0  0  0  0
  186.3610  176.7630  147.2130 C   0  0  0  0  0  2  0  0  0  0  0  0
  185.1740  176.9430  146.3000 C   0  0  0  0  0  2  0  0  0  0  0  0
  185.6870  178.9980  147.4130 C   0  0  0  0  0  2  0  0  0  0  0  0
  186.8000  178.0840  147.6500 N   0  0  0  0  0  2  0  0  0  0  0  0
  184.1550  178.4600  141.1140 C   0  0  0  0  0  2  0  0  0  0  0  0
  182.9970  177.7690  141.4680 O   0  0  0  0  0  1  0  0  0  0  0  0
  190.7960  170.8240  142.6400 C   0  0  0  0  0  2  0  0  0  0  0  0
  190.0420  171.9470  143.3500 C   0  0  0  0  0  2  0  0  0  0  0  0
  190.4690  172.0820  144.8080 C   0  0  0  0  0  2  0  0  0  0  0  0
  191.9200  175.5200  144.1040 C   0  0  1  0  0  3  0  0  0  0  0  0
  189.8280  174.3900  145.1560 O   0  0  0  0  0  0  0  0  0  0  0  0
  190.9240  173.5060  145.1040 C   0  0  2  0  0  3  0  0  0  0  0  0
  191.9160  173.9920  144.0570 C   0  0  0  0  0  2  0  0  0  0  0  0
  190.2670  175.6230  145.7150 C   0  0  2  0  0  3  0  0  0  0  0  0
  191.6130  175.9780  145.4030 O   0  0  0  0  0  0  0  0  0  0  0  0
  189.7310  176.9120  147.6530 F   0  0  0  0  0  0  0  0  0  0  0  0
  189.0380  174.7760  147.5510 F   0  0  0  0  0  0  0  0  0  0  0  0
  190.0610  175.6410  147.2240 C   0  0  0  0  0  0  0  0  0  0  0  0
  191.2230  175.2270  147.8600 F   0  0  0  0  0  0  0  0  0  0  0  0
  193.3340  176.6160  142.5430 O   0  0  0  0  0  0  0  0  0  0  0  0
  193.2370  176.0760  143.6380 C   0  0  0  0  0  0  0  0  0  0  0  0
  194.4400  176.0000  144.5340 C   0  0  0  0  0  2  0  0  0  0  0  0
  195.5850  175.2360  143.8690 C   0  0  1  0  0  3  0  0  0  0  0  0
  195.0850  174.0980  143.2280 O   0  0  0  0  0  1  0  0  0  0  0  0
  196.2670  176.1130  142.8370 C   0  0  0  0  0  2  0  0  0  0  0  0
  196.8650  177.2140  143.4490 O   0  0  0  0  0  1  0  0  0  0  0  0
  1  9  1  0  0  0  0
  2  9  2  0  0  0  0
  3 10  1  0  0  0  0
  5 16  1  0  0  0  0
  5 47  1  0  0  0  0
  6 11  2  0  0  0  0
  7 16  1  0  0  0  0
  7  2  1  0  0  0  0
  8 12  2  0  0  0  0
  8 13  1  0  0  0  0
  9 18  1  0  0  0  0
 10 15  1  0  0  0  0
 10 13  1  0  0  0  0
 11  2  1  0  0  0  0
 11  4  1  0  0  0  0
 12  6  1  0  0  0  0
 13  7  2  0  0  0  0
 14  3  2  0  0  0  0
 14  8  1  0  0  0  0
 15  5  2  0  0  0  0
 16  1  2  0  0  0  0
 18 17  1  0  0  0  0
 19 15  1  0  0  0  0
 20 19  1  1  0  0  0
 20 25  1  0  0  0  0
 21 22  1  6  0  0  0
 21 20  1  0  0  0  0
 23 21  1  0  0  0  0
 24 23  1  0  0  0  0
 25 26  2  0  0  0  0
 26 27  1  0  0  0  0
 28 32  1  0  0  0  0
 28 30  1  0  0  0  0
 30 27  1  1  0  0  0
 30 29  1  0  0  0  0
 31 36  1  1  0  0  0
 31 35  1  0  0  0  0
 31 29  1  0  0  0  0
 32 31  1  0  0  0  0
 33 34  1  0  0  0  0
 35 33  1  0  0  0  0
 35 34  1  0  0  0  0
 36 37  1  0  0  0  0
 37 38  2  0  0  0  0
 38 39  1  0  0  0  0
 40 39  1  6  0  0  0
 40 43  1  0  0  0  0
 41 44  1  0  0  0  0
 42 40  1  0  0  0  0
 42 41  1  0  0  0  0
 43 44  1  0  0  0  0
 45 46  1  0  0  0  0
 45 36  1  0  0  0  0
 47 48  1  0  0  0  0
 48 49  1  0  0  0  0
 50 61  1  1  0  0  0
 50 55  1  0  0  0  0
 51 54  1  0  0  0  0
 52 49  1  6  0  0  0
 52 51  1  0  0  0  0
 53 50  1  0  0  0  0
 53 52  1  0  0  0  0
 54 58  1  1  0  0  0
 55 54  1  0  0  0  0
 58 57  1  0  0  0  0
 58 56  1  0  0  0  0
 58 59  1  0  0  0  0
 60 61  2  0  0  0  0
 61 62  1  0  0  0  0
 63 64  1  6  0  0  0
 63 62  1  0  0  0  0
 65 66  1  0  0  0  0
 65 63  1  0  0  0  0
M  END
>  <MODEL>
3

>  <REMARK>
 VINA RESULT:      -6.1      3.494      9.987
  Name = 
  23 active torsions:
  status: ('A' for Active; 'I' for Inactive)
    1  A    between atoms: C_1  and  C_5
    2  A    between atoms: C_1  and  C_27
    3  A    between atoms: N_2  and  N_11
    4  A    between atoms: C_5  and  C_37
    5  A    between atoms: C_7  and  C_10
    6  A    between atoms: C_7  and  N_59
    7  A    between atoms: C_9  and  N_11
    8  A    between atoms: N_11  and  C_54
    9  A    between atoms: C_12  and  C_53
   10  A    between atoms: C_12  and  C_64
   11  A    between atoms: C_13  and  C_53
   12  A    between atoms: C_23  and  C_37
   13  A    between atoms: C_24  and  C_38
   14  A    between atoms: C_24  and  C_56
   15  A    between atoms: C_28  and  C_36
   16  A    between atoms: C_28  and  C_46
   17  A    between atoms: C_30  and  C_51
   18  A    between atoms: C_35  and  C_61
   19  A    between atoms: O_41  and  C_44
   20  A    between atoms: C_42  and  C_54
   21  A    between atoms: C_44  and  C_53
   22  A    between atoms: C_47  and  C_50
   23  A    between atoms: C_51  and  C_56
                            x       y       z     vdW  Elec       q    Type
                         _______ _______ _______ _____ _____    ______ ____

>  <TORSDO>
F 23

$$$$
=
 OpenBabel11042416183D

 66 73  0  0  1  0  0  0  0  0999 V2000
  188.3680  174.2610  142.5630 C   0  0  0  0  0  3  0  0  0  0  0  0
  187.7540  175.2530  140.5900 C   0  0  0  0  0  0  0  0  0  0  0  0
  189.6220  171.9300  137.8280 C   0  0  0  0  0  3  0  0  0  0  0  0
  186.4510  177.3510  140.0710 C   0  0  0  0  0  1  0  0  0  0  0  0
  189.6690  172.2070  141.6670 C   0  0  0  0  0  0  0  0  0  0  0  0
  187.2960  175.9580  138.2770 N   0  0  0  0  0  0  0  0  0  0  0  0
  188.5410  174.0620  140.3440 C   0  0  0  0  0  0  0  0  0  0  0  0
  188.5310  173.8590  137.8910 C   0  0  0  0  0  0  0  0  0  0  0  0
  187.6710  175.3270  141.9910 C   0  0  0  0  0  0  0  0  0  0  0  0
  189.5460  172.3060  139.1210 N   0  0  0  0  0  0  0  0  0  0  0  0
  187.2100  176.1340  139.6300 C   0  0  0  0  0  0  0  0  0  0  0  0
  187.8470  174.9960  137.4860 C   0  0  0  0  0  3  0  0  0  0  0  0
  188.8530  173.4570  139.1570 C   0  0  0  0  0  0  0  0  0  0  0  0
  189.0100  172.8870  137.0250 C   0  0  0  0  0  3  0  0  0  0  0  0
  190.0500  171.5540  140.2830 C   0  0  0  0  0  0  0  0  0  0  0  0
  188.8990  173.5030  141.5380 C   0  0  0  0  0  0  0  0  0  0  0  0
  187.8970  177.0070  143.8580 C   0  0  0  0  0  1  0  0  0  0  0  0
  186.9970  176.4100  142.7770 C   0  0  0  0  0  2  0  0  0  0  0  0
  191.5470  171.2580  140.1070 C   0  0  0  0  0  2  0  0  0  0  0  0
  192.2720  172.4430  139.4810 C   0  0  2  0  0  3  0  0  0  0  0  0
  193.3500  171.9820  138.4820 C   0  0  2  0  0  3  0  0  0  0  0  0
  194.8050  172.0600  138.9560 C   0  0  0  0  0  1  0  0  0  0  0  0
  193.1230  172.3620  137.1390 O   0  0  0  0  0  0  0  0  0  0  0  0
  192.7520  173.7150  137.1090 C   0  0  0  0  0  1  0  0  0  0  0  0
  192.7820  173.3650  140.5510 C   0  0  0  0  0  3  0  0  0  0  0  0
  192.2330  174.5550  140.8060 C   0  0  0  0  0  3  0  0  0  0  0  0
  192.8090  175.4560  141.8480 C   0  0  0  0  0  2  0  0  0  0  0  0
  191.8750  177.4580  143.0280 C   0  0  0  0  0  2  0  0  0  0  0  0
  191.8660  175.1050  144.3770 S   0  0  0  0  0  0  0  0  0  0  0  0
  191.7230  175.9660  142.7880 C   0  0  2  0  0  3  0  0  0  0  0  0
  191.7780  176.6520  145.3590 C   0  0  2  0  0  0  0  0  0  0  0  0
  191.3210  177.7470  144.4080 C   0  0  0  0  0  2  0  0  0  0  0  0
  194.2890  176.1110  145.0640 C   0  0  0  0  0  2  0  0  0  0  0  0
  194.0240  175.9650  146.5510 C   0  0  0  0  0  2  0  0  0  0  0  0
  193.2520  176.9810  145.7390 C   0  0  0  0  0  3  0  0  0  0  0  0
  190.7530  176.4990  146.4370 N   0  0  0  0  0  0  0  0  0  0  0  0
  189.9080  177.5790  146.7880 N   0  0  0  0  0  0  0  0  0  0  0  0
  188.7190  177.4050  147.2090 N   0  0  0  0  0  0  0  0  0  0  0  0
  187.9110  178.5440  147.6230 C   0  0  0  0  0  2  0  0  0  0  0  0
  186.4380  178.1450  147.6440 C   0  0  1  0  0  3  0  0  0  0  0  0
  184.5690  178.0790  146.2000 C   0  0  0  0  0  2  0  0  0  0  0  0
  185.6270  179.0140  146.7260 C   0  0  0  0  0  2  0  0  0  0  0  0
  186.2550  176.7390  147.1220 C   0  0  0  0  0  2  0  0  0  0  0  0
  185.1120  176.7250  146.2130 N   0  0  0  0  0  2  0  0  0  0  0  0
  190.4770  175.2510  147.1360 C   0  0  0  0  0  2  0  0  0  0  0  0
  191.1830  175.2060  148.3380 O   0  0  0  0  0  1  0  0  0  0  0  0
  190.8640  172.3960  142.5960 C   0  0  0  0  0  2  0  0  0  0  0  0
  191.4660  171.0510  143.0000 C   0  0  0  0  0  2  0  0  0  0  0  0
  192.0000  171.0750  144.4280 C   0  0  0  0  0  2  0  0  0  0  0  0
  195.6060  172.0340  143.7170 C   0  0  1  0  0  3  0  0  0  0  0  0
  194.0560  171.3260  145.6810 O   0  0  0  0  0  0  0  0  0  0  0  0
  193.5190  170.9480  144.4350 C   0  0  2  0  0  3  0  0  0  0  0  0
  194.1450  171.7970  143.3370 C   0  0  0  0  0  2  0  0  0  0  0  0
  195.4180  170.9170  145.7310 C   0  0  2  0  0  3  0  0  0  0  0  0
  196.1020  170.9560  144.4800 O   0  0  0  0  0  0  0  0  0  0  0  0
  194.4370  169.2390  147.1190 F   0  0  0  0  0  0  0  0  0  0  0  0
  195.6590  168.5950  145.3450 F   0  0  0  0  0  0  0  0  0  0  0  0
  195.5480  169.5320  146.3510 C   0  0  0  0  0  0  0  0  0  0  0  0
  196.6840  169.4790  147.1460 F   0  0  0  0  0  0  0  0  0  0  0  0
  197.2220  171.3970  142.0990 O   0  0  0  0  0  0  0  0  0  0  0  0
  196.4550  172.2650  142.4990 C   0  0  0  0  0  0  0  0  0  0  0  0
  196.3430  173.5570  141.7420 C   0  0  0  0  0  2  0  0  0  0  0  0
  197.7170  174.1690  141.4720 C   0  0  1  0  0  3  0  0  0  0  0  0
  197.9400  174.2410  140.0940 O   0  0  0  0  0  1  0  0  0  0  0  0
  197.7860  175.5700  142.0490 C   0  0  0  0  0  2  0  0  0  0  0  0
  196.5060  176.0440  142.3350 O   0  0  0  0  0  1  0  0  0  0  0  0
  2  9  2  0  0  0  0
  3 10  1  0  0  0  0
  5 47  1  0  0  0  0
  6 11  2  0  0  0  0
  7  2  1  0  0  0  0
  7 16  1  0  0  0  0
  8 13  1  0  0  0  0
  9  1  1  0  0  0  0
  9 18  1  0  0  0  0
 10 13  1  0  0  0  0
 10 15  1  0  0  0  0
 11  4  1  0  0  0  0
 11  2  1  0  0  0  0
 12  8  2  0  0  0  0
 12  6  1  0  0  0  0
 13  7  2  0  0  0  0
 14  3  2  0  0  0  0
 14  8  1  0  0  0  0
 15  5  2  0  0  0  0
 16  5  1  0  0  0  0
 16  1  2  0  0  0  0
 18 17  1  0  0  0  0
 19 15  1  0  0  0  0
 20 19  1  1  0  0  0
 20 25  1  0  0  0  0
 21 22  1  1  0  0  0
 21 20  1  0  0  0  0
 23 21  1  0  0  0  0
 24 23  1  0  0  0  0
 25 26  2  0  0  0  0
 26 27  1  0  0  0  0
 28 32  1  0  0  0  0
 29 31  1  0  0  0  0
 30 27  1  6  0  0  0
 30 28  1  0  0  0  0
 30 29  1  0  0  0  0
 31 35  1  0  0  0  0
 31 36  1  1  0  0  0
 32 31  1  0  0  0  0
 33 35  1  0  0  0  0
 33 34  1  0  0  0  0
 35 34  1  0  0  0  0
 36 37  1  0  0  0  0
 36 45  1  0  0  0  0
 37 38  2  0  0  0  0
 38 39  1  0  0  0  0
 40 39  1  6  0  0  0
 41 44  1  0  0  0  0
 41 42  1  0  0  0  0
 42 40  1  0  0  0  0
 43 40  1  0  0  0  0
 44 43  1  0  0  0  0
 45 46  1  0  0  0  0
 47 48  1  0  0  0  0
 48 49  1  0  0  0  0
 50 61  1  6  0  0  0
 50 55  1  0  0  0  0
 51 54  1  0  0  0  0
 52 49  1  1  0  0  0
 52 51  1  0  0  0  0
 53 50  1  0  0  0  0
 53 52  1  0  0  0  0
 54 58  1  6  0  0  0
 55 54  1  0  0  0  0
 57 58  1  0  0  0  0
 58 56  1  0  0  0  0
 58 59  1  0  0  0  0
 60 61  2  0  0  0  0
 62 61  1  0  0  0  0
 63 64  1  6  0  0  0
 63 62  1  0  0  0  0
 63 65  1  0  0  0  0
 65 66  1  0  0  0  0
M  END
>  <MODEL>
4

>  <REMARK>
 VINA RESULT:      -6.0      5.451     10.274
  Name = 
  23 active torsions:
  status: ('A' for Active; 'I' for Inactive)
    1  A    between atoms: C_1  and  C_5
    2  A    between atoms: C_1  and  C_27
    3  A    between atoms: N_2  and  N_11
    4  A    between atoms: C_5  and  C_37
    5  A    between atoms: C_7  and  C_10
    6  A    between atoms: C_7  and  N_59
    7  A    between atoms: C_9  and  N_11
    8  A    between atoms: N_11  and  C_54
    9  A    between atoms: C_12  and  C_53
   10  A    between atoms: C_12  and  C_64
   11  A    between atoms: C_13  and  C_53
   12  A    between atoms: C_23  and  C_37
   13  A    between atoms: C_24  and  C_38
   14  A    between atoms: C_24  and  C_56
   15  A    between atoms: C_28  and  C_36
   16  A    between atoms: C_28  and  C_46
   17  A    between atoms: C_30  and  C_51
   18  A    between atoms: C_35  and  C_61
   19  A    between atoms: O_41  and  C_44
   20  A    between atoms: C_42  and  C_54
   21  A    between atoms: C_44  and  C_53
   22  A    between atoms: C_47  and  C_50
   23  A    between atoms: C_51  and  C_56
                            x       y       z     vdW  Elec       q    Type
                         _______ _______ _______ _____ _____    ______ ____

>  <TORSDO>
F 23

$$$$
=
 OpenBabel11042416183D

 66 73  0  0  1  0  0  0  0  0999 V2000
  187.6640  176.3240  146.5610 C   0  0  0  0  0  3  0  0  0  0  0  0
  187.0700  177.4650  144.6620 C   0  0  0  0  0  0  0  0  0  0  0  0
  188.9110  174.3270  141.6740 C   0  0  0  0  0  3  0  0  0  0  0  0
  185.7950  179.6100  144.2920 C   0  0  0  0  0  1  0  0  0  0  0  0
  188.9450  174.3250  145.5230 C   0  0  0  0  0  0  0  0  0  0  0  0
  186.6310  178.3400  142.4050 N   0  0  0  0  0  0  0  0  0  0  0  0
  187.8450  176.2850  144.3340 C   0  0  0  0  0  0  0  0  0  0  0  0
  187.8430  176.2600  141.8730 C   0  0  0  0  0  0  0  0  0  0  0  0
  186.9820  177.4370  146.0650 C   0  0  0  0  0  0  0  0  0  0  0  0
  188.8340  174.6100  142.9900 N   0  0  0  0  0  0  0  0  0  0  0  0
  186.5420  178.4190  143.7670 C   0  0  0  0  0  0  0  0  0  0  0  0
  187.1740  177.4320  141.5480 C   0  0  0  0  0  3  0  0  0  0  0  0
  188.1550  175.7630  143.1070 C   0  0  0  0  0  0  0  0  0  0  0  0
  188.3140  175.3470  140.9410 C   0  0  0  0  0  3  0  0  0  0  0  0
  189.3230  173.7700  144.0970 C   0  0  0  0  0  0  0  0  0  0  0  0
  188.1900  175.6370  145.4850 C   0  0  0  0  0  0  0  0  0  0  0  0
  185.9460  177.9380  148.3080 C   0  0  0  0  0  1  0  0  0  0  0  0
  186.3170  178.4690  146.9240 C   0  0  0  0  0  2  0  0  0  0  0  0
  190.8180  173.4690  143.9060 C   0  0  0  0  0  2  0  0  0  0  0  0
  191.0420  172.0050  143.5470 C   0  0  2  0  0  3  0  0  0  0  0  0
  192.1830  171.3880  144.3790 C   0  0  2  0  0  3  0  0  0  0  0  0
  193.1410  172.3680  145.0650 C   0  0  0  0  0  1  0  0  0  0  0  0
  192.7840  170.2400  143.8130 O   0  0  0  0  0  0  0  0  0  0  0  0
  194.0680  170.5800  143.3600 C   0  0  0  0  0  1  0  0  0  0  0  0
  191.2140  171.8530  142.0640 C   0  0  0  0  0  3  0  0  0  0  0  0
  190.3840  171.1300  141.3070 C   0  0  0  0  0  3  0  0  0  0  0  0
  190.6280  170.9710  139.8430 C   0  0  0  0  0  2  0  0  0  0  0  0
  188.9010  172.3490  138.6630 C   0  0  0  0  0  2  0  0  0  0  0  0
  191.4080  172.3440  137.6260 S   0  0  0  0  0  0  0  0  0  0  0  0
  190.3540  172.2730  139.1000 C   0  0  2  0  0  3  0  0  0  0  0  0
  190.0250  172.8050  136.5130 C   0  0  2  0  0  0  0  0  0  0  0  0
  188.8570  173.1940  137.4060 C   0  0  0  0  0  2  0  0  0  0  0  0
  190.6120  170.3540  135.9370 C   0  0  0  0  0  2  0  0  0  0  0  0
  190.4250  171.0420  134.5980 C   0  0  0  0  0  2  0  0  0  0  0  0
  189.6160  171.4840  135.7960 C   0  0  0  0  0  3  0  0  0  0  0  0
  190.4190  173.9970  135.6990 N   0  0  0  0  0  0  0  0  0  0  0  0
  191.7570  174.4570  135.6930 N   0  0  0  0  0  0  0  0  0  0  0  0
  192.6990  173.8050  135.1370 N   0  0  0  0  0  0  0  0  0  0  0  0
  194.0480  174.3520  135.0980 C   0  0  0  0  0  2  0  0  0  0  0  0
  194.7490  174.0810  136.4260 C   0  0  1  0  0  3  0  0  0  0  0  0
  196.7440  173.1170  137.2470 C   0  0  0  0  0  2  0  0  0  0  0  0
  195.5580  172.8180  136.3650 C   0  0  0  0  0  2  0  0  0  0  0  0
  195.7440  175.1730  136.7410 C   0  0  0  0  0  2  0  0  0  0  0  0
  196.9760  174.5570  137.2220 N   0  0  0  0  0  2  0  0  0  0  0  0
  189.5200  174.7130  134.8030 C   0  0  0  0  0  2  0  0  0  0  0  0
  188.4670  175.2740  135.5240 O   0  0  0  0  0  1  0  0  0  0  0  0
  190.1370  174.4320  146.4680 C   0  0  0  0  0  2  0  0  0  0  0  0
  190.1380  175.7710  147.2030 C   0  0  0  0  0  2  0  0  0  0  0  0
  191.5510  176.3170  147.3850 C   0  0  0  0  0  2  0  0  0  0  0  0
  193.8200  176.0290  144.3530 C   0  0  1  0  0  3  0  0  0  0  0  0
  191.3120  176.3170  144.9760 O   0  0  0  0  0  0  0  0  0  0  0  0
  192.1570  176.6950  146.0380 C   0  0  2  0  0  3  0  0  0  0  0  0
  193.5230  176.0480  145.8520 C   0  0  0  0  0  2  0  0  0  0  0  0
  191.7750  176.9420  143.7840 C   0  0  2  0  0  3  0  0  0  0  0  0
  193.1900  177.1130  143.7070 O   0  0  0  0  0  0  0  0  0  0  0  0
  190.3820  178.2700  142.3700 F   0  0  0  0  0  0  0  0  0  0  0  0
  190.1920  178.5020  144.5980 F   0  0  0  0  0  0  0  0  0  0  0  0
  191.0780  178.2780  143.5640 C   0  0  0  0  0  0  0  0  0  0  0  0
  192.0170  179.2990  143.5440 F   0  0  0  0  0  0  0  0  0  0  0  0
  195.8080  176.9150  143.4060 O   0  0  0  0  0  0  0  0  0  0  0  0
  195.3000  176.0370  144.0910 C   0  0  0  0  0  0  0  0  0  0  0  0
  196.1730  174.9780  144.7010 C   0  0  0  0  0  2  0  0  0  0  0  0
  196.2300  173.7270  143.8250 C   0  0  1  0  0  3  0  0  0  0  0  0
  195.3380  173.8570  142.7560 O   0  0  0  0  0  1  0  0  0  0  0  0
  197.6290  173.5420  143.2700 C   0  0  0  0  0  2  0  0  0  0  0  0
  197.9390  174.5670  142.3760 O   0  0  0  0  0  1  0  0  0  0  0  0
  2  9  2  0  0  0  0
  3 10  1  0  0  0  0
  5 47  1  0  0  0  0
  6 11  2  0  0  0  0
  7  2  1  0  0  0  0
  7 16  1  0  0  0  0
  8 13  1  0  0  0  0
  9  1  1  0  0  0  0
  9 18  1  0  0  0  0
 10 13  1  0  0  0  0
 10 15  1  0  0  0  0
 11  4  1  0  0  0  0
 11  2  1  0  0  0  0
 12  8  2  0  0  0  0
 12  6  1  0  0  0  0
 13  7  2  0  0  0  0
 14  3  2  0  0  0  0
 14  8  1  0  0  0  0
 15  5  2  0  0  0  0
 16  5  1  0  0  0  0
 16  1  2  0  0  0  0
 18 17  1  0  0  0  0
 19 15  1  0  0  0  0
 20 25  1  6  0  0  0
 20 19  1  0  0  0  0
 20 21  1  0  0  0  0
 21 22  1  6  0  0  0
 23 21  1  0  0  0  0
 24 23  1  0  0  0  0
 26 25  2  0  0  0  0
 27 26  1  0  0  0  0
 28 30  1  0  0  0  0
 29 30  1  0  0  0  0
 30 27  1  6  0  0  0
 31 36  1  6  0  0  0
 31 32  1  0  0  0  0
 31 29  1  0  0  0  0
 32 28  1  0  0  0  0
 34 35  1  0  0  0  0
 34 33  1  0  0  0  0
 35 33  1  0  0  0  0
 35 31  1  0  0  0  0
 37 36  1  0  0  0  0
 38 37  2  0  0  0  0
 39 38  1  0  0  0  0
 40 39  1  6  0  0  0
 40 43  1  0  0  0  0
 42 40  1  0  0  0  0
 42 41  1  0  0  0  0
 43 44  1  0  0  0  0
 44 41  1  0  0  0  0
 45 46  1  0  0  0  0
 45 36  1  0  0  0  0
 47 48  1  0  0  0  0
 48 49  1  0  0  0  0
 50 61  1  1  0  0  0
 50 53  1  0  0  0  0
 51 52  1  0  0  0  0
 52 49  1  1  0  0  0
 53 52  1  0  0  0  0
 54 58  1  1  0  0  0
 54 51  1  0  0  0  0
 55 54  1  0  0  0  0
 55 50  1  0  0  0  0
 56 58  1  0  0  0  0
 58 57  1  0  0  0  0
 59 58  1  0  0  0  0
 60 61  2  0  0  0  0
 61 62  1  0  0  0  0
 63 64  1  6  0  0  0
 63 62  1  0  0  0  0
 65 63  1  0  0  0  0
 66 65  1  0  0  0  0
M  END
>  <MODEL>
5

>  <REMARK>
 VINA RESULT:      -5.8      4.220      9.703
  Name = 
  23 active torsions:
  status: ('A' for Active; 'I' for Inactive)
    1  A    between atoms: C_1  and  C_5
    2  A    between atoms: C_1  and  C_27
    3  A    between atoms: N_2  and  N_11
    4  A    between atoms: C_5  and  C_37
    5  A    between atoms: C_7  and  C_10
    6  A    between atoms: C_7  and  N_59
    7  A    between atoms: C_9  and  N_11
    8  A    between atoms: N_11  and  C_54
    9  A    between atoms: C_12  and  C_53
   10  A    between atoms: C_12  and  C_64
   11  A    between atoms: C_13  and  C_53
   12  A    between atoms: C_23  and  C_37
   13  A    between atoms: C_24  and  C_38
   14  A    between atoms: C_24  and  C_56
   15  A    between atoms: C_28  and  C_36
   16  A    between atoms: C_28  and  C_46
   17  A    between atoms: C_30  and  C_51
   18  A    between atoms: C_35  and  C_61
   19  A    between atoms: O_41  and  C_44
   20  A    between atoms: C_42  and  C_54
   21  A    between atoms: C_44  and  C_53
   22  A    between atoms: C_47  and  C_50
   23  A    between atoms: C_51  and  C_56
                            x       y       z     vdW  Elec       q    Type
                         _______ _______ _______ _____ _____    ______ ____

>  <TORSDO>
F 23

$$$$
=
 OpenBabel11042416183D

 66 73  0  0  1  0  0  0  0  0999 V2000
  188.0080  175.8960  147.1230 C   0  0  0  0  0  3  0  0  0  0  0  0
  187.2330  176.9180  145.2220 C   0  0  0  0  0  0  0  0  0  0  0  0
  189.5550  174.1090  142.2400 C   0  0  0  0  0  3  0  0  0  0  0  0
  185.6260  178.8260  144.8470 C   0  0  0  0  0  1  0  0  0  0  0  0
  189.5940  174.1280  146.0890 C   0  0  0  0  0  0  0  0  0  0  0  0
  186.6540  177.7020  142.9630 N   0  0  0  0  0  0  0  0  0  0  0  0
  188.1880  175.8790  144.8960 C   0  0  0  0  0  0  0  0  0  0  0  0
  188.1860  175.8440  142.4350 C   0  0  0  0  0  0  0  0  0  0  0  0
  187.1530  176.8820  146.6250 C   0  0  0  0  0  0  0  0  0  0  0  0
  189.4340  174.3810  143.5560 N   0  0  0  0  0  0  0  0  0  0  0  0
  186.5550  177.7700  144.3250 C   0  0  0  0  0  0  0  0  0  0  0  0
  187.3360  176.8900  142.1080 C   0  0  0  0  0  3  0  0  0  0  0  0
  188.5770  175.4090  143.6710 C   0  0  0  0  0  0  0  0  0  0  0  0
  188.7980  175.0160  141.5050 C   0  0  0  0  0  3  0  0  0  0  0  0
  190.0560  173.6360  144.6650 C   0  0  0  0  0  0  0  0  0  0  0  0
  188.6370  175.2990  146.0490 C   0  0  0  0  0  0  0  0  0  0  0  0
  187.1690  178.8630  148.1850 C   0  0  0  0  0  1  0  0  0  0  0  0
  186.3310  177.7950  147.4830 C   0  0  0  0  0  2  0  0  0  0  0  0
  191.5790  173.5810  144.4710 C   0  0  0  0  0  2  0  0  0  0  0  0
  192.0130  172.2300  143.9150 C   0  0  2  0  0  3  0  0  0  0  0  0
  192.9980  171.5200  144.8640 C   0  0  2  0  0  3  0  0  0  0  0  0
  193.9230  172.4170  145.6920 C   0  0  0  0  0  1  0  0  0  0  0  0
  193.5900  170.3460  144.3430 O   0  0  0  0  0  0  0  0  0  0  0  0
  194.9770  170.5410  144.2540 C   0  0  0  0  0  1  0  0  0  0  0  0
  192.5190  172.3840  142.5100 C   0  0  0  0  0  3  0  0  0  0  0  0
  192.4180  171.4180  141.5930 C   0  0  0  0  0  3  0  0  0  0  0  0
  192.9810  171.6040  140.2220 C   0  0  0  0  0  2  0  0  0  0  0  0
  191.7050  170.2790  138.5230 C   0  0  0  0  0  2  0  0  0  0  0  0
  192.3060  172.8490  137.8980 S   0  0  0  0  0  0  0  0  0  0  0  0
  191.8730  171.6390  139.1770 C   0  0  2  0  0  3  0  0  0  0  0  0
  191.9420  171.6970  136.5180 C   0  0  2  0  0  0  0  0  0  0  0  0
  191.1910  170.5190  137.1180 C   0  0  0  0  0  2  0  0  0  0  0  0
  194.5110  171.9850  136.5030 C   0  0  0  0  0  2  0  0  0  0  0  0
  194.1070  171.9560  135.0410 C   0  0  0  0  0  2  0  0  0  0  0  0
  193.3280  171.1550  136.0580 C   0  0  0  0  0  3  0  0  0  0  0  0
  191.0480  172.3750  135.5280 N   0  0  0  0  0  0  0  0  0  0  0  0
  190.9770  173.7870  135.4690 N   0  0  0  0  0  0  0  0  0  0  0  0
  191.9480  174.5340  135.8170 N   0  0  0  0  0  0  0  0  0  0  0  0
  191.8520  175.9800  135.6740 C   0  0  0  0  0  2  0  0  0  0  0  0
  193.1980  176.6180  136.0110 C   0  0  1  0  0  3  0  0  0  0  0  0
  195.4400  176.5930  135.2650 C   0  0  0  0  0  2  0  0  0  0  0  0
  194.3320  175.6780  135.7200 C   0  0  0  0  0  2  0  0  0  0  0  0
  193.4520  177.8260  135.1400 C   0  0  0  0  0  2  0  0  0  0  0  0
  194.8330  177.7780  134.6700 N   0  0  0  0  0  2  0  0  0  0  0  0
  190.2690  171.6790  134.5130 C   0  0  0  0  0  2  0  0  0  0  0  0
  188.9440  171.5520  134.9270 O   0  0  0  0  0  1  0  0  0  0  0  0
  190.7550  174.4310  147.0320 C   0  0  0  0  0  2  0  0  0  0  0  0
  190.8830  175.9320  147.2820 C   0  0  0  0  0  2  0  0  0  0  0  0
  192.3340  176.3970  147.2080 C   0  0  0  0  0  2  0  0  0  0  0  0
  194.1490  176.2950  143.8740 C   0  0  1  0  0  3  0  0  0  0  0  0
  191.7440  176.3330  144.8610 O   0  0  0  0  0  0  0  0  0  0  0  0
  192.6930  176.8130  145.7860 C   0  0  2  0  0  3  0  0  0  0  0  0
  194.0760  176.3080  145.4010 C   0  0  0  0  0  2  0  0  0  0  0  0
  191.9590  176.9840  143.6140 C   0  0  2  0  0  3  0  0  0  0  0  0
  193.3210  177.2980  143.3280 O   0  0  0  0  0  0  0  0  0  0  0  0
  190.1830  178.2920  144.5310 F   0  0  0  0  0  0  0  0  0  0  0  0
  191.9150  179.3490  143.5610 F   0  0  0  0  0  0  0  0  0  0  0  0
  191.1010  178.2370  143.4990 C   0  0  0  0  0  0  0  0  0  0  0  0
  190.4300  178.2360  142.2850 F   0  0  0  0  0  0  0  0  0  0  0  0
  196.3660  177.1330  144.0250 O   0  0  0  0  0  0  0  0  0  0  0  0
  195.5660  176.4510  143.3950 C   0  0  0  0  0  0  0  0  0  0  0  0
  196.0180  175.7410  142.1520 C   0  0  0  0  0  2  0  0  0  0  0  0
  195.1220  174.5430  141.8360 C   0  0  1  0  0  3  0  0  0  0  0  0
  194.3420  174.8210  140.7090 O   0  0  0  0  0  1  0  0  0  0  0  0
  195.9710  173.3200  141.5470 C   0  0  0  0  0  2  0  0  0  0  0  0
  197.2390  173.4600  142.1100 O   0  0  0  0  0  1  0  0  0  0  0  0
  2  9  2  0  0  0  0
  3 10  1  0  0  0  0
  5 47  1  0  0  0  0
  6 11  2  0  0  0  0
  7  2  1  0  0  0  0
  7 16  1  0  0  0  0
  8 13  1  0  0  0  0
  9  1  1  0  0  0  0
  9 18  1  0  0  0  0
 10 13  1  0  0  0  0
 10 15  1  0  0  0  0
 11  4  1  0  0  0  0
 11  2  1  0  0  0  0
 12  8  2  0  0  0  0
 12  6  1  0  0  0  0
 13  7  2  0  0  0  0
 14  3  2  0  0  0  0
 14  8  1  0  0  0  0
 15  5  2  0  0  0  0
 16  5  1  0  0  0  0
 16  1  2  0  0  0  0
 18 17  1  0  0  0  0
 19 15  1  0  0  0  0
 20 25  1  6  0  0  0
 20 19  1  0  0  0  0
 20 21  1  0  0  0  0
 21 22  1  6  0  0  0
 23 21  1  0  0  0  0
 24 23  1  0  0  0  0
 26 25  2  0  0  0  0
 27 26  1  0  0  0  0
 28 30  1  0  0  0  0
 29 30  1  0  0  0  0
 30 27  1  1  0  0  0
 31 36  1  6  0  0  0
 31 32  1  0  0  0  0
 31 29  1  0  0  0  0
 32 28  1  0  0  0  0
 34 35  1  0  0  0  0
 34 33  1  0  0  0  0
 35 33  1  0  0  0  0
 35 31  1  0  0  0  0
 37 36  1  0  0  0  0
 37 38  2  0  0  0  0
 39 38  1  0  0  0  0
 40 39  1  6  0  0  0
 41 42  1  0  0  0  0
 42 40  1  0  0  0  0
 43 40  1  0  0  0  0
 44 43  1  0  0  0  0
 44 41  1  0  0  0  0
 45 46  1  0  0  0  0
 45 36  1  0  0  0  0
 47 48  1  0  0  0  0
 49 48  1  0  0  0  0
 50 61  1  1  0  0  0
 50 53  1  0  0  0  0
 51 52  1  0  0  0  0
 52 49  1  1  0  0  0
 53 52  1  0  0  0  0
 54 58  1  1  0  0  0
 54 51  1  0  0  0  0
 55 54  1  0  0  0  0
 55 50  1  0  0  0  0
 58 57  1  0  0  0  0
 58 56  1  0  0  0  0
 59 58  1  0  0  0  0
 61 60  2  0  0  0  0
 62 61  1  0  0  0  0
 63 64  1  6  0  0  0
 63 62  1  0  0  0  0
 65 63  1  0  0  0  0
 65 66  1  0  0  0  0
M  END
>  <MODEL>
6

>  <REMARK>
 VINA RESULT:      -5.7      4.546      9.808
  Name = 
  23 active torsions:
  status: ('A' for Active; 'I' for Inactive)
    1  A    between atoms: C_1  and  C_5
    2  A    between atoms: C_1  and  C_27
    3  A    between atoms: N_2  and  N_11
    4  A    between atoms: C_5  and  C_37
    5  A    between atoms: C_7  and  C_10
    6  A    between atoms: C_7  and  N_59
    7  A    between atoms: C_9  and  N_11
    8  A    between atoms: N_11  and  C_54
    9  A    between atoms: C_12  and  C_53
   10  A    between atoms: C_12  and  C_64
   11  A    between atoms: C_13  and  C_53
   12  A    between atoms: C_23  and  C_37
   13  A    between atoms: C_24  and  C_38
   14  A    between atoms: C_24  and  C_56
   15  A    between atoms: C_28  and  C_36
   16  A    between atoms: C_28  and  C_46
   17  A    between atoms: C_30  and  C_51
   18  A    between atoms: C_35  and  C_61
   19  A    between atoms: O_41  and  C_44
   20  A    between atoms: C_42  and  C_54
   21  A    between atoms: C_44  and  C_53
   22  A    between atoms: C_47  and  C_50
   23  A    between atoms: C_51  and  C_56
                            x       y       z     vdW  Elec       q    Type
                         _______ _______ _______ _____ _____    ______ ____

>  <TORSDO>
F 23

$$$$
=
 OpenBabel11042416183D

 66 73  0  0  1  0  0  0  0  0999 V2000
  187.9450  174.9770  138.3480 C   0  0  0  0  0  3  0  0  0  0  0  0
  189.4820  173.4300  137.6390 C   0  0  0  0  0  0  0  0  0  0  0  0
  190.8750  172.1860  141.9610 C   0  0  0  0  0  3  0  0  0  0  0  0
  190.1410  172.6100  135.3450 C   0  0  0  0  0  1  0  0  0  0  0  0
  188.3090  174.8560  140.9100 C   0  0  0  0  0  0  0  0  0  0  0  0
  191.2080  171.7050  137.3230 N   0  0  0  0  0  0  0  0  0  0  0  0
  189.5170  173.5680  139.0810 C   0  0  0  0  0  0  0  0  0  0  0  0
  191.1550  171.8700  139.7830 C   0  0  0  0  0  0  0  0  0  0  0  0
  188.4800  174.3280  137.2330 C   0  0  0  0  0  0  0  0  0  0  0  0
  190.0950  173.0810  141.3210 N   0  0  0  0  0  0  0  0  0  0  0  0
  190.2870  172.5910  136.8380 C   0  0  0  0  0  0  0  0  0  0  0  0
  191.6120  171.3580  138.5770 C   0  0  0  0  0  3  0  0  0  0  0  0
  190.2400  172.8620  140.0030 C   0  0  0  0  0  0  0  0  0  0  0  0
  191.5670  171.4190  141.0290 C   0  0  0  0  0  3  0  0  0  0  0  0
  189.1860  174.0560  141.9480 C   0  0  0  0  0  0  0  0  0  0  0  0
  188.5990  174.5020  139.4670 C   0  0  0  0  0  0  0  0  0  0  0  0
  188.3270  176.0600  135.4060 C   0  0  0  0  0  1  0  0  0  0  0  0
  188.0720  174.6110  135.8180 C   0  0  0  0  0  2  0  0  0  0  0  0
  189.9640  174.9370  142.9380 C   0  0  0  0  0  2  0  0  0  0  0  0
  189.4930  174.7030  144.3680 C   0  0  2  0  0  3  0  0  0  0  0  0
  188.6310  175.8750  144.8770 C   0  0  2  0  0  3  0  0  0  0  0  0
  188.9870  177.2690  144.3500 C   0  0  0  0  0  1  0  0  0  0  0  0
  188.2790  175.8090  146.2450 O   0  0  0  0  0  0  0  0  0  0  0  0
  187.3260  176.8040  146.5140 C   0  0  0  0  0  1  0  0  0  0  0  0
  190.6590  174.3710  145.2530 C   0  0  0  0  0  3  0  0  0  0  0  0
  191.4600  175.3030  145.7780 C   0  0  0  0  0  3  0  0  0  0  0  0
  192.6370  174.9170  146.6120 C   0  0  0  0  0  2  0  0  0  0  0  0
  193.6690  175.6760  144.4600 C   0  0  0  0  0  2  0  0  0  0  0  0
  194.8860  173.6360  145.7700 S   0  0  0  0  0  0  0  0  0  0  0  0
  193.9410  175.1810  145.8690 C   0  0  2  0  0  3  0  0  0  0  0  0
  195.2120  173.8130  143.9740 C   0  0  2  0  0  0  0  0  0  0  0  0
  194.8350  175.2380  143.5990 C   0  0  0  0  0  2  0  0  0  0  0  0
  193.9840  171.5380  143.9440 C   0  0  0  0  0  2  0  0  0  0  0  0
  194.6880  171.6260  142.6030 C   0  0  0  0  0  2  0  0  0  0  0  0
  194.1780  172.8810  143.2750 C   0  0  0  0  0  3  0  0  0  0  0  0
  196.6730  173.6230  143.7130 N   0  0  0  0  0  0  0  0  0  0  0  0
  197.2960  174.2470  142.6070 N   0  0  0  0  0  0  0  0  0  0  0  0
  196.6900  174.4420  141.5040 N   0  0  0  0  0  0  0  0  0  0  0  0
  197.3500  175.1510  140.4170 C   0  0  0  0  0  2  0  0  0  0  0  0
  196.4390  175.1720  139.1920 C   0  0  1  0  0  3  0  0  0  0  0  0
  194.9590  173.7490  138.0230 C   0  0  0  0  0  2  0  0  0  0  0  0
  196.3730  173.8210  138.5410 C   0  0  0  0  0  2  0  0  0  0  0  0
  195.0170  175.4910  139.5880 C   0  0  0  0  0  2  0  0  0  0  0  0
  194.1210  174.5850  138.8740 N   0  0  0  0  0  2  0  0  0  0  0  0
  197.5740  172.8820  144.5880 C   0  0  0  0  0  2  0  0  0  0  0  0
  197.8750  171.6410  144.0280 O   0  0  0  0  0  1  0  0  0  0  0  0
  188.3700  176.3680  141.1030 C   0  0  0  0  0  2  0  0  0  0  0  0
  186.9720  176.9820  141.0800 C   0  0  0  0  0  2  0  0  0  0  0  0
  186.9160  178.2920  141.8590 C   0  0  0  0  0  2  0  0  0  0  0  0
  183.1350  178.0440  142.1140 C   0  0  1  0  0  3  0  0  0  0  0  0
  185.2840  177.6190  143.5150 O   0  0  0  0  0  0  0  0  0  0  0  0
  185.5270  178.5070  142.4490 C   0  0  2  0  0  3  0  0  0  0  0  0
  184.4490  178.3310  141.3880 C   0  0  0  0  0  2  0  0  0  0  0  0
  184.1170  178.0490  144.2060 C   0  0  2  0  0  3  0  0  0  0  0  0
  183.1230  178.6600  143.3830 O   0  0  0  0  0  0  0  0  0  0  0  0
  183.5600  178.8520  146.3850 F   0  0  0  0  0  0  0  0  0  0  0  0
  185.7290  178.6410  145.8330 F   0  0  0  0  0  0  0  0  0  0  0  0
  184.4770  178.9760  145.3590 C   0  0  0  0  0  0  0  0  0  0  0  0
  184.4990  180.2900  144.9160 F   0  0  0  0  0  0  0  0  0  0  0  0
  181.8690  178.1840  140.1100 O   0  0  0  0  0  0  0  0  0  0  0  0
  181.9530  178.4840  141.2950 C   0  0  0  0  0  0  0  0  0  0  0  0
  180.8470  179.2690  141.9390 C   0  0  0  0  0  2  0  0  0  0  0  0
  179.5610  178.4480  142.0340 C   0  0  1  0  0  3  0  0  0  0  0  0
  179.0430  178.5280  143.3300 O   0  0  0  0  0  1  0  0  0  0  0  0
  178.5260  178.9890  141.0650 C   0  0  0  0  0  2  0  0  0  0  0  0
  178.8150  178.5810  139.7630 O   0  0  0  0  0  1  0  0  0  0  0  0
  1 16  1  0  0  0  0
  2  7  1  0  0  0  0
  4 11  1  0  0  0  0
  5 47  1  0  0  0  0
  5 15  2  0  0  0  0
  6 12  2  0  0  0  0
  7 16  2  0  0  0  0
  7 13  1  0  0  0  0
  8 13  2  0  0  0  0
  8 14  1  0  0  0  0
  9  2  1  0  0  0  0
  9  1  2  0  0  0  0
 10 15  1  0  0  0  0
 10  3  1  0  0  0  0
 11  6  1  0  0  0  0
 11  2  2  0  0  0  0
 12  8  1  0  0  0  0
 13 10  1  0  0  0  0
 14  3  2  0  0  0  0
 15 19  1  0  0  0  0
 16  5  1  0  0  0  0
 17 18  1  0  0  0  0
 18  9  1  0  0  0  0
 20 19  1  6  0  0  0
 20 21  1  0  0  0  0
 20 25  1  0  0  0  0
 21 22  1  1  0  0  0
 21 23  1  0  0  0  0
 23 24  1  0  0  0  0
 25 26  2  0  0  0  0
 26 27  1  0  0  0  0
 28 30  1  0  0  0  0
 29 30  1  0  0  0  0
 30 27  1  6  0  0  0
 31 36  1  6  0  0  0
 31 29  1  0  0  0  0
 32 31  1  0  0  0  0
 32 28  1  0  0  0  0
 34 35  1  0  0  0  0
 34 33  1  0  0  0  0
 35 33  1  0  0  0  0
 35 31  1  0  0  0  0
 36 45  1  0  0  0  0
 37 36  1  0  0  0  0
 38 37  2  0  0  0  0
 39 38  1  0  0  0  0
 40 43  1  0  0  0  0
 40 39  1  1  0  0  0
 41 42  1  0  0  0  0
 41 44  1  0  0  0  0
 42 40  1  0  0  0  0
 44 43  1  0  0  0  0
 46 45  1  0  0  0  0
 48 47  1  0  0  0  0
 48 49  1  0  0  0  0
 50 61  1  6  0  0  0
 50 55  1  0  0  0  0
 51 54  1  0  0  0  0
 52 49  1  6  0  0  0
 52 51  1  0  0  0  0
 53 50  1  0  0  0  0
 53 52  1  0  0  0  0
 54 58  1  1  0  0  0
 55 54  1  0  0  0  0
 58 57  1  0  0  0  0
 58 56  1  0  0  0  0
 59 58  1  0  0  0  0
 60 61  2  0  0  0  0
 61 62  1  0  0  0  0
 62 63  1  0  0  0  0
 63 64  1  1  0  0  0
 65 63  1  0  0  0  0
 66 65  1  0  0  0  0
M  END
>  <MODEL>
7

>  <REMARK>
 VINA RESULT:      -5.7      1.502      2.749
  Name = 
  23 active torsions:
  status: ('A' for Active; 'I' for Inactive)
    1  A    between atoms: C_1  and  C_5
    2  A    between atoms: C_1  and  C_27
    3  A    between atoms: N_2  and  N_11
    4  A    between atoms: C_5  and  C_37
    5  A    between atoms: C_7  and  C_10
    6  A    between atoms: C_7  and  N_59
    7  A    between atoms: C_9  and  N_11
    8  A    between atoms: N_11  and  C_54
    9  A    between atoms: C_12  and  C_53
   10  A    between atoms: C_12  and  C_64
   11  A    between atoms: C_13  and  C_53
   12  A    between atoms: C_23  and  C_37
   13  A    between atoms: C_24  and  C_38
   14  A    between atoms: C_24  and  C_56
   15  A    between atoms: C_28  and  C_36
   16  A    between atoms: C_28  and  C_46
   17  A    between atoms: C_30  and  C_51
   18  A    between atoms: C_35  and  C_61
   19  A    between atoms: O_41  and  C_44
   20  A    between atoms: C_42  and  C_54
   21  A    between atoms: C_44  and  C_53
   22  A    between atoms: C_47  and  C_50
   23  A    between atoms: C_51  and  C_56
                            x       y       z     vdW  Elec       q    Type
                         _______ _______ _______ _____ _____    ______ ____

>  <TORSDO>
F 23

$$$$
=
 OpenBabel11042416183D

 66 73  0  0  1  0  0  0  0  0999 V2000
  187.6650  177.6050  142.0680 C   0  0  0  0  0  3  0  0  0  0  0  0
  186.7040  177.8530  144.1340 C   0  0  0  0  0  0  0  0  0  0  0  0
  190.4100  176.2260  146.5390 C   0  0  0  0  0  3  0  0  0  0  0  0
  184.4710  178.7640  144.8770 C   0  0  0  0  0  1  0  0  0  0  0  0
  189.9320  176.5400  142.7330 C   0  0  0  0  0  0  0  0  0  0  0  0
  186.0680  177.9550  146.5090 N   0  0  0  0  0  0  0  0  0  0  0  0
  188.0080  177.2320  144.2440 C   0  0  0  0  0  0  0  0  0  0  0  0
  188.3420  177.0150  146.6730 C   0  0  0  0  0  0  0  0  0  0  0  0
  186.5430  178.0700  142.7550 C   0  0  0  0  0  0  0  0  0  0  0  0
  189.9560  176.3800  145.2780 N   0  0  0  0  0  0  0  0  0  0  0  0
  185.8070  178.1540  145.1820 C   0  0  0  0  0  0  0  0  0  0  0  0
  187.1420  177.4740  147.1960 C   0  0  0  0  0  3  0  0  0  0  0  0
  188.7170  176.8920  145.3640 C   0  0  0  0  0  0  0  0  0  0  0  0
  189.4200  176.6000  147.4410 C   0  0  0  0  0  3  0  0  0  0  0  0
  190.7080  176.1190  144.0390 C   0  0  0  0  0  0  0  0  0  0  0  0
  188.5470  177.0890  142.9970 C   0  0  0  0  0  0  0  0  0  0  0  0
  185.1800  178.2090  140.6380 C   0  0  0  0  0  1  0  0  0  0  0  0
  185.3310  178.6530  142.0920 C   0  0  0  0  0  2  0  0  0  0  0  0
  191.2280  174.6730  144.0340 C   0  0  0  0  0  2  0  0  0  0  0  0
  192.6040  174.5820  144.6820 C   0  0  2  0  0  3  0  0  0  0  0  0
  193.7010  175.1400  143.7550 C   0  0  2  0  0  3  0  0  0  0  0  0
  194.4950  176.3430  144.2740 C   0  0  0  0  0  1  0  0  0  0  0  0
  193.3630  175.1780  142.3820 O   0  0  0  0  0  0  0  0  0  0  0  0
  193.8140  176.3910  141.8390 C   0  0  0  0  0  1  0  0  0  0  0  0
  192.8610  173.1840  145.1630 C   0  0  0  0  0  3  0  0  0  0  0  0
  194.0900  172.6900  145.3350 C   0  0  0  0  0  3  0  0  0  0  0  0
  194.2920  171.2760  145.7690 C   0  0  0  0  0  2  0  0  0  0  0  0
  196.0780  171.3530  144.0150 C   0  0  0  0  0  2  0  0  0  0  0  0
  193.8630  169.8860  143.4690 S   0  0  0  0  0  0  0  0  0  0  0  0
  195.0450  170.4820  144.7080 C   0  0  2  0  0  3  0  0  0  0  0  0
  194.8750  170.4640  142.0520 C   0  0  2  0  0  0  0  0  0  0  0  0
  196.2460  170.8150  142.6090 C   0  0  0  0  0  2  0  0  0  0  0  0
  192.7190  171.8590  141.7570 C   0  0  0  0  0  2  0  0  0  0  0  0
  193.3390  171.7900  140.3740 C   0  0  0  0  0  2  0  0  0  0  0  0
  194.2220  171.8040  141.6000 C   0  0  0  0  0  3  0  0  0  0  0  0
  195.0330  169.3490  141.0670 N   0  0  0  0  0  0  0  0  0  0  0  0
  196.1350  169.3210  140.1800 N   0  0  0  0  0  0  0  0  0  0  0  0
  196.1060  169.8840  139.0380 N   0  0  0  0  0  0  0  0  0  0  0  0
  197.2890  169.8860  138.1890 C   0  0  0  0  0  2  0  0  0  0  0  0
  196.9110  170.3590  136.7870 C   0  0  1  0  0  3  0  0  0  0  0  0
  194.9840  170.7790  135.4860 C   0  0  0  0  0  2  0  0  0  0  0  0
  195.6420  169.7080  136.3190 C   0  0  0  0  0  2  0  0  0  0  0  0
  196.6220  171.8420  136.7810 C   0  0  0  0  0  2  0  0  0  0  0  0
  195.4160  172.0770  135.9940 N   0  0  0  0  0  2  0  0  0  0  0  0
  194.1530  168.1900  140.9910 C   0  0  0  0  0  2  0  0  0  0  0  0
  192.8260  168.6000  140.8750 O   0  0  0  0  0  1  0  0  0  0  0  0
  189.8670  175.4350  141.6830 C   0  0  0  0  0  2  0  0  0  0  0  0
  188.6860  174.5010  141.9390 C   0  0  0  0  0  2  0  0  0  0  0  0
  188.7050  173.2940  141.0070 C   0  0  0  0  0  2  0  0  0  0  0  0
  190.0970  173.1140  137.4780 C   0  0  1  0  0  3  0  0  0  0  0  0
  187.8510  173.4390  138.7470 O   0  0  0  0  0  0  0  0  0  0  0  0
  188.9580  173.7300  139.5690 C   0  0  2  0  0  3  0  0  0  0  0  0
  190.1990  173.0560  139.0020 C   0  0  0  0  0  2  0  0  0  0  0  0
  188.0160  174.1180  137.5080 C   0  0  2  0  0  3  0  0  0  0  0  0
  189.3680  174.2520  137.0720 O   0  0  0  0  0  0  0  0  0  0  0  0
  186.0280  175.3870  137.1290 F   0  0  0  0  0  0  0  0  0  0  0  0
  187.3750  175.9720  138.8320 F   0  0  0  0  0  0  0  0  0  0  0  0
  187.3430  175.4840  137.5420 C   0  0  0  0  0  0  0  0  0  0  0  0
  188.0230  176.3620  136.7100 F   0  0  0  0  0  0  0  0  0  0  0  0
  191.7590  172.2160  136.0410 O   0  0  0  0  0  0  0  0  0  0  0  0
  191.4580  173.0940  136.8400 C   0  0  0  0  0  0  0  0  0  0  0  0
  192.4480  174.1770  137.1560 C   0  0  0  0  0  2  0  0  0  0  0  0
  192.9780  174.8400  135.8840 C   0  0  1  0  0  3  0  0  0  0  0  0
  191.9490  175.5490  135.2570 O   0  0  0  0  0  1  0  0  0  0  0  0
  194.0940  175.8070  136.2270 C   0  0  0  0  0  2  0  0  0  0  0  0
  194.9320  175.2630  137.2000 O   0  0  0  0  0  1  0  0  0  0  0  0
  1  9  2  0  0  0  0
  1 16  1  0  0  0  0
  2  7  1  0  0  0  0
  2 11  2  0  0  0  0
  3 14  2  0  0  0  0
  4 11  1  0  0  0  0
  5 16  1  0  0  0  0
  5 15  2  0  0  0  0
  6 12  2  0  0  0  0
  7 13  1  0  0  0  0
  8 12  1  0  0  0  0
  8 14  1  0  0  0  0
  9  2  1  0  0  0  0
 10 13  1  0  0  0  0
 10  3  1  0  0  0  0
 11  6  1  0  0  0  0
 13  8  2  0  0  0  0
 15 10  1  0  0  0  0
 16  7  2  0  0  0  0
 17 18  1  0  0  0  0
 18  9  1  0  0  0  0
 19 15  1  0  0  0  0
 20 19  1  6  0  0  0
 20 25  1  0  0  0  0
 21 22  1  1  0  0  0
 21 20  1  0  0  0  0
 23 21  1  0  0  0  0
 24 23  1  0  0  0  0
 25 26  2  0  0  0  0
 26 27  1  0  0  0  0
 28 30  1  0  0  0  0
 29 30  1  0  0  0  0
 30 27  1  1  0  0  0
 31 36  1  6  0  0  0
 31 32  1  0  0  0  0
 31 29  1  0  0  0  0
 32 28  1  0  0  0  0
 34 35  1  0  0  0  0
 34 33  1  0  0  0  0
 35 33  1  0  0  0  0
 35 31  1  0  0  0  0
 37 36  1  0  0  0  0
 38 37  2  0  0  0  0
 39 38  1  0  0  0  0
 40 39  1  1  0  0  0
 41 44  1  0  0  0  0
 41 42  1  0  0  0  0
 42 40  1  0  0  0  0
 43 40  1  0  0  0  0
 44 43  1  0  0  0  0
 45 36  1  0  0  0  0
 46 45  1  0  0  0  0
 47 48  1  0  0  0  0
 47  5  1  0  0  0  0
 49 48  1  0  0  0  0
 50 61  1  6  0  0  0
 50 53  1  0  0  0  0
 51 52  1  0  0  0  0
 52 49  1  1  0  0  0
 53 52  1  0  0  0  0
 54 58  1  1  0  0  0
 54 51  1  0  0  0  0
 55 50  1  0  0  0  0
 55 54  1  0  0  0  0
 56 58  1  0  0  0  0
 58 57  1  0  0  0  0
 59 58  1  0  0  0  0
 60 61  2  0  0  0  0
 61 62  1  0  0  0  0
 63 64  1  1  0  0  0
 63 65  1  0  0  0  0
 63 62  1  0  0  0  0
 65 66  1  0  0  0  0
M  END
>  <MODEL>
8

>  <REMARK>
 VINA RESULT:      -5.4      3.981      8.265
  Name = 
  23 active torsions:
  status: ('A' for Active; 'I' for Inactive)
    1  A    between atoms: C_1  and  C_5
    2  A    between atoms: C_1  and  C_27
    3  A    between atoms: N_2  and  N_11
    4  A    between atoms: C_5  and  C_37
    5  A    between atoms: C_7  and  C_10
    6  A    between atoms: C_7  and  N_59
    7  A    between atoms: C_9  and  N_11
    8  A    between atoms: N_11  and  C_54
    9  A    between atoms: C_12  and  C_53
   10  A    between atoms: C_12  and  C_64
   11  A    between atoms: C_13  and  C_53
   12  A    between atoms: C_23  and  C_37
   13  A    between atoms: C_24  and  C_38
   14  A    between atoms: C_24  and  C_56
   15  A    between atoms: C_28  and  C_36
   16  A    between atoms: C_28  and  C_46
   17  A    between atoms: C_30  and  C_51
   18  A    between atoms: C_35  and  C_61
   19  A    between atoms: O_41  and  C_44
   20  A    between atoms: C_42  and  C_54
   21  A    between atoms: C_44  and  C_53
   22  A    between atoms: C_47  and  C_50
   23  A    between atoms: C_51  and  C_56
                            x       y       z     vdW  Elec       q    Type
                         _______ _______ _______ _____ _____    ______ ____

>  <TORSDO>
F 23

$$$$
=
 OpenBabel11042416183D

 66 73  0  0  1  0  0  0  0  0999 V2000
  187.7120  176.3140  146.3720 C   0  0  0  0  0  3  0  0  0  0  0  0
  186.1870  177.5280  145.1650 C   0  0  0  0  0  0  0  0  0  0  0  0
  187.8780  176.2860  140.9500 C   0  0  0  0  0  3  0  0  0  0  0  0
  184.2260  178.9620  145.8470 C   0  0  0  0  0  1  0  0  0  0  0  0
  189.1680  175.3550  144.4550 C   0  0  0  0  0  0  0  0  0  0  0  0
  184.7700  178.6630  143.5050 N   0  0  0  0  0  0  0  0  0  0  0  0
  187.1560  176.9010  144.2890 C   0  0  0  0  0  0  0  0  0  0  0  0
  186.3570  177.4810  142.0340 C   0  0  0  0  0  0  0  0  0  0  0  0
  186.5770  177.1240  146.4530 C   0  0  0  0  0  0  0  0  0  0  0  0
  188.1460  176.1780  142.2680 N   0  0  0  0  0  0  0  0  0  0  0  0
  185.1100  178.3610  144.7940 C   0  0  0  0  0  0  0  0  0  0  0  0
  185.2710  178.3060  142.2900 C   0  0  0  0  0  3  0  0  0  0  0  0
  187.2020  176.8740  142.9210 C   0  0  0  0  0  0  0  0  0  0  0  0
  186.7720  177.1080  140.7640 C   0  0  0  0  0  3  0  0  0  0  0  0
  189.2200  175.3770  142.8800 C   0  0  0  0  0  0  0  0  0  0  0  0
  188.0530  176.1960  145.0400 C   0  0  0  0  0  0  0  0  0  0  0  0
  186.5140  178.8280  148.3110 C   0  0  0  0  0  1  0  0  0  0  0  0
  185.9280  177.5370  147.7390 C   0  0  0  0  0  2  0  0  0  0  0  0
  190.5800  175.7860  142.2920 C   0  0  0  0  0  2  0  0  0  0  0  0
  191.1590  174.6750  141.4240 C   0  0  2  0  0  3  0  0  0  0  0  0
  190.3980  173.3500  141.6210 C   0  0  2  0  0  3  0  0  0  0  0  0
  191.2310  172.1330  142.0330 C   0  0  0  0  0  1  0  0  0  0  0  0
  189.3760  173.1010  140.6750 O   0  0  0  0  0  0  0  0  0  0  0  0
  188.3780  172.3240  141.2830 C   0  0  0  0  0  1  0  0  0  0  0  0
  192.6420  174.5680  141.6370 C   0  0  0  0  0  3  0  0  0  0  0  0
  193.5300  175.2530  140.9130 C   0  0  0  0  0  3  0  0  0  0  0  0
  194.9960  175.0720  141.1320 C   0  0  0  0  0  2  0  0  0  0  0  0
  196.9240  173.4800  140.9840 C   0  0  0  0  0  2  0  0  0  0  0  0
  195.0870  173.3960  138.9890 S   0  0  0  0  0  0  0  0  0  0  0  0
  195.4350  173.6640  140.7490 C   0  0  2  0  0  3  0  0  0  0  0  0
  196.7600  172.7300  138.6390 C   0  0  2  0  0  0  0  0  0  0  0  0
  197.4100  172.4510  139.9840 C   0  0  0  0  0  2  0  0  0  0  0  0
  197.9160  175.0190  138.9630 C   0  0  0  0  0  2  0  0  0  0  0  0
  196.8610  175.2560  137.8990 C   0  0  0  0  0  2  0  0  0  0  0  0
  197.5480  173.9120  138.0000 C   0  0  0  0  0  3  0  0  0  0  0  0
  196.6330  171.4390  137.8940 N   0  0  0  0  0  0  0  0  0  0  0  0
  195.3950  170.7560  137.8380 N   0  0  0  0  0  0  0  0  0  0  0  0
  194.6830  170.7210  136.7830 N   0  0  0  0  0  0  0  0  0  0  0  0
  193.4490  169.9480  136.7530 C   0  0  0  0  0  2  0  0  0  0  0  0
  192.2590  170.8900  136.5910 C   0  0  1  0  0  3  0  0  0  0  0  0
  191.1290  172.5870  137.7860 C   0  0  0  0  0  2  0  0  0  0  0  0
  191.5960  171.1590  137.9110 C   0  0  0  0  0  2  0  0  0  0  0  0
  192.7100  172.2430  136.0920 C   0  0  0  0  0  2  0  0  0  0  0  0
  192.0200  173.2760  136.8590 N   0  0  0  0  0  2  0  0  0  0  0  0
  197.7040  170.8330  137.1140 C   0  0  0  0  0  2  0  0  0  0  0  0
  197.2950  169.5980  136.6120 O   0  0  0  0  0  1  0  0  0  0  0  0
  190.4970  175.7160  145.1110 C   0  0  0  0  0  2  0  0  0  0  0  0
  191.3820  174.4820  145.2760 C   0  0  0  0  0  2  0  0  0  0  0  0
  192.7600  174.8410  145.8240 C   0  0  0  0  0  2  0  0  0  0  0  0
  194.1000  171.6830  144.1940 C   0  0  1  0  0  3  0  0  0  0  0  0
  194.6440  174.2140  144.4400 O   0  0  0  0  0  0  0  0  0  0  0  0
  193.7790  173.7680  145.4580 C   0  0  2  0  0  3  0  0  0  0  0  0
  193.0890  172.4870  145.0110 C   0  0  0  0  0  2  0  0  0  0  0  0
  195.7370  173.3080  144.3450 C   0  0  2  0  0  3  0  0  0  0  0  0
  195.4150  171.9480  144.6320 O   0  0  0  0  0  0  0  0  0  0  0  0
  197.9150  172.8270  145.1970 F   0  0  0  0  0  0  0  0  0  0  0  0
  197.3830  174.9620  144.7370 F   0  0  0  0  0  0  0  0  0  0  0  0
  196.8990  173.7630  145.2170 C   0  0  0  0  0  0  0  0  0  0  0  0
  196.4630  173.9410  146.5220 F   0  0  0  0  0  0  0  0  0  0  0  0
  192.9470  169.7780  145.0180 O   0  0  0  0  0  0  0  0  0  0  0  0
  193.8020  170.2110  144.2550 C   0  0  0  0  0  0  0  0  0  0  0  0
  194.5320  169.2620  143.3490 C   0  0  0  0  0  2  0  0  0  0  0  0
  194.2360  169.5540  141.8780 C   0  0  1  0  0  3  0  0  0  0  0  0
  195.3650  170.1110  141.2690 O   0  0  0  0  0  1  0  0  0  0  0  0
  193.8780  168.2710  141.1530 C   0  0  0  0  0  2  0  0  0  0  0  0
  193.2320  168.5520  139.9500 O   0  0  0  0  0  1  0  0  0  0  0  0
  1  9  1  0  0  0  0
  2  9  2  0  0  0  0
  3 10  1  0  0  0  0
  5 16  1  0  0  0  0
  5 47  1  0  0  0  0
  6 11  2  0  0  0  0
  7 16  1  0  0  0  0
  7  2  1  0  0  0  0
  8 12  2  0  0  0  0
  8 13  1  0  0  0  0
  9 18  1  0  0  0  0
 10 15  1  0  0  0  0
 10 13  1  0  0  0  0
 11  2  1  0  0  0  0
 11  4  1  0  0  0  0
 12  6  1  0  0  0  0
 13  7  2  0  0  0  0
 14  3  2  0  0  0  0
 14  8  1  0  0  0  0
 15  5  2  0  0  0  0
 16  1  2  0  0  0  0
 18 17  1  0  0  0  0
 19 15  1  0  0  0  0
 20 21  1  0  0  0  0
 20 25  1  1  0  0  0
 20 19  1  0  0  0  0
 21 22  1  6  0  0  0
 23 24  1  0  0  0  0
 23 21  1  0  0  0  0
 26 27  1  0  0  0  0
 26 25  2  0  0  0  0
 29 30  1  0  0  0  0
 30 28  1  0  0  0  0
 30 27  1  6  0  0  0
 31 36  1  6  0  0  0
 31 29  1  0  0  0  0
 31 32  1  0  0  0  0
 32 28  1  0  0  0  0
 34 35  1  0  0  0  0
 34 33  1  0  0  0  0
 35 31  1  0  0  0  0
 35 33  1  0  0  0  0
 37 36  1  0  0  0  0
 38 37  2  0  0  0  0
 39 38  1  0  0  0  0
 40 39  1  1  0  0  0
 40 42  1  0  0  0  0
 41 42  1  0  0  0  0
 43 40  1  0  0  0  0
 43 44  1  0  0  0  0
 44 41  1  0  0  0  0
 45 36  1  0  0  0  0
 46 45  1  0  0  0  0
 47 48  1  0  0  0  0
 48 49  1  0  0  0  0
 50 61  1  1  0  0  0
 50 55  1  0  0  0  0
 50 53  1  0  0  0  0
 51 52  1  0  0  0  0
 52 49  1  6  0  0  0
 53 52  1  0  0  0  0
 54 51  1  0  0  0  0
 54 55  1  0  0  0  0
 54 58  1  1  0  0  0
 56 58  1  0  0  0  0
 57 58  1  0  0  0  0
 58 59  1  0  0  0  0
 61 60  2  0  0  0  0
 62 61  1  0  0  0  0
 63 64  1  6  0  0  0
 63 62  1  0  0  0  0
 65 63  1  0  0  0  0
 66 65  1  0  0  0  0
M  END
>  <MODEL>
9

>  <REMARK>
 VINA RESULT:      -5.4      4.875      9.929
  Name = 
  23 active torsions:
  status: ('A' for Active; 'I' for Inactive)
    1  A    between atoms: C_1  and  C_5
    2  A    between atoms: C_1  and  C_27
    3  A    between atoms: N_2  and  N_11
    4  A    between atoms: C_5  and  C_37
    5  A    between atoms: C_7  and  C_10
    6  A    between atoms: C_7  and  N_59
    7  A    between atoms: C_9  and  N_11
    8  A    between atoms: N_11  and  C_54
    9  A    between atoms: C_12  and  C_53
   10  A    between atoms: C_12  and  C_64
   11  A    between atoms: C_13  and  C_53
   12  A    between atoms: C_23  and  C_37
   13  A    between atoms: C_24  and  C_38
   14  A    between atoms: C_24  and  C_56
   15  A    between atoms: C_28  and  C_36
   16  A    between atoms: C_28  and  C_46
   17  A    between atoms: C_30  and  C_51
   18  A    between atoms: C_35  and  C_61
   19  A    between atoms: O_41  and  C_44
   20  A    between atoms: C_42  and  C_54
   21  A    between atoms: C_44  and  C_53
   22  A    between atoms: C_47  and  C_50
   23  A    between atoms: C_51  and  C_56
                            x       y       z     vdW  Elec       q    Type
                         _______ _______ _______ _____ _____    ______ ____

>  <TORSDO>
F 23

$$$$
