=
 OpenBabel11042415003D

 39 42  0  0  1  0  0  0  0  0999 V2000
  193.5560  176.3060  146.8920 C   0  0  0  0  0  2  0  0  0  0  0  0
  193.4920  172.6280  145.0640 N   0  0  0  0  0  0  0  0  0  0  0  0
  194.7610  175.9070  146.0630 C   0  0  0  0  0  2  0  0  0  0  0  0
  192.1660  174.5620  145.6830 C   0  0  1  0  0  3  0  0  0  0  0  0
  193.4930  173.8660  145.4650 C   0  0  0  0  0  0  0  0  0  0  0  0
  192.3000  176.0500  146.0620 C   0  0  1  0  0  3  0  0  0  0  0  0
  194.6990  174.5200  145.7540 O   0  0  0  0  0  0  0  0  0  0  0  0
  195.2460  171.1300  145.9340 N   0  0  0  0  0  2  0  0  0  0  0  0
  194.6480  171.8110  144.8310 C   0  0  0  0  0  0  0  0  0  0  0  0
  195.1360  171.6880  143.6740 O   0  0  0  0  0  0  0  0  0  0  0  0
  196.5620  169.3960  146.9930 C   0  0  0  0  0  2  0  0  0  0  0  0
  195.9940  168.8420  145.7040 C   0  0  0  0  0  2  0  0  0  0  0  0
  196.4230  170.2920  145.7790 C   0  0  0  0  0  3  0  0  0  0  0  0
  189.6570  173.2150  145.5320 O   0  0  0  0  0  0  0  0  0  0  0  0
  191.3410  174.4440  144.4860 N   0  0  0  0  0  2  0  0  0  0  0  0
  190.1000  173.7340  144.4700 C   0  0  0  0  0  0  0  0  0  0  0  0
  189.3350  173.6250  143.2120 C   0  0  0  0  0  0  0  0  0  0  0  0
  188.6290  174.6810  142.7850 C   0  0  0  0  0  3  0  0  0  0  0  0
  189.6180  172.3020  141.0850 C   0  0  0  0  0  2  0  0  0  0  0  0
  189.2360  172.2780  142.5530 C   0  0  0  0  0  2  0  0  0  0  0  0
  188.4670  172.8590  140.2690 C   0  0  2  0  0  3  0  0  0  0  0  0
  188.6290  172.4270  138.8270 C   0  0  0  0  0  1  0  0  0  0  0  0
  188.4760  174.3110  140.3350 N   0  0  0  0  0  2  0  0  0  0  0  0
  187.9000  174.7100  141.5530 N   0  0  0  0  0  2  0  0  0  0  0  0
  190.5500  175.5500  147.6640 O   0  0  0  0  0  1  0  0  0  0  0  0
  191.0620  176.5450  146.8260 C   0  0  2  0  0  3  0  0  0  0  0  0
  189.9610  177.0410  145.8880 C   0  0  0  0  0  2  0  0  0  0  0  0
  190.5340  177.7530  144.6690 C   0  0  0  0  0  2  0  0  0  0  0  0
  189.4900  177.9520  143.6790 N   0  0  0  0  0  2  0  0  0  0  0  0
  185.7910  178.1530  141.6210 C   0  0  0  0  0  0  0  0  0  0  0  0
  184.4580  178.1460  142.3100 C   0  0  0  0  0  2  0  0  0  0  0  0
  188.2670  177.9400  144.3660 N   0  0  0  0  0  2  0  0  0  0  0  0
  184.5840  178.0550  143.8050 C   0  0  0  0  0  3  0  0  0  0  0  0
  185.7630  177.9920  144.4420 C   0  0  0  0  0  0  0  0  0  0  0  0
  187.0220  178.0080  143.6700 C   0  0  0  0  0  0  0  0  0  0  0  0
  187.0080  178.0830  142.3730 N   0  0  0  0  0  0  0  0  0  0  0  0
  185.8390  178.2220  140.3660 O   0  0  0  0  0  0  0  0  0  0  0  0
  185.5410  179.0040  146.6970 C   0  0  0  0  0  1  0  0  0  0  0  0
  185.8270  177.9080  145.8380 O   0  0  0  0  0  0  0  0  0  0  0  0
  2  5  2  0  0  0  0
  3  1  1  0  0  0  0
  4 15  1  6  0  0  0
  4  6  1  0  0  0  0
  5  4  1  0  0  0  0
  5  7  1  0  0  0  0
  6 26  1  1  0  0  0
  6  1  1  0  0  0  0
  7  3  1  0  0  0  0
  9  2  1  0  0  0  0
  9  8  1  0  0  0  0
 10  9  2  0  0  0  0
 12 13  1  0  0  0  0
 12 11  1  0  0  0  0
 13  8  1  0  0  0  0
 13 11  1  0  0  0  0
 16 15  1  0  0  0  0
 16 14  2  0  0  0  0
 17 16  1  0  0  0  0
 18 17  2  0  0  0  0
 19 20  1  0  0  0  0
 20 17  1  0  0  0  0
 21 22  1  6  0  0  0
 21 23  1  0  0  0  0
 21 19  1  0  0  0  0
 23 24  1  0  0  0  0
 24 18  1  0  0  0  0
 26 25  1  6  0  0  0
 27 26  1  0  0  0  0
 28 27  1  0  0  0  0
 29 32  1  0  0  0  0
 29 28  1  0  0  0  0
 30 31  1  0  0  0  0
 30 36  1  0  0  0  0
 31 33  1  0  0  0  0
 33 34  2  0  0  0  0
 34 39  1  0  0  0  0
 35 32  1  0  0  0  0
 35 34  1  0  0  0  0
 36 35  2  0  0  0  0
 37 30  2  0  0  0  0
 39 38  1  0  0  0  0
M  END
>  <MODEL>
1

>  <REMARK>
 VINA RESULT:      -7.5      0.000      0.000
  Name = 
  10 active torsions:
  status: ('A' for Active; 'I' for Inactive)
    1  A    between atoms: N_1  and  C_26
    2  A    between atoms: C_3  and  C_21
    3  A    between atoms: C_6  and  C_22
    4  A    between atoms: C_6  and  C_33
    5  A    between atoms: N_9  and  C_19
    6  A    between atoms: N_12  and  N_36
    7  A    between atoms: C_14  and  N_16
    8  A    between atoms: C_22  and  N_36
    9  A    between atoms: C_24  and  C_33
   10  A    between atoms: C_25  and  O_37
                            x       y       z     vdW  Elec       q    Type
                         _______ _______ _______ _____ _____    ______ ____

>  <TORSDO>
F 10

$$$$
=
 OpenBabel11042415003D

 39 42  0  0  1  0  0  0  0  0999 V2000
  194.3150  175.7070  146.4890 C   0  0  0  0  0  2  0  0  0  0  0  0
  193.5460  171.9040  145.1430 N   0  0  0  0  0  0  0  0  0  0  0  0
  195.4390  174.9610  145.7970 C   0  0  0  0  0  2  0  0  0  0  0  0
  192.6350  174.1330  145.4240 C   0  0  1  0  0  3  0  0  0  0  0  0
  193.7930  173.1580  145.3830 C   0  0  0  0  0  0  0  0  0  0  0  0
  193.0640  175.6010  145.6200 C   0  0  1  0  0  3  0  0  0  0  0  0
  195.0980  173.5860  145.6630 O   0  0  0  0  0  0  0  0  0  0  0  0
  194.6950  170.0190  146.2410 N   0  0  0  0  0  2  0  0  0  0  0  0
  194.5110  170.8440  145.0900 C   0  0  0  0  0  0  0  0  0  0  0  0
  195.1930  170.6350  144.0490 O   0  0  0  0  0  0  0  0  0  0  0  0
  196.6930  169.2090  147.3410 C   0  0  0  0  0  2  0  0  0  0  0  0
  195.5730  168.2240  147.6030 C   0  0  0  0  0  2  0  0  0  0  0  0
  195.6600  168.9320  146.2680 C   0  0  0  0  0  3  0  0  0  0  0  0
  189.9230  173.2620  145.2780 O   0  0  0  0  0  0  0  0  0  0  0  0
  191.8480  174.0230  144.2020 N   0  0  0  0  0  2  0  0  0  0  0  0
  190.4960  173.5560  144.1920 C   0  0  0  0  0  0  0  0  0  0  0  0
  189.7720  173.4350  142.9110 C   0  0  0  0  0  0  0  0  0  0  0  0
  189.2010  174.5250  142.3800 C   0  0  0  0  0  3  0  0  0  0  0  0
  189.9920  171.9360  140.8960 C   0  0  0  0  0  2  0  0  0  0  0  0
  189.5530  172.0600  142.3440 C   0  0  0  0  0  2  0  0  0  0  0  0
  188.9390  172.5480  139.9920 C   0  0  2  0  0  3  0  0  0  0  0  0
  189.1090  171.9970  138.5920 C   0  0  0  0  0  1  0  0  0  0  0  0
  189.1020  173.9930  139.9570 N   0  0  0  0  0  2  0  0  0  0  0  0
  188.5260  174.5380  141.1170 N   0  0  0  0  0  2  0  0  0  0  0  0
  191.1670  175.6820  147.1280 O   0  0  0  0  0  1  0  0  0  0  0  0
  191.9310  176.4380  146.2330 C   0  0  2  0  0  3  0  0  0  0  0  0
  191.0180  177.0460  145.1680 C   0  0  0  0  0  2  0  0  0  0  0  0
  189.6810  177.4840  145.7510 C   0  0  0  0  0  2  0  0  0  0  0  0
  188.6250  176.6100  145.2730 N   0  0  0  0  0  2  0  0  0  0  0  0
  184.8870  178.4000  146.1620 C   0  0  0  0  0  0  0  0  0  0  0  0
  184.0810  179.1720  145.1610 C   0  0  0  0  0  2  0  0  0  0  0  0
  187.9070  177.3260  144.3050 N   0  0  0  0  0  2  0  0  0  0  0  0
  184.7480  179.2430  143.8160 C   0  0  0  0  0  3  0  0  0  0  0  0
  185.9320  178.6710  143.5500 C   0  0  0  0  0  0  0  0  0  0  0  0
  186.6470  177.9280  144.6070 C   0  0  0  0  0  0  0  0  0  0  0  0
  186.1450  177.8170  145.8000 N   0  0  0  0  0  0  0  0  0  0  0  0
  184.4520  178.2610  147.3340 O   0  0  0  0  0  0  0  0  0  0  0  0
  186.1230  177.9490  141.1840 C   0  0  0  0  0  1  0  0  0  0  0  0
  186.5120  178.7670  142.2800 O   0  0  0  0  0  0  0  0  0  0  0  0
  2  5  2  0  0  0  0
  3  1  1  0  0  0  0
  4 15  1  6  0  0  0
  4  6  1  0  0  0  0
  5  4  1  0  0  0  0
  5  7  1  0  0  0  0
  6 26  1  1  0  0  0
  6  1  1  0  0  0  0
  7  3  1  0  0  0  0
  8 13  1  0  0  0  0
  9  2  1  0  0  0  0
  9  8  1  0  0  0  0
 10  9  2  0  0  0  0
 11 12  1  0  0  0  0
 13 11  1  0  0  0  0
 13 12  1  0  0  0  0
 16 15  1  0  0  0  0
 16 14  2  0  0  0  0
 17 16  1  0  0  0  0
 18 17  2  0  0  0  0
 19 20  1  0  0  0  0
 20 17  1  0  0  0  0
 21 22  1  6  0  0  0
 21 19  1  0  0  0  0
 23 21  1  0  0  0  0
 23 24  1  0  0  0  0
 24 18  1  0  0  0  0
 26 25  1  1  0  0  0
 27 28  1  0  0  0  0
 27 26  1  0  0  0  0
 29 28  1  0  0  0  0
 30 37  2  0  0  0  0
 31 30  1  0  0  0  0
 32 35  1  0  0  0  0
 32 29  1  0  0  0  0
 33 31  1  0  0  0  0
 34 33  2  0  0  0  0
 34 35  1  0  0  0  0
 35 36  2  0  0  0  0
 36 30  1  0  0  0  0
 38 39  1  0  0  0  0
 39 34  1  0  0  0  0
M  END
>  <MODEL>
2

>  <REMARK>
 VINA RESULT:      -7.3      1.088      2.123
  Name = 
  10 active torsions:
  status: ('A' for Active; 'I' for Inactive)
    1  A    between atoms: N_1  and  C_26
    2  A    between atoms: C_3  and  C_21
    3  A    between atoms: C_6  and  C_22
    4  A    between atoms: C_6  and  C_33
    5  A    between atoms: N_9  and  C_19
    6  A    between atoms: N_12  and  N_36
    7  A    between atoms: C_14  and  N_16
    8  A    between atoms: C_22  and  N_36
    9  A    between atoms: C_24  and  C_33
   10  A    between atoms: C_25  and  O_37
                            x       y       z     vdW  Elec       q    Type
                         _______ _______ _______ _____ _____    ______ ____

>  <TORSDO>
F 10

$$$$
=
 OpenBabel11042415003D

 39 42  0  0  1  0  0  0  0  0999 V2000
  194.0130  176.9590  146.7390 C   0  0  0  0  0  2  0  0  0  0  0  0
  194.5160  174.2430  143.6990 N   0  0  0  0  0  0  0  0  0  0  0  0
  194.8760  177.3670  145.5610 C   0  0  0  0  0  2  0  0  0  0  0  0
  192.9500  175.1500  145.3130 C   0  0  1  0  0  3  0  0  0  0  0  0
  194.2490  175.2020  144.5360 C   0  0  0  0  0  0  0  0  0  0  0  0
  192.7040  176.3890  146.1970 C   0  0  1  0  0  3  0  0  0  0  0  0
  195.1760  176.2290  144.7620 O   0  0  0  0  0  0  0  0  0  0  0  0
  195.6310  174.4220  141.5080 N   0  0  0  0  0  2  0  0  0  0  0  0
  195.7020  174.1180  142.9020 C   0  0  0  0  0  0  0  0  0  0  0  0
  196.7940  173.7470  143.4120 O   0  0  0  0  0  0  0  0  0  0  0  0
  196.5510  175.1430  139.3880 C   0  0  0  0  0  2  0  0  0  0  0  0
  197.4380  175.6700  140.4960 C   0  0  0  0  0  2  0  0  0  0  0  0
  196.7860  174.3110  140.6330 C   0  0  0  0  0  3  0  0  0  0  0  0
  191.6610  172.6790  144.7090 O   0  0  0  0  0  0  0  0  0  0  0  0
  191.8290  174.9850  144.3970 N   0  0  0  0  0  2  0  0  0  0  0  0
  191.2390  173.7110  144.1180 C   0  0  0  0  0  0  0  0  0  0  0  0
  190.1290  173.6140  143.1500 C   0  0  0  0  0  0  0  0  0  0  0  0
  189.2470  174.6200  143.0660 C   0  0  0  0  0  3  0  0  0  0  0  0
  189.8310  172.4820  140.9160 C   0  0  0  0  0  2  0  0  0  0  0  0
  189.9310  172.3140  142.4220 C   0  0  0  0  0  2  0  0  0  0  0  0
  188.4430  172.9750  140.5510 C   0  0  2  0  0  3  0  0  0  0  0  0
  188.1770  172.6660  139.0930 C   0  0  0  0  0  1  0  0  0  0  0  0
  188.3630  174.4120  140.7560 N   0  0  0  0  0  2  0  0  0  0  0  0
  188.1680  174.6610  142.1250 N   0  0  0  0  0  2  0  0  0  0  0  0
  191.4060  174.7110  147.3720 O   0  0  0  0  0  1  0  0  0  0  0  0
  191.7560  176.0650  147.3620 C   0  0  2  0  0  3  0  0  0  0  0  0
  190.4890  176.9210  147.3330 C   0  0  0  0  0  2  0  0  0  0  0  0
  189.3940  176.2840  146.4880 C   0  0  0  0  0  2  0  0  0  0  0  0
  189.1160  177.1170  145.3320 N   0  0  0  0  0  2  0  0  0  0  0  0
  186.3400  178.0090  142.2570 C   0  0  0  0  0  0  0  0  0  0  0  0
  185.0520  178.7420  142.4910 C   0  0  0  0  0  2  0  0  0  0  0  0
  187.9220  177.8020  145.5990 N   0  0  0  0  0  2  0  0  0  0  0  0
  184.8570  179.1160  143.9330 C   0  0  0  0  0  3  0  0  0  0  0  0
  185.7460  178.8260  144.8960 C   0  0  0  0  0  0  0  0  0  0  0  0
  186.9880  178.1020  144.5610 C   0  0  0  0  0  0  0  0  0  0  0  0
  187.2380  177.7380  143.3390 N   0  0  0  0  0  0  0  0  0  0  0  0
  186.6350  177.6300  141.0940 O   0  0  0  0  0  0  0  0  0  0  0  0
  184.7460  178.4170  147.1300 C   0  0  0  0  0  1  0  0  0  0  0  0
  185.5170  179.1970  146.2260 O   0  0  0  0  0  0  0  0  0  0  0  0
  2  5  2  0  0  0  0
  3  1  1  0  0  0  0
  4 15  1  6  0  0  0
  4  6  1  0  0  0  0
  5  7  1  0  0  0  0
  5  4  1  0  0  0  0
  6  1  1  0  0  0  0
  6 26  1  1  0  0  0
  7  3  1  0  0  0  0
  8  9  1  0  0  0  0
  9 10  2  0  0  0  0
  9  2  1  0  0  0  0
 11 12  1  0  0  0  0
 11 13  1  0  0  0  0
 12 13  1  0  0  0  0
 13  8  1  0  0  0  0
 16 15  1  0  0  0  0
 16 14  2  0  0  0  0
 17 16  1  0  0  0  0
 18 17  2  0  0  0  0
 19 20  1  0  0  0  0
 20 17  1  0  0  0  0
 21 22  1  6  0  0  0
 21 23  1  0  0  0  0
 21 19  1  0  0  0  0
 23 24  1  0  0  0  0
 24 18  1  0  0  0  0
 26 25  1  6  0  0  0
 27 26  1  0  0  0  0
 28 27  1  0  0  0  0
 29 32  1  0  0  0  0
 29 28  1  0  0  0  0
 30 31  1  0  0  0  0
 30 36  1  0  0  0  0
 31 33  1  0  0  0  0
 33 34  2  0  0  0  0
 34 39  1  0  0  0  0
 35 34  1  0  0  0  0
 35 32  1  0  0  0  0
 36 35  2  0  0  0  0
 37 30  2  0  0  0  0
 39 38  1  0  0  0  0
M  END
>  <MODEL>
3

>  <REMARK>
 VINA RESULT:      -6.9      2.231      2.825
  Name = 
  10 active torsions:
  status: ('A' for Active; 'I' for Inactive)
    1  A    between atoms: N_1  and  C_26
    2  A    between atoms: C_3  and  C_21
    3  A    between atoms: C_6  and  C_22
    4  A    between atoms: C_6  and  C_33
    5  A    between atoms: N_9  and  C_19
    6  A    between atoms: N_12  and  N_36
    7  A    between atoms: C_14  and  N_16
    8  A    between atoms: C_22  and  N_36
    9  A    between atoms: C_24  and  C_33
   10  A    between atoms: C_25  and  O_37
                            x       y       z     vdW  Elec       q    Type
                         _______ _______ _______ _____ _____    ______ ____

>  <TORSDO>
F 10

$$$$
=
 OpenBabel11042415003D

 39 42  0  0  1  0  0  0  0  0999 V2000
  192.6440  174.3750  143.4100 C   0  0  0  0  0  2  0  0  0  0  0  0
  189.2070  173.6760  141.2730 N   0  0  0  0  0  0  0  0  0  0  0  0
  192.6240  174.7830  141.9500 C   0  0  0  0  0  2  0  0  0  0  0  0
  190.1070  174.3480  143.4210 C   0  0  1  0  0  3  0  0  0  0  0  0
  190.2480  174.0850  141.9370 C   0  0  0  0  0  0  0  0  0  0  0  0
  191.3820  174.9180  144.0750 C   0  0  1  0  0  3  0  0  0  0  0  0
  191.4920  174.2140  141.3030 O   0  0  0  0  0  0  0  0  0  0  0  0
  189.5640  172.0540  139.4510 N   0  0  0  0  0  2  0  0  0  0  0  0
  189.1630  173.3580  139.8750 C   0  0  0  0  0  0  0  0  0  0  0  0
  188.7780  174.2070  139.0250 O   0  0  0  0  0  0  0  0  0  0  0  0
  190.8750  170.9940  137.7140 C   0  0  0  0  0  2  0  0  0  0  0  0
  189.6420  170.1510  137.9610 C   0  0  0  0  0  2  0  0  0  0  0  0
  189.5570  171.6600  138.0520 C   0  0  0  0  0  3  0  0  0  0  0  0
  190.0200  177.0880  142.6360 O   0  0  0  0  0  0  0  0  0  0  0  0
  188.9960  175.2600  143.6610 N   0  0  0  0  0  2  0  0  0  0  0  0
  189.0230  176.6330  143.2620 C   0  0  0  0  0  0  0  0  0  0  0  0
  187.8750  177.5090  143.5710 C   0  0  0  0  0  0  0  0  0  0  0  0
  187.2310  178.1180  142.5660 C   0  0  0  0  0  3  0  0  0  0  0  0
  186.1410  177.5630  145.4010 C   0  0  0  0  0  2  0  0  0  0  0  0
  187.5860  177.8210  145.0120 C   0  0  0  0  0  2  0  0  0  0  0  0
  185.2720  178.7050  144.9100 C   0  0  2  0  0  3  0  0  0  0  0  0
  183.9800  178.7170  145.7000 C   0  0  0  0  0  1  0  0  0  0  0  0
  184.9660  178.5190  143.5010 N   0  0  0  0  0  2  0  0  0  0  0  0
  186.0710  178.9400  142.7420 N   0  0  0  0  0  2  0  0  0  0  0  0
  190.5640  175.4730  146.2900 O   0  0  0  0  0  1  0  0  0  0  0  0
  191.4180  174.6210  145.5820 C   0  0  2  0  0  3  0  0  0  0  0  0
  192.8310  174.7170  146.1590 C   0  0  0  0  0  2  0  0  0  0  0  0
  193.1380  176.1170  146.6750 C   0  0  0  0  0  2  0  0  0  0  0  0
  194.1850  176.7200  145.8700 N   0  0  0  0  0  2  0  0  0  0  0  0
  196.4500  176.2690  142.3170 C   0  0  0  0  0  0  0  0  0  0  0  0
  197.5660  175.2780  142.1670 C   0  0  0  0  0  2  0  0  0  0  0  0
  195.2220  175.7810  145.7760 N   0  0  0  0  0  2  0  0  0  0  0  0
  197.7900  174.4710  143.4150 C   0  0  0  0  0  3  0  0  0  0  0  0
  197.0650  174.6260  144.5320 C   0  0  0  0  0  0  0  0  0  0  0  0
  195.9830  175.6300  144.5780 C   0  0  0  0  0  0  0  0  0  0  0  0
  195.7210  176.3740  143.5450 N   0  0  0  0  0  0  0  0  0  0  0  0
  196.1520  177.0170  141.3500 O   0  0  0  0  0  0  0  0  0  0  0  0
  196.7900  172.5390  145.8470 C   0  0  0  0  0  1  0  0  0  0  0  0
  197.3140  173.8490  145.6700 O   0  0  0  0  0  0  0  0  0  0  0  0
  1  6  1  0  0  0  0
  2  5  2  0  0  0  0
  3  1  1  0  0  0  0
  4 15  1  6  0  0  0
  4  6  1  0  0  0  0
  5  4  1  0  0  0  0
  6 26  1  1  0  0  0
  7  5  1  0  0  0  0
  7  3  1  0  0  0  0
  8  9  1  0  0  0  0
  9  2  1  0  0  0  0
 10  9  2  0  0  0  0
 11 12  1  0  0  0  0
 11 13  1  0  0  0  0
 12 13  1  0  0  0  0
 13  8  1  0  0  0  0
 14 16  2  0  0  0  0
 16 17  1  0  0  0  0
 16 15  1  0  0  0  0
 17 20  1  0  0  0  0
 18 24  1  0  0  0  0
 18 17  2  0  0  0  0
 20 19  1  0  0  0  0
 21 19  1  0  0  0  0
 21 22  1  1  0  0  0
 23 21  1  0  0  0  0
 24 23  1  0  0  0  0
 26 27  1  0  0  0  0
 26 25  1  1  0  0  0
 27 28  1  0  0  0  0
 29 28  1  0  0  0  0
 30 36  1  0  0  0  0
 31 30  1  0  0  0  0
 31 33  1  0  0  0  0
 32 29  1  0  0  0  0
 33 34  2  0  0  0  0
 34 35  1  0  0  0  0
 34 39  1  0  0  0  0
 35 32  1  0  0  0  0
 36 35  2  0  0  0  0
 37 30  2  0  0  0  0
 39 38  1  0  0  0  0
M  END
>  <MODEL>
4

>  <REMARK>
 VINA RESULT:      -6.9      2.857      7.872
  Name = 
  10 active torsions:
  status: ('A' for Active; 'I' for Inactive)
    1  A    between atoms: N_1  and  C_26
    2  A    between atoms: C_3  and  C_21
    3  A    between atoms: C_6  and  C_22
    4  A    between atoms: C_6  and  C_33
    5  A    between atoms: N_9  and  C_19
    6  A    between atoms: N_12  and  N_36
    7  A    between atoms: C_14  and  N_16
    8  A    between atoms: C_22  and  N_36
    9  A    between atoms: C_24  and  C_33
   10  A    between atoms: C_25  and  O_37
                            x       y       z     vdW  Elec       q    Type
                         _______ _______ _______ _____ _____    ______ ____

>  <TORSDO>
F 10

$$$$
=
 OpenBabel11042415003D

 39 42  0  0  1  0  0  0  0  0999 V2000
  189.7220  173.5470  145.4360 C   0  0  0  0  0  2  0  0  0  0  0  0
  190.3360  173.8040  141.3830 N   0  0  0  0  0  0  0  0  0  0  0  0
  189.6070  172.2740  144.6210 C   0  0  0  0  0  2  0  0  0  0  0  0
  191.0480  174.6130  143.5540 C   0  0  1  0  0  3  0  0  0  0  0  0
  190.3110  173.6290  142.6710 C   0  0  0  0  0  0  0  0  0  0  0  0
  191.0250  174.2440  145.0510 C   0  0  1  0  0  3  0  0  0  0  0  0
  189.5580  172.5880  143.2340 O   0  0  0  0  0  0  0  0  0  0  0  0
  190.4710  172.2870  139.4440 N   0  0  0  0  0  2  0  0  0  0  0  0
  189.6780  172.9890  140.4030 C   0  0  0  0  0  0  0  0  0  0  0  0
  188.4210  172.8860  140.3780 O   0  0  0  0  0  0  0  0  0  0  0  0
  190.9730  170.6820  137.7030 C   0  0  0  0  0  2  0  0  0  0  0  0
  190.1260  169.9950  138.7530 C   0  0  0  0  0  2  0  0  0  0  0  0
  189.8770  171.4500  138.4150 C   0  0  0  0  0  3  0  0  0  0  0  0
  192.3820  177.0630  142.9620 O   0  0  0  0  0  0  0  0  0  0  0  0
  192.4320  174.7360  143.1130 N   0  0  0  0  0  2  0  0  0  0  0  0
  193.0390  175.9950  142.8090 C   0  0  0  0  0  0  0  0  0  0  0  0
  194.4340  176.0410  142.3320 C   0  0  0  0  0  0  0  0  0  0  0  0
  195.4310  175.9390  143.2220 C   0  0  0  0  0  3  0  0  0  0  0  0
  195.5880  175.3770  140.1910 C   0  0  0  0  0  2  0  0  0  0  0  0
  194.6830  176.3760  140.8880 C   0  0  0  0  0  2  0  0  0  0  0  0
  197.0320  175.6490  140.5700 C   0  0  2  0  0  3  0  0  0  0  0  0
  197.9410  175.0260  139.5330 C   0  0  0  0  0  1  0  0  0  0  0  0
  197.3170  175.0590  141.8680 N   0  0  0  0  0  2  0  0  0  0  0  0
  196.8190  175.9110  142.8690 N   0  0  0  0  0  2  0  0  0  0  0  0
  192.4770  175.4510  146.5720 O   0  0  0  0  0  1  0  0  0  0  0  0
  191.2330  175.4840  145.9350 C   0  0  2  0  0  3  0  0  0  0  0  0
  190.1270  175.6430  146.9790 C   0  0  0  0  0  2  0  0  0  0  0  0
  189.7350  177.1030  147.1710 C   0  0  0  0  0  2  0  0  0  0  0  0
  188.3240  177.2760  146.8760 N   0  0  0  0  0  2  0  0  0  0  0  0
  184.7150  178.6450  145.1260 C   0  0  0  0  0  0  0  0  0  0  0  0
  184.5530  178.9040  143.6570 C   0  0  0  0  0  2  0  0  0  0  0  0
  188.2200  177.5080  145.4970 N   0  0  0  0  0  2  0  0  0  0  0  0
  185.8110  178.6290  142.8830 C   0  0  0  0  0  3  0  0  0  0  0  0
  186.9460  178.1970  143.4510 C   0  0  0  0  0  0  0  0  0  0  0  0
  187.0020  177.9680  144.9090 C   0  0  0  0  0  0  0  0  0  0  0  0
  185.9620  178.1820  145.6570 N   0  0  0  0  0  0  0  0  0  0  0  0
  183.7410  178.8350  145.8990 O   0  0  0  0  0  0  0  0  0  0  0  0
  188.2180  176.8510  141.7990 C   0  0  0  0  0  1  0  0  0  0  0  0
  188.0930  177.9550  142.6850 O   0  0  0  0  0  0  0  0  0  0  0  0
  2  5  2  0  0  0  0
  3  1  1  0  0  0  0
  4 15  1  6  0  0  0
  4  6  1  0  0  0  0
  5  7  1  0  0  0  0
  5  4  1  0  0  0  0
  6  1  1  0  0  0  0
  6 26  1  1  0  0  0
  7  3  1  0  0  0  0
  8  9  1  0  0  0  0
  9  2  1  0  0  0  0
 10  9  2  0  0  0  0
 11 13  1  0  0  0  0
 11 12  1  0  0  0  0
 13 12  1  0  0  0  0
 13  8  1  0  0  0  0
 16 14  2  0  0  0  0
 16 15  1  0  0  0  0
 17 16  1  0  0  0  0
 17 18  2  0  0  0  0
 19 21  1  0  0  0  0
 19 20  1  0  0  0  0
 20 17  1  0  0  0  0
 21 22  1  6  0  0  0
 21 23  1  0  0  0  0
 23 24  1  0  0  0  0
 24 18  1  0  0  0  0
 26 25  1  1  0  0  0
 26 27  1  0  0  0  0
 27 28  1  0  0  0  0
 29 28  1  0  0  0  0
 30 36  1  0  0  0  0
 30 37  2  0  0  0  0
 31 30  1  0  0  0  0
 32 29  1  0  0  0  0
 33 34  2  0  0  0  0
 33 31  1  0  0  0  0
 34 35  1  0  0  0  0
 35 32  1  0  0  0  0
 35 36  2  0  0  0  0
 38 39  1  0  0  0  0
 39 34  1  0  0  0  0
M  END
>  <MODEL>
5

>  <REMARK>
 VINA RESULT:      -6.8      3.165      5.869
  Name = 
  10 active torsions:
  status: ('A' for Active; 'I' for Inactive)
    1  A    between atoms: N_1  and  C_26
    2  A    between atoms: C_3  and  C_21
    3  A    between atoms: C_6  and  C_22
    4  A    between atoms: C_6  and  C_33
    5  A    between atoms: N_9  and  C_19
    6  A    between atoms: N_12  and  N_36
    7  A    between atoms: C_14  and  N_16
    8  A    between atoms: C_22  and  N_36
    9  A    between atoms: C_24  and  C_33
   10  A    between atoms: C_25  and  O_37
                            x       y       z     vdW  Elec       q    Type
                         _______ _______ _______ _____ _____    ______ ____

>  <TORSDO>
F 10

$$$$
=
 OpenBabel11042415003D

 39 42  0  0  1  0  0  0  0  0999 V2000
  193.4870  176.8160  146.8860 C   0  0  0  0  0  2  0  0  0  0  0  0
  194.2720  173.5690  144.4960 N   0  0  0  0  0  0  0  0  0  0  0  0
  194.7060  176.8780  145.9860 C   0  0  0  0  0  2  0  0  0  0  0  0
  192.5290  174.9690  145.4340 C   0  0  1  0  0  3  0  0  0  0  0  0
  193.9760  174.6880  145.0890 C   0  0  0  0  0  0  0  0  0  0  0  0
  192.2950  176.3660  146.0440 C   0  0  1  0  0  3  0  0  0  0  0  0
  194.9870  175.5860  145.4610 O   0  0  0  0  0  0  0  0  0  0  0  0
  196.1780  173.6670  142.9370 N   0  0  0  0  0  2  0  0  0  0  0  0
  195.5840  173.1290  144.1190 C   0  0  0  0  0  0  0  0  0  0  0  0
  196.2120  172.2830  144.8120 O   0  0  0  0  0  0  0  0  0  0  0  0
  197.4120  172.7920  141.0470 C   0  0  0  0  0  2  0  0  0  0  0  0
  197.9390  174.1770  141.3590 C   0  0  0  0  0  2  0  0  0  0  0  0
  197.5000  173.2640  142.4840 C   0  0  0  0  0  3  0  0  0  0  0  0
  190.8600  172.7300  144.8590 O   0  0  0  0  0  0  0  0  0  0  0  0
  191.6970  174.8200  144.2470 N   0  0  0  0  0  2  0  0  0  0  0  0
  190.8970  173.6580  144.0040 C   0  0  0  0  0  0  0  0  0  0  0  0
  190.1070  173.5590  142.7620 C   0  0  0  0  0  0  0  0  0  0  0  0
  188.8800  174.0960  142.7250 C   0  0  0  0  0  3  0  0  0  0  0  0
  190.6840  173.4300  140.3110 C   0  0  0  0  0  2  0  0  0  0  0  0
  190.6400  172.7070  141.6440 C   0  0  0  0  0  2  0  0  0  0  0  0
  189.2930  173.4660  139.7070 C   0  0  2  0  0  3  0  0  0  0  0  0
  189.4070  173.7120  138.2170 C   0  0  0  0  0  1  0  0  0  0  0  0
  188.5250  174.5440  140.3090 N   0  0  0  0  0  2  0  0  0  0  0  0
  188.0480  174.1130  141.5590 N   0  0  0  0  0  2  0  0  0  0  0  0
  190.6350  175.1100  147.2880 O   0  0  0  0  0  1  0  0  0  0  0  0
  191.0160  176.3970  146.8950 C   0  0  2  0  0  3  0  0  0  0  0  0
  189.8540  177.0760  146.1700 C   0  0  0  0  0  2  0  0  0  0  0  0
  188.5610  176.9970  146.9730 C   0  0  0  0  0  2  0  0  0  0  0  0
  187.6560  176.0440  146.3560 N   0  0  0  0  0  2  0  0  0  0  0  0
  184.4230  178.5690  145.2930 C   0  0  0  0  0  0  0  0  0  0  0  0
  184.1680  179.0430  143.8930 C   0  0  0  0  0  2  0  0  0  0  0  0
  187.4590  176.4640  145.0330 N   0  0  0  0  0  2  0  0  0  0  0  0
  185.1870  178.5270  142.9170 C   0  0  0  0  0  3  0  0  0  0  0  0
  186.2060  177.7280  143.2690 C   0  0  0  0  0  0  0  0  0  0  0  0
  186.3680  177.3150  144.6770 C   0  0  0  0  0  0  0  0  0  0  0  0
  185.5340  177.7150  145.5900 N   0  0  0  0  0  0  0  0  0  0  0  0
  183.6490  178.9260  146.2190 O   0  0  0  0  0  0  0  0  0  0  0  0
  188.3320  177.9670  142.0110 C   0  0  0  0  0  1  0  0  0  0  0  0
  187.1300  177.2740  142.3200 O   0  0  0  0  0  0  0  0  0  0  0  0
  2  5  2  0  0  0  0
  3  1  1  0  0  0  0
  4 15  1  6  0  0  0
  4  6  1  0  0  0  0
  5  4  1  0  0  0  0
  5  7  1  0  0  0  0
  6  1  1  0  0  0  0
  6 26  1  1  0  0  0
  7  3  1  0  0  0  0
  8  9  1  0  0  0  0
  9  2  1  0  0  0  0
  9 10  2  0  0  0  0
 11 12  1  0  0  0  0
 11 13  1  0  0  0  0
 12 13  1  0  0  0  0
 13  8  1  0  0  0  0
 16 15  1  0  0  0  0
 16 14  2  0  0  0  0
 17 16  1  0  0  0  0
 18 17  2  0  0  0  0
 19 20  1  0  0  0  0
 20 17  1  0  0  0  0
 21 22  1  6  0  0  0
 21 23  1  0  0  0  0
 21 19  1  0  0  0  0
 23 24  1  0  0  0  0
 24 18  1  0  0  0  0
 26 25  1  6  0  0  0
 27 26  1  0  0  0  0
 27 28  1  0  0  0  0
 29 28  1  0  0  0  0
 30 36  1  0  0  0  0
 30 37  2  0  0  0  0
 31 30  1  0  0  0  0
 32 29  1  0  0  0  0
 33 34  2  0  0  0  0
 33 31  1  0  0  0  0
 34 35  1  0  0  0  0
 35 32  1  0  0  0  0
 35 36  2  0  0  0  0
 38 39  1  0  0  0  0
 39 34  1  0  0  0  0
M  END
>  <MODEL>
6

>  <REMARK>
 VINA RESULT:      -6.6      1.976      2.827
  Name = 
  10 active torsions:
  status: ('A' for Active; 'I' for Inactive)
    1  A    between atoms: N_1  and  C_26
    2  A    between atoms: C_3  and  C_21
    3  A    between atoms: C_6  and  C_22
    4  A    between atoms: C_6  and  C_33
    5  A    between atoms: N_9  and  C_19
    6  A    between atoms: N_12  and  N_36
    7  A    between atoms: C_14  and  N_16
    8  A    between atoms: C_22  and  N_36
    9  A    between atoms: C_24  and  C_33
   10  A    between atoms: C_25  and  O_37
                            x       y       z     vdW  Elec       q    Type
                         _______ _______ _______ _____ _____    ______ ____

>  <TORSDO>
F 10

$$$$
=
 OpenBabel11042415003D

 39 42  0  0  1  0  0  0  0  0999 V2000
  190.3430  172.2690  142.7360 C   0  0  0  0  0  2  0  0  0  0  0  0
  191.7870  175.9390  143.8840 N   0  0  0  0  0  0  0  0  0  0  0  0
  191.2160  172.3300  143.9740 C   0  0  0  0  0  2  0  0  0  0  0  0
  189.8870  174.7550  142.9540 C   0  0  1  0  0  3  0  0  0  0  0  0
  191.2170  174.7890  143.6760 C   0  0  0  0  0  0  0  0  0  0  0  0
  189.2680  173.3460  142.8550 C   0  0  1  0  0  3  0  0  0  0  0  0
  191.8540  173.5990  144.0560 O   0  0  0  0  0  0  0  0  0  0  0  0
  194.2500  175.8700  143.8060 N   0  0  0  0  0  2  0  0  0  0  0  0
  193.0510  176.1560  144.5270 C   0  0  0  0  0  0  0  0  0  0  0  0
  193.1140  176.5920  145.7090 O   0  0  0  0  0  0  0  0  0  0  0  0
  196.5890  175.2910  143.5760 C   0  0  0  0  0  2  0  0  0  0  0  0
  196.4510  176.7890  143.4070 C   0  0  0  0  0  2  0  0  0  0  0  0
  195.5670  176.0550  144.3930 C   0  0  0  0  0  3  0  0  0  0  0  0
  188.4320  176.8490  141.6770 O   0  0  0  0  0  0  0  0  0  0  0  0
  188.9410  175.6490  143.6110 N   0  0  0  0  0  2  0  0  0  0  0  0
  188.2580  176.6980  142.9180 C   0  0  0  0  0  0  0  0  0  0  0  0
  187.3420  177.5890  143.6570 C   0  0  0  0  0  0  0  0  0  0  0  0
  186.5850  178.4570  142.9730 C   0  0  0  0  0  3  0  0  0  0  0  0
  186.0790  177.4080  145.8310 C   0  0  0  0  0  2  0  0  0  0  0  0
  187.4240  177.6090  145.1580 C   0  0  0  0  0  2  0  0  0  0  0  0
  185.2920  178.7040  145.7910 C   0  0  2  0  0  3  0  0  0  0  0  0
  184.2200  178.6650  146.8590 C   0  0  0  0  0  1  0  0  0  0  0  0
  184.6610  178.8550  144.4900 N   0  0  0  0  0  2  0  0  0  0  0  0
  185.6200  179.3260  143.5770 N   0  0  0  0  0  2  0  0  0  0  0  0
  187.1710  172.4800  141.9990 O   0  0  0  0  0  1  0  0  0  0  0  0
  188.2950  173.2450  141.6700 C   0  0  2  0  0  3  0  0  0  0  0  0
  188.9610  172.6670  140.4210 C   0  0  0  0  0  2  0  0  0  0  0  0
  189.3770  173.7580  139.4440 C   0  0  0  0  0  2  0  0  0  0  0  0
  190.5690  173.3460  138.7240 N   0  0  0  0  0  2  0  0  0  0  0  0
  194.2750  175.1560  137.7520 C   0  0  0  0  0  0  0  0  0  0  0  0
  195.4410  175.2120  138.6940 C   0  0  0  0  0  2  0  0  0  0  0  0
  191.6310  173.3760  139.6380 N   0  0  0  0  0  2  0  0  0  0  0  0
  195.1450  174.5600  140.0150 C   0  0  0  0  0  3  0  0  0  0  0  0
  193.9660  173.9910  140.3080 C   0  0  0  0  0  0  0  0  0  0  0  0
  192.8790  173.9860  139.3080 C   0  0  0  0  0  0  0  0  0  0  0  0
  193.0470  174.5290  138.1390 N   0  0  0  0  0  0  0  0  0  0  0  0
  194.3780  175.6670  136.6070 O   0  0  0  0  0  0  0  0  0  0  0  0
  194.6090  172.4260  142.1230 C   0  0  0  0  0  1  0  0  0  0  0  0
  193.7400  173.3970  141.5550 O   0  0  0  0  0  0  0  0  0  0  0  0
  1  6  1  0  0  0  0
  1  3  1  0  0  0  0
  2  9  1  0  0  0  0
  3  7  1  0  0  0  0
  4 15  1  1  0  0  0
  4  5  1  0  0  0  0
  5  2  2  0  0  0  0
  5  7  1  0  0  0  0
  6 26  1  6  0  0  0
  6  4  1  0  0  0  0
  8 13  1  0  0  0  0
  8  9  1  0  0  0  0
  9 10  2  0  0  0  0
 11 13  1  0  0  0  0
 12 11  1  0  0  0  0
 12 13  1  0  0  0  0
 14 16  2  0  0  0  0
 16 15  1  0  0  0  0
 16 17  1  0  0  0  0
 17 20  1  0  0  0  0
 18 24  1  0  0  0  0
 18 17  2  0  0  0  0
 20 19  1  0  0  0  0
 21 19  1  0  0  0  0
 21 22  1  1  0  0  0
 23 21  1  0  0  0  0
 24 23  1  0  0  0  0
 26 25  1  1  0  0  0
 27 26  1  0  0  0  0
 28 27  1  0  0  0  0
 29 28  1  0  0  0  0
 29 32  1  0  0  0  0
 30 36  1  0  0  0  0
 30 31  1  0  0  0  0
 31 33  1  0  0  0  0
 33 34  2  0  0  0  0
 34 39  1  0  0  0  0
 35 32  1  0  0  0  0
 35 34  1  0  0  0  0
 36 35  2  0  0  0  0
 37 30  2  0  0  0  0
 39 38  1  0  0  0  0
M  END
>  <MODEL>
7

>  <REMARK>
 VINA RESULT:      -6.6      3.279      7.341
  Name = 
  10 active torsions:
  status: ('A' for Active; 'I' for Inactive)
    1  A    between atoms: N_1  and  C_26
    2  A    between atoms: C_3  and  C_21
    3  A    between atoms: C_6  and  C_22
    4  A    between atoms: C_6  and  C_33
    5  A    between atoms: N_9  and  C_19
    6  A    between atoms: N_12  and  N_36
    7  A    between atoms: C_14  and  N_16
    8  A    between atoms: C_22  and  N_36
    9  A    between atoms: C_24  and  C_33
   10  A    between atoms: C_25  and  O_37
                            x       y       z     vdW  Elec       q    Type
                         _______ _______ _______ _____ _____    ______ ____

>  <TORSDO>
F 10

$$$$
=
 OpenBabel11042415003D

 39 42  0  0  1  0  0  0  0  0999 V2000
  190.0080  175.2740  146.6350 C   0  0  0  0  0  2  0  0  0  0  0  0
  187.8560  176.8380  143.5060 N   0  0  0  0  0  0  0  0  0  0  0  0
  188.5310  175.5380  146.8540 C   0  0  0  0  0  2  0  0  0  0  0  0
  189.6250  175.3000  144.1270 C   0  0  1  0  0  3  0  0  0  0  0  0
  188.4390  176.1800  144.4640 C   0  0  0  0  0  0  0  0  0  0  0  0
  190.1660  174.4990  145.3280 C   0  0  1  0  0  3  0  0  0  0  0  0
  188.0180  176.3340  145.7930 O   0  0  0  0  0  0  0  0  0  0  0  0
  185.7950  177.4960  144.6880 N   0  0  0  0  0  2  0  0  0  0  0  0
  186.7420  177.7300  143.6440 C   0  0  0  0  0  0  0  0  0  0  0  0
  186.5890  178.7090  142.8630 O   0  0  0  0  0  0  0  0  0  0  0  0
  184.1500  178.2070  146.3140 C   0  0  0  0  0  2  0  0  0  0  0  0
  184.9710  179.4130  145.9110 C   0  0  0  0  0  2  0  0  0  0  0  0
  184.6360  178.3500  144.8870 C   0  0  0  0  0  3  0  0  0  0  0  0
  191.1030  174.9190  141.7190 O   0  0  0  0  0  0  0  0  0  0  0  0
  189.2710  174.3770  143.0560 N   0  0  0  0  0  2  0  0  0  0  0  0
  190.0430  174.2480  141.8590 C   0  0  0  0  0  0  0  0  0  0  0  0
  189.6040  173.3190  140.8000 C   0  0  0  0  0  0  0  0  0  0  0  0
  188.6560  173.7130  139.9380 C   0  0  0  0  0  3  0  0  0  0  0  0
  190.7150  171.4510  139.5210 C   0  0  0  0  0  2  0  0  0  0  0  0
  190.1110  171.9050  140.8380 C   0  0  0  0  0  2  0  0  0  0  0  0
  189.6050  171.0970  138.5490 C   0  0  2  0  0  3  0  0  0  0  0  0
  190.1640  170.1970  137.4680 C   0  0  0  0  0  1  0  0  0  0  0  0
  189.0840  172.3080  137.9380 N   0  0  0  0  0  2  0  0  0  0  0  0
  188.1960  172.9210  138.8380 N   0  0  0  0  0  2  0  0  0  0  0  0
  191.7940  172.7300  145.0110 O   0  0  0  0  0  1  0  0  0  0  0  0
  191.6400  174.1160  145.1250 C   0  0  2  0  0  3  0  0  0  0  0  0
  192.5360  174.6400  146.2480 C   0  0  0  0  0  2  0  0  0  0  0  0
  193.2020  175.9570  145.8730 C   0  0  0  0  0  2  0  0  0  0  0  0
  194.5460  176.0030  146.4220 N   0  0  0  0  0  2  0  0  0  0  0  0
  196.9360  172.6540  145.4080 C   0  0  0  0  0  0  0  0  0  0  0  0
  197.8990  172.6410  144.2580 C   0  0  0  0  0  2  0  0  0  0  0  0
  195.4300  176.0360  145.3340 N   0  0  0  0  0  2  0  0  0  0  0  0
  197.9140  173.9430  143.5070 C   0  0  0  0  0  3  0  0  0  0  0  0
  197.1510  174.9940  143.8400 C   0  0  0  0  0  0  0  0  0  0  0  0
  196.2350  174.9060  144.9950 C   0  0  0  0  0  0  0  0  0  0  0  0
  196.1550  173.8180  145.7000 N   0  0  0  0  0  0  0  0  0  0  0  0
  196.8150  171.6280  146.1260 O   0  0  0  0  0  0  0  0  0  0  0  0
  196.4350  176.4100  141.9310 C   0  0  0  0  0  1  0  0  0  0  0  0
  197.2020  176.1860  143.1070 O   0  0  0  0  0  0  0  0  0  0  0  0
  1  3  1  0  0  0  0
  2  9  1  0  0  0  0
  2  5  2  0  0  0  0
  4 15  1  6  0  0  0
  4  5  1  0  0  0  0
  4  6  1  0  0  0  0
  5  7  1  0  0  0  0
  6 26  1  6  0  0  0
  6  1  1  0  0  0  0
  7  3  1  0  0  0  0
  8 13  1  0  0  0  0
  9  8  1  0  0  0  0
 10  9  2  0  0  0  0
 12 11  1  0  0  0  0
 13 12  1  0  0  0  0
 13 11  1  0  0  0  0
 14 16  2  0  0  0  0
 16 15  1  0  0  0  0
 17 20  1  0  0  0  0
 17 16  1  0  0  0  0
 18 17  2  0  0  0  0
 19 20  1  0  0  0  0
 21 22  1  6  0  0  0
 21 19  1  0  0  0  0
 23 21  1  0  0  0  0
 23 24  1  0  0  0  0
 24 18  1  0  0  0  0
 26 25  1  1  0  0  0
 26 27  1  0  0  0  0
 28 27  1  0  0  0  0
 28 29  1  0  0  0  0
 30 36  1  0  0  0  0
 30 37  2  0  0  0  0
 31 30  1  0  0  0  0
 32 29  1  0  0  0  0
 33 34  2  0  0  0  0
 33 31  1  0  0  0  0
 34 35  1  0  0  0  0
 35 32  1  0  0  0  0
 35 36  2  0  0  0  0
 38 39  1  0  0  0  0
 39 34  1  0  0  0  0
M  END
>  <MODEL>
8

>  <REMARK>
 VINA RESULT:      -6.5      2.500      8.583
  Name = 
  10 active torsions:
  status: ('A' for Active; 'I' for Inactive)
    1  A    between atoms: N_1  and  C_26
    2  A    between atoms: C_3  and  C_21
    3  A    between atoms: C_6  and  C_22
    4  A    between atoms: C_6  and  C_33
    5  A    between atoms: N_9  and  C_19
    6  A    between atoms: N_12  and  N_36
    7  A    between atoms: C_14  and  N_16
    8  A    between atoms: C_22  and  N_36
    9  A    between atoms: C_24  and  C_33
   10  A    between atoms: C_25  and  O_37
                            x       y       z     vdW  Elec       q    Type
                         _______ _______ _______ _____ _____    ______ ____

>  <TORSDO>
F 10

$$$$
=
 OpenBabel11042415003D

 39 42  0  0  1  0  0  0  0  0999 V2000
  188.5510  174.1870  142.3250 C   0  0  0  0  0  2  0  0  0  0  0  0
  191.1130  171.4490  140.6480 N   0  0  0  0  0  0  0  0  0  0  0  0
  187.9440  172.9890  141.6200 C   0  0  0  0  0  2  0  0  0  0  0  0
  190.7470  172.9350  142.5300 C   0  0  1  0  0  3  0  0  0  0  0  0
  190.2640  172.1790  141.3100 C   0  0  0  0  0  0  0  0  0  0  0  0
  189.6290  173.6830  143.2820 C   0  0  1  0  0  3  0  0  0  0  0  0
  188.9420  172.3160  140.8620 O   0  0  0  0  0  0  0  0  0  0  0  0
  191.0190  171.3070  138.1890 N   0  0  0  0  0  2  0  0  0  0  0  0
  190.8370  170.6890  139.4640 C   0  0  0  0  0  0  0  0  0  0  0  0
  190.4410  169.4940  139.5340 O   0  0  0  0  0  0  0  0  0  0  0  0
  189.6900  171.3570  136.1670 C   0  0  0  0  0  2  0  0  0  0  0  0
  191.1470  171.4900  135.7810 C   0  0  0  0  0  2  0  0  0  0  0  0
  190.7510  170.6060  136.9450 C   0  0  0  0  0  3  0  0  0  0  0  0
  193.5570  172.8240  143.0020 O   0  0  0  0  0  0  0  0  0  0  0  0
  191.4140  172.0200  143.4490 N   0  0  0  0  0  2  0  0  0  0  0  0
  192.8330  171.9980  143.6250 C   0  0  0  0  0  0  0  0  0  0  0  0
  193.4420  171.0190  144.5460 C   0  0  0  0  0  0  0  0  0  0  0  0
  193.1070  169.7260  144.4390 C   0  0  0  0  0  3  0  0  0  0  0  0
  195.6460  170.8780  145.7640 C   0  0  0  0  0  2  0  0  0  0  0  0
  194.2810  171.5360  145.6820 C   0  0  0  0  0  2  0  0  0  0  0  0
  195.5120  169.5070  146.3990 C   0  0  2  0  0  3  0  0  0  0  0  0
  196.8610  169.0770  146.9340 C   0  0  0  0  0  1  0  0  0  0  0  0
  195.0660  168.5460  145.4040 N   0  0  0  0  0  2  0  0  0  0  0  0
  193.6770  168.6830  145.2370 N   0  0  0  0  0  2  0  0  0  0  0  0
  191.4470  175.2510  143.6200 O   0  0  0  0  0  1  0  0  0  0  0  0
  190.1920  174.8580  144.0960 C   0  0  2  0  0  3  0  0  0  0  0  0
  190.2880  174.5360  145.5880 C   0  0  0  0  0  2  0  0  0  0  0  0
  189.3680  175.4210  146.4190 C   0  0  0  0  0  2  0  0  0  0  0  0
  189.5490  176.8120  146.0420 N   0  0  0  0  0  2  0  0  0  0  0  0
  187.5840  178.0190  142.4860 C   0  0  0  0  0  0  0  0  0  0  0  0
  186.2320  178.6680  142.4670 C   0  0  0  0  0  2  0  0  0  0  0  0
  188.2830  177.4130  146.0720 N   0  0  0  0  0  2  0  0  0  0  0  0
  185.6550  178.8350  143.8440 C   0  0  0  0  0  3  0  0  0  0  0  0
  186.2900  178.4480  144.9610 C   0  0  0  0  0  0  0  0  0  0  0  0
  187.6230  177.8190  144.8730 C   0  0  0  0  0  0  0  0  0  0  0  0
  188.1970  177.6330  143.7220 N   0  0  0  0  0  0  0  0  0  0  0  0
  188.1880  177.8120  141.4020 O   0  0  0  0  0  0  0  0  0  0  0  0
  184.3370  178.3630  146.4910 C   0  0  0  0  0  1  0  0  0  0  0  0
  185.7080  178.6260  146.2220 O   0  0  0  0  0  0  0  0  0  0  0  0
  1  6  1  0  0  0  0
  2  5  2  0  0  0  0
  3  1  1  0  0  0  0
  4  6  1  0  0  0  0
  4 15  1  1  0  0  0
  5  4  1  0  0  0  0
  6 26  1  6  0  0  0
  7  5  1  0  0  0  0
  7  3  1  0  0  0  0
  8  9  1  0  0  0  0
  9 10  2  0  0  0  0
  9  2  1  0  0  0  0
 11 13  1  0  0  0  0
 12 11  1  0  0  0  0
 12 13  1  0  0  0  0
 13  8  1  0  0  0  0
 14 16  2  0  0  0  0
 15 16  1  0  0  0  0
 16 17  1  0  0  0  0
 17 20  1  0  0  0  0
 18 17  2  0  0  0  0
 18 24  1  0  0  0  0
 19 21  1  0  0  0  0
 20 19  1  0  0  0  0
 21 22  1  6  0  0  0
 23 21  1  0  0  0  0
 24 23  1  0  0  0  0
 26 25  1  6  0  0  0
 26 27  1  0  0  0  0
 27 28  1  0  0  0  0
 29 32  1  0  0  0  0
 29 28  1  0  0  0  0
 30 36  1  0  0  0  0
 31 30  1  0  0  0  0
 31 33  1  0  0  0  0
 33 34  2  0  0  0  0
 34 39  1  0  0  0  0
 35 34  1  0  0  0  0
 35 32  1  0  0  0  0
 36 35  2  0  0  0  0
 37 30  2  0  0  0  0
 39 38  1  0  0  0  0
M  END
>  <MODEL>
9

>  <REMARK>
 VINA RESULT:      -6.5      2.477      6.345
  Name = 
  10 active torsions:
  status: ('A' for Active; 'I' for Inactive)
    1  A    between atoms: N_1  and  C_26
    2  A    between atoms: C_3  and  C_21
    3  A    between atoms: C_6  and  C_22
    4  A    between atoms: C_6  and  C_33
    5  A    between atoms: N_9  and  C_19
    6  A    between atoms: N_12  and  N_36
    7  A    between atoms: C_14  and  N_16
    8  A    between atoms: C_22  and  N_36
    9  A    between atoms: C_24  and  C_33
   10  A    between atoms: C_25  and  O_37
                            x       y       z     vdW  Elec       q    Type
                         _______ _______ _______ _____ _____    ______ ____

>  <TORSDO>
F 10

$$$$
