=
 OpenBabel11042418463D

 44 49  0  0  1  0  0  0  0  0999 V2000
  188.5430  173.5340  141.1340 O   0  0  0  0  0  0  0  0  0  0  0  0
  184.9360  178.7580  142.8510 N   0  0  0  0  0  2  0  0  0  0  0  0
  187.2140  176.1380  142.8720 C   0  0  0  0  0  0  0  0  0  0  0  0
  188.3250  174.9160  141.0920 C   0  0  0  0  0  2  0  0  0  0  0  0
  189.4030  175.2660  143.4350 C   0  0  1  0  0  3  0  0  0  0  0  0
  185.2680  177.4480  142.3030 C   0  0  0  0  0  2  0  0  0  0  0  0
  189.9410  171.5310  142.9550 C   0  0  0  0  0  1  0  0  0  0  0  0
  191.8230  173.1280  142.8800 C   0  0  0  0  0  1  0  0  0  0  0  0
  186.1620  176.7940  143.2800 C   0  0  0  0  0  0  0  0  0  0  0  0
  185.2230  178.6970  144.2830 C   0  0  0  0  0  2  0  0  0  0  0  0
  188.2680  175.4750  142.4800 C   0  0  0  0  0  0  0  0  0  0  0  0
  189.9290  173.3910  141.2790 C   0  0  1  0  0  3  0  0  0  0  0  0
  186.2160  177.5760  144.5290 C   0  0  1  0  0  3  0  0  0  0  0  0
  190.3060  172.9980  142.7300 C   0  0  0  0  0  0  0  0  0  0  0  0
  189.5720  173.8290  143.7340 N   0  0  0  0  0  0  0  0  0  0  0  0
  186.1040  177.4480  147.0060 C   0  0  0  0  0  2  0  0  0  0  0  0
  185.7660  176.7330  145.7110 C   0  0  0  0  0  3  0  0  0  0  0  0
  184.6850  177.4740  146.4760 C   0  0  0  0  0  2  0  0  0  0  0  0
  190.6750  175.9760  142.9680 C   0  0  0  0  0  2  0  0  0  0  0  0
  190.4350  177.4050  142.8580 N   0  0  0  0  0  1  0  0  0  0  0  0
  190.0990  173.6930  145.0930 C   0  0  0  0  0  2  0  0  0  0  0  0
  189.3240  174.5850  146.0460 C   0  0  0  0  0  2  0  0  0  0  0  0
  190.2250  175.0950  147.1600 C   0  0  0  0  0  2  0  0  0  0  0  0
  190.0980  177.6990  147.6950 C   0  0  0  0  0  2  0  0  0  0  0  0
  189.5540  177.3440  146.3260 C   0  0  0  0  0  2  0  0  0  0  0  0
  190.6860  176.5300  146.9180 C   0  0  0  0  0  0  0  0  0  0  0  0
  191.8600  176.7310  146.1750 O   0  0  0  0  0  0  0  0  0  0  0  0
  192.8080  175.8180  146.6560 C   0  0  0  0  0  2  0  0  0  0  0  0
  194.0870  176.4310  146.6740 O   0  0  0  0  0  0  0  0  0  0  0  0
  194.6340  176.2710  144.4310 O   0  0  0  0  0  0  0  0  0  0  0  0
  194.6910  176.9120  145.5130 C   0  0  0  0  0  3  0  0  0  0  0  0
  190.4890  172.4460  140.2150 C   0  0  0  0  0  2  0  0  0  0  0  0
  190.3320  174.1480  136.8610 C   0  0  0  0  0  3  0  0  0  0  0  0
  192.5910  174.3800  137.6740 C   0  0  0  0  0  3  0  0  0  0  0  0
  192.2700  173.6920  138.8490 C   0  0  0  0  0  0  0  0  0  0  0  0
  189.9910  173.4530  138.0210 C   0  0  0  0  0  3  0  0  0  0  0  0
  190.9420  173.2140  139.0180 C   0  0  0  0  0  0  0  0  0  0  0  0
  191.6330  174.6140  136.6800 C   0  0  0  0  0  0  0  0  0  0  0  0
  192.4770  176.6310  135.5210 C   0  0  0  0  0  1  0  0  0  0  0  0
  191.9480  175.3110  135.5080 O   0  0  0  0  0  0  0  0  0  0  0  0
  193.3010  173.5390  139.7920 O   0  0  0  0  0  0  0  0  0  0  0  0
  194.1530  175.4180  141.0050 C   0  0  0  0  0  2  0  0  0  0  0  0
  194.4320  174.3870  139.9290 C   0  0  0  0  0  3  0  0  0  0  0  0
  195.0250  174.2190  141.3150 C   0  0  0  0  0  2  0  0  0  0  0  0
  1 12  1  0  0  0  0
  2 10  1  0  0  0  0
  3  9  2  0  0  0  0
  4  1  1  0  0  0  0
  4 11  1  0  0  0  0
  5 19  1  6  0  0  0
  5 15  1  0  0  0  0
  6  2  1  0  0  0  0
  6  9  1  0  0  0  0
  9 13  1  0  0  0  0
 10 13  1  0  0  0  0
 11  3  2  0  0  0  0
 11  5  1  0  0  0  0
 12 32  1  6  0  0  0
 12 14  1  0  0  0  0
 13 17  1  1  0  0  0
 14  8  1  0  0  0  0
 14  7  1  0  0  0  0
 14 15  1  0  0  0  0
 15 21  1  0  0  0  0
 17 18  1  0  0  0  0
 17 16  1  0  0  0  0
 18 16  1  0  0  0  0
 20 19  1  0  0  0  0
 21 22  1  0  0  0  0
 22 23  1  0  0  0  0
 25 26  1  0  0  0  0
 25 24  1  0  0  0  0
 26 23  1  0  0  0  0
 26 24  1  0  0  0  0
 27 28  1  0  0  0  0
 27 26  1  0  0  0  0
 28 29  1  0  0  0  0
 30 31  2  0  0  0  0
 31 29  1  0  0  0  0
 33 36  1  0  0  0  0
 34 35  2  0  0  0  0
 35 37  1  0  0  0  0
 35 41  1  0  0  0  0
 36 37  2  0  0  0  0
 37 32  1  0  0  0  0
 38 33  2  0  0  0  0
 38 34  1  0  0  0  0
 40 39  1  0  0  0  0
 40 38  1  0  0  0  0
 41 43  1  0  0  0  0
 42 44  1  0  0  0  0
 43 42  1  0  0  0  0
 43 44  1  0  0  0  0
M  END
>  <MODEL>
1

>  <REMARK>
 VINA RESULT:      -6.8      0.000      0.000
  Name = 
  15 active torsions:
  status: ('A' for Active; 'I' for Inactive)
    1  A    between atoms: O_5  and  C_23
    2  A    between atoms: O_5  and  C_35
    3  A    between atoms: O_7  and  C_35
    4  A    between atoms: O_7  and  C_41
    5  A    between atoms: C_11  and  C_19
    6  A    between atoms: C_11  and  N_42
    7  A    between atoms: C_12  and  C_36
    8  A    between atoms: C_14  and  C_18
    9  A    between atoms: C_16  and  C_19
   10  A    between atoms: C_16  and  C_23
   11  A    between atoms: C_21  and  C_32
   12  A    between atoms: C_21  and  C_34
   13  A    between atoms: O_25  and  C_38
   14  A    between atoms: C_29  and  O_43
   15  A    between atoms: C_33  and  O_43
                            x       y       z     vdW  Elec       q    Type
                         _______ _______ _______ _____ _____    ______ ____

>  <TORSDO>
F 15

$$$$
=
 OpenBabel11042418463D

 44 49  0  0  1  0  0  0  0  0999 V2000
  191.4380  177.1850  145.2850 O   0  0  0  0  0  0  0  0  0  0  0  0
  197.5520  176.5890  142.9360 N   0  0  0  0  0  2  0  0  0  0  0  0
  194.3230  175.9080  144.0150 C   0  0  0  0  0  0  0  0  0  0  0  0
  192.3350  177.2870  144.2150 C   0  0  0  0  0  2  0  0  0  0  0  0
  192.2240  174.7310  143.7380 C   0  0  1  0  0  3  0  0  0  0  0  0
  196.4550  177.0190  143.7950 C   0  0  0  0  0  2  0  0  0  0  0  0
  189.6960  175.0380  146.5640 C   0  0  0  0  0  1  0  0  0  0  0  0
  188.9920  174.5570  144.2460 C   0  0  0  0  0  1  0  0  0  0  0  0
  195.6250  175.8240  144.0520 C   0  0  0  0  0  0  0  0  0  0  0  0
  197.6410  175.1360  143.0670 C   0  0  0  0  0  2  0  0  0  0  0  0
  193.0200  175.9750  143.9850 C   0  0  0  0  0  0  0  0  0  0  0  0
  190.2730  176.6410  144.7290 C   0  0  1  0  0  3  0  0  0  0  0  0
  196.3040  174.6130  143.5550 C   0  0  1  0  0  3  0  0  0  0  0  0
  190.1180  175.1440  145.0990 C   0  0  0  0  0  0  0  0  0  0  0  0
  191.4010  174.3980  144.9200 N   0  0  0  0  0  0  0  0  0  0  0  0
  195.2290  172.8560  144.9420 C   0  0  0  0  0  2  0  0  0  0  0  0
  196.5170  173.6160  144.6830 C   0  0  0  0  0  3  0  0  0  0  0  0
  196.3440  172.2060  144.1480 C   0  0  0  0  0  2  0  0  0  0  0  0
  191.4500  174.8040  142.4210 C   0  0  0  0  0  2  0  0  0  0  0  0
  192.3510  174.5820  141.3030 N   0  0  0  0  0  1  0  0  0  0  0  0
  191.2380  172.9440  144.9820 C   0  0  0  0  0  2  0  0  0  0  0  0
  192.4130  172.2570  144.3090 C   0  0  0  0  0  2  0  0  0  0  0  0
  191.9980  170.9060  143.7470 C   0  0  0  0  0  2  0  0  0  0  0  0
  193.4430  169.8970  141.7540 C   0  0  0  0  0  2  0  0  0  0  0  0
  193.6710  171.3800  141.9640 C   0  0  0  0  0  2  0  0  0  0  0  0
  192.3120  170.7800  142.2580 C   0  0  0  0  0  0  0  0  0  0  0  0
  191.3670  171.2620  141.3400 O   0  0  0  0  0  0  0  0  0  0  0  0
  190.1080  171.1290  141.9420 C   0  0  0  0  0  2  0  0  0  0  0  0
  189.2730  172.2000  141.5310 O   0  0  0  0  0  0  0  0  0  0  0  0
  188.2770  173.3390  139.7800 O   0  0  0  0  0  0  0  0  0  0  0  0
  189.2320  172.6390  140.2090 C   0  0  0  0  0  3  0  0  0  0  0  0
  189.0550  177.4970  145.0840 C   0  0  0  0  0  2  0  0  0  0  0  0
  188.0250  177.8670  141.4820 C   0  0  0  0  0  3  0  0  0  0  0  0
  186.0140  177.9450  142.8110 C   0  0  0  0  0  3  0  0  0  0  0  0
  186.7510  177.7740  143.9880 C   0  0  0  0  0  0  0  0  0  0  0  0
  188.7810  177.7020  142.6430 C   0  0  0  0  0  3  0  0  0  0  0  0
  188.1640  177.6580  143.8970 C   0  0  0  0  0  0  0  0  0  0  0  0
  186.6400  177.9910  141.5580 C   0  0  0  0  0  0  0  0  0  0  0  0
  184.5020  178.3830  140.3750 C   0  0  0  0  0  1  0  0  0  0  0  0
  185.9060  178.1520  140.3780 O   0  0  0  0  0  0  0  0  0  0  0  0
  186.0180  177.7130  145.1860 O   0  0  0  0  0  0  0  0  0  0  0  0
  184.4400  178.3210  146.8800 C   0  0  0  0  0  2  0  0  0  0  0  0
  185.4560  178.8230  145.8720 C   0  0  0  0  0  3  0  0  0  0  0  0
  185.8190  178.7430  147.3430 C   0  0  0  0  0  2  0  0  0  0  0  0
  2 10  1  0  0  0  0
  2  6  1  0  0  0  0
  3  9  2  0  0  0  0
  4  1  1  0  0  0  0
  5 19  1  6  0  0  0
  5 11  1  0  0  0  0
  5 15  1  0  0  0  0
  6  9  1  0  0  0  0
  8 14  1  0  0  0  0
 10 13  1  0  0  0  0
 11  3  2  0  0  0  0
 11  4  1  0  0  0  0
 12 32  1  1  0  0  0
 12 14  1  0  0  0  0
 12  1  1  0  0  0  0
 13  9  1  0  0  0  0
 13 17  1  1  0  0  0
 14  7  1  0  0  0  0
 15 21  1  0  0  0  0
 15 14  1  0  0  0  0
 17 16  1  0  0  0  0
 18 17  1  0  0  0  0
 18 16  1  0  0  0  0
 20 19  1  0  0  0  0
 22 21  1  0  0  0  0
 23 22  1  0  0  0  0
 24 25  1  0  0  0  0
 24 26  1  0  0  0  0
 25 26  1  0  0  0  0
 26 23  1  0  0  0  0
 27 28  1  0  0  0  0
 27 26  1  0  0  0  0
 29 28  1  0  0  0  0
 30 31  2  0  0  0  0
 31 29  1  0  0  0  0
 33 38  2  0  0  0  0
 33 36  1  0  0  0  0
 34 35  2  0  0  0  0
 35 41  1  0  0  0  0
 36 37  2  0  0  0  0
 37 35  1  0  0  0  0
 37 32  1  0  0  0  0
 38 34  1  0  0  0  0
 39 40  1  0  0  0  0
 40 38  1  0  0  0  0
 41 43  1  0  0  0  0
 42 44  1  0  0  0  0
 43 42  1  0  0  0  0
 43 44  1  0  0  0  0
M  END
>  <MODEL>
2

>  <REMARK>
 VINA RESULT:      -6.6      2.960      8.249
  Name = 
  15 active torsions:
  status: ('A' for Active; 'I' for Inactive)
    1  A    between atoms: O_5  and  C_23
    2  A    between atoms: O_5  and  C_35
    3  A    between atoms: O_7  and  C_35
    4  A    between atoms: O_7  and  C_41
    5  A    between atoms: C_11  and  C_19
    6  A    between atoms: C_11  and  N_42
    7  A    between atoms: C_12  and  C_36
    8  A    between atoms: C_14  and  C_18
    9  A    between atoms: C_16  and  C_19
   10  A    between atoms: C_16  and  C_23
   11  A    between atoms: C_21  and  C_32
   12  A    between atoms: C_21  and  C_34
   13  A    between atoms: O_25  and  C_38
   14  A    between atoms: C_29  and  O_43
   15  A    between atoms: C_33  and  O_43
                            x       y       z     vdW  Elec       q    Type
                         _______ _______ _______ _____ _____    ______ ____

>  <TORSDO>
F 15

$$$$
=
 OpenBabel11042418463D

 44 49  0  0  1  0  0  0  0  0999 V2000
  188.9950  176.7450  141.9860 O   0  0  0  0  0  0  0  0  0  0  0  0
  190.0090  170.9350  139.0750 N   0  0  0  0  0  2  0  0  0  0  0  0
  190.2200  173.6700  141.2030 C   0  0  0  0  0  0  0  0  0  0  0  0
  188.6320  175.4040  141.8090 C   0  0  0  0  0  2  0  0  0  0  0  0
  190.4880  174.5760  143.4340 C   0  0  1  0  0  3  0  0  0  0  0  0
  189.7730  172.3670  139.2210 C   0  0  0  0  0  2  0  0  0  0  0  0
  190.9240  178.3440  143.7190 C   0  0  0  0  0  1  0  0  0  0  0  0
  189.9990  177.0060  145.5770 C   0  0  0  0  0  1  0  0  0  0  0  0
  190.6630  172.8340  140.3040 C   0  0  0  0  0  0  0  0  0  0  0  0
  191.3020  170.6590  139.6990 C   0  0  0  0  0  2  0  0  0  0  0  0
  189.7940  174.5080  142.1090 C   0  0  0  0  0  0  0  0  0  0  0  0
  188.8560  176.9780  143.3610 C   0  0  1  0  0  3  0  0  0  0  0  0
  191.6090  171.7700  140.6840 C   0  0  1  0  0  3  0  0  0  0  0  0
  190.2350  177.0240  144.0660 C   0  0  0  0  0  0  0  0  0  0  0  0
  191.1170  175.8990  143.6250 N   0  0  0  0  0  0  0  0  0  0  0  0
  193.5240  172.9060  141.7830 C   0  0  0  0  0  2  0  0  0  0  0  0
  193.0440  172.2380  140.5080 C   0  0  0  0  0  3  0  0  0  0  0  0
  193.9430  171.4840  141.4700 C   0  0  0  0  0  2  0  0  0  0  0  0
  189.5740  174.1330  144.5770 C   0  0  0  0  0  2  0  0  0  0  0  0
  189.8600  172.7540  144.9370 N   0  0  0  0  0  1  0  0  0  0  0  0
  192.3070  175.7360  144.4600 C   0  0  0  0  0  2  0  0  0  0  0  0
  193.5620  175.9260  143.6280 C   0  0  0  0  0  2  0  0  0  0  0  0
  194.7390  176.3190  144.5070 C   0  0  0  0  0  2  0  0  0  0  0  0
  196.9640  176.8330  143.1410 C   0  0  0  0  0  2  0  0  0  0  0  0
  196.0100  175.9150  142.4040 C   0  0  0  0  0  2  0  0  0  0  0  0
  196.0740  175.8730  143.9160 C   0  0  0  0  0  0  0  0  0  0  0  0
  196.6080  174.6450  144.3390 O   0  0  0  0  0  0  0  0  0  0  0  0
  196.1860  174.4510  145.6610 C   0  0  0  0  0  2  0  0  0  0  0  0
  195.8970  173.0770  145.8680 O   0  0  0  0  0  0  0  0  0  0  0  0
  194.2630  171.4400  145.8360 O   0  0  0  0  0  0  0  0  0  0  0  0
  194.7710  172.4680  145.3160 C   0  0  0  0  0  3  0  0  0  0  0  0
  187.9880  178.2110  143.6140 C   0  0  0  0  0  2  0  0  0  0  0  0
  185.6960  178.2110  140.6290 C   0  0  0  0  0  3  0  0  0  0  0  0
  184.3180  177.9130  142.5860 C   0  0  0  0  0  3  0  0  0  0  0  0
  185.4420  177.9490  143.4180 C   0  0  0  0  0  0  0  0  0  0  0  0
  186.8300  178.2560  141.4400 C   0  0  0  0  0  3  0  0  0  0  0  0
  186.7220  178.1320  142.8280 C   0  0  0  0  0  0  0  0  0  0  0  0
  184.4340  178.0410  141.1960 C   0  0  0  0  0  0  0  0  0  0  0  0
  182.0160  178.3810  140.7980 C   0  0  0  0  0  1  0  0  0  0  0  0
  183.3130  177.9960  140.3600 O   0  0  0  0  0  0  0  0  0  0  0  0
  185.2130  177.7820  144.7950 O   0  0  0  0  0  0  0  0  0  0  0  0
  184.5030  178.2800  147.0260 C   0  0  0  0  0  2  0  0  0  0  0  0
  185.1200  178.8260  145.7530 C   0  0  0  0  0  3  0  0  0  0  0  0
  186.0000  178.4970  146.9450 C   0  0  0  0  0  2  0  0  0  0  0  0
  1 12  1  0  0  0  0
  2  6  1  0  0  0  0
  2 10  1  0  0  0  0
  3 11  2  0  0  0  0
  4  1  1  0  0  0  0
  4 11  1  0  0  0  0
  5 15  1  0  0  0  0
  5 19  1  1  0  0  0
  6  9  1  0  0  0  0
  7 14  1  0  0  0  0
  9 13  1  0  0  0  0
  9  3  2  0  0  0  0
 10 13  1  0  0  0  0
 11  5  1  0  0  0  0
 12 32  1  6  0  0  0
 12 14  1  0  0  0  0
 13 17  1  6  0  0  0
 14  8  1  0  0  0  0
 15 14  1  0  0  0  0
 15 21  1  0  0  0  0
 17 18  1  0  0  0  0
 17 16  1  0  0  0  0
 18 16  1  0  0  0  0
 19 20  1  0  0  0  0
 22 21  1  0  0  0  0
 22 23  1  0  0  0  0
 24 26  1  0  0  0  0
 25 24  1  0  0  0  0
 25 26  1  0  0  0  0
 26 27  1  0  0  0  0
 26 23  1  0  0  0  0
 27 28  1  0  0  0  0
 28 29  1  0  0  0  0
 31 30  2  0  0  0  0
 31 29  1  0  0  0  0
 33 38  2  0  0  0  0
 33 36  1  0  0  0  0
 34 35  2  0  0  0  0
 35 41  1  0  0  0  0
 36 37  2  0  0  0  0
 37 35  1  0  0  0  0
 37 32  1  0  0  0  0
 38 34  1  0  0  0  0
 40 39  1  0  0  0  0
 40 38  1  0  0  0  0
 41 43  1  0  0  0  0
 43 44  1  0  0  0  0
 43 42  1  0  0  0  0
 44 42  1  0  0  0  0
M  END
>  <MODEL>
3

>  <REMARK>
 VINA RESULT:      -6.5      2.863      7.560
  Name = 
  15 active torsions:
  status: ('A' for Active; 'I' for Inactive)
    1  A    between atoms: O_5  and  C_23
    2  A    between atoms: O_5  and  C_35
    3  A    between atoms: O_7  and  C_35
    4  A    between atoms: O_7  and  C_41
    5  A    between atoms: C_11  and  C_19
    6  A    between atoms: C_11  and  N_42
    7  A    between atoms: C_12  and  C_36
    8  A    between atoms: C_14  and  C_18
    9  A    between atoms: C_16  and  C_19
   10  A    between atoms: C_16  and  C_23
   11  A    between atoms: C_21  and  C_32
   12  A    between atoms: C_21  and  C_34
   13  A    between atoms: O_25  and  C_38
   14  A    between atoms: C_29  and  O_43
   15  A    between atoms: C_33  and  O_43
                            x       y       z     vdW  Elec       q    Type
                         _______ _______ _______ _____ _____    ______ ____

>  <TORSDO>
F 15

$$$$
=
 OpenBabel11042418463D

 44 49  0  0  1  0  0  0  0  0999 V2000
  191.1350  175.9010  142.5530 O   0  0  0  0  0  0  0  0  0  0  0  0
  191.4830  169.7070  140.3700 N   0  0  0  0  0  2  0  0  0  0  0  0
  191.6350  172.5430  142.3690 C   0  0  0  0  0  0  0  0  0  0  0  0
  190.5020  174.6870  142.2630 C   0  0  0  0  0  2  0  0  0  0  0  0
  191.2780  173.6220  144.5070 C   0  0  1  0  0  3  0  0  0  0  0  0
  191.6280  171.1580  140.3910 C   0  0  0  0  0  2  0  0  0  0  0  0
  192.6260  177.1590  144.8940 C   0  0  0  0  0  1  0  0  0  0  0  0
  190.7220  176.3460  146.2410 C   0  0  0  0  0  1  0  0  0  0  0  0
  192.1300  171.5150  141.7330 C   0  0  0  0  0  0  0  0  0  0  0  0
  192.3030  169.1900  141.4640 C   0  0  0  0  0  2  0  0  0  0  0  0
  191.1540  173.5690  143.0160 C   0  0  0  0  0  0  0  0  0  0  0  0
  190.5550  176.3330  143.7530 C   0  0  1  0  0  3  0  0  0  0  0  0
  192.5140  170.3000  142.4760 C   0  0  1  0  0  3  0  0  0  0  0  0
  191.5120  176.1130  144.9520 C   0  0  0  0  0  0  0  0  0  0  0  0
  192.1350  174.7540  144.9170 N   0  0  0  0  0  0  0  0  0  0  0  0
  194.0810  170.6120  144.3770 C   0  0  0  0  0  2  0  0  0  0  0  0
  193.9770  170.3600  142.8840 C   0  0  0  0  0  3  0  0  0  0  0  0
  194.2830  169.2130  143.8310 C   0  0  0  0  0  2  0  0  0  0  0  0
  189.9120  173.5760  145.1920 C   0  0  0  0  0  2  0  0  0  0  0  0
  189.4170  172.2090  145.2220 N   0  0  0  0  0  1  0  0  0  0  0  0
  192.8170  174.3980  146.1620 C   0  0  0  0  0  2  0  0  0  0  0  0
  194.3120  174.6190  146.0230 C   0  0  0  0  0  2  0  0  0  0  0  0
  194.8360  173.9810  144.7460 C   0  0  0  0  0  2  0  0  0  0  0  0
  197.0570  172.5600  145.1010 C   0  0  0  0  0  2  0  0  0  0  0  0
  196.8610  173.6330  146.1520 C   0  0  0  0  0  2  0  0  0  0  0  0
  196.3570  173.8630  144.7430 C   0  0  0  0  0  0  0  0  0  0  0  0
  197.0990  174.8840  144.1300 O   0  0  0  0  0  0  0  0  0  0  0  0
  196.1830  175.7100  143.4640 C   0  0  0  0  0  2  0  0  0  0  0  0
  196.8540  176.4290  142.4400 O   0  0  0  0  0  0  0  0  0  0  0  0
  194.9980  176.5490  141.0630 O   0  0  0  0  0  0  0  0  0  0  0  0
  196.1930  176.8720  141.2960 C   0  0  0  0  0  3  0  0  0  0  0  0
  190.0460  177.7690  143.6210 C   0  0  0  0  0  2  0  0  0  0  0  0
  187.2280  177.7960  141.1260 C   0  0  0  0  0  3  0  0  0  0  0  0
  186.2360  177.8590  143.3230 C   0  0  0  0  0  3  0  0  0  0  0  0
  187.4980  177.8240  143.9250 C   0  0  0  0  0  0  0  0  0  0  0  0
  188.4970  177.7670  141.7040 C   0  0  0  0  0  3  0  0  0  0  0  0
  188.6500  177.7840  143.0940 C   0  0  0  0  0  0  0  0  0  0  0  0
  186.0910  177.8430  141.9300 C   0  0  0  0  0  0  0  0  0  0  0  0
  183.6410  178.1720  142.0430 C   0  0  0  0  0  1  0  0  0  0  0  0
  184.8300  177.8690  141.3240 O   0  0  0  0  0  0  0  0  0  0  0  0
  187.5250  177.8140  145.3310 O   0  0  0  0  0  0  0  0  0  0  0  0
  186.6590  176.7320  147.2820 C   0  0  0  0  0  2  0  0  0  0  0  0
  186.3910  177.7410  146.1820 C   0  0  0  0  0  3  0  0  0  0  0  0
  186.7710  178.2140  147.5720 C   0  0  0  0  0  2  0  0  0  0  0  0
  1 12  1  0  0  0  0
  2  6  1  0  0  0  0
  2 10  1  0  0  0  0
  3 11  2  0  0  0  0
  4  1  1  0  0  0  0
  4 11  1  0  0  0  0
  5 15  1  0  0  0  0
  5 19  1  1  0  0  0
  6  9  1  0  0  0  0
  7 14  1  0  0  0  0
  9  3  2  0  0  0  0
  9 13  1  0  0  0  0
 10 13  1  0  0  0  0
 11  5  1  0  0  0  0
 12 32  1  6  0  0  0
 12 14  1  0  0  0  0
 13 17  1  6  0  0  0
 14  8  1  0  0  0  0
 15 14  1  0  0  0  0
 15 21  1  0  0  0  0
 17 18  1  0  0  0  0
 17 16  1  0  0  0  0
 18 16  1  0  0  0  0
 19 20  1  0  0  0  0
 22 21  1  0  0  0  0
 23 22  1  0  0  0  0
 24 25  1  0  0  0  0
 26 23  1  0  0  0  0
 26 24  1  0  0  0  0
 26 25  1  0  0  0  0
 27 26  1  0  0  0  0
 28 27  1  0  0  0  0
 29 28  1  0  0  0  0
 30 31  2  0  0  0  0
 31 29  1  0  0  0  0
 33 36  2  0  0  0  0
 33 38  1  0  0  0  0
 34 35  1  0  0  0  0
 35 41  1  0  0  0  0
 36 37  1  0  0  0  0
 37 32  1  0  0  0  0
 37 35  2  0  0  0  0
 38 34  2  0  0  0  0
 40 38  1  0  0  0  0
 40 39  1  0  0  0  0
 41 43  1  0  0  0  0
 42 44  1  0  0  0  0
 43 42  1  0  0  0  0
 43 44  1  0  0  0  0
M  END
>  <MODEL>
4

>  <REMARK>
 VINA RESULT:      -6.4      3.123      7.579
  Name = 
  15 active torsions:
  status: ('A' for Active; 'I' for Inactive)
    1  A    between atoms: O_5  and  C_23
    2  A    between atoms: O_5  and  C_35
    3  A    between atoms: O_7  and  C_35
    4  A    between atoms: O_7  and  C_41
    5  A    between atoms: C_11  and  C_19
    6  A    between atoms: C_11  and  N_42
    7  A    between atoms: C_12  and  C_36
    8  A    between atoms: C_14  and  C_18
    9  A    between atoms: C_16  and  C_19
   10  A    between atoms: C_16  and  C_23
   11  A    between atoms: C_21  and  C_32
   12  A    between atoms: C_21  and  C_34
   13  A    between atoms: O_25  and  C_38
   14  A    between atoms: C_29  and  O_43
   15  A    between atoms: C_33  and  O_43
                            x       y       z     vdW  Elec       q    Type
                         _______ _______ _______ _____ _____    ______ ____

>  <TORSDO>
F 15

$$$$
=
 OpenBabel11042418463D

 44 49  0  0  1  0  0  0  0  0999 V2000
  191.0320  175.2690  143.8460 O   0  0  0  0  0  0  0  0  0  0  0  0
  196.6050  176.1980  140.4810 N   0  0  0  0  0  2  0  0  0  0  0  0
  193.7430  174.7880  141.8500 C   0  0  0  0  0  0  0  0  0  0  0  0
  191.6870  175.7540  142.7080 C   0  0  0  0  0  2  0  0  0  0  0  0
  191.7770  173.3920  141.6200 C   0  0  1  0  0  3  0  0  0  0  0  0
  195.6530  176.2400  141.5840 C   0  0  0  0  0  2  0  0  0  0  0  0
  189.8230  172.6390  144.7960 C   0  0  0  0  0  1  0  0  0  0  0  0
  188.7440  172.6000  142.5750 C   0  0  0  0  0  1  0  0  0  0  0  0
  195.0290  174.9040  141.6570 C   0  0  0  0  0  0  0  0  0  0  0  0
  196.8810  174.7870  140.2210 C   0  0  0  0  0  2  0  0  0  0  0  0
  192.4590  174.6550  142.0460 C   0  0  0  0  0  0  0  0  0  0  0  0
  189.8500  174.6920  143.3620 C   0  0  1  0  0  3  0  0  0  0  0  0
  195.7310  173.9620  140.7660 C   0  0  1  0  0  3  0  0  0  0  0  0
  189.9390  173.1450  143.3580 C   0  0  0  0  0  0  0  0  0  0  0  0
  191.2410  172.6710  142.7930 N   0  0  0  0  0  0  0  0  0  0  0  0
  195.6380  171.4960  141.0430 C   0  0  0  0  0  2  0  0  0  0  0  0
  196.2690  172.7780  141.5540 C   0  0  0  0  0  3  0  0  0  0  0  0
  197.0460  171.8650  140.6230 C   0  0  0  0  0  2  0  0  0  0  0  0
  190.7610  173.6440  140.5060 C   0  0  0  0  0  2  0  0  0  0  0  0
  191.4170  173.5830  139.2110 N   0  0  0  0  0  1  0  0  0  0  0  0
  191.2580  171.2350  142.5080 C   0  0  0  0  0  2  0  0  0  0  0  0
  192.6510  170.6740  142.7280 C   0  0  0  0  0  2  0  0  0  0  0  0
  192.9610  170.5640  144.2130 C   0  0  0  0  0  2  0  0  0  0  0  0
  195.5720  170.3510  144.6780 C   0  0  0  0  0  2  0  0  0  0  0  0
  194.7700  170.6830  145.9200 C   0  0  0  0  0  2  0  0  0  0  0  0
  194.3060  171.1890  144.5700 C   0  0  0  0  0  0  0  0  0  0  0  0
  194.4220  172.5860  144.5180 O   0  0  0  0  0  0  0  0  0  0  0  0
  193.5230  173.1050  145.4600 C   0  0  0  0  0  2  0  0  0  0  0  0
  193.7120  174.5070  145.5710 O   0  0  0  0  0  0  0  0  0  0  0  0
  195.1290  176.3360  145.5450 O   0  0  0  0  0  0  0  0  0  0  0  0
  194.9540  175.1030  145.3580 C   0  0  0  0  0  3  0  0  0  0  0  0
  188.6350  175.2410  144.1120 C   0  0  0  0  0  2  0  0  0  0  0  0
  187.4040  176.8200  140.9250 C   0  0  0  0  0  3  0  0  0  0  0  0
  185.8050  177.3530  142.6490 C   0  0  0  0  0  3  0  0  0  0  0  0
  186.5440  176.6380  143.5970 C   0  0  0  0  0  0  0  0  0  0  0  0
  188.1610  176.1060  141.8540 C   0  0  0  0  0  3  0  0  0  0  0  0
  187.7510  176.0090  143.1870 C   0  0  0  0  0  0  0  0  0  0  0  0
  186.2230  177.4480  141.3160 C   0  0  0  0  0  0  0  0  0  0  0  0
  184.0710  178.3130  140.4550 C   0  0  0  0  0  1  0  0  0  0  0  0
  185.4810  178.1540  140.3640 O   0  0  0  0  0  0  0  0  0  0  0  0
  186.0160  176.5840  144.8990 O   0  0  0  0  0  0  0  0  0  0  0  0
  184.6530  177.5530  146.6110 C   0  0  0  0  0  2  0  0  0  0  0  0
  185.9320  177.6740  145.8050 C   0  0  0  0  0  3  0  0  0  0  0  0
  185.9770  177.1510  147.2290 C   0  0  0  0  0  2  0  0  0  0  0  0
  2  6  1  0  0  0  0
  3 11  2  0  0  0  0
  4  1  1  0  0  0  0
  5 19  1  6  0  0  0
  5 11  1  0  0  0  0
  5 15  1  0  0  0  0
  6  9  1  0  0  0  0
  8 14  1  0  0  0  0
  9  3  2  0  0  0  0
 10  2  1  0  0  0  0
 10 13  1  0  0  0  0
 11  4  1  0  0  0  0
 12  1  1  0  0  0  0
 12 32  1  1  0  0  0
 13 17  1  1  0  0  0
 13  9  1  0  0  0  0
 14 12  1  0  0  0  0
 14  7  1  0  0  0  0
 15 14  1  0  0  0  0
 16 17  1  0  0  0  0
 18 16  1  0  0  0  0
 18 17  1  0  0  0  0
 20 19  1  0  0  0  0
 21 22  1  0  0  0  0
 21 15  1  0  0  0  0
 22 23  1  0  0  0  0
 23 26  1  0  0  0  0
 24 25  1  0  0  0  0
 26 24  1  0  0  0  0
 26 25  1  0  0  0  0
 27 26  1  0  0  0  0
 27 28  1  0  0  0  0
 28 29  1  0  0  0  0
 31 30  2  0  0  0  0
 31 29  1  0  0  0  0
 33 38  2  0  0  0  0
 33 36  1  0  0  0  0
 34 35  2  0  0  0  0
 35 41  1  0  0  0  0
 36 37  2  0  0  0  0
 37 35  1  0  0  0  0
 37 32  1  0  0  0  0
 38 34  1  0  0  0  0
 40 39  1  0  0  0  0
 40 38  1  0  0  0  0
 41 43  1  0  0  0  0
 42 44  1  0  0  0  0
 43 42  1  0  0  0  0
 43 44  1  0  0  0  0
M  END
>  <MODEL>
5

>  <REMARK>
 VINA RESULT:      -6.4      3.069      7.720
  Name = 
  15 active torsions:
  status: ('A' for Active; 'I' for Inactive)
    1  A    between atoms: O_5  and  C_23
    2  A    between atoms: O_5  and  C_35
    3  A    between atoms: O_7  and  C_35
    4  A    between atoms: O_7  and  C_41
    5  A    between atoms: C_11  and  C_19
    6  A    between atoms: C_11  and  N_42
    7  A    between atoms: C_12  and  C_36
    8  A    between atoms: C_14  and  C_18
    9  A    between atoms: C_16  and  C_19
   10  A    between atoms: C_16  and  C_23
   11  A    between atoms: C_21  and  C_32
   12  A    between atoms: C_21  and  C_34
   13  A    between atoms: O_25  and  C_38
   14  A    between atoms: C_29  and  O_43
   15  A    between atoms: C_33  and  O_43
                            x       y       z     vdW  Elec       q    Type
                         _______ _______ _______ _____ _____    ______ ____

>  <TORSDO>
F 15

$$$$
=
 OpenBabel11042418463D

 44 49  0  0  1  0  0  0  0  0999 V2000
  190.6670  176.0930  142.7250 O   0  0  0  0  0  0  0  0  0  0  0  0
  189.7610  170.8470  138.8630 N   0  0  0  0  0  2  0  0  0  0  0  0
  190.7840  172.9510  141.4290 C   0  0  0  0  0  0  0  0  0  0  0  0
  189.8700  175.0150  142.3210 C   0  0  0  0  0  2  0  0  0  0  0  0
  191.2150  173.3330  143.7820 C   0  0  1  0  0  3  0  0  0  0  0  0
  190.0320  172.2260  139.2530 C   0  0  0  0  0  2  0  0  0  0  0  0
  192.9230  176.6030  144.7080 C   0  0  0  0  0  1  0  0  0  0  0  0
  191.4760  175.4020  146.3090 C   0  0  0  0  0  1  0  0  0  0  0  0
  190.9610  172.1670  140.3990 C   0  0  0  0  0  0  0  0  0  0  0  0
  190.8340  170.0330  139.4310 C   0  0  0  0  0  2  0  0  0  0  0  0
  190.6240  173.7290  142.4640 C   0  0  0  0  0  0  0  0  0  0  0  0
  190.5340  176.1370  144.1190 C   0  0  1  0  0  3  0  0  0  0  0  0
  191.4500  170.7900  140.5930 C   0  0  1  0  0  3  0  0  0  0  0  0
  191.7960  175.5770  144.8230 C   0  0  0  0  0  0  0  0  0  0  0  0
  192.2540  174.2980  144.1960 N   0  0  0  0  0  0  0  0  0  0  0  0
  193.5660  170.8230  141.8910 C   0  0  0  0  0  2  0  0  0  0  0  0
  192.9660  170.7390  140.5000 C   0  0  0  0  0  3  0  0  0  0  0  0
  193.4720  169.4850  141.1870 C   0  0  0  0  0  2  0  0  0  0  0  0
  190.1350  173.0670  144.8310 C   0  0  0  0  0  2  0  0  0  0  0  0
  189.3570  171.8980  144.4590 N   0  0  0  0  0  1  0  0  0  0  0  0
  193.2580  173.5910  144.9930 C   0  0  0  0  0  2  0  0  0  0  0  0
  194.5510  173.4590  144.2080 C   0  0  0  0  0  2  0  0  0  0  0  0
  195.7560  173.6630  145.1140 C   0  0  0  0  0  2  0  0  0  0  0  0
  197.8610  173.9610  143.5150 C   0  0  0  0  0  2  0  0  0  0  0  0
  196.8590  172.9500  142.9980 C   0  0  0  0  0  2  0  0  0  0  0  0
  197.0420  173.1290  144.4910 C   0  0  0  0  0  0  0  0  0  0  0  0
  197.6160  171.9740  145.0430 O   0  0  0  0  0  0  0  0  0  0  0  0
  196.8160  171.6030  146.1330 C   0  0  0  0  0  2  0  0  0  0  0  0
  196.6810  170.1900  146.1600 O   0  0  0  0  0  0  0  0  0  0  0  0
  194.4590  170.1730  145.5130 O   0  0  0  0  0  0  0  0  0  0  0  0
  195.5410  169.5490  145.6780 C   0  0  0  0  0  3  0  0  0  0  0  0
  190.1390  177.5410  144.5800 C   0  0  0  0  0  2  0  0  0  0  0  0
  187.3200  177.4760  147.0730 C   0  0  0  0  0  3  0  0  0  0  0  0
  186.3280  177.5680  144.8770 C   0  0  0  0  0  3  0  0  0  0  0  0
  187.5910  177.5920  144.2760 C   0  0  0  0  0  0  0  0  0  0  0  0
  188.5890  177.4930  146.4960 C   0  0  0  0  0  3  0  0  0  0  0  0
  188.7430  177.5460  145.1070 C   0  0  0  0  0  0  0  0  0  0  0  0
  186.1830  177.5130  146.2690 C   0  0  0  0  0  0  0  0  0  0  0  0
  183.9030  178.4350  146.5430 C   0  0  0  0  0  1  0  0  0  0  0  0
  184.9210  177.4980  146.8740 O   0  0  0  0  0  0  0  0  0  0  0  0
  187.6190  177.6770  142.8730 O   0  0  0  0  0  0  0  0  0  0  0  0
  186.0710  177.9860  141.0740 C   0  0  0  0  0  2  0  0  0  0  0  0
  186.7580  176.9840  141.9820 C   0  0  0  0  0  3  0  0  0  0  0  0
  187.2430  177.1770  140.5580 C   0  0  0  0  0  2  0  0  0  0  0  0
  1 12  1  0  0  0  0
  2  6  1  0  0  0  0
  2 10  1  0  0  0  0
  3 11  2  0  0  0  0
  4 11  1  0  0  0  0
  4  1  1  0  0  0  0
  5 15  1  0  0  0  0
  5 19  1  1  0  0  0
  6  9  1  0  0  0  0
  7 14  1  0  0  0  0
  9 13  1  0  0  0  0
  9  3  2  0  0  0  0
 10 13  1  0  0  0  0
 11  5  1  0  0  0  0
 12 32  1  1  0  0  0
 12 14  1  0  0  0  0
 13 17  1  6  0  0  0
 14  8  1  0  0  0  0
 15 14  1  0  0  0  0
 15 21  1  0  0  0  0
 17 18  1  0  0  0  0
 17 16  1  0  0  0  0
 18 16  1  0  0  0  0
 20 19  1  0  0  0  0
 22 21  1  0  0  0  0
 22 23  1  0  0  0  0
 24 26  1  0  0  0  0
 25 24  1  0  0  0  0
 25 26  1  0  0  0  0
 26 27  1  0  0  0  0
 26 23  1  0  0  0  0
 27 28  1  0  0  0  0
 28 29  1  0  0  0  0
 30 31  2  0  0  0  0
 31 29  1  0  0  0  0
 32 37  1  0  0  0  0
 34 38  1  0  0  0  0
 35 34  2  0  0  0  0
 35 37  1  0  0  0  0
 36 33  1  0  0  0  0
 37 36  2  0  0  0  0
 38 40  1  0  0  0  0
 38 33  2  0  0  0  0
 39 40  1  0  0  0  0
 41 35  1  0  0  0  0
 42 43  1  0  0  0  0
 43 41  1  0  0  0  0
 44 42  1  0  0  0  0
 44 43  1  0  0  0  0
M  END
>  <MODEL>
6

>  <REMARK>
 VINA RESULT:      -6.2      3.228      8.050
  Name = 
  15 active torsions:
  status: ('A' for Active; 'I' for Inactive)
    1  A    between atoms: O_5  and  C_23
    2  A    between atoms: O_5  and  C_35
    3  A    between atoms: O_7  and  C_35
    4  A    between atoms: O_7  and  C_41
    5  A    between atoms: C_11  and  C_19
    6  A    between atoms: C_11  and  N_42
    7  A    between atoms: C_12  and  C_36
    8  A    between atoms: C_14  and  C_18
    9  A    between atoms: C_16  and  C_19
   10  A    between atoms: C_16  and  C_23
   11  A    between atoms: C_21  and  C_32
   12  A    between atoms: C_21  and  C_34
   13  A    between atoms: O_25  and  C_38
   14  A    between atoms: C_29  and  O_43
   15  A    between atoms: C_33  and  O_43
                            x       y       z     vdW  Elec       q    Type
                         _______ _______ _______ _____ _____    ______ ____

>  <TORSDO>
F 15

$$$$
=
 OpenBabel11042418463D

 44 49  0  0  1  0  0  0  0  0999 V2000
  190.6880  176.2010  142.5220 O   0  0  0  0  0  0  0  0  0  0  0  0
  189.6780  170.9430  138.7030 N   0  0  0  0  0  2  0  0  0  0  0  0
  190.8220  173.0730  141.1960 C   0  0  0  0  0  0  0  0  0  0  0  0
  189.9030  175.0960  142.1750 C   0  0  0  0  0  2  0  0  0  0  0  0
  191.4240  173.4600  143.5100 C   0  0  1  0  0  3  0  0  0  0  0  0
  189.9270  172.3300  139.0810 C   0  0  0  0  0  2  0  0  0  0  0  0
  193.0740  176.7900  144.3230 C   0  0  0  0  0  1  0  0  0  0  0  0
  191.8070  175.5260  146.0240 C   0  0  0  0  0  1  0  0  0  0  0  0
  190.9460  172.3020  140.1500 C   0  0  0  0  0  0  0  0  0  0  0  0
  190.8240  170.1690  139.1780 C   0  0  0  0  0  2  0  0  0  0  0  0
  190.7150  173.8400  142.2470 C   0  0  0  0  0  0  0  0  0  0  0  0
  190.6660  176.2340  143.9230 C   0  0  1  0  0  3  0  0  0  0  0  0
  191.5010  170.9430  140.2930 C   0  0  1  0  0  3  0  0  0  0  0  0
  192.0000  175.7200  144.5190 C   0  0  0  0  0  0  0  0  0  0  0  0
  192.4560  174.4630  143.8480 N   0  0  0  0  0  0  0  0  0  0  0  0
  193.7130  170.8520  141.4180 C   0  0  0  0  0  2  0  0  0  0  0  0
  193.0060  170.9530  140.0790 C   0  0  0  0  0  3  0  0  0  0  0  0
  193.5880  169.6270  140.5350 C   0  0  0  0  0  2  0  0  0  0  0  0
  190.4420  173.1470  144.6400 C   0  0  0  0  0  2  0  0  0  0  0  0
  189.6790  171.9530  144.3190 N   0  0  0  0  0  1  0  0  0  0  0  0
  193.5460  173.7920  144.5560 C   0  0  0  0  0  2  0  0  0  0  0  0
  194.6170  173.3530  143.5740 C   0  0  0  0  0  2  0  0  0  0  0  0
  194.8630  174.4290  142.5270 C   0  0  0  0  0  2  0  0  0  0  0  0
  196.5570  176.2290  143.5130 C   0  0  0  0  0  2  0  0  0  0  0  0
  196.2810  176.4160  142.0340 C   0  0  0  0  0  2  0  0  0  0  0  0
  196.2650  175.0240  142.6310 C   0  0  0  0  0  0  0  0  0  0  0  0
  197.3400  174.2760  142.1280 O   0  0  0  0  0  0  0  0  0  0  0  0
  197.0140  173.9270  140.8100 C   0  0  0  0  0  2  0  0  0  0  0  0
  197.3500  172.5670  140.5850 O   0  0  0  0  0  0  0  0  0  0  0  0
  196.0160  172.2650  138.7190 O   0  0  0  0  0  0  0  0  0  0  0  0
  197.0100  171.9090  139.4050 C   0  0  0  0  0  3  0  0  0  0  0  0
  190.2550  177.6190  144.4250 C   0  0  0  0  0  2  0  0  0  0  0  0
  187.5090  177.4340  146.9930 C   0  0  0  0  0  3  0  0  0  0  0  0
  186.4530  177.5660  144.8280 C   0  0  0  0  0  3  0  0  0  0  0  0
  187.6980  177.6300  144.1930 C   0  0  0  0  0  0  0  0  0  0  0  0
  188.7610  177.4900  146.3810 C   0  0  0  0  0  3  0  0  0  0  0  0
  188.8740  177.5830  144.9900 C   0  0  0  0  0  0  0  0  0  0  0  0
  186.3490  177.4700  146.2220 C   0  0  0  0  0  0  0  0  0  0  0  0
  184.0320  178.2860  146.5240 C   0  0  0  0  0  1  0  0  0  0  0  0
  185.1060  177.4160  146.8610 O   0  0  0  0  0  0  0  0  0  0  0  0
  187.6860  177.7530  142.7920 O   0  0  0  0  0  0  0  0  0  0  0  0
  185.9370  178.2080  141.2230 C   0  0  0  0  0  2  0  0  0  0  0  0
  186.7570  177.1350  141.9140 C   0  0  0  0  0  3  0  0  0  0  0  0
  187.0740  177.5320  140.4840 C   0  0  0  0  0  2  0  0  0  0  0  0
  1 12  1  0  0  0  0
  2  6  1  0  0  0  0
  2 10  1  0  0  0  0
  3 11  2  0  0  0  0
  4 11  1  0  0  0  0
  4  1  1  0  0  0  0
  5 15  1  0  0  0  0
  5 19  1  1  0  0  0
  6  9  1  0  0  0  0
  7 14  1  0  0  0  0
  9 13  1  0  0  0  0
  9  3  2  0  0  0  0
 10 13  1  0  0  0  0
 11  5  1  0  0  0  0
 12 32  1  6  0  0  0
 12 14  1  0  0  0  0
 13 17  1  6  0  0  0
 14  8  1  0  0  0  0
 15 14  1  0  0  0  0
 15 21  1  0  0  0  0
 17 18  1  0  0  0  0
 17 16  1  0  0  0  0
 18 16  1  0  0  0  0
 20 19  1  0  0  0  0
 22 21  1  0  0  0  0
 23 26  1  0  0  0  0
 23 22  1  0  0  0  0
 25 26  1  0  0  0  0
 25 24  1  0  0  0  0
 26 24  1  0  0  0  0
 27 26  1  0  0  0  0
 28 27  1  0  0  0  0
 29 28  1  0  0  0  0
 30 31  2  0  0  0  0
 31 29  1  0  0  0  0
 32 37  1  0  0  0  0
 34 38  1  0  0  0  0
 35 34  2  0  0  0  0
 35 37  1  0  0  0  0
 36 33  1  0  0  0  0
 37 36  2  0  0  0  0
 38 40  1  0  0  0  0
 38 33  2  0  0  0  0
 39 40  1  0  0  0  0
 41 35  1  0  0  0  0
 42 43  1  0  0  0  0
 43 41  1  0  0  0  0
 44 42  1  0  0  0  0
 44 43  1  0  0  0  0
M  END
>  <MODEL>
7

>  <REMARK>
 VINA RESULT:      -6.1      2.850      8.074
  Name = 
  15 active torsions:
  status: ('A' for Active; 'I' for Inactive)
    1  A    between atoms: O_5  and  C_23
    2  A    between atoms: O_5  and  C_35
    3  A    between atoms: O_7  and  C_35
    4  A    between atoms: O_7  and  C_41
    5  A    between atoms: C_11  and  C_19
    6  A    between atoms: C_11  and  N_42
    7  A    between atoms: C_12  and  C_36
    8  A    between atoms: C_14  and  C_18
    9  A    between atoms: C_16  and  C_19
   10  A    between atoms: C_16  and  C_23
   11  A    between atoms: C_21  and  C_32
   12  A    between atoms: C_21  and  C_34
   13  A    between atoms: O_25  and  C_38
   14  A    between atoms: C_29  and  O_43
   15  A    between atoms: C_33  and  O_43
                            x       y       z     vdW  Elec       q    Type
                         _______ _______ _______ _____ _____    ______ ____

>  <TORSDO>
F 15

$$$$
=
 OpenBabel11042418463D

 44 49  0  0  1  0  0  0  0  0999 V2000
  187.6410  173.7700  141.9910 O   0  0  0  0  0  0  0  0  0  0  0  0
  184.7180  179.3400  143.9090 N   0  0  0  0  0  2  0  0  0  0  0  0
  186.8650  176.6220  143.6740 C   0  0  0  0  0  0  0  0  0  0  0  0
  187.4510  175.1480  141.8350 C   0  0  0  0  0  2  0  0  0  0  0  0
  189.1050  175.7040  143.7660 C   0  0  1  0  0  3  0  0  0  0  0  0
  184.8680  177.9610  143.4600 C   0  0  0  0  0  2  0  0  0  0  0  0
  189.4180  171.9160  143.6300 C   0  0  0  0  0  1  0  0  0  0  0  0
  191.2520  173.3910  142.8830 C   0  0  0  0  0  1  0  0  0  0  0  0
  185.9690  177.3750  144.2520 C   0  0  0  0  0  0  0  0  0  0  0  0
  185.3640  179.4270  145.2180 C   0  0  0  0  0  2  0  0  0  0  0  0
  187.7670  175.8630  143.1120 C   0  0  0  0  0  0  0  0  0  0  0  0
  189.0150  173.5710  141.7960 C   0  0  1  0  0  3  0  0  0  0  0  0
  186.3610  178.2900  145.3390 C   0  0  1  0  0  3  0  0  0  0  0  0
  189.7450  173.3260  143.1400 C   0  0  0  0  0  0  0  0  0  0  0  0
  189.3140  174.3030  144.1870 N   0  0  0  0  0  0  0  0  0  0  0  0
  187.3100  176.5780  146.8670 C   0  0  0  0  0  2  0  0  0  0  0  0
  186.2140  177.6120  146.6920 C   0  0  0  0  0  3  0  0  0  0  0  0
  187.4260  177.9260  147.5480 C   0  0  0  0  0  2  0  0  0  0  0  0
  190.2280  176.2880  142.9070 C   0  0  0  0  0  2  0  0  0  0  0  0
  190.0550  177.7240  142.7700 N   0  0  0  0  0  1  0  0  0  0  0  0
  190.1710  174.2950  145.3740 C   0  0  0  0  0  2  0  0  0  0  0  0
  190.7310  175.6830  145.6250 C   0  0  0  0  0  2  0  0  0  0  0  0
  191.9620  175.6150  146.5150 C   0  0  0  0  0  2  0  0  0  0  0  0
  194.1720  177.0000  145.9880 C   0  0  0  0  0  2  0  0  0  0  0  0
  193.1510  177.0570  144.8690 C   0  0  0  0  0  2  0  0  0  0  0  0
  193.2550  175.8140  145.7280 C   0  0  0  0  0  0  0  0  0  0  0  0
  193.7350  174.7410  144.9620 O   0  0  0  0  0  0  0  0  0  0  0  0
  193.6480  173.5950  145.7660 C   0  0  0  0  0  2  0  0  0  0  0  0
  194.4700  172.5750  145.2220 O   0  0  0  0  0  0  0  0  0  0  0  0
  194.1660  170.2810  145.1750 O   0  0  0  0  0  0  0  0  0  0  0  0
  193.9360  171.4120  144.6700 C   0  0  0  0  0  3  0  0  0  0  0  0
  189.2590  172.4820  140.7490 C   0  0  0  0  0  2  0  0  0  0  0  0
  188.4950  174.0940  137.4340 C   0  0  0  0  0  3  0  0  0  0  0  0
  190.8850  173.7900  137.5460 C   0  0  0  0  0  3  0  0  0  0  0  0
  190.7830  173.2270  138.8230 C   0  0  0  0  0  0  0  0  0  0  0  0
  188.3690  173.5300  138.7040 C   0  0  0  0  0  3  0  0  0  0  0  0
  189.4940  173.0900  139.4060 C   0  0  0  0  0  0  0  0  0  0  0  0
  189.7520  174.2270  136.8480 C   0  0  0  0  0  0  0  0  0  0  0  0
  191.0830  174.8890  134.8700 C   0  0  0  0  0  1  0  0  0  0  0  0
  189.8510  174.7990  135.5750 O   0  0  0  0  0  0  0  0  0  0  0  0
  191.9870  172.8500  139.4430 O   0  0  0  0  0  0  0  0  0  0  0  0
  192.2680  170.6380  138.5760 C   0  0  0  0  0  2  0  0  0  0  0  0
  192.3570  171.5270  139.8010 C   0  0  0  0  0  3  0  0  0  0  0  0
  193.6170  171.1350  139.0530 C   0  0  0  0  0  2  0  0  0  0  0  0
  2 10  1  0  0  0  0
  3  9  2  0  0  0  0
  4  1  1  0  0  0  0
  4 11  1  0  0  0  0
  5 19  1  6  0  0  0
  5 15  1  0  0  0  0
  6  2  1  0  0  0  0
  6  9  1  0  0  0  0
  8 14  1  0  0  0  0
  9 13  1  0  0  0  0
 10 13  1  0  0  0  0
 11  3  2  0  0  0  0
 11  5  1  0  0  0  0
 12 32  1  6  0  0  0
 12  1  1  0  0  0  0
 12 14  1  0  0  0  0
 13 17  1  1  0  0  0
 14  7  1  0  0  0  0
 14 15  1  0  0  0  0
 15 21  1  0  0  0  0
 16 18  1  0  0  0  0
 17 16  1  0  0  0  0
 17 18  1  0  0  0  0
 20 19  1  0  0  0  0
 21 22  1  0  0  0  0
 22 23  1  0  0  0  0
 25 26  1  0  0  0  0
 25 24  1  0  0  0  0
 26 24  1  0  0  0  0
 26 23  1  0  0  0  0
 27 26  1  0  0  0  0
 27 28  1  0  0  0  0
 29 28  1  0  0  0  0
 31 30  2  0  0  0  0
 31 29  1  0  0  0  0
 33 36  1  0  0  0  0
 34 35  2  0  0  0  0
 35 37  1  0  0  0  0
 35 41  1  0  0  0  0
 36 37  2  0  0  0  0
 37 32  1  0  0  0  0
 38 33  2  0  0  0  0
 38 34  1  0  0  0  0
 39 40  1  0  0  0  0
 40 38  1  0  0  0  0
 41 43  1  0  0  0  0
 42 44  1  0  0  0  0
 42 43  1  0  0  0  0
 44 43  1  0  0  0  0
M  END
>  <MODEL>
8

>  <REMARK>
 VINA RESULT:      -6.0      1.792      2.502
  Name = 
  15 active torsions:
  status: ('A' for Active; 'I' for Inactive)
    1  A    between atoms: O_5  and  C_23
    2  A    between atoms: O_5  and  C_35
    3  A    between atoms: O_7  and  C_35
    4  A    between atoms: O_7  and  C_41
    5  A    between atoms: C_11  and  C_19
    6  A    between atoms: C_11  and  N_42
    7  A    between atoms: C_12  and  C_36
    8  A    between atoms: C_14  and  C_18
    9  A    between atoms: C_16  and  C_19
   10  A    between atoms: C_16  and  C_23
   11  A    between atoms: C_21  and  C_32
   12  A    between atoms: C_21  and  C_34
   13  A    between atoms: O_25  and  C_38
   14  A    between atoms: C_29  and  O_43
   15  A    between atoms: C_33  and  O_43
                            x       y       z     vdW  Elec       q    Type
                         _______ _______ _______ _____ _____    ______ ____

>  <TORSDO>
F 15

$$$$
=
 OpenBabel11042418463D

 44 49  0  0  1  0  0  0  0  0999 V2000
  190.6760  174.2930  140.6730 O   0  0  0  0  0  0  0  0  0  0  0  0
  196.7180  176.3580  142.2490 N   0  0  0  0  0  2  0  0  0  0  0  0
  193.4850  175.1020  142.4110 C   0  0  0  0  0  0  0  0  0  0  0  0
  192.0510  174.0450  140.7620 C   0  0  0  0  0  2  0  0  0  0  0  0
  191.8990  173.5030  143.3030 C   0  0  1  0  0  3  0  0  0  0  0  0
  195.4020  176.3370  141.6200 C   0  0  0  0  0  2  0  0  0  0  0  0
  188.2300  174.0780  142.4770 C   0  0  0  0  0  1  0  0  0  0  0  0
  189.1000  171.8270  142.9980 C   0  0  0  0  0  1  0  0  0  0  0  0
  194.4360  175.9570  142.6710 C   0  0  0  0  0  0  0  0  0  0  0  0
  196.4910  176.4560  143.6890 C   0  0  0  0  0  2  0  0  0  0  0  0
  192.5260  174.2510  142.1670 C   0  0  0  0  0  0  0  0  0  0  0  0
  190.0670  173.1000  141.0840 C   0  0  1  0  0  3  0  0  0  0  0  0
  195.0910  175.9580  143.9920 C   0  0  1  0  0  3  0  0  0  0  0  0
  189.4970  173.2240  142.5200 C   0  0  0  0  0  0  0  0  0  0  0  0
  190.4750  173.8750  143.4460 N   0  0  0  0  0  0  0  0  0  0  0  0
  193.2170  176.2230  145.5990 C   0  0  0  0  0  2  0  0  0  0  0  0
  194.3910  176.9200  144.9380 C   0  0  0  0  0  3  0  0  0  0  0  0
  194.5140  176.4070  146.3610 C   0  0  0  0  0  2  0  0  0  0  0  0
  192.1600  172.0000  143.2050 C   0  0  0  0  0  2  0  0  0  0  0  0
  193.5170  171.7020  143.6300 N   0  0  0  0  0  1  0  0  0  0  0  0
  190.1020  173.7590  144.8560 C   0  0  0  0  0  2  0  0  0  0  0  0
  190.0090  175.1360  145.4880 C   0  0  0  0  0  2  0  0  0  0  0  0
  188.6720  175.3190  146.1890 C   0  0  0  0  0  2  0  0  0  0  0  0
  187.1210  177.3100  147.0330 C   0  0  0  0  0  2  0  0  0  0  0  0
  186.6660  176.7170  145.7150 C   0  0  0  0  0  2  0  0  0  0  0  0
  188.1410  176.7440  146.0560 C   0  0  0  0  0  0  0  0  0  0  0  0
  188.8150  177.6240  145.1960 O   0  0  0  0  0  0  0  0  0  0  0  0
  188.1830  177.5380  143.9480 C   0  0  0  0  0  2  0  0  0  0  0  0
  189.0670  177.9990  142.9380 O   0  0  0  0  0  0  0  0  0  0  0  0
  191.3720  177.8920  143.1090 O   0  0  0  0  0  0  0  0  0  0  0  0
  190.2950  177.3860  142.6960 C   0  0  0  0  0  3  0  0  0  0  0  0
  189.0430  172.6320  140.0490 C   0  0  0  0  0  2  0  0  0  0  0  0
  191.0110  169.7420  138.6540 C   0  0  0  0  0  3  0  0  0  0  0  0
  190.3080  171.0950  136.7860 C   0  0  0  0  0  3  0  0  0  0  0  0
  189.6490  171.9850  137.6400 C   0  0  0  0  0  0  0  0  0  0  0  0
  190.3650  170.6190  139.5260 C   0  0  0  0  0  3  0  0  0  0  0  0
  189.6870  171.7410  139.0400 C   0  0  0  0  0  0  0  0  0  0  0  0
  190.9870  169.9750  137.2810 C   0  0  0  0  0  0  0  0  0  0  0  0
  191.5850  169.1900  135.0110 C   0  0  0  0  0  1  0  0  0  0  0  0
  191.6400  169.0780  136.4280 O   0  0  0  0  0  0  0  0  0  0  0  0
  188.9750  173.0590  137.0330 O   0  0  0  0  0  0  0  0  0  0  0  0
  189.3370  174.3060  135.0230 C   0  0  0  0  0  2  0  0  0  0  0  0
  189.5820  174.2340  136.5180 C   0  0  0  0  0  3  0  0  0  0  0  0
  188.5110  175.1560  135.9660 C   0  0  0  0  0  2  0  0  0  0  0  0
  1  4  1  0  0  0  0
  1 12  1  0  0  0  0
  2 10  1  0  0  0  0
  3  9  2  0  0  0  0
  4 11  1  0  0  0  0
  5 19  1  6  0  0  0
  5 15  1  0  0  0  0
  6  2  1  0  0  0  0
  6  9  1  0  0  0  0
  7 14  1  0  0  0  0
  9 13  1  0  0  0  0
 10 13  1  0  0  0  0
 11  3  2  0  0  0  0
 11  5  1  0  0  0  0
 12 32  1  6  0  0  0
 12 14  1  0  0  0  0
 13 17  1  1  0  0  0
 14  8  1  0  0  0  0
 14 15  1  0  0  0  0
 15 21  1  0  0  0  0
 16 18  1  0  0  0  0
 17 16  1  0  0  0  0
 17 18  1  0  0  0  0
 19 20  1  0  0  0  0
 21 22  1  0  0  0  0
 22 23  1  0  0  0  0
 25 26  1  0  0  0  0
 25 24  1  0  0  0  0
 26 23  1  0  0  0  0
 26 24  1  0  0  0  0
 27 26  1  0  0  0  0
 28 27  1  0  0  0  0
 29 28  1  0  0  0  0
 31 29  1  0  0  0  0
 31 30  2  0  0  0  0
 33 36  1  0  0  0  0
 34 38  1  0  0  0  0
 34 35  2  0  0  0  0
 35 37  1  0  0  0  0
 37 36  2  0  0  0  0
 37 32  1  0  0  0  0
 38 33  2  0  0  0  0
 39 40  1  0  0  0  0
 40 38  1  0  0  0  0
 41 35  1  0  0  0  0
 42 44  1  0  0  0  0
 42 43  1  0  0  0  0
 43 41  1  0  0  0  0
 44 43  1  0  0  0  0
M  END
>  <MODEL>
9

>  <REMARK>
 VINA RESULT:      -6.0      2.552      5.776
  Name = 
  15 active torsions:
  status: ('A' for Active; 'I' for Inactive)
    1  A    between atoms: O_5  and  C_23
    2  A    between atoms: O_5  and  C_35
    3  A    between atoms: O_7  and  C_35
    4  A    between atoms: O_7  and  C_41
    5  A    between atoms: C_11  and  C_19
    6  A    between atoms: C_11  and  N_42
    7  A    between atoms: C_12  and  C_36
    8  A    between atoms: C_14  and  C_18
    9  A    between atoms: C_16  and  C_19
   10  A    between atoms: C_16  and  C_23
   11  A    between atoms: C_21  and  C_32
   12  A    between atoms: C_21  and  C_34
   13  A    between atoms: O_25  and  C_38
   14  A    between atoms: C_29  and  O_43
   15  A    between atoms: C_33  and  O_43
                            x       y       z     vdW  Elec       q    Type
                         _______ _______ _______ _____ _____    ______ ____

>  <TORSDO>
F 15

$$$$
