=
 OpenBabel11042417473D

 25 27  0  0  1  0  0  0  0  0999 V2000
  187.1620  178.2100  144.2630 C   0  0  0  0  0  3  0  0  0  0  0  0
  185.1020  179.7010  144.3200 C   0  0  0  0  0  1  0  0  0  0  0  0
  186.9200  177.2210  142.3400 C   0  0  0  0  0  0  0  0  0  0  0  0
  189.8670  177.5480  145.8210 C   0  0  0  0  0  2  0  0  0  0  0  0
  188.3570  174.7540  140.0750 O   0  0  0  0  0  0  0  0  0  0  0  0
  189.9610  177.4480  144.4050 O   0  0  0  0  0  0  0  0  0  0  0  0
  188.4150  174.6480  142.4480 C   0  0  0  0  0  2  0  0  0  0  0  0
  191.7260  175.9050  146.0270 C   0  0  1  0  0  3  0  0  0  0  0  0
  185.9920  178.6820  143.6990 C   0  0  0  0  0  0  0  0  0  0  0  0
  190.6760  174.9900  143.4670 N   0  0  0  0  0  0  0  0  0  0  0  0
  187.7210  177.3030  143.4330 N   0  0  0  0  0  0  0  0  0  0  0  0
  190.3140  176.2490  146.4790 C   0  0  0  0  0  2  0  0  0  0  0  0
  185.8360  178.0710  142.4670 C   0  0  0  0  0  0  0  0  0  0  0  0
  187.2070  176.4540  141.1640 N   0  0  0  0  0  2  0  0  0  0  0  0
  190.8010  174.0260  144.5550 C   0  0  0  0  0  2  0  0  0  0  0  0
  192.7100  176.1900  147.1420 C   0  0  0  0  0  1  0  0  0  0  0  0
  189.0270  176.7290  143.6540 C   0  0  0  0  0  0  0  0  0  0  0  0
  189.3840  175.5250  143.1660 C   0  0  0  0  0  0  0  0  0  0  0  0
  191.8530  174.4480  145.5840 C   0  0  0  0  0  2  0  0  0  0  0  0
  188.0110  175.2770  141.1650 C   0  0  0  0  0  0  0  0  0  0  0  0
  183.3920  178.0570  141.8490 N   0  0  0  0  0  1  0  0  0  0  0  0
  185.0130  178.6940  140.3260 O   0  0  0  0  0  0  0  0  0  0  0  0
  184.7500  178.2920  141.4900 C   0  0  0  0  0  0  0  0  0  0  0  0
  191.7340  175.1800  142.5660 C   0  0  0  0  0  0  0  0  0  0  0  0
  192.6070  175.3370  141.8220 N   0  0  0  0  0  0  0  0  0  0  0  0
  3 13  2  0  0  0  0
  3 11  1  0  0  0  0
  4 12  1  0  0  0  0
  5 20  2  0  0  0  0
  6  4  1  0  0  0  0
  7 18  1  0  0  0  0
  8 12  1  0  0  0  0
  8 16  1  1  0  0  0
  9  1  2  0  0  0  0
  9  2  1  0  0  0  0
 10 15  1  0  0  0  0
 11 17  1  0  0  0  0
 11  1  1  0  0  0  0
 13  9  1  0  0  0  0
 14 20  1  0  0  0  0
 14  3  1  0  0  0  0
 15 19  1  0  0  0  0
 17  6  1  0  0  0  0
 18 10  1  0  0  0  0
 18 17  2  0  0  0  0
 19  8  1  0  0  0  0
 20  7  1  0  0  0  0
 22 23  2  0  0  0  0
 23 21  1  0  0  0  0
 23 13  1  0  0  0  0
 24 10  1  0  0  0  0
 25 24  3  0  0  0  0
M  END
>  <MODEL>
1

>  <REMARK>
 VINA RESULT:      -7.2      0.000      0.000
  Name = 
  2 active torsions:
  status: ('A' for Active; 'I' for Inactive)
    1  A    between atoms: N_12  and  C_18
    2  A    between atoms: C_15  and  C_21
                            x       y       z     vdW  Elec       q    Type
                         _______ _______ _______ _____ _____    ______ ____

>  <TORSDO>
F 2

$$$$
=
 OpenBabel11042417473D

 25 27  0  0  1  0  0  0  0  0999 V2000
  188.6840  174.8960  143.6480 C   0  0  0  0  0  3  0  0  0  0  0  0
  190.4660  173.0820  143.6160 C   0  0  0  0  0  1  0  0  0  0  0  0
  188.3630  175.2170  141.5200 C   0  0  0  0  0  0  0  0  0  0  0  0
  186.7580  176.5360  145.5930 C   0  0  0  0  0  2  0  0  0  0  0  0
  186.5170  177.1770  139.0630 O   0  0  0  0  0  0  0  0  0  0  0  0
  186.1990  176.2440  144.3170 O   0  0  0  0  0  0  0  0  0  0  0  0
  187.2810  177.9690  141.1690 C   0  0  0  0  0  2  0  0  0  0  0  0
  185.2670  178.5250  145.7510 C   0  0  1  0  0  3  0  0  0  0  0  0
  189.5340  174.0460  142.9690 C   0  0  0  0  0  0  0  0  0  0  0  0
  185.4780  178.4220  142.8460 N   0  0  0  0  0  0  0  0  0  0  0  0
  187.9770  175.6240  142.7560 N   0  0  0  0  0  0  0  0  0  0  0  0
  186.7030  178.0330  145.8680 C   0  0  0  0  0  2  0  0  0  0  0  0
  189.3270  174.2300  141.6120 C   0  0  0  0  0  0  0  0  0  0  0  0
  187.7780  175.6570  140.2880 N   0  0  0  0  0  2  0  0  0  0  0  0
  185.8350  179.6610  143.5280 C   0  0  0  0  0  2  0  0  0  0  0  0
  184.6960  178.7880  147.1280 C   0  0  0  0  0  1  0  0  0  0  0  0
  186.8940  176.5010  143.1330 C   0  0  0  0  0  0  0  0  0  0  0  0
  186.5250  177.5620  142.3890 C   0  0  0  0  0  0  0  0  0  0  0  0
  185.1560  179.7850  144.8950 C   0  0  0  0  0  2  0  0  0  0  0  0
  187.1550  176.9270  140.1180 C   0  0  0  0  0  0  0  0  0  0  0  0
  189.3150  172.4580  139.8180 N   0  0  0  0  0  1  0  0  0  0  0  0
  191.1510  173.8270  140.1430 O   0  0  0  0  0  0  0  0  0  0  0  0
  189.9860  173.5120  140.5010 C   0  0  0  0  0  0  0  0  0  0  0  0
  184.1620  178.2100  142.4060 C   0  0  0  0  0  0  0  0  0  0  0  0
  183.0780  178.0360  142.0440 N   0  0  0  0  0  0  0  0  0  0  0  0
  3 13  2  0  0  0  0
  3 11  1  0  0  0  0
  4 12  1  0  0  0  0
  5 20  2  0  0  0  0
  6  4  1  0  0  0  0
  7 18  1  0  0  0  0
  8 12  1  0  0  0  0
  8 16  1  1  0  0  0
  9  2  1  0  0  0  0
  9  1  2  0  0  0  0
 10 15  1  0  0  0  0
 11 17  1  0  0  0  0
 11  1  1  0  0  0  0
 13  9  1  0  0  0  0
 14  3  1  0  0  0  0
 15 19  1  0  0  0  0
 17  6  1  0  0  0  0
 18 10  1  0  0  0  0
 18 17  2  0  0  0  0
 19  8  1  0  0  0  0
 20 14  1  0  0  0  0
 20  7  1  0  0  0  0
 21 23  1  0  0  0  0
 22 23  2  0  0  0  0
 23 13  1  0  0  0  0
 24 10  1  0  0  0  0
 25 24  3  0  0  0  0
M  END
>  <MODEL>
2

>  <REMARK>
 VINA RESULT:      -7.1      2.528      5.961
  Name = 
  2 active torsions:
  status: ('A' for Active; 'I' for Inactive)
    1  A    between atoms: N_12  and  C_18
    2  A    between atoms: C_15  and  C_21
                            x       y       z     vdW  Elec       q    Type
                         _______ _______ _______ _____ _____    ______ ____

>  <TORSDO>
F 2

$$$$
=
 OpenBabel11042417473D

 25 27  0  0  1  0  0  0  0  0999 V2000
  190.4060  176.4760  144.6470 C   0  0  0  0  0  3  0  0  0  0  0  0
  192.6600  175.5930  145.4250 C   0  0  0  0  0  1  0  0  0  0  0  0
  189.4780  177.0090  146.5430 C   0  0  0  0  0  0  0  0  0  0  0  0
  188.7300  177.2250  142.0370 C   0  0  0  0  0  2  0  0  0  0  0  0
  186.4570  178.3250  148.0980 O   0  0  0  0  0  0  0  0  0  0  0  0
  188.4840  178.0670  143.1580 O   0  0  0  0  0  0  0  0  0  0  0  0
  186.5260  176.9560  146.1570 C   0  0  0  0  0  2  0  0  0  0  0  0
  186.4500  177.7540  141.1860 C   0  0  1  0  0  3  0  0  0  0  0  0
  191.3040  176.1650  145.6490 C   0  0  0  0  0  0  0  0  0  0  0  0
  185.9000  178.1100  144.0250 N   0  0  0  0  0  0  0  0  0  0  0  0
  189.2810  176.9800  145.2000 N   0  0  0  0  0  0  0  0  0  0  0  0
  187.4250  176.6340  141.5190 C   0  0  0  0  0  2  0  0  0  0  0  0
  190.7310  176.5140  146.8600 C   0  0  0  0  0  0  0  0  0  0  0  0
  188.5730  177.5760  147.4970 N   0  0  0  0  0  2  0  0  0  0  0  0
  185.0730  177.1800  143.2660 C   0  0  0  0  0  2  0  0  0  0  0  0
  186.3530  177.9260  139.6840 C   0  0  0  0  0  1  0  0  0  0  0  0
  188.2020  177.5450  144.4230 C   0  0  0  0  0  0  0  0  0  0  0  0
  186.9310  177.5870  144.8670 C   0  0  0  0  0  0  0  0  0  0  0  0
  185.0610  177.5050  141.7700 C   0  0  0  0  0  2  0  0  0  0  0  0
  187.1650  177.6650  147.2950 C   0  0  0  0  0  0  0  0  0  0  0  0
  191.6650  177.5610  148.9540 N   0  0  0  0  0  1  0  0  0  0  0  0
  191.5650  175.2640  148.7010 O   0  0  0  0  0  0  0  0  0  0  0  0
  191.3360  176.3970  148.2030 C   0  0  0  0  0  0  0  0  0  0  0  0
  185.5240  179.4570  144.1430 C   0  0  0  0  0  0  0  0  0  0  0  0
  185.2140  180.5680  144.2400 N   0  0  0  0  0  0  0  0  0  0  0  0
  1 11  1  0  0  0  0
  1  9  2  0  0  0  0
  2  9  1  0  0  0  0
  3 13  2  0  0  0  0
  3 14  1  0  0  0  0
  4  6  1  0  0  0  0
  6 17  1  0  0  0  0
  7 20  1  0  0  0  0
  8 16  1  6  0  0  0
  8 12  1  0  0  0  0
  8 19  1  0  0  0  0
  9 13  1  0  0  0  0
 10 24  1  0  0  0  0
 10 18  1  0  0  0  0
 11  3  1  0  0  0  0
 12  4  1  0  0  0  0
 13 23  1  0  0  0  0
 15 10  1  0  0  0  0
 17 18  2  0  0  0  0
 17 11  1  0  0  0  0
 18  7  1  0  0  0  0
 19 15  1  0  0  0  0
 20 14  1  0  0  0  0
 20  5  2  0  0  0  0
 23 22  2  0  0  0  0
 23 21  1  0  0  0  0
 24 25  3  0  0  0  0
M  END
>  <MODEL>
3

>  <REMARK>
 VINA RESULT:      -6.8      2.671      7.059
  Name = 
  2 active torsions:
  status: ('A' for Active; 'I' for Inactive)
    1  A    between atoms: N_12  and  C_18
    2  A    between atoms: C_15  and  C_21
                            x       y       z     vdW  Elec       q    Type
                         _______ _______ _______ _____ _____    ______ ____

>  <TORSDO>
F 2

$$$$
=
 OpenBabel11042417473D

 25 27  0  0  1  0  0  0  0  0999 V2000
  187.0770  177.2030  141.9940 C   0  0  0  0  0  3  0  0  0  0  0  0
  185.5780  177.8670  140.0500 C   0  0  0  0  0  1  0  0  0  0  0  0
  185.7510  177.5320  143.6880 C   0  0  0  0  0  0  0  0  0  0  0  0
  189.9180  175.9290  142.6970 C   0  0  0  0  0  2  0  0  0  0  0  0
  185.4980  177.4100  147.3220 O   0  0  0  0  0  0  0  0  0  0  0  0
  188.8750  175.5830  143.6020 O   0  0  0  0  0  0  0  0  0  0  0  0
  187.4460  177.9940  146.0930 C   0  0  0  0  0  2  0  0  0  0  0  0
  191.5720  175.5720  144.5240 C   0  0  1  0  0  3  0  0  0  0  0  0
  185.8760  177.6670  141.4950 C   0  0  0  0  0  0  0  0  0  0  0  0
  189.3020  176.3170  146.1920 N   0  0  0  0  0  0  0  0  0  0  0  0
  187.0020  177.1360  143.3420 N   0  0  0  0  0  0  0  0  0  0  0  0
  191.0950  176.5380  143.4490 C   0  0  0  0  0  2  0  0  0  0  0  0
  185.0180  177.8650  142.5640 C   0  0  0  0  0  0  0  0  0  0  0  0
  185.2160  177.5030  145.0170 N   0  0  0  0  0  2  0  0  0  0  0  0
  190.5450  177.0680  146.3300 C   0  0  0  0  0  2  0  0  0  0  0  0
  192.8680  174.9180  144.0930 C   0  0  0  0  0  1  0  0  0  0  0  0
  188.0350  176.5490  144.1620 C   0  0  0  0  0  0  0  0  0  0  0  0
  188.2260  176.8970  145.4500 C   0  0  0  0  0  0  0  0  0  0  0  0
  191.7630  176.2580  145.8750 C   0  0  0  0  0  2  0  0  0  0  0  0
  186.0140  177.6120  146.1930 C   0  0  0  0  0  0  0  0  0  0  0  0
  182.7670  177.9380  141.4310 N   0  0  0  0  0  1  0  0  0  0  0  0
  183.1470  179.0510  143.4230 O   0  0  0  0  0  0  0  0  0  0  0  0
  183.6130  178.3200  142.5100 C   0  0  0  0  0  0  0  0  0  0  0  0
  189.0660  175.1860  146.9890 C   0  0  0  0  0  0  0  0  0  0  0  0
  188.8720  174.2530  147.6450 N   0  0  0  0  0  0  0  0  0  0  0  0
  1 11  1  0  0  0  0
  2  9  1  0  0  0  0
  3 14  1  0  0  0  0
  4 12  1  0  0  0  0
  4  6  1  0  0  0  0
  6 17  1  0  0  0  0
  7 20  1  0  0  0  0
  8 16  1  6  0  0  0
  8 19  1  0  0  0  0
  9  1  2  0  0  0  0
  9 13  1  0  0  0  0
 10 15  1  0  0  0  0
 10 24  1  0  0  0  0
 11  3  1  0  0  0  0
 11 17  1  0  0  0  0
 12  8  1  0  0  0  0
 13  3  2  0  0  0  0
 14 20  1  0  0  0  0
 17 18  2  0  0  0  0
 18  7  1  0  0  0  0
 18 10  1  0  0  0  0
 19 15  1  0  0  0  0
 20  5  2  0  0  0  0
 21 23  1  0  0  0  0
 23 13  1  0  0  0  0
 23 22  2  0  0  0  0
 24 25  3  0  0  0  0
M  END
>  <MODEL>
4

>  <REMARK>
 VINA RESULT:      -6.6      2.233      3.771
  Name = 
  2 active torsions:
  status: ('A' for Active; 'I' for Inactive)
    1  A    between atoms: N_12  and  C_18
    2  A    between atoms: C_15  and  C_21
                            x       y       z     vdW  Elec       q    Type
                         _______ _______ _______ _____ _____    ______ ____

>  <TORSDO>
F 2

$$$$
=
 OpenBabel11042417473D

 25 27  0  0  1  0  0  0  0  0999 V2000
  186.6600  176.7190  141.6220 C   0  0  0  0  0  3  0  0  0  0  0  0
  184.8980  178.4210  140.9400 C   0  0  0  0  0  1  0  0  0  0  0  0
  186.8990  177.1750  143.7360 C   0  0  0  0  0  0  0  0  0  0  0  0
  188.3090  174.2010  140.5620 C   0  0  0  0  0  2  0  0  0  0  0  0
  188.7200  176.3010  146.7700 O   0  0  0  0  0  0  0  0  0  0  0  0
  187.9580  174.1390  141.9400 O   0  0  0  0  0  0  0  0  0  0  0  0
  189.6050  176.2490  144.5650 C   0  0  0  0  0  2  0  0  0  0  0  0
  190.2590  172.7240  141.0300 C   0  0  1  0  0  3  0  0  0  0  0  0
  185.8110  177.7670  141.9170 C   0  0  0  0  0  0  0  0  0  0  0  0
  190.0630  173.9600  143.6610 N   0  0  0  0  0  0  0  0  0  0  0  0
  187.3360  176.3670  142.7370 N   0  0  0  0  0  0  0  0  0  0  0  0
  189.8130  174.0300  140.3880 C   0  0  0  0  0  2  0  0  0  0  0  0
  185.9430  178.0560  143.2650 C   0  0  0  0  0  0  0  0  0  0  0  0
  187.2790  177.0620  145.1130 N   0  0  0  0  0  2  0  0  0  0  0  0
  191.3350  174.0320  142.9500 C   0  0  0  0  0  2  0  0  0  0  0  0
  190.5520  171.6940  139.9590 C   0  0  0  0  0  1  0  0  0  0  0  0
  188.1940  175.2080  142.8090 C   0  0  0  0  0  0  0  0  0  0  0  0
  189.2180  175.1140  143.6790 C   0  0  0  0  0  0  0  0  0  0  0  0
  191.4850  172.9070  141.9210 C   0  0  0  0  0  2  0  0  0  0  0  0
  188.5250  176.5220  145.5470 C   0  0  0  0  0  0  0  0  0  0  0  0
  184.0720  178.7210  144.8180 N   0  0  0  0  0  1  0  0  0  0  0  0
  185.5780  180.2820  144.0140 O   0  0  0  0  0  0  0  0  0  0  0  0
  185.2070  179.0790  144.0370 C   0  0  0  0  0  0  0  0  0  0  0  0
  189.7990  172.8920  144.5320 C   0  0  0  0  0  0  0  0  0  0  0  0
  189.5810  172.0110  145.2500 N   0  0  0  0  0  0  0  0  0  0  0  0
  1  9  2  0  0  0  0
  1 11  1  0  0  0  0
  2  9  1  0  0  0  0
  3 14  1  0  0  0  0
  4  6  1  0  0  0  0
  6 17  1  0  0  0  0
  7 20  1  0  0  0  0
  8 16  1  6  0  0  0
  8 19  1  0  0  0  0
  9 13  1  0  0  0  0
 10 18  1  0  0  0  0
 10 24  1  0  0  0  0
 11 17  1  0  0  0  0
 11  3  1  0  0  0  0
 12  4  1  0  0  0  0
 12  8  1  0  0  0  0
 13  3  2  0  0  0  0
 13 23  1  0  0  0  0
 14 20  1  0  0  0  0
 15 10  1  0  0  0  0
 17 18  2  0  0  0  0
 18  7  1  0  0  0  0
 19 15  1  0  0  0  0
 20  5  2  0  0  0  0
 22 23  2  0  0  0  0
 23 21  1  0  0  0  0
 24 25  3  0  0  0  0
M  END
>  <MODEL>
5

>  <REMARK>
 VINA RESULT:      -6.6      2.121      4.217
  Name = 
  2 active torsions:
  status: ('A' for Active; 'I' for Inactive)
    1  A    between atoms: N_12  and  C_18
    2  A    between atoms: C_15  and  C_21
                            x       y       z     vdW  Elec       q    Type
                         _______ _______ _______ _____ _____    ______ ____

>  <TORSDO>
F 2

$$$$
=
 OpenBabel11042417473D

 25 27  0  0  1  0  0  0  0  0999 V2000
  189.0890  177.1130  146.4410 C   0  0  0  0  0  3  0  0  0  0  0  0
  187.3060  178.4180  147.6980 C   0  0  0  0  0  1  0  0  0  0  0  0
  188.0060  176.5270  144.6460 C   0  0  0  0  0  0  0  0  0  0  0  0
  192.1820  176.3260  146.4990 C   0  0  0  0  0  2  0  0  0  0  0  0
  188.2390  174.6830  141.5120 O   0  0  0  0  0  0  0  0  0  0  0  0
  191.6480  176.5270  145.1950 O   0  0  0  0  0  0  0  0  0  0  0  0
  189.3210  174.0930  143.5440 C   0  0  0  0  0  2  0  0  0  0  0  0
  193.8950  174.8050  145.5250 C   0  0  1  0  0  3  0  0  0  0  0  0
  187.8060  177.6110  146.5510 C   0  0  0  0  0  0  0  0  0  0  0  0
  191.8090  174.3690  143.5370 N   0  0  0  0  0  0  0  0  0  0  0  0
  189.2040  176.4360  145.2770 N   0  0  0  0  0  0  0  0  0  0  0  0
  192.8320  174.9530  146.6030 C   0  0  0  0  0  2  0  0  0  0  0  0
  187.1120  177.2580  145.4070 C   0  0  0  0  0  0  0  0  0  0  0  0
  187.7300  176.0410  143.3270 N   0  0  0  0  0  2  0  0  0  0  0  0
  192.3650  173.2120  144.2290 C   0  0  0  0  0  2  0  0  0  0  0  0
  195.2750  174.9190  146.1390 C   0  0  0  0  0  1  0  0  0  0  0  0
  190.4590  175.9180  144.7840 C   0  0  0  0  0  0  0  0  0  0  0  0
  190.5320  174.8670  143.9450 C   0  0  0  0  0  0  0  0  0  0  0  0
  193.7730  173.4830  144.7690 C   0  0  0  0  0  2  0  0  0  0  0  0
  188.4180  174.9460  142.7290 C   0  0  0  0  0  0  0  0  0  0  0  0
  185.4260  178.4350  143.9480 N   0  0  0  0  0  1  0  0  0  0  0  0
  184.7630  177.1610  145.7620 O   0  0  0  0  0  0  0  0  0  0  0  0
  185.7150  177.6030  145.0660 C   0  0  0  0  0  0  0  0  0  0  0  0
  192.3750  174.8120  142.3320 C   0  0  0  0  0  0  0  0  0  0  0  0
  192.8410  175.1770  141.3380 N   0  0  0  0  0  0  0  0  0  0  0  0
  1  9  2  0  0  0  0
  3 11  1  0  0  0  0
  3 13  2  0  0  0  0
  4 12  1  0  0  0  0
  5 20  2  0  0  0  0
  6  4  1  0  0  0  0
  7 18  1  0  0  0  0
  8 16  1  1  0  0  0
  8 12  1  0  0  0  0
  9  2  1  0  0  0  0
 10 18  1  0  0  0  0
 10 15  1  0  0  0  0
 11  1  1  0  0  0  0
 13  9  1  0  0  0  0
 14  3  1  0  0  0  0
 15 19  1  0  0  0  0
 17  6  1  0  0  0  0
 17 11  1  0  0  0  0
 18 17  2  0  0  0  0
 19  8  1  0  0  0  0
 20 14  1  0  0  0  0
 20  7  1  0  0  0  0
 21 23  1  0  0  0  0
 23 13  1  0  0  0  0
 23 22  2  0  0  0  0
 24 10  1  0  0  0  0
 25 24  3  0  0  0  0
M  END
>  <MODEL>
6

>  <REMARK>
 VINA RESULT:      -6.4      2.077      2.713
  Name = 
  2 active torsions:
  status: ('A' for Active; 'I' for Inactive)
    1  A    between atoms: N_12  and  C_18
    2  A    between atoms: C_15  and  C_21
                            x       y       z     vdW  Elec       q    Type
                         _______ _______ _______ _____ _____    ______ ____

>  <TORSDO>
F 2

$$$$
=
 OpenBabel11042417473D

 25 27  0  0  1  0  0  0  0  0999 V2000
  188.1640  175.2750  141.5170 C   0  0  0  0  0  3  0  0  0  0  0  0
  188.1970  174.4300  139.1190 C   0  0  0  0  0  1  0  0  0  0  0  0
  189.9500  174.3320  142.3270 C   0  0  0  0  0  0  0  0  0  0  0  0
  186.6480  177.2740  143.4900 C   0  0  0  0  0  2  0  0  0  0  0  0
  191.9730  173.9010  145.3280 O   0  0  0  0  0  0  0  0  0  0  0  0
  188.0460  177.1570  143.7280 O   0  0  0  0  0  0  0  0  0  0  0  0
  189.6070  174.1210  145.2780 C   0  0  0  0  0  2  0  0  0  0  0  0
  186.3290  177.8950  145.8800 C   0  0  1  0  0  3  0  0  0  0  0  0
  188.7310  174.5260  140.5050 C   0  0  0  0  0  0  0  0  0  0  0  0
  188.7240  176.2680  146.2140 N   0  0  0  0  0  0  0  0  0  0  0  0
  188.9060  175.1420  142.6380 N   0  0  0  0  0  0  0  0  0  0  0  0
  185.8640  176.9740  144.7610 C   0  0  0  0  0  2  0  0  0  0  0  0
  189.8780  173.9340  141.0050 C   0  0  0  0  0  0  0  0  0  0  0  0
  191.0410  174.0210  143.2030 N   0  0  0  0  0  2  0  0  0  0  0  0
  187.5390  175.9340  146.9960 C   0  0  0  0  0  2  0  0  0  0  0  0
  185.2940  178.9710  146.1280 C   0  0  0  0  0  1  0  0  0  0  0  0
  188.6730  175.9130  143.8370 C   0  0  0  0  0  0  0  0  0  0  0  0
  189.0330  175.4800  145.0610 C   0  0  0  0  0  0  0  0  0  0  0  0
  186.6070  177.1350  147.1760 C   0  0  0  0  0  2  0  0  0  0  0  0
  190.9370  174.0180  144.6240 C   0  0  0  0  0  0  0  0  0  0  0  0
  190.5310  171.7000  140.0340 N   0  0  0  0  0  1  0  0  0  0  0  0
  191.9210  173.5410  139.8540 O   0  0  0  0  0  0  0  0  0  0  0  0
  190.8310  173.0710  140.2740 C   0  0  0  0  0  0  0  0  0  0  0  0
  189.6830  177.1560  146.7260 C   0  0  0  0  0  0  0  0  0  0  0  0
  190.4730  177.8880  147.1480 N   0  0  0  0  0  0  0  0  0  0  0  0
  1 11  1  0  0  0  0
  2  9  1  0  0  0  0
  3 11  1  0  0  0  0
  3 14  1  0  0  0  0
  4  6  1  0  0  0  0
  4 12  1  0  0  0  0
  6 17  1  0  0  0  0
  8 16  1  1  0  0  0
  8 19  1  0  0  0  0
  9 13  1  0  0  0  0
  9  1  2  0  0  0  0
 10 24  1  0  0  0  0
 10 15  1  0  0  0  0
 11 17  1  0  0  0  0
 12  8  1  0  0  0  0
 13  3  2  0  0  0  0
 14 20  1  0  0  0  0
 15 19  1  0  0  0  0
 17 18  2  0  0  0  0
 18  7  1  0  0  0  0
 18 10  1  0  0  0  0
 20  7  1  0  0  0  0
 20  5  2  0  0  0  0
 21 23  1  0  0  0  0
 22 23  2  0  0  0  0
 23 13  1  0  0  0  0
 24 25  3  0  0  0  0
M  END
>  <MODEL>
7

>  <REMARK>
 VINA RESULT:      -6.3      2.489      5.619
  Name = 
  2 active torsions:
  status: ('A' for Active; 'I' for Inactive)
    1  A    between atoms: N_12  and  C_18
    2  A    between atoms: C_15  and  C_21
                            x       y       z     vdW  Elec       q    Type
                         _______ _______ _______ _____ _____    ______ ____

>  <TORSDO>
F 2

$$$$
=
 OpenBabel11042417473D

 25 27  0  0  1  0  0  0  0  0999 V2000
  186.2240  177.6100  143.7990 C   0  0  0  0  0  3  0  0  0  0  0  0
  184.5430  179.4310  144.3710 C   0  0  0  0  0  1  0  0  0  0  0  0
  187.0210  177.1310  145.7670 C   0  0  0  0  0  0  0  0  0  0  0  0
  187.2830  175.7850  141.4050 C   0  0  0  0  0  2  0  0  0  0  0  0
  189.4230  175.0680  147.5710 O   0  0  0  0  0  0  0  0  0  0  0  0
  187.2750  175.1450  142.6760 O   0  0  0  0  0  0  0  0  0  0  0  0
  189.7320  175.9580  145.3890 C   0  0  0  0  0  2  0  0  0  0  0  0
  189.1170  174.2610  140.6890 C   0  0  1  0  0  3  0  0  0  0  0  0
  185.5920  178.4310  144.7130 C   0  0  0  0  0  0  0  0  0  0  0  0
  189.7050  174.2680  143.5430 N   0  0  0  0  0  0  0  0  0  0  0  0
  187.1110  176.8240  144.4480 N   0  0  0  0  0  0  0  0  0  0  0  0
  188.6710  175.7130  140.7810 C   0  0  0  0  0  2  0  0  0  0  0  0
  186.0800  178.1240  145.9710 C   0  0  0  0  0  0  0  0  0  0  0  0
  187.7120  176.4500  146.8210 N   0  0  0  0  0  2  0  0  0  0  0  0
  190.7640  174.6410  142.6120 C   0  0  0  0  0  2  0  0  0  0  0  0
  189.0270  173.7820  139.2550 C   0  0  0  0  0  1  0  0  0  0  0  0
  187.8300  175.7480  143.8080 C   0  0  0  0  0  0  0  0  0  0  0  0
  189.0190  175.3010  144.2560 C   0  0  0  0  0  0  0  0  0  0  0  0
  190.5370  174.0570  141.2140 C   0  0  0  0  0  2  0  0  0  0  0  0
  188.9600  175.7840  146.6470 C   0  0  0  0  0  0  0  0  0  0  0  0
  186.5230  179.6360  147.9390 N   0  0  0  0  0  1  0  0  0  0  0  0
  184.5570  178.4270  147.7710 O   0  0  0  0  0  0  0  0  0  0  0  0
  185.6700  178.7210  147.2600 C   0  0  0  0  0  0  0  0  0  0  0  0
  189.5480  172.9300  143.9370 C   0  0  0  0  0  0  0  0  0  0  0  0
  189.4190  171.8270  144.2620 N   0  0  0  0  0  0  0  0  0  0  0  0
  1 11  1  0  0  0  0
  1  9  2  0  0  0  0
  2  9  1  0  0  0  0
  3 13  2  0  0  0  0
  3 14  1  0  0  0  0
  4  6  1  0  0  0  0
  6 17  1  0  0  0  0
  7 20  1  0  0  0  0
  8 16  1  6  0  0  0
  8 12  1  0  0  0  0
  8 19  1  0  0  0  0
  9 13  1  0  0  0  0
 10 24  1  0  0  0  0
 10 18  1  0  0  0  0
 11  3  1  0  0  0  0
 12  4  1  0  0  0  0
 13 23  1  0  0  0  0
 15 10  1  0  0  0  0
 17 18  2  0  0  0  0
 17 11  1  0  0  0  0
 18  7  1  0  0  0  0
 19 15  1  0  0  0  0
 20 14  1  0  0  0  0
 20  5  2  0  0  0  0
 23 22  2  0  0  0  0
 23 21  1  0  0  0  0
 24 25  3  0  0  0  0
M  END
>  <MODEL>
8

>  <REMARK>
 VINA RESULT:      -6.3      2.592      4.782
  Name = 
  2 active torsions:
  status: ('A' for Active; 'I' for Inactive)
    1  A    between atoms: N_12  and  C_18
    2  A    between atoms: C_15  and  C_21
                            x       y       z     vdW  Elec       q    Type
                         _______ _______ _______ _____ _____    ______ ____

>  <TORSDO>
F 2

$$$$
=
 OpenBabel11042417473D

 25 27  0  0  1  0  0  0  0  0999 V2000
  190.1660  173.5270  143.0910 C   0  0  0  0  0  3  0  0  0  0  0  0
  187.9810  172.6520  142.1300 C   0  0  0  0  0  1  0  0  0  0  0  0
  189.8310  175.6760  143.0260 C   0  0  0  0  0  0  0  0  0  0  0  0
  192.8920  172.6010  144.4670 C   0  0  0  0  0  2  0  0  0  0  0  0
  191.3220  178.9310  143.7100 O   0  0  0  0  0  0  0  0  0  0  0  0
  192.3800  173.8390  144.9470 O   0  0  0  0  0  0  0  0  0  0  0  0
  192.4930  177.0090  142.9480 C   0  0  0  0  0  2  0  0  0  0  0  0
  195.1820  173.3410  145.1090 C   0  0  1  0  0  3  0  0  0  0  0  0
  188.9110  173.7340  142.5530 C   0  0  0  0  0  0  0  0  0  0  0  0
  194.0390  175.9770  144.6250 N   0  0  0  0  0  0  0  0  0  0  0  0
  190.7340  174.7220  143.3670 N   0  0  0  0  0  0  0  0  0  0  0  0
  194.3280  172.7690  143.9860 C   0  0  0  0  0  2  0  0  0  0  0  0
  188.6810  175.0990  142.5210 C   0  0  0  0  0  0  0  0  0  0  0  0
  189.9890  177.0810  143.2590 N   0  0  0  0  0  2  0  0  0  0  0  0
  195.2520  175.6010  143.9090 C   0  0  0  0  0  2  0  0  0  0  0  0
  196.0640  172.2560  145.6910 C   0  0  0  0  0  1  0  0  0  0  0  0
  191.9830  174.8580  144.0770 C   0  0  0  0  0  0  0  0  0  0  0  0
  192.7880  175.9290  143.9340 C   0  0  0  0  0  0  0  0  0  0  0  0
  196.0420  174.5130  144.6410 C   0  0  0  0  0  2  0  0  0  0  0  0
  191.2550  177.7320  143.3360 C   0  0  0  0  0  0  0  0  0  0  0  0
  187.4400  176.4760  140.8110 N   0  0  0  0  0  1  0  0  0  0  0  0
  186.4150  175.7750  142.7630 O   0  0  0  0  0  0  0  0  0  0  0  0
  187.4580  175.7890  142.0580 C   0  0  0  0  0  0  0  0  0  0  0  0
  194.1230  176.6290  145.8660 C   0  0  0  0  0  0  0  0  0  0  0  0
  194.1910  177.1660  146.8880 N   0  0  0  0  0  0  0  0  0  0  0  0
  1 11  1  0  0  0  0
  2  9  1  0  0  0  0
  3 14  1  0  0  0  0
  3 11  1  0  0  0  0
  4  6  1  0  0  0  0
  7 20  1  0  0  0  0
  7 18  1  0  0  0  0
  8 16  1  6  0  0  0
  9  1  2  0  0  0  0
 10 24  1  0  0  0  0
 11 17  1  0  0  0  0
 12  4  1  0  0  0  0
 12  8  1  0  0  0  0
 13  9  1  0  0  0  0
 13  3  2  0  0  0  0
 14 20  1  0  0  0  0
 15 10  1  0  0  0  0
 15 19  1  0  0  0  0
 17  6  1  0  0  0  0
 18 17  2  0  0  0  0
 18 10  1  0  0  0  0
 19  8  1  0  0  0  0
 20  5  2  0  0  0  0
 21 23  1  0  0  0  0
 23 13  1  0  0  0  0
 23 22  2  0  0  0  0
 24 25  3  0  0  0  0
M  END
>  <MODEL>
9

>  <REMARK>
 VINA RESULT:      -6.3      2.793      4.843
  Name = 
  2 active torsions:
  status: ('A' for Active; 'I' for Inactive)
    1  A    between atoms: N_12  and  C_18
    2  A    between atoms: C_15  and  C_21
                            x       y       z     vdW  Elec       q    Type
                         _______ _______ _______ _____ _____    ______ ____

>  <TORSDO>
F 2

$$$$
