=
 OpenBabel11042415403D

 46 48  0  0  1  0  0  0  0  0999 V2000
  195.5540  173.9860  142.7190 O   0  0  0  0  0  1  0  0  0  0  0  0
  193.3520  173.0090  142.2630 C   0  0  0  0  0  3  0  0  0  0  0  0
  192.1860  172.4180  144.3660 C   0  0  0  0  0  2  0  0  0  0  0  0
  191.6440  174.6400  144.9340 C   0  0  2  0  0  3  0  0  0  0  0  0
  193.6640  175.1050  143.5660 C   0  0  0  0  0  0  0  0  0  0  0  0
  192.1930  175.3420  143.6960 C   0  0  0  0  0  2  0  0  0  0  0  0
  192.4370  172.2660  142.8930 C   0  0  0  0  0  0  0  0  0  0  0  0
  194.1770  174.0670  142.8870 C   0  0  0  0  0  0  0  0  0  0  0  0
  194.5240  176.0160  144.1680 O   0  0  0  0  0  1  0  0  0  0  0  0
  191.0820  173.3410  144.5790 N   0  0  0  0  0  2  0  0  0  0  0  0
  190.4710  175.1310  147.9470 O   0  0  0  0  0  1  0  0  0  0  0  0
  188.2030  176.7620  146.4140 C   0  0  0  0  0  0  0  0  0  0  0  0
  190.6010  175.4850  145.6030 C   0  0  0  0  0  0  0  0  0  0  0  0
  189.3410  177.6030  145.8960 C   0  0  0  0  0  2  0  0  0  0  0  0
  188.4230  175.4940  146.8080 C   0  0  0  0  0  3  0  0  0  0  0  0
  190.3710  176.7500  145.2010 C   0  0  0  0  0  3  0  0  0  0  0  0
  189.8060  174.8950  146.7440 C   0  0  2  0  0  3  0  0  0  0  0  0
  185.8720  176.3810  146.4890 F   0  0  0  0  0  0  0  0  0  0  0  0
  186.8400  177.3700  146.5230 C   0  0  1  0  0  3  0  0  0  0  0  0
  186.7290  178.1030  147.7160 O   0  0  0  0  0  0  0  0  0  0  0  0
  186.2230  180.2880  148.2370 F   0  0  0  0  0  0  0  0  0  0  0  0
  184.5790  178.8020  147.8740 F   0  0  0  0  0  0  0  0  0  0  0  0
  185.8510  179.1810  147.4870 C   0  0  0  0  0  0  0  0  0  0  0  0
  185.8180  179.5140  146.1410 F   0  0  0  0  0  0  0  0  0  0  0  0
  191.7120  171.3340  142.1430 O   0  0  0  0  0  0  0  0  0  0  0  0
  191.5000  171.4700  140.7410 C   0  0  0  0  0  2  0  0  0  0  0  0
  190.1270  172.0610  140.4260 C   0  0  1  0  0  3  0  0  0  0  0  0
  187.8080  172.7280  142.1000 O   0  0  0  0  0  0  0  0  0  0  0  0
  188.5890  174.8810  142.5450 N   0  0  0  0  0  2  0  0  0  0  0  0
  189.8850  173.2980  141.1710 N   0  0  0  0  0  2  0  0  0  0  0  0
  188.7130  173.5940  141.9430 C   0  0  0  0  0  0  0  0  0  0  0  0
  187.3970  175.2790  143.2780 C   0  0  0  0  0  2  0  0  0  0  0  0
  184.6520  178.1860  141.2810 C   0  0  0  0  0  0  0  0  0  0  0  0
  185.0040  178.2190  142.7420 C   0  0  2  0  0  3  0  0  0  0  0  0
  185.6000  178.0940  140.3460 C   0  0  0  0  0  3  0  0  0  0  0  0
  187.6040  177.2420  141.6370 C   0  0  0  0  0  0  0  0  0  0  0  0
  185.6560  176.9450  143.1620 C   0  0  0  0  0  3  0  0  0  0  0  0
  187.0400  177.9080  140.6080 C   0  0  0  0  0  3  0  0  0  0  0  0
  183.3270  178.2940  140.8720 O   0  0  0  0  0  1  0  0  0  0  0  0
  186.8170  176.5120  142.6680 C   0  0  0  0  0  0  0  0  0  0  0  0
  183.7890  178.4790  143.6150 C   0  0  0  0  0  1  0  0  0  0  0  0
  189.8120  178.2070  142.2520 C   0  0  0  0  0  1  0  0  0  0  0  0
  189.0000  177.1640  141.7260 O   0  0  0  0  0  0  0  0  0  0  0  0
  189.8830  172.2250  138.9290 C   0  0  0  0  0  2  0  0  0  0  0  0
  188.4850  172.7560  138.6590 C   0  0  0  0  0  2  0  0  0  0  0  0
  188.5500  174.0730  138.2430 F   0  0  0  0  0  0  0  0  0  0  0  0
  1  8  1  0  0  0  0
  2  8  1  0  0  0  0
  2  7  2  0  0  0  0
  3 10  1  0  0  0  0
  4 13  1  6  0  0  0
  5  6  1  0  0  0  0
  5  9  1  0  0  0  0
  6  4  1  0  0  0  0
  7  3  1  0  0  0  0
  8  5  2  0  0  0  0
 10  4  1  0  0  0  0
 12 19  1  0  0  0  0
 12 15  2  0  0  0  0
 13 17  1  0  0  0  0
 14 12  1  0  0  0  0
 16 13  2  0  0  0  0
 16 14  1  0  0  0  0
 17 15  1  0  0  0  0
 17 11  1  1  0  0  0
 19 18  1  1  0  0  0
 19 20  1  0  0  0  0
 23 20  1  0  0  0  0
 23 22  1  0  0  0  0
 23 21  1  0  0  0  0
 24 23  1  0  0  0  0
 25  7  1  0  0  0  0
 26 25  1  0  0  0  0
 27 44  1  6  0  0  0
 27 26  1  0  0  0  0
 27 30  1  0  0  0  0
 29 32  1  0  0  0  0
 30 31  1  0  0  0  0
 31 28  2  0  0  0  0
 31 29  1  0  0  0  0
 33 34  1  0  0  0  0
 34 37  1  0  0  0  0
 34 41  1  1  0  0  0
 35 38  1  0  0  0  0
 35 33  2  0  0  0  0
 36 43  1  0  0  0  0
 36 40  1  0  0  0  0
 38 36  2  0  0  0  0
 39 33  1  0  0  0  0
 40 37  2  0  0  0  0
 40 32  1  0  0  0  0
 43 42  1  0  0  0  0
 45 44  1  0  0  0  0
 46 45  1  0  0  0  0
M  END
>  <MODEL>
1

>  <REMARK>
 VINA RESULT:      -7.8      0.000      0.000
  Name = 
  13 active torsions:
  status: ('A' for Active; 'I' for Inactive)
    1  A    between atoms: C_2  and  C_5
    2  A    between atoms: C_2  and  C_8
    3  A    between atoms: C_5  and  N_31
    4  A    between atoms: C_5  and  C_37
    5  A    between atoms: C_6  and  C_17
    6  A    between atoms: O_11  and  C_28
    7  A    between atoms: C_16  and  C_45
    8  A    between atoms: C_18  and  O_43
    9  A    between atoms: O_21  and  C_36
   10  A    between atoms: O_21  and  C_37
   11  A    between atoms: C_25  and  N_27
   12  A    between atoms: C_25  and  C_40
   13  A    between atoms: O_43  and  C_45
                            x       y       z     vdW  Elec       q    Type
                         _______ _______ _______ _____ _____    ______ ____

>  <TORSDO>
F 13

$$$$
=
 OpenBabel11042415403D

 46 48  0  0  1  0  0  0  0  0999 V2000
  191.1180  171.0230  143.3110 O   0  0  0  0  0  1  0  0  0  0  0  0
  191.2910  172.5530  141.4040 C   0  0  0  0  0  3  0  0  0  0  0  0
  189.0490  173.2140  140.5850 C   0  0  0  0  0  2  0  0  0  0  0  0
  188.6010  174.6840  142.3710 C   0  0  2  0  0  3  0  0  0  0  0  0
  190.1830  173.1710  143.5440 C   0  0  0  0  0  0  0  0  0  0  0  0
  189.9330  174.5790  143.1050 C   0  0  0  0  0  2  0  0  0  0  0  0
  190.5230  172.9940  140.4020 C   0  0  0  0  0  0  0  0  0  0  0  0
  190.8280  172.2740  142.7810 C   0  0  0  0  0  0  0  0  0  0  0  0
  189.7350  172.7950  144.8050 O   0  0  0  0  0  1  0  0  0  0  0  0
  188.8030  174.6060  140.9280 N   0  0  0  0  0  2  0  0  0  0  0  0
  189.0790  177.8990  142.0100 O   0  0  0  0  0  1  0  0  0  0  0  0
  186.6340  178.1300  144.0410 C   0  0  0  0  0  0  0  0  0  0  0  0
  187.9020  175.9630  142.7230 C   0  0  0  0  0  0  0  0  0  0  0  0
  185.8670  177.3550  143.0000 C   0  0  0  0  0  2  0  0  0  0  0  0
  187.9740  178.0330  144.1050 C   0  0  0  0  0  3  0  0  0  0  0  0
  186.5600  176.0580  142.6720 C   0  0  0  0  0  3  0  0  0  0  0  0
  188.7310  177.1560  143.1390 C   0  0  2  0  0  3  0  0  0  0  0  0
  185.6020  180.2350  144.3390 F   0  0  0  0  0  0  0  0  0  0  0  0
  185.8880  179.0370  144.9690 C   0  0  1  0  0  3  0  0  0  0  0  0
  184.6960  178.4250  145.3920 O   0  0  0  0  0  0  0  0  0  0  0  0
  186.2110  178.1290  147.1010 F   0  0  0  0  0  0  0  0  0  0  0  0
  184.7130  176.5240  146.6250 F   0  0  0  0  0  0  0  0  0  0  0  0
  184.9100  177.8910  146.6780 C   0  0  0  0  0  0  0  0  0  0  0  0
  184.0130  178.4270  147.5920 F   0  0  0  0  0  0  0  0  0  0  0  0
  191.1310  173.2480  139.1670 O   0  0  0  0  0  0  0  0  0  0  0  0
  192.5240  173.0590  138.9390 C   0  0  0  0  0  2  0  0  0  0  0  0
  193.2660  174.3870  138.8040 C   0  0  1  0  0  3  0  0  0  0  0  0
  193.1970  175.6010  141.4770 O   0  0  0  0  0  0  0  0  0  0  0  0
  195.4730  175.2370  141.8390 N   0  0  0  0  0  2  0  0  0  0  0  0
  194.3630  174.4970  139.7670 N   0  0  0  0  0  2  0  0  0  0  0  0
  194.2900  175.1400  141.0470 C   0  0  0  0  0  0  0  0  0  0  0  0
  195.4930  175.9400  143.1130 C   0  0  0  0  0  2  0  0  0  0  0  0
  194.5500  172.2650  145.4740 C   0  0  0  0  0  0  0  0  0  0  0  0
  195.8000  173.0820  145.6420 C   0  0  2  0  0  3  0  0  0  0  0  0
  193.3460  172.8410  145.4650 C   0  0  0  0  0  3  0  0  0  0  0  0
  193.8720  175.2700  144.9860 C   0  0  0  0  0  0  0  0  0  0  0  0
  195.9760  174.0270  144.5020 C   0  0  0  0  0  3  0  0  0  0  0  0
  193.0970  174.2950  145.5030 C   0  0  0  0  0  3  0  0  0  0  0  0
  194.6220  170.8800  145.3660 O   0  0  0  0  0  1  0  0  0  0  0  0
  195.1140  175.0040  144.2120 C   0  0  0  0  0  0  0  0  0  0  0  0
  197.0360  172.2120  145.7750 C   0  0  0  0  0  1  0  0  0  0  0  0
  192.2780  177.1310  144.5510 C   0  0  0  0  0  1  0  0  0  0  0  0
  193.4750  176.6090  145.1150 O   0  0  0  0  0  0  0  0  0  0  0  0
  193.7150  174.6710  137.3730 C   0  0  0  0  0  2  0  0  0  0  0  0
  192.6410  175.4190  136.6020 C   0  0  0  0  0  2  0  0  0  0  0  0
  191.7830  174.5220  135.9930 F   0  0  0  0  0  0  0  0  0  0  0  0
  2  8  1  0  0  0  0
  3 10  1  0  0  0  0
  4 13  1  6  0  0  0
  4  6  1  0  0  0  0
  5  9  1  0  0  0  0
  6  5  1  0  0  0  0
  7  3  1  0  0  0  0
  7  2  2  0  0  0  0
  8  1  1  0  0  0  0
  8  5  2  0  0  0  0
 10  4  1  0  0  0  0
 12 15  2  0  0  0  0
 12 19  1  0  0  0  0
 13 17  1  0  0  0  0
 14 12  1  0  0  0  0
 16 13  2  0  0  0  0
 16 14  1  0  0  0  0
 17 11  1  6  0  0  0
 17 15  1  0  0  0  0
 19 18  1  6  0  0  0
 19 20  1  0  0  0  0
 20 23  1  0  0  0  0
 22 23  1  0  0  0  0
 23 21  1  0  0  0  0
 23 24  1  0  0  0  0
 25  7  1  0  0  0  0
 26 25  1  0  0  0  0
 27 44  1  6  0  0  0
 27 26  1  0  0  0  0
 27 30  1  0  0  0  0
 29 32  1  0  0  0  0
 30 31  1  0  0  0  0
 31 28  2  0  0  0  0
 31 29  1  0  0  0  0
 32 40  1  0  0  0  0
 33 34  1  0  0  0  0
 34 41  1  6  0  0  0
 35 33  2  0  0  0  0
 35 38  1  0  0  0  0
 36 43  1  0  0  0  0
 36 38  2  0  0  0  0
 37 34  1  0  0  0  0
 39 33  1  0  0  0  0
 40 37  2  0  0  0  0
 40 36  1  0  0  0  0
 42 43  1  0  0  0  0
 45 44  1  0  0  0  0
 46 45  1  0  0  0  0
M  END
>  <MODEL>
2

>  <REMARK>
 VINA RESULT:      -7.6      2.635      6.416
  Name = 
  13 active torsions:
  status: ('A' for Active; 'I' for Inactive)
    1  A    between atoms: C_2  and  C_5
    2  A    between atoms: C_2  and  C_8
    3  A    between atoms: C_5  and  N_31
    4  A    between atoms: C_5  and  C_37
    5  A    between atoms: C_6  and  C_17
    6  A    between atoms: O_11  and  C_28
    7  A    between atoms: C_16  and  C_45
    8  A    between atoms: C_18  and  O_43
    9  A    between atoms: O_21  and  C_36
   10  A    between atoms: O_21  and  C_37
   11  A    between atoms: C_25  and  N_27
   12  A    between atoms: C_25  and  C_40
   13  A    between atoms: O_43  and  C_45
                            x       y       z     vdW  Elec       q    Type
                         _______ _______ _______ _____ _____    ______ ____

>  <TORSDO>
F 13

$$$$
=
 OpenBabel11042415403D

 46 48  0  0  1  0  0  0  0  0999 V2000
  190.2060  172.0780  138.3180 O   0  0  0  0  0  1  0  0  0  0  0  0
  190.1440  171.6970  140.7380 C   0  0  0  0  0  3  0  0  0  0  0  0
  190.9340  173.6910  141.9760 C   0  0  0  0  0  2  0  0  0  0  0  0
  188.9760  174.9490  141.6140 C   0  0  2  0  0  3  0  0  0  0  0  0
  188.8340  173.4860  139.6120 C   0  0  0  0  0  0  0  0  0  0  0  0
  188.1510  173.8990  140.8770 C   0  0  0  0  0  2  0  0  0  0  0  0
  190.6800  172.2160  141.8480 C   0  0  0  0  0  0  0  0  0  0  0  0
  189.7060  172.4670  139.5540 C   0  0  0  0  0  0  0  0  0  0  0  0
  188.5300  174.1880  138.4510 O   0  0  0  0  0  1  0  0  0  0  0  0
  189.8050  174.3240  142.6380 N   0  0  0  0  0  2  0  0  0  0  0  0
  188.3630  178.1460  141.2960 O   0  0  0  0  0  1  0  0  0  0  0  0
  186.7210  177.7370  143.9970 C   0  0  0  0  0  0  0  0  0  0  0  0
  188.0830  175.9820  142.2350 C   0  0  0  0  0  0  0  0  0  0  0  0
  185.9260  176.7290  143.2070 C   0  0  0  0  0  2  0  0  0  0  0  0
  187.9810  178.0390  143.6350 C   0  0  0  0  0  3  0  0  0  0  0  0
  186.8260  175.6780  142.6090 C   0  0  0  0  0  3  0  0  0  0  0  0
  188.6170  177.3820  142.4350 C   0  0  2  0  0  3  0  0  0  0  0  0
  184.9260  179.0770  144.7490 F   0  0  0  0  0  0  0  0  0  0  0  0
  186.0750  178.4240  145.1590 C   0  0  1  0  0  3  0  0  0  0  0  0
  185.7600  177.4910  146.1610 O   0  0  0  0  0  0  0  0  0  0  0  0
  184.1230  178.4750  147.4460 F   0  0  0  0  0  0  0  0  0  0  0  0
  186.1660  179.3980  147.3150 F   0  0  0  0  0  0  0  0  0  0  0  0
  185.4790  178.1990  147.3460 C   0  0  0  0  0  0  0  0  0  0  0  0
  185.8970  177.4840  148.4600 F   0  0  0  0  0  0  0  0  0  0  0  0
  191.0010  171.3470  142.8960 O   0  0  0  0  0  0  0  0  0  0  0  0
  191.4920  170.0270  142.6810 C   0  0  0  0  0  2  0  0  0  0  0  0
  192.9400  169.8750  143.1410 C   0  0  1  0  0  3  0  0  0  0  0  0
  194.2640  172.4930  143.2960 O   0  0  0  0  0  0  0  0  0  0  0  0
  194.1700  172.5440  145.6260 N   0  0  0  0  0  2  0  0  0  0  0  0
  193.2150  170.6720  144.3390 N   0  0  0  0  0  2  0  0  0  0  0  0
  193.9060  171.9290  144.3670 C   0  0  0  0  0  0  0  0  0  0  0  0
  194.9300  173.7800  145.7380 C   0  0  0  0  0  2  0  0  0  0  0  0
  191.2860  176.3530  145.4800 C   0  0  0  0  0  0  0  0  0  0  0  0
  192.1800  176.2690  146.6840 C   0  0  2  0  0  3  0  0  0  0  0  0
  191.7890  176.5550  144.2600 C   0  0  0  0  0  3  0  0  0  0  0  0
  194.2280  175.9340  144.5330 C   0  0  0  0  0  0  0  0  0  0  0  0
  193.0960  175.0960  146.5880 C   0  0  0  0  0  3  0  0  0  0  0  0
  193.2260  176.6070  143.9300 C   0  0  0  0  0  3  0  0  0  0  0  0
  189.9040  176.2640  145.6190 O   0  0  0  0  0  1  0  0  0  0  0  0
  194.0100  174.9500  145.6270 C   0  0  0  0  0  0  0  0  0  0  0  0
  191.3890  176.1900  147.9780 C   0  0  0  0  0  1  0  0  0  0  0  0
  195.8770  176.4440  142.7410 C   0  0  0  0  0  1  0  0  0  0  0  0
  195.5450  176.1060  144.0820 O   0  0  0  0  0  0  0  0  0  0  0  0
  193.3610  168.4170  143.3020 C   0  0  0  0  0  2  0  0  0  0  0  0
  194.8690  168.2960  143.4330 C   0  0  0  0  0  2  0  0  0  0  0  0
  195.2210  168.1660  144.7630 F   0  0  0  0  0  0  0  0  0  0  0  0
  1  8  1  0  0  0  0
  2  7  2  0  0  0  0
  3 10  1  0  0  0  0
  4 13  1  1  0  0  0
  4 10  1  0  0  0  0
  5  6  1  0  0  0  0
  6  4  1  0  0  0  0
  7  3  1  0  0  0  0
  7 25  1  0  0  0  0
  8  5  2  0  0  0  0
  8  2  1  0  0  0  0
  9  5  1  0  0  0  0
 12 19  1  0  0  0  0
 13 17  1  0  0  0  0
 13 16  2  0  0  0  0
 14 12  1  0  0  0  0
 15 12  2  0  0  0  0
 16 14  1  0  0  0  0
 17 11  1  6  0  0  0
 17 15  1  0  0  0  0
 19 18  1  6  0  0  0
 19 20  1  0  0  0  0
 20 23  1  0  0  0  0
 22 23  1  0  0  0  0
 23 21  1  0  0  0  0
 23 24  1  0  0  0  0
 26 25  1  0  0  0  0
 27 26  1  1  0  0  0
 27 44  1  0  0  0  0
 27 30  1  0  0  0  0
 28 31  2  0  0  0  0
 29 32  1  0  0  0  0
 30 31  1  0  0  0  0
 31 29  1  0  0  0  0
 33 39  1  0  0  0  0
 33 34  1  0  0  0  0
 34 41  1  1  0  0  0
 35 33  2  0  0  0  0
 36 40  1  0  0  0  0
 37 34  1  0  0  0  0
 38 35  1  0  0  0  0
 38 36  2  0  0  0  0
 40 32  1  0  0  0  0
 40 37  2  0  0  0  0
 42 43  1  0  0  0  0
 43 36  1  0  0  0  0
 44 45  1  0  0  0  0
 45 46  1  0  0  0  0
M  END
>  <MODEL>
3

>  <REMARK>
 VINA RESULT:      -7.3      2.688      5.995
  Name = 
  13 active torsions:
  status: ('A' for Active; 'I' for Inactive)
    1  A    between atoms: C_2  and  C_5
    2  A    between atoms: C_2  and  C_8
    3  A    between atoms: C_5  and  N_31
    4  A    between atoms: C_5  and  C_37
    5  A    between atoms: C_6  and  C_17
    6  A    between atoms: O_11  and  C_28
    7  A    between atoms: C_16  and  C_45
    8  A    between atoms: C_18  and  O_43
    9  A    between atoms: O_21  and  C_36
   10  A    between atoms: O_21  and  C_37
   11  A    between atoms: C_25  and  N_27
   12  A    between atoms: C_25  and  C_40
   13  A    between atoms: O_43  and  C_45
                            x       y       z     vdW  Elec       q    Type
                         _______ _______ _______ _____ _____    ______ ____

>  <TORSDO>
F 13

$$$$
=
 OpenBabel11042415403D

 46 48  0  0  1  0  0  0  0  0999 V2000
  196.5520  175.6670  139.0970 O   0  0  0  0  0  1  0  0  0  0  0  0
  194.3710  174.5750  139.3380 C   0  0  0  0  0  3  0  0  0  0  0  0
  194.3870  172.9550  141.2120 C   0  0  0  0  0  2  0  0  0  0  0  0
  194.3190  174.5940  142.9030 C   0  0  2  0  0  3  0  0  0  0  0  0
  195.4030  175.9560  141.1310 C   0  0  0  0  0  0  0  0  0  0  0  0
  194.2100  175.8370  142.0250 C   0  0  0  0  0  2  0  0  0  0  0  0
  193.8580  173.4790  139.9070 C   0  0  0  0  0  0  0  0  0  0  0  0
  195.4510  175.4110  139.9050 C   0  0  0  0  0  0  0  0  0  0  0  0
  196.4940  176.6780  141.5990 O   0  0  0  0  0  1  0  0  0  0  0  0
  193.5880  173.4810  142.3080 N   0  0  0  0  0  2  0  0  0  0  0  0
  194.3910  173.2030  145.8620 O   0  0  0  0  0  1  0  0  0  0  0  0
  192.1920  175.4020  146.5580 C   0  0  0  0  0  0  0  0  0  0  0  0
  193.7970  174.8730  144.2810 C   0  0  0  0  0  0  0  0  0  0  0  0
  193.2520  176.3980  146.1610 C   0  0  0  0  0  2  0  0  0  0  0  0
  192.2260  174.1480  146.0710 C   0  0  0  0  0  3  0  0  0  0  0  0
  193.7510  176.1290  144.7650 C   0  0  0  0  0  3  0  0  0  0  0  0
  193.3210  173.7160  145.1280 C   0  0  2  0  0  3  0  0  0  0  0  0
  191.5930  176.8470  148.3300 F   0  0  0  0  0  0  0  0  0  0  0  0
  191.1330  175.8160  147.5300 C   0  0  1  0  0  3  0  0  0  0  0  0
  189.9780  176.2270  146.8430 O   0  0  0  0  0  0  0  0  0  0  0  0
  187.7430  175.8120  147.2120 F   0  0  0  0  0  0  0  0  0  0  0  0
  189.3060  174.4910  148.1360 F   0  0  0  0  0  0  0  0  0  0  0  0
  188.9900  175.2360  147.0160 C   0  0  0  0  0  0  0  0  0  0  0  0
  188.9480  174.3840  145.9220 F   0  0  0  0  0  0  0  0  0  0  0  0
  192.8070  172.8260  139.2550 O   0  0  0  0  0  0  0  0  0  0  0  0
  191.7280  173.5240  138.6390 C   0  0  0  0  0  2  0  0  0  0  0  0
  190.3810  172.8710  138.9400 C   0  0  1  0  0  3  0  0  0  0  0  0
  190.2770  173.4820  141.8110 O   0  0  0  0  0  0  0  0  0  0  0  0
  188.4330  174.8920  141.5730 N   0  0  0  0  0  2  0  0  0  0  0  0
  189.4740  173.7910  139.6280 N   0  0  0  0  0  2  0  0  0  0  0  0
  189.4330  174.0240  141.0430 C   0  0  0  0  0  0  0  0  0  0  0  0
  188.2830  175.1170  143.0020 C   0  0  0  0  0  2  0  0  0  0  0  0
  185.1810  178.2930  143.5050 C   0  0  0  0  0  0  0  0  0  0  0  0
  185.9730  177.6960  144.6340 C   0  0  2  0  0  3  0  0  0  0  0  0
  185.7830  178.7410  142.4010 C   0  0  0  0  0  3  0  0  0  0  0  0
  188.0510  177.6200  142.4870 C   0  0  0  0  0  0  0  0  0  0  0  0
  186.6680  176.4510  144.1980 C   0  0  0  0  0  3  0  0  0  0  0  0
  187.2240  178.6150  142.1060 C   0  0  0  0  0  3  0  0  0  0  0  0
  183.8000  178.4290  143.6070 O   0  0  0  0  0  1  0  0  0  0  0  0
  187.5960  176.4200  143.2390 C   0  0  0  0  0  0  0  0  0  0  0  0
  185.1050  177.3960  145.8420 C   0  0  0  0  0  1  0  0  0  0  0  0
  190.4730  177.7360  143.0440 C   0  0  0  0  0  1  0  0  0  0  0  0
  189.4020  177.6630  142.1110 O   0  0  0  0  0  0  0  0  0  0  0  0
  189.7430  172.2360  137.7080 C   0  0  0  0  0  2  0  0  0  0  0  0
  190.2340  170.8120  137.5120 C   0  0  0  0  0  2  0  0  0  0  0  0
  189.2640  169.9150  137.9170 F   0  0  0  0  0  0  0  0  0  0  0  0
  1  8  1  0  0  0  0
  2  8  1  0  0  0  0
  2  7  2  0  0  0  0
  3 10  1  0  0  0  0
  4 13  1  1  0  0  0
  5  9  1  0  0  0  0
  5  6  1  0  0  0  0
  6  4  1  0  0  0  0
  7  3  1  0  0  0  0
  8  5  2  0  0  0  0
 10  4  1  0  0  0  0
 12 19  1  0  0  0  0
 13 16  2  0  0  0  0
 13 17  1  0  0  0  0
 14 12  1  0  0  0  0
 15 12  2  0  0  0  0
 16 14  1  0  0  0  0
 17 11  1  1  0  0  0
 17 15  1  0  0  0  0
 19 18  1  6  0  0  0
 20 23  1  0  0  0  0
 20 19  1  0  0  0  0
 23 21  1  0  0  0  0
 23 22  1  0  0  0  0
 24 23  1  0  0  0  0
 25  7  1  0  0  0  0
 26 27  1  0  0  0  0
 26 25  1  0  0  0  0
 27 44  1  6  0  0  0
 27 30  1  0  0  0  0
 29 32  1  0  0  0  0
 30 31  1  0  0  0  0
 31 29  1  0  0  0  0
 31 28  2  0  0  0  0
 32 40  1  0  0  0  0
 33 39  1  0  0  0  0
 33 34  1  0  0  0  0
 34 41  1  1  0  0  0
 35 33  2  0  0  0  0
 36 40  1  0  0  0  0
 37 34  1  0  0  0  0
 38 35  1  0  0  0  0
 38 36  2  0  0  0  0
 40 37  2  0  0  0  0
 43 36  1  0  0  0  0
 43 42  1  0  0  0  0
 45 44  1  0  0  0  0
 45 46  1  0  0  0  0
M  END
>  <MODEL>
4

>  <REMARK>
 VINA RESULT:      -7.2      2.418      3.417
  Name = 
  13 active torsions:
  status: ('A' for Active; 'I' for Inactive)
    1  A    between atoms: C_2  and  C_5
    2  A    between atoms: C_2  and  C_8
    3  A    between atoms: C_5  and  N_31
    4  A    between atoms: C_5  and  C_37
    5  A    between atoms: C_6  and  C_17
    6  A    between atoms: O_11  and  C_28
    7  A    between atoms: C_16  and  C_45
    8  A    between atoms: C_18  and  O_43
    9  A    between atoms: O_21  and  C_36
   10  A    between atoms: O_21  and  C_37
   11  A    between atoms: C_25  and  N_27
   12  A    between atoms: C_25  and  C_40
   13  A    between atoms: O_43  and  C_45
                            x       y       z     vdW  Elec       q    Type
                         _______ _______ _______ _____ _____    ______ ____

>  <TORSDO>
F 13

$$$$
=
 OpenBabel11042415403D

 46 48  0  0  1  0  0  0  0  0999 V2000
  196.9030  174.6120  144.5880 O   0  0  0  0  0  1  0  0  0  0  0  0
  195.4120  175.5270  142.8710 C   0  0  0  0  0  3  0  0  0  0  0  0
  193.2130  174.3890  142.9000 C   0  0  0  0  0  2  0  0  0  0  0  0
  192.4500  175.4620  144.8540 C   0  0  2  0  0  3  0  0  0  0  0  0
  194.8890  175.6000  145.3010 C   0  0  0  0  0  0  0  0  0  0  0  0
  193.6360  176.3900  145.0940 C   0  0  0  0  0  2  0  0  0  0  0  0
  194.2980  175.1750  142.2210 C   0  0  0  0  0  0  0  0  0  0  0  0
  195.7020  175.2460  144.2930 C   0  0  0  0  0  0  0  0  0  0  0  0
  195.2200  175.2380  146.6020 O   0  0  0  0  0  1  0  0  0  0  0  0
  192.2070  175.2990  143.4250 N   0  0  0  0  0  2  0  0  0  0  0  0
  190.8550  175.0590  147.6810 O   0  0  0  0  0  1  0  0  0  0  0  0
  188.5770  176.7470  146.2260 C   0  0  0  0  0  0  0  0  0  0  0  0
  191.2190  175.9920  145.5280 C   0  0  0  0  0  0  0  0  0  0  0  0
  189.6330  177.8140  146.0950 C   0  0  0  0  0  2  0  0  0  0  0  0
  188.9320  175.4550  146.3510 C   0  0  0  0  0  3  0  0  0  0  0  0
  190.8560  177.2820  145.3930 C   0  0  0  0  0  3  0  0  0  0  0  0
  190.3860  175.0530  146.3670 C   0  0  2  0  0  3  0  0  0  0  0  0
  186.3320  176.0750  145.9190 F   0  0  0  0  0  0  0  0  0  0  0  0
  187.1360  177.1500  146.2570 C   0  0  1  0  0  3  0  0  0  0  0  0
  186.7900  177.6190  147.5350 O   0  0  0  0  0  0  0  0  0  0  0  0
  185.7710  179.0390  146.0370 F   0  0  0  0  0  0  0  0  0  0  0  0
  186.4590  179.8040  148.0340 F   0  0  0  0  0  0  0  0  0  0  0  0
  185.9180  178.7140  147.3780 C   0  0  0  0  0  0  0  0  0  0  0  0
  184.6760  178.4410  147.9350 F   0  0  0  0  0  0  0  0  0  0  0  0
  194.1640  175.5580  140.8830 O   0  0  0  0  0  0  0  0  0  0  0  0
  195.0500  175.1120  139.8600 C   0  0  0  0  0  2  0  0  0  0  0  0
  194.4770  173.9270  139.0850 C   0  0  1  0  0  3  0  0  0  0  0  0
  192.0920  172.8360  140.4090 O   0  0  0  0  0  0  0  0  0  0  0  0
  190.6370  173.7930  138.8560 N   0  0  0  0  0  2  0  0  0  0  0  0
  193.0740  174.1420  138.7250 N   0  0  0  0  0  2  0  0  0  0  0  0
  191.9420  173.5500  139.3790 C   0  0  0  0  0  0  0  0  0  0  0  0
  189.4510  173.1670  139.4200 C   0  0  0  0  0  2  0  0  0  0  0  0
  188.2000  176.8560  141.6090 C   0  0  0  0  0  0  0  0  0  0  0  0
  187.3680  176.1670  140.5650 C   0  0  2  0  0  3  0  0  0  0  0  0
  188.7470  176.1720  142.6170 C   0  0  0  0  0  3  0  0  0  0  0  0
  188.6840  173.7800  141.7910 C   0  0  0  0  0  0  0  0  0  0  0  0
  188.1840  175.1850  139.7950 C   0  0  0  0  0  3  0  0  0  0  0  0
  188.7040  174.7050  142.7720 C   0  0  0  0  0  3  0  0  0  0  0  0
  188.3830  178.2350  141.5690 O   0  0  0  0  0  1  0  0  0  0  0  0
  188.7700  174.1190  140.3450 C   0  0  0  0  0  0  0  0  0  0  0  0
  186.7240  177.1540  139.6070 C   0  0  0  0  0  1  0  0  0  0  0  0
  189.1020  171.9040  143.3700 C   0  0  0  0  0  1  0  0  0  0  0  0
  188.6460  172.4190  142.1250 O   0  0  0  0  0  0  0  0  0  0  0  0
  195.3330  173.5350  137.8850 C   0  0  0  0  0  2  0  0  0  0  0  0
  196.0850  174.7350  137.3360 C   0  0  0  0  0  2  0  0  0  0  0  0
  195.2720  175.4530  136.4780 F   0  0  0  0  0  0  0  0  0  0  0  0
  2  8  1  0  0  0  0
  3 10  1  0  0  0  0
  4  6  1  0  0  0  0
  4 13  1  1  0  0  0
  5  9  1  0  0  0  0
  6  5  1  0  0  0  0
  7  2  2  0  0  0  0
  7  3  1  0  0  0  0
  8  1  1  0  0  0  0
  8  5  2  0  0  0  0
 10  4  1  0  0  0  0
 12 19  1  0  0  0  0
 12 15  2  0  0  0  0
 13 17  1  0  0  0  0
 14 12  1  0  0  0  0
 15 17  1  0  0  0  0
 16 13  2  0  0  0  0
 16 14  1  0  0  0  0
 17 11  1  1  0  0  0
 19 18  1  1  0  0  0
 19 20  1  0  0  0  0
 21 23  1  0  0  0  0
 23 20  1  0  0  0  0
 23 24  1  0  0  0  0
 23 22  1  0  0  0  0
 25  7  1  0  0  0  0
 26 25  1  0  0  0  0
 27 44  1  6  0  0  0
 27 26  1  0  0  0  0
 29 31  1  0  0  0  0
 29 32  1  0  0  0  0
 30 27  1  0  0  0  0
 30 31  1  0  0  0  0
 31 28  2  0  0  0  0
 32 40  1  0  0  0  0
 33 35  2  0  0  0  0
 34 41  1  6  0  0  0
 34 33  1  0  0  0  0
 35 38  1  0  0  0  0
 36 43  1  0  0  0  0
 36 38  2  0  0  0  0
 37 40  2  0  0  0  0
 37 34  1  0  0  0  0
 39 33  1  0  0  0  0
 40 36  1  0  0  0  0
 43 42  1  0  0  0  0
 45 44  1  0  0  0  0
 46 45  1  0  0  0  0
M  END
>  <MODEL>
5

>  <REMARK>
 VINA RESULT:      -7.2      2.319      3.726
  Name = 
  13 active torsions:
  status: ('A' for Active; 'I' for Inactive)
    1  A    between atoms: C_2  and  C_5
    2  A    between atoms: C_2  and  C_8
    3  A    between atoms: C_5  and  N_31
    4  A    between atoms: C_5  and  C_37
    5  A    between atoms: C_6  and  C_17
    6  A    between atoms: O_11  and  C_28
    7  A    between atoms: C_16  and  C_45
    8  A    between atoms: C_18  and  O_43
    9  A    between atoms: O_21  and  C_36
   10  A    between atoms: O_21  and  C_37
   11  A    between atoms: C_25  and  N_27
   12  A    between atoms: C_25  and  C_40
   13  A    between atoms: O_43  and  C_45
                            x       y       z     vdW  Elec       q    Type
                         _______ _______ _______ _____ _____    ______ ____

>  <TORSDO>
F 13

$$$$
=
 OpenBabel11042415403D

 46 48  0  0  1  0  0  0  0  0999 V2000
  190.2690  170.6910  142.0090 O   0  0  0  0  0  1  0  0  0  0  0  0
  190.5880  172.5290  140.4200 C   0  0  0  0  0  3  0  0  0  0  0  0
  188.4270  173.5900  139.8370 C   0  0  0  0  0  2  0  0  0  0  0  0
  188.1960  174.7290  141.8870 C   0  0  2  0  0  3  0  0  0  0  0  0
  189.6060  172.8470  142.6830 C   0  0  0  0  0  0  0  0  0  0  0  0
  189.5200  174.3320  142.5300 C   0  0  0  0  0  2  0  0  0  0  0  0
  189.8600  173.2410  139.5530 C   0  0  0  0  0  0  0  0  0  0  0  0
  190.1220  172.0460  141.7380 C   0  0  0  0  0  0  0  0  0  0  0  0
  189.1410  172.2890  143.8690 O   0  0  0  0  0  1  0  0  0  0  0  0
  188.3580  174.9080  140.4480 N   0  0  0  0  0  2  0  0  0  0  0  0
  188.9480  177.9120  141.9590 O   0  0  0  0  0  1  0  0  0  0  0  0
  186.7540  178.0130  144.2680 C   0  0  0  0  0  0  0  0  0  0  0  0
  187.6650  175.9890  142.5040 C   0  0  0  0  0  0  0  0  0  0  0  0
  185.8140  177.4790  143.2180 C   0  0  0  0  0  2  0  0  0  0  0  0
  188.0780  177.7990  144.1630 C   0  0  0  0  0  3  0  0  0  0  0  0
  186.3400  176.1990  142.6210 C   0  0  0  0  0  3  0  0  0  0  0  0
  188.6440  177.0290  142.9960 C   0  0  2  0  0  3  0  0  0  0  0  0
  185.1590  179.6160  144.9550 F   0  0  0  0  0  0  0  0  0  0  0  0
  186.1980  178.8180  145.4000 C   0  0  1  0  0  3  0  0  0  0  0  0
  185.7400  177.9680  146.4210 O   0  0  0  0  0  0  0  0  0  0  0  0
  185.8160  177.6680  148.7030 F   0  0  0  0  0  0  0  0  0  0  0  0
  186.1220  179.7100  147.8180 F   0  0  0  0  0  0  0  0  0  0  0  0
  186.3540  178.3610  147.6270 C   0  0  0  0  0  0  0  0  0  0  0  0
  187.7250  178.1550  147.5730 F   0  0  0  0  0  0  0  0  0  0  0  0
  190.4680  173.6560  138.3640 O   0  0  0  0  0  0  0  0  0  0  0  0
  191.5180  172.9250  137.7380 C   0  0  0  0  0  2  0  0  0  0  0  0
  192.6840  173.8280  137.3390 C   0  0  1  0  0  3  0  0  0  0  0  0
  194.1200  172.8220  139.6950 O   0  0  0  0  0  0  0  0  0  0  0  0
  194.2070  174.9260  140.6980 N   0  0  0  0  0  2  0  0  0  0  0  0
  193.1880  174.5970  138.4780 N   0  0  0  0  0  2  0  0  0  0  0  0
  193.8480  174.0520  139.6300 C   0  0  0  0  0  0  0  0  0  0  0  0
  194.8100  174.4350  141.9280 C   0  0  0  0  0  2  0  0  0  0  0  0
  192.7450  175.6130  145.7110 C   0  0  0  0  0  0  0  0  0  0  0  0
  192.2950  176.0220  144.3380 C   0  0  2  0  0  3  0  0  0  0  0  0
  193.0220  174.3380  145.9950 C   0  0  0  0  0  3  0  0  0  0  0  0
  193.3550  173.2990  143.7110 C   0  0  0  0  0  0  0  0  0  0  0  0
  193.3600  175.7610  143.3270 C   0  0  0  0  0  3  0  0  0  0  0  0
  193.0320  173.2310  145.0190 C   0  0  0  0  0  3  0  0  0  0  0  0
  192.8420  176.5540  146.7320 O   0  0  0  0  0  1  0  0  0  0  0  0
  193.8310  174.5430  143.0480 C   0  0  0  0  0  0  0  0  0  0  0  0
  191.8920  177.4850  144.2820 C   0  0  0  0  0  1  0  0  0  0  0  0
  193.4540  170.8250  143.4610 C   0  0  0  0  0  1  0  0  0  0  0  0
  193.3110  172.1370  142.9280 O   0  0  0  0  0  0  0  0  0  0  0  0
  193.7910  173.0760  136.6070 C   0  0  0  0  0  2  0  0  0  0  0  0
  194.8090  174.0390  136.0210 C   0  0  0  0  0  2  0  0  0  0  0  0
  195.9480  174.0620  136.8050 F   0  0  0  0  0  0  0  0  0  0  0  0
  2  8  1  0  0  0  0
  3 10  1  0  0  0  0
  4 13  1  1  0  0  0
  4  6  1  0  0  0  0
  5  9  1  0  0  0  0
  6  5  1  0  0  0  0
  7  3  1  0  0  0  0
  7  2  2  0  0  0  0
  8  1  1  0  0  0  0
  8  5  2  0  0  0  0
 10  4  1  0  0  0  0
 12 19  1  0  0  0  0
 13 16  2  0  0  0  0
 13 17  1  0  0  0  0
 14 12  1  0  0  0  0
 15 12  2  0  0  0  0
 16 14  1  0  0  0  0
 17 11  1  6  0  0  0
 17 15  1  0  0  0  0
 19 18  1  6  0  0  0
 19 20  1  0  0  0  0
 20 23  1  0  0  0  0
 23 22  1  0  0  0  0
 23 21  1  0  0  0  0
 24 23  1  0  0  0  0
 25  7  1  0  0  0  0
 26 25  1  0  0  0  0
 27 44  1  1  0  0  0
 27 26  1  0  0  0  0
 27 30  1  0  0  0  0
 29 32  1  0  0  0  0
 30 31  1  0  0  0  0
 31 28  2  0  0  0  0
 31 29  1  0  0  0  0
 32 40  1  0  0  0  0
 33 35  2  0  0  0  0
 33 39  1  0  0  0  0
 34 41  1  1  0  0  0
 34 33  1  0  0  0  0
 36 38  2  0  0  0  0
 37 34  1  0  0  0  0
 38 35  1  0  0  0  0
 40 37  2  0  0  0  0
 40 36  1  0  0  0  0
 43 42  1  0  0  0  0
 43 36  1  0  0  0  0
 45 44  1  0  0  0  0
 45 46  1  0  0  0  0
M  END
>  <MODEL>
6

>  <REMARK>
 VINA RESULT:      -7.1      2.574      5.920
  Name = 
  13 active torsions:
  status: ('A' for Active; 'I' for Inactive)
    1  A    between atoms: C_2  and  C_5
    2  A    between atoms: C_2  and  C_8
    3  A    between atoms: C_5  and  N_31
    4  A    between atoms: C_5  and  C_37
    5  A    between atoms: C_6  and  C_17
    6  A    between atoms: O_11  and  C_28
    7  A    between atoms: C_16  and  C_45
    8  A    between atoms: C_18  and  O_43
    9  A    between atoms: O_21  and  C_36
   10  A    between atoms: O_21  and  C_37
   11  A    between atoms: C_25  and  N_27
   12  A    between atoms: C_25  and  C_40
   13  A    between atoms: O_43  and  C_45
                            x       y       z     vdW  Elec       q    Type
                         _______ _______ _______ _____ _____    ______ ____

>  <TORSDO>
F 13

$$$$
=
 OpenBabel11042415403D

 46 48  0  0  1  0  0  0  0  0999 V2000
  188.7380  178.0260  147.5120 O   0  0  0  0  0  1  0  0  0  0  0  0
  188.8860  177.3180  145.1700 C   0  0  0  0  0  3  0  0  0  0  0  0
  190.9580  178.1670  144.1110 C   0  0  0  0  0  2  0  0  0  0  0  0
  192.3860  176.6360  145.1920 C   0  0  2  0  0  3  0  0  0  0  0  0
  190.5720  176.6890  146.8880 C   0  0  0  0  0  0  0  0  0  0  0  0
  191.3370  175.8200  145.9410 C   0  0  0  0  0  2  0  0  0  0  0  0
  189.5420  177.6660  144.0590 C   0  0  0  0  0  0  0  0  0  0  0  0
  189.4470  177.3330  146.5380 C   0  0  0  0  0  0  0  0  0  0  0  0
  191.0520  176.8130  148.1870 O   0  0  0  0  0  1  0  0  0  0  0  0
  191.8750  177.0590  143.8930 N   0  0  0  0  0  2  0  0  0  0  0  0
  194.8470  176.4190  143.0490 O   0  0  0  0  0  1  0  0  0  0  0  0
  195.5850  173.7970  144.7030 C   0  0  0  0  0  0  0  0  0  0  0  0
  193.6460  175.8420  145.0150 C   0  0  0  0  0  0  0  0  0  0  0  0
  195.6860  174.7290  145.8840 C   0  0  0  0  0  2  0  0  0  0  0  0
  194.8190  174.1240  143.6470 C   0  0  0  0  0  3  0  0  0  0  0  0
  194.4070  175.5040  146.0730 C   0  0  0  0  0  3  0  0  0  0  0  0
  194.0540  175.4240  143.6210 C   0  0  2  0  0  3  0  0  0  0  0  0
  197.7320  172.8130  144.6190 F   0  0  0  0  0  0  0  0  0  0  0  0
  196.3800  172.5300  144.7070 C   0  0  1  0  0  3  0  0  0  0  0  0
  196.1230  171.7990  145.8790 O   0  0  0  0  0  0  0  0  0  0  0  0
  195.1640  169.7680  146.3880 F   0  0  0  0  0  0  0  0  0  0  0  0
  195.0910  170.5600  144.2870 F   0  0  0  0  0  0  0  0  0  0  0  0
  195.0530  170.9200  145.6210 C   0  0  0  0  0  0  0  0  0  0  0  0
  193.8350  171.5360  145.8730 F   0  0  0  0  0  0  0  0  0  0  0  0
  188.8750  177.5530  142.8340 O   0  0  0  0  0  0  0  0  0  0  0  0
  187.5960  178.1320  142.5960 C   0  0  0  0  0  2  0  0  0  0  0  0
  186.5690  177.0880  142.1610 C   0  0  1  0  0  3  0  0  0  0  0  0
  188.1600  175.3160  140.4420 O   0  0  0  0  0  0  0  0  0  0  0  0
  188.0600  173.5460  141.9590 N   0  0  0  0  0  2  0  0  0  0  0  0
  187.0220  175.7270  142.4520 N   0  0  0  0  0  2  0  0  0  0  0  0
  187.7630  174.8830  141.5590 C   0  0  0  0  0  0  0  0  0  0  0  0
  188.7410  172.6110  141.0770 C   0  0  0  0  0  2  0  0  0  0  0  0
  193.1620  171.9730  140.9600 C   0  0  0  0  0  0  0  0  0  0  0  0
  192.5020  173.3220  140.9950 C   0  0  2  0  0  3  0  0  0  0  0  0
  192.8210  171.0150  141.8240 C   0  0  0  0  0  3  0  0  0  0  0  0
  190.5680  171.7880  142.6810 C   0  0  0  0  0  0  0  0  0  0  0  0
  191.0460  173.2110  140.6920 C   0  0  0  0  0  3  0  0  0  0  0  0
  191.7250  171.1070  142.8080 C   0  0  0  0  0  3  0  0  0  0  0  0
  194.1790  171.7090  140.0470 O   0  0  0  0  0  1  0  0  0  0  0  0
  190.1840  172.5260  141.4470 C   0  0  0  0  0  0  0  0  0  0  0  0
  193.1470  174.2990  140.0290 C   0  0  0  0  0  1  0  0  0  0  0  0
  189.8410  172.3970  144.9810 C   0  0  0  0  0  1  0  0  0  0  0  0
  189.6330  171.7620  143.7250 O   0  0  0  0  0  0  0  0  0  0  0  0
  185.1730  177.3670  142.7100 C   0  0  0  0  0  2  0  0  0  0  0  0
  185.2430  177.9120  144.1270 C   0  0  0  0  0  2  0  0  0  0  0  0
  185.4360  176.8780  145.0240 F   0  0  0  0  0  0  0  0  0  0  0  0
  2  8  1  0  0  0  0
  4 13  1  6  0  0  0
  4  6  1  0  0  0  0
  5  9  1  0  0  0  0
  6  5  1  0  0  0  0
  7  3  1  0  0  0  0
  7  2  2  0  0  0  0
  8  5  2  0  0  0  0
  8  1  1  0  0  0  0
 10  3  1  0  0  0  0
 10  4  1  0  0  0  0
 12 19  1  0  0  0  0
 12 14  1  0  0  0  0
 13 16  2  0  0  0  0
 14 16  1  0  0  0  0
 15 12  2  0  0  0  0
 17 11  1  1  0  0  0
 17 15  1  0  0  0  0
 17 13  1  0  0  0  0
 19 18  1  1  0  0  0
 19 20  1  0  0  0  0
 22 23  1  0  0  0  0
 23 24  1  0  0  0  0
 23 20  1  0  0  0  0
 23 21  1  0  0  0  0
 25  7  1  0  0  0  0
 26 25  1  0  0  0  0
 27 30  1  0  0  0  0
 27 26  1  1  0  0  0
 27 44  1  0  0  0  0
 28 31  2  0  0  0  0
 31 29  1  0  0  0  0
 31 30  1  0  0  0  0
 32 40  1  0  0  0  0
 32 29  1  0  0  0  0
 33 34  1  0  0  0  0
 33 35  2  0  0  0  0
 34 41  1  6  0  0  0
 35 38  1  0  0  0  0
 36 38  2  0  0  0  0
 36 43  1  0  0  0  0
 37 34  1  0  0  0  0
 37 40  2  0  0  0  0
 39 33  1  0  0  0  0
 40 36  1  0  0  0  0
 43 42  1  0  0  0  0
 44 45  1  0  0  0  0
 45 46  1  0  0  0  0
M  END
>  <MODEL>
7

>  <REMARK>
 VINA RESULT:      -7.1      3.638      7.950
  Name = 
  13 active torsions:
  status: ('A' for Active; 'I' for Inactive)
    1  A    between atoms: C_2  and  C_5
    2  A    between atoms: C_2  and  C_8
    3  A    between atoms: C_5  and  N_31
    4  A    between atoms: C_5  and  C_37
    5  A    between atoms: C_6  and  C_17
    6  A    between atoms: O_11  and  C_28
    7  A    between atoms: C_16  and  C_45
    8  A    between atoms: C_18  and  O_43
    9  A    between atoms: O_21  and  C_36
   10  A    between atoms: O_21  and  C_37
   11  A    between atoms: C_25  and  N_27
   12  A    between atoms: C_25  and  C_40
   13  A    between atoms: O_43  and  C_45
                            x       y       z     vdW  Elec       q    Type
                         _______ _______ _______ _____ _____    ______ ____

>  <TORSDO>
F 13

$$$$
=
 OpenBabel11042415403D

 46 48  0  0  1  0  0  0  0  0999 V2000
  197.3030  175.3440  138.9980 O   0  0  0  0  0  1  0  0  0  0  0  0
  194.9180  174.7810  139.0070 C   0  0  0  0  0  3  0  0  0  0  0  0
  194.4080  173.0830  140.7370 C   0  0  0  0  0  2  0  0  0  0  0  0
  194.5800  174.5780  142.5500 C   0  0  2  0  0  3  0  0  0  0  0  0
  196.0890  175.7600  140.9710 C   0  0  0  0  0  0  0  0  0  0  0  0
  194.8310  175.8660  141.7730 C   0  0  0  0  0  2  0  0  0  0  0  0
  194.1220  173.8020  139.4490 C   0  0  0  0  0  0  0  0  0  0  0  0
  196.1100  175.3010  139.7090 C   0  0  0  0  0  0  0  0  0  0  0  0
  197.2750  176.1730  141.5660 O   0  0  0  0  0  1  0  0  0  0  0  0
  193.6640  173.7090  141.8190 N   0  0  0  0  0  2  0  0  0  0  0  0
  194.7030  173.3170  145.5660 O   0  0  0  0  0  1  0  0  0  0  0  0
  192.3630  175.4020  146.1470 C   0  0  0  0  0  0  0  0  0  0  0  0
  194.0250  174.8800  143.9100 C   0  0  0  0  0  0  0  0  0  0  0  0
  193.3630  176.4440  145.7190 C   0  0  0  0  0  2  0  0  0  0  0  0
  192.4800  174.1330  145.7140 C   0  0  0  0  0  3  0  0  0  0  0  0
  193.8950  176.1500  144.3400 C   0  0  0  0  0  3  0  0  0  0  0  0
  193.6120  173.7320  144.8010 C   0  0  2  0  0  3  0  0  0  0  0  0
  191.6550  176.8760  147.8530 F   0  0  0  0  0  0  0  0  0  0  0  0
  191.2680  175.7880  147.0910 C   0  0  1  0  0  3  0  0  0  0  0  0
  190.0990  176.1000  146.3760 O   0  0  0  0  0  0  0  0  0  0  0  0
  187.8920  175.8090  146.9640 F   0  0  0  0  0  0  0  0  0  0  0  0
  189.4900  174.5450  147.9080 F   0  0  0  0  0  0  0  0  0  0  0  0
  189.1030  175.1710  146.7380 C   0  0  0  0  0  0  0  0  0  0  0  0
  188.9490  174.2040  145.7550 F   0  0  0  0  0  0  0  0  0  0  0  0
  193.0060  173.4580  138.6780 O   0  0  0  0  0  0  0  0  0  0  0  0
  193.0040  172.3610  137.7700 C   0  0  0  0  0  2  0  0  0  0  0  0
  191.5990  171.8000  137.5560 C   0  0  1  0  0  3  0  0  0  0  0  0
  190.3310  171.4550  140.1830 O   0  0  0  0  0  0  0  0  0  0  0  0
  188.9130  173.2830  139.8790 N   0  0  0  0  0  2  0  0  0  0  0  0
  190.5770  172.6450  138.1770 N   0  0  0  0  0  2  0  0  0  0  0  0
  189.9560  172.4100  139.4480 C   0  0  0  0  0  0  0  0  0  0  0  0
  188.1860  173.0630  141.1200 C   0  0  0  0  0  2  0  0  0  0  0  0
  188.4880  177.1070  142.9960 C   0  0  0  0  0  0  0  0  0  0  0  0
  187.5010  176.0530  143.4110 C   0  0  2  0  0  3  0  0  0  0  0  0
  189.7860  176.8230  142.8650 C   0  0  0  0  0  3  0  0  0  0  0  0
  189.8090  174.2990  142.6780 C   0  0  0  0  0  0  0  0  0  0  0  0
  187.4240  174.9650  142.3930 C   0  0  0  0  0  3  0  0  0  0  0  0
  190.3810  175.4790  142.9930 C   0  0  0  0  0  3  0  0  0  0  0  0
  188.0720  178.4170  142.7810 O   0  0  0  0  0  1  0  0  0  0  0  0
  188.4560  174.1830  142.0690 C   0  0  0  0  0  0  0  0  0  0  0  0
  186.1160  176.6280  143.6430 C   0  0  0  0  0  1  0  0  0  0  0  0
  190.0760  172.0390  143.6830 C   0  0  0  0  0  1  0  0  0  0  0  0
  190.5290  173.1110  142.8640 O   0  0  0  0  0  0  0  0  0  0  0  0
  191.2980  171.5010  136.0910 C   0  0  0  0  0  2  0  0  0  0  0  0
  189.9900  172.1430  135.6610 C   0  0  0  0  0  2  0  0  0  0  0  0
  188.9730  171.2060  135.6760 F   0  0  0  0  0  0  0  0  0  0  0  0
  1  8  1  0  0  0  0
  2  7  2  0  0  0  0
  2  8  1  0  0  0  0
  3 10  1  0  0  0  0
  4 13  1  1  0  0  0
  5  9  1  0  0  0  0
  5  6  1  0  0  0  0
  6  4  1  0  0  0  0
  7  3  1  0  0  0  0
  8  5  2  0  0  0  0
 10  4  1  0  0  0  0
 12 19  1  0  0  0  0
 13 16  2  0  0  0  0
 13 17  1  0  0  0  0
 14 12  1  0  0  0  0
 15 12  2  0  0  0  0
 16 14  1  0  0  0  0
 17 11  1  1  0  0  0
 17 15  1  0  0  0  0
 19 18  1  6  0  0  0
 20 23  1  0  0  0  0
 20 19  1  0  0  0  0
 23 21  1  0  0  0  0
 23 22  1  0  0  0  0
 24 23  1  0  0  0  0
 25  7  1  0  0  0  0
 26 25  1  0  0  0  0
 27 44  1  6  0  0  0
 27 26  1  0  0  0  0
 27 30  1  0  0  0  0
 29 32  1  0  0  0  0
 30 31  1  0  0  0  0
 31 29  1  0  0  0  0
 31 28  2  0  0  0  0
 32 40  1  0  0  0  0
 33 34  1  0  0  0  0
 34 41  1  6  0  0  0
 35 38  1  0  0  0  0
 35 33  2  0  0  0  0
 36 43  1  0  0  0  0
 36 38  2  0  0  0  0
 37 34  1  0  0  0  0
 39 33  1  0  0  0  0
 40 37  2  0  0  0  0
 40 36  1  0  0  0  0
 43 42  1  0  0  0  0
 45 46  1  0  0  0  0
 45 44  1  0  0  0  0
M  END
>  <MODEL>
8

>  <REMARK>
 VINA RESULT:      -7.1      2.658      4.233
  Name = 
  13 active torsions:
  status: ('A' for Active; 'I' for Inactive)
    1  A    between atoms: C_2  and  C_5
    2  A    between atoms: C_2  and  C_8
    3  A    between atoms: C_5  and  N_31
    4  A    between atoms: C_5  and  C_37
    5  A    between atoms: C_6  and  C_17
    6  A    between atoms: O_11  and  C_28
    7  A    between atoms: C_16  and  C_45
    8  A    between atoms: C_18  and  O_43
    9  A    between atoms: O_21  and  C_36
   10  A    between atoms: O_21  and  C_37
   11  A    between atoms: C_25  and  N_27
   12  A    between atoms: C_25  and  C_40
   13  A    between atoms: O_43  and  C_45
                            x       y       z     vdW  Elec       q    Type
                         _______ _______ _______ _____ _____    ______ ____

>  <TORSDO>
F 13

$$$$
=
 OpenBabel11042415403D

 46 48  0  0  1  0  0  0  0  0999 V2000
  196.2580  174.8940  145.2900 O   0  0  0  0  0  1  0  0  0  0  0  0
  195.5330  175.9960  143.2240 C   0  0  0  0  0  3  0  0  0  0  0  0
  193.4570  174.9700  142.3460 C   0  0  0  0  0  2  0  0  0  0  0  0
  192.0450  175.9460  143.9610 C   0  0  2  0  0  3  0  0  0  0  0  0
  194.1450  175.9310  145.2870 C   0  0  0  0  0  0  0  0  0  0  0  0
  193.0760  176.7950  144.6970 C   0  0  0  0  0  2  0  0  0  0  0  0
  194.7340  175.7450  142.1830 C   0  0  0  0  0  0  0  0  0  0  0  0
  195.2670  175.6050  144.6250 C   0  0  0  0  0  0  0  0  0  0  0  0
  193.9600  175.4660  146.5840 O   0  0  0  0  0  1  0  0  0  0  0  0
  192.3480  175.8920  142.5350 N   0  0  0  0  0  2  0  0  0  0  0  0
  190.1840  176.9660  146.4490 O   0  0  0  0  0  1  0  0  0  0  0  0
  187.8630  176.9190  144.2660 C   0  0  0  0  0  0  0  0  0  0  0  0
  190.6640  176.4910  144.1720 C   0  0  0  0  0  0  0  0  0  0  0  0
  188.7290  177.8980  143.5150 C   0  0  0  0  0  2  0  0  0  0  0  0
  188.4140  176.0680  145.1500 C   0  0  0  0  0  3  0  0  0  0  0  0
  190.1060  177.3330  143.2820 C   0  0  0  0  0  3  0  0  0  0  0  0
  189.9000  176.0800  145.4090 C   0  0  2  0  0  3  0  0  0  0  0  0
  186.0140  175.9130  143.1920 F   0  0  0  0  0  0  0  0  0  0  0  0
  186.3830  176.9380  144.0450 C   0  0  1  0  0  3  0  0  0  0  0  0
  185.7070  176.8050  145.2690 O   0  0  0  0  0  0  0  0  0  0  0  0
  185.7070  179.0560  145.7550 F   0  0  0  0  0  0  0  0  0  0  0  0
  184.0660  177.7310  146.5280 F   0  0  0  0  0  0  0  0  0  0  0  0
  184.9150  177.9550  145.4600 C   0  0  0  0  0  0  0  0  0  0  0  0
  184.1450  178.2170  144.3360 F   0  0  0  0  0  0  0  0  0  0  0  0
  195.1160  176.2240  140.9250 O   0  0  0  0  0  0  0  0  0  0  0  0
  196.4320  176.0610  140.4050 C   0  0  0  0  0  2  0  0  0  0  0  0
  196.4930  174.9710  139.3370 C   0  0  1  0  0  3  0  0  0  0  0  0
  194.8880  172.6260  140.0790 O   0  0  0  0  0  0  0  0  0  0  0  0
  193.1730  173.1720  138.5950 N   0  0  0  0  0  2  0  0  0  0  0  0
  195.1590  174.6090  138.8550 N   0  0  0  0  0  2  0  0  0  0  0  0
  194.4320  173.4260  139.2160 C   0  0  0  0  0  0  0  0  0  0  0  0
  192.4150  171.9580  138.8550 C   0  0  0  0  0  2  0  0  0  0  0  0
  189.0510  174.1600  140.8040 C   0  0  0  0  0  0  0  0  0  0  0  0
  188.9240  173.3760  139.5290 C   0  0  2  0  0  3  0  0  0  0  0  0
  189.6280  173.6300  141.8850 C   0  0  0  0  0  3  0  0  0  0  0  0
  190.9450  171.6860  140.9410 C   0  0  0  0  0  0  0  0  0  0  0  0
  190.2660  173.0480  138.9680 C   0  0  0  0  0  3  0  0  0  0  0  0
  190.2870  172.3110  141.9380 C   0  0  0  0  0  3  0  0  0  0  0  0
  188.5290  175.4470  140.8960 O   0  0  0  0  0  1  0  0  0  0  0  0
  191.1670  172.2920  139.6000 C   0  0  0  0  0  0  0  0  0  0  0  0
  188.1050  174.1130  138.4850 C   0  0  0  0  0  1  0  0  0  0  0  0
  190.8190  169.2010  140.9750 C   0  0  0  0  0  1  0  0  0  0  0  0
  191.5150  170.4260  141.1730 O   0  0  0  0  0  0  0  0  0  0  0  0
  197.4520  175.3110  138.1990 C   0  0  0  0  0  2  0  0  0  0  0  0
  196.6940  175.5920  136.9130 C   0  0  0  0  0  2  0  0  0  0  0  0
  197.4380  176.4210  136.0940 F   0  0  0  0  0  0  0  0  0  0  0  0
  2  8  1  0  0  0  0
  3 10  1  0  0  0  0
  4 13  1  6  0  0  0
  4  6  1  0  0  0  0
  5  9  1  0  0  0  0
  6  5  1  0  0  0  0
  7  3  1  0  0  0  0
  7  2  2  0  0  0  0
  8  5  2  0  0  0  0
  8  1  1  0  0  0  0
 10  4  1  0  0  0  0
 12 15  2  0  0  0  0
 13 17  1  0  0  0  0
 14 12  1  0  0  0  0
 15 17  1  0  0  0  0
 16 14  1  0  0  0  0
 16 13  2  0  0  0  0
 17 11  1  1  0  0  0
 19 18  1  6  0  0  0
 19 12  1  0  0  0  0
 19 20  1  0  0  0  0
 20 23  1  0  0  0  0
 23 21  1  0  0  0  0
 23 22  1  0  0  0  0
 24 23  1  0  0  0  0
 25  7  1  0  0  0  0
 26 25  1  0  0  0  0
 27 44  1  6  0  0  0
 27 26  1  0  0  0  0
 29 32  1  0  0  0  0
 29 31  1  0  0  0  0
 30 31  1  0  0  0  0
 30 27  1  0  0  0  0
 31 28  2  0  0  0  0
 32 40  1  0  0  0  0
 33 39  1  0  0  0  0
 33 35  2  0  0  0  0
 34 41  1  6  0  0  0
 34 33  1  0  0  0  0
 35 38  1  0  0  0  0
 36 43  1  0  0  0  0
 36 38  2  0  0  0  0
 37 34  1  0  0  0  0
 37 40  2  0  0  0  0
 40 36  1  0  0  0  0
 42 43  1  0  0  0  0
 45 44  1  0  0  0  0
 46 45  1  0  0  0  0
M  END
>  <MODEL>
9

>  <REMARK>
 VINA RESULT:      -7.0      2.990      5.331
  Name = 
  13 active torsions:
  status: ('A' for Active; 'I' for Inactive)
    1  A    between atoms: C_2  and  C_5
    2  A    between atoms: C_2  and  C_8
    3  A    between atoms: C_5  and  N_31
    4  A    between atoms: C_5  and  C_37
    5  A    between atoms: C_6  and  C_17
    6  A    between atoms: O_11  and  C_28
    7  A    between atoms: C_16  and  C_45
    8  A    between atoms: C_18  and  O_43
    9  A    between atoms: O_21  and  C_36
   10  A    between atoms: O_21  and  C_37
   11  A    between atoms: C_25  and  N_27
   12  A    between atoms: C_25  and  C_40
   13  A    between atoms: O_43  and  C_45
                            x       y       z     vdW  Elec       q    Type
                         _______ _______ _______ _____ _____    ______ ____

>  <TORSDO>
F 13

$$$$
