=
 OpenBabel11042416553D

 35 39  0  0  1  0  0  0  0  0999 V2000
  185.3340  178.0440  141.0110 N   0  0  0  0  0  0  0  0  0  0  0  0
  188.5690  177.9830  143.3560 C   0  0  0  0  0  2  0  0  0  0  0  0
  188.9130  174.2410  147.6670 N   0  0  0  0  0  1  0  0  0  0  0  0
  186.6980  176.5680  142.4020 C   0  0  2  0  0  3  0  0  0  0  0  0
  187.1050  176.8600  146.1970 C   0  0  0  0  0  3  0  0  0  0  0  0
  185.0750  178.2380  143.3590 N   0  0  0  0  0  2  0  0  0  0  0  0
  185.9750  177.5300  139.8360 C   0  0  0  0  0  3  0  0  0  0  0  0
  192.6110  176.1950  146.9910 N   0  0  0  0  0  0  0  0  0  0  0  0
  190.5370  175.8140  146.6120 C   0  0  0  0  0  0  0  0  0  0  0  0
  187.4980  176.3660  141.1960 N   0  0  0  0  0  2  0  0  0  0  0  0
  192.3450  176.6730  145.8090 O   0  0  0  0  0  0  0  0  0  0  0  0
  191.0850  176.4560  145.5190 C   0  0  0  0  0  0  0  0  0  0  0  0
  185.6830  177.6610  142.2010 C   0  0  0  0  0  0  0  0  0  0  0  0
  187.0080  176.7490  139.9370 N   0  0  0  0  0  0  0  0  0  0  0  0
  189.1530  175.3550  146.8160 C   0  0  0  0  0  0  0  0  0  0  0  0
  191.5220  175.6500  147.5150 N   0  0  0  0  0  0  0  0  0  0  0  0
  185.5580  177.9010  144.6660 C   0  0  0  0  0  3  0  0  0  0  0  0
  187.5630  176.8590  143.6360 C   0  0  2  0  0  3  0  0  0  0  0  0
  189.6330  178.0150  144.3570 N   0  0  0  0  0  2  0  0  0  0  0  0
  186.6960  177.2080  144.8300 C   0  0  0  0  0  0  0  0  0  0  0  0
  190.4190  176.7970  144.2240 C   0  0  1  0  0  3  0  0  0  0  0  0
  188.1410  176.1100  146.4760 C   0  0  0  0  0  0  0  0  0  0  0  0
  191.4240  176.9180  143.0820 C   0  0  0  0  0  2  0  0  0  0  0  0
  191.7220  175.5470  142.4930 C   0  0  0  0  0  2  0  0  0  0  0  0
  190.5520  174.9880  141.9720 O   0  0  0  0  0  0  0  0  0  0  0  0
  189.4100  173.1080  140.0650 C   0  0  1  0  0  3  0  0  0  0  0  0
  190.6880  173.6100  142.1720 C   0  0  1  0  0  3  0  0  0  0  0  0
  188.2380  172.9650  142.2700 C   0  0  0  0  0  3  0  0  0  0  0  0
  189.5360  173.0740  143.0300 C   0  0  0  0  0  2  0  0  0  0  0  0
  188.1850  172.9340  140.9300 C   0  0  0  0  0  3  0  0  0  0  0  0
  190.7170  172.8780  140.8300 C   0  0  0  0  0  2  0  0  0  0  0  0
  189.8710  170.9200  138.9080 N   0  0  0  0  0  2  0  0  0  0  0  0
  189.8170  170.0180  137.7690 C   0  0  0  0  0  1  0  0  0  0  0  0
  189.3320  172.2420  138.8540 C   0  0  0  0  0  0  0  0  0  0  0  0
  188.8010  172.6740  137.7950 O   0  0  0  0  0  0  0  0  0  0  0  0
  1 13  2  0  0  0  0
  2 19  1  0  0  0  0
  4 10  1  6  0  0  0
  4 18  1  0  0  0  0
  5 22  2  0  0  0  0
  6 17  1  0  0  0  0
  7 14  2  0  0  0  0
  7  1  1  0  0  0  0
  8 16  2  0  0  0  0
  9 15  1  0  0  0  0
  9 16  1  0  0  0  0
 11  8  1  0  0  0  0
 12 11  1  0  0  0  0
 12  9  2  0  0  0  0
 13  4  1  0  0  0  0
 13  6  1  0  0  0  0
 14 10  1  0  0  0  0
 15  3  1  0  0  0  0
 17 20  2  0  0  0  0
 18  2  1  6  0  0  0
 18 20  1  0  0  0  0
 20  5  1  0  0  0  0
 21 23  1  6  0  0  0
 21 19  1  0  0  0  0
 21 12  1  0  0  0  0
 22 15  2  0  0  0  0
 24 23  1  0  0  0  0
 25 24  1  0  0  0  0
 26 34  1  6  0  0  0
 26 31  1  0  0  0  0
 26 30  1  0  0  0  0
 27 25  1  6  0  0  0
 27 29  1  0  0  0  0
 28 29  1  0  0  0  0
 30 28  2  0  0  0  0
 31 27  1  0  0  0  0
 33 32  1  0  0  0  0
 34 32  1  0  0  0  0
 35 34  2  0  0  0  0
M  END
>  <MODEL>
1

>  <REMARK>
 VINA RESULT:      -8.1      0.000      0.000
  Name = 
  5 active torsions:
  status: ('A' for Active; 'I' for Inactive)
    1  A    between atoms: C_2  and  C_22
    2  A    between atoms: C_6  and  O_20
    3  A    between atoms: C_18  and  O_20
    4  A    between atoms: C_18  and  C_24
    5  A    between atoms: C_24  and  C_34
                            x       y       z     vdW  Elec       q    Type
                         _______ _______ _______ _____ _____    ______ ____

>  <TORSDO>
F 5

$$$$
=
 OpenBabel11042416553D

 35 39  0  0  1  0  0  0  0  0999 V2000
  189.7010  172.0520  140.1950 N   0  0  0  0  0  0  0  0  0  0  0  0
  189.9100  173.5800  143.8820 C   0  0  0  0  0  2  0  0  0  0  0  0
  194.4080  176.7620  145.4130 N   0  0  0  0  0  1  0  0  0  0  0  0
  190.6010  173.9330  141.4700 C   0  0  2  0  0  3  0  0  0  0  0  0
  193.2820  173.6760  144.1920 C   0  0  0  0  0  3  0  0  0  0  0  0
  191.6160  171.6290  141.5250 N   0  0  0  0  0  2  0  0  0  0  0  0
  188.6220  172.8790  139.7370 C   0  0  0  0  0  3  0  0  0  0  0  0
  191.3110  176.9360  148.3000 N   0  0  0  0  0  0  0  0  0  0  0  0
  192.2060  176.2590  146.4750 C   0  0  0  0  0  0  0  0  0  0  0  0
  189.3100  174.5700  141.2190 N   0  0  0  0  0  2  0  0  0  0  0  0
  190.3530  176.4540  147.5610 O   0  0  0  0  0  0  0  0  0  0  0  0
  190.8450  176.0330  146.4200 C   0  0  0  0  0  0  0  0  0  0  0  0
  190.5900  172.4930  141.0320 C   0  0  0  0  0  0  0  0  0  0  0  0
  188.4390  174.0620  140.2410 N   0  0  0  0  0  0  0  0  0  0  0  0
  193.2330  175.9610  145.4630 C   0  0  0  0  0  0  0  0  0  0  0  0
  192.4680  176.8400  147.6610 N   0  0  0  0  0  0  0  0  0  0  0  0
  192.5130  172.0900  142.5440 C   0  0  0  0  0  3  0  0  0  0  0  0
  191.0300  174.0420  142.9400 C   0  0  2  0  0  3  0  0  0  0  0  0
  190.1420  174.0250  145.2540 N   0  0  0  0  0  2  0  0  0  0  0  0
  192.2950  173.2450  143.1920 C   0  0  0  0  0  0  0  0  0  0  0  0
  190.0500  175.4780  145.2820 C   0  0  1  0  0  3  0  0  0  0  0  0
  193.2260  174.8230  144.8180 C   0  0  0  0  0  0  0  0  0  0  0  0
  188.5940  175.9320  145.3290 C   0  0  0  0  0  2  0  0  0  0  0  0
  188.4250  177.2420  144.5740 C   0  0  0  0  0  2  0  0  0  0  0  0
  187.3020  177.9250  145.0510 O   0  0  0  0  0  0  0  0  0  0  0  0
  185.1500  178.3280  143.1340 C   0  0  1  0  0  3  0  0  0  0  0  0
  186.2530  177.0040  144.9640 C   0  0  1  0  0  3  0  0  0  0  0  0
  184.3090  178.5470  145.4790 C   0  0  0  0  0  3  0  0  0  0  0  0
  185.1320  177.3720  145.9430 C   0  0  0  0  0  2  0  0  0  0  0  0
  184.2810  178.9500  144.2000 C   0  0  0  0  0  3  0  0  0  0  0  0
  185.7010  176.9570  143.5390 C   0  0  0  0  0  2  0  0  0  0  0  0
  182.9970  178.1820  141.8350 N   0  0  0  0  0  2  0  0  0  0  0  0
  182.2270  178.1210  140.6040 C   0  0  0  0  0  1  0  0  0  0  0  0
  184.4240  178.2550  141.8340 C   0  0  0  0  0  0  0  0  0  0  0  0
  185.0630  178.2540  140.7460 O   0  0  0  0  0  0  0  0  0  0  0  0
  1 13  2  0  0  0  0
  2 19  1  0  0  0  0
  3 15  1  0  0  0  0
  4 13  1  1  0  0  0
  4 18  1  0  0  0  0
  5 22  2  0  0  0  0
  6 17  1  0  0  0  0
  7  1  1  0  0  0  0
  7 14  2  0  0  0  0
  9 16  1  0  0  0  0
 10  4  1  0  0  0  0
 11  8  1  0  0  0  0
 12  9  2  0  0  0  0
 12 11  1  0  0  0  0
 13  6  1  0  0  0  0
 14 10  1  0  0  0  0
 15  9  1  0  0  0  0
 16  8  2  0  0  0  0
 17 20  2  0  0  0  0
 18 20  1  0  0  0  0
 18  2  1  1  0  0  0
 19 21  1  0  0  0  0
 20  5  1  0  0  0  0
 21 23  1  1  0  0  0
 21 12  1  0  0  0  0
 22 15  2  0  0  0  0
 24 25  1  0  0  0  0
 24 23  1  0  0  0  0
 26 34  1  6  0  0  0
 26 31  1  0  0  0  0
 26 30  1  0  0  0  0
 27 25  1  6  0  0  0
 27 29  1  0  0  0  0
 28 29  1  0  0  0  0
 30 28  2  0  0  0  0
 31 27  1  0  0  0  0
 33 32  1  0  0  0  0
 34 32  1  0  0  0  0
 35 34  2  0  0  0  0
M  END
>  <MODEL>
2

>  <REMARK>
 VINA RESULT:      -7.9      2.465      6.224
  Name = 
  5 active torsions:
  status: ('A' for Active; 'I' for Inactive)
    1  A    between atoms: C_2  and  C_22
    2  A    between atoms: C_6  and  O_20
    3  A    between atoms: C_18  and  O_20
    4  A    between atoms: C_18  and  C_24
    5  A    between atoms: C_24  and  C_34
                            x       y       z     vdW  Elec       q    Type
                         _______ _______ _______ _____ _____    ______ ____

>  <TORSDO>
F 5

$$$$
=
 OpenBabel11042416553D

 35 39  0  0  1  0  0  0  0  0999 V2000
  196.7910  175.0510  141.3940 N   0  0  0  0  0  0  0  0  0  0  0  0
  193.6110  173.9870  143.5670 C   0  0  0  0  0  2  0  0  0  0  0  0
  191.9350  177.2290  147.9700 N   0  0  0  0  0  1  0  0  0  0  0  0
  194.9780  175.9600  142.7570 C   0  0  2  0  0  3  0  0  0  0  0  0
  194.5320  175.3790  146.5150 C   0  0  0  0  0  3  0  0  0  0  0  0
  197.0040  174.8390  143.7450 N   0  0  0  0  0  2  0  0  0  0  0  0
  196.0680  175.3930  140.2040 C   0  0  0  0  0  3  0  0  0  0  0  0
  189.0700  174.2490  147.0400 N   0  0  0  0  0  0  0  0  0  0  0  0
  190.9320  175.2770  146.7820 C   0  0  0  0  0  0  0  0  0  0  0  0
  194.2030  175.9570  141.5180 N   0  0  0  0  0  2  0  0  0  0  0  0
  189.5200  173.9330  145.8590 O   0  0  0  0  0  0  0  0  0  0  0  0
  190.6580  174.5470  145.6420 C   0  0  0  0  0  0  0  0  0  0  0  0
  196.2920  175.2500  142.5760 C   0  0  0  0  0  0  0  0  0  0  0  0
  194.8390  175.8050  140.2750 N   0  0  0  0  0  0  0  0  0  0  0  0
  192.0920  176.1360  147.0730 C   0  0  0  0  0  0  0  0  0  0  0  0
  189.9100  175.0820  147.6380 N   0  0  0  0  0  0  0  0  0  0  0  0
  196.3880  174.9470  145.0350 C   0  0  0  0  0  3  0  0  0  0  0  0
  194.2000  175.3550  143.9350 C   0  0  2  0  0  3  0  0  0  0  0  0
  192.5720  173.5770  144.5100 N   0  0  0  0  0  2  0  0  0  0  0  0
  195.0840  175.2400  145.1610 C   0  0  0  0  0  0  0  0  0  0  0  0
  191.4490  174.4930  144.3740 C   0  0  1  0  0  3  0  0  0  0  0  0
  193.3030  175.7530  146.7620 C   0  0  0  0  0  0  0  0  0  0  0  0
  190.5790  174.1160  143.1770 C   0  0  0  0  0  2  0  0  0  0  0  0
  190.2700  175.3490  142.3400 C   0  0  0  0  0  2  0  0  0  0  0  0
  188.9380  175.7280  142.5270 O   0  0  0  0  0  0  0  0  0  0  0  0
  186.9590  176.8240  144.3580 C   0  0  1  0  0  3  0  0  0  0  0  0
  188.9930  177.0750  142.9010 C   0  0  1  0  0  3  0  0  0  0  0  0
  186.7150  177.8230  142.0780 C   0  0  0  0  0  3  0  0  0  0  0  0
  188.2080  177.9420  141.9100 C   0  0  0  0  0  2  0  0  0  0  0  0
  186.1490  177.3620  143.2030 C   0  0  0  0  0  3  0  0  0  0  0  0
  188.4270  177.2600  144.3100 C   0  0  0  0  0  2  0  0  0  0  0  0
  185.1000  177.9130  145.6630 N   0  0  0  0  0  2  0  0  0  0  0  0
  184.4280  178.2860  146.8970 C   0  0  0  0  0  1  0  0  0  0  0  0
  186.3310  177.1870  145.6610 C   0  0  0  0  0  0  0  0  0  0  0  0
  186.8830  176.8590  146.7470 O   0  0  0  0  0  0  0  0  0  0  0  0
  1 13  2  0  0  0  0
  2 19  1  0  0  0  0
  4 10  1  6  0  0  0
  4 18  1  0  0  0  0
  5 22  2  0  0  0  0
  6 17  1  0  0  0  0
  7 14  2  0  0  0  0
  7  1  1  0  0  0  0
  8 16  2  0  0  0  0
  9 15  1  0  0  0  0
  9 16  1  0  0  0  0
 11  8  1  0  0  0  0
 12 11  1  0  0  0  0
 12  9  2  0  0  0  0
 13  4  1  0  0  0  0
 13  6  1  0  0  0  0
 14 10  1  0  0  0  0
 15  3  1  0  0  0  0
 17 20  2  0  0  0  0
 18  2  1  6  0  0  0
 18 20  1  0  0  0  0
 20  5  1  0  0  0  0
 21 23  1  6  0  0  0
 21 19  1  0  0  0  0
 21 12  1  0  0  0  0
 22 15  2  0  0  0  0
 24 25  1  0  0  0  0
 24 23  1  0  0  0  0
 26 34  1  1  0  0  0
 27 25  1  6  0  0  0
 27 31  1  0  0  0  0
 28 30  2  0  0  0  0
 29 28  1  0  0  0  0
 29 27  1  0  0  0  0
 30 26  1  0  0  0  0
 31 26  1  0  0  0  0
 32 33  1  0  0  0  0
 34 32  1  0  0  0  0
 34 35  2  0  0  0  0
M  END
>  <MODEL>
3

>  <REMARK>
 VINA RESULT:      -7.7      3.394      7.241
  Name = 
  5 active torsions:
  status: ('A' for Active; 'I' for Inactive)
    1  A    between atoms: C_2  and  C_22
    2  A    between atoms: C_6  and  O_20
    3  A    between atoms: C_18  and  O_20
    4  A    between atoms: C_18  and  C_24
    5  A    between atoms: C_24  and  C_34
                            x       y       z     vdW  Elec       q    Type
                         _______ _______ _______ _____ _____    ______ ____

>  <TORSDO>
F 5

$$$$
=
 OpenBabel11042416553D

 35 39  0  0  1  0  0  0  0  0999 V2000
  192.5870  175.1230  145.5380 N   0  0  0  0  0  0  0  0  0  0  0  0
  188.9540  175.8570  144.0440 C   0  0  0  0  0  2  0  0  0  0  0  0
  185.4010  179.4150  146.7680 N   0  0  0  0  0  1  0  0  0  0  0  0
  190.8380  176.8270  145.4320 C   0  0  2  0  0  3  0  0  0  0  0  0
  187.3390  176.5000  146.9510 C   0  0  0  0  0  3  0  0  0  0  0  0
  190.6770  174.7880  146.9000 N   0  0  0  0  0  2  0  0  0  0  0  0
  193.3240  175.8170  144.5210 C   0  0  0  0  0  3  0  0  0  0  0  0
  183.9600  178.4120  142.9120 N   0  0  0  0  0  0  0  0  0  0  0  0
  185.3570  178.3080  144.5320 C   0  0  0  0  0  0  0  0  0  0  0  0
  191.4930  177.2560  144.1990 N   0  0  0  0  0  2  0  0  0  0  0  0
  185.0690  177.9290  142.4290 O   0  0  0  0  0  0  0  0  0  0  0  0
  185.9680  177.8530  143.3800 C   0  0  0  0  0  0  0  0  0  0  0  0
  191.4210  175.5340  145.9350 C   0  0  0  0  0  0  0  0  0  0  0  0
  192.7890  176.8150  143.8850 N   0  0  0  0  0  0  0  0  0  0  0  0
  185.9150  178.4200  145.8910 C   0  0  0  0  0  0  0  0  0  0  0  0
  184.1010  178.6660  144.2050 N   0  0  0  0  0  0  0  0  0  0  0  0
  189.3390  175.1810  147.2340 C   0  0  0  0  0  3  0  0  0  0  0  0
  189.3160  176.7030  145.2720 C   0  0  2  0  0  3  0  0  0  0  0  0
  187.5570  176.0400  143.6570 N   0  0  0  0  0  2  0  0  0  0  0  0
  188.6900  176.1160  146.5220 C   0  0  0  0  0  0  0  0  0  0  0  0
  187.3860  177.4130  143.2040 C   0  0  1  0  0  3  0  0  0  0  0  0
  186.6480  177.4620  146.3950 C   0  0  0  0  0  0  0  0  0  0  0  0
  187.8570  177.5740  141.7610 C   0  0  0  0  0  2  0  0  0  0  0  0
  187.4390  176.3690  140.9320 C   0  0  0  0  0  2  0  0  0  0  0  0
  188.5670  175.6270  140.5690 O   0  0  0  0  0  0  0  0  0  0  0  0
  190.1020  173.3260  141.4780 C   0  0  1  0  0  3  0  0  0  0  0  0
  188.0930  174.3300  140.3470 C   0  0  1  0  0  3  0  0  0  0  0  0
  190.0210  173.4160  138.9790 C   0  0  0  0  0  3  0  0  0  0  0  0
  188.5660  173.8100  138.9850 C   0  0  0  0  0  2  0  0  0  0  0  0
  190.7030  173.1520  140.1050 C   0  0  0  0  0  3  0  0  0  0  0  0
  188.5710  173.3900  141.4540 C   0  0  0  0  0  2  0  0  0  0  0  0
  191.6400  172.5650  143.3210 N   0  0  0  0  0  2  0  0  0  0  0  0
  192.1480  171.5810  144.2630 C   0  0  0  0  0  1  0  0  0  0  0  0
  190.5840  172.2650  142.4070 C   0  0  0  0  0  0  0  0  0  0  0  0
  190.0660  171.1140  142.3830 O   0  0  0  0  0  0  0  0  0  0  0  0
  1 13  2  0  0  0  0
  4 10  1  6  0  0  0
  4 13  1  0  0  0  0
  6 17  1  0  0  0  0
  7  1  1  0  0  0  0
  8 16  2  0  0  0  0
  9 15  1  0  0  0  0
 11  8  1  0  0  0  0
 11 12  1  0  0  0  0
 12  9  2  0  0  0  0
 13  6  1  0  0  0  0
 14 10  1  0  0  0  0
 14  7  2  0  0  0  0
 15 22  2  0  0  0  0
 15  3  1  0  0  0  0
 16  9  1  0  0  0  0
 18  2  1  6  0  0  0
 18  4  1  0  0  0  0
 18 20  1  0  0  0  0
 19  2  1  0  0  0  0
 20  5  1  0  0  0  0
 20 17  2  0  0  0  0
 21 23  1  6  0  0  0
 21 12  1  0  0  0  0
 21 19  1  0  0  0  0
 22  5  2  0  0  0  0
 24 23  1  0  0  0  0
 25 24  1  0  0  0  0
 26 34  1  1  0  0  0
 27 25  1  1  0  0  0
 27 31  1  0  0  0  0
 28 29  1  0  0  0  0
 28 30  2  0  0  0  0
 29 27  1  0  0  0  0
 30 26  1  0  0  0  0
 31 26  1  0  0  0  0
 32 33  1  0  0  0  0
 34 32  1  0  0  0  0
 35 34  2  0  0  0  0
M  END
>  <MODEL>
4

>  <REMARK>
 VINA RESULT:      -7.5      2.291      5.407
  Name = 
  5 active torsions:
  status: ('A' for Active; 'I' for Inactive)
    1  A    between atoms: C_2  and  C_22
    2  A    between atoms: C_6  and  O_20
    3  A    between atoms: C_18  and  O_20
    4  A    between atoms: C_18  and  C_24
    5  A    between atoms: C_24  and  C_34
                            x       y       z     vdW  Elec       q    Type
                         _______ _______ _______ _____ _____    ______ ____

>  <TORSDO>
F 5

$$$$
=
 OpenBabel11042416553D

 35 39  0  0  1  0  0  0  0  0999 V2000
  185.4100  178.0380  141.0410 N   0  0  0  0  0  0  0  0  0  0  0  0
  188.6030  178.0200  143.4440 C   0  0  0  0  0  2  0  0  0  0  0  0
  188.9410  174.2490  147.7310 N   0  0  0  0  0  1  0  0  0  0  0  0
  186.7770  176.5770  142.4440 C   0  0  2  0  0  3  0  0  0  0  0  0
  187.1100  176.8450  146.2490 C   0  0  0  0  0  3  0  0  0  0  0  0
  185.1050  178.2080  143.3850 N   0  0  0  0  0  2  0  0  0  0  0  0
  186.0830  177.5460  139.8740 C   0  0  0  0  0  3  0  0  0  0  0  0
  192.6120  176.2790  147.1380 N   0  0  0  0  0  0  0  0  0  0  0  0
  190.5530  175.8620  146.7180 C   0  0  0  0  0  0  0  0  0  0  0  0
  187.6030  176.4000  141.2520 N   0  0  0  0  0  2  0  0  0  0  0  0
  192.3590  176.7620  145.9550 O   0  0  0  0  0  0  0  0  0  0  0  0
  191.1080  176.5240  145.6400 C   0  0  0  0  0  0  0  0  0  0  0  0
  185.7450  177.6520  142.2340 C   0  0  0  0  0  0  0  0  0  0  0  0
  187.1280  176.7840  139.9880 N   0  0  0  0  0  0  0  0  0  0  0  0
  189.1750  175.3750  146.8930 C   0  0  0  0  0  0  0  0  0  0  0  0
  191.5250  175.7100  147.6380 N   0  0  0  0  0  0  0  0  0  0  0  0
  185.5710  177.8690  144.6980 C   0  0  0  0  0  3  0  0  0  0  0  0
  187.6140  176.8740  143.6970 C   0  0  2  0  0  3  0  0  0  0  0  0
  189.6480  178.0640  144.4650 N   0  0  0  0  0  2  0  0  0  0  0  0
  186.7190  177.1970  144.8770 C   0  0  0  0  0  0  0  0  0  0  0  0
  190.4590  176.8620  144.3360 C   0  0  1  0  0  3  0  0  0  0  0  0
  188.1540  176.1130  146.5400 C   0  0  0  0  0  0  0  0  0  0  0  0
  191.4820  177.0120  143.2140 C   0  0  0  0  0  2  0  0  0  0  0  0
  191.6580  175.6910  142.4800 C   0  0  0  0  0  2  0  0  0  0  0  0
  192.2010  174.7350  143.3440 O   0  0  0  0  0  0  0  0  0  0  0  0
  194.1050  173.0740  144.7880 C   0  0  1  0  0  3  0  0  0  0  0  0
  193.3840  174.3170  142.7250 C   0  0  1  0  0  3  0  0  0  0  0  0
  195.0660  175.3360  144.3250 C   0  0  0  0  0  3  0  0  0  0  0  0
  194.4940  175.3550  142.9300 C   0  0  0  0  0  2  0  0  0  0  0  0
  194.9300  174.2850  145.1480 C   0  0  0  0  0  3  0  0  0  0  0  0
  193.8290  172.9660  143.2850 C   0  0  0  0  0  2  0  0  0  0  0  0
  196.1420  171.8110  145.5630 N   0  0  0  0  0  2  0  0  0  0  0  0
  196.8170  170.6350  146.0860 C   0  0  0  0  0  1  0  0  0  0  0  0
  194.7350  171.8280  145.3120 C   0  0  0  0  0  0  0  0  0  0  0  0
  194.0340  170.8010  145.5270 O   0  0  0  0  0  0  0  0  0  0  0  0
  1 13  2  0  0  0  0
  2 19  1  0  0  0  0
  4 10  1  6  0  0  0
  4 18  1  0  0  0  0
  5 22  2  0  0  0  0
  6 17  1  0  0  0  0
  7 14  2  0  0  0  0
  7  1  1  0  0  0  0
  8 16  2  0  0  0  0
  9 15  1  0  0  0  0
  9 16  1  0  0  0  0
 11  8  1  0  0  0  0
 12 11  1  0  0  0  0
 12  9  2  0  0  0  0
 13  4  1  0  0  0  0
 13  6  1  0  0  0  0
 14 10  1  0  0  0  0
 15  3  1  0  0  0  0
 17 20  2  0  0  0  0
 18  2  1  6  0  0  0
 18 20  1  0  0  0  0
 20  5  1  0  0  0  0
 21 23  1  6  0  0  0
 21 19  1  0  0  0  0
 21 12  1  0  0  0  0
 22 15  2  0  0  0  0
 24 23  1  0  0  0  0
 24 25  1  0  0  0  0
 26 30  1  0  0  0  0
 26 34  1  6  0  0  0
 27 29  1  0  0  0  0
 27 31  1  0  0  0  0
 27 25  1  1  0  0  0
 28 30  2  0  0  0  0
 29 28  1  0  0  0  0
 31 26  1  0  0  0  0
 32 33  1  0  0  0  0
 34 35  2  0  0  0  0
 34 32  1  0  0  0  0
M  END
>  <MODEL>
5

>  <REMARK>
 VINA RESULT:      -7.5      2.708      4.103
  Name = 
  5 active torsions:
  status: ('A' for Active; 'I' for Inactive)
    1  A    between atoms: C_2  and  C_22
    2  A    between atoms: C_6  and  O_20
    3  A    between atoms: C_18  and  O_20
    4  A    between atoms: C_18  and  C_24
    5  A    between atoms: C_24  and  C_34
                            x       y       z     vdW  Elec       q    Type
                         _______ _______ _______ _____ _____    ______ ____

>  <TORSDO>
F 5

$$$$
=
 OpenBabel11042416553D

 35 39  0  0  1  0  0  0  0  0999 V2000
  188.3480  174.7530  139.9400 N   0  0  0  0  0  0  0  0  0  0  0  0
  188.5080  176.7830  143.3780 C   0  0  0  0  0  2  0  0  0  0  0  0
  183.6910  178.6660  145.8200 N   0  0  0  0  0  1  0  0  0  0  0  0
  187.0780  175.2360  141.9710 C   0  0  2  0  0  3  0  0  0  0  0  0
  185.7300  178.6780  142.9680 C   0  0  0  0  0  3  0  0  0  0  0  0
  187.3220  176.8840  140.0830 N   0  0  0  0  0  2  0  0  0  0  0  0
  188.7340  173.4820  140.4830 C   0  0  0  0  0  3  0  0  0  0  0  0
  187.0230  179.0810  148.4040 N   0  0  0  0  0  0  0  0  0  0  0  0
  186.0710  178.5460  146.5610 C   0  0  0  0  0  0  0  0  0  0  0  0
  187.7890  174.0960  142.5460 N   0  0  0  0  0  2  0  0  0  0  0  0
  187.8400  178.2910  147.7680 O   0  0  0  0  0  0  0  0  0  0  0  0
  187.3010  177.9210  146.6310 C   0  0  0  0  0  0  0  0  0  0  0  0
  187.6360  175.5970  140.6210 C   0  0  0  0  0  0  0  0  0  0  0  0
  188.4770  173.1910  141.7220 N   0  0  0  0  0  0  0  0  0  0  0  0
  185.0630  178.4830  145.4890 C   0  0  0  0  0  0  0  0  0  0  0  0
  185.9170  179.2560  147.6950 N   0  0  0  0  0  0  0  0  0  0  0  0
  186.6460  177.8540  140.8930 C   0  0  0  0  0  3  0  0  0  0  0  0
  187.0870  176.4590  142.8990 C   0  0  2  0  0  3  0  0  0  0  0  0
  188.4960  177.6770  144.5340 N   0  0  0  0  0  2  0  0  0  0  0  0
  186.4720  177.6610  142.2110 C   0  0  0  0  0  0  0  0  0  0  0  0
  187.9010  176.9620  145.6540 C   0  0  1  0  0  3  0  0  0  0  0  0
  185.4170  178.5550  144.2330 C   0  0  0  0  0  0  0  0  0  0  0  0
  188.9210  176.0390  146.3160 C   0  0  0  0  0  2  0  0  0  0  0  0
  190.2400  176.7700  146.5220 C   0  0  0  0  0  2  0  0  0  0  0  0
  191.1660  176.3590  145.5580 O   0  0  0  0  0  0  0  0  0  0  0  0
  193.6100  175.7460  144.1010 C   0  0  1  0  0  3  0  0  0  0  0  0
  192.3970  176.3470  146.2200 C   0  0  1  0  0  3  0  0  0  0  0  0
  193.0860  173.9510  145.7630 C   0  0  0  0  0  3  0  0  0  0  0  0
  192.6790  174.9590  146.8070 C   0  0  0  0  0  2  0  0  0  0  0  0
  193.5510  174.3080  144.5560 C   0  0  0  0  0  3  0  0  0  0  0  0
  193.5220  176.7420  145.2620 C   0  0  0  0  0  2  0  0  0  0  0  0
  195.9900  176.5390  143.8860 N   0  0  0  0  0  2  0  0  0  0  0  0
  197.2100  176.7910  143.1380 C   0  0  0  0  0  1  0  0  0  0  0  0
  194.8230  175.9910  143.2700 C   0  0  0  0  0  0  0  0  0  0  0  0
  194.8170  175.7200  142.0380 O   0  0  0  0  0  0  0  0  0  0  0  0
  1  7  1  0  0  0  0
  1 13  2  0  0  0  0
  2 19  1  0  0  0  0
  4 13  1  6  0  0  0
  4 10  1  0  0  0  0
  4 18  1  0  0  0  0
  5 22  2  0  0  0  0
  6 13  1  0  0  0  0
  6 17  1  0  0  0  0
  7 14  2  0  0  0  0
  9 12  2  0  0  0  0
  9 16  1  0  0  0  0
 11  8  1  0  0  0  0
 12 11  1  0  0  0  0
 14 10  1  0  0  0  0
 15  3  1  0  0  0  0
 15  9  1  0  0  0  0
 16  8  2  0  0  0  0
 17 20  2  0  0  0  0
 18  2  1  6  0  0  0
 19 21  1  0  0  0  0
 20 18  1  0  0  0  0
 20  5  1  0  0  0  0
 21 23  1  1  0  0  0
 21 12  1  0  0  0  0
 22 15  2  0  0  0  0
 23 24  1  0  0  0  0
 25 24  1  0  0  0  0
 26 34  1  1  0  0  0
 26 30  1  0  0  0  0
 26 31  1  0  0  0  0
 27 25  1  6  0  0  0
 27 29  1  0  0  0  0
 28 29  1  0  0  0  0
 30 28  2  0  0  0  0
 31 27  1  0  0  0  0
 33 32  1  0  0  0  0
 34 32  1  0  0  0  0
 35 34  2  0  0  0  0
M  END
>  <MODEL>
6

>  <REMARK>
 VINA RESULT:      -7.5      2.711      5.417
  Name = 
  5 active torsions:
  status: ('A' for Active; 'I' for Inactive)
    1  A    between atoms: C_2  and  C_22
    2  A    between atoms: C_6  and  O_20
    3  A    between atoms: C_18  and  O_20
    4  A    between atoms: C_18  and  C_24
    5  A    between atoms: C_24  and  C_34
                            x       y       z     vdW  Elec       q    Type
                         _______ _______ _______ _____ _____    ______ ____

>  <TORSDO>
F 5

$$$$
=
 OpenBabel11042416553D

 35 39  0  0  1  0  0  0  0  0999 V2000
  188.5290  174.5900  140.1180 N   0  0  0  0  0  0  0  0  0  0  0  0
  188.5880  176.6600  143.5360 C   0  0  0  0  0  2  0  0  0  0  0  0
  183.7270  178.7600  145.6970 N   0  0  0  0  0  1  0  0  0  0  0  0
  187.1740  175.1500  142.0740 C   0  0  2  0  0  3  0  0  0  0  0  0
  185.9110  178.6550  142.9580 C   0  0  0  0  0  3  0  0  0  0  0  0
  187.5810  176.7610  140.1820 N   0  0  0  0  0  2  0  0  0  0  0  0
  188.8350  173.3140  140.6960 C   0  0  0  0  0  3  0  0  0  0  0  0
  186.9330  179.0820  148.4490 N   0  0  0  0  0  0  0  0  0  0  0  0
  186.0580  178.5590  146.5650 C   0  0  0  0  0  0  0  0  0  0  0  0
  187.8080  173.9920  142.6990 N   0  0  0  0  0  2  0  0  0  0  0  0
  187.7500  178.2520  147.8670 O   0  0  0  0  0  0  0  0  0  0  0  0
  187.2570  177.8880  146.7070 C   0  0  0  0  0  0  0  0  0  0  0  0
  187.8160  175.4710  140.7510 C   0  0  0  0  0  0  0  0  0  0  0  0
  188.5030  173.0490  141.9230 N   0  0  0  0  0  0  0  0  0  0  0  0
  185.1060  178.5200  145.4420 C   0  0  0  0  0  0  0  0  0  0  0  0
  185.8730  179.2900  147.6810 N   0  0  0  0  0  0  0  0  0  0  0  0
  186.9020  177.7680  140.9440 C   0  0  0  0  0  3  0  0  0  0  0  0
  187.1820  176.3840  142.9870 C   0  0  2  0  0  3  0  0  0  0  0  0
  188.5500  177.5690  144.6800 N   0  0  0  0  0  2  0  0  0  0  0  0
  186.6510  177.6000  142.2520 C   0  0  0  0  0  0  0  0  0  0  0  0
  187.8700  176.8930  145.7750 C   0  0  1  0  0  3  0  0  0  0  0  0
  185.5280  178.5610  144.2050 C   0  0  0  0  0  0  0  0  0  0  0  0
  188.8160  175.9410  146.5010 C   0  0  0  0  0  2  0  0  0  0  0  0
  190.2080  176.5490  146.5950 C   0  0  0  0  0  2  0  0  0  0  0  0
  191.1720  175.5370  146.5710 O   0  0  0  0  0  0  0  0  0  0  0  0
  193.6750  174.1820  145.9610 C   0  0  1  0  0  3  0  0  0  0  0  0
  191.6870  175.5590  145.2710 C   0  0  1  0  0  3  0  0  0  0  0  0
  193.9230  176.6610  145.7330 C   0  0  0  0  0  3  0  0  0  0  0  0
  192.5780  176.7890  145.0650 C   0  0  0  0  0  2  0  0  0  0  0  0
  194.4390  175.4770  146.0960 C   0  0  0  0  0  3  0  0  0  0  0  0
  192.4910  174.2870  144.9950 C   0  0  0  0  0  2  0  0  0  0  0  0
  195.9710  173.3390  145.3620 N   0  0  0  0  0  2  0  0  0  0  0  0
  196.9160  172.2950  145.0010 C   0  0  0  0  0  1  0  0  0  0  0  0
  194.5860  173.0650  145.5800 C   0  0  0  0  0  0  0  0  0  0  0  0
  194.1370  171.8940  145.4470 O   0  0  0  0  0  0  0  0  0  0  0  0
  1  7  1  0  0  0  0
  1 13  2  0  0  0  0
  2 19  1  0  0  0  0
  4 13  1  6  0  0  0
  4 10  1  0  0  0  0
  4 18  1  0  0  0  0
  5 22  2  0  0  0  0
  6 13  1  0  0  0  0
  6 17  1  0  0  0  0
  7 14  2  0  0  0  0
  9 12  2  0  0  0  0
  9 16  1  0  0  0  0
 11  8  1  0  0  0  0
 12 11  1  0  0  0  0
 14 10  1  0  0  0  0
 15  3  1  0  0  0  0
 15  9  1  0  0  0  0
 16  8  2  0  0  0  0
 17 20  2  0  0  0  0
 18  2  1  6  0  0  0
 19 21  1  0  0  0  0
 20  5  1  0  0  0  0
 20 18  1  0  0  0  0
 21 23  1  1  0  0  0
 21 12  1  0  0  0  0
 22 15  2  0  0  0  0
 23 24  1  0  0  0  0
 25 24  1  0  0  0  0
 26 34  1  6  0  0  0
 26 30  1  0  0  0  0
 27 25  1  1  0  0  0
 28 30  2  0  0  0  0
 29 27  1  0  0  0  0
 29 28  1  0  0  0  0
 31 27  1  0  0  0  0
 31 26  1  0  0  0  0
 32 34  1  0  0  0  0
 33 32  1  0  0  0  0
 35 34  2  0  0  0  0
M  END
>  <MODEL>
7

>  <REMARK>
 VINA RESULT:      -7.4      2.904      5.562
  Name = 
  5 active torsions:
  status: ('A' for Active; 'I' for Inactive)
    1  A    between atoms: C_2  and  C_22
    2  A    between atoms: C_6  and  O_20
    3  A    between atoms: C_18  and  O_20
    4  A    between atoms: C_18  and  C_24
    5  A    between atoms: C_24  and  C_34
                            x       y       z     vdW  Elec       q    Type
                         _______ _______ _______ _____ _____    ______ ____

>  <TORSDO>
F 5

$$$$
=
 OpenBabel11042416553D

 35 39  0  0  1  0  0  0  0  0999 V2000
  189.9330  177.4150  147.1500 N   0  0  0  0  0  0  0  0  0  0  0  0
  190.3640  175.1090  143.9160 C   0  0  0  0  0  2  0  0  0  0  0  0
  192.6930  169.9070  144.3950 N   0  0  0  0  0  1  0  0  0  0  0  0
  190.0210  175.0830  146.4250 C   0  0  2  0  0  3  0  0  0  0  0  0
  193.0830  173.3520  144.9130 C   0  0  0  0  0  3  0  0  0  0  0  0
  192.0690  176.5340  146.6240 N   0  0  0  0  0  2  0  0  0  0  0  0
  188.5020  177.3410  147.2130 C   0  0  0  0  0  3  0  0  0  0  0  0
  190.9830  170.5110  140.5650 N   0  0  0  0  0  0  0  0  0  0  0  0
  191.5210  171.1120  142.5490 C   0  0  0  0  0  0  0  0  0  0  0  0
  188.5830  175.2190  146.2060 N   0  0  0  0  0  2  0  0  0  0  0  0
  190.2620  171.5560  140.8550 O   0  0  0  0  0  0  0  0  0  0  0  0
  190.5440  171.9620  142.0710 C   0  0  0  0  0  0  0  0  0  0  0  0
  190.6500  176.4130  146.7410 C   0  0  0  0  0  0  0  0  0  0  0  0
  187.8750  176.3040  146.7490 N   0  0  0  0  0  0  0  0  0  0  0  0
  192.2000  171.1290  143.8560 C   0  0  0  0  0  0  0  0  0  0  0  0
  191.7670  170.2020  141.5880 N   0  0  0  0  0  0  0  0  0  0  0  0
  192.8340  175.4660  146.0500 C   0  0  0  0  0  3  0  0  0  0  0  0
  190.7330  174.4220  145.2370 C   0  0  2  0  0  3  0  0  0  0  0  0
  190.7120  174.2810  142.7630 N   0  0  0  0  0  2  0  0  0  0  0  0
  192.2360  174.4320  145.4370 C   0  0  0  0  0  0  0  0  0  0  0  0
  189.8750  173.0910  142.7880 C   0  0  1  0  0  3  0  0  0  0  0  0
  192.6110  172.2530  144.3820 C   0  0  0  0  0  0  0  0  0  0  0  0
  188.4900  173.3850  142.2190 C   0  0  0  0  0  2  0  0  0  0  0  0
  188.5080  174.6880  141.4330 C   0  0  0  0  0  2  0  0  0  0  0  0
  187.3600  175.4330  141.7210 O   0  0  0  0  0  0  0  0  0  0  0  0
  185.9690  177.3920  143.3650 C   0  0  1  0  0  3  0  0  0  0  0  0
  187.7890  176.7640  141.7460 C   0  0  1  0  0  3  0  0  0  0  0  0
  185.6700  177.8930  140.9330 C   0  0  0  0  0  3  0  0  0  0  0  0
  187.1110  177.5690  140.6310 C   0  0  0  0  0  2  0  0  0  0  0  0
  185.1660  177.8580  142.1750 C   0  0  0  0  0  3  0  0  0  0  0  0
  187.4790  177.3980  143.1030 C   0  0  0  0  0  2  0  0  0  0  0  0
  184.8410  177.5820  145.6080 N   0  0  0  0  0  2  0  0  0  0  0  0
  184.4840  178.2950  146.8240 C   0  0  0  0  0  1  0  0  0  0  0  0
  185.6290  178.1850  144.5800 C   0  0  0  0  0  0  0  0  0  0  0  0
  186.0290  179.3760  144.6960 O   0  0  0  0  0  0  0  0  0  0  0  0
  1  7  1  0  0  0  0
  4 10  1  6  0  0  0
  4 13  1  0  0  0  0
  5 20  1  0  0  0  0
  6 13  1  0  0  0  0
  8 11  1  0  0  0  0
  8 16  2  0  0  0  0
  9 15  1  0  0  0  0
 10 14  1  0  0  0  0
 11 12  1  0  0  0  0
 12  9  2  0  0  0  0
 12 21  1  0  0  0  0
 13  1  2  0  0  0  0
 14  7  2  0  0  0  0
 15 22  2  0  0  0  0
 15  3  1  0  0  0  0
 16  9  1  0  0  0  0
 17  6  1  0  0  0  0
 18  2  1  6  0  0  0
 18 20  1  0  0  0  0
 18  4  1  0  0  0  0
 19 21  1  0  0  0  0
 19  2  1  0  0  0  0
 20 17  2  0  0  0  0
 21 23  1  6  0  0  0
 22  5  2  0  0  0  0
 24 25  1  0  0  0  0
 24 23  1  0  0  0  0
 26 34  1  1  0  0  0
 27 25  1  1  0  0  0
 27 31  1  0  0  0  0
 28 30  2  0  0  0  0
 29 28  1  0  0  0  0
 29 27  1  0  0  0  0
 30 26  1  0  0  0  0
 31 26  1  0  0  0  0
 32 33  1  0  0  0  0
 34 35  2  0  0  0  0
 34 32  1  0  0  0  0
M  END
>  <MODEL>
8

>  <REMARK>
 VINA RESULT:      -7.3      2.640      6.865
  Name = 
  5 active torsions:
  status: ('A' for Active; 'I' for Inactive)
    1  A    between atoms: C_2  and  C_22
    2  A    between atoms: C_6  and  O_20
    3  A    between atoms: C_18  and  O_20
    4  A    between atoms: C_18  and  C_24
    5  A    between atoms: C_24  and  C_34
                            x       y       z     vdW  Elec       q    Type
                         _______ _______ _______ _____ _____    ______ ____

>  <TORSDO>
F 5

$$$$
=
 OpenBabel11042416553D

 35 39  0  0  1  0  0  0  0  0999 V2000
  185.1350  178.1220  141.3510 N   0  0  0  0  0  0  0  0  0  0  0  0
  188.3960  178.0260  143.6590 C   0  0  0  0  0  2  0  0  0  0  0  0
  188.8290  174.1550  147.8470 N   0  0  0  0  0  1  0  0  0  0  0  0
  186.5300  176.6190  142.6800 C   0  0  2  0  0  3  0  0  0  0  0  0
  186.9770  176.7980  146.4790 C   0  0  0  0  0  3  0  0  0  0  0  0
  184.9000  178.2400  143.7070 N   0  0  0  0  0  2  0  0  0  0  0  0
  185.7690  177.6520  140.1540 C   0  0  0  0  0  3  0  0  0  0  0  0
  192.4980  176.1720  147.1920 N   0  0  0  0  0  0  0  0  0  0  0  0
  190.4250  175.7800  146.8240 C   0  0  0  0  0  0  0  0  0  0  0  0
  187.3200  176.4640  141.4610 N   0  0  0  0  0  2  0  0  0  0  0  0
  192.2140  176.6830  146.0280 O   0  0  0  0  0  0  0  0  0  0  0  0
  190.9530  176.4610  145.7450 C   0  0  0  0  0  0  0  0  0  0  0  0
  185.5010  177.7060  142.5250 C   0  0  0  0  0  0  0  0  0  0  0  0
  186.8110  176.8800  140.2200 N   0  0  0  0  0  0  0  0  0  0  0  0
  189.0470  175.2990  147.0280 C   0  0  0  0  0  0  0  0  0  0  0  0
  191.4210  175.5990  147.7110 N   0  0  0  0  0  0  0  0  0  0  0  0
  185.4010  177.8690  144.9970 C   0  0  0  0  0  3  0  0  0  0  0  0
  187.4060  176.8820  143.9140 C   0  0  2  0  0  3  0  0  0  0  0  0
  189.4710  178.0390  144.6490 N   0  0  0  0  0  2  0  0  0  0  0  0
  186.5490  177.1840  145.1270 C   0  0  0  0  0  0  0  0  0  0  0  0
  190.2690  176.8340  144.4690 C   0  0  1  0  0  3  0  0  0  0  0  0
  188.0230  176.0520  146.7230 C   0  0  0  0  0  0  0  0  0  0  0  0
  191.2590  177.0020  143.3200 C   0  0  0  0  0  2  0  0  0  0  0  0
  191.9850  175.6920  143.0530 C   0  0  0  0  0  2  0  0  0  0  0  0
  191.1770  174.8490  142.2840 O   0  0  0  0  0  0  0  0  0  0  0  0
  191.5740  171.9700  142.4610 C   0  0  1  0  0  3  0  0  0  0  0  0
  190.4540  174.0930  143.2130 C   0  0  1  0  0  3  0  0  0  0  0  0
  189.2790  172.5060  141.6240 C   0  0  0  0  0  3  0  0  0  0  0  0
  189.1210  173.6340  142.6120 C   0  0  0  0  0  2  0  0  0  0  0  0
  190.3680  171.7240  141.5880 C   0  0  0  0  0  3  0  0  0  0  0  0
  191.2670  172.8770  143.6580 C   0  0  0  0  0  2  0  0  0  0  0  0
  191.7500  169.4640  142.2950 N   0  0  0  0  0  2  0  0  0  0  0  0
  192.3110  168.1760  142.6680 C   0  0  0  0  0  1  0  0  0  0  0  0
  192.1830  170.6830  142.9010 C   0  0  0  0  0  0  0  0  0  0  0  0
  193.0680  170.6710  143.8010 O   0  0  0  0  0  0  0  0  0  0  0  0
  1 13  2  0  0  0  0
  2 19  1  0  0  0  0
  4 10  1  6  0  0  0
  4 18  1  0  0  0  0
  5 22  2  0  0  0  0
  6 17  1  0  0  0  0
  7 14  2  0  0  0  0
  7  1  1  0  0  0  0
  8 16  2  0  0  0  0
  9 15  1  0  0  0  0
  9 16  1  0  0  0  0
 11  8  1  0  0  0  0
 12 11  1  0  0  0  0
 12  9  2  0  0  0  0
 13  4  1  0  0  0  0
 13  6  1  0  0  0  0
 14 10  1  0  0  0  0
 15  3  1  0  0  0  0
 17 20  2  0  0  0  0
 18  2  1  6  0  0  0
 18 20  1  0  0  0  0
 20  5  1  0  0  0  0
 21 23  1  6  0  0  0
 21 19  1  0  0  0  0
 21 12  1  0  0  0  0
 22 15  2  0  0  0  0
 24 23  1  0  0  0  0
 25 24  1  0  0  0  0
 26 34  1  1  0  0  0
 26 31  1  0  0  0  0
 27 25  1  6  0  0  0
 27 31  1  0  0  0  0
 28 29  1  0  0  0  0
 29 27  1  0  0  0  0
 30 28  2  0  0  0  0
 30 26  1  0  0  0  0
 32 33  1  0  0  0  0
 32 34  1  0  0  0  0
 34 35  2  0  0  0  0
M  END
>  <MODEL>
9

>  <REMARK>
 VINA RESULT:      -7.0      1.693      2.201
  Name = 
  5 active torsions:
  status: ('A' for Active; 'I' for Inactive)
    1  A    between atoms: C_2  and  C_22
    2  A    between atoms: C_6  and  O_20
    3  A    between atoms: C_18  and  O_20
    4  A    between atoms: C_18  and  C_24
    5  A    between atoms: C_24  and  C_34
                            x       y       z     vdW  Elec       q    Type
                         _______ _______ _______ _____ _____    ______ ____

>  <TORSDO>
F 5

$$$$
