=
 OpenBabel11042419393D

 70 76  0  0  1  0  0  0  0  0999 V2000
  195.0760  172.4040  143.5830 C   0  0  1  0  0  3  0  0  0  0  0  0
  193.7210  174.4610  143.1670 C   0  0  0  0  0  0  0  0  0  0  0  0
  192.5700  175.3790  143.4300 C   0  0  0  0  0  2  0  0  0  0  0  0
  193.4230  173.2910  145.3420 C   0  0  0  0  0  3  0  0  0  0  0  0
  195.3130  173.5950  141.4570 C   0  0  0  0  0  0  0  0  0  0  0  0
  195.6270  172.6050  142.2340 N   0  0  0  0  0  0  0  0  0  0  0  0
  194.3590  174.5710  141.8940 N   0  0  0  0  0  2  0  0  0  0  0  0
  194.0380  173.4470  143.9990 C   0  0  0  0  0  0  0  0  0  0  0  0
  192.7770  176.2150  144.6530 C   0  0  0  0  0  3  0  0  0  0  0  0
  192.9390  174.2490  146.1410 C   0  0  0  0  0  3  0  0  0  0  0  0
  192.8940  175.7040  145.8830 C   0  0  0  0  0  0  0  0  0  0  0  0
  194.9010  170.1570  142.4490 C   0  0  0  0  0  1  0  0  0  0  0  0
  194.5870  170.9510  143.7040 C   0  0  2  0  0  3  0  0  0  0  0  0
  193.0970  170.8910  144.0340 C   0  0  0  0  0  2  0  0  0  0  0  0
  192.2670  170.4080  142.8860 C   0  0  0  0  0  0  0  0  0  0  0  0
  192.1970  169.1690  142.6600 O   0  0  0  0  0  0  0  0  0  0  0  0
  191.4990  171.3410  142.0480 C   0  0  0  0  0  0  0  0  0  0  0  0
  192.0940  172.1490  141.2860 O   0  0  0  0  0  0  0  0  0  0  0  0
  190.0030  171.3260  142.0640 C   0  0  0  0  0  2  0  0  0  0  0  0
  189.4540  172.3730  143.0260 C   0  0  0  0  0  2  0  0  0  0  0  0
  188.3780  173.2190  142.3450 C   0  0  2  0  0  3  0  0  0  0  0  0
  188.3910  172.9050  140.8590 C   0  0  0  0  0  1  0  0  0  0  0  0
  189.7180  175.4730  141.6740 O   0  0  0  0  0  0  0  0  0  0  0  0
  188.6670  174.9720  142.6280 S   0  0  0  0  0  0  0  0  0  0  0  0
  189.1300  175.1920  144.0440 O   0  0  0  0  0  0  0  0  0  0  0  0
  187.1730  175.9130  142.3420 C   0  0  1  0  0  3  0  0  0  0  0  0
  186.6410  176.4660  143.6580 C   0  0  0  0  0  2  0  0  0  0  0  0
  187.4440  177.0470  141.3420 C   0  0  2  0  0  3  0  0  0  0  0  0
  185.4270  177.3880  143.4180 C   0  0  2  0  0  3  0  0  0  0  0  0
  186.7100  178.3420  141.7310 C   0  0  0  0  0  2  0  0  0  0  0  0
  185.3990  178.0550  142.1610 O   0  0  0  0  0  0  0  0  0  0  0  0
  185.1260  178.3450  144.5820 C   0  0  2  0  0  0  0  0  0  0  0  0
  183.7500  178.8290  144.8730 C   0  0  0  0  0  2  0  0  0  0  0  0
  184.6500  179.5740  144.0890 O   0  0  0  0  0  0  0  0  0  0  0  0
  186.2230  178.5580  145.5430 N   0  0  0  0  0  2  0  0  0  0  0  0
  185.8460  178.2210  146.9150 C   0  0  2  0  0  3  0  0  0  0  0  0
  185.1480  179.2930  147.4830 O   0  0  0  0  0  1  0  0  0  0  0  0
  187.5510  179.1090  148.5010 C   0  0  0  0  0  1  0  0  0  0  0  0
  187.0770  177.8750  147.7440 C   0  0  2  0  0  3  0  0  0  0  0  0
  188.2500  175.8020  146.9670 C   0  0  0  0  0  1  0  0  0  0  0  0
  188.1980  177.3150  146.8750 C   0  0  0  0  0  2  0  0  0  0  0  0
  186.0530  177.3780  139.4130 O   0  0  0  0  0  1  0  0  0  0  0  0
  187.0970  176.6100  139.9260 C   0  0  0  0  0  2  0  0  0  0  0  0
  192.9670  176.5440  147.0010 O   0  0  0  0  0  0  0  0  0  0  0  0
  191.8460  176.8180  147.8400 C   0  0  0  0  0  1  0  0  0  0  0  0
  195.8930  173.6420  140.0780 C   0  0  0  0  0  2  0  0  0  0  0  0
  196.7940  175.2660  138.3370 N   0  0  0  0  0  2  0  0  0  0  0  0
  196.4350  174.9870  139.6920 C   0  0  0  0  0  0  0  0  0  0  0  0
  196.5350  175.8950  140.5600 O   0  0  0  0  0  0  0  0  0  0  0  0
  196.6730  174.2710  137.2810 C   0  0  0  0  0  2  0  0  0  0  0  0
  191.9470  174.4560  136.6340 N   0  0  0  0  0  2  0  0  0  0  0  0
  195.7810  176.2410  135.9830 C   0  0  1  0  0  3  0  0  0  0  0  0
  195.6620  174.7250  136.2250 C   0  0  2  0  0  3  0  0  0  0  0  0
  197.0440  176.5430  135.2050 C   0  0  0  0  0  1  0  0  0  0  0  0
  193.8380  172.6180  137.0850 S   0  0  0  0  0  0  0  0  0  0  0  0
  193.1980  175.0700  136.3850 C   0  0  0  0  0  0  0  0  0  0  0  0
  193.2980  176.5070  135.9590 C   0  0  0  0  0  2  0  0  0  0  0  0
  192.0730  173.0190  136.8190 C   0  0  1  0  0  3  0  0  0  0  0  0
  194.2550  174.2980  136.5840 C   0  0  0  0  0  0  0  0  0  0  0  0
  194.5890  176.7510  135.1880 C   0  0  0  0  0  2  0  0  0  0  0  0
  191.1060  172.4980  137.8830 C   0  0  0  0  0  2  0  0  0  0  0  0
  189.9540  171.5810  137.4470 C   0  0  2  0  0  0  0  0  0  0  0  0
  189.7510  170.5130  138.5380 C   0  0  0  0  0  2  0  0  0  0  0  0
  190.2340  170.9110  136.1110 C   0  0  0  0  0  0  0  0  0  0  0  0
  192.0500  169.8400  138.8580 O   0  0  0  0  0  1  0  0  0  0  0  0
  189.7560  171.3600  135.0770 O   0  0  0  0  0  0  0  0  0  0  0  0
  191.1650  169.7360  136.0440 C   0  0  0  0  0  2  0  0  0  0  0  0
  190.8130  168.7160  137.1290 C   0  0  0  0  0  2  0  0  0  0  0  0
  190.7820  169.3710  138.5100 C   0  0  2  0  0  3  0  0  0  0  0  0
  188.7820  172.3300  137.3670 O   0  0  0  0  0  1  0  0  0  0  0  0
  1 13  1  6  0  0  0
  1  8  1  0  0  0  0
  2  3  1  0  0  0  0
  2  8  2  0  0  0  0
  3  9  1  0  0  0  0
  4 10  2  0  0  0  0
  5  7  1  0  0  0  0
  5  6  2  0  0  0  0
  6  1  1  0  0  0  0
  7  2  1  0  0  0  0
  8  4  1  0  0  0  0
  9 11  2  0  0  0  0
 11 10  1  0  0  0  0
 11 44  1  0  0  0  0
 13 12  1  6  0  0  0
 13 14  1  0  0  0  0
 15 14  1  0  0  0  0
 16 15  2  0  0  0  0
 17 19  1  0  0  0  0
 17 15  1  0  0  0  0
 18 17  2  0  0  0  0
 19 20  1  0  0  0  0
 21 22  1  6  0  0  0
 21 24  1  0  0  0  0
 21 20  1  0  0  0  0
 23 24  2  0  0  0  0
 24 25  2  0  0  0  0
 26 24  1  1  0  0  0
 26 27  1  0  0  0  0
 28 43  1  6  0  0  0
 28 30  1  0  0  0  0
 28 26  1  0  0  0  0
 29 27  1  1  0  0  0
 29 32  1  0  0  0  0
 30 31  1  0  0  0  0
 31 29  1  0  0  0  0
 32 33  1  0  0  0  0
 32 35  1  1  0  0  0
 34 32  1  0  0  0  0
 34 33  1  0  0  0  0
 35 36  1  0  0  0  0
 36 37  1  1  0  0  0
 36 39  1  0  0  0  0
 39 38  1  6  0  0  0
 41 40  1  0  0  0  0
 41 39  1  0  0  0  0
 42 43  1  0  0  0  0
 44 45  1  0  0  0  0
 46  5  1  0  0  0  0
 47 48  1  0  0  0  0
 48 46  1  0  0  0  0
 48 49  2  0  0  0  0
 50 47  1  0  0  0  0
 51 58  1  0  0  0  0
 52 54  1  6  0  0  0
 52 53  1  0  0  0  0
 53 59  1  0  0  0  0
 53 50  1  1  0  0  0
 56 59  2  0  0  0  0
 56 51  1  0  0  0  0
 57 56  1  0  0  0  0
 58 55  1  0  0  0  0
 58 61  1  1  0  0  0
 59 55  1  0  0  0  0
 60 57  1  0  0  0  0
 60 52  1  0  0  0  0
 62 70  1  6  0  0  0
 62 61  1  0  0  0  0
 62 63  1  0  0  0  0
 64 62  1  0  0  0  0
 66 64  2  0  0  0  0
 67 64  1  0  0  0  0
 67 68  1  0  0  0  0
 68 69  1  0  0  0  0
 69 63  1  0  0  0  0
 69 65  1  6  0  0  0
M  END
>  <MODEL>
1

>  <REMARK>
 VINA RESULT:      -6.8      0.000      0.000
  Name = 
  22 active torsions:
  status: ('A' for Active; 'I' for Inactive)
    1  A    between atoms: C_1  and  S_58
    2  A    between atoms: C_2  and  C_64
    3  A    between atoms: C_4  and  C_41
    4  A    between atoms: C_4  and  N_43
    5  A    between atoms: C_7  and  C_31
    6  A    between atoms: C_7  and  C_45
    7  A    between atoms: C_9  and  C_25
    8  A    between atoms: C_11  and  C_23
    9  A    between atoms: C_11  and  C_32
   10  A    between atoms: C_16  and  C_27
   11  A    between atoms: C_17  and  C_29
   12  A    between atoms: C_19  and  C_54
   13  A    between atoms: N_22  and  C_49
   14  A    between atoms: C_23  and  C_64
   15  A    between atoms: C_25  and  C_50
   16  A    between atoms: C_26  and  C_49
   17  A    between atoms: C_27  and  C_35
   18  A    between atoms: C_29  and  C_60
   19  A    between atoms: C_31  and  C_32
   20  A    between atoms: C_35  and  N_43
   21  A    between atoms: O_39  and  C_70
   22  A    between atoms: C_45  and  S_58
                            x       y       z     vdW  Elec       q    Type
                         _______ _______ _______ _____ _____    ______ ____

>  <TORSDO>
F 22

$$$$
=
 OpenBabel11042419393D

 70 76  0  0  1  0  0  0  0  0999 V2000
  195.4210  173.3960  140.8720 C   0  0  1  0  0  3  0  0  0  0  0  0
  196.7740  171.3950  141.5060 C   0  0  0  0  0  0  0  0  0  0  0  0
  197.3430  170.4220  142.4900 C   0  0  0  0  0  2  0  0  0  0  0  0
  195.0870  172.2220  143.1360 C   0  0  0  0  0  3  0  0  0  0  0  0
  197.1070  172.5390  139.3180 C   0  0  0  0  0  0  0  0  0  0  0  0
  196.1940  173.4090  139.6210 N   0  0  0  0  0  0  0  0  0  0  0  0
  197.4260  171.4880  140.2390 N   0  0  0  0  0  2  0  0  0  0  0  0
  195.8130  172.2800  141.8420 C   0  0  0  0  0  0  0  0  0  0  0  0
  196.3320  169.4190  142.9480 C   0  0  0  0  0  3  0  0  0  0  0  0
  194.8370  171.1460  143.8910 C   0  0  0  0  0  3  0  0  0  0  0  0
  195.2260  169.7450  143.6240 C   0  0  0  0  0  0  0  0  0  0  0  0
  194.9910  175.8540  140.4980 C   0  0  0  0  0  1  0  0  0  0  0  0
  195.4580  174.8040  141.4900 C   0  0  2  0  0  3  0  0  0  0  0  0
  196.8460  175.1370  142.0330 C   0  0  0  0  0  2  0  0  0  0  0  0
  196.8010  175.8040  143.3720 C   0  0  0  0  0  0  0  0  0  0  0  0
  196.8360  177.0630  143.4300 O   0  0  0  0  0  0  0  0  0  0  0  0
  196.6720  175.0250  144.6130 C   0  0  0  0  0  0  0  0  0  0  0  0
  197.5740  174.2120  144.9500 O   0  0  0  0  0  0  0  0  0  0  0  0
  195.4870  175.2080  145.5080 C   0  0  0  0  0  2  0  0  0  0  0  0
  194.2230  175.4660  144.6990 C   0  0  0  0  0  2  0  0  0  0  0  0
  193.6750  176.8640  144.9840 C   0  0  2  0  0  3  0  0  0  0  0  0
  193.6630  177.0760  146.4880 C   0  0  0  0  0  1  0  0  0  0  0  0
  191.9330  176.3420  142.9800 O   0  0  0  0  0  0  0  0  0  0  0  0
  192.0220  177.0570  144.3010 S   0  0  0  0  0  0  0  0  0  0  0  0
  191.7170  178.5180  144.1020 O   0  0  0  0  0  0  0  0  0  0  0  0
  190.7990  176.3420  145.3950 C   0  0  1  0  0  3  0  0  0  0  0  0
  189.6940  177.3520  145.6780 C   0  0  0  0  0  2  0  0  0  0  0  0
  190.2220  175.0590  144.7780 C   0  0  2  0  0  3  0  0  0  0  0  0
  188.5650  176.7140  146.5130 C   0  0  2  0  0  3  0  0  0  0  0  0
  188.7080  174.9360  145.0210 C   0  0  0  0  0  2  0  0  0  0  0  0
  188.3900  175.3120  146.3420 O   0  0  0  0  0  0  0  0  0  0  0  0
  187.2300  177.4710  146.4450 C   0  0  2  0  0  0  0  0  0  0  0  0
  186.8110  178.4320  147.5000 C   0  0  0  0  0  2  0  0  0  0  0  0
  186.3990  177.0870  147.5150 O   0  0  0  0  0  0  0  0  0  0  0  0
  186.5040  177.3880  145.1660 N   0  0  0  0  0  2  0  0  0  0  0  0
  186.6070  178.6150  144.3770 C   0  0  2  0  0  3  0  0  0  0  0  0
  185.7700  179.5940  144.9250 O   0  0  0  0  0  1  0  0  0  0  0  0
  184.7570  178.0730  142.7970 C   0  0  0  0  0  1  0  0  0  0  0  0
  186.2500  178.3520  142.9180 C   0  0  2  0  0  3  0  0  0  0  0  0
  188.5310  177.5600  142.2500 C   0  0  0  0  0  1  0  0  0  0  0  0
  187.0610  177.1950  142.3430 C   0  0  0  0  0  2  0  0  0  0  0  0
  190.1830  172.6920  145.1740 O   0  0  0  0  0  1  0  0  0  0  0  0
  190.9720  173.8350  145.2840 C   0  0  0  0  0  2  0  0  0  0  0  0
  194.3790  168.7500  144.1270 O   0  0  0  0  0  0  0  0  0  0  0  0
  192.9820  168.9550  144.3410 C   0  0  0  0  0  1  0  0  0  0  0  0
  197.8710  172.7100  138.0420 C   0  0  0  0  0  2  0  0  0  0  0  0
  196.4400  171.4390  136.3620 N   0  0  0  0  0  2  0  0  0  0  0  0
  197.0140  172.6690  136.8100 C   0  0  0  0  0  0  0  0  0  0  0  0
  196.7610  173.7350  136.1880 O   0  0  0  0  0  0  0  0  0  0  0  0
  196.6680  170.1790  137.0540 C   0  0  0  0  0  2  0  0  0  0  0  0
  192.0010  169.4010  137.6830 N   0  0  0  0  0  2  0  0  0  0  0  0
  195.4300  169.0970  135.1420 C   0  0  1  0  0  3  0  0  0  0  0  0
  195.6000  169.1520  136.6710 C   0  0  2  0  0  3  0  0  0  0  0  0
  196.6200  168.4040  134.5130 C   0  0  0  0  0  1  0  0  0  0  0  0
  194.2030  169.6910  139.1740 S   0  0  0  0  0  0  0  0  0  0  0  0
  193.1140  169.2690  136.8180 C   0  0  0  0  0  0  0  0  0  0  0  0
  192.9430  169.0220  135.3460 C   0  0  0  0  0  2  0  0  0  0  0  0
  192.3970  169.4170  139.0820 C   0  0  1  0  0  3  0  0  0  0  0  0
  194.2970  169.4100  137.3960 C   0  0  0  0  0  0  0  0  0  0  0  0
  194.1710  168.3300  134.7700 C   0  0  0  0  0  2  0  0  0  0  0  0
  191.5360  170.3780  139.9030 C   0  0  0  0  0  2  0  0  0  0  0  0
  191.2360  171.7720  139.3320 C   0  0  2  0  0  0  0  0  0  0  0  0
  192.0980  172.7970  140.0920 C   0  0  0  0  0  2  0  0  0  0  0  0
  189.7650  172.1350  139.4600 C   0  0  0  0  0  0  0  0  0  0  0  0
  191.6620  172.0730  142.3560 O   0  0  0  0  0  1  0  0  0  0  0  0
  189.0070  172.0050  138.5080 O   0  0  0  0  0  0  0  0  0  0  0  0
  189.2170  172.5840  140.7830 C   0  0  0  0  0  2  0  0  0  0  0  0
  190.1220  173.6530  141.3980 C   0  0  0  0  0  2  0  0  0  0  0  0
  191.5680  173.1640  141.4890 C   0  0  2  0  0  3  0  0  0  0  0  0
  191.6200  171.8070  137.9940 O   0  0  0  0  0  1  0  0  0  0  0  0
  1 13  1  1  0  0  0
  1  8  1  0  0  0  0
  2  8  2  0  0  0  0
  2  3  1  0  0  0  0
  3  9  1  0  0  0  0
  4 10  2  0  0  0  0
  5  6  2  0  0  0  0
  5  7  1  0  0  0  0
  6  1  1  0  0  0  0
  7  2  1  0  0  0  0
  8  4  1  0  0  0  0
  9 11  2  0  0  0  0
 11 10  1  0  0  0  0
 11 44  1  0  0  0  0
 13 12  1  6  0  0  0
 13 14  1  0  0  0  0
 14 15  1  0  0  0  0
 15 16  2  0  0  0  0
 15 17  1  0  0  0  0
 17 18  2  0  0  0  0
 17 19  1  0  0  0  0
 20 21  1  0  0  0  0
 20 19  1  0  0  0  0
 21 22  1  1  0  0  0
 23 24  2  0  0  0  0
 24 21  1  0  0  0  0
 25 24  2  0  0  0  0
 26 24  1  6  0  0  0
 26 27  1  0  0  0  0
 28 30  1  0  0  0  0
 28 43  1  1  0  0  0
 28 26  1  0  0  0  0
 29 27  1  6  0  0  0
 30 31  1  0  0  0  0
 31 29  1  0  0  0  0
 32 35  1  6  0  0  0
 32 29  1  0  0  0  0
 32 33  1  0  0  0  0
 32 34  1  0  0  0  0
 33 34  1  0  0  0  0
 36 37  1  1  0  0  0
 36 35  1  0  0  0  0
 39 38  1  1  0  0  0
 39 36  1  0  0  0  0
 40 41  1  0  0  0  0
 41 39  1  0  0  0  0
 42 43  1  0  0  0  0
 44 45  1  0  0  0  0
 46  5  1  0  0  0  0
 47 48  1  0  0  0  0
 47 50  1  0  0  0  0
 48 46  1  0  0  0  0
 49 48  2  0  0  0  0
 51 58  1  0  0  0  0
 52 54  1  6  0  0  0
 52 53  1  0  0  0  0
 53 50  1  6  0  0  0
 53 59  1  0  0  0  0
 56 59  2  0  0  0  0
 56 51  1  0  0  0  0
 57 56  1  0  0  0  0
 58 55  1  0  0  0  0
 58 61  1  1  0  0  0
 59 55  1  0  0  0  0
 60 52  1  0  0  0  0
 60 57  1  0  0  0  0
 62 70  1  6  0  0  0
 62 64  1  0  0  0  0
 62 61  1  0  0  0  0
 62 63  1  0  0  0  0
 63 69  1  0  0  0  0
 64 67  1  0  0  0  0
 66 64  2  0  0  0  0
 67 68  1  0  0  0  0
 68 69  1  0  0  0  0
 69 65  1  1  0  0  0
M  END
>  <MODEL>
2

>  <REMARK>
 VINA RESULT:      -6.7      2.598      5.458
  Name = 
  22 active torsions:
  status: ('A' for Active; 'I' for Inactive)
    1  A    between atoms: C_1  and  S_58
    2  A    between atoms: C_2  and  C_64
    3  A    between atoms: C_4  and  C_41
    4  A    between atoms: C_4  and  N_43
    5  A    between atoms: C_7  and  C_31
    6  A    between atoms: C_7  and  C_45
    7  A    between atoms: C_9  and  C_25
    8  A    between atoms: C_11  and  C_23
    9  A    between atoms: C_11  and  C_32
   10  A    between atoms: C_16  and  C_27
   11  A    between atoms: C_17  and  C_29
   12  A    between atoms: C_19  and  C_54
   13  A    between atoms: N_22  and  C_49
   14  A    between atoms: C_23  and  C_64
   15  A    between atoms: C_25  and  C_50
   16  A    between atoms: C_26  and  C_49
   17  A    between atoms: C_27  and  C_35
   18  A    between atoms: C_29  and  C_60
   19  A    between atoms: C_31  and  C_32
   20  A    between atoms: C_35  and  N_43
   21  A    between atoms: O_39  and  C_70
   22  A    between atoms: C_45  and  S_58
                            x       y       z     vdW  Elec       q    Type
                         _______ _______ _______ _____ _____    ______ ____

>  <TORSDO>
F 22

$$$$
=
 OpenBabel11042419393D

 70 76  0  0  1  0  0  0  0  0999 V2000
  192.0920  174.9690  143.8280 C   0  0  1  0  0  3  0  0  0  0  0  0
  190.1070  175.5890  145.2120 C   0  0  0  0  0  0  0  0  0  0  0  0
  189.3680  175.7230  146.5050 C   0  0  0  0  0  2  0  0  0  0  0  0
  192.2970  175.3400  146.3650 C   0  0  0  0  0  3  0  0  0  0  0  0
  189.9060  175.2180  142.7560 C   0  0  0  0  0  0  0  0  0  0  0  0
  191.1700  174.9390  142.6830 N   0  0  0  0  0  0  0  0  0  0  0  0
  189.3230  175.5680  144.0180 N   0  0  0  0  0  2  0  0  0  0  0  0
  191.4280  175.3150  145.1610 C   0  0  0  0  0  0  0  0  0  0  0  0
  189.8240  176.9040  147.3020 C   0  0  0  0  0  3  0  0  0  0  0  0
  192.1440  176.0710  147.4750 C   0  0  0  0  0  3  0  0  0  0  0  0
  191.0650  177.0350  147.7800 C   0  0  0  0  0  0  0  0  0  0  0  0
  191.9750  172.4490  143.8610 C   0  0  0  0  0  1  0  0  0  0  0  0
  192.8940  173.6570  143.8500 C   0  0  2  0  0  3  0  0  0  0  0  0
  193.8680  173.6190  145.0250 C   0  0  0  0  0  2  0  0  0  0  0  0
  195.3010  173.6560  144.5930 C   0  0  0  0  0  0  0  0  0  0  0  0
  196.1790  173.1500  145.3440 O   0  0  0  0  0  0  0  0  0  0  0  0
  195.6980  174.2260  143.2970 C   0  0  0  0  0  0  0  0  0  0  0  0
  195.1040  175.2390  142.8400 O   0  0  0  0  0  0  0  0  0  0  0  0
  196.8280  173.6330  142.5170 C   0  0  0  0  0  2  0  0  0  0  0  0
  196.5130  172.2030  142.0950 C   0  0  0  0  0  2  0  0  0  0  0  0
  195.6400  172.1910  140.8400 C   0  0  2  0  0  3  0  0  0  0  0  0
  194.6760  171.0210  140.9390 C   0  0  0  0  0  1  0  0  0  0  0  0
  197.4150  170.7620  139.3790 O   0  0  0  0  0  0  0  0  0  0  0  0
  196.6510  172.0580  139.3580 S   0  0  0  0  0  0  0  0  0  0  0  0
  197.6180  173.2100  139.2930 O   0  0  0  0  0  0  0  0  0  0  0  0
  195.6250  172.0660  137.8910 C   0  0  1  0  0  3  0  0  0  0  0  0
  194.4170  172.9710  138.1010 C   0  0  0  0  0  2  0  0  0  0  0  0
  196.4440  172.5220  136.6740 C   0  0  2  0  0  3  0  0  0  0  0  0
  193.5900  173.0940  136.8040 C   0  0  2  0  0  3  0  0  0  0  0  0
  195.6310  173.4390  135.7450 C   0  0  0  0  0  2  0  0  0  0  0  0
  194.3190  172.9450  135.5910 O   0  0  0  0  0  0  0  0  0  0  0  0
  192.6610  174.3170  136.7670 C   0  0  2  0  0  0  0  0  0  0  0  0
  193.0470  175.5840  136.0900 C   0  0  0  0  0  2  0  0  0  0  0  0
  193.2410  175.3890  137.4700 O   0  0  0  0  0  0  0  0  0  0  0  0
  191.2750  174.0900  137.2140 N   0  0  0  0  0  2  0  0  0  0  0  0
  190.7970  172.7410  136.9120 C   0  0  2  0  0  3  0  0  0  0  0  0
  189.9250  172.7890  135.8190 O   0  0  0  0  0  1  0  0  0  0  0  0
  190.8870  172.4790  139.3890 C   0  0  0  0  0  1  0  0  0  0  0  0
  190.1110  172.1260  138.1270 C   0  0  2  0  0  3  0  0  0  0  0  0
  191.2820  169.9920  137.5330 C   0  0  0  0  0  1  0  0  0  0  0  0
  189.9750  170.6130  137.9860 C   0  0  0  0  0  2  0  0  0  0  0  0
  196.6760  171.3840  134.5730 O   0  0  0  0  0  1  0  0  0  0  0  0
  197.0070  171.3220  135.9250 C   0  0  0  0  0  2  0  0  0  0  0  0
  191.3980  178.1070  148.6180 O   0  0  0  0  0  0  0  0  0  0  0  0
  191.3790  178.0140  150.0420 C   0  0  0  0  0  1  0  0  0  0  0  0
  189.0630  175.0780  141.5270 C   0  0  0  0  0  2  0  0  0  0  0  0
  186.6130  175.7680  141.5860 N   0  0  0  0  0  2  0  0  0  0  0  0
  187.6210  174.7780  141.8080 C   0  0  0  0  0  0  0  0  0  0  0  0
  187.2850  173.6290  142.2030 O   0  0  0  0  0  0  0  0  0  0  0  0
  186.9310  177.1030  141.1020 C   0  0  0  0  0  2  0  0  0  0  0  0
  182.6390  178.6040  142.5550 N   0  0  0  0  0  2  0  0  0  0  0  0
  186.7670  177.9460  143.4730 C   0  0  1  0  0  3  0  0  0  0  0  0
  186.3220  178.1690  142.0160 C   0  0  2  0  0  3  0  0  0  0  0  0
  188.2200  178.3380  143.6370 C   0  0  0  0  0  1  0  0  0  0  0  0
  183.9940  178.3200  140.2660 S   0  0  0  0  0  0  0  0  0  0  0  0
  184.0020  178.4150  142.8930 C   0  0  0  0  0  0  0  0  0  0  0  0
  184.4610  178.3900  144.3230 C   0  0  0  0  0  2  0  0  0  0  0  0
  182.4560  178.8090  141.1280 C   0  0  1  0  0  3  0  0  0  0  0  0
  184.8170  178.2330  141.8660 C   0  0  0  0  0  0  0  0  0  0  0  0
  185.9280  178.7870  144.4230 C   0  0  0  0  0  2  0  0  0  0  0  0
  181.1720  178.1510  140.6210 C   0  0  0  0  0  2  0  0  0  0  0  0
  179.8220  178.6780  141.1310 C   0  0  2  0  0  0  0  0  0  0  0  0
  178.7830  177.5510  140.9890 C   0  0  0  0  0  2  0  0  0  0  0  0
  179.3640  179.9060  140.3620 C   0  0  0  0  0  0  0  0  0  0  0  0
  179.2650  176.8560  138.7250 O   0  0  0  0  0  1  0  0  0  0  0  0
  179.5380  181.0280  140.8190 O   0  0  0  0  0  0  0  0  0  0  0  0
  178.7620  179.7520  138.9950 C   0  0  0  0  0  2  0  0  0  0  0  0
  177.6950  178.6560  139.0050 C   0  0  0  0  0  2  0  0  0  0  0  0
  178.2570  177.3470  139.5570 C   0  0  2  0  0  3  0  0  0  0  0  0
  179.9350  178.9800  142.4850 O   0  0  0  0  0  1  0  0  0  0  0  0
  1 13  1  1  0  0  0
  1  8  1  0  0  0  0
  2  3  1  0  0  0  0
  3  9  1  0  0  0  0
  4 10  2  0  0  0  0
  5  7  1  0  0  0  0
  6  5  2  0  0  0  0
  6  1  1  0  0  0  0
  7  2  1  0  0  0  0
  8  2  2  0  0  0  0
  8  4  1  0  0  0  0
  9 11  2  0  0  0  0
 10 11  1  0  0  0  0
 11 44  1  0  0  0  0
 13 12  1  1  0  0  0
 13 14  1  0  0  0  0
 15 14  1  0  0  0  0
 15 16  2  0  0  0  0
 17 15  1  0  0  0  0
 18 17  2  0  0  0  0
 19 17  1  0  0  0  0
 20 19  1  0  0  0  0
 21 22  1  1  0  0  0
 21 20  1  0  0  0  0
 24 23  2  0  0  0  0
 24 21  1  0  0  0  0
 25 24  2  0  0  0  0
 26 27  1  0  0  0  0
 26 24  1  1  0  0  0
 28 43  1  6  0  0  0
 28 26  1  0  0  0  0
 29 27  1  1  0  0  0
 30 28  1  0  0  0  0
 31 30  1  0  0  0  0
 31 29  1  0  0  0  0
 32 29  1  0  0  0  0
 32 35  1  1  0  0  0
 32 34  1  0  0  0  0
 33 32  1  0  0  0  0
 33 34  1  0  0  0  0
 36 37  1  6  0  0  0
 36 35  1  0  0  0  0
 36 39  1  0  0  0  0
 39 38  1  1  0  0  0
 40 41  1  0  0  0  0
 41 39  1  0  0  0  0
 42 43  1  0  0  0  0
 44 45  1  0  0  0  0
 46 48  1  0  0  0  0
 46  5  1  0  0  0  0
 47 48  1  0  0  0  0
 48 49  2  0  0  0  0
 50 47  1  0  0  0  0
 51 56  1  0  0  0  0
 52 54  1  6  0  0  0
 52 60  1  0  0  0  0
 53 50  1  6  0  0  0
 53 52  1  0  0  0  0
 55 58  1  0  0  0  0
 55 59  1  0  0  0  0
 56 57  1  0  0  0  0
 57 60  1  0  0  0  0
 58 61  1  6  0  0  0
 58 51  1  0  0  0  0
 59 53  1  0  0  0  0
 59 56  2  0  0  0  0
 61 62  1  0  0  0  0
 62 70  1  1  0  0  0
 63 62  1  0  0  0  0
 64 66  2  0  0  0  0
 64 62  1  0  0  0  0
 67 68  1  0  0  0  0
 67 64  1  0  0  0  0
 68 69  1  0  0  0  0
 69 65  1  6  0  0  0
 69 63  1  0  0  0  0
M  END
>  <MODEL>
3

>  <REMARK>
 VINA RESULT:      -5.5      3.535     10.194
  Name = 
  22 active torsions:
  status: ('A' for Active; 'I' for Inactive)
    1  A    between atoms: C_1  and  S_58
    2  A    between atoms: C_2  and  C_64
    3  A    between atoms: C_4  and  C_41
    4  A    between atoms: C_4  and  N_43
    5  A    between atoms: C_7  and  C_31
    6  A    between atoms: C_7  and  C_45
    7  A    between atoms: C_9  and  C_25
    8  A    between atoms: C_11  and  C_23
    9  A    between atoms: C_11  and  C_32
   10  A    between atoms: C_16  and  C_27
   11  A    between atoms: C_17  and  C_29
   12  A    between atoms: C_19  and  C_54
   13  A    between atoms: N_22  and  C_49
   14  A    between atoms: C_23  and  C_64
   15  A    between atoms: C_25  and  C_50
   16  A    between atoms: C_26  and  C_49
   17  A    between atoms: C_27  and  C_35
   18  A    between atoms: C_29  and  C_60
   19  A    between atoms: C_31  and  C_32
   20  A    between atoms: C_35  and  N_43
   21  A    between atoms: O_39  and  C_70
   22  A    between atoms: C_45  and  S_58
                            x       y       z     vdW  Elec       q    Type
                         _______ _______ _______ _____ _____    ______ ____

>  <TORSDO>
F 22

$$$$
=
 OpenBabel11042419393D

 70 76  0  0  1  0  0  0  0  0999 V2000
  193.4230  174.5930  139.5820 C   0  0  1  0  0  3  0  0  0  0  0  0
  195.7860  174.6830  138.7760 C   0  0  0  0  0  0  0  0  0  0  0  0
  196.8670  174.4280  137.7750 C   0  0  0  0  0  2  0  0  0  0  0  0
  193.9930  174.3340  137.0880 C   0  0  0  0  0  3  0  0  0  0  0  0
  195.2360  174.9220  141.1940 C   0  0  0  0  0  0  0  0  0  0  0  0
  193.9740  174.7750  140.9340 N   0  0  0  0  0  0  0  0  0  0  0  0
  196.1930  174.8970  140.1280 N   0  0  0  0  0  2  0  0  0  0  0  0
  194.4780  174.5380  138.4760 C   0  0  0  0  0  0  0  0  0  0  0  0
  196.8380  175.4060  136.6440 C   0  0  0  0  0  3  0  0  0  0  0  0
  194.5590  174.7490  135.9490 C   0  0  0  0  0  3  0  0  0  0  0  0
  195.8140  175.5140  135.7910 C   0  0  0  0  0  0  0  0  0  0  0  0
  193.1390  172.1460  139.0360 C   0  0  0  0  0  1  0  0  0  0  0  0
  192.4690  173.3880  139.5970 C   0  0  2  0  0  3  0  0  0  0  0  0
  191.1700  173.6950  138.8540 C   0  0  0  0  0  2  0  0  0  0  0  0
  190.0680  172.7390  139.1900 C   0  0  0  0  0  0  0  0  0  0  0  0
  189.5990  172.0030  138.2800 O   0  0  0  0  0  0  0  0  0  0  0  0
  189.5560  172.6110  140.5620 C   0  0  0  0  0  0  0  0  0  0  0  0
  190.0200  171.7290  141.3340 O   0  0  0  0  0  0  0  0  0  0  0  0
  188.5020  173.5420  141.0730 C   0  0  0  0  0  2  0  0  0  0  0  0
  188.6690  174.9370  140.4830 C   0  0  0  0  0  2  0  0  0  0  0  0
  187.3670  175.4080  139.8350 C   0  0  2  0  0  3  0  0  0  0  0  0
  187.4990  175.2540  138.3300 C   0  0  0  0  0  1  0  0  0  0  0  0
  186.7180  177.9080  139.0270 O   0  0  0  0  0  0  0  0  0  0  0  0
  187.0160  177.1170  140.2720 S   0  0  0  0  0  0  0  0  0  0  0  0
  188.2030  177.7200  140.9770 O   0  0  0  0  0  0  0  0  0  0  0  0
  185.5840  177.2150  141.3400 C   0  0  1  0  0  3  0  0  0  0  0  0
  185.9800  177.7770  142.6990 C   0  0  0  0  0  2  0  0  0  0  0  0
  184.4940  178.0780  140.6870 C   0  0  2  0  0  3  0  0  0  0  0  0
  184.7380  177.9910  143.5900 C   0  0  2  0  0  3  0  0  0  0  0  0
  183.7820  178.9760  141.7130 C   0  0  0  0  0  2  0  0  0  0  0  0
  183.5230  178.2580  142.8990 O   0  0  0  0  0  0  0  0  0  0  0  0
  184.9620  178.9690  144.7540 C   0  0  2  0  0  0  0  0  0  0  0  0
  185.2050  180.4200  144.5320 C   0  0  0  0  0  2  0  0  0  0  0  0
  186.2620  179.5050  144.6940 O   0  0  0  0  0  0  0  0  0  0  0  0
  184.6750  178.4470  146.1010 N   0  0  0  0  0  2  0  0  0  0  0  0
  185.3340  177.1690  146.3650 C   0  0  2  0  0  3  0  0  0  0  0  0
  184.3690  176.1660  146.5090 O   0  0  0  0  0  1  0  0  0  0  0  0
  186.2160  178.6910  148.1310 C   0  0  0  0  0  1  0  0  0  0  0  0
  186.2110  177.2600  147.6090 C   0  0  2  0  0  3  0  0  0  0  0  0
  188.5550  177.9630  147.0710 C   0  0  0  0  0  1  0  0  0  0  0  0
  187.6340  176.7860  147.3270 C   0  0  0  0  0  2  0  0  0  0  0  0
  182.2370  177.7860  139.9220 O   0  0  0  0  0  1  0  0  0  0  0  0
  183.5070  177.2100  139.9210 C   0  0  0  0  0  2  0  0  0  0  0  0
  195.8960  176.3660  134.6820 O   0  0  0  0  0  0  0  0  0  0  0  0
  195.6400  177.7680  134.7600 C   0  0  0  0  0  1  0  0  0  0  0  0
  195.6700  175.0260  142.6230 C   0  0  0  0  0  2  0  0  0  0  0  0
  196.9580  172.8330  142.7330 N   0  0  0  0  0  2  0  0  0  0  0  0
  196.9120  174.2470  142.9400 C   0  0  0  0  0  0  0  0  0  0  0  0
  197.9410  174.8470  143.3510 O   0  0  0  0  0  0  0  0  0  0  0  0
  195.8140  172.0850  142.2300 C   0  0  0  0  0  2  0  0  0  0  0  0
  191.6020  171.4020  144.3700 N   0  0  0  0  0  2  0  0  0  0  0  0
  195.2880  169.7340  142.9750 C   0  0  1  0  0  3  0  0  0  0  0  0
  195.2010  171.2270  143.3390 C   0  0  2  0  0  3  0  0  0  0  0  0
  196.7170  169.2510  143.1060 C   0  0  0  0  0  1  0  0  0  0  0  0
  193.3470  173.3890  143.9680 S   0  0  0  0  0  0  0  0  0  0  0  0
  192.8160  170.8150  143.9360 C   0  0  0  0  0  0  0  0  0  0  0  0
  192.9540  169.3290  143.7650 C   0  0  0  0  0  2  0  0  0  0  0  0
  191.7590  172.8150  144.6700 C   0  0  1  0  0  3  0  0  0  0  0  0
  193.7910  171.6690  143.6660 C   0  0  0  0  0  0  0  0  0  0  0  0
  194.4110  168.9050  143.9000 C   0  0  0  0  0  2  0  0  0  0  0  0
  190.5230  173.6200  144.2650 C   0  0  0  0  0  2  0  0  0  0  0  0
  190.0200  174.7240  145.2070 C   0  0  2  0  0  0  0  0  0  0  0  0
  189.2880  175.7810  144.3590 C   0  0  0  0  0  2  0  0  0  0  0  0
  191.1560  175.3750  145.9790 C   0  0  0  0  0  0  0  0  0  0  0  0
  190.9130  176.0620  142.5930 O   0  0  0  0  0  1  0  0  0  0  0  0
  191.4010  175.0390  147.1300 O   0  0  0  0  0  0  0  0  0  0  0  0
  192.0380  176.3840  145.3030 C   0  0  0  0  0  2  0  0  0  0  0  0
  191.1900  177.4180  144.5600 C   0  0  0  0  0  2  0  0  0  0  0  0
  190.2170  176.7400  143.5960 C   0  0  2  0  0  3  0  0  0  0  0  0
  189.0950  174.1790  146.0930 O   0  0  0  0  0  1  0  0  0  0  0  0
  1 13  1  1  0  0  0
  1  6  1  0  0  0  0
  2  7  1  0  0  0  0
  3  2  1  0  0  0  0
  4  8  1  0  0  0  0
  5 46  1  0  0  0  0
  6  5  2  0  0  0  0
  7  5  1  0  0  0  0
  8  2  2  0  0  0  0
  8  1  1  0  0  0  0
  9  3  1  0  0  0  0
 10  4  2  0  0  0  0
 11 10  1  0  0  0  0
 11  9  2  0  0  0  0
 13 12  1  6  0  0  0
 14 15  1  0  0  0  0
 14 13  1  0  0  0  0
 15 17  1  0  0  0  0
 16 15  2  0  0  0  0
 17 19  1  0  0  0  0
 17 18  2  0  0  0  0
 20 19  1  0  0  0  0
 21 22  1  6  0  0  0
 21 24  1  0  0  0  0
 21 20  1  0  0  0  0
 23 24  2  0  0  0  0
 24 25  2  0  0  0  0
 26 24  1  6  0  0  0
 26 27  1  0  0  0  0
 28 43  1  1  0  0  0
 28 26  1  0  0  0  0
 28 30  1  0  0  0  0
 29 27  1  6  0  0  0
 29 32  1  0  0  0  0
 30 31  1  0  0  0  0
 31 29  1  0  0  0  0
 32 35  1  1  0  0  0
 33 34  1  0  0  0  0
 33 32  1  0  0  0  0
 34 32  1  0  0  0  0
 35 36  1  0  0  0  0
 36 37  1  1  0  0  0
 36 39  1  0  0  0  0
 39 38  1  6  0  0  0
 40 41  1  0  0  0  0
 41 39  1  0  0  0  0
 43 42  1  0  0  0  0
 44 45  1  0  0  0  0
 44 11  1  0  0  0  0
 46 48  1  0  0  0  0
 47 48  1  0  0  0  0
 48 49  2  0  0  0  0
 50 47  1  0  0  0  0
 51 58  1  0  0  0  0
 52 54  1  1  0  0  0
 52 53  1  0  0  0  0
 52 60  1  0  0  0  0
 53 50  1  6  0  0  0
 53 59  1  0  0  0  0
 55 58  1  0  0  0  0
 56 51  1  0  0  0  0
 57 60  1  0  0  0  0
 57 56  1  0  0  0  0
 58 61  1  6  0  0  0
 59 56  2  0  0  0  0
 59 55  1  0  0  0  0
 61 62  1  0  0  0  0
 62 64  1  0  0  0  0
 62 70  1  1  0  0  0
 63 62  1  0  0  0  0
 64 66  2  0  0  0  0
 67 64  1  0  0  0  0
 68 67  1  0  0  0  0
 69 65  1  6  0  0  0
 69 63  1  0  0  0  0
 69 68  1  0  0  0  0
M  END
>  <MODEL>
4

>  <REMARK>
 VINA RESULT:      -5.4      2.238      6.608
  Name = 
  22 active torsions:
  status: ('A' for Active; 'I' for Inactive)
    1  A    between atoms: C_1  and  S_58
    2  A    between atoms: C_2  and  C_64
    3  A    between atoms: C_4  and  C_41
    4  A    between atoms: C_4  and  N_43
    5  A    between atoms: C_7  and  C_31
    6  A    between atoms: C_7  and  C_45
    7  A    between atoms: C_9  and  C_25
    8  A    between atoms: C_11  and  C_23
    9  A    between atoms: C_11  and  C_32
   10  A    between atoms: C_16  and  C_27
   11  A    between atoms: C_17  and  C_29
   12  A    between atoms: C_19  and  C_54
   13  A    between atoms: N_22  and  C_49
   14  A    between atoms: C_23  and  C_64
   15  A    between atoms: C_25  and  C_50
   16  A    between atoms: C_26  and  C_49
   17  A    between atoms: C_27  and  C_35
   18  A    between atoms: C_29  and  C_60
   19  A    between atoms: C_31  and  C_32
   20  A    between atoms: C_35  and  N_43
   21  A    between atoms: O_39  and  C_70
   22  A    between atoms: C_45  and  S_58
                            x       y       z     vdW  Elec       q    Type
                         _______ _______ _______ _____ _____    ______ ____

>  <TORSDO>
F 22

$$$$
=
 OpenBabel11042419393D

 70 76  0  0  1  0  0  0  0  0999 V2000
  195.6600  171.3790  140.9490 C   0  0  1  0  0  3  0  0  0  0  0  0
  197.0130  172.5470  139.2040 C   0  0  0  0  0  0  0  0  0  0  0  0
  197.9120  172.5790  138.0090 C   0  0  0  0  0  2  0  0  0  0  0  0
  196.3600  170.1840  138.7820 C   0  0  0  0  0  3  0  0  0  0  0  0
  196.3460  173.7020  141.3080 C   0  0  0  0  0  0  0  0  0  0  0  0
  195.7470  172.6280  141.7210 N   0  0  0  0  0  0  0  0  0  0  0  0
  196.9900  173.7120  140.0280 N   0  0  0  0  0  2  0  0  0  0  0  0
  196.3880  171.4200  139.6050 C   0  0  0  0  0  0  0  0  0  0  0  0
  197.1740  172.3230  136.7330 C   0  0  0  0  0  3  0  0  0  0  0  0
  196.4250  170.0800  137.4500 C   0  0  0  0  0  3  0  0  0  0  0  0
  196.5450  171.1750  136.4640 C   0  0  0  0  0  0  0  0  0  0  0  0
  197.4910  169.7460  141.5350 C   0  0  0  0  0  1  0  0  0  0  0  0
  196.0810  170.2100  141.8540 C   0  0  2  0  0  3  0  0  0  0  0  0
  195.0880  169.0530  141.7680 C   0  0  0  0  0  2  0  0  0  0  0  0
  194.2720  168.8940  143.0130 C   0  0  0  0  0  0  0  0  0  0  0  0
  194.8480  168.5560  144.0820 O   0  0  0  0  0  0  0  0  0  0  0  0
  192.8270  169.1680  143.0240 C   0  0  0  0  0  0  0  0  0  0  0  0
  192.3400  169.9770  143.8580 O   0  0  0  0  0  0  0  0  0  0  0  0
  191.9200  168.5170  142.0280 C   0  0  0  0  0  2  0  0  0  0  0  0
  191.1350  169.5570  141.2390 C   0  0  0  0  0  2  0  0  0  0  0  0
  191.9210  170.0070  140.0070 C   0  0  2  0  0  3  0  0  0  0  0  0
  192.4420  171.4110  140.2590 C   0  0  0  0  0  1  0  0  0  0  0  0
  190.1000  168.6840  138.5050 O   0  0  0  0  0  0  0  0  0  0  0  0
  190.8870  169.9660  138.5360 S   0  0  0  0  0  0  0  0  0  0  0  0
  191.7480  170.0560  137.3030 O   0  0  0  0  0  0  0  0  0  0  0  0
  189.7230  171.3250  138.5440 C   0  0  1  0  0  3  0  0  0  0  0  0
  189.6290  171.9270  139.9400 C   0  0  0  0  0  2  0  0  0  0  0  0
  190.1420  172.3870  137.5180 C   0  0  2  0  0  3  0  0  0  0  0  0
  188.7300  173.1810  139.9400 C   0  0  2  0  0  3  0  0  0  0  0  0
  189.9190  173.8150  138.0450 C   0  0  0  0  0  2  0  0  0  0  0  0
  188.6810  173.9040  138.7150 O   0  0  0  0  0  0  0  0  0  0  0  0
  188.9480  174.1090  141.1450 C   0  0  2  0  0  0  0  0  0  0  0  0
  190.2830  174.2850  141.7760 C   0  0  0  0  0  2  0  0  0  0  0  0
  189.3450  173.3600  142.2690 O   0  0  0  0  0  0  0  0  0  0  0  0
  187.8270  175.0030  141.4830 N   0  0  0  0  0  2  0  0  0  0  0  0
  187.8550  176.2560  140.7290 C   0  0  2  0  0  3  0  0  0  0  0  0
  188.3990  177.2690  141.5270 O   0  0  0  0  0  1  0  0  0  0  0  0
  186.5550  177.5620  139.0510 C   0  0  0  0  0  1  0  0  0  0  0  0
  186.4560  176.6320  140.2530 C   0  0  2  0  0  3  0  0  0  0  0  0
  185.2760  178.7080  141.0120 C   0  0  0  0  0  1  0  0  0  0  0  0
  185.6410  177.2790  141.3680 C   0  0  0  0  0  2  0  0  0  0  0  0
  189.4100  173.3350  135.4370 O   0  0  0  0  0  1  0  0  0  0  0  0
  189.4320  172.1630  136.1900 C   0  0  0  0  0  2  0  0  0  0  0  0
  195.9720  170.9540  135.2050 O   0  0  0  0  0  0  0  0  0  0  0  0
  196.0460  169.6990  134.5290 C   0  0  0  0  0  1  0  0  0  0  0  0
  196.4230  174.8830  142.2240 C   0  0  0  0  0  2  0  0  0  0  0  0
  194.3480  176.3570  142.1530 N   0  0  0  0  0  2  0  0  0  0  0  0
  195.6860  176.0900  141.7240 C   0  0  0  0  0  0  0  0  0  0  0  0
  196.2640  176.9030  140.9530 O   0  0  0  0  0  0  0  0  0  0  0  0
  193.6370  175.4760  143.0670 C   0  0  0  0  0  2  0  0  0  0  0  0
  190.4290  176.9740  146.2690 N   0  0  0  0  0  2  0  0  0  0  0  0
  194.1970  175.0990  145.4970 C   0  0  1  0  0  3  0  0  0  0  0  0
  193.5930  176.0780  144.4730 C   0  0  2  0  0  3  0  0  0  0  0  0
  195.7010  175.0470  145.3390 C   0  0  0  0  0  1  0  0  0  0  0  0
  191.1700  177.5350  143.7600 S   0  0  0  0  0  0  0  0  0  0  0  0
  191.6880  176.3630  146.0560 C   0  0  0  0  0  0  0  0  0  0  0  0
  192.3660  175.5630  147.1310 C   0  0  0  0  0  2  0  0  0  0  0  0
  190.0670  177.8680  145.1810 C   0  0  1  0  0  3  0  0  0  0  0  0
  192.1950  176.5240  144.8430 C   0  0  0  0  0  0  0  0  0  0  0  0
  193.8740  175.5420  146.9150 C   0  0  0  0  0  2  0  0  0  0  0  0
  188.5670  177.8210  144.8840 C   0  0  0  0  0  2  0  0  0  0  0  0
  187.8040  176.5140  145.1460 C   0  0  2  0  0  0  0  0  0  0  0  0
  186.4720  176.5740  144.3770 C   0  0  0  0  0  2  0  0  0  0  0  0
  187.5380  176.2970  146.6280 C   0  0  0  0  0  0  0  0  0  0  0  0
  185.7470  178.7870  145.0200 O   0  0  0  0  0  1  0  0  0  0  0  0
  188.2570  175.5590  147.2880 O   0  0  0  0  0  0  0  0  0  0  0  0
  186.4340  177.0530  147.3080 C   0  0  0  0  0  2  0  0  0  0  0  0
  185.1490  176.9730  146.4820 C   0  0  0  0  0  2  0  0  0  0  0  0
  185.3890  177.4370  145.0450 C   0  0  2  0  0  3  0  0  0  0  0  0
  188.5400  175.4480  144.6350 O   0  0  0  0  0  1  0  0  0  0  0  0
  1  6  1  0  0  0  0
  1 13  1  1  0  0  0
  2  8  2  0  0  0  0
  2  7  1  0  0  0  0
  3  2  1  0  0  0  0
  4  8  1  0  0  0  0
  5  6  2  0  0  0  0
  5 46  1  0  0  0  0
  7  5  1  0  0  0  0
  8  1  1  0  0  0  0
  9  3  1  0  0  0  0
 10  4  2  0  0  0  0
 11  9  2  0  0  0  0
 11 10  1  0  0  0  0
 13 12  1  6  0  0  0
 14 13  1  0  0  0  0
 14 15  1  0  0  0  0
 15 17  1  0  0  0  0
 15 16  2  0  0  0  0
 17 18  2  0  0  0  0
 19 17  1  0  0  0  0
 20 19  1  0  0  0  0
 21 22  1  1  0  0  0
 21 20  1  0  0  0  0
 23 24  2  0  0  0  0
 24 21  1  0  0  0  0
 25 24  2  0  0  0  0
 26 24  1  1  0  0  0
 26 27  1  0  0  0  0
 28 43  1  6  0  0  0
 28 30  1  0  0  0  0
 28 26  1  0  0  0  0
 29 27  1  6  0  0  0
 29 32  1  0  0  0  0
 30 31  1  0  0  0  0
 31 29  1  0  0  0  0
 32 35  1  1  0  0  0
 32 33  1  0  0  0  0
 32 34  1  0  0  0  0
 33 34  1  0  0  0  0
 36 35  1  0  0  0  0
 36 37  1  1  0  0  0
 39 38  1  6  0  0  0
 39 36  1  0  0  0  0
 39 41  1  0  0  0  0
 40 41  1  0  0  0  0
 42 43  1  0  0  0  0
 44 11  1  0  0  0  0
 45 44  1  0  0  0  0
 47 50  1  0  0  0  0
 48 47  1  0  0  0  0
 48 46  1  0  0  0  0
 49 48  2  0  0  0  0
 52 54  1  1  0  0  0
 52 60  1  0  0  0  0
 53 50  1  6  0  0  0
 53 59  1  0  0  0  0
 53 52  1  0  0  0  0
 55 59  1  0  0  0  0
 55 58  1  0  0  0  0
 56 51  1  0  0  0  0
 56 57  1  0  0  0  0
 58 61  1  6  0  0  0
 58 51  1  0  0  0  0
 59 56  2  0  0  0  0
 60 57  1  0  0  0  0
 61 62  1  0  0  0  0
 62 70  1  6  0  0  0
 62 64  1  0  0  0  0
 63 69  1  0  0  0  0
 63 62  1  0  0  0  0
 64 66  2  0  0  0  0
 64 67  1  0  0  0  0
 68 67  1  0  0  0  0
 69 65  1  1  0  0  0
 69 68  1  0  0  0  0
M  END
>  <MODEL>
5

>  <REMARK>
 VINA RESULT:      -5.4      2.496      8.059
  Name = 
  22 active torsions:
  status: ('A' for Active; 'I' for Inactive)
    1  A    between atoms: C_1  and  S_58
    2  A    between atoms: C_2  and  C_64
    3  A    between atoms: C_4  and  C_41
    4  A    between atoms: C_4  and  N_43
    5  A    between atoms: C_7  and  C_31
    6  A    between atoms: C_7  and  C_45
    7  A    between atoms: C_9  and  C_25
    8  A    between atoms: C_11  and  C_23
    9  A    between atoms: C_11  and  C_32
   10  A    between atoms: C_16  and  C_27
   11  A    between atoms: C_17  and  C_29
   12  A    between atoms: C_19  and  C_54
   13  A    between atoms: N_22  and  C_49
   14  A    between atoms: C_23  and  C_64
   15  A    between atoms: C_25  and  C_50
   16  A    between atoms: C_26  and  C_49
   17  A    between atoms: C_27  and  C_35
   18  A    between atoms: C_29  and  C_60
   19  A    between atoms: C_31  and  C_32
   20  A    between atoms: C_35  and  N_43
   21  A    between atoms: O_39  and  C_70
   22  A    between atoms: C_45  and  S_58
                            x       y       z     vdW  Elec       q    Type
                         _______ _______ _______ _____ _____    ______ ____

>  <TORSDO>
F 22

$$$$
=
 OpenBabel11042419393D

 70 76  0  0  1  0  0  0  0  0999 V2000
  187.9270  174.4190  138.4840 C   0  0  1  0  0  3  0  0  0  0  0  0
  187.7380  175.7590  140.5830 C   0  0  0  0  0  0  0  0  0  0  0  0
  187.5650  177.0360  141.3440 C   0  0  0  0  0  2  0  0  0  0  0  0
  186.9020  176.7790  138.4740 C   0  0  0  0  0  3  0  0  0  0  0  0
  188.7410  173.4790  140.5920 C   0  0  0  0  0  0  0  0  0  0  0  0
  188.5600  173.3820  139.3120 N   0  0  0  0  0  0  0  0  0  0  0  0
  188.3250  174.6630  141.2850 N   0  0  0  0  0  2  0  0  0  0  0  0
  187.5270  175.6800  139.2520 C   0  0  0  0  0  0  0  0  0  0  0  0
  186.1440  177.5010  141.3620 C   0  0  0  0  0  3  0  0  0  0  0  0
  186.0270  177.6960  138.9010 C   0  0  0  0  0  3  0  0  0  0  0  0
  185.4670  177.8450  140.2610 C   0  0  0  0  0  0  0  0  0  0  0  0
  188.0160  174.6600  135.9740 C   0  0  0  0  0  1  0  0  0  0  0  0
  188.8200  174.6880  137.2610 C   0  0  2  0  0  3  0  0  0  0  0  0
  189.9910  173.7110  137.2010 C   0  0  0  0  0  2  0  0  0  0  0  0
  190.9080  173.9740  136.0470 C   0  0  0  0  0  0  0  0  0  0  0  0
  191.0830  173.0680  135.1870 O   0  0  0  0  0  0  0  0  0  0  0  0
  191.5690  175.2760  135.8730 C   0  0  0  0  0  0  0  0  0  0  0  0
  191.0740  176.1420  135.1020 O   0  0  0  0  0  0  0  0  0  0  0  0
  192.8170  175.6040  136.6290 C   0  0  0  0  0  2  0  0  0  0  0  0
  193.9180  174.5930  136.3350 C   0  0  0  0  0  2  0  0  0  0  0  0
  194.3110  173.8380  137.6050 C   0  0  2  0  0  3  0  0  0  0  0  0
  193.8300  174.6370  138.8040 C   0  0  0  0  0  1  0  0  0  0  0  0
  196.6750  174.4230  138.7860 O   0  0  0  0  0  0  0  0  0  0  0  0
  196.0910  173.5880  137.6780 S   0  0  0  0  0  0  0  0  0  0  0  0
  196.7170  173.9850  136.3680 O   0  0  0  0  0  0  0  0  0  0  0  0
  196.4740  171.8740  138.0220 C   0  0  1  0  0  3  0  0  0  0  0  0
  196.2940  171.5840  139.5060 C   0  0  0  0  0  2  0  0  0  0  0  0
  195.5860  170.9530  137.1730 C   0  0  2  0  0  3  0  0  0  0  0  0
  196.4930  170.0820  139.8020 C   0  0  2  0  0  3  0  0  0  0  0  0
  195.1170  169.7200  137.9640 C   0  0  0  0  0  2  0  0  0  0  0  0
  196.1760  169.1970  138.7340 O   0  0  0  0  0  0  0  0  0  0  0  0
  195.8820  169.6180  141.1320 C   0  0  2  0  0  0  0  0  0  0  0  0
  195.6620  168.1800  141.4440 C   0  0  0  0  0  2  0  0  0  0  0  0
  194.6440  168.9890  140.9040 O   0  0  0  0  0  0  0  0  0  0  0  0
  195.7580  170.6470  142.1800 N   0  0  0  0  0  2  0  0  0  0  0  0
  196.8960  170.6580  143.0990 C   0  0  2  0  0  3  0  0  0  0  0  0
  197.6970  169.5350  142.8630 O   0  0  0  0  0  1  0  0  0  0  0  0
  197.5900  170.3970  145.4780 C   0  0  0  0  0  1  0  0  0  0  0  0
  196.4210  170.6920  144.5470 C   0  0  2  0  0  3  0  0  0  0  0  0
  194.7140  169.8640  146.1840 C   0  0  0  0  0  1  0  0  0  0  0  0
  195.2810  169.7070  144.7860 C   0  0  0  0  0  2  0  0  0  0  0  0
  195.5520  169.6130  135.1800 O   0  0  0  0  0  1  0  0  0  0  0  0
  196.2970  170.5560  135.8870 C   0  0  0  0  0  2  0  0  0  0  0  0
  184.1790  178.3840  140.3550 O   0  0  0  0  0  0  0  0  0  0  0  0
  183.0120  177.6860  139.9210 C   0  0  0  0  0  1  0  0  0  0  0  0
  189.4650  172.3790  141.3040 C   0  0  0  0  0  2  0  0  0  0  0  0
  191.7910  172.7740  142.2630 N   0  0  0  0  0  2  0  0  0  0  0  0
  190.9570  172.4350  141.1520 C   0  0  0  0  0  0  0  0  0  0  0  0
  191.4860  172.1380  140.0470 O   0  0  0  0  0  0  0  0  0  0  0  0
  191.2440  173.0970  143.5730 C   0  0  0  0  0  2  0  0  0  0  0  0
  190.4740  176.6780  146.6340 N   0  0  0  0  0  2  0  0  0  0  0  0
  193.1780  173.7640  145.0480 C   0  0  1  0  0  3  0  0  0  0  0  0
  191.9980  174.2720  144.1980 C   0  0  2  0  0  3  0  0  0  0  0  0
  194.2860  173.2610  144.1480 C   0  0  0  0  0  1  0  0  0  0  0  0
  189.5140  175.7970  144.2980 S   0  0  0  0  0  0  0  0  0  0  0  0
  191.4030  175.7380  146.1250 C   0  0  0  0  0  0  0  0  0  0  0  0
  192.6570  175.3870  146.8740 C   0  0  0  0  0  2  0  0  0  0  0  0
  189.4570  177.0220  145.6540 C   0  0  1  0  0  3  0  0  0  0  0  0
  191.0670  175.1810  144.9720 C   0  0  0  0  0  0  0  0  0  0  0  0
  193.7310  174.8820  145.9180 C   0  0  0  0  0  2  0  0  0  0  0  0
  188.0890  177.2280  146.3070 C   0  0  0  0  0  2  0  0  0  0  0  0
  186.9820  177.9190  145.4980 C   0  0  2  0  0  0  0  0  0  0  0  0
  186.5870  179.2130  146.2330 C   0  0  0  0  0  2  0  0  0  0  0  0
  185.7620  177.0270  145.3260 C   0  0  0  0  0  0  0  0  0  0  0  0
  186.3630  178.3380  148.4750 O   0  0  0  0  0  1  0  0  0  0  0  0
  185.5920  176.3970  144.2910 O   0  0  0  0  0  0  0  0  0  0  0  0
  184.7950  176.8550  146.4610 C   0  0  0  0  0  2  0  0  0  0  0  0
  184.4250  178.2160  147.0550 C   0  0  0  0  0  2  0  0  0  0  0  0
  185.6760  178.9990  147.4540 C   0  0  2  0  0  3  0  0  0  0  0  0
  187.4870  178.2790  144.2510 O   0  0  0  0  0  1  0  0  0  0  0  0
  1 13  1  6  0  0  0
  1  8  1  0  0  0  0
  1  6  1  0  0  0  0
  2  7  1  0  0  0  0
  2  3  1  0  0  0  0
  3  9  1  0  0  0  0
  4 10  2  0  0  0  0
  4  8  1  0  0  0  0
  5  7  1  0  0  0  0
  5 46  1  0  0  0  0
  6  5  2  0  0  0  0
  8  2  2  0  0  0  0
 10 11  1  0  0  0  0
 11 44  1  0  0  0  0
 11  9  2  0  0  0  0
 13 12  1  6  0  0  0
 14 13  1  0  0  0  0
 15 14  1  0  0  0  0
 16 15  2  0  0  0  0
 17 15  1  0  0  0  0
 17 19  1  0  0  0  0
 18 17  2  0  0  0  0
 20 19  1  0  0  0  0
 20 21  1  0  0  0  0
 21 24  1  0  0  0  0
 21 22  1  1  0  0  0
 24 23  2  0  0  0  0
 25 24  2  0  0  0  0
 26 24  1  1  0  0  0
 26 27  1  0  0  0  0
 28 43  1  6  0  0  0
 28 30  1  0  0  0  0
 28 26  1  0  0  0  0
 29 27  1  6  0  0  0
 29 32  1  0  0  0  0
 30 31  1  0  0  0  0
 31 29  1  0  0  0  0
 32 33  1  0  0  0  0
 32 35  1  1  0  0  0
 34 32  1  0  0  0  0
 34 33  1  0  0  0  0
 35 36  1  0  0  0  0
 36 37  1  1  0  0  0
 36 39  1  0  0  0  0
 39 41  1  0  0  0  0
 39 38  1  1  0  0  0
 41 40  1  0  0  0  0
 42 43  1  0  0  0  0
 45 44  1  0  0  0  0
 47 50  1  0  0  0  0
 48 46  1  0  0  0  0
 48 47  1  0  0  0  0
 49 48  2  0  0  0  0
 52 54  1  6  0  0  0
 52 60  1  0  0  0  0
 53 50  1  1  0  0  0
 53 59  1  0  0  0  0
 53 52  1  0  0  0  0
 55 59  1  0  0  0  0
 55 58  1  0  0  0  0
 56 51  1  0  0  0  0
 56 57  1  0  0  0  0
 58 61  1  1  0  0  0
 58 51  1  0  0  0  0
 59 56  2  0  0  0  0
 60 57  1  0  0  0  0
 62 70  1  6  0  0  0
 62 63  1  0  0  0  0
 62 61  1  0  0  0  0
 63 69  1  0  0  0  0
 64 62  1  0  0  0  0
 64 67  1  0  0  0  0
 66 64  2  0  0  0  0
 67 68  1  0  0  0  0
 68 69  1  0  0  0  0
 69 65  1  1  0  0  0
M  END
>  <MODEL>
6

>  <REMARK>
 VINA RESULT:      -5.1      2.654     10.573
  Name = 
  22 active torsions:
  status: ('A' for Active; 'I' for Inactive)
    1  A    between atoms: C_1  and  S_58
    2  A    between atoms: C_2  and  C_64
    3  A    between atoms: C_4  and  C_41
    4  A    between atoms: C_4  and  N_43
    5  A    between atoms: C_7  and  C_31
    6  A    between atoms: C_7  and  C_45
    7  A    between atoms: C_9  and  C_25
    8  A    between atoms: C_11  and  C_23
    9  A    between atoms: C_11  and  C_32
   10  A    between atoms: C_16  and  C_27
   11  A    between atoms: C_17  and  C_29
   12  A    between atoms: C_19  and  C_54
   13  A    between atoms: N_22  and  C_49
   14  A    between atoms: C_23  and  C_64
   15  A    between atoms: C_25  and  C_50
   16  A    between atoms: C_26  and  C_49
   17  A    between atoms: C_27  and  C_35
   18  A    between atoms: C_29  and  C_60
   19  A    between atoms: C_31  and  C_32
   20  A    between atoms: C_35  and  N_43
   21  A    between atoms: O_39  and  C_70
   22  A    between atoms: C_45  and  S_58
                            x       y       z     vdW  Elec       q    Type
                         _______ _______ _______ _____ _____    ______ ____

>  <TORSDO>
F 22

$$$$
=
 OpenBabel11042419393D

 70 76  0  0  1  0  0  0  0  0999 V2000
  196.0030  172.4010  142.6010 C   0  0  1  0  0  3  0  0  0  0  0  0
  196.5930  169.9740  142.5350 C   0  0  0  0  0  0  0  0  0  0  0  0
  197.2980  168.7560  143.0400 C   0  0  0  0  0  2  0  0  0  0  0  0
  196.9780  171.2080  144.6600 C   0  0  0  0  0  3  0  0  0  0  0  0
  195.6600  171.1310  140.5360 C   0  0  0  0  0  0  0  0  0  0  0  0
  195.6090  172.2490  141.1920 N   0  0  0  0  0  0  0  0  0  0  0  0
  196.1390  169.9450  141.1820 N   0  0  0  0  0  2  0  0  0  0  0  0
  196.5400  171.1210  143.2440 C   0  0  0  0  0  0  0  0  0  0  0  0
  196.6440  168.1810  144.2550 C   0  0  0  0  0  3  0  0  0  0  0  0
  196.9790  170.2380  145.5820 C   0  0  0  0  0  3  0  0  0  0  0  0
  196.5450  168.8340  145.4170 C   0  0  0  0  0  0  0  0  0  0  0  0
  197.6730  173.6090  144.0560 C   0  0  0  0  0  1  0  0  0  0  0  0
  196.9510  173.6060  142.7210 C   0  0  2  0  0  3  0  0  0  0  0  0
  196.2100  174.9220  142.4930 C   0  0  0  0  0  2  0  0  0  0  0  0
  196.4980  175.9410  143.5510 C   0  0  0  0  0  0  0  0  0  0  0  0
  197.4600  176.7390  143.3840 O   0  0  0  0  0  0  0  0  0  0  0  0
  195.6590  176.0590  144.7520 C   0  0  0  0  0  0  0  0  0  0  0  0
  195.4200  177.1900  145.2530 O   0  0  0  0  0  0  0  0  0  0  0  0
  195.0520  174.8440  145.3800 C   0  0  0  0  0  2  0  0  0  0  0  0
  194.1770  175.2200  146.5700 C   0  0  0  0  0  2  0  0  0  0  0  0
  192.7280  174.7990  146.3290 C   0  0  2  0  0  3  0  0  0  0  0  0
  192.6860  173.9090  145.0990 C   0  0  0  0  0  1  0  0  0  0  0  0
  192.4970  177.4920  146.1980 O   0  0  0  0  0  0  0  0  0  0  0  0
  191.6710  176.2380  146.1100 S   0  0  0  0  0  0  0  0  0  0  0  0
  190.6090  176.2600  147.1770 O   0  0  0  0  0  0  0  0  0  0  0  0
  190.8890  176.2080  144.5000 C   0  0  1  0  0  3  0  0  0  0  0  0
  189.3780  176.3390  144.6490 C   0  0  0  0  0  2  0  0  0  0  0  0
  191.4510  177.3320  143.6180 C   0  0  2  0  0  3  0  0  0  0  0  0
  188.6960  176.4470  143.2680 C   0  0  2  0  0  3  0  0  0  0  0  0
  190.3550  177.9980  142.7680 C   0  0  0  0  0  2  0  0  0  0  0  0
  189.4860  177.0230  142.2350 O   0  0  0  0  0  0  0  0  0  0  0  0
  187.2830  177.0460  143.3120 C   0  0  2  0  0  0  0  0  0  0  0  0
  186.0820  176.2730  142.8950 C   0  0  0  0  0  2  0  0  0  0  0  0
  186.7540  177.1380  142.0110 O   0  0  0  0  0  0  0  0  0  0  0  0
  187.1470  178.3300  144.0220 N   0  0  0  0  0  2  0  0  0  0  0  0
  185.7590  178.6510  144.3510 C   0  0  2  0  0  3  0  0  0  0  0  0
  185.5860  180.0390  144.3440 O   0  0  0  0  0  1  0  0  0  0  0  0
  184.0500  178.6560  146.1650 C   0  0  0  0  0  1  0  0  0  0  0  0
  185.3760  178.0640  145.7050 C   0  0  2  0  0  3  0  0  0  0  0  0
  186.0870  177.6760  148.0760 C   0  0  0  0  0  1  0  0  0  0  0  0
  186.4630  178.3050  146.7480 C   0  0  0  0  0  2  0  0  0  0  0  0
  192.8580  175.4770  143.0310 O   0  0  0  0  0  1  0  0  0  0  0  0
  192.5940  176.8170  142.7540 C   0  0  0  0  0  2  0  0  0  0  0  0
  196.0270  168.1990  146.5520 O   0  0  0  0  0  0  0  0  0  0  0  0
  194.9260  168.7180  147.2980 C   0  0  0  0  0  1  0  0  0  0  0  0
  195.2970  171.1300  139.0830 C   0  0  0  0  0  2  0  0  0  0  0  0
  196.4970  172.8620  137.6540 N   0  0  0  0  0  2  0  0  0  0  0  0
  196.4210  171.5330  138.1750 C   0  0  0  0  0  0  0  0  0  0  0  0
  197.3330  170.7070  137.9020 O   0  0  0  0  0  0  0  0  0  0  0  0
  195.4930  173.8730  137.9570 C   0  0  0  0  0  2  0  0  0  0  0  0
  191.1190  174.9890  136.4070 N   0  0  0  0  0  2  0  0  0  0  0  0
  195.3310  175.7300  136.2590 C   0  0  1  0  0  3  0  0  0  0  0  0
  194.8010  174.3460  136.6780 C   0  0  2  0  0  3  0  0  0  0  0  0
  196.7320  175.6010  135.7020 C   0  0  0  0  0  1  0  0  0  0  0  0
  192.3980  172.8860  137.4520 S   0  0  0  0  0  0  0  0  0  0  0  0
  192.5070  175.2550  136.3180 C   0  0  0  0  0  0  0  0  0  0  0  0
  193.0270  176.5350  135.7290 C   0  0  0  0  0  2  0  0  0  0  0  0
  190.8520  173.6170  136.8050 C   0  0  1  0  0  3  0  0  0  0  0  0
  193.2940  174.3140  136.8180 C   0  0  0  0  0  0  0  0  0  0  0  0
  194.4400  176.3440  135.1910 C   0  0  0  0  0  2  0  0  0  0  0  0
  189.6350  173.5220  137.7270 C   0  0  0  0  0  2  0  0  0  0  0  0
  189.6210  172.4460  138.8230 C   0  0  2  0  0  0  0  0  0  0  0  0
  188.2710  172.5290  139.5590 C   0  0  0  0  0  2  0  0  0  0  0  0
  190.7630  172.6260  139.8110 C   0  0  0  0  0  0  0  0  0  0  0  0
  188.1670  174.9160  139.9210 O   0  0  0  0  0  1  0  0  0  0  0  0
  191.7850  171.9610  139.7090 O   0  0  0  0  0  0  0  0  0  0  0  0
  190.6720  173.6800  140.8760 C   0  0  0  0  0  2  0  0  0  0  0  0
  189.3160  173.6080  141.5800 C   0  0  0  0  0  2  0  0  0  0  0  0
  188.1690  173.6810  140.5730 C   0  0  2  0  0  3  0  0  0  0  0  0
  189.7010  171.1900  138.2270 O   0  0  0  0  0  1  0  0  0  0  0  0
  1 13  1  6  0  0  0
  1  8  1  0  0  0  0
  2  3  1  0  0  0  0
  2  8  2  0  0  0  0
  3  9  1  0  0  0  0
  4 10  2  0  0  0  0
  5  7  1  0  0  0  0
  5  6  2  0  0  0  0
  6  1  1  0  0  0  0
  7  2  1  0  0  0  0
  8  4  1  0  0  0  0
  9 11  2  0  0  0  0
 11 10  1  0  0  0  0
 11 44  1  0  0  0  0
 13 12  1  1  0  0  0
 14 13  1  0  0  0  0
 14 15  1  0  0  0  0
 15 17  1  0  0  0  0
 16 15  2  0  0  0  0
 17 18  2  0  0  0  0
 17 19  1  0  0  0  0
 19 20  1  0  0  0  0
 21 22  1  6  0  0  0
 21 20  1  0  0  0  0
 24 23  2  0  0  0  0
 24 21  1  0  0  0  0
 24 25  2  0  0  0  0
 26 27  1  0  0  0  0
 26 24  1  1  0  0  0
 28 43  1  6  0  0  0
 28 26  1  0  0  0  0
 29 32  1  0  0  0  0
 29 27  1  1  0  0  0
 30 28  1  0  0  0  0
 31 30  1  0  0  0  0
 31 29  1  0  0  0  0
 32 35  1  1  0  0  0
 33 32  1  0  0  0  0
 34 33  1  0  0  0  0
 34 32  1  0  0  0  0
 35 36  1  0  0  0  0
 36 37  1  1  0  0  0
 36 39  1  0  0  0  0
 39 38  1  1  0  0  0
 39 41  1  0  0  0  0
 41 40  1  0  0  0  0
 43 42  1  0  0  0  0
 44 45  1  0  0  0  0
 46  5  1  0  0  0  0
 47 50  1  0  0  0  0
 47 48  1  0  0  0  0
 48 46  1  0  0  0  0
 49 48  2  0  0  0  0
 51 58  1  0  0  0  0
 52 54  1  6  0  0  0
 52 53  1  0  0  0  0
 53 59  1  0  0  0  0
 53 50  1  1  0  0  0
 56 51  1  0  0  0  0
 56 59  2  0  0  0  0
 57 56  1  0  0  0  0
 58 55  1  0  0  0  0
 58 61  1  1  0  0  0
 59 55  1  0  0  0  0
 60 57  1  0  0  0  0
 60 52  1  0  0  0  0
 61 62  1  0  0  0  0
 62 70  1  6  0  0  0
 62 63  1  0  0  0  0
 62 64  1  0  0  0  0
 63 69  1  0  0  0  0
 64 67  1  0  0  0  0
 66 64  2  0  0  0  0
 67 68  1  0  0  0  0
 69 65  1  6  0  0  0
 69 68  1  0  0  0  0
M  END
>  <MODEL>
7

>  <REMARK>
 VINA RESULT:      -4.9      2.283      4.783
  Name = 
  22 active torsions:
  status: ('A' for Active; 'I' for Inactive)
    1  A    between atoms: C_1  and  S_58
    2  A    between atoms: C_2  and  C_64
    3  A    between atoms: C_4  and  C_41
    4  A    between atoms: C_4  and  N_43
    5  A    between atoms: C_7  and  C_31
    6  A    between atoms: C_7  and  C_45
    7  A    between atoms: C_9  and  C_25
    8  A    between atoms: C_11  and  C_23
    9  A    between atoms: C_11  and  C_32
   10  A    between atoms: C_16  and  C_27
   11  A    between atoms: C_17  and  C_29
   12  A    between atoms: C_19  and  C_54
   13  A    between atoms: N_22  and  C_49
   14  A    between atoms: C_23  and  C_64
   15  A    between atoms: C_25  and  C_50
   16  A    between atoms: C_26  and  C_49
   17  A    between atoms: C_27  and  C_35
   18  A    between atoms: C_29  and  C_60
   19  A    between atoms: C_31  and  C_32
   20  A    between atoms: C_35  and  N_43
   21  A    between atoms: O_39  and  C_70
   22  A    between atoms: C_45  and  S_58
                            x       y       z     vdW  Elec       q    Type
                         _______ _______ _______ _____ _____    ______ ____

>  <TORSDO>
F 22

$$$$
=
 OpenBabel11042419393D

 70 76  0  0  1  0  0  0  0  0999 V2000
  195.8800  170.2210  141.1290 C   0  0  1  0  0  3  0  0  0  0  0  0
  196.4170  171.4740  139.0350 C   0  0  0  0  0  0  0  0  0  0  0  0
  196.8890  171.5710  137.6190 C   0  0  0  0  0  2  0  0  0  0  0  0
  196.0750  169.0160  138.8640 C   0  0  0  0  0  3  0  0  0  0  0  0
  196.2410  172.6400  141.2300 C   0  0  0  0  0  0  0  0  0  0  0  0
  195.9870  171.5140  141.8210 N   0  0  0  0  0  0  0  0  0  0  0  0
  196.4520  172.6710  139.8120 N   0  0  0  0  0  2  0  0  0  0  0  0
  196.1440  170.2900  139.6240 C   0  0  0  0  0  0  0  0  0  0  0  0
  195.8500  171.1240  136.6410 C   0  0  0  0  0  3  0  0  0  0  0  0
  195.7460  168.8400  137.5800 C   0  0  0  0  0  3  0  0  0  0  0  0
  195.3720  169.8770  136.5940 C   0  0  0  0  0  0  0  0  0  0  0  0
  197.6160  168.4040  140.9030 C   0  0  0  0  0  1  0  0  0  0  0  0
  196.7490  169.1910  141.8700 C   0  0  2  0  0  3  0  0  0  0  0  0
  195.8980  168.2590  142.7290 C   0  0  0  0  0  2  0  0  0  0  0  0
  195.5950  168.8310  144.0790 C   0  0  0  0  0  0  0  0  0  0  0  0
  196.5460  169.2440  144.7950 O   0  0  0  0  0  0  0  0  0  0  0  0
  194.2130  168.9600  144.5660 C   0  0  0  0  0  0  0  0  0  0  0  0
  193.9480  169.7200  145.5350 O   0  0  0  0  0  0  0  0  0  0  0  0
  193.0980  168.2170  143.9000 C   0  0  0  0  0  2  0  0  0  0  0  0
  192.1260  169.1760  143.2230 C   0  0  0  0  0  2  0  0  0  0  0  0
  192.7120  169.7020  141.9130 C   0  0  2  0  0  3  0  0  0  0  0  0
  192.7630  171.2180  141.9860 C   0  0  0  0  0  1  0  0  0  0  0  0
  190.6840  168.1790  140.9670 O   0  0  0  0  0  0  0  0  0  0  0  0
  191.7240  169.1650  140.5080 S   0  0  0  0  0  0  0  0  0  0  0  0
  192.6100  168.5160  139.4780 O   0  0  0  0  0  0  0  0  0  0  0  0
  190.8750  170.5540  139.7660 C   0  0  1  0  0  3  0  0  0  0  0  0
  190.0480  171.2850  140.8160 C   0  0  0  0  0  2  0  0  0  0  0  0
  191.8860  171.5040  139.1090 C   0  0  2  0  0  3  0  0  0  0  0  0
  189.4110  172.5610  140.2260 C   0  0  2  0  0  3  0  0  0  0  0  0
  191.5140  172.9800  139.3280 C   0  0  0  0  0  2  0  0  0  0  0  0
  190.1270  173.1680  139.1570 O   0  0  0  0  0  0  0  0  0  0  0  0
  188.9740  173.5890  141.2800 C   0  0  2  0  0  0  0  0  0  0  0  0
  187.5630  174.0440  141.4040 C   0  0  0  0  0  2  0  0  0  0  0  0
  188.5120  174.7610  140.6530 O   0  0  0  0  0  0  0  0  0  0  0  0
  189.9660  173.9100  142.3210 N   0  0  0  0  0  2  0  0  0  0  0  0
  190.0990  172.8520  143.3220 C   0  0  2  0  0  3  0  0  0  0  0  0
  188.8860  172.1630  143.4360 O   0  0  0  0  0  1  0  0  0  0  0  0
  191.9330  172.9710  145.0050 C   0  0  0  0  0  1  0  0  0  0  0  0
  190.5210  173.4320  144.6680 C   0  0  2  0  0  3  0  0  0  0  0  0
  189.3740  174.1750  146.7670 C   0  0  0  0  0  1  0  0  0  0  0  0
  189.5490  173.0400  145.7760 C   0  0  0  0  0  2  0  0  0  0  0  0
  191.0350  171.7790  136.8800 O   0  0  0  0  0  1  0  0  0  0  0  0
  192.0460  171.1800  137.6300 C   0  0  0  0  0  2  0  0  0  0  0  0
  194.4880  169.4890  135.5790 O   0  0  0  0  0  0  0  0  0  0  0  0
  193.9630  168.1660  135.4700 C   0  0  0  0  0  1  0  0  0  0  0  0
  196.3940  173.8740  142.0630 C   0  0  0  0  0  2  0  0  0  0  0  0
  194.7390  175.7760  141.7100 N   0  0  0  0  0  2  0  0  0  0  0  0
  195.9700  175.1340  141.3680 C   0  0  0  0  0  0  0  0  0  0  0  0
  196.7240  175.6590  140.5050 O   0  0  0  0  0  0  0  0  0  0  0  0
  193.8380  175.2390  142.7200 C   0  0  0  0  0  2  0  0  0  0  0  0
  190.3220  177.1650  145.3100 N   0  0  0  0  0  2  0  0  0  0  0  0
  194.3510  175.7340  145.1390 C   0  0  1  0  0  3  0  0  0  0  0  0
  193.6520  176.2390  143.8630 C   0  0  2  0  0  3  0  0  0  0  0  0
  195.8520  175.8630  144.9930 C   0  0  0  0  0  1  0  0  0  0  0  0
  191.0720  177.0150  142.7470 S   0  0  0  0  0  0  0  0  0  0  0  0
  191.6650  176.7150  145.2910 C   0  0  0  0  0  0  0  0  0  0  0  0
  192.4090  176.4050  146.5580 C   0  0  0  0  0  2  0  0  0  0  0  0
  189.8770  177.6070  143.9990 C   0  0  1  0  0  3  0  0  0  0  0  0
  192.1900  176.5620  144.0850 C   0  0  0  0  0  0  0  0  0  0  0  0
  193.9110  176.5460  146.3480 C   0  0  0  0  0  2  0  0  0  0  0  0
  188.4130  177.2420  143.7450 C   0  0  0  0  0  2  0  0  0  0  0  0
  187.5320  178.2280  142.9630 C   0  0  2  0  0  0  0  0  0  0  0  0
  186.8010  179.1270  143.9770 C   0  0  0  0  0  2  0  0  0  0  0  0
  186.5220  177.5110  142.0810 C   0  0  0  0  0  0  0  0  0  0  0  0
  186.0100  177.4300  145.5050 O   0  0  0  0  0  1  0  0  0  0  0  0
  186.7380  177.3540  140.8870 O   0  0  0  0  0  0  0  0  0  0  0  0
  185.2830  176.9220  142.6900 C   0  0  0  0  0  2  0  0  0  0  0  0
  184.6110  177.9380  143.6160 C   0  0  0  0  0  2  0  0  0  0  0  0
  185.5940  178.4630  144.6620 C   0  0  2  0  0  3  0  0  0  0  0  0
  188.3470  179.0450  142.1840 O   0  0  0  0  0  1  0  0  0  0  0  0
  1  6  1  0  0  0  0
  1 13  1  1  0  0  0
  2  8  2  0  0  0  0
  2  7  1  0  0  0  0
  3  2  1  0  0  0  0
  4  8  1  0  0  0  0
  5  6  2  0  0  0  0
  5 46  1  0  0  0  0
  7  5  1  0  0  0  0
  8  1  1  0  0  0  0
  9  3  1  0  0  0  0
 10  4  2  0  0  0  0
 11  9  2  0  0  0  0
 11 10  1  0  0  0  0
 13 12  1  6  0  0  0
 13 14  1  0  0  0  0
 14 15  1  0  0  0  0
 15 17  1  0  0  0  0
 15 16  2  0  0  0  0
 17 18  2  0  0  0  0
 19 17  1  0  0  0  0
 20 19  1  0  0  0  0
 21 22  1  1  0  0  0
 21 20  1  0  0  0  0
 24 23  2  0  0  0  0
 24 21  1  0  0  0  0
 25 24  2  0  0  0  0
 26 24  1  1  0  0  0
 26 27  1  0  0  0  0
 28 43  1  6  0  0  0
 28 30  1  0  0  0  0
 28 26  1  0  0  0  0
 29 27  1  1  0  0  0
 29 32  1  0  0  0  0
 31 30  1  0  0  0  0
 31 29  1  0  0  0  0
 32 33  1  0  0  0  0
 32 35  1  1  0  0  0
 34 32  1  0  0  0  0
 34 33  1  0  0  0  0
 35 36  1  0  0  0  0
 36 37  1  1  0  0  0
 36 39  1  0  0  0  0
 39 38  1  1  0  0  0
 39 41  1  0  0  0  0
 41 40  1  0  0  0  0
 42 43  1  0  0  0  0
 44 11  1  0  0  0  0
 45 44  1  0  0  0  0
 47 50  1  0  0  0  0
 48 47  1  0  0  0  0
 48 46  1  0  0  0  0
 49 48  2  0  0  0  0
 52 54  1  6  0  0  0
 52 60  1  0  0  0  0
 53 50  1  6  0  0  0
 53 59  1  0  0  0  0
 53 52  1  0  0  0  0
 55 58  1  0  0  0  0
 55 59  1  0  0  0  0
 56 51  1  0  0  0  0
 56 57  1  0  0  0  0
 58 61  1  6  0  0  0
 58 51  1  0  0  0  0
 59 56  2  0  0  0  0
 60 57  1  0  0  0  0
 62 70  1  6  0  0  0
 62 61  1  0  0  0  0
 62 63  1  0  0  0  0
 63 69  1  0  0  0  0
 64 67  1  0  0  0  0
 64 62  1  0  0  0  0
 66 64  2  0  0  0  0
 67 68  1  0  0  0  0
 68 69  1  0  0  0  0
 69 65  1  6  0  0  0
M  END
>  <MODEL>
8

>  <REMARK>
 VINA RESULT:      -4.7      2.775      7.823
  Name = 
  22 active torsions:
  status: ('A' for Active; 'I' for Inactive)
    1  A    between atoms: C_1  and  S_58
    2  A    between atoms: C_2  and  C_64
    3  A    between atoms: C_4  and  C_41
    4  A    between atoms: C_4  and  N_43
    5  A    between atoms: C_7  and  C_31
    6  A    between atoms: C_7  and  C_45
    7  A    between atoms: C_9  and  C_25
    8  A    between atoms: C_11  and  C_23
    9  A    between atoms: C_11  and  C_32
   10  A    between atoms: C_16  and  C_27
   11  A    between atoms: C_17  and  C_29
   12  A    between atoms: C_19  and  C_54
   13  A    between atoms: N_22  and  C_49
   14  A    between atoms: C_23  and  C_64
   15  A    between atoms: C_25  and  C_50
   16  A    between atoms: C_26  and  C_49
   17  A    between atoms: C_27  and  C_35
   18  A    between atoms: C_29  and  C_60
   19  A    between atoms: C_31  and  C_32
   20  A    between atoms: C_35  and  N_43
   21  A    between atoms: O_39  and  C_70
   22  A    between atoms: C_45  and  S_58
                            x       y       z     vdW  Elec       q    Type
                         _______ _______ _______ _____ _____    ______ ____

>  <TORSDO>
F 22

$$$$
=
 OpenBabel11042419393D

 70 76  0  0  1  0  0  0  0  0999 V2000
  191.9000  175.8690  144.0700 C   0  0  1  0  0  3  0  0  0  0  0  0
  189.8600  176.3750  145.4200 C   0  0  0  0  0  0  0  0  0  0  0  0
  189.0660  176.3940  146.6880 C   0  0  0  0  0  2  0  0  0  0  0  0
  191.9960  176.0020  146.6370 C   0  0  0  0  0  3  0  0  0  0  0  0
  189.7630  176.2340  142.9340 C   0  0  0  0  0  0  0  0  0  0  0  0
  191.0280  175.9520  142.8890 N   0  0  0  0  0  0  0  0  0  0  0  0
  189.1280  176.4710  144.1970 N   0  0  0  0  0  2  0  0  0  0  0  0
  191.1800  176.0950  145.4010 C   0  0  0  0  0  0  0  0  0  0  0  0
  189.4920  177.4930  147.6090 C   0  0  0  0  0  3  0  0  0  0  0  0
  191.7990  176.6280  147.8030 C   0  0  0  0  0  3  0  0  0  0  0  0
  190.7120  177.5690  148.1500 C   0  0  0  0  0  0  0  0  0  0  0  0
  191.8470  173.3750  144.4500 C   0  0  0  0  0  1  0  0  0  0  0  0
  192.6940  174.5540  144.0050 C   0  0  2  0  0  3  0  0  0  0  0  0
  193.9850  174.6410  144.8160 C   0  0  0  0  0  2  0  0  0  0  0  0
  195.1200  173.8960  144.1830 C   0  0  0  0  0  0  0  0  0  0  0  0
  195.6430  172.9340  144.8080 O   0  0  0  0  0  0  0  0  0  0  0  0
  195.6030  174.2340  142.8360 C   0  0  0  0  0  0  0  0  0  0  0  0
  196.1320  175.3560  142.6130 O   0  0  0  0  0  0  0  0  0  0  0  0
  195.5030  173.2430  141.7200 C   0  0  0  0  0  2  0  0  0  0  0  0
  194.1210  172.6030  141.6760 C   0  0  0  0  0  2  0  0  0  0  0  0
  193.3820  173.0010  140.3980 C   0  0  2  0  0  3  0  0  0  0  0  0
  193.2620  174.5150  140.3670 C   0  0  0  0  0  1  0  0  0  0  0  0
  190.7300  173.1640  140.9120 O   0  0  0  0  0  0  0  0  0  0  0  0
  191.7580  172.2320  140.3310 S   0  0  0  0  0  0  0  0  0  0  0  0
  191.7680  170.9450  141.1130 O   0  0  0  0  0  0  0  0  0  0  0  0
  191.2920  171.8890  138.6370 C   0  0  1  0  0  3  0  0  0  0  0  0
  192.4510  171.2340  137.8960 C   0  0  0  0  0  2  0  0  0  0  0  0
  190.0450  170.9920  138.6020 C   0  0  2  0  0  3  0  0  0  0  0  0
  192.0270  170.8120  136.4730 C   0  0  2  0  0  3  0  0  0  0  0  0
  190.1310  169.9320  137.4920 C   0  0  0  0  0  2  0  0  0  0  0  0
  190.6490  170.4990  136.3090 O   0  0  0  0  0  0  0  0  0  0  0  0
  192.9360  169.7500  135.8380 C   0  0  2  0  0  0  0  0  0  0  0  0
  192.5200  168.3280  135.7070 C   0  0  0  0  0  2  0  0  0  0  0  0
  193.2910  168.7800  136.7930 O   0  0  0  0  0  0  0  0  0  0  0  0
  194.1310  170.2560  135.1400 N   0  0  0  0  0  2  0  0  0  0  0  0
  194.6730  171.4680  135.7520 C   0  0  2  0  0  3  0  0  0  0  0  0
  194.6170  172.5210  134.8310 O   0  0  0  0  0  1  0  0  0  0  0  0
  196.6780  170.0010  135.5550 C   0  0  0  0  0  1  0  0  0  0  0  0
  196.1030  171.2400  136.2290 C   0  0  2  0  0  3  0  0  0  0  0  0
  197.2290  172.0320  138.3220 C   0  0  0  0  0  1  0  0  0  0  0  0
  196.1720  171.1080  137.7470 C   0  0  0  0  0  2  0  0  0  0  0  0
  188.7540  172.5050  137.2580 O   0  0  0  0  0  1  0  0  0  0  0  0
  188.7820  171.8320  138.4780 C   0  0  0  0  0  2  0  0  0  0  0  0
  191.0130  178.5560  149.0970 O   0  0  0  0  0  0  0  0  0  0  0  0
  191.7720  178.2930  150.2770 C   0  0  0  0  0  1  0  0  0  0  0  0
  188.9740  176.2160  141.6620 C   0  0  0  0  0  2  0  0  0  0  0  0
  186.4400  176.3120  141.4330 N   0  0  0  0  0  2  0  0  0  0  0  0
  187.6180  175.5880  141.7960 C   0  0  0  0  0  0  0  0  0  0  0  0
  187.5150  174.3950  142.1900 O   0  0  0  0  0  0  0  0  0  0  0  0
  186.4920  177.6810  140.9410 C   0  0  0  0  0  2  0  0  0  0  0  0
  182.3150  178.6830  143.0230 N   0  0  0  0  0  2  0  0  0  0  0  0
  186.5740  178.4280  143.3480 C   0  0  1  0  0  3  0  0  0  0  0  0
  185.9120  178.6490  141.9760 C   0  0  2  0  0  3  0  0  0  0  0  0
  187.9900  178.9630  143.3340 C   0  0  0  0  0  1  0  0  0  0  0  0
  183.3620  178.6120  140.5620 S   0  0  0  0  0  0  0  0  0  0  0  0
  183.7220  178.6260  143.1660 C   0  0  0  0  0  0  0  0  0  0  0  0
  184.3750  178.6050  144.5190 C   0  0  0  0  0  2  0  0  0  0  0  0
  181.9170  178.9120  141.6430 C   0  0  1  0  0  3  0  0  0  0  0  0
  184.4030  178.5620  142.0320 C   0  0  0  0  0  0  0  0  0  0  0  0
  185.7960  179.1480  144.4390 C   0  0  0  0  0  2  0  0  0  0  0  0
  180.6460  178.1400  141.2840 C   0  0  0  0  0  2  0  0  0  0  0  0
  179.2860  178.8240  141.4860 C   0  0  2  0  0  0  0  0  0  0  0  0
  178.1840  177.8290  141.0780 C   0  0  0  0  0  2  0  0  0  0  0  0
  179.1630  180.0990  140.6670 C   0  0  0  0  0  0  0  0  0  0  0  0
  179.0920  177.0830  138.9660 O   0  0  0  0  0  1  0  0  0  0  0  0
  179.3550  181.1920  141.1840 O   0  0  0  0  0  0  0  0  0  0  0  0
  178.8790  180.0190  139.1960 C   0  0  0  0  0  2  0  0  0  0  0  0
  177.7190  179.0580  138.9300 C   0  0  0  0  0  2  0  0  0  0  0  0
  177.9830  177.6900  139.5590 C   0  0  2  0  0  3  0  0  0  0  0  0
  179.1170  179.1090  142.8390 O   0  0  0  0  0  1  0  0  0  0  0  0
  1 13  1  1  0  0  0
  1  8  1  0  0  0  0
  2  3  1  0  0  0  0
  3  9  1  0  0  0  0
  4 10  2  0  0  0  0
  5  7  1  0  0  0  0
  6  5  2  0  0  0  0
  6  1  1  0  0  0  0
  7  2  1  0  0  0  0
  8  2  2  0  0  0  0
  8  4  1  0  0  0  0
  9 11  2  0  0  0  0
 10 11  1  0  0  0  0
 11 44  1  0  0  0  0
 13 12  1  1  0  0  0
 13 14  1  0  0  0  0
 15 16  2  0  0  0  0
 15 14  1  0  0  0  0
 17 15  1  0  0  0  0
 18 17  2  0  0  0  0
 19 17  1  0  0  0  0
 20 19  1  0  0  0  0
 21 22  1  1  0  0  0
 21 20  1  0  0  0  0
 24 21  1  0  0  0  0
 24 23  2  0  0  0  0
 24 25  2  0  0  0  0
 26 24  1  1  0  0  0
 27 26  1  0  0  0  0
 28 43  1  6  0  0  0
 28 26  1  0  0  0  0
 29 27  1  1  0  0  0
 30 28  1  0  0  0  0
 31 29  1  0  0  0  0
 31 30  1  0  0  0  0
 32 35  1  6  0  0  0
 32 29  1  0  0  0  0
 32 34  1  0  0  0  0
 33 32  1  0  0  0  0
 33 34  1  0  0  0  0
 35 36  1  0  0  0  0
 36 37  1  6  0  0  0
 36 39  1  0  0  0  0
 39 38  1  6  0  0  0
 39 41  1  0  0  0  0
 41 40  1  0  0  0  0
 42 43  1  0  0  0  0
 44 45  1  0  0  0  0
 46 48  1  0  0  0  0
 46  5  1  0  0  0  0
 47 48  1  0  0  0  0
 48 49  2  0  0  0  0
 50 47  1  0  0  0  0
 51 56  1  0  0  0  0
 52 54  1  6  0  0  0
 52 60  1  0  0  0  0
 53 50  1  6  0  0  0
 53 59  1  0  0  0  0
 53 52  1  0  0  0  0
 55 58  1  0  0  0  0
 55 59  1  0  0  0  0
 56 57  1  0  0  0  0
 58 61  1  6  0  0  0
 58 51  1  0  0  0  0
 59 56  2  0  0  0  0
 60 57  1  0  0  0  0
 61 62  1  0  0  0  0
 62 70  1  1  0  0  0
 63 62  1  0  0  0  0
 64 66  2  0  0  0  0
 64 62  1  0  0  0  0
 67 64  1  0  0  0  0
 68 67  1  0  0  0  0
 68 69  1  0  0  0  0
 69 65  1  6  0  0  0
 69 63  1  0  0  0  0
M  END
>  <MODEL>
9

>  <REMARK>
 VINA RESULT:      -4.7      3.516     10.591
  Name = 
  22 active torsions:
  status: ('A' for Active; 'I' for Inactive)
    1  A    between atoms: C_1  and  S_58
    2  A    between atoms: C_2  and  C_64
    3  A    between atoms: C_4  and  C_41
    4  A    between atoms: C_4  and  N_43
    5  A    between atoms: C_7  and  C_31
    6  A    between atoms: C_7  and  C_45
    7  A    between atoms: C_9  and  C_25
    8  A    between atoms: C_11  and  C_23
    9  A    between atoms: C_11  and  C_32
   10  A    between atoms: C_16  and  C_27
   11  A    between atoms: C_17  and  C_29
   12  A    between atoms: C_19  and  C_54
   13  A    between atoms: N_22  and  C_49
   14  A    between atoms: C_23  and  C_64
   15  A    between atoms: C_25  and  C_50
   16  A    between atoms: C_26  and  C_49
   17  A    between atoms: C_27  and  C_35
   18  A    between atoms: C_29  and  C_60
   19  A    between atoms: C_31  and  C_32
   20  A    between atoms: C_35  and  N_43
   21  A    between atoms: O_39  and  C_70
   22  A    between atoms: C_45  and  S_58
                            x       y       z     vdW  Elec       q    Type
                         _______ _______ _______ _____ _____    ______ ____

>  <TORSDO>
F 22

$$$$
