=
 OpenBabel11042417143D

 31 34  0  0  1  0  0  0  0  0999 V2000
  188.4420  175.4380  147.0740 C   0  0  0  0  0  2  0  0  0  0  0  0
  188.1710  175.9660  145.8090 O   0  0  0  0  0  0  0  0  0  0  0  0
  187.0950  176.8390  146.0060 C   0  0  2  0  0  3  0  0  0  0  0  0
  186.4410  176.4780  143.6530 C   0  0  0  0  0  3  0  0  0  0  0  0
  186.5600  177.3180  144.6880 C   0  0  0  0  0  0  0  0  0  0  0  0
  185.9050  176.8850  142.3010 C   0  0  0  0  0  0  0  0  0  0  0  0
  186.8120  177.7010  140.0960 N   0  0  0  0  0  1  0  0  0  0  0  0
  185.5630  178.3920  142.1480 C   0  0  0  0  0  0  0  0  0  0  0  0
  186.2280  178.7380  144.5400 C   0  0  0  0  0  3  0  0  0  0  0  0
  186.8370  177.8200  141.5430 C   0  0  1  0  0  0  0  0  0  0  0  0
  188.0550  178.1950  142.1230 O   0  0  0  0  0  1  0  0  0  0  0  0
  185.7900  179.2320  143.3850 C   0  0  0  0  0  3  0  0  0  0  0  0
  187.5350  178.0080  146.8780 C   0  0  0  0  0  2  0  0  0  0  0  0
  186.2110  179.8000  148.0000 O   0  0  0  0  0  0  0  0  0  0  0  0
  186.4250  178.4460  147.7750 C   0  0  0  0  0  0  0  0  0  0  0  0
  185.6670  177.5920  148.3040 O   0  0  0  0  0  1  0  0  0  0  0  0
  189.9310  175.1550  147.2160 C   0  0  0  0  0  2  0  0  0  0  0  0
  190.7590  176.3900  146.8830 C   0  0  0  0  0  2  0  0  0  0  0  0
  191.8030  176.0520  145.9320 N   0  0  0  0  0  0  0  0  0  0  0  0
  191.8410  174.5820  145.8580 C   0  0  2  0  0  3  0  0  0  0  0  0
  192.8270  175.3090  146.6800 C   0  0  1  0  0  3  0  0  0  0  0  0
  191.5200  174.5870  143.3990 O   0  0  0  0  0  0  0  0  0  0  0  0
  189.0840  171.9830  143.4010 O   0  0  0  0  0  0  0  0  0  0  0  0
  189.3630  174.6070  142.3730 C   0  0  0  0  0  1  0  0  0  0  0  0
  190.1420  172.6160  143.6550 C   0  0  0  0  0  0  0  0  0  0  0  0
  190.1930  174.1160  143.5450 C   0  0  1  0  0  3  0  0  0  0  0  0
  192.5410  172.6190  144.3940 C   0  0  0  0  0  2  0  0  0  0  0  0
  192.3310  174.1320  144.4690 C   0  0  2  0  0  3  0  0  0  0  0  0
  191.2780  171.9220  144.1700 N   0  0  0  0  0  2  0  0  0  0  0  0
  194.5080  177.0290  146.0470 C   0  0  0  0  0  1  0  0  0  0  0  0
  194.1880  175.5480  146.0350 C   0  0  0  0  0  2  0  0  0  0  0  0
  1 17  1  0  0  0  0
  2  3  1  0  0  0  0
  2  1  1  0  0  0  0
  3 13  1  1  0  0  0
  4  5  1  0  0  0  0
  5  3  1  0  0  0  0
  6  4  2  3  0  0  0
  8  6  1  0  0  0  0
  8 12  2  3  0  0  0
  9  5  2  0  0  0  0
 10  7  1  6  0  0  0
 10 11  1  0  0  0  0
 10  8  1  0  0  0  0
 10  6  1  0  0  0  0
 12  9  1  0  0  0  0
 13 15  1  0  0  0  0
 15 14  2  0  0  0  0
 15 16  1  0  0  0  0
 18 17  1  0  0  0  0
 19 21  1  0  0  0  0
 19 18  1  0  0  0  0
 20 19  1  6  0  0  0
 20 21  1  0  0  0  0
 21 31  1  6  0  0  0
 22 26  1  0  0  0  0
 22 28  1  0  0  0  0
 23 25  2  0  0  0  0
 25 29  1  0  0  0  0
 26 24  1  6  0  0  0
 26 25  1  0  0  0  0
 28 27  1  1  0  0  0
 28 20  1  0  0  0  0
 29 27  1  0  0  0  0
 31 30  1  0  0  0  0
M  END
>  <MODEL>
1

>  <REMARK>
 VINA RESULT:      -6.8      0.000      0.000
  Name = 
  10 active torsions:
  status: ('A' for Active; 'I' for Inactive)
    1  A    between atoms: C_4  and  C_16
    2  A    between atoms: N_5  and  C_31
    3  A    between atoms: O_6  and  C_9
    4  A    between atoms: O_6  and  C_22
    5  A    between atoms: C_8  and  C_25
    6  A    between atoms: C_9  and  C_29
    7  A    between atoms: C_11  and  C_22
    8  A    between atoms: C_16  and  C_22
    9  A    between atoms: C_21  and  C_27
   10  A    between atoms: C_29  and  C_31
                            x       y       z     vdW  Elec       q    Type
                         _______ _______ _______ _____ _____    ______ ____

>  <TORSDO>
F 10

$$$$
=
 OpenBabel11042417143D

 31 34  0  0  1  0  0  0  0  0999 V2000
  190.9890  177.5190  144.5790 C   0  0  0  0  0  2  0  0  0  0  0  0
  189.6820  177.9600  144.8010 O   0  0  0  0  0  0  0  0  0  0  0  0
  189.0830  176.9470  145.5580 C   0  0  2  0  0  3  0  0  0  0  0  0
  186.8190  177.0180  144.5790 C   0  0  0  0  0  3  0  0  0  0  0  0
  187.6020  177.1680  145.6530 C   0  0  0  0  0  0  0  0  0  0  0  0
  185.3220  177.2170  144.5990 C   0  0  0  0  0  0  0  0  0  0  0  0
  183.6730  179.0690  144.1570 N   0  0  0  0  0  1  0  0  0  0  0  0
  184.7320  177.6930  145.9550 C   0  0  0  0  0  0  0  0  0  0  0  0
  187.0390  177.6110  146.9320 C   0  0  0  0  0  3  0  0  0  0  0  0
  184.9110  178.6680  144.8000 C   0  0  1  0  0  0  0  0  0  0  0  0
  185.9010  179.6500  144.9280 O   0  0  0  0  0  1  0  0  0  0  0  0
  185.7400  177.8650  147.0690 C   0  0  0  0  0  3  0  0  0  0  0  0
  189.7210  176.8940  146.9410 C   0  0  0  0  0  2  0  0  0  0  0  0
  189.0530  174.5770  147.5820 O   0  0  0  0  0  1  0  0  0  0  0  0
  190.0660  175.4890  147.3100 C   0  0  0  0  0  0  0  0  0  0  0  0
  191.2700  175.1250  147.3490 O   0  0  0  0  0  0  0  0  0  0  0  0
  191.2140  177.2740  143.0930 C   0  0  0  0  0  2  0  0  0  0  0  0
  190.9490  175.8190  142.7290 C   0  0  0  0  0  2  0  0  0  0  0  0
  191.4720  174.9410  143.7610 N   0  0  0  0  0  0  0  0  0  0  0  0
  192.7470  174.4110  143.2520 C   0  0  2  0  0  3  0  0  0  0  0  0
  191.5210  173.5930  143.1780 C   0  0  1  0  0  3  0  0  0  0  0  0
  193.8910  175.1730  145.3160 O   0  0  0  0  0  0  0  0  0  0  0  0
  196.5420  176.8330  143.6040 O   0  0  0  0  0  0  0  0  0  0  0  0
  194.6460  177.4180  145.6260 C   0  0  0  0  0  1  0  0  0  0  0  0
  195.7150  175.9400  143.9260 C   0  0  0  0  0  0  0  0  0  0  0  0
  194.4340  176.2880  144.6340 C   0  0  1  0  0  3  0  0  0  0  0  0
  195.0330  173.5250  143.9440 C   0  0  0  0  0  2  0  0  0  0  0  0
  193.6950  174.0900  144.4230 C   0  0  2  0  0  3  0  0  0  0  0  0
  195.9320  174.5910  143.5130 N   0  0  0  0  0  2  0  0  0  0  0  0
  189.9030  172.5810  144.7720 C   0  0  0  0  0  1  0  0  0  0  0  0
  191.3380  172.5620  144.2870 C   0  0  0  0  0  2  0  0  0  0  0  0
  1  2  1  0  0  0  0
  2  3  1  0  0  0  0
  3  5  1  0  0  0  0
  3 13  1  1  0  0  0
  4  6  2  3  0  0  0
  4  5  1  0  0  0  0
  5  9  2  0  0  0  0
  6 10  1  0  0  0  0
  6  8  1  0  0  0  0
  8 12  2  3  0  0  0
  9 12  1  0  0  0  0
 10  7  1  6  0  0  0
 10 11  1  0  0  0  0
 10  8  1  0  0  0  0
 13 15  1  0  0  0  0
 15 16  2  0  0  0  0
 15 14  1  0  0  0  0
 17  1  1  0  0  0  0
 18 17  1  0  0  0  0
 18 19  1  0  0  0  0
 20 19  1  1  0  0  0
 20 28  1  0  0  0  0
 21 20  1  0  0  0  0
 21 19  1  0  0  0  0
 21 31  1  1  0  0  0
 23 25  2  0  0  0  0
 25 26  1  0  0  0  0
 26 22  1  0  0  0  0
 26 24  1  1  0  0  0
 28 27  1  6  0  0  0
 28 22  1  0  0  0  0
 29 25  1  0  0  0  0
 29 27  1  0  0  0  0
 31 30  1  0  0  0  0
M  END
>  <MODEL>
2

>  <REMARK>
 VINA RESULT:      -6.8      2.530      4.436
  Name = 
  10 active torsions:
  status: ('A' for Active; 'I' for Inactive)
    1  A    between atoms: C_4  and  C_16
    2  A    between atoms: N_5  and  C_31
    3  A    between atoms: O_6  and  C_9
    4  A    between atoms: O_6  and  C_22
    5  A    between atoms: C_8  and  C_25
    6  A    between atoms: C_9  and  C_29
    7  A    between atoms: C_11  and  C_22
    8  A    between atoms: C_16  and  C_22
    9  A    between atoms: C_21  and  C_27
   10  A    between atoms: C_29  and  C_31
                            x       y       z     vdW  Elec       q    Type
                         _______ _______ _______ _____ _____    ______ ____

>  <TORSDO>
F 10

$$$$
=
 OpenBabel11042417143D

 31 34  0  0  1  0  0  0  0  0999 V2000
  189.3760  174.4830  146.6720 C   0  0  0  0  0  2  0  0  0  0  0  0
  188.5790  175.4120  146.0000 O   0  0  0  0  0  0  0  0  0  0  0  0
  188.4490  176.4860  146.8870 C   0  0  2  0  0  3  0  0  0  0  0  0
  186.2350  176.6970  145.8170 C   0  0  0  0  0  3  0  0  0  0  0  0
  187.0980  177.1240  146.7460 C   0  0  0  0  0  0  0  0  0  0  0  0
  184.8580  177.2860  145.6200 C   0  0  0  0  0  0  0  0  0  0  0  0
  183.7670  179.0690  144.2140 N   0  0  0  0  0  1  0  0  0  0  0  0
  184.5160  178.4980  146.5290 C   0  0  0  0  0  0  0  0  0  0  0  0
  186.7670  178.2640  147.6060 C   0  0  0  0  0  3  0  0  0  0  0  0
  184.8840  178.7030  145.0670 C   0  0  1  0  0  0  0  0  0  0  0  0
  186.1140  179.3080  144.7860 O   0  0  0  0  0  1  0  0  0  0  0  0
  185.6030  178.8990  147.5010 C   0  0  0  0  0  3  0  0  0  0  0  0
  189.5630  177.4950  146.6390 C   0  0  0  0  0  2  0  0  0  0  0  0
  190.1120  178.7520  148.7230 O   0  0  0  0  0  1  0  0  0  0  0  0
  190.3850  177.6890  147.8700 C   0  0  0  0  0  0  0  0  0  0  0  0
  191.3050  176.8770  148.1480 O   0  0  0  0  0  0  0  0  0  0  0  0
  190.4350  173.9230  145.7310 C   0  0  0  0  0  2  0  0  0  0  0  0
  189.8850  172.7630  144.9120 C   0  0  0  0  0  2  0  0  0  0  0  0
  190.2610  172.9110  143.5180 N   0  0  0  0  0  0  0  0  0  0  0  0
  189.0940  173.4890  142.8300 C   0  0  2  0  0  3  0  0  0  0  0  0
  189.3620  172.0400  142.7470 C   0  0  1  0  0  3  0  0  0  0  0  0
  190.4770  175.3450  141.9420 O   0  0  0  0  0  0  0  0  0  0  0  0
  188.1800  177.9110  142.8640 O   0  0  0  0  0  0  0  0  0  0  0  0
  190.9340  177.3320  143.1860 C   0  0  0  0  0  1  0  0  0  0  0  0
  188.6250  176.8330  142.3880 C   0  0  0  0  0  0  0  0  0  0  0  0
  189.9190  176.2450  142.8810 C   0  0  1  0  0  3  0  0  0  0  0  0
  188.3680  174.8850  140.8270 C   0  0  0  0  0  2  0  0  0  0  0  0
  189.5500  174.3230  141.6180 C   0  0  2  0  0  3  0  0  0  0  0  0
  187.8400  176.0920  141.4560 N   0  0  0  0  0  2  0  0  0  0  0  0
  190.9440  170.3610  141.8170 C   0  0  0  0  0  1  0  0  0  0  0  0
  190.0840  171.5650  141.4900 C   0  0  0  0  0  2  0  0  0  0  0  0
  2  1  1  0  0  0  0
  2  3  1  0  0  0  0
  3 13  1  6  0  0  0
  4  5  1  0  0  0  0
  5  3  1  0  0  0  0
  5  9  2  0  0  0  0
  6  4  2  3  0  0  0
  6  8  1  0  0  0  0
  8 12  2  3  0  0  0
 10  7  1  6  0  0  0
 10  6  1  0  0  0  0
 10  8  1  0  0  0  0
 11 10  1  0  0  0  0
 12  9  1  0  0  0  0
 13 15  1  0  0  0  0
 15 16  2  0  0  0  0
 15 14  1  0  0  0  0
 17  1  1  0  0  0  0
 18 17  1  0  0  0  0
 19 18  1  0  0  0  0
 20 19  1  1  0  0  0
 21 31  1  6  0  0  0
 21 20  1  0  0  0  0
 21 19  1  0  0  0  0
 22 26  1  0  0  0  0
 25 23  2  0  0  0  0
 25 26  1  0  0  0  0
 26 24  1  6  0  0  0
 27 29  1  0  0  0  0
 28 27  1  1  0  0  0
 28 22  1  0  0  0  0
 28 20  1  0  0  0  0
 29 25  1  0  0  0  0
 31 30  1  0  0  0  0
M  END
>  <MODEL>
3

>  <REMARK>
 VINA RESULT:      -6.7      2.400      4.365
  Name = 
  10 active torsions:
  status: ('A' for Active; 'I' for Inactive)
    1  A    between atoms: C_4  and  C_16
    2  A    between atoms: N_5  and  C_31
    3  A    between atoms: O_6  and  C_9
    4  A    between atoms: O_6  and  C_22
    5  A    between atoms: C_8  and  C_25
    6  A    between atoms: C_9  and  C_29
    7  A    between atoms: C_11  and  C_22
    8  A    between atoms: C_16  and  C_22
    9  A    between atoms: C_21  and  C_27
   10  A    between atoms: C_29  and  C_31
                            x       y       z     vdW  Elec       q    Type
                         _______ _______ _______ _____ _____    ______ ____

>  <TORSDO>
F 10

$$$$
=
 OpenBabel11042417143D

 31 34  0  0  1  0  0  0  0  0999 V2000
  190.1270  177.8710  142.8120 C   0  0  0  0  0  2  0  0  0  0  0  0
  189.2950  177.0610  143.5870 O   0  0  0  0  0  0  0  0  0  0  0  0
  188.1560  176.8550  142.8010 C   0  0  2  0  0  3  0  0  0  0  0  0
  187.0870  178.2430  144.5390 C   0  0  0  0  0  3  0  0  0  0  0  0
  186.9630  177.5250  143.4170 C   0  0  0  0  0  0  0  0  0  0  0  0
  185.9340  178.9490  145.2130 C   0  0  0  0  0  0  0  0  0  0  0  0
  184.2510  178.4760  147.0260 N   0  0  0  0  0  1  0  0  0  0  0  0
  184.5440  178.7290  144.5570 C   0  0  0  0  0  0  0  0  0  0  0  0
  185.6490  177.3260  142.7980 C   0  0  0  0  0  3  0  0  0  0  0  0
  184.9250  177.9940  145.8340 C   0  0  1  0  0  0  0  0  0  0  0  0
  185.1430  176.6140  145.7480 O   0  0  0  0  0  1  0  0  0  0  0  0
  184.5480  177.8580  143.3200 C   0  0  0  0  0  3  0  0  0  0  0  0
  187.9170  175.3610  142.6230 C   0  0  0  0  0  2  0  0  0  0  0  0
  189.9590  174.2230  141.7510 O   0  0  0  0  0  1  0  0  0  0  0  0
  188.7330  174.8240  141.4940 C   0  0  0  0  0  0  0  0  0  0  0  0
  188.2990  174.8920  140.3140 O   0  0  0  0  0  0  0  0  0  0  0  0
  191.5470  177.8410  143.3600 C   0  0  0  0  0  2  0  0  0  0  0  0
  192.3180  176.6410  142.8250 C   0  0  0  0  0  2  0  0  0  0  0  0
  192.8820  175.8770  143.9240 N   0  0  0  0  0  0  0  0  0  0  0  0
  192.5370  176.6030  145.1580 C   0  0  2  0  0  3  0  0  0  0  0  0
  193.8820  176.7430  144.5660 C   0  0  1  0  0  3  0  0  0  0  0  0
  191.7550  174.4140  146.0200 O   0  0  0  0  0  0  0  0  0  0  0  0
  188.3980  175.4810  146.5700 O   0  0  0  0  0  0  0  0  0  0  0  0
  189.7490  173.3630  145.2610 C   0  0  0  0  0  1  0  0  0  0  0  0
  189.6570  175.4750  146.5830 C   0  0  0  0  0  0  0  0  0  0  0  0
  190.4380  174.6790  145.5740 C   0  0  1  0  0  3  0  0  0  0  0  0
  191.8160  176.2770  147.5790 C   0  0  0  0  0  2  0  0  0  0  0  0
  192.4260  175.6210  146.3390 C   0  0  2  0  0  3  0  0  0  0  0  0
  190.3600  176.3260  147.4870 N   0  0  0  0  0  2  0  0  0  0  0  0
  196.0790  175.6500  144.1650 C   0  0  0  0  0  1  0  0  0  0  0  0
  194.9750  175.8740  145.1780 C   0  0  0  0  0  2  0  0  0  0  0  0
  1 17  1  0  0  0  0
  1  2  1  0  0  0  0
  3 13  1  1  0  0  0
  3  5  1  0  0  0  0
  3  2  1  0  0  0  0
  4  6  1  0  0  0  0
  5  4  2  0  0  0  0
  6 10  1  0  0  0  0
  8  6  2  0  0  0  0
  8 10  1  0  0  0  0
  9 12  2  0  0  0  0
  9  5  1  0  0  0  0
 10 11  1  6  0  0  0
 10  7  1  0  0  0  0
 12  8  1  0  0  0  0
 15 14  1  0  0  0  0
 15 13  1  0  0  0  0
 16 15  2  0  0  0  0
 18 17  1  0  0  0  0
 18 19  1  0  0  0  0
 19 21  1  0  0  0  0
 20 19  1  6  0  0  0
 20 28  1  0  0  0  0
 21 20  1  0  0  0  0
 21 31  1  1  0  0  0
 22 28  1  0  0  0  0
 23 25  2  0  0  0  0
 25 29  1  0  0  0  0
 26 24  1  1  0  0  0
 26 22  1  0  0  0  0
 26 25  1  0  0  0  0
 28 27  1  1  0  0  0
 29 27  1  0  0  0  0
 30 31  1  0  0  0  0
M  END
>  <MODEL>
4

>  <REMARK>
 VINA RESULT:      -6.7      2.440      4.473
  Name = 
  10 active torsions:
  status: ('A' for Active; 'I' for Inactive)
    1  A    between atoms: C_4  and  C_16
    2  A    between atoms: N_5  and  C_31
    3  A    between atoms: O_6  and  C_9
    4  A    between atoms: O_6  and  C_22
    5  A    between atoms: C_8  and  C_25
    6  A    between atoms: C_9  and  C_29
    7  A    between atoms: C_11  and  C_22
    8  A    between atoms: C_16  and  C_22
    9  A    between atoms: C_21  and  C_27
   10  A    between atoms: C_29  and  C_31
                            x       y       z     vdW  Elec       q    Type
                         _______ _______ _______ _____ _____    ______ ____

>  <TORSDO>
F 10

$$$$
=
 OpenBabel11042417143D

 31 34  0  0  1  0  0  0  0  0999 V2000
  188.4000  176.2890  142.0930 C   0  0  0  0  0  2  0  0  0  0  0  0
  188.5110  177.6530  142.3730 O   0  0  0  0  0  0  0  0  0  0  0  0
  187.1960  178.1320  142.3580 C   0  0  2  0  0  3  0  0  0  0  0  0
  187.4550  178.0270  144.8110 C   0  0  0  0  0  3  0  0  0  0  0  0
  186.7140  178.3870  143.7560 C   0  0  0  0  0  0  0  0  0  0  0  0
  187.0390  178.2560  146.2440 C   0  0  0  0  0  0  0  0  0  0  0  0
  185.8410  176.9980  148.0690 N   0  0  0  0  0  1  0  0  0  0  0  0
  185.6290  178.8790  146.4360 C   0  0  0  0  0  0  0  0  0  0  0  0
  185.3870  178.9810  143.9430 C   0  0  0  0  0  3  0  0  0  0  0  0
  185.8600  177.3930  146.6720 C   0  0  1  0  0  0  0  0  0  0  0  0
  185.2980  176.4960  145.7560 O   0  0  0  0  0  1  0  0  0  0  0  0
  184.8850  179.1920  145.1570 C   0  0  0  0  0  3  0  0  0  0  0  0
  186.2950  177.1380  141.6380 C   0  0  0  0  0  2  0  0  0  0  0  0
  186.4710  177.3780  139.1610 O   0  0  0  0  0  0  0  0  0  0  0  0
  185.8140  177.7020  140.3420 C   0  0  0  0  0  0  0  0  0  0  0  0
  184.7990  178.4470  140.3160 O   0  0  0  0  0  1  0  0  0  0  0  0
  189.6020  175.5400  142.6530 C   0  0  0  0  0  2  0  0  0  0  0  0
  190.4710  176.4540  143.5070 C   0  0  0  0  0  2  0  0  0  0  0  0
  190.7290  175.8390  144.7970 N   0  0  0  0  0  0  0  0  0  0  0  0
  191.6270  174.7000  144.5440 C   0  0  2  0  0  3  0  0  0  0  0  0
  190.1800  174.4770  144.7280 C   0  0  1  0  0  3  0  0  0  0  0  0
  193.1460  175.5890  146.2900 O   0  0  0  0  0  0  0  0  0  0  0  0
  196.0410  175.5920  144.2090 O   0  0  0  0  0  0  0  0  0  0  0  0
  194.6570  177.3970  145.8970 C   0  0  0  0  0  1  0  0  0  0  0  0
  194.9890  175.1950  144.7760 C   0  0  0  0  0  0  0  0  0  0  0  0
  193.9780  176.1750  145.3060 C   0  0  1  0  0  3  0  0  0  0  0  0
  193.5170  173.3100  145.5360 C   0  0  0  0  0  2  0  0  0  0  0  0
  192.5060  174.4320  145.7790 C   0  0  2  0  0  3  0  0  0  0  0  0
  194.6860  173.8010  144.8130 N   0  0  0  0  0  2  0  0  0  0  0  0
  188.9050  175.1340  146.7600 C   0  0  0  0  0  1  0  0  0  0  0  0
  189.7430  174.0430  146.1230 C   0  0  0  0  0  2  0  0  0  0  0  0
  1  2  1  0  0  0  0
  1 17  1  0  0  0  0
  3 13  1  1  0  0  0
  3  2  1  0  0  0  0
  3  5  1  0  0  0  0
  4  6  1  0  0  0  0
  5  9  1  0  0  0  0
  5  4  2  0  0  0  0
  6  8  2  0  0  0  0
  6 10  1  0  0  0  0
  8 10  1  0  0  0  0
  9 12  2  0  0  0  0
 10 11  1  6  0  0  0
 10  7  1  0  0  0  0
 12  8  1  0  0  0  0
 14 15  2  0  0  0  0
 15 13  1  0  0  0  0
 16 15  1  0  0  0  0
 17 18  1  0  0  0  0
 18 19  1  0  0  0  0
 20 21  1  0  0  0  0
 20 19  1  1  0  0  0
 20 28  1  0  0  0  0
 21 19  1  0  0  0  0
 21 31  1  1  0  0  0
 23 25  2  0  0  0  0
 25 29  1  0  0  0  0
 25 26  1  0  0  0  0
 26 24  1  1  0  0  0
 26 22  1  0  0  0  0
 28 27  1  6  0  0  0
 28 22  1  0  0  0  0
 29 27  1  0  0  0  0
 31 30  1  0  0  0  0
M  END
>  <MODEL>
5

>  <REMARK>
 VINA RESULT:      -6.7      2.374      4.943
  Name = 
  10 active torsions:
  status: ('A' for Active; 'I' for Inactive)
    1  A    between atoms: C_4  and  C_16
    2  A    between atoms: N_5  and  C_31
    3  A    between atoms: O_6  and  C_9
    4  A    between atoms: O_6  and  C_22
    5  A    between atoms: C_8  and  C_25
    6  A    between atoms: C_9  and  C_29
    7  A    between atoms: C_11  and  C_22
    8  A    between atoms: C_16  and  C_22
    9  A    between atoms: C_21  and  C_27
   10  A    between atoms: C_29  and  C_31
                            x       y       z     vdW  Elec       q    Type
                         _______ _______ _______ _____ _____    ______ ____

>  <TORSDO>
F 10

$$$$
=
 OpenBabel11042417143D

 31 34  0  0  1  0  0  0  0  0999 V2000
  189.0780  175.5080  142.4170 C   0  0  0  0  0  2  0  0  0  0  0  0
  189.2040  176.8890  142.5810 O   0  0  0  0  0  0  0  0  0  0  0  0
  187.8920  177.3610  142.6910 C   0  0  2  0  0  3  0  0  0  0  0  0
  186.1330  176.9560  144.3740 C   0  0  0  0  0  3  0  0  0  0  0  0
  187.4110  177.2490  144.1080 C   0  0  0  0  0  0  0  0  0  0  0  0
  185.5780  176.8210  145.7730 C   0  0  0  0  0  0  0  0  0  0  0  0
  184.4350  178.2770  147.4820 N   0  0  0  0  0  1  0  0  0  0  0  0
  186.5820  177.1250  146.9180 C   0  0  0  0  0  0  0  0  0  0  0  0
  188.3560  177.5290  145.1940 C   0  0  0  0  0  3  0  0  0  0  0  0
  185.5190  178.1420  146.5250 C   0  0  1  0  0  0  0  0  0  0  0  0
  185.9470  179.3140  145.8900 O   0  0  0  0  0  1  0  0  0  0  0  0
  187.9790  177.4880  146.4700 C   0  0  0  0  0  3  0  0  0  0  0  0
  186.9860  176.5890  141.7400 C   0  0  0  0  0  2  0  0  0  0  0  0
  186.7260  177.4610  139.4180 O   0  0  0  0  0  0  0  0  0  0  0  0
  186.3470  177.5100  140.7540 C   0  0  0  0  0  0  0  0  0  0  0  0
  185.4490  178.3080  141.1260 O   0  0  0  0  0  1  0  0  0  0  0  0
  190.0930  174.7820  143.2900 C   0  0  0  0  0  2  0  0  0  0  0  0
  191.5170  175.1740  142.9200 C   0  0  0  0  0  2  0  0  0  0  0  0
  192.1220  175.9390  143.9960 N   0  0  0  0  0  0  0  0  0  0  0  0
  193.1420  175.0700  144.6050 C   0  0  2  0  0  3  0  0  0  0  0  0
  191.8200  175.2200  145.2420 C   0  0  1  0  0  3  0  0  0  0  0  0
  195.0030  176.6700  144.2490 O   0  0  0  0  0  0  0  0  0  0  0  0
  197.3670  174.1830  143.2820 O   0  0  0  0  0  0  0  0  0  0  0  0
  196.3770  176.6470  142.2960 C   0  0  0  0  0  1  0  0  0  0  0  0
  196.4690  174.7730  143.9370 C   0  0  0  0  0  0  0  0  0  0  0  0
  195.5930  175.8110  143.2910 C   0  0  1  0  0  3  0  0  0  0  0  0
  195.2140  175.0950  146.0870 C   0  0  0  0  0  2  0  0  0  0  0  0
  194.2740  175.9230  145.2080 C   0  0  2  0  0  3  0  0  0  0  0  0
  196.1920  174.3730  145.2790 N   0  0  0  0  0  2  0  0  0  0  0  0
  191.0670  175.5790  147.5850 C   0  0  0  0  0  1  0  0  0  0  0  0
  191.7410  176.2220  146.3900 C   0  0  0  0  0  2  0  0  0  0  0  0
  1  2  1  0  0  0  0
  1 17  1  0  0  0  0
  2  3  1  0  0  0  0
  3 13  1  6  0  0  0
  3  5  1  0  0  0  0
  4  6  1  0  0  0  0
  5  4  2  0  0  0  0
  5  9  1  0  0  0  0
  6 10  1  0  0  0  0
  6  8  2  0  0  0  0
  9 12  2  0  0  0  0
 10 11  1  6  0  0  0
 10  8  1  0  0  0  0
 10  7  1  0  0  0  0
 12  8  1  0  0  0  0
 14 15  2  0  0  0  0
 15 16  1  0  0  0  0
 15 13  1  0  0  0  0
 18 17  1  0  0  0  0
 18 19  1  0  0  0  0
 19 21  1  0  0  0  0
 20 19  1  6  0  0  0
 20 28  1  0  0  0  0
 20 21  1  0  0  0  0
 21 31  1  1  0  0  0
 22 28  1  0  0  0  0
 23 25  2  0  0  0  0
 25 29  1  0  0  0  0
 26 24  1  6  0  0  0
 26 25  1  0  0  0  0
 26 22  1  0  0  0  0
 28 27  1  6  0  0  0
 29 27  1  0  0  0  0
 31 30  1  0  0  0  0
M  END
>  <MODEL>
6

>  <REMARK>
 VINA RESULT:      -6.6      2.718      4.983
  Name = 
  10 active torsions:
  status: ('A' for Active; 'I' for Inactive)
    1  A    between atoms: C_4  and  C_16
    2  A    between atoms: N_5  and  C_31
    3  A    between atoms: O_6  and  C_9
    4  A    between atoms: O_6  and  C_22
    5  A    between atoms: C_8  and  C_25
    6  A    between atoms: C_9  and  C_29
    7  A    between atoms: C_11  and  C_22
    8  A    between atoms: C_16  and  C_22
    9  A    between atoms: C_21  and  C_27
   10  A    between atoms: C_29  and  C_31
                            x       y       z     vdW  Elec       q    Type
                         _______ _______ _______ _____ _____    ______ ____

>  <TORSDO>
F 10

$$$$
=
 OpenBabel11042417143D

 31 34  0  0  1  0  0  0  0  0999 V2000
  187.5340  176.4950  141.3940 C   0  0  0  0  0  2  0  0  0  0  0  0
  187.8680  177.5800  142.2070 O   0  0  0  0  0  0  0  0  0  0  0  0
  186.6420  178.1340  142.5910 C   0  0  2  0  0  3  0  0  0  0  0  0
  187.2960  177.4890  144.8830 C   0  0  0  0  0  3  0  0  0  0  0  0
  186.5790  178.2870  144.0830 C   0  0  0  0  0  0  0  0  0  0  0  0
  187.2880  177.5880  146.3900 C   0  0  0  0  0  0  0  0  0  0  0  0
  186.0530  176.5540  148.3270 N   0  0  0  0  0  1  0  0  0  0  0  0
  186.3170  178.6450  146.9820 C   0  0  0  0  0  0  0  0  0  0  0  0
  185.6690  179.2880  144.6480 C   0  0  0  0  0  3  0  0  0  0  0  0
  185.9660  177.1640  147.0120 C   0  0  1  0  0  0  0  0  0  0  0  0
  184.9260  176.7280  146.1840 O   0  0  0  0  0  1  0  0  0  0  0  0
  185.5360  179.4430  145.9620 C   0  0  0  0  0  3  0  0  0  0  0  0
  185.5020  177.2640  142.0790 C   0  0  0  0  0  2  0  0  0  0  0  0
  183.2410  178.2910  142.3220 O   0  0  0  0  0  1  0  0  0  0  0  0
  184.3860  178.1070  141.5560 C   0  0  0  0  0  0  0  0  0  0  0  0
  184.4940  178.6710  140.4370 O   0  0  0  0  0  0  0  0  0  0  0  0
  188.5840  175.4000  141.5250 C   0  0  0  0  0  2  0  0  0  0  0  0
  188.0390  174.2030  142.2940 C   0  0  0  0  0  2  0  0  0  0  0  0
  189.1330  173.3980  142.8080 N   0  0  0  0  0  0  0  0  0  0  0  0
  190.2180  174.3340  143.1460 C   0  0  2  0  0  3  0  0  0  0  0  0
  190.2580  173.5780  141.8800 C   0  0  1  0  0  3  0  0  0  0  0  0
  190.3590  173.5680  145.5010 O   0  0  0  0  0  0  0  0  0  0  0  0
  190.6800  176.8430  146.8720 O   0  0  0  0  0  0  0  0  0  0  0  0
  189.0730  174.5430  147.2610 C   0  0  0  0  0  1  0  0  0  0  0  0
  190.8710  175.8460  146.1280 C   0  0  0  0  0  0  0  0  0  0  0  0
  189.8130  174.7900  145.9590 C   0  0  1  0  0  3  0  0  0  0  0  0
  192.3410  174.5860  144.5310 C   0  0  0  0  0  2  0  0  0  0  0  0
  191.0740  173.7620  144.2920 C   0  0  2  0  0  3  0  0  0  0  0  0
  192.0570  175.7690  145.3370 N   0  0  0  0  0  2  0  0  0  0  0  0
  190.8240  171.4980  140.6390 C   0  0  0  0  0  1  0  0  0  0  0  0
  191.1140  172.3150  141.8820 C   0  0  0  0  0  2  0  0  0  0  0  0
  1 17  1  0  0  0  0
  1  2  1  0  0  0  0
  2  3  1  0  0  0  0
  3 13  1  1  0  0  0
  3  5  1  0  0  0  0
  4  6  1  0  0  0  0
  5  9  1  0  0  0  0
  5  4  2  0  0  0  0
  6  8  2  0  0  0  0
  6 10  1  0  0  0  0
  8 10  1  0  0  0  0
  9 12  2  0  0  0  0
 10 11  1  6  0  0  0
 10  7  1  0  0  0  0
 12  8  1  0  0  0  0
 15 13  1  0  0  0  0
 15 14  1  0  0  0  0
 16 15  2  0  0  0  0
 17 18  1  0  0  0  0
 18 19  1  0  0  0  0
 20 19  1  1  0  0  0
 20 28  1  0  0  0  0
 21 31  1  1  0  0  0
 21 19  1  0  0  0  0
 21 20  1  0  0  0  0
 22 26  1  0  0  0  0
 25 23  2  0  0  0  0
 26 25  1  0  0  0  0
 26 24  1  1  0  0  0
 27 29  1  0  0  0  0
 28 27  1  1  0  0  0
 28 22  1  0  0  0  0
 29 25  1  0  0  0  0
 30 31  1  0  0  0  0
M  END
>  <MODEL>
7

>  <REMARK>
 VINA RESULT:      -6.6      2.192      5.034
  Name = 
  10 active torsions:
  status: ('A' for Active; 'I' for Inactive)
    1  A    between atoms: C_4  and  C_16
    2  A    between atoms: N_5  and  C_31
    3  A    between atoms: O_6  and  C_9
    4  A    between atoms: O_6  and  C_22
    5  A    between atoms: C_8  and  C_25
    6  A    between atoms: C_9  and  C_29
    7  A    between atoms: C_11  and  C_22
    8  A    between atoms: C_16  and  C_22
    9  A    between atoms: C_21  and  C_27
   10  A    between atoms: C_29  and  C_31
                            x       y       z     vdW  Elec       q    Type
                         _______ _______ _______ _____ _____    ______ ____

>  <TORSDO>
F 10

$$$$
=
 OpenBabel11042417143D

 31 34  0  0  1  0  0  0  0  0999 V2000
  187.5740  177.2480  141.7180 C   0  0  0  0  0  2  0  0  0  0  0  0
  187.5020  178.3660  142.5530 O   0  0  0  0  0  0  0  0  0  0  0  0
  186.1390  178.5300  142.8200 C   0  0  2  0  0  3  0  0  0  0  0  0
  185.8460  179.3950  145.1130 C   0  0  0  0  0  3  0  0  0  0  0  0
  185.8630  178.3450  144.2830 C   0  0  0  0  0  0  0  0  0  0  0  0
  185.5700  179.2890  146.5940 C   0  0  0  0  0  0  0  0  0  0  0  0
  186.8840  179.0410  148.7290 N   0  0  0  0  0  1  0  0  0  0  0  0
  185.3790  177.8440  147.1320 C   0  0  0  0  0  0  0  0  0  0  0  0
  185.6750  176.9850  144.7960 C   0  0  0  0  0  3  0  0  0  0  0  0
  186.6840  178.5930  147.3630 C   0  0  1  0  0  0  0  0  0  0  0  0
  187.8180  178.1460  146.6750 O   0  0  0  0  0  1  0  0  0  0  0  0
  185.4700  176.7520  146.0900 C   0  0  0  0  0  3  0  0  0  0  0  0
  185.3290  177.5490  141.9800 C   0  0  0  0  0  2  0  0  0  0  0  0
  184.0620  178.6620  140.1410 O   0  0  0  0  0  0  0  0  0  0  0  0
  184.0940  178.2000  141.4510 C   0  0  0  0  0  0  0  0  0  0  0  0
  183.0740  178.3050  142.1820 O   0  0  0  0  0  1  0  0  0  0  0  0
  188.6340  176.2810  142.2280 C   0  0  0  0  0  2  0  0  0  0  0  0
  189.5800  176.9650  143.2060 C   0  0  0  0  0  2  0  0  0  0  0  0
  190.2360  175.9780  144.0430 N   0  0  0  0  0  0  0  0  0  0  0  0
  189.5040  174.7150  143.8520 C   0  0  2  0  0  3  0  0  0  0  0  0
  189.2450  175.5490  145.0410 C   0  0  1  0  0  3  0  0  0  0  0  0
  191.5680  173.5020  143.2020 O   0  0  0  0  0  0  0  0  0  0  0  0
  190.0900  171.8540  140.4070 O   0  0  0  0  0  0  0  0  0  0  0  0
  192.3780  173.4320  140.9570 C   0  0  0  0  0  1  0  0  0  0  0  0
  190.2490  172.2910  141.5770 C   0  0  0  0  0  0  0  0  0  0  0  0
  191.1510  173.4640  141.8500 C   0  0  1  0  0  3  0  0  0  0  0  0
  189.7010  172.1810  144.0240 C   0  0  0  0  0  2  0  0  0  0  0  0
  190.4460  173.5160  144.0700 C   0  0  2  0  0  3  0  0  0  0  0  0
  189.4760  171.7500  142.6470 N   0  0  0  0  0  2  0  0  0  0  0  0
  188.9590  174.6880  147.3560 C   0  0  0  0  0  1  0  0  0  0  0  0
  189.9680  175.1360  146.3180 C   0  0  0  0  0  2  0  0  0  0  0  0
  1 17  1  0  0  0  0
  1  2  1  0  0  0  0
  2  3  1  0  0  0  0
  3 13  1  6  0  0  0
  3  5  1  0  0  0  0
  4  6  1  0  0  0  0
  5  9  1  0  0  0  0
  5  4  2  0  0  0  0
  6  8  2  0  0  0  0
  6 10  1  0  0  0  0
  8 10  1  0  0  0  0
  9 12  2  0  0  0  0
 10 11  1  6  0  0  0
 10  7  1  0  0  0  0
 12  8  1  0  0  0  0
 14 15  2  0  0  0  0
 15 13  1  0  0  0  0
 15 16  1  0  0  0  0
 17 18  1  0  0  0  0
 18 19  1  0  0  0  0
 19 21  1  0  0  0  0
 20 19  1  6  0  0  0
 20 28  1  0  0  0  0
 20 21  1  0  0  0  0
 21 31  1  1  0  0  0
 22 28  1  0  0  0  0
 23 25  2  0  0  0  0
 25 26  1  0  0  0  0
 25 29  1  0  0  0  0
 26 24  1  6  0  0  0
 26 22  1  0  0  0  0
 28 27  1  6  0  0  0
 29 27  1  0  0  0  0
 31 30  1  0  0  0  0
M  END
>  <MODEL>
8

>  <REMARK>
 VINA RESULT:      -6.6      2.333      4.550
  Name = 
  10 active torsions:
  status: ('A' for Active; 'I' for Inactive)
    1  A    between atoms: C_4  and  C_16
    2  A    between atoms: N_5  and  C_31
    3  A    between atoms: O_6  and  C_9
    4  A    between atoms: O_6  and  C_22
    5  A    between atoms: C_8  and  C_25
    6  A    between atoms: C_9  and  C_29
    7  A    between atoms: C_11  and  C_22
    8  A    between atoms: C_16  and  C_22
    9  A    between atoms: C_21  and  C_27
   10  A    between atoms: C_29  and  C_31
                            x       y       z     vdW  Elec       q    Type
                         _______ _______ _______ _____ _____    ______ ____

>  <TORSDO>
F 10

$$$$
=
 OpenBabel11042417143D

 31 34  0  0  1  0  0  0  0  0999 V2000
  189.2320  174.3880  143.6080 C   0  0  0  0  0  2  0  0  0  0  0  0
  188.9090  175.7290  143.3870 O   0  0  0  0  0  0  0  0  0  0  0  0
  189.0320  176.3400  144.6400 C   0  0  2  0  0  3  0  0  0  0  0  0
  186.6080  176.7800  144.4770 C   0  0  0  0  0  3  0  0  0  0  0  0
  187.6790  176.5640  145.2500 C   0  0  0  0  0  0  0  0  0  0  0  0
  185.2160  177.0060  145.0180 C   0  0  0  0  0  0  0  0  0  0  0  0
  183.7520  178.9520  145.6640 N   0  0  0  0  0  1  0  0  0  0  0  0
  185.1040  177.0520  146.5660 C   0  0  0  0  0  0  0  0  0  0  0  0
  187.5650  176.6020  146.7110 C   0  0  0  0  0  3  0  0  0  0  0  0
  185.0640  178.3340  145.7450 C   0  0  1  0  0  0  0  0  0  0  0  0
  186.1620  179.1970  145.8370 O   0  0  0  0  0  1  0  0  0  0  0  0
  186.4020  176.8380  147.3120 C   0  0  0  0  0  3  0  0  0  0  0  0
  189.7950  177.6510  144.5000 C   0  0  0  0  0  2  0  0  0  0  0  0
  191.5790  177.5360  142.7600 O   0  0  0  0  0  1  0  0  0  0  0  0
  190.2660  177.8420  143.0960 C   0  0  0  0  0  0  0  0  0  0  0  0
  189.4690  178.2540  142.2140 O   0  0  0  0  0  0  0  0  0  0  0  0
  190.5680  174.0560  142.9580 C   0  0  0  0  0  2  0  0  0  0  0  0
  191.5820  173.5870  143.9930 C   0  0  0  0  0  2  0  0  0  0  0  0
  192.2400  174.7280  144.6040 N   0  0  0  0  0  0  0  0  0  0  0  0
  193.5840  174.2750  144.9980 C   0  0  2  0  0  3  0  0  0  0  0  0
  192.5060  174.3590  146.0020 C   0  0  1  0  0  3  0  0  0  0  0  0
  194.5300  176.2180  143.7810 O   0  0  0  0  0  0  0  0  0  0  0  0
  196.7830  174.2800  141.8100 O   0  0  0  0  0  0  0  0  0  0  0  0
  194.7950  176.2570  141.4080 C   0  0  0  0  0  1  0  0  0  0  0  0
  196.1600  174.7160  142.8140 C   0  0  0  0  0  0  0  0  0  0  0  0
  194.8300  175.4040  142.6620 C   0  0  1  0  0  3  0  0  0  0  0  0
  196.0010  175.0200  145.3000 C   0  0  0  0  0  2  0  0  0  0  0  0
  194.5710  175.4570  144.9770 C   0  0  2  0  0  3  0  0  0  0  0  0
  196.6570  174.4550  144.1250 N   0  0  0  0  0  2  0  0  0  0  0  0
  191.2530  175.6280  147.7350 C   0  0  0  0  0  1  0  0  0  0  0  0
  192.4910  175.6190  146.8620 C   0  0  0  0  0  2  0  0  0  0  0  0
  2  1  1  0  0  0  0
  2  3  1  0  0  0  0
  3 13  1  6  0  0  0
  3  5  1  0  0  0  0
  4  6  2  3  0  0  0
  4  5  1  0  0  0  0
  5  9  2  0  0  0  0
  6 10  1  0  0  0  0
  6  8  1  0  0  0  0
  8 12  2  3  0  0  0
  9 12  1  0  0  0  0
 10  7  1  6  0  0  0
 10 11  1  0  0  0  0
 10  8  1  0  0  0  0
 14 15  1  0  0  0  0
 15 13  1  0  0  0  0
 16 15  2  0  0  0  0
 17  1  1  0  0  0  0
 17 18  1  0  0  0  0
 18 19  1  0  0  0  0
 19 21  1  0  0  0  0
 20 19  1  6  0  0  0
 20 21  1  0  0  0  0
 21 31  1  1  0  0  0
 22 28  1  0  0  0  0
 23 25  2  0  0  0  0
 25 29  1  0  0  0  0
 26 24  1  6  0  0  0
 26 25  1  0  0  0  0
 26 22  1  0  0  0  0
 28 20  1  0  0  0  0
 28 27  1  6  0  0  0
 29 27  1  0  0  0  0
 31 30  1  0  0  0  0
M  END
>  <MODEL>
9

>  <REMARK>
 VINA RESULT:      -6.4      2.768      4.532
  Name = 
  10 active torsions:
  status: ('A' for Active; 'I' for Inactive)
    1  A    between atoms: C_4  and  C_16
    2  A    between atoms: N_5  and  C_31
    3  A    between atoms: O_6  and  C_9
    4  A    between atoms: O_6  and  C_22
    5  A    between atoms: C_8  and  C_25
    6  A    between atoms: C_9  and  C_29
    7  A    between atoms: C_11  and  C_22
    8  A    between atoms: C_16  and  C_22
    9  A    between atoms: C_21  and  C_27
   10  A    between atoms: C_29  and  C_31
                            x       y       z     vdW  Elec       q    Type
                         _______ _______ _______ _____ _____    ______ ____

>  <TORSDO>
F 10

$$$$
