=
 OpenBabel11042415103D

 27 29  0  0  1  0  0  0  0  0999 V2000
  190.1100  175.8600  144.6100 C   0  0  1  0  0  3  0  0  0  0  0  0
  188.9610  175.5770  143.7630 N   0  0  0  0  0  2  0  0  0  0  0  0
  186.0970  177.7870  143.0860 C   0  0  0  0  0  0  0  0  0  0  0  0
  188.0670  176.5950  143.3120 C   0  0  0  0  0  0  0  0  0  0  0  0
  188.4380  177.8270  142.2340 S   0  0  0  0  0  0  0  0  0  0  0  0
  186.9110  178.5380  142.2330 C   0  0  0  0  0  3  0  0  0  0  0  0
  186.7450  176.6990  143.6970 C   0  0  0  0  0  3  0  0  0  0  0  0
  183.8260  177.8970  142.4480 O   0  0  0  0  0  0  0  0  0  0  0  0
  184.6840  178.1520  143.3340 C   0  0  0  0  0  0  0  0  0  0  0  0
  184.2420  178.7940  144.5400 N   0  0  0  0  0  2  0  0  0  0  0  0
  185.0260  178.9380  145.7600 C   0  0  0  0  0  2  0  0  0  0  0  0
  184.8260  177.7360  146.6690 C   0  0  0  0  0  2  0  0  0  0  0  0
  186.0380  177.5390  147.5560 C   0  0  0  0  0  1  0  0  0  0  0  0
  191.2600  176.1810  143.7790 N   0  0  0  0  0  2  0  0  0  0  0  0
  192.2260  176.7110  144.6080 O   0  0  0  0  0  0  0  0  0  0  0  0
  194.2360  177.2640  146.8490 O   0  0  0  0  0  0  0  0  0  0  0  0
  193.6530  174.8330  144.4880 N   0  0  0  0  0  0  0  0  0  0  0  0
  194.8090  174.4010  145.2230 C   0  0  0  0  0  0  0  0  0  0  0  0
  195.1840  175.2000  146.1760 N   0  0  0  0  0  0  0  0  0  0  0  0
  194.2380  176.2500  146.1040 C   0  0  0  0  0  0  0  0  0  0  0  0
  193.3160  175.9520  145.0330 C   0  0  0  0  0  0  0  0  0  0  0  0
  195.5250  173.1350  144.9190 C   0  0  0  0  0  1  0  0  0  0  0  0
  189.7980  177.0320  145.5250 C   0  0  0  0  0  2  0  0  0  0  0  0
  190.0220  175.1220  147.0800 C   0  0  0  0  0  2  0  0  0  0  0  0
  191.1840  175.4660  147.8870 N   0  0  0  0  0  2  0  0  0  0  0  0
  190.7900  176.8640  147.7980 C   0  0  0  0  0  2  0  0  0  0  0  0
  189.5760  176.5580  146.9520 C   0  0  0  0  0  3  0  0  0  0  0  0
  1 23  1  1  0  0  0
  2  1  1  0  0  0  0
  3  9  1  0  0  0  0
  3  7  1  0  0  0  0
  4  7  2  0  0  0  0
  4  2  1  0  0  0  0
  5  4  1  0  0  0  0
  6  5  1  0  0  0  0
  6  3  2  0  0  0  0
  8  9  2  0  0  0  0
  9 10  1  0  0  0  0
 10 11  1  0  0  0  0
 11 12  1  0  0  0  0
 12 13  1  0  0  0  0
 14 15  1  0  0  0  0
 14  1  1  0  0  0  0
 15 21  1  0  0  0  0
 17 21  2  0  0  0  0
 17 18  1  0  0  0  0
 18 19  2  0  0  0  0
 20 19  1  0  0  0  0
 20 16  2  0  0  0  0
 21 20  1  0  0  0  0
 22 18  1  0  0  0  0
 23 27  1  0  0  0  0
 24 25  1  0  0  0  0
 26 25  1  0  0  0  0
 27 24  1  0  0  0  0
 27 26  1  0  0  0  0
M  END
>  <MODEL>
1

>  <REMARK>
 VINA RESULT:      -6.1      0.000      0.000
  Name = 
  10 active torsions:
  status: ('A' for Active; 'I' for Inactive)
    1  A    between atoms: N_2  and  C_7
    2  A    between atoms: N_2  and  C_15
    3  A    between atoms: O_6  and  N_19
    4  A    between atoms: O_6  and  C_23
    5  A    between atoms: C_7  and  N_19
    6  A    between atoms: C_7  and  C_21
    7  A    between atoms: C_8  and  C_10
    8  A    between atoms: C_10  and  N_18
    9  A    between atoms: C_11  and  C_13
   10  A    between atoms: C_21  and  C_26
                            x       y       z     vdW  Elec       q    Type
                         _______ _______ _______ _____ _____    ______ ____

>  <TORSDO>
F 10

$$$$
=
 OpenBabel11042415103D

 27 29  0  0  1  0  0  0  0  0999 V2000
  189.1400  175.1320  143.9040 C   0  0  1  0  0  3  0  0  0  0  0  0
  188.0330  175.0980  142.9600 N   0  0  0  0  0  2  0  0  0  0  0  0
  185.4940  177.7300  142.5470 C   0  0  0  0  0  0  0  0  0  0  0  0
  187.2800  176.2610  142.6130 C   0  0  0  0  0  0  0  0  0  0  0  0
  187.7890  177.5030  141.6060 S   0  0  0  0  0  0  0  0  0  0  0  0
  186.3800  178.4180  141.7130 C   0  0  0  0  0  3  0  0  0  0  0  0
  185.9990  176.5220  143.0590 C   0  0  0  0  0  3  0  0  0  0  0  0
  183.2140  178.1040  142.0570 O   0  0  0  0  0  0  0  0  0  0  0  0
  184.1560  178.2710  142.8770 C   0  0  0  0  0  0  0  0  0  0  0  0
  183.8780  178.9890  144.0880 N   0  0  0  0  0  2  0  0  0  0  0  0
  184.7570  179.0640  145.2490 C   0  0  0  0  0  2  0  0  0  0  0  0
  184.2480  178.1650  146.3630 C   0  0  0  0  0  2  0  0  0  0  0  0
  185.2300  177.0420  146.6250 C   0  0  0  0  0  1  0  0  0  0  0  0
  190.3990  175.1780  143.1750 N   0  0  0  0  0  2  0  0  0  0  0  0
  191.2580  175.9810  143.8960 O   0  0  0  0  0  0  0  0  0  0  0  0
  192.5180  173.5050  145.1820 O   0  0  0  0  0  0  0  0  0  0  0  0
  193.5690  176.4020  143.6590 N   0  0  0  0  0  0  0  0  0  0  0  0
  194.7630  175.6880  144.0170 C   0  0  0  0  0  0  0  0  0  0  0  0
  194.5650  174.5480  144.6060 N   0  0  0  0  0  0  0  0  0  0  0  0
  193.1540  174.4600  144.6650 C   0  0  0  0  0  0  0  0  0  0  0  0
  192.6030  175.6480  144.0550 C   0  0  0  0  0  0  0  0  0  0  0  0
  196.1250  176.2100  143.7340 C   0  0  0  0  0  1  0  0  0  0  0  0
  189.0210  176.3580  144.7930 C   0  0  0  0  0  2  0  0  0  0  0  0
  189.3820  174.6060  146.5010 C   0  0  0  0  0  2  0  0  0  0  0  0
  190.4250  175.1620  147.3530 N   0  0  0  0  0  2  0  0  0  0  0  0
  189.8540  176.4830  147.1310 C   0  0  0  0  0  2  0  0  0  0  0  0
  188.7590  175.9550  146.2350 C   0  0  0  0  0  3  0  0  0  0  0  0
  1 23  1  1  0  0  0
  2  1  1  0  0  0  0
  3  9  1  0  0  0  0
  3  7  1  0  0  0  0
  4  2  1  0  0  0  0
  4  7  2  0  0  0  0
  5  6  1  0  0  0  0
  5  4  1  0  0  0  0
  6  3  2  0  0  0  0
  8  9  2  0  0  0  0
  9 10  1  0  0  0  0
 10 11  1  0  0  0  0
 11 12  1  0  0  0  0
 12 13  1  0  0  0  0
 14 15  1  0  0  0  0
 14  1  1  0  0  0  0
 15 21  1  0  0  0  0
 17 18  1  0  0  0  0
 17 21  2  0  0  0  0
 18 19  2  0  0  0  0
 19 20  1  0  0  0  0
 20 16  2  0  0  0  0
 21 20  1  0  0  0  0
 22 18  1  0  0  0  0
 23 27  1  0  0  0  0
 24 25  1  0  0  0  0
 26 25  1  0  0  0  0
 27 24  1  0  0  0  0
 27 26  1  0  0  0  0
M  END
>  <MODEL>
2

>  <REMARK>
 VINA RESULT:      -6.0      1.508      1.628
  Name = 
  10 active torsions:
  status: ('A' for Active; 'I' for Inactive)
    1  A    between atoms: N_2  and  C_7
    2  A    between atoms: N_2  and  C_15
    3  A    between atoms: O_6  and  N_19
    4  A    between atoms: O_6  and  C_23
    5  A    between atoms: C_7  and  N_19
    6  A    between atoms: C_7  and  C_21
    7  A    between atoms: C_8  and  C_10
    8  A    between atoms: C_10  and  N_18
    9  A    between atoms: C_11  and  C_13
   10  A    between atoms: C_21  and  C_26
                            x       y       z     vdW  Elec       q    Type
                         _______ _______ _______ _____ _____    ______ ____

>  <TORSDO>
F 10

$$$$
=
 OpenBabel11042415103D

 27 29  0  0  1  0  0  0  0  0999 V2000
  189.8250  175.8800  145.9150 C   0  0  1  0  0  3  0  0  0  0  0  0
  188.9390  176.6030  146.8160 N   0  0  0  0  0  2  0  0  0  0  0  0
  186.1870  178.3370  145.0930 C   0  0  0  0  0  0  0  0  0  0  0  0
  187.6890  177.1500  146.3920 C   0  0  0  0  0  0  0  0  0  0  0  0
  186.2190  176.9810  147.1830 S   0  0  0  0  0  0  0  0  0  0  0  0
  185.3150  177.8880  146.0900 C   0  0  0  0  0  3  0  0  0  0  0  0
  187.5190  177.9190  145.2570 C   0  0  0  0  0  3  0  0  0  0  0  0
  185.4940  180.3790  144.1310 O   0  0  0  0  0  0  0  0  0  0  0  0
  185.7110  179.1510  143.9520 C   0  0  0  0  0  0  0  0  0  0  0  0
  185.4770  178.6060  142.6450 N   0  0  0  0  0  2  0  0  0  0  0  0
  185.9020  177.2890  142.1880 C   0  0  0  0  0  2  0  0  0  0  0  0
  186.9090  177.4160  141.0560 C   0  0  0  0  0  2  0  0  0  0  0  0
  188.2430  177.8970  141.5890 C   0  0  0  0  0  1  0  0  0  0  0  0
  191.2090  176.1830  146.2490 N   0  0  0  0  0  2  0  0  0  0  0  0
  191.7410  176.8810  145.1860 O   0  0  0  0  0  0  0  0  0  0  0  0
  194.4260  177.3100  146.5920 O   0  0  0  0  0  0  0  0  0  0  0  0
  193.2920  176.1610  143.5560 N   0  0  0  0  0  0  0  0  0  0  0  0
  194.7240  176.0650  143.5050 C   0  0  0  0  0  0  0  0  0  0  0  0
  195.3390  176.4540  144.5800 N   0  0  0  0  0  0  0  0  0  0  0  0
  194.2780  176.8450  145.4320 C   0  0  0  0  0  0  0  0  0  0  0  0
  193.0350  176.6320  144.7280 C   0  0  0  0  0  0  0  0  0  0  0  0
  195.4520  175.5580  142.3120 C   0  0  0  0  0  1  0  0  0  0  0  0
  189.5840  174.3860  146.0450 C   0  0  0  0  0  2  0  0  0  0  0  0
  189.7670  172.2810  144.7620 C   0  0  0  0  0  2  0  0  0  0  0  0
  189.3590  172.6580  143.4160 N   0  0  0  0  0  2  0  0  0  0  0  0
  189.9780  173.9580  143.6300 C   0  0  0  0  0  2  0  0  0  0  0  0
  190.4160  173.6150  145.0340 C   0  0  0  0  0  3  0  0  0  0  0  0
  1 23  1  1  0  0  0
  1 14  1  0  0  0  0
  1  2  1  0  0  0  0
  3  7  1  0  0  0  0
  3  6  2  0  0  0  0
  4  2  1  0  0  0  0
  4  5  1  0  0  0  0
  6  5  1  0  0  0  0
  7  4  2  0  0  0  0
  9  8  2  0  0  0  0
  9  3  1  0  0  0  0
 10  9  1  0  0  0  0
 11 10  1  0  0  0  0
 12 13  1  0  0  0  0
 12 11  1  0  0  0  0
 15 14  1  0  0  0  0
 17 21  2  0  0  0  0
 18 17  1  0  0  0  0
 18 19  2  0  0  0  0
 19 20  1  0  0  0  0
 20 16  2  0  0  0  0
 21 15  1  0  0  0  0
 21 20  1  0  0  0  0
 22 18  1  0  0  0  0
 24 27  1  0  0  0  0
 25 26  1  0  0  0  0
 25 24  1  0  0  0  0
 26 27  1  0  0  0  0
 27 23  1  0  0  0  0
M  END
>  <MODEL>
3

>  <REMARK>
 VINA RESULT:      -5.9      2.249      3.422
  Name = 
  10 active torsions:
  status: ('A' for Active; 'I' for Inactive)
    1  A    between atoms: N_2  and  C_7
    2  A    between atoms: N_2  and  C_15
    3  A    between atoms: O_6  and  N_19
    4  A    between atoms: O_6  and  C_23
    5  A    between atoms: C_7  and  N_19
    6  A    between atoms: C_7  and  C_21
    7  A    between atoms: C_8  and  C_10
    8  A    between atoms: C_10  and  N_18
    9  A    between atoms: C_11  and  C_13
   10  A    between atoms: C_21  and  C_26
                            x       y       z     vdW  Elec       q    Type
                         _______ _______ _______ _____ _____    ______ ____

>  <TORSDO>
F 10

$$$$
=
 OpenBabel11042415103D

 27 29  0  0  1  0  0  0  0  0999 V2000
  189.5250  174.9020  142.2180 C   0  0  1  0  0  3  0  0  0  0  0  0
  188.1180  175.0360  142.5670 N   0  0  0  0  0  2  0  0  0  0  0  0
  185.7280  177.8180  142.8800 C   0  0  0  0  0  0  0  0  0  0  0  0
  187.4410  176.2940  142.5700 C   0  0  0  0  0  0  0  0  0  0  0  0
  188.0720  177.7550  142.0380 S   0  0  0  0  0  0  0  0  0  0  0  0
  186.6990  178.6770  142.3560 C   0  0  0  0  0  3  0  0  0  0  0  0
  186.1440  176.4810  143.0060 C   0  0  0  0  0  3  0  0  0  0  0  0
  183.4440  178.2540  142.4680 O   0  0  0  0  0  0  0  0  0  0  0  0
  184.3950  178.3100  143.2930 C   0  0  0  0  0  0  0  0  0  0  0  0
  184.1310  178.8590  144.5930 N   0  0  0  0  0  2  0  0  0  0  0  0
  185.0220  178.7770  145.7440 C   0  0  0  0  0  2  0  0  0  0  0  0
  184.8240  177.4620  146.4800 C   0  0  0  0  0  2  0  0  0  0  0  0
  186.1620  176.8090  146.7620 C   0  0  0  0  0  1  0  0  0  0  0  0
  190.2420  174.2780  143.3200 N   0  0  0  0  0  2  0  0  0  0  0  0
  189.6470  174.7080  144.4870 O   0  0  0  0  0  0  0  0  0  0  0  0
  189.0290  174.5370  147.4800 O   0  0  0  0  0  0  0  0  0  0  0  0
  191.5580  175.6970  145.4610 N   0  0  0  0  0  0  0  0  0  0  0  0
  191.9770  175.9590  146.8100 C   0  0  0  0  0  0  0  0  0  0  0  0
  191.1420  175.5780  147.7280 N   0  0  0  0  0  0  0  0  0  0  0  0
  190.0770  175.0200  146.9810 C   0  0  0  0  0  0  0  0  0  0  0  0
  190.4070  175.1280  145.5790 C   0  0  0  0  0  0  0  0  0  0  0  0
  193.2710  176.6140  147.1340 C   0  0  0  0  0  1  0  0  0  0  0  0
  189.6650  174.0480  140.9690 C   0  0  0  0  0  2  0  0  0  0  0  0
  188.1890  174.5380  139.0470 C   0  0  0  0  0  2  0  0  0  0  0  0
  188.2660  173.3320  138.2350 N   0  0  0  0  0  2  0  0  0  0  0  0
  188.3750  172.5540  139.4600 C   0  0  0  0  0  2  0  0  0  0  0  0
  188.3070  173.7770  140.3450 C   0  0  0  0  0  3  0  0  0  0  0  0
  1 23  1  6  0  0  0
  1  2  1  0  0  0  0
  1 14  1  0  0  0  0
  2  4  1  0  0  0  0
  3  7  1  0  0  0  0
  3  9  1  0  0  0  0
  4  7  2  0  0  0  0
  5  6  1  0  0  0  0
  5  4  1  0  0  0  0
  6  3  2  0  0  0  0
  8  9  2  0  0  0  0
  9 10  1  0  0  0  0
 10 11  1  0  0  0  0
 11 12  1  0  0  0  0
 12 13  1  0  0  0  0
 14 15  1  0  0  0  0
 15 21  1  0  0  0  0
 17 21  2  0  0  0  0
 17 18  1  0  0  0  0
 18 22  1  0  0  0  0
 18 19  2  0  0  0  0
 20 16  2  0  0  0  0
 20 19  1  0  0  0  0
 21 20  1  0  0  0  0
 24 27  1  0  0  0  0
 25 24  1  0  0  0  0
 25 26  1  0  0  0  0
 26 27  1  0  0  0  0
 27 23  1  0  0  0  0
M  END
>  <MODEL>
4

>  <REMARK>
 VINA RESULT:      -5.9      2.591      4.321
  Name = 
  10 active torsions:
  status: ('A' for Active; 'I' for Inactive)
    1  A    between atoms: N_2  and  C_7
    2  A    between atoms: N_2  and  C_15
    3  A    between atoms: O_6  and  N_19
    4  A    between atoms: O_6  and  C_23
    5  A    between atoms: C_7  and  N_19
    6  A    between atoms: C_7  and  C_21
    7  A    between atoms: C_8  and  C_10
    8  A    between atoms: C_10  and  N_18
    9  A    between atoms: C_11  and  C_13
   10  A    between atoms: C_21  and  C_26
                            x       y       z     vdW  Elec       q    Type
                         _______ _______ _______ _____ _____    ______ ____

>  <TORSDO>
F 10

$$$$
=
 OpenBabel11042415103D

 27 29  0  0  1  0  0  0  0  0999 V2000
  188.5860  177.1840  144.0830 C   0  0  1  0  0  3  0  0  0  0  0  0
  189.1030  175.9040  144.5450 N   0  0  0  0  0  2  0  0  0  0  0  0
  192.3500  175.9580  146.2770 C   0  0  0  0  0  0  0  0  0  0  0  0
  190.1880  175.7990  145.4670 C   0  0  0  0  0  0  0  0  0  0  0  0
  190.1050  175.1760  147.0230 S   0  0  0  0  0  0  0  0  0  0  0  0
  191.7320  175.3950  147.3980 C   0  0  0  0  0  3  0  0  0  0  0  0
  191.4840  176.1910  145.1940 C   0  0  0  0  0  3  0  0  0  0  0  0
  194.1810  177.2800  146.9670 O   0  0  0  0  0  0  0  0  0  0  0  0
  193.7890  176.3040  146.2730 C   0  0  0  0  0  0  0  0  0  0  0  0
  194.7660  175.5820  145.5070 N   0  0  0  0  0  2  0  0  0  0  0  0
  194.5500  174.2970  144.8550 C   0  0  0  0  0  2  0  0  0  0  0  0
  195.3540  173.2060  145.5460 C   0  0  0  0  0  2  0  0  0  0  0  0
  196.6840  173.7540  146.0230 C   0  0  0  0  0  1  0  0  0  0  0  0
  187.8390  176.9900  142.8500 N   0  0  0  0  0  2  0  0  0  0  0  0
  187.0980  178.1330  142.6390 O   0  0  0  0  0  0  0  0  0  0  0  0
  186.6930  177.6700  139.6400 O   0  0  0  0  0  0  0  0  0  0  0  0
  184.7530  178.3020  142.4080 N   0  0  0  0  0  0  0  0  0  0  0  0
  183.8420  178.1920  141.3030 C   0  0  0  0  0  0  0  0  0  0  0  0
  184.3970  177.9450  140.1560 N   0  0  0  0  0  0  0  0  0  0  0  0
  185.7750  177.8790  140.4750 C   0  0  0  0  0  0  0  0  0  0  0  0
  185.9190  178.1090  141.8930 C   0  0  0  0  0  0  0  0  0  0  0  0
  182.3720  178.3480  141.4580 C   0  0  0  0  0  1  0  0  0  0  0  0
  187.6760  177.7830  145.1420 C   0  0  0  0  0  2  0  0  0  0  0  0
  186.6720  176.8890  147.2170 C   0  0  0  0  0  2  0  0  0  0  0  0
  185.3020  177.3780  147.1790 N   0  0  0  0  0  2  0  0  0  0  0  0
  185.3260  177.2310  145.7310 C   0  0  0  0  0  2  0  0  0  0  0  0
  186.7490  176.7260  145.7190 C   0  0  0  0  0  3  0  0  0  0  0  0
  1  2  1  0  0  0  0
  1 23  1  1  0  0  0
  2  4  1  0  0  0  0
  3  6  2  0  0  0  0
  4  5  1  0  0  0  0
  5  6  1  0  0  0  0
  7  4  2  0  0  0  0
  7  3  1  0  0  0  0
  9  3  1  0  0  0  0
  9  8  2  0  0  0  0
 10  9  1  0  0  0  0
 11 10  1  0  0  0  0
 11 12  1  0  0  0  0
 12 13  1  0  0  0  0
 14  1  1  0  0  0  0
 15 14  1  0  0  0  0
 16 20  2  0  0  0  0
 18 22  1  0  0  0  0
 18 17  1  0  0  0  0
 19 20  1  0  0  0  0
 19 18  2  0  0  0  0
 20 21  1  0  0  0  0
 21 17  2  0  0  0  0
 21 15  1  0  0  0  0
 23 27  1  0  0  0  0
 25 24  1  0  0  0  0
 26 25  1  0  0  0  0
 27 26  1  0  0  0  0
 27 24  1  0  0  0  0
M  END
>  <MODEL>
5

>  <REMARK>
 VINA RESULT:      -5.9      2.313      8.510
  Name = 
  10 active torsions:
  status: ('A' for Active; 'I' for Inactive)
    1  A    between atoms: N_2  and  C_7
    2  A    between atoms: N_2  and  C_15
    3  A    between atoms: O_6  and  N_19
    4  A    between atoms: O_6  and  C_23
    5  A    between atoms: C_7  and  N_19
    6  A    between atoms: C_7  and  C_21
    7  A    between atoms: C_8  and  C_10
    8  A    between atoms: C_10  and  N_18
    9  A    between atoms: C_11  and  C_13
   10  A    between atoms: C_21  and  C_26
                            x       y       z     vdW  Elec       q    Type
                         _______ _______ _______ _____ _____    ______ ____

>  <TORSDO>
F 10

$$$$
=
 OpenBabel11042415103D

 27 29  0  0  1  0  0  0  0  0999 V2000
  188.9900  175.9370  145.9070 C   0  0  1  0  0  3  0  0  0  0  0  0
  188.7900  175.5080  144.5300 N   0  0  0  0  0  2  0  0  0  0  0  0
  187.1660  177.4600  141.8660 C   0  0  0  0  0  0  0  0  0  0  0  0
  188.4530  176.4170  143.4820 C   0  0  0  0  0  0  0  0  0  0  0  0
  189.4820  177.5420  142.7820 S   0  0  0  0  0  0  0  0  0  0  0  0
  188.3640  178.1580  141.6840 C   0  0  0  0  0  3  0  0  0  0  0  0
  187.2120  176.4860  142.8790 C   0  0  0  0  0  3  0  0  0  0  0  0
  186.0320  177.7370  139.8140 O   0  0  0  0  0  0  0  0  0  0  0  0
  185.9560  177.7680  141.0710 C   0  0  0  0  0  0  0  0  0  0  0  0
  184.6950  178.1110  141.6650 N   0  0  0  0  0  2  0  0  0  0  0  0
  184.3520  177.9570  143.0730 C   0  0  0  0  0  2  0  0  0  0  0  0
  184.1740  179.3160  143.7310 C   0  0  0  0  0  2  0  0  0  0  0  0
  185.5180  179.8840  144.1370 C   0  0  0  0  0  1  0  0  0  0  0  0
  190.3820  176.3110  146.1030 N   0  0  0  0  0  2  0  0  0  0  0  0
  191.0920  175.1450  146.3030 O   0  0  0  0  0  0  0  0  0  0  0  0
  191.8500  174.8470  143.3520 O   0  0  0  0  0  0  0  0  0  0  0  0
  193.4330  174.8480  146.4040 N   0  0  0  0  0  0  0  0  0  0  0  0
  194.4640  174.6540  145.4240 C   0  0  0  0  0  0  0  0  0  0  0  0
  194.0540  174.6310  144.1920 N   0  0  0  0  0  0  0  0  0  0  0  0
  192.6570  174.8190  144.3170 C   0  0  0  0  0  0  0  0  0  0  0  0
  192.3450  174.9480  145.7210 C   0  0  0  0  0  0  0  0  0  0  0  0
  195.8970  174.4920  145.7880 C   0  0  0  0  0  1  0  0  0  0  0  0
  188.0950  177.1270  146.2110 C   0  0  0  0  0  2  0  0  0  0  0  0
  186.3210  177.9300  147.7340 C   0  0  0  0  0  2  0  0  0  0  0  0
  185.1160  177.8830  146.9180 N   0  0  0  0  0  2  0  0  0  0  0  0
  185.6480  176.6980  146.2610 C   0  0  0  0  0  2  0  0  0  0  0  0
  186.9180  176.7090  147.0780 C   0  0  0  0  0  3  0  0  0  0  0  0
  1 14  1  0  0  0  0
  1 23  1  6  0  0  0
  2  1  1  0  0  0  0
  3  7  1  0  0  0  0
  4  2  1  0  0  0  0
  5  4  1  0  0  0  0
  6  3  2  0  0  0  0
  6  5  1  0  0  0  0
  7  4  2  0  0  0  0
  8  9  2  0  0  0  0
  9 10  1  0  0  0  0
  9  3  1  0  0  0  0
 10 11  1  0  0  0  0
 11 12  1  0  0  0  0
 12 13  1  0  0  0  0
 14 15  1  0  0  0  0
 16 20  2  0  0  0  0
 18 22  1  0  0  0  0
 18 17  1  0  0  0  0
 19 20  1  0  0  0  0
 19 18  2  0  0  0  0
 20 21  1  0  0  0  0
 21 15  1  0  0  0  0
 21 17  2  0  0  0  0
 23 27  1  0  0  0  0
 25 24  1  0  0  0  0
 26 25  1  0  0  0  0
 26 27  1  0  0  0  0
 27 24  1  0  0  0  0
M  END
>  <MODEL>
6

>  <REMARK>
 VINA RESULT:      -5.8      1.851      2.985
  Name = 
  10 active torsions:
  status: ('A' for Active; 'I' for Inactive)
    1  A    between atoms: N_2  and  C_7
    2  A    between atoms: N_2  and  C_15
    3  A    between atoms: O_6  and  N_19
    4  A    between atoms: O_6  and  C_23
    5  A    between atoms: C_7  and  N_19
    6  A    between atoms: C_7  and  C_21
    7  A    between atoms: C_8  and  C_10
    8  A    between atoms: C_10  and  N_18
    9  A    between atoms: C_11  and  C_13
   10  A    between atoms: C_21  and  C_26
                            x       y       z     vdW  Elec       q    Type
                         _______ _______ _______ _____ _____    ______ ____

>  <TORSDO>
F 10

$$$$
=
 OpenBabel11042415103D

 27 29  0  0  1  0  0  0  0  0999 V2000
  189.9560  175.6310  142.1730 C   0  0  1  0  0  3  0  0  0  0  0  0
  189.5470  177.0190  142.3300 N   0  0  0  0  0  2  0  0  0  0  0  0
  186.3040  178.3140  143.4910 C   0  0  0  0  0  0  0  0  0  0  0  0
  188.1810  177.4050  142.4910 C   0  0  0  0  0  0  0  0  0  0  0  0
  186.9380  177.1110  141.4030 S   0  0  0  0  0  0  0  0  0  0  0  0
  185.7210  177.8410  142.3110 C   0  0  0  0  0  3  0  0  0  0  0  0
  187.6850  178.0760  143.5920 C   0  0  0  0  0  3  0  0  0  0  0  0
  185.1090  180.2010  144.2590 O   0  0  0  0  0  0  0  0  0  0  0  0
  185.5130  179.0350  144.5140 C   0  0  0  0  0  0  0  0  0  0  0  0
  185.1890  178.4710  145.7940 N   0  0  0  0  0  2  0  0  0  0  0  0
  185.3500  177.0720  146.1680 C   0  0  0  0  0  2  0  0  0  0  0  0
  186.3580  176.9330  147.2980 C   0  0  0  0  0  2  0  0  0  0  0  0
  187.6700  176.3910  146.7700 C   0  0  0  0  0  1  0  0  0  0  0  0
  191.3620  175.4960  142.5260 N   0  0  0  0  0  2  0  0  0  0  0  0
  191.7140  176.6260  143.2330 O   0  0  0  0  0  0  0  0  0  0  0  0
  194.4760  176.5110  144.5480 O   0  0  0  0  0  0  0  0  0  0  0  0
  191.1810  176.5300  145.5320 N   0  0  0  0  0  0  0  0  0  0  0  0
  191.9540  176.4650  146.7400 C   0  0  0  0  0  0  0  0  0  0  0  0
  193.2410  176.4550  146.5690 N   0  0  0  0  0  0  0  0  0  0  0  0
  193.3770  176.5150  145.1620 C   0  0  0  0  0  0  0  0  0  0  0  0
  192.0540  176.5620  144.5840 C   0  0  0  0  0  0  0  0  0  0  0  0
  191.3320  176.4150  148.0890 C   0  0  0  0  0  1  0  0  0  0  0  0
  189.1170  174.7420  143.0750 C   0  0  0  0  0  2  0  0  0  0  0  0
  189.1050  173.4830  140.9470 C   0  0  0  0  0  2  0  0  0  0  0  0
  189.6120  172.1700  141.3180 N   0  0  0  0  0  2  0  0  0  0  0  0
  188.9380  172.3090  142.6000 C   0  0  0  0  0  2  0  0  0  0  0  0
  188.3950  173.6780  142.2640 C   0  0  0  0  0  3  0  0  0  0  0  0
  1  2  1  0  0  0  0
  1 14  1  0  0  0  0
  1 23  1  1  0  0  0
  2  4  1  0  0  0  0
  3  7  1  0  0  0  0
  3  9  1  0  0  0  0
  4  7  2  0  0  0  0
  5  6  1  0  0  0  0
  5  4  1  0  0  0  0
  6  3  2  0  0  0  0
  8  9  2  0  0  0  0
  9 10  1  0  0  0  0
 10 11  1  0  0  0  0
 11 12  1  0  0  0  0
 13 12  1  0  0  0  0
 14 15  1  0  0  0  0
 15 21  1  0  0  0  0
 16 20  2  0  0  0  0
 17 18  1  0  0  0  0
 18 22  1  0  0  0  0
 19 18  2  0  0  0  0
 20 19  1  0  0  0  0
 21 20  1  0  0  0  0
 21 17  2  0  0  0  0
 24 25  1  0  0  0  0
 24 27  1  0  0  0  0
 25 26  1  0  0  0  0
 27 26  1  0  0  0  0
 27 23  1  0  0  0  0
M  END
>  <MODEL>
7

>  <REMARK>
 VINA RESULT:      -5.8      2.185      3.457
  Name = 
  10 active torsions:
  status: ('A' for Active; 'I' for Inactive)
    1  A    between atoms: N_2  and  C_7
    2  A    between atoms: N_2  and  C_15
    3  A    between atoms: O_6  and  N_19
    4  A    between atoms: O_6  and  C_23
    5  A    between atoms: C_7  and  N_19
    6  A    between atoms: C_7  and  C_21
    7  A    between atoms: C_8  and  C_10
    8  A    between atoms: C_10  and  N_18
    9  A    between atoms: C_11  and  C_13
   10  A    between atoms: C_21  and  C_26
                            x       y       z     vdW  Elec       q    Type
                         _______ _______ _______ _____ _____    ______ ____

>  <TORSDO>
F 10

$$$$
=
 OpenBabel11042415103D

 27 29  0  0  1  0  0  0  0  0999 V2000
  186.9960  177.5740  144.9500 C   0  0  1  0  0  3  0  0  0  0  0  0
  187.9490  176.6520  144.3510 N   0  0  0  0  0  2  0  0  0  0  0  0
  191.4890  176.5940  145.3580 C   0  0  0  0  0  0  0  0  0  0  0  0
  189.3620  176.8180  144.4740 C   0  0  0  0  0  0  0  0  0  0  0  0
  190.3410  177.7290  143.4600 S   0  0  0  0  0  0  0  0  0  0  0  0
  191.7850  177.4190  144.2690 C   0  0  0  0  0  3  0  0  0  0  0  0
  190.1300  176.2500  145.4720 C   0  0  0  0  0  3  0  0  0  0  0  0
  192.8430  176.8060  147.2810 O   0  0  0  0  0  0  0  0  0  0  0  0
  192.5430  176.1070  146.2760 C   0  0  0  0  0  0  0  0  0  0  0  0
  193.2510  174.8750  146.0730 N   0  0  0  0  0  2  0  0  0  0  0  0
  192.8780  173.8300  145.1280 C   0  0  0  0  0  2  0  0  0  0  0  0
  193.4890  174.1030  143.7630 C   0  0  0  0  0  2  0  0  0  0  0  0
  192.5150  173.7250  142.6650 C   0  0  0  0  0  1  0  0  0  0  0  0
  186.5940  178.5670  143.9650 N   0  0  0  0  0  2  0  0  0  0  0  0
  186.4900  177.9180  142.7520 O   0  0  0  0  0  0  0  0  0  0  0  0
  186.2240  177.8760  139.7030 O   0  0  0  0  0  0  0  0  0  0  0  0
  184.1680  178.2150  142.4380 N   0  0  0  0  0  0  0  0  0  0  0  0
  183.3110  178.2920  141.2880 C   0  0  0  0  0  0  0  0  0  0  0  0
  183.9160  178.1760  140.1440 N   0  0  0  0  0  0  0  0  0  0  0  0
  185.2720  178.0100  140.5150 C   0  0  0  0  0  0  0  0  0  0  0  0
  185.3510  178.0420  141.9570 C   0  0  0  0  0  0  0  0  0  0  0  0
  181.8420  178.4880  141.3940 C   0  0  0  0  0  1  0  0  0  0  0  0
  185.7740  176.8100  145.4310 C   0  0  0  0  0  2  0  0  0  0  0  0
  186.5590  178.0310  147.4330 C   0  0  0  0  0  2  0  0  0  0  0  0
  185.6410  179.1560  147.5350 N   0  0  0  0  0  2  0  0  0  0  0  0
  184.5830  178.2940  147.0280 C   0  0  0  0  0  2  0  0  0  0  0  0
  185.4990  177.1000  146.8980 C   0  0  0  0  0  3  0  0  0  0  0  0
  1 23  1  6  0  0  0
  2  4  1  0  0  0  0
  2  1  1  0  0  0  0
  3  7  1  0  0  0  0
  3  9  1  0  0  0  0
  4  7  2  0  0  0  0
  5  6  1  0  0  0  0
  5  4  1  0  0  0  0
  6  3  2  0  0  0  0
  9  8  2  0  0  0  0
 10  9  1  0  0  0  0
 11 10  1  0  0  0  0
 12 11  1  0  0  0  0
 13 12  1  0  0  0  0
 14  1  1  0  0  0  0
 15 14  1  0  0  0  0
 16 20  2  0  0  0  0
 18 22  1  0  0  0  0
 18 17  1  0  0  0  0
 19 20  1  0  0  0  0
 19 18  2  0  0  0  0
 20 21  1  0  0  0  0
 21 17  2  0  0  0  0
 21 15  1  0  0  0  0
 23 27  1  0  0  0  0
 24 25  1  0  0  0  0
 26 25  1  0  0  0  0
 27 26  1  0  0  0  0
 27 24  1  0  0  0  0
M  END
>  <MODEL>
8

>  <REMARK>
 VINA RESULT:      -5.7      2.275      8.230
  Name = 
  10 active torsions:
  status: ('A' for Active; 'I' for Inactive)
    1  A    between atoms: N_2  and  C_7
    2  A    between atoms: N_2  and  C_15
    3  A    between atoms: O_6  and  N_19
    4  A    between atoms: O_6  and  C_23
    5  A    between atoms: C_7  and  N_19
    6  A    between atoms: C_7  and  C_21
    7  A    between atoms: C_8  and  C_10
    8  A    between atoms: C_10  and  N_18
    9  A    between atoms: C_11  and  C_13
   10  A    between atoms: C_21  and  C_26
                            x       y       z     vdW  Elec       q    Type
                         _______ _______ _______ _____ _____    ______ ____

>  <TORSDO>
F 10

$$$$
=
 OpenBabel11042415103D

 27 29  0  0  1  0  0  0  0  0999 V2000
  187.7120  177.7600  144.8120 C   0  0  1  0  0  3  0  0  0  0  0  0
  189.0280  177.2590  145.1830 N   0  0  0  0  0  2  0  0  0  0  0  0
  190.2420  174.1280  143.6770 C   0  0  0  0  0  0  0  0  0  0  0  0
  189.7040  176.2460  144.4370 C   0  0  0  0  0  0  0  0  0  0  0  0
  190.9750  176.4900  143.3700 S   0  0  0  0  0  0  0  0  0  0  0  0
  191.1830  174.8710  142.9560 C   0  0  0  0  0  3  0  0  0  0  0  0
  189.4070  174.8990  144.5040 C   0  0  0  0  0  3  0  0  0  0  0  0
  190.8440  171.9220  144.2660 O   0  0  0  0  0  0  0  0  0  0  0  0
  190.1330  172.6590  143.5320 C   0  0  0  0  0  0  0  0  0  0  0  0
  189.2580  172.0290  142.5840 N   0  0  0  0  0  2  0  0  0  0  0  0
  188.1970  172.6940  141.8390 C   0  0  0  0  0  2  0  0  0  0  0  0
  188.7220  173.2140  140.5110 C   0  0  0  0  0  2  0  0  0  0  0  0
  189.7460  172.2550  139.9370 C   0  0  0  0  0  1  0  0  0  0  0  0
  187.5420  177.6600  143.3710 N   0  0  0  0  0  2  0  0  0  0  0  0
  186.6860  178.6730  142.9900 O   0  0  0  0  0  0  0  0  0  0  0  0
  186.7570  177.8180  140.0520 O   0  0  0  0  0  0  0  0  0  0  0  0
  184.3940  178.5760  142.4320 N   0  0  0  0  0  0  0  0  0  0  0  0
  183.6630  178.2440  141.2410 C   0  0  0  0  0  0  0  0  0  0  0  0
  184.3960  177.9190  140.2190 N   0  0  0  0  0  0  0  0  0  0  0  0
  185.7140  178.0300  140.7230 C   0  0  0  0  0  0  0  0  0  0  0  0
  185.6330  178.4410  142.1060 C   0  0  0  0  0  0  0  0  0  0  0  0
  182.1780  178.2680  141.1780 C   0  0  0  0  0  1  0  0  0  0  0  0
  186.6360  176.9470  145.5110 C   0  0  0  0  0  2  0  0  0  0  0  0
  185.4870  179.0730  146.0320 C   0  0  0  0  0  2  0  0  0  0  0  0
  184.0830  178.6960  146.1240 N   0  0  0  0  0  2  0  0  0  0  0  0
  184.4990  177.4200  146.6880 C   0  0  0  0  0  2  0  0  0  0  0  0
  185.9680  177.7630  146.6050 C   0  0  0  0  0  3  0  0  0  0  0  0
  1  2  1  0  0  0  0
  1 23  1  1  0  0  0
  3  7  1  0  0  0  0
  4  7  2  0  0  0  0
  4  2  1  0  0  0  0
  5  4  1  0  0  0  0
  6  5  1  0  0  0  0
  6  3  2  0  0  0  0
  9  3  1  0  0  0  0
  9  8  2  0  0  0  0
 10  9  1  0  0  0  0
 11 10  1  0  0  0  0
 12 11  1  0  0  0  0
 13 12  1  0  0  0  0
 14  1  1  0  0  0  0
 15 14  1  0  0  0  0
 16 20  2  0  0  0  0
 18 17  1  0  0  0  0
 19 20  1  0  0  0  0
 19 18  2  0  0  0  0
 20 21  1  0  0  0  0
 21 17  2  0  0  0  0
 21 15  1  0  0  0  0
 22 18  1  0  0  0  0
 23 27  1  0  0  0  0
 24 25  1  0  0  0  0
 24 27  1  0  0  0  0
 25 26  1  0  0  0  0
 27 26  1  0  0  0  0
M  END
>  <MODEL>
9

>  <REMARK>
 VINA RESULT:      -5.7      3.389      7.936
  Name = 
  10 active torsions:
  status: ('A' for Active; 'I' for Inactive)
    1  A    between atoms: N_2  and  C_7
    2  A    between atoms: N_2  and  C_15
    3  A    between atoms: O_6  and  N_19
    4  A    between atoms: O_6  and  C_23
    5  A    between atoms: C_7  and  N_19
    6  A    between atoms: C_7  and  C_21
    7  A    between atoms: C_8  and  C_10
    8  A    between atoms: C_10  and  N_18
    9  A    between atoms: C_11  and  C_13
   10  A    between atoms: C_21  and  C_26
                            x       y       z     vdW  Elec       q    Type
                         _______ _______ _______ _____ _____    ______ ____

>  <TORSDO>
F 10

$$$$
