=
 OpenBabel11042418203D

 37 40  0  0  1  0  0  0  0  0999 V2000
  191.5290  176.0520  143.6100 C   0  0  0  0  0  0  0  0  0  0  0  0
  191.9970  175.8720  144.9430 N   0  0  0  0  0  0  0  0  0  0  0  0
  192.7230  176.3380  146.1640 C   0  0  1  0  0  3  0  0  0  0  0  0
  191.7500  177.1390  143.0150 O   0  0  0  0  0  0  0  0  0  0  0  0
  192.1180  175.0980  146.2120 C   0  0  1  0  0  3  0  0  0  0  0  0
  190.8130  174.7650  141.6420 O   0  0  0  0  0  0  0  0  0  0  0  0
  189.9540  174.0570  143.5630 C   0  0  0  0  0  3  0  0  0  0  0  0
  188.7390  172.3180  142.5780 O   0  0  0  0  0  0  0  0  0  0  0  0
  190.0610  173.7520  141.3390 N   0  0  0  0  0  0  0  0  0  0  0  0
  190.7820  174.9820  142.9380 C   0  0  0  0  0  0  0  0  0  0  0  0
  189.5260  173.2980  142.4920 C   0  0  0  0  0  0  0  0  0  0  0  0
  190.6000  171.8110  138.1890 C   0  0  0  0  0  3  0  0  0  0  0  0
  189.5200  172.2370  137.4110 C   0  0  0  0  0  0  0  0  0  0  0  0
  189.2970  171.5950  135.7970 Cl  0  0  0  0  0  0  0  0  0  0  0  0
  188.6200  173.1750  137.9200 C   0  0  0  0  0  3  0  0  0  0  0  0
  188.7960  173.6820  139.2110 C   0  0  0  0  0  3  0  0  0  0  0  0
  189.8750  173.2570  140.0020 C   0  0  0  0  0  0  0  0  0  0  0  0
  190.7750  172.3190  139.4780 C   0  0  0  0  0  3  0  0  0  0  0  0
  194.7770  175.1190  146.2400 O   0  0  0  0  0  0  0  0  0  0  0  0
  194.9440  177.2710  145.3840 N   0  0  0  0  0  1  0  0  0  0  0  0
  194.1970  176.2010  145.9570 C   0  0  0  0  0  0  0  0  0  0  0  0
  190.8070  175.1890  146.9720 C   0  0  0  0  0  2  0  0  0  0  0  0
  190.5570  176.6130  147.4360 C   0  0  0  0  0  2  0  0  0  0  0  0
  189.1420  177.0440  147.0900 C   0  0  1  0  0  3  0  0  0  0  0  0
  188.7800  176.4790  145.7980 C   0  0  1  0  0  3  0  0  0  0  0  0
  188.2700  175.8620  147.0310 N   0  0  0  0  0  2  0  0  0  0  0  0
  187.6910  177.3140  145.1600 C   0  0  0  0  0  2  0  0  0  0  0  0
  188.2210  177.9500  143.8810 C   0  0  0  0  0  2  0  0  0  0  0  0
  187.2430  177.8180  142.7150 C   0  0  1  0  0  3  0  0  0  0  0  0
  187.9300  177.3250  141.4470 C   0  0  0  0  0  2  0  0  0  0  0  0
  187.0120  176.6660  140.6290 O   0  0  0  0  0  0  0  0  0  0  0  0
  186.7030  177.5500  139.7050 O   0  0  0  0  0  1  0  0  0  0  0  0
  185.8540  176.7230  143.1520 S   0  0  0  0  0  0  0  0  0  0  0  0
  184.6440  178.0380  143.0130 C   0  0  0  0  0  0  0  0  0  0  0  0
  183.8680  178.0510  142.0730 O   0  0  0  0  0  0  0  0  0  0  0  0
  184.1660  178.6030  145.3090 N   0  0  0  0  0  1  0  0  0  0  0  0
  184.6130  179.1310  144.0300 C   0  0  0  0  0  2  0  0  0  0  0  0
  1  2  1  0  0  0  0
  2  3  1  0  0  0  0
  2  5  1  0  0  0  0
  3 21  1  6  0  0  0
  3  5  1  0  0  0  0
  4  1  2  0  0  0  0
  5 22  1  1  0  0  0
  6 10  1  0  0  0  0
  9  6  1  0  0  0  0
  9 11  1  0  0  0  0
 10  7  2  0  0  0  0
 10  1  1  0  0  0  0
 11  8  2  0  0  0  0
 11  7  1  0  0  0  0
 12 18  1  0  0  0  0
 13 15  1  0  0  0  0
 13 12  2  0  0  0  0
 14 13  1  0  0  0  0
 15 16  2  0  0  0  0
 16 17  1  0  0  0  0
 17  9  1  0  0  0  0
 18 17  2  0  0  0  0
 20 21  1  0  0  0  0
 21 19  2  0  0  0  0
 22 23  1  0  0  0  0
 24 23  1  1  0  0  0
 25 27  1  6  0  0  0
 25 26  1  0  0  0  0
 25 24  1  0  0  0  0
 26 24  1  0  0  0  0
 28 27  1  0  0  0  0
 29 30  1  6  0  0  0
 29 33  1  0  0  0  0
 29 28  1  0  0  0  0
 31 30  1  0  0  0  0
 32 31  1  0  0  0  0
 34 33  1  0  0  0  0
 34 37  1  0  0  0  0
 35 34  2  0  0  0  0
 37 36  1  0  0  0  0
M  END
>  <MODEL>
1

>  <REMARK>
 VINA RESULT:      -6.4      0.000      0.000
  Name = 
  14 active torsions:
  status: ('A' for Active; 'I' for Inactive)
    1  A    between atoms: C_2  and  O_7
    2  A    between atoms: C_2  and  C_25
    3  A    between atoms: C_3  and  C_29
    4  A    between atoms: C_5  and  S_18
    5  A    between atoms: C_5  and  C_37
    6  A    between atoms: C_6  and  C_14
    7  A    between atoms: C_6  and  C_25
    8  A    between atoms: C_8  and  C_13
    9  A    between atoms: C_13  and  C_33
   10  A    between atoms: C_14  and  C_22
   11  A    between atoms: S_18  and  C_25
   12  A    between atoms: C_23  and  C_31
   13  A    between atoms: N_27  and  C_30
   14  A    between atoms: C_33  and  C_34
                            x       y       z     vdW  Elec       q    Type
                         _______ _______ _______ _____ _____    ______ ____

>  <TORSDO>
F 14

$$$$
=
 OpenBabel11042418203D

 37 40  0  0  1  0  0  0  0  0999 V2000
  191.6280  176.1770  143.6440 C   0  0  0  0  0  0  0  0  0  0  0  0
  192.2040  175.9990  144.9350 N   0  0  0  0  0  0  0  0  0  0  0  0
  192.9920  176.4820  146.1100 C   0  0  1  0  0  3  0  0  0  0  0  0
  191.7430  177.2860  143.0600 O   0  0  0  0  0  0  0  0  0  0  0  0
  192.4620  175.2090  146.1730 C   0  0  1  0  0  3  0  0  0  0  0  0
  190.8900  174.8520  141.7100 O   0  0  0  0  0  0  0  0  0  0  0  0
  190.1130  174.1360  143.6630 C   0  0  0  0  0  3  0  0  0  0  0  0
  188.9200  172.3530  142.7310 O   0  0  0  0  0  0  0  0  0  0  0  0
  190.1590  173.8150  141.4400 N   0  0  0  0  0  0  0  0  0  0  0  0
  190.8930  175.0800  143.0050 C   0  0  0  0  0  0  0  0  0  0  0  0
  189.6740  173.3550  142.6120 C   0  0  0  0  0  0  0  0  0  0  0  0
  190.6760  171.8890  138.2760 C   0  0  0  0  0  3  0  0  0  0  0  0
  189.5430  172.2500  137.5420 C   0  0  0  0  0  0  0  0  0  0  0  0
  189.2900  171.5880  135.9410 Cl  0  0  0  0  0  0  0  0  0  0  0  0
  188.6130  173.1390  138.0850 C   0  0  0  0  0  3  0  0  0  0  0  0
  188.8130  173.6630  139.3660 C   0  0  0  0  0  3  0  0  0  0  0  0
  189.9460  173.3020  140.1130 C   0  0  0  0  0  0  0  0  0  0  0  0
  190.8750  172.4130  139.5550 C   0  0  0  0  0  3  0  0  0  0  0  0
  195.0330  177.4490  145.3270 O   0  0  0  0  0  0  0  0  0  0  0  0
  195.2070  175.2540  146.0680 N   0  0  0  0  0  1  0  0  0  0  0  0
  194.4530  176.4320  145.7910 C   0  0  0  0  0  0  0  0  0  0  0  0
  191.2090  175.2110  147.0300 C   0  0  0  0  0  2  0  0  0  0  0  0
  190.5610  176.5840  147.0240 C   0  0  0  0  0  2  0  0  0  0  0  0
  189.0820  176.4750  147.3480 C   0  0  1  0  0  3  0  0  0  0  0  0
  188.3610  176.1000  146.1400 C   0  0  1  0  0  3  0  0  0  0  0  0
  188.6410  175.0840  147.1650 N   0  0  0  0  0  2  0  0  0  0  0  0
  186.9170  176.5430  146.2450 C   0  0  0  0  0  2  0  0  0  0  0  0
  186.3510  176.7660  144.8480 C   0  0  0  0  0  2  0  0  0  0  0  0
  185.2050  177.7770  144.8370 C   0  0  1  0  0  3  0  0  0  0  0  0
  184.9040  178.3120  146.2310 C   0  0  0  0  0  2  0  0  0  0  0  0
  185.5350  179.5430  146.4190 O   0  0  0  0  0  0  0  0  0  0  0  0
  185.8990  179.5340  147.6840 O   0  0  0  0  0  1  0  0  0  0  0  0
  185.5590  179.1490  143.6920 S   0  0  0  0  0  0  0  0  0  0  0  0
  184.8900  178.2740  142.2790 C   0  0  0  0  0  0  0  0  0  0  0  0
  183.6860  178.1000  142.1870 O   0  0  0  0  0  0  0  0  0  0  0  0
  187.1770  178.1330  141.5240 N   0  0  0  0  0  1  0  0  0  0  0  0
  185.8110  177.7290  141.2360 C   0  0  0  0  0  2  0  0  0  0  0  0
  1  2  1  0  0  0  0
  2  3  1  0  0  0  0
  2  5  1  0  0  0  0
  3 21  1  6  0  0  0
  3  5  1  0  0  0  0
  4  1  2  0  0  0  0
  5 22  1  1  0  0  0
  6 10  1  0  0  0  0
  9  6  1  0  0  0  0
  9 11  1  0  0  0  0
 10  1  1  0  0  0  0
 10  7  2  0  0  0  0
 11  8  2  0  0  0  0
 11  7  1  0  0  0  0
 12 18  1  0  0  0  0
 13 15  1  0  0  0  0
 13 12  2  0  0  0  0
 14 13  1  0  0  0  0
 15 16  2  0  0  0  0
 16 17  1  0  0  0  0
 17  9  1  0  0  0  0
 18 17  2  0  0  0  0
 19 21  2  0  0  0  0
 21 20  1  0  0  0  0
 23 22  1  0  0  0  0
 24 23  1  6  0  0  0
 25 27  1  1  0  0  0
 25 26  1  0  0  0  0
 25 24  1  0  0  0  0
 26 24  1  0  0  0  0
 28 27  1  0  0  0  0
 29 28  1  1  0  0  0
 29 30  1  0  0  0  0
 30 31  1  0  0  0  0
 31 32  1  0  0  0  0
 33 29  1  0  0  0  0
 34 33  1  0  0  0  0
 35 34  2  0  0  0  0
 37 36  1  0  0  0  0
 37 34  1  0  0  0  0
M  END
>  <MODEL>
2

>  <REMARK>
 VINA RESULT:      -6.2      1.825      2.425
  Name = 
  14 active torsions:
  status: ('A' for Active; 'I' for Inactive)
    1  A    between atoms: C_2  and  O_7
    2  A    between atoms: C_2  and  C_25
    3  A    between atoms: C_3  and  C_29
    4  A    between atoms: C_5  and  S_18
    5  A    between atoms: C_5  and  C_37
    6  A    between atoms: C_6  and  C_14
    7  A    between atoms: C_6  and  C_25
    8  A    between atoms: C_8  and  C_13
    9  A    between atoms: C_13  and  C_33
   10  A    between atoms: C_14  and  C_22
   11  A    between atoms: S_18  and  C_25
   12  A    between atoms: C_23  and  C_31
   13  A    between atoms: N_27  and  C_30
   14  A    between atoms: C_33  and  C_34
                            x       y       z     vdW  Elec       q    Type
                         _______ _______ _______ _____ _____    ______ ____

>  <TORSDO>
F 14

$$$$
=
 OpenBabel11042418203D

 37 40  0  0  1  0  0  0  0  0999 V2000
  193.2510  176.3310  146.4440 C   0  0  0  0  0  0  0  0  0  0  0  0
  194.0000  175.4790  145.5820 N   0  0  0  0  0  0  0  0  0  0  0  0
  195.2730  175.0510  144.9250 C   0  0  1  0  0  3  0  0  0  0  0  0
  193.8380  177.2480  147.0750 O   0  0  0  0  0  0  0  0  0  0  0  0
  194.1370  174.3110  144.6650 C   0  0  1  0  0  3  0  0  0  0  0  0
  190.8940  176.9680  146.1630 O   0  0  0  0  0  0  0  0  0  0  0  0
  191.2040  175.0480  147.2370 C   0  0  0  0  0  3  0  0  0  0  0  0
  188.9190  174.6440  147.5310 O   0  0  0  0  0  0  0  0  0  0  0  0
  189.7070  176.5270  146.4480 N   0  0  0  0  0  0  0  0  0  0  0  0
  191.8060  176.1320  146.6070 C   0  0  0  0  0  0  0  0  0  0  0  0
  189.8650  175.3570  147.1000 C   0  0  0  0  0  0  0  0  0  0  0  0
  187.0110  178.1170  144.4020 C   0  0  0  0  0  3  0  0  0  0  0  0
  186.1030  178.5060  145.3900 C   0  0  0  0  0  0  0  0  0  0  0  0
  184.6120  179.3070  144.9440 Cl  0  0  0  0  0  0  0  0  0  0  0  0
  186.3850  178.2540  146.7350 C   0  0  0  0  0  3  0  0  0  0  0  0
  187.5730  177.6090  147.0900 C   0  0  0  0  0  3  0  0  0  0  0  0
  188.4890  177.2100  146.1040 C   0  0  0  0  0  0  0  0  0  0  0  0
  188.1980  177.4730  144.7580 C   0  0  0  0  0  3  0  0  0  0  0  0
  196.2730  177.0010  143.9710 O   0  0  0  0  0  0  0  0  0  0  0  0
  195.1490  175.6370  142.4650 N   0  0  0  0  0  1  0  0  0  0  0  0
  195.5830  175.9650  143.7820 C   0  0  0  0  0  0  0  0  0  0  0  0
  194.1490  173.0370  145.4890 C   0  0  0  0  0  2  0  0  0  0  0  0
  194.0260  171.8190  144.5910 C   0  0  0  0  0  2  0  0  0  0  0  0
  192.5660  171.5140  144.3060 C   0  0  1  0  0  3  0  0  0  0  0  0
  192.4010  171.2920  142.8770 C   0  0  1  0  0  3  0  0  0  0  0  0
  192.4410  170.1420  143.7920 N   0  0  0  0  0  2  0  0  0  0  0  0
  190.9680  171.5710  142.4760 C   0  0  0  0  0  2  0  0  0  0  0  0
  190.5340  172.9170  143.0460 C   0  0  0  0  0  2  0  0  0  0  0  0
  190.4710  174.0090  141.9800 C   0  0  1  0  0  3  0  0  0  0  0  0
  191.5860  175.0340  142.1470 C   0  0  0  0  0  2  0  0  0  0  0  0
  191.1880  176.0350  143.0340 O   0  0  0  0  0  0  0  0  0  0  0  0
  192.1270  176.9520  142.9360 O   0  0  0  0  0  1  0  0  0  0  0  0
  190.5160  173.2880  140.3070 S   0  0  0  0  0  0  0  0  0  0  0  0
  188.9280  173.9850  139.8560 C   0  0  0  0  0  0  0  0  0  0  0  0
  188.3820  174.7830  140.6000 O   0  0  0  0  0  0  0  0  0  0  0  0
  189.0110  174.0610  137.4460 N   0  0  0  0  0  1  0  0  0  0  0  0
  188.2620  173.5620  138.5880 C   0  0  0  0  0  2  0  0  0  0  0  0
  1 10  1  0  0  0  0
  1  4  2  0  0  0  0
  2  1  1  0  0  0  0
  3 21  1  6  0  0  0
  3  2  1  0  0  0  0
  5  3  1  0  0  0  0
  5 22  1  1  0  0  0
  5  2  1  0  0  0  0
  6  9  1  0  0  0  0
  6 10  1  0  0  0  0
  9 11  1  0  0  0  0
 10  7  2  0  0  0  0
 11  7  1  0  0  0  0
 11  8  2  0  0  0  0
 12 18  2  0  0  0  0
 12 13  1  0  0  0  0
 13 15  2  0  0  0  0
 14 13  1  0  0  0  0
 15 16  1  0  0  0  0
 17  9  1  0  0  0  0
 17 16  2  0  0  0  0
 18 17  1  0  0  0  0
 20 21  1  0  0  0  0
 21 19  2  0  0  0  0
 23 22  1  0  0  0  0
 24 23  1  6  0  0  0
 25 27  1  1  0  0  0
 25 26  1  0  0  0  0
 25 24  1  0  0  0  0
 26 24  1  0  0  0  0
 27 28  1  0  0  0  0
 29 30  1  1  0  0  0
 29 28  1  0  0  0  0
 30 31  1  0  0  0  0
 32 31  1  0  0  0  0
 33 29  1  0  0  0  0
 34 33  1  0  0  0  0
 34 35  2  0  0  0  0
 36 37  1  0  0  0  0
 37 34  1  0  0  0  0
M  END
>  <MODEL>
3

>  <REMARK>
 VINA RESULT:      -6.0      3.395      6.604
  Name = 
  14 active torsions:
  status: ('A' for Active; 'I' for Inactive)
    1  A    between atoms: C_2  and  O_7
    2  A    between atoms: C_2  and  C_25
    3  A    between atoms: C_3  and  C_29
    4  A    between atoms: C_5  and  S_18
    5  A    between atoms: C_5  and  C_37
    6  A    between atoms: C_6  and  C_14
    7  A    between atoms: C_6  and  C_25
    8  A    between atoms: C_8  and  C_13
    9  A    between atoms: C_13  and  C_33
   10  A    between atoms: C_14  and  C_22
   11  A    between atoms: S_18  and  C_25
   12  A    between atoms: C_23  and  C_31
   13  A    between atoms: N_27  and  C_30
   14  A    between atoms: C_33  and  C_34
                            x       y       z     vdW  Elec       q    Type
                         _______ _______ _______ _____ _____    ______ ____

>  <TORSDO>
F 14

$$$$
=
 OpenBabel11042418203D

 37 40  0  0  1  0  0  0  0  0999 V2000
  193.1900  176.2870  146.4290 C   0  0  0  0  0  0  0  0  0  0  0  0
  193.9110  175.4370  145.5420 N   0  0  0  0  0  0  0  0  0  0  0  0
  195.1660  174.9980  144.8600 C   0  0  1  0  0  3  0  0  0  0  0  0
  193.8020  177.1830  147.0670 O   0  0  0  0  0  0  0  0  0  0  0  0
  194.0140  174.2820  144.6040 C   0  0  1  0  0  3  0  0  0  0  0  0
  190.8380  176.9480  146.1560 O   0  0  0  0  0  0  0  0  0  0  0  0
  191.1340  175.0490  147.2700 C   0  0  0  0  0  3  0  0  0  0  0  0
  188.8470  174.6810  147.5950 O   0  0  0  0  0  0  0  0  0  0  0  0
  189.6480  176.5290  146.4620 N   0  0  0  0  0  0  0  0  0  0  0  0
  191.7440  176.1100  146.6100 C   0  0  0  0  0  0  0  0  0  0  0  0
  189.7980  175.3720  147.1390 C   0  0  0  0  0  0  0  0  0  0  0  0
  186.9900  178.1730  144.4100 C   0  0  0  0  0  3  0  0  0  0  0  0
  186.0610  178.5310  145.3910 C   0  0  0  0  0  0  0  0  0  0  0  0
  184.5780  179.3430  144.9390 Cl  0  0  0  0  0  0  0  0  0  0  0  0
  186.3180  178.2420  146.7340 C   0  0  0  0  0  3  0  0  0  0  0  0
  187.5000  177.5880  147.0930 C   0  0  0  0  0  3  0  0  0  0  0  0
  188.4360  177.2200  146.1140 C   0  0  0  0  0  0  0  0  0  0  0  0
  188.1710  177.5210  144.7700 C   0  0  0  0  0  3  0  0  0  0  0  0
  196.2090  176.9310  143.9170 O   0  0  0  0  0  0  0  0  0  0  0  0
  194.9910  175.6430  142.4170 N   0  0  0  0  0  1  0  0  0  0  0  0
  195.4750  175.9250  143.7280 C   0  0  0  0  0  0  0  0  0  0  0  0
  194.0150  172.9940  145.4070 C   0  0  0  0  0  2  0  0  0  0  0  0
  193.5610  171.8280  144.5470 C   0  0  0  0  0  2  0  0  0  0  0  0
  192.3690  172.2280  143.6950 C   0  0  1  0  0  3  0  0  0  0  0  0
  191.7140  171.0240  143.2060 C   0  0  1  0  0  3  0  0  0  0  0  0
  191.1300  171.7620  144.3350 N   0  0  0  0  0  2  0  0  0  0  0  0
  190.9430  171.3370  141.9420 C   0  0  0  0  0  2  0  0  0  0  0  0
  191.7360  172.3250  141.0940 C   0  0  0  0  0  2  0  0  0  0  0  0
  190.8620  173.4440  140.5300 C   0  0  1  0  0  3  0  0  0  0  0  0
  190.7520  173.3720  139.0120 C   0  0  0  0  0  2  0  0  0  0  0  0
  189.4380  173.6220  138.6140 O   0  0  0  0  0  0  0  0  0  0  0  0
  189.3290  173.0230  137.4470 O   0  0  0  0  0  1  0  0  0  0  0  0
  189.2060  173.4200  141.2900 S   0  0  0  0  0  0  0  0  0  0  0  0
  189.4320  175.0180  142.0680 C   0  0  0  0  0  0  0  0  0  0  0  0
  188.7490  175.9660  141.7160 O   0  0  0  0  0  0  0  0  0  0  0  0
  191.3600  176.2900  142.7620 N   0  0  0  0  0  1  0  0  0  0  0  0
  190.4770  175.1930  143.1210 C   0  0  0  0  0  2  0  0  0  0  0  0
  1 10  1  0  0  0  0
  1  4  2  0  0  0  0
  2  1  1  0  0  0  0
  3 21  1  6  0  0  0
  3  2  1  0  0  0  0
  5  3  1  0  0  0  0
  5 22  1  1  0  0  0
  5  2  1  0  0  0  0
  6  9  1  0  0  0  0
  6 10  1  0  0  0  0
  9 11  1  0  0  0  0
 10  7  2  0  0  0  0
 11  7  1  0  0  0  0
 11  8  2  0  0  0  0
 12 18  2  0  0  0  0
 12 13  1  0  0  0  0
 13 15  2  0  0  0  0
 14 13  1  0  0  0  0
 15 16  1  0  0  0  0
 17  9  1  0  0  0  0
 17 16  2  0  0  0  0
 18 17  1  0  0  0  0
 20 21  1  0  0  0  0
 21 19  2  0  0  0  0
 23 22  1  0  0  0  0
 24 26  1  0  0  0  0
 24 23  1  1  0  0  0
 25 27  1  6  0  0  0
 25 24  1  0  0  0  0
 25 26  1  0  0  0  0
 28 27  1  0  0  0  0
 29 30  1  6  0  0  0
 29 28  1  0  0  0  0
 29 33  1  0  0  0  0
 31 30  1  0  0  0  0
 32 31  1  0  0  0  0
 33 34  1  0  0  0  0
 34 37  1  0  0  0  0
 35 34  2  0  0  0  0
 36 37  1  0  0  0  0
M  END
>  <MODEL>
4

>  <REMARK>
 VINA RESULT:      -6.0      3.370      6.398
  Name = 
  14 active torsions:
  status: ('A' for Active; 'I' for Inactive)
    1  A    between atoms: C_2  and  O_7
    2  A    between atoms: C_2  and  C_25
    3  A    between atoms: C_3  and  C_29
    4  A    between atoms: C_5  and  S_18
    5  A    between atoms: C_5  and  C_37
    6  A    between atoms: C_6  and  C_14
    7  A    between atoms: C_6  and  C_25
    8  A    between atoms: C_8  and  C_13
    9  A    between atoms: C_13  and  C_33
   10  A    between atoms: C_14  and  C_22
   11  A    between atoms: S_18  and  C_25
   12  A    between atoms: C_23  and  C_31
   13  A    between atoms: N_27  and  C_30
   14  A    between atoms: C_33  and  C_34
                            x       y       z     vdW  Elec       q    Type
                         _______ _______ _______ _____ _____    ______ ____

>  <TORSDO>
F 14

$$$$
=
 OpenBabel11042418203D

 37 40  0  0  1  0  0  0  0  0999 V2000
  191.6500  175.4720  143.4810 C   0  0  0  0  0  0  0  0  0  0  0  0
  191.1240  175.7990  144.7640 N   0  0  0  0  0  0  0  0  0  0  0  0
  191.1030  176.6140  146.0160 C   0  0  1  0  0  3  0  0  0  0  0  0
  192.5910  176.1590  143.0020 O   0  0  0  0  0  0  0  0  0  0  0  0
  190.1530  175.6220  145.8820 C   0  0  1  0  0  3  0  0  0  0  0  0
  190.9750  174.3400  141.4060 O   0  0  0  0  0  0  0  0  0  0  0  0
  190.6180  173.1600  143.2530 C   0  0  0  0  0  3  0  0  0  0  0  0
  189.7260  171.3230  142.1140 O   0  0  0  0  0  0  0  0  0  0  0  0
  190.4540  173.2190  141.0130 N   0  0  0  0  0  0  0  0  0  0  0  0
  191.0920  174.3520  142.7160 C   0  0  0  0  0  0  0  0  0  0  0  0
  190.2280  172.4780  142.1180 C   0  0  0  0  0  0  0  0  0  0  0  0
  190.8150  171.6920  137.6190 C   0  0  0  0  0  3  0  0  0  0  0  0
  189.6870  172.1950  136.9650 C   0  0  0  0  0  0  0  0  0  0  0  0
  189.3710  171.7560  135.3000 Cl  0  0  0  0  0  0  0  0  0  0  0  0
  188.8130  173.0500  137.6400 C   0  0  0  0  0  3  0  0  0  0  0  0
  189.0630  173.3960  138.9710 C   0  0  0  0  0  3  0  0  0  0  0  0
  190.1910  172.8910  139.6380 C   0  0  0  0  0  0  0  0  0  0  0  0
  191.0640  172.0380  138.9490 C   0  0  0  0  0  3  0  0  0  0  0  0
  192.0000  175.2650  147.7730 O   0  0  0  0  0  0  0  0  0  0  0  0
  193.5110  176.7310  146.7920 N   0  0  0  0  0  1  0  0  0  0  0  0
  192.2060  176.1720  146.9240 C   0  0  0  0  0  0  0  0  0  0  0  0
  188.8220  176.2290  145.4790 C   0  0  0  0  0  2  0  0  0  0  0  0
  187.8590  176.2310  146.6530 C   0  0  0  0  0  2  0  0  0  0  0  0
  187.1290  177.5600  146.7390 C   0  0  1  0  0  3  0  0  0  0  0  0
  185.8150  177.4170  146.1270 C   0  0  1  0  0  3  0  0  0  0  0  0
  185.9410  177.4130  147.5920 N   0  0  0  0  0  2  0  0  0  0  0  0
  185.3150  178.7680  145.6650 C   0  0  0  0  0  2  0  0  0  0  0  0
  184.1780  178.5750  144.6680 C   0  0  0  0  0  2  0  0  0  0  0  0
  184.6660  178.0390  143.3230 C   0  0  1  0  0  3  0  0  0  0  0  0
  183.6370  178.2480  142.2180 C   0  0  0  0  0  2  0  0  0  0  0  0
  184.2760  178.6030  141.0290 O   0  0  0  0  0  0  0  0  0  0  0  0
  183.5850  177.9900  140.0910 O   0  0  0  0  0  1  0  0  0  0  0  0
  186.2580  178.7950  142.8610 S   0  0  0  0  0  0  0  0  0  0  0  0
  186.8760  177.2830  142.1250 C   0  0  0  0  0  0  0  0  0  0  0  0
  187.5080  177.3290  141.0830 O   0  0  0  0  0  0  0  0  0  0  0  0
  187.4810  174.9510  142.2440 N   0  0  0  0  0  1  0  0  0  0  0  0
  186.5860  175.9680  142.7710 C   0  0  0  0  0  2  0  0  0  0  0  0
  1  2  1  0  0  0  0
  2  5  1  0  0  0  0
  2  3  1  0  0  0  0
  3 21  1  1  0  0  0
  4  1  2  0  0  0  0
  5 22  1  6  0  0  0
  5  3  1  0  0  0  0
  6 10  1  0  0  0  0
  8 11  2  0  0  0  0
  9  6  1  0  0  0  0
  9 11  1  0  0  0  0
 10  7  2  0  0  0  0
 10  1  1  0  0  0  0
 11  7  1  0  0  0  0
 12 18  1  0  0  0  0
 13 12  2  0  0  0  0
 13 15  1  0  0  0  0
 14 13  1  0  0  0  0
 15 16  2  0  0  0  0
 16 17  1  0  0  0  0
 17  9  1  0  0  0  0
 18 17  2  0  0  0  0
 20 21  1  0  0  0  0
 21 19  2  0  0  0  0
 22 23  1  0  0  0  0
 24 23  1  6  0  0  0
 24 26  1  0  0  0  0
 25 27  1  1  0  0  0
 25 24  1  0  0  0  0
 25 26  1  0  0  0  0
 28 27  1  0  0  0  0
 29 30  1  6  0  0  0
 29 28  1  0  0  0  0
 31 30  1  0  0  0  0
 32 31  1  0  0  0  0
 33 29  1  0  0  0  0
 34 37  1  0  0  0  0
 34 33  1  0  0  0  0
 35 34  2  0  0  0  0
 36 37  1  0  0  0  0
M  END
>  <MODEL>
5

>  <REMARK>
 VINA RESULT:      -6.0      1.456      2.458
  Name = 
  14 active torsions:
  status: ('A' for Active; 'I' for Inactive)
    1  A    between atoms: C_2  and  O_7
    2  A    between atoms: C_2  and  C_25
    3  A    between atoms: C_3  and  C_29
    4  A    between atoms: C_5  and  S_18
    5  A    between atoms: C_5  and  C_37
    6  A    between atoms: C_6  and  C_14
    7  A    between atoms: C_6  and  C_25
    8  A    between atoms: C_8  and  C_13
    9  A    between atoms: C_13  and  C_33
   10  A    between atoms: C_14  and  C_22
   11  A    between atoms: S_18  and  C_25
   12  A    between atoms: C_23  and  C_31
   13  A    between atoms: N_27  and  C_30
   14  A    between atoms: C_33  and  C_34
                            x       y       z     vdW  Elec       q    Type
                         _______ _______ _______ _____ _____    ______ ____

>  <TORSDO>
F 14

$$$$
=
 OpenBabel11042418203D

 37 40  0  0  1  0  0  0  0  0999 V2000
  185.0960  179.3600  144.0170 C   0  0  0  0  0  0  0  0  0  0  0  0
  185.1070  178.7040  142.7520 N   0  0  0  0  0  0  0  0  0  0  0  0
  184.7780  178.6330  141.2960 C   0  0  1  0  0  3  0  0  0  0  0  0
  184.5920  180.5100  144.1160 O   0  0  0  0  0  0  0  0  0  0  0  0
  185.4790  177.5790  141.8460 C   0  0  1  0  0  3  0  0  0  0  0  0
  186.8330  178.0770  145.1890 O   0  0  0  0  0  0  0  0  0  0  0  0
  185.1100  178.6640  146.4620 C   0  0  0  0  0  3  0  0  0  0  0  0
  185.9710  177.6610  148.3910 O   0  0  0  0  0  0  0  0  0  0  0  0
  187.0910  177.6070  146.3710 N   0  0  0  0  0  0  0  0  0  0  0  0
  185.6790  178.7070  145.1940 C   0  0  0  0  0  0  0  0  0  0  0  0
  186.0600  177.9520  147.1690 C   0  0  0  0  0  0  0  0  0  0  0  0
  190.6490  176.8380  147.2300 C   0  0  0  0  0  3  0  0  0  0  0  0
  190.6040  175.4500  147.3880 C   0  0  0  0  0  0  0  0  0  0  0  0
  192.0530  174.5700  147.8220 Cl  0  0  0  0  0  0  0  0  0  0  0  0
  189.4010  174.7650  147.1980 C   0  0  0  0  0  3  0  0  0  0  0  0
  188.2430  175.4690  146.8570 C   0  0  0  0  0  3  0  0  0  0  0  0
  188.2770  176.8640  146.7020 C   0  0  0  0  0  0  0  0  0  0  0  0
  189.4910  177.5400  146.8890 C   0  0  0  0  0  3  0  0  0  0  0  0
  182.4830  178.6630  141.9630 O   0  0  0  0  0  0  0  0  0  0  0  0
  182.9120  177.5500  139.9700 N   0  0  0  0  0  1  0  0  0  0  0  0
  183.3360  178.2770  141.1210 C   0  0  0  0  0  0  0  0  0  0  0  0
  186.9510  177.6950  141.4960 C   0  0  0  0  0  2  0  0  0  0  0  0
  187.4480  176.4170  140.8460 C   0  0  0  0  0  2  0  0  0  0  0  0
  188.2550  175.5960  141.8360 C   0  0  1  0  0  3  0  0  0  0  0  0
  188.8580  176.4930  142.8110 C   0  0  1  0  0  3  0  0  0  0  0  0
  187.6610  175.7200  143.1750 N   0  0  0  0  0  2  0  0  0  0  0  0
  190.0840  175.8450  143.4160 C   0  0  0  0  0  2  0  0  0  0  0  0
  191.1740  176.8940  143.6020 C   0  0  0  0  0  2  0  0  0  0  0  0
  192.5690  176.3440  143.3090 C   0  0  1  0  0  3  0  0  0  0  0  0
  193.3250  175.9980  144.5860 C   0  0  0  0  0  2  0  0  0  0  0  0
  193.7150  177.1650  145.2450 O   0  0  0  0  0  0  0  0  0  0  0  0
  194.1370  176.7520  146.4210 O   0  0  0  0  0  1  0  0  0  0  0  0
  192.4790  174.8940  142.2110 S   0  0  0  0  0  0  0  0  0  0  0  0
  193.8760  175.4290  141.2240 C   0  0  0  0  0  0  0  0  0  0  0  0
  194.4660  176.4560  141.5160 O   0  0  0  0  0  0  0  0  0  0  0  0
  195.4260  175.2740  139.3830 N   0  0  0  0  0  1  0  0  0  0  0  0
  194.2910  174.6360  140.0290 C   0  0  0  0  0  2  0  0  0  0  0  0
  1  4  2  0  0  0  0
  1 10  1  0  0  0  0
  2  1  1  0  0  0  0
  3 21  1  1  0  0  0
  3  5  1  0  0  0  0
  3  2  1  0  0  0  0
  5 22  1  6  0  0  0
  5  2  1  0  0  0  0
  6 10  1  0  0  0  0
  6  9  1  0  0  0  0
  7 11  1  0  0  0  0
  9 17  1  0  0  0  0
  9 11  1  0  0  0  0
 10  7  2  0  0  0  0
 11  8  2  0  0  0  0
 12 13  1  0  0  0  0
 13 14  1  0  0  0  0
 15 13  2  0  0  0  0
 16 15  1  0  0  0  0
 17 16  2  0  0  0  0
 17 18  1  0  0  0  0
 18 12  2  0  0  0  0
 20 21  1  0  0  0  0
 21 19  2  0  0  0  0
 23 22  1  0  0  0  0
 24 23  1  6  0  0  0
 24 25  1  0  0  0  0
 24 26  1  0  0  0  0
 25 26  1  0  0  0  0
 25 27  1  1  0  0  0
 27 28  1  0  0  0  0
 29 28  1  1  0  0  0
 29 30  1  0  0  0  0
 30 31  1  0  0  0  0
 31 32  1  0  0  0  0
 33 29  1  0  0  0  0
 34 35  2  0  0  0  0
 34 33  1  0  0  0  0
 36 37  1  0  0  0  0
 37 34  1  0  0  0  0
M  END
>  <MODEL>
6

>  <REMARK>
 VINA RESULT:      -5.9      3.932      8.709
  Name = 
  14 active torsions:
  status: ('A' for Active; 'I' for Inactive)
    1  A    between atoms: C_2  and  O_7
    2  A    between atoms: C_2  and  C_25
    3  A    between atoms: C_3  and  C_29
    4  A    between atoms: C_5  and  S_18
    5  A    between atoms: C_5  and  C_37
    6  A    between atoms: C_6  and  C_14
    7  A    between atoms: C_6  and  C_25
    8  A    between atoms: C_8  and  C_13
    9  A    between atoms: C_13  and  C_33
   10  A    between atoms: C_14  and  C_22
   11  A    between atoms: S_18  and  C_25
   12  A    between atoms: C_23  and  C_31
   13  A    between atoms: N_27  and  C_30
   14  A    between atoms: C_33  and  C_34
                            x       y       z     vdW  Elec       q    Type
                         _______ _______ _______ _____ _____    ______ ____

>  <TORSDO>
F 14

$$$$
=
 OpenBabel11042418203D

 37 40  0  0  1  0  0  0  0  0999 V2000
  191.4170  174.4130  142.7040 C   0  0  0  0  0  0  0  0  0  0  0  0
  191.7330  173.0360  142.8910 N   0  0  0  0  0  0  0  0  0  0  0  0
  192.2480  171.7200  142.4050 C   0  0  1  0  0  3  0  0  0  0  0  0
  191.6620  174.9620  141.5980 O   0  0  0  0  0  0  0  0  0  0  0  0
  191.8410  171.8030  143.7220 C   0  0  1  0  0  3  0  0  0  0  0  0
  189.5780  175.6150  143.8060 O   0  0  0  0  0  0  0  0  0  0  0  0
  191.4740  175.5780  144.9620 C   0  0  0  0  0  3  0  0  0  0  0  0
  190.6050  176.8020  146.7560 O   0  0  0  0  0  0  0  0  0  0  0  0
  189.3360  176.2680  144.9010 N   0  0  0  0  0  0  0  0  0  0  0  0
  190.8220  175.1900  143.7970 C   0  0  0  0  0  0  0  0  0  0  0  0
  190.4730  176.2590  145.6270 C   0  0  0  0  0  0  0  0  0  0  0  0
  186.3380  178.4950  144.7100 C   0  0  0  0  0  3  0  0  0  0  0  0
  185.5760  178.0300  145.7860 C   0  0  0  0  0  0  0  0  0  0  0  0
  184.0200  178.7530  146.1340 Cl  0  0  0  0  0  0  0  0  0  0  0  0
  186.0580  176.9890  146.5830 C   0  0  0  0  0  3  0  0  0  0  0  0
  187.2980  176.4090  146.3010 C   0  0  0  0  0  3  0  0  0  0  0  0
  188.0670  176.8660  145.2190 C   0  0  0  0  0  0  0  0  0  0  0  0
  187.5770  177.9150  144.4280 C   0  0  0  0  0  3  0  0  0  0  0  0
  190.8170  171.5770  140.4960 O   0  0  0  0  0  0  0  0  0  0  0  0
  190.6880  169.7760  141.9560 N   0  0  0  0  0  1  0  0  0  0  0  0
  191.2050  171.0470  141.5710 C   0  0  0  0  0  0  0  0  0  0  0  0
  193.0500  171.9260  144.6310 C   0  0  0  0  0  2  0  0  0  0  0  0
  193.8870  170.6600  144.5810 C   0  0  0  0  0  2  0  0  0  0  0  0
  195.3660  170.9990  144.6300 C   0  0  1  0  0  3  0  0  0  0  0  0
  195.6080  171.8930  145.7540 C   0  0  1  0  0  3  0  0  0  0  0  0
  195.9500  170.4680  145.8710 N   0  0  0  0  0  2  0  0  0  0  0  0
  196.8650  172.6980  145.5080 C   0  0  0  0  0  2  0  0  0  0  0  0
  196.5870  174.1720  145.7850 C   0  0  0  0  0  2  0  0  0  0  0  0
  195.7790  174.8320  144.6690 C   0  0  1  0  0  3  0  0  0  0  0  0
  195.0180  176.0560  145.1650 C   0  0  0  0  0  2  0  0  0  0  0  0
  194.5320  175.8300  146.4530 O   0  0  0  0  0  0  0  0  0  0  0  0
  194.1870  177.0230  146.8870 O   0  0  0  0  0  1  0  0  0  0  0  0
  196.8510  175.2760  143.2640 S   0  0  0  0  0  0  0  0  0  0  0  0
  195.6870  174.6560  142.0520 C   0  0  0  0  0  0  0  0  0  0  0  0
  195.1900  173.5510  142.1980 O   0  0  0  0  0  0  0  0  0  0  0  0
  194.7200  176.7180  141.2590 N   0  0  0  0  0  1  0  0  0  0  0  0
  195.3560  175.4770  140.8490 C   0  0  0  0  0  2  0  0  0  0  0  0
  1  2  1  0  0  0  0
  1 10  1  0  0  0  0
  2  5  1  0  0  0  0
  3 21  1  6  0  0  0
  3  2  1  0  0  0  0
  3  5  1  0  0  0  0
  4  1  2  0  0  0  0
  5 22  1  1  0  0  0
  6  9  1  0  0  0  0
  7 11  1  0  0  0  0
  9 17  1  0  0  0  0
  9 11  1  0  0  0  0
 10  6  1  0  0  0  0
 10  7  2  0  0  0  0
 11  8  2  0  0  0  0
 12 13  1  0  0  0  0
 13 14  1  0  0  0  0
 13 15  2  0  0  0  0
 16 15  1  0  0  0  0
 17 16  2  0  0  0  0
 18 12  2  0  0  0  0
 18 17  1  0  0  0  0
 19 21  2  0  0  0  0
 21 20  1  0  0  0  0
 23 22  1  0  0  0  0
 24 23  1  1  0  0  0
 24 25  1  0  0  0  0
 24 26  1  0  0  0  0
 25 27  1  6  0  0  0
 25 26  1  0  0  0  0
 27 28  1  0  0  0  0
 29 30  1  1  0  0  0
 29 28  1  0  0  0  0
 30 31  1  0  0  0  0
 31 32  1  0  0  0  0
 33 29  1  0  0  0  0
 34 35  2  0  0  0  0
 34 33  1  0  0  0  0
 37 36  1  0  0  0  0
 37 34  1  0  0  0  0
M  END
>  <MODEL>
7

>  <REMARK>
 VINA RESULT:      -5.8      4.265      8.354
  Name = 
  14 active torsions:
  status: ('A' for Active; 'I' for Inactive)
    1  A    between atoms: C_2  and  O_7
    2  A    between atoms: C_2  and  C_25
    3  A    between atoms: C_3  and  C_29
    4  A    between atoms: C_5  and  S_18
    5  A    between atoms: C_5  and  C_37
    6  A    between atoms: C_6  and  C_14
    7  A    between atoms: C_6  and  C_25
    8  A    between atoms: C_8  and  C_13
    9  A    between atoms: C_13  and  C_33
   10  A    between atoms: C_14  and  C_22
   11  A    between atoms: S_18  and  C_25
   12  A    between atoms: C_23  and  C_31
   13  A    between atoms: N_27  and  C_30
   14  A    between atoms: C_33  and  C_34
                            x       y       z     vdW  Elec       q    Type
                         _______ _______ _______ _____ _____    ______ ____

>  <TORSDO>
F 14

$$$$
=
 OpenBabel11042418203D

 37 40  0  0  1  0  0  0  0  0999 V2000
  187.0850  178.2380  145.6410 C   0  0  0  0  0  0  0  0  0  0  0  0
  186.6510  178.3190  144.2870 N   0  0  0  0  0  0  0  0  0  0  0  0
  185.8760  178.9620  143.1820 C   0  0  1  0  0  3  0  0  0  0  0  0
  186.7200  179.1170  146.4640 O   0  0  0  0  0  0  0  0  0  0  0  0
  186.6400  177.8560  142.8690 C   0  0  1  0  0  3  0  0  0  0  0  0
  189.2370  177.0570  145.7600 O   0  0  0  0  0  0  0  0  0  0  0  0
  187.5840  176.0640  146.8620 C   0  0  0  0  0  3  0  0  0  0  0  0
  188.9140  174.2890  147.6040 O   0  0  0  0  0  0  0  0  0  0  0  0
  189.7550  175.9890  146.2850 N   0  0  0  0  0  0  0  0  0  0  0  0
  187.9630  177.1440  146.0720 C   0  0  0  0  0  0  0  0  0  0  0  0
  188.7710  175.3650  146.9650 C   0  0  0  0  0  0  0  0  0  0  0  0
  193.4860  176.0510  146.5180 C   0  0  0  0  0  3  0  0  0  0  0  0
  193.8260  174.8540  145.8830 C   0  0  0  0  0  0  0  0  0  0  0  0
  195.5060  174.3860  145.7350 Cl  0  0  0  0  0  0  0  0  0  0  0  0
  192.8230  174.0300  145.3650 C   0  0  0  0  0  3  0  0  0  0  0  0
  191.4810  174.4010  145.4880 C   0  0  0  0  0  3  0  0  0  0  0  0
  191.1310  175.6000  146.1300 C   0  0  0  0  0  0  0  0  0  0  0  0
  192.1450  176.4210  146.6410 C   0  0  0  0  0  3  0  0  0  0  0  0
  183.8800  177.9080  142.3970 O   0  0  0  0  0  0  0  0  0  0  0  0
  183.6880  178.9630  144.4570 N   0  0  0  0  0  1  0  0  0  0  0  0
  184.4320  178.5930  143.2980 C   0  0  0  0  0  0  0  0  0  0  0  0
  187.9310  178.2900  142.1990 C   0  0  0  0  0  2  0  0  0  0  0  0
  188.9420  177.1570  142.2030 C   0  0  0  0  0  2  0  0  0  0  0  0
  188.2370  175.8150  142.1180 C   0  0  1  0  0  3  0  0  0  0  0  0
  189.1950  174.8050  141.6930 C   0  0  1  0  0  3  0  0  0  0  0  0
  188.8120  174.8940  143.1100 N   0  0  0  0  0  2  0  0  0  0  0  0
  188.4670  173.6480  141.0430 C   0  0  0  0  0  2  0  0  0  0  0  0
  189.4470  172.8430  140.1960 C   0  0  0  0  0  2  0  0  0  0  0  0
  190.6890  172.4240  140.9800 C   0  0  1  0  0  3  0  0  0  0  0  0
  190.4460  171.1640  141.8020 C   0  0  0  0  0  2  0  0  0  0  0  0
  191.2820  171.1510  142.9200 O   0  0  0  0  0  0  0  0  0  0  0  0
  191.9590  170.0280  142.8100 O   0  0  0  0  0  1  0  0  0  0  0  0
  192.1130  172.1920  139.8680 S   0  0  0  0  0  0  0  0  0  0  0  0
  192.8720  173.7410  140.3540 C   0  0  0  0  0  0  0  0  0  0  0  0
  193.2720  174.5150  139.5000 O   0  0  0  0  0  0  0  0  0  0  0  0
  192.8110  175.4820  142.0220 N   0  0  0  0  0  1  0  0  0  0  0  0
  193.0430  174.0640  141.8020 C   0  0  0  0  0  2  0  0  0  0  0  0
  1 10  1  0  0  0  0
  1  4  2  0  0  0  0
  2  1  1  0  0  0  0
  3 21  1  1  0  0  0
  3  2  1  0  0  0  0
  5 22  1  6  0  0  0
  5  3  1  0  0  0  0
  5  2  1  0  0  0  0
  6 10  1  0  0  0  0
  6  9  1  0  0  0  0
  7 11  1  0  0  0  0
  9 11  1  0  0  0  0
 10  7  2  0  0  0  0
 11  8  2  0  0  0  0
 12 18  1  0  0  0  0
 13 12  2  0  0  0  0
 14 13  1  0  0  0  0
 15 16  2  0  0  0  0
 15 13  1  0  0  0  0
 16 17  1  0  0  0  0
 17  9  1  0  0  0  0
 17 18  2  0  0  0  0
 19 21  2  0  0  0  0
 21 20  1  0  0  0  0
 22 23  1  0  0  0  0
 24 23  1  1  0  0  0
 24 26  1  0  0  0  0
 25 27  1  6  0  0  0
 25 24  1  0  0  0  0
 25 26  1  0  0  0  0
 28 27  1  0  0  0  0
 29 28  1  6  0  0  0
 29 30  1  0  0  0  0
 30 31  1  0  0  0  0
 32 31  1  0  0  0  0
 33 34  1  0  0  0  0
 33 29  1  0  0  0  0
 34 37  1  0  0  0  0
 35 34  2  0  0  0  0
 37 36  1  0  0  0  0
M  END
>  <MODEL>
8

>  <REMARK>
 VINA RESULT:      -5.8      3.326      7.767
  Name = 
  14 active torsions:
  status: ('A' for Active; 'I' for Inactive)
    1  A    between atoms: C_2  and  O_7
    2  A    between atoms: C_2  and  C_25
    3  A    between atoms: C_3  and  C_29
    4  A    between atoms: C_5  and  S_18
    5  A    between atoms: C_5  and  C_37
    6  A    between atoms: C_6  and  C_14
    7  A    between atoms: C_6  and  C_25
    8  A    between atoms: C_8  and  C_13
    9  A    between atoms: C_13  and  C_33
   10  A    between atoms: C_14  and  C_22
   11  A    between atoms: S_18  and  C_25
   12  A    between atoms: C_23  and  C_31
   13  A    between atoms: N_27  and  C_30
   14  A    between atoms: C_33  and  C_34
                            x       y       z     vdW  Elec       q    Type
                         _______ _______ _______ _____ _____    ______ ____

>  <TORSDO>
F 14

$$$$
=
 OpenBabel11042418203D

 37 40  0  0  1  0  0  0  0  0999 V2000
  193.1110  173.7990  145.3980 C   0  0  0  0  0  0  0  0  0  0  0  0
  194.4790  174.1260  145.1730 N   0  0  0  0  0  0  0  0  0  0  0  0
  195.8610  173.7870  144.7160 C   0  0  1  0  0  3  0  0  0  0  0  0
  192.6810  172.6620  145.0700 O   0  0  0  0  0  0  0  0  0  0  0  0
  195.6340  175.0690  145.1760 C   0  0  1  0  0  3  0  0  0  0  0  0
  190.9920  175.0350  145.5490 O   0  0  0  0  0  0  0  0  0  0  0  0
  192.4870  175.5830  147.0970 C   0  0  0  0  0  3  0  0  0  0  0  0
  191.1030  177.1690  148.1190 O   0  0  0  0  0  0  0  0  0  0  0  0
  190.4270  175.9490  146.2770 N   0  0  0  0  0  0  0  0  0  0  0  0
  192.2040  174.7860  145.9940 C   0  0  0  0  0  0  0  0  0  0  0  0
  191.3140  176.3000  147.2310 C   0  0  0  0  0  0  0  0  0  0  0  0
  186.7560  176.5290  146.6990 C   0  0  0  0  0  3  0  0  0  0  0  0
  186.4980  177.4400  145.6710 C   0  0  0  0  0  0  0  0  0  0  0  0
  184.8780  178.0600  145.4380 Cl  0  0  0  0  0  0  0  0  0  0  0  0
  187.5330  177.8540  144.8290 C   0  0  0  0  0  3  0  0  0  0  0  0
  188.8270  177.3620  145.0200 C   0  0  0  0  0  3  0  0  0  0  0  0
  189.0980  176.4510  146.0530 C   0  0  0  0  0  0  0  0  0  0  0  0
  188.0500  176.0380  146.8880 C   0  0  0  0  0  3  0  0  0  0  0  0
  197.1930  173.5270  146.6830 O   0  0  0  0  0  0  0  0  0  0  0  0
  196.4320  171.5440  145.7440 N   0  0  0  0  0  1  0  0  0  0  0  0
  196.5500  172.9650  145.7580 C   0  0  0  0  0  0  0  0  0  0  0  0
  195.4940  176.0230  144.0040 C   0  0  0  0  0  2  0  0  0  0  0  0
  196.0680  175.4070  142.7410 C   0  0  0  0  0  2  0  0  0  0  0  0
  194.9660  175.1380  141.7330 C   0  0  1  0  0  3  0  0  0  0  0  0
  193.7540  175.8200  142.1650 C   0  0  1  0  0  3  0  0  0  0  0  0
  194.5710  176.3990  141.0890 N   0  0  0  0  0  2  0  0  0  0  0  0
  192.5410  175.1380  141.5710 C   0  0  0  0  0  2  0  0  0  0  0  0
  191.3210  175.4240  142.4390 C   0  0  0  0  0  2  0  0  0  0  0  0
  190.2540  174.3380  142.3210 C   0  0  1  0  0  3  0  0  0  0  0  0
  188.8590  174.9250  142.1440 C   0  0  0  0  0  2  0  0  0  0  0  0
  188.9450  176.2180  141.6240 O   0  0  0  0  0  0  0  0  0  0  0  0
  187.7020  176.5380  141.3340 O   0  0  0  0  0  1  0  0  0  0  0  0
  190.6390  173.1920  140.9570 S   0  0  0  0  0  0  0  0  0  0  0  0
  190.6390  171.7570  142.0300 C   0  0  0  0  0  0  0  0  0  0  0  0
  189.6990  171.5630  142.7830 O   0  0  0  0  0  0  0  0  0  0  0  0
  193.0400  171.5760  141.8790 N   0  0  0  0  0  1  0  0  0  0  0  0
  191.8040  170.8230  142.0240 C   0  0  0  0  0  2  0  0  0  0  0  0
  1 10  1  0  0  0  0
  2  5  1  0  0  0  0
  2  1  1  0  0  0  0
  3  2  1  0  0  0  0
  3  5  1  0  0  0  0
  3 21  1  1  0  0  0
  4  1  2  0  0  0  0
  5 22  1  6  0  0  0
  6 10  1  0  0  0  0
  6  9  1  0  0  0  0
  7 11  1  0  0  0  0
  9 11  1  0  0  0  0
 10  7  2  0  0  0  0
 11  8  2  0  0  0  0
 12 18  1  0  0  0  0
 13 12  2  0  0  0  0
 14 13  1  0  0  0  0
 15 16  2  0  0  0  0
 15 13  1  0  0  0  0
 16 17  1  0  0  0  0
 17  9  1  0  0  0  0
 17 18  2  0  0  0  0
 20 21  1  0  0  0  0
 21 19  2  0  0  0  0
 23 22  1  0  0  0  0
 24 25  1  0  0  0  0
 24 23  1  1  0  0  0
 25 27  1  6  0  0  0
 26 24  1  0  0  0  0
 26 25  1  0  0  0  0
 27 28  1  0  0  0  0
 29 30  1  6  0  0  0
 29 28  1  0  0  0  0
 31 30  1  0  0  0  0
 32 31  1  0  0  0  0
 33 34  1  0  0  0  0
 33 29  1  0  0  0  0
 34 35  2  0  0  0  0
 36 37  1  0  0  0  0
 37 34  1  0  0  0  0
M  END
>  <MODEL>
9

>  <REMARK>
 VINA RESULT:      -5.7      3.510      6.855
  Name = 
  14 active torsions:
  status: ('A' for Active; 'I' for Inactive)
    1  A    between atoms: C_2  and  O_7
    2  A    between atoms: C_2  and  C_25
    3  A    between atoms: C_3  and  C_29
    4  A    between atoms: C_5  and  S_18
    5  A    between atoms: C_5  and  C_37
    6  A    between atoms: C_6  and  C_14
    7  A    between atoms: C_6  and  C_25
    8  A    between atoms: C_8  and  C_13
    9  A    between atoms: C_13  and  C_33
   10  A    between atoms: C_14  and  C_22
   11  A    between atoms: S_18  and  C_25
   12  A    between atoms: C_23  and  C_31
   13  A    between atoms: N_27  and  C_30
   14  A    between atoms: C_33  and  C_34
                            x       y       z     vdW  Elec       q    Type
                         _______ _______ _______ _____ _____    ______ ____

>  <TORSDO>
F 14

$$$$
