=
 OpenBabel11042419543D

 41 42  0  0  1  0  0  0  0  0999 V2000
  189.8670  174.5360  143.4420 C   0  0  2  0  0  3  0  0  0  0  0  0
  189.4850  175.8750  142.8670 C   0  0  0  0  0  0  0  0  0  0  0  0
  191.1510  177.8030  142.8680 O   0  0  0  0  0  0  0  0  0  0  0  0
  190.3420  176.8670  142.8670 C   0  0  0  0  0  0  0  0  0  0  0  0
  188.1480  176.0490  142.2680 C   0  0  0  0  0  0  0  0  0  0  0  0
  187.6020  177.3630  142.0890 N   0  0  0  0  0  2  0  0  0  0  0  0
  187.5130  175.0380  141.8600 O   0  0  0  0  0  0  0  0  0  0  0  0
  185.2920  177.7000  142.7870 C   0  0  0  0  0  3  0  0  0  0  0  0
  185.8060  177.8420  140.4360 C   0  0  0  0  0  0  0  0  0  0  0  0
  184.4610  178.1080  140.1780 C   0  0  0  0  0  3  0  0  0  0  0  0
  183.9870  177.9630  142.5110 N   0  0  0  0  0  0  0  0  0  0  0  0
  186.6620  177.7100  139.3930 F   0  0  0  0  0  0  0  0  0  0  0  0
  183.5510  178.1770  141.2420 C   0  0  0  0  0  0  0  0  0  0  0  0
  186.2370  177.6530  141.7610 C   0  0  0  0  0  0  0  0  0  0  0  0
  181.2790  178.9560  142.0490 C   0  0  0  0  0  1  0  0  0  0  0  0
  182.1660  178.4510  141.0130 N   0  0  0  0  0  2  0  0  0  0  0  0
  190.5130  174.6380  144.8220 C   0  0  0  0  0  2  0  0  0  0  0  0
  189.5550  174.1960  145.9210 C   0  0  0  0  0  2  0  0  0  0  0  0
  189.2470  175.3340  146.8950 C   0  0  0  0  0  2  0  0  0  0  0  0
  186.3740  177.1030  146.5460 C   0  0  0  0  0  0  0  0  0  0  0  0
  186.9790  177.9420  147.3100 N   0  0  0  0  0  0  0  0  0  0  0  0
  188.5590  176.5390  146.2460 C   0  0  2  0  0  3  0  0  0  0  0  0
  188.4170  177.7110  147.2240 C   0  0  0  0  0  2  0  0  0  0  0  0
  187.2210  176.2370  145.8830 O   0  0  0  0  0  0  0  0  0  0  0  0
  184.3330  178.4600  146.3630 C   0  0  0  0  0  1  0  0  0  0  0  0
  184.8900  177.0500  146.4180 C   0  0  0  0  0  2  0  0  0  0  0  0
  190.7120  173.7070  142.4790 C   0  0  0  0  0  2  0  0  0  0  0  0
  191.9140  173.3100  143.0760 O   0  0  0  0  0  0  0  0  0  0  0  0
  193.1400  173.9570  142.0990 P   0  0  1  0  0  0  0  0  0  0  0  0
  194.2650  172.7530  141.7000 O   0  0  0  0  0  1  0  0  0  0  0  0
  192.5280  174.5140  140.8310 O   0  0  0  0  0  0  0  0  0  0  0  0
  193.9130  175.2030  142.9600 O   0  0  0  0  0  0  0  0  0  0  0  0
  195.1700  174.7020  143.3230 C   0  0  1  0  0  3  0  0  0  0  0  0
  196.2490  175.5700  142.7460 C   0  0  0  0  0  3  0  0  0  0  0  0
  196.6470  176.6710  143.3800 C   0  0  0  0  0  2  0  0  0  0  0  0
  195.2960  174.5850  144.8500 C   0  0  1  0  0  3  0  0  0  0  0  0
  194.6520  176.3890  146.2950 O   0  0  0  0  0  1  0  0  0  0  0  0
  194.1590  175.2910  145.5860 C   0  0  0  0  0  2  0  0  0  0  0  0
  195.3460  173.1200  145.2510 C   0  0  0  0  0  2  0  0  0  0  0  0
  196.6860  172.7820  145.8770 C   0  0  0  0  0  2  0  0  0  0  0  0
  197.5980  173.9000  145.6920 N   0  0  0  0  0  1  0  0  0  0  0  0
  1 27  1  6  0  0  0
  1 17  1  0  0  0  0
  2  1  1  0  0  0  0
  4  2  2  0  0  0  0
  4  3  2  0  0  0  0
  5  2  1  0  0  0  0
  6  5  1  0  0  0  0
  7  5  2  0  0  0  0
  9 14  1  0  0  0  0
 10  9  2  0  0  0  0
 10 13  1  0  0  0  0
 11  8  1  0  0  0  0
 12  9  1  0  0  0  0
 13 11  2  0  0  0  0
 14  6  1  0  0  0  0
 14  8  2  0  0  0  0
 16 13  1  0  0  0  0
 16 15  1  0  0  0  0
 17 18  1  0  0  0  0
 18 19  1  0  0  0  0
 20 21  2  0  0  0  0
 22 19  1  1  0  0  0
 22 23  1  0  0  0  0
 23 21  1  0  0  0  0
 24 22  1  0  0  0  0
 24 20  1  0  0  0  0
 25 26  1  0  0  0  0
 26 20  1  0  0  0  0
 27 28  1  0  0  0  0
 29 31  2  6  0  0  0
 29 32  1  0  0  0  0
 29 28  1  0  0  0  0
 30 29  1  0  0  0  0
 32 33  1  0  0  0  0
 33 34  1  1  0  0  0
 33 36  1  0  0  0  0
 34 35  2  0  0  0  0
 36 39  1  6  0  0  0
 36 38  1  0  0  0  0
 38 37  1  0  0  0  0
 39 40  1  0  0  0  0
 41 40  1  0  0  0  0
M  END
>  <MODEL>
1

>  <REMARK>
 VINA RESULT:      -6.1      0.000      0.000
  Name = 
  19 active torsions:
  status: ('A' for Active; 'I' for Inactive)
    1  A    between atoms: C_1  and  C_16
    2  A    between atoms: C_1  and  C_20
    3  A    between atoms: O_2  and  C_8
    4  A    between atoms: O_2  and  P_10
    5  A    between atoms: C_5  and  C_29
    6  A    between atoms: C_7  and  C_23
    7  A    between atoms: C_7  and  C_26
    8  A    between atoms: C_8  and  C_20
    9  A    between atoms: C_9  and  C_21
   10  A    between atoms: C_9  and  C_36
   11  A    between atoms: C_9  and  C_37
   12  A    between atoms: P_10  and  O_31
   13  A    between atoms: C_12  and  C_20
   14  A    between atoms: C_12  and  C_26
   15  A    between atoms: C_13  and  C_21
   16  A    between atoms: O_31  and  C_36
   17  A    between atoms: C_32  and  C_36
   18  A    between atoms: N_34  and  C_40
   19  A    between atoms: C_35  and  N_41
                            x       y       z     vdW  Elec       q    Type
                         _______ _______ _______ _____ _____    ______ ____

>  <TORSDO>
F 19

$$$$
=
 OpenBabel11042419543D

 41 42  0  0  1  0  0  0  0  0999 V2000
  190.9170  174.8490  144.8790 C   0  0  2  0  0  3  0  0  0  0  0  0
  190.6190  175.3200  143.4790 C   0  0  0  0  0  0  0  0  0  0  0  0
  192.1060  174.6130  141.5350 O   0  0  0  0  0  0  0  0  0  0  0  0
  191.3830  174.9560  142.4780 C   0  0  0  0  0  0  0  0  0  0  0  0
  189.4320  176.1630  143.2380 C   0  0  0  0  0  0  0  0  0  0  0  0
  188.2750  175.6140  142.5940 N   0  0  0  0  0  2  0  0  0  0  0  0
  189.4200  177.3530  143.6550 O   0  0  0  0  0  0  0  0  0  0  0  0
  187.2970  176.9770  140.8260 C   0  0  0  0  0  3  0  0  0  0  0  0
  185.9960  176.5840  142.8170 C   0  0  0  0  0  0  0  0  0  0  0  0
  184.9640  177.3480  142.2700 C   0  0  0  0  0  3  0  0  0  0  0  0
  186.2770  177.7150  140.3130 N   0  0  0  0  0  0  0  0  0  0  0  0
  185.8620  176.1080  144.0790 F   0  0  0  0  0  0  0  0  0  0  0  0
  185.1170  177.9070  140.9940 C   0  0  0  0  0  0  0  0  0  0  0  0
  187.1750  176.3760  142.0810 C   0  0  0  0  0  0  0  0  0  0  0  0
  182.6720  178.3330  140.4800 C   0  0  0  0  0  1  0  0  0  0  0  0
  184.0790  178.6930  140.4010 N   0  0  0  0  0  2  0  0  0  0  0  0
  189.6600  174.5600  145.6950 C   0  0  0  0  0  2  0  0  0  0  0  0
  189.4020  175.6500  146.7280 C   0  0  0  0  0  2  0  0  0  0  0  0
  187.9340  176.0770  146.7450 C   0  0  0  0  0  2  0  0  0  0  0  0
  185.8240  178.6750  146.1920 C   0  0  0  0  0  0  0  0  0  0  0  0
  185.7270  178.6690  147.4750 N   0  0  0  0  0  0  0  0  0  0  0  0
  187.7280  177.5940  146.8130 C   0  0  2  0  0  3  0  0  0  0  0  0
  186.8980  178.0040  148.0350 C   0  0  0  0  0  2  0  0  0  0  0  0
  186.9640  178.0620  145.7130 O   0  0  0  0  0  0  0  0  0  0  0  0
  185.4310  180.1500  144.2650 C   0  0  0  0  0  1  0  0  0  0  0  0
  184.7780  179.2590  145.3050 C   0  0  0  0  0  2  0  0  0  0  0  0
  191.8710  175.7830  145.6180 C   0  0  0  0  0  2  0  0  0  0  0  0
  192.9700  175.0830  146.1280 O   0  0  0  0  0  0  0  0  0  0  0  0
  194.3380  175.9200  145.5740 P   0  0  1  0  0  0  0  0  0  0  0  0
  194.1310  176.3680  143.9530 O   0  0  0  0  0  0  0  0  0  0  0  0
  194.5400  177.1600  146.4180 O   0  0  0  0  0  1  0  0  0  0  0  0
  195.6900  174.8980  145.7210 O   0  0  0  0  0  0  0  0  0  0  0  0
  196.0080  174.4880  144.4190 C   0  0  1  0  0  3  0  0  0  0  0  0
  197.3750  174.9830  144.0510 C   0  0  0  0  0  3  0  0  0  0  0  0
  197.5330  175.9000  143.0990 C   0  0  0  0  0  2  0  0  0  0  0  0
  195.9060  172.9610  144.2830 C   0  0  1  0  0  3  0  0  0  0  0  0
  194.9950  173.4380  142.1150 O   0  0  0  0  0  1  0  0  0  0  0  0
  194.9400  172.5340  143.1790 C   0  0  0  0  0  2  0  0  0  0  0  0
  197.2840  172.3750  144.0240 C   0  0  0  0  0  2  0  0  0  0  0  0
  197.5950  171.2760  145.0210 C   0  0  0  0  0  2  0  0  0  0  0  0
  196.6350  171.3320  146.1130 N   0  0  0  0  0  1  0  0  0  0  0  0
  1 27  1  1  0  0  0
  1 17  1  0  0  0  0
  2  1  1  0  0  0  0
  3  4  2  0  0  0  0
  4  2  2  0  0  0  0
  5  2  1  0  0  0  0
  5  7  2  0  0  0  0
  6  5  1  0  0  0  0
  8 14  2  0  0  0  0
  9 12  1  0  0  0  0
 10  9  2  0  0  0  0
 11  8  1  0  0  0  0
 11 13  2  0  0  0  0
 13 10  1  0  0  0  0
 14  6  1  0  0  0  0
 14  9  1  0  0  0  0
 16 15  1  0  0  0  0
 16 13  1  0  0  0  0
 17 18  1  0  0  0  0
 18 19  1  0  0  0  0
 20 21  2  0  0  0  0
 21 23  1  0  0  0  0
 22 19  1  6  0  0  0
 22 23  1  0  0  0  0
 24 20  1  0  0  0  0
 24 22  1  0  0  0  0
 25 26  1  0  0  0  0
 26 20  1  0  0  0  0
 27 28  1  0  0  0  0
 29 30  2  6  0  0  0
 29 32  1  0  0  0  0
 29 28  1  0  0  0  0
 29 31  1  0  0  0  0
 33 34  1  1  0  0  0
 33 32  1  0  0  0  0
 35 34  2  0  0  0  0
 36 38  1  6  0  0  0
 36 33  1  0  0  0  0
 37 38  1  0  0  0  0
 39 36  1  0  0  0  0
 39 40  1  0  0  0  0
 40 41  1  0  0  0  0
M  END
>  <MODEL>
2

>  <REMARK>
 VINA RESULT:      -6.0      1.832      2.846
  Name = 
  19 active torsions:
  status: ('A' for Active; 'I' for Inactive)
    1  A    between atoms: C_1  and  C_16
    2  A    between atoms: C_1  and  C_20
    3  A    between atoms: O_2  and  C_8
    4  A    between atoms: O_2  and  P_10
    5  A    between atoms: C_5  and  C_29
    6  A    between atoms: C_7  and  C_23
    7  A    between atoms: C_7  and  C_26
    8  A    between atoms: C_8  and  C_20
    9  A    between atoms: C_9  and  C_21
   10  A    between atoms: C_9  and  C_36
   11  A    between atoms: C_9  and  C_37
   12  A    between atoms: P_10  and  O_31
   13  A    between atoms: C_12  and  C_20
   14  A    between atoms: C_12  and  C_26
   15  A    between atoms: C_13  and  C_21
   16  A    between atoms: O_31  and  C_36
   17  A    between atoms: C_32  and  C_36
   18  A    between atoms: N_34  and  C_40
   19  A    between atoms: C_35  and  N_41
                            x       y       z     vdW  Elec       q    Type
                         _______ _______ _______ _____ _____    ______ ____

>  <TORSDO>
F 19

$$$$
=
 OpenBabel11042419543D

 41 42  0  0  1  0  0  0  0  0999 V2000
  190.3080  173.5920  143.2070 C   0  0  2  0  0  3  0  0  0  0  0  0
  190.1700  174.0250  141.7710 C   0  0  0  0  0  0  0  0  0  0  0  0
  192.0590  173.6130  140.1110 O   0  0  0  0  0  0  0  0  0  0  0  0
  191.1420  173.8130  140.9160 C   0  0  0  0  0  0  0  0  0  0  0  0
  188.9130  174.6550  141.3240 C   0  0  0  0  0  0  0  0  0  0  0  0
  188.6370  176.0250  141.6480 N   0  0  0  0  0  2  0  0  0  0  0  0
  188.1100  174.0000  140.6050 O   0  0  0  0  0  0  0  0  0  0  0  0
  187.0700  177.3020  140.2890 C   0  0  0  0  0  3  0  0  0  0  0  0
  186.4260  176.7320  142.5400 C   0  0  0  0  0  0  0  0  0  0  0  0
  185.2100  177.3860  142.3380 C   0  0  0  0  0  3  0  0  0  0  0  0
  185.8780  177.9320  140.1140 N   0  0  0  0  0  0  0  0  0  0  0  0
  186.7000  176.2210  143.7660 F   0  0  0  0  0  0  0  0  0  0  0  0
  184.9420  177.9820  141.0970 C   0  0  0  0  0  0  0  0  0  0  0  0
  187.3660  176.6690  141.4970 C   0  0  0  0  0  0  0  0  0  0  0  0
  182.4670  177.9570  140.5500 C   0  0  0  0  0  1  0  0  0  0  0  0
  183.7050  178.6580  140.8540 N   0  0  0  0  0  2  0  0  0  0  0  0
  190.6940  174.7340  144.1430 C   0  0  0  0  0  2  0  0  0  0  0  0
  189.5270  175.1460  145.0320 C   0  0  0  0  0  2  0  0  0  0  0  0
  189.6080  176.6210  145.4260 C   0  0  0  0  0  2  0  0  0  0  0  0
  186.7520  177.8280  146.8020 C   0  0  0  0  0  0  0  0  0  0  0  0
  186.5490  176.5900  147.0870 N   0  0  0  0  0  0  0  0  0  0  0  0
  188.8550  176.9630  146.7160 C   0  0  2  0  0  3  0  0  0  0  0  0
  187.8260  175.8860  147.0800 C   0  0  0  0  0  2  0  0  0  0  0  0
  188.0760  178.1380  146.5640 O   0  0  0  0  0  0  0  0  0  0  0  0
  185.5540  179.3360  145.2750 C   0  0  0  0  0  1  0  0  0  0  0  0
  185.6490  178.8250  146.7010 C   0  0  0  0  0  2  0  0  0  0  0  0
  191.2330  172.3880  143.3680 C   0  0  0  0  0  2  0  0  0  0  0  0
  192.0620  172.5340  144.4860 O   0  0  0  0  0  0  0  0  0  0  0  0
  193.5250  171.7860  144.0670 P   0  0  1  0  0  0  0  0  0  0  0  0
  193.9820  170.6840  145.2700 O   0  0  0  0  0  1  0  0  0  0  0  0
  193.3530  171.0550  142.7530 O   0  0  0  0  0  0  0  0  0  0  0  0
  194.7170  172.9880  143.9050 O   0  0  0  0  0  0  0  0  0  0  0  0
  194.9740  173.4550  145.2010 C   0  0  1  0  0  3  0  0  0  0  0  0
  196.4250  173.2620  145.5310 C   0  0  0  0  0  3  0  0  0  0  0  0
  196.8980  172.0560  145.8390 C   0  0  0  0  0  2  0  0  0  0  0  0
  194.5530  174.9250  145.3500 C   0  0  1  0  0  3  0  0  0  0  0  0
  195.2130  176.3420  143.5290 O   0  0  0  0  0  1  0  0  0  0  0  0
  194.1630  175.5600  144.0170 C   0  0  0  0  0  2  0  0  0  0  0  0
  193.4000  175.0320  146.3350 C   0  0  0  0  0  2  0  0  0  0  0  0
  193.0890  176.4850  146.6380 C   0  0  0  0  0  2  0  0  0  0  0  0
  194.3300  177.2030  146.8780 N   0  0  0  0  0  1  0  0  0  0  0  0
  1 27  1  6  0  0  0
  1 17  1  0  0  0  0
  2  1  1  0  0  0  0
  3  4  2  0  0  0  0
  4  2  2  0  0  0  0
  5  6  1  0  0  0  0
  5  2  1  0  0  0  0
  7  5  2  0  0  0  0
  8 14  2  0  0  0  0
  9 12  1  0  0  0  0
 10  9  2  0  0  0  0
 11  8  1  0  0  0  0
 11 13  2  0  0  0  0
 13 10  1  0  0  0  0
 14  6  1  0  0  0  0
 14  9  1  0  0  0  0
 15 16  1  0  0  0  0
 16 13  1  0  0  0  0
 17 18  1  0  0  0  0
 18 19  1  0  0  0  0
 20 21  2  0  0  0  0
 22 19  1  6  0  0  0
 22 23  1  0  0  0  0
 23 21  1  0  0  0  0
 24 22  1  0  0  0  0
 24 20  1  0  0  0  0
 25 26  1  0  0  0  0
 26 20  1  0  0  0  0
 27 28  1  0  0  0  0
 29 31  2  6  0  0  0
 29 28  1  0  0  0  0
 29 30  1  0  0  0  0
 32 29  1  0  0  0  0
 32 33  1  0  0  0  0
 33 36  1  0  0  0  0
 33 34  1  6  0  0  0
 34 35  2  0  0  0  0
 36 38  1  6  0  0  0
 36 39  1  0  0  0  0
 37 38  1  0  0  0  0
 39 40  1  0  0  0  0
 40 41  1  0  0  0  0
M  END
>  <MODEL>
3

>  <REMARK>
 VINA RESULT:      -5.8      2.012      2.767
  Name = 
  19 active torsions:
  status: ('A' for Active; 'I' for Inactive)
    1  A    between atoms: C_1  and  C_16
    2  A    between atoms: C_1  and  C_20
    3  A    between atoms: O_2  and  C_8
    4  A    between atoms: O_2  and  P_10
    5  A    between atoms: C_5  and  C_29
    6  A    between atoms: C_7  and  C_23
    7  A    between atoms: C_7  and  C_26
    8  A    between atoms: C_8  and  C_20
    9  A    between atoms: C_9  and  C_21
   10  A    between atoms: C_9  and  C_36
   11  A    between atoms: C_9  and  C_37
   12  A    between atoms: P_10  and  O_31
   13  A    between atoms: C_12  and  C_20
   14  A    between atoms: C_12  and  C_26
   15  A    between atoms: C_13  and  C_21
   16  A    between atoms: O_31  and  C_36
   17  A    between atoms: C_32  and  C_36
   18  A    between atoms: N_34  and  C_40
   19  A    between atoms: C_35  and  N_41
                            x       y       z     vdW  Elec       q    Type
                         _______ _______ _______ _____ _____    ______ ____

>  <TORSDO>
F 19

$$$$
=
 OpenBabel11042419543D

 41 42  0  0  1  0  0  0  0  0999 V2000
  188.4200  176.2730  144.4900 C   0  0  2  0  0  3  0  0  0  0  0  0
  188.6090  176.2940  142.9960 C   0  0  0  0  0  0  0  0  0  0  0  0
  189.1480  178.4750  141.7930 O   0  0  0  0  0  0  0  0  0  0  0  0
  188.8870  177.4160  142.3770 C   0  0  0  0  0  0  0  0  0  0  0  0
  188.5180  175.0320  142.2380 C   0  0  0  0  0  0  0  0  0  0  0  0
  189.6350  174.5700  141.4670 N   0  0  0  0  0  2  0  0  0  0  0  0
  187.4710  174.3320  142.3200 O   0  0  0  0  0  0  0  0  0  0  0  0
  190.3250  172.3490  140.7400 C   0  0  0  0  0  2  0  0  0  0  0  0
  188.8780  173.6240  139.2950 C   0  0  0  0  0  0  0  0  0  0  0  0
  188.8840  172.5650  138.3860 C   0  0  0  0  0  2  0  0  0  0  0  0
  190.3150  171.3290  139.8410 N   0  0  0  0  0  0  0  0  0  0  0  0
  188.2290  174.7680  138.9650 F   0  0  0  0  0  0  0  0  0  0  0  0
  189.6100  171.4030  138.6820 C   0  0  0  0  0  0  0  0  0  0  0  0
  189.5920  173.5120  140.5000 C   0  0  0  0  0  0  0  0  0  0  0  0
  190.2330  169.0140  138.1090 C   0  0  0  0  0  1  0  0  0  0  0  0
  189.6360  170.2970  137.7750 N   0  0  0  0  0  2  0  0  0  0  0  0
  188.2640  177.6670  145.0940 C   0  0  0  0  0  2  0  0  0  0  0  0
  186.9220  177.8210  145.8010 C   0  0  0  0  0  2  0  0  0  0  0  0
  186.1480  179.0360  145.2880 C   0  0  0  0  0  2  0  0  0  0  0  0
  185.3010  178.2770  142.0930 C   0  0  0  0  0  0  0  0  0  0  0  0
  185.1650  177.0910  142.5740 N   0  0  0  0  0  0  0  0  0  0  0  0
  185.0190  178.6870  144.3130 C   0  0  2  0  0  3  0  0  0  0  0  0
  184.9650  177.1840  144.0150 C   0  0  0  0  0  2  0  0  0  0  0  0
  185.2330  179.2770  143.0410 O   0  0  0  0  0  0  0  0  0  0  0  0
  186.2310  177.3380  140.0200 C   0  0  0  0  0  1  0  0  0  0  0  0
  185.5480  178.5390  140.6460 C   0  0  0  0  0  2  0  0  0  0  0  0
  189.4990  175.4630  145.2040 C   0  0  0  0  0  2  0  0  0  0  0  0
  190.5650  176.2800  145.5990 O   0  0  0  0  0  0  0  0  0  0  0  0
  191.0430  175.6970  147.1190 P   0  0  1  0  0  0  0  0  0  0  0  0
  191.3920  176.9920  148.1560 O   0  0  0  0  0  1  0  0  0  0  0  0
  189.9230  174.8670  147.7100 O   0  0  0  0  0  0  0  0  0  0  0  0
  192.4290  174.7330  146.9150 O   0  0  0  0  0  0  0  0  0  0  0  0
  193.1250  175.2810  145.8290 C   0  0  1  0  0  3  0  0  0  0  0  0
  194.3810  175.9430  146.3150 C   0  0  0  0  0  3  0  0  0  0  0  0
  194.5400  177.2610  146.2090 C   0  0  0  0  0  2  0  0  0  0  0  0
  193.4260  174.2090  144.7710 C   0  0  1  0  0  3  0  0  0  0  0  0
  192.6400  175.8650  143.2230 O   0  0  0  0  0  1  0  0  0  0  0  0
  192.7300  174.4880  143.4400 C   0  0  0  0  0  2  0  0  0  0  0  0
  194.9280  174.1020  144.5600 C   0  0  0  0  0  2  0  0  0  0  0  0
  195.3520  172.6490  144.4610 C   0  0  0  0  0  2  0  0  0  0  0  0
  195.8480  172.2040  145.7540 N   0  0  0  0  0  1  0  0  0  0  0  0
  1 17  1  1  0  0  0
  1 27  1  0  0  0  0
  2  1  1  0  0  0  0
  3  4  2  0  0  0  0
  4  2  2  0  0  0  0
  5  7  2  0  0  0  0
  5  2  1  0  0  0  0
  6  5  1  0  0  0  0
  9 14  2  0  0  0  0
 10 13  1  0  0  0  0
 10  9  1  0  0  0  0
 11  8  1  0  0  0  0
 12  9  1  0  0  0  0
 13 11  2  0  0  0  0
 14  8  1  0  0  0  0
 14  6  1  0  0  0  0
 16 15  1  0  0  0  0
 16 13  1  0  0  0  0
 17 18  1  0  0  0  0
 19 18  1  0  0  0  0
 20 21  2  0  0  0  0
 20 24  1  0  0  0  0
 21 23  1  0  0  0  0
 22 19  1  1  0  0  0
 23 22  1  0  0  0  0
 24 22  1  0  0  0  0
 25 26  1  0  0  0  0
 26 20  1  0  0  0  0
 27 28  1  0  0  0  0
 28 29  1  0  0  0  0
 29 31  2  1  0  0  0
 29 30  1  0  0  0  0
 32 29  1  0  0  0  0
 33 34  1  1  0  0  0
 33 32  1  0  0  0  0
 35 34  2  0  0  0  0
 36 38  1  6  0  0  0
 36 33  1  0  0  0  0
 37 38  1  0  0  0  0
 39 36  1  0  0  0  0
 40 39  1  0  0  0  0
 40 41  1  0  0  0  0
M  END
>  <MODEL>
4

>  <REMARK>
 VINA RESULT:      -5.8      3.160      5.524
  Name = 
  19 active torsions:
  status: ('A' for Active; 'I' for Inactive)
    1  A    between atoms: C_1  and  C_16
    2  A    between atoms: C_1  and  C_20
    3  A    between atoms: O_2  and  C_8
    4  A    between atoms: O_2  and  P_10
    5  A    between atoms: C_5  and  C_29
    6  A    between atoms: C_7  and  C_23
    7  A    between atoms: C_7  and  C_26
    8  A    between atoms: C_8  and  C_20
    9  A    between atoms: C_9  and  C_21
   10  A    between atoms: C_9  and  C_36
   11  A    between atoms: C_9  and  C_37
   12  A    between atoms: P_10  and  O_31
   13  A    between atoms: C_12  and  C_20
   14  A    between atoms: C_12  and  C_26
   15  A    between atoms: C_13  and  C_21
   16  A    between atoms: O_31  and  C_36
   17  A    between atoms: C_32  and  C_36
   18  A    between atoms: N_34  and  C_40
   19  A    between atoms: C_35  and  N_41
                            x       y       z     vdW  Elec       q    Type
                         _______ _______ _______ _____ _____    ______ ____

>  <TORSDO>
F 19

$$$$
=
 OpenBabel11042419543D

 41 42  0  0  1  0  0  0  0  0999 V2000
  190.5580  174.6640  145.2800 C   0  0  2  0  0  3  0  0  0  0  0  0
  190.0040  174.9120  143.9010 C   0  0  0  0  0  0  0  0  0  0  0  0
  189.5880  177.2900  143.0860 O   0  0  0  0  0  0  0  0  0  0  0  0
  189.7900  176.1360  143.4810 C   0  0  0  0  0  0  0  0  0  0  0  0
  189.7410  173.7650  143.0110 C   0  0  0  0  0  0  0  0  0  0  0  0
  190.8120  172.8990  142.6140 N   0  0  0  0  0  2  0  0  0  0  0  0
  188.5580  173.5170  142.6490 O   0  0  0  0  0  0  0  0  0  0  0  0
  190.7640  170.5660  141.9110 C   0  0  0  0  0  2  0  0  0  0  0  0
  190.6950  172.2720  140.2100 C   0  0  0  0  0  0  0  0  0  0  0  0
  190.6390  171.2730  139.2370 C   0  0  0  0  0  2  0  0  0  0  0  0
  190.7060  169.6100  140.9460 N   0  0  0  0  0  0  0  0  0  0  0  0
  190.7680  173.5680  139.8160 F   0  0  0  0  0  0  0  0  0  0  0  0
  190.6340  169.9270  139.6270 C   0  0  0  0  0  0  0  0  0  0  0  0
  190.7390  171.9200  141.5690 C   0  0  0  0  0  0  0  0  0  0  0  0
  190.9620  169.0600  137.2670 C   0  0  0  0  0  1  0  0  0  0  0  0
  190.5740  168.8770  138.6570 N   0  0  0  0  0  2  0  0  0  0  0  0
  189.4830  174.3000  146.3020 C   0  0  0  0  0  2  0  0  0  0  0  0
  189.0830  175.5060  147.1430 C   0  0  0  0  0  2  0  0  0  0  0  0
  187.7120  176.0490  146.7380 C   0  0  0  0  0  2  0  0  0  0  0  0
  186.0490  178.7110  145.4540 C   0  0  0  0  0  0  0  0  0  0  0  0
  185.7150  178.8990  146.6820 N   0  0  0  0  0  0  0  0  0  0  0  0
  187.6700  177.5710  146.5730 C   0  0  2  0  0  3  0  0  0  0  0  0
  186.6790  178.2240  147.5440 C   0  0  0  0  0  2  0  0  0  0  0  0
  187.1820  177.9400  145.2930 O   0  0  0  0  0  0  0  0  0  0  0  0
  186.0150  179.0160  143.0160 C   0  0  0  0  0  1  0  0  0  0  0  0
  185.2590  179.2490  144.3100 C   0  0  0  0  0  2  0  0  0  0  0  0
  191.4420  175.8080  145.7690 C   0  0  0  0  0  2  0  0  0  0  0  0
  192.6310  175.3240  146.3270 O   0  0  0  0  0  0  0  0  0  0  0  0
  193.8700  175.8980  145.3200 P   0  0  1  0  0  0  0  0  0  0  0  0
  193.2100  176.7200  143.9940 O   0  0  0  0  0  0  0  0  0  0  0  0
  194.7570  176.8400  146.1060 O   0  0  0  0  0  1  0  0  0  0  0  0
  194.7820  174.5680  144.7770 O   0  0  0  0  0  0  0  0  0  0  0  0
  196.1120  175.0060  144.7250 C   0  0  1  0  0  3  0  0  0  0  0  0
  196.9850  174.0710  145.5080 C   0  0  0  0  0  3  0  0  0  0  0  0
  196.5270  172.8860  145.9060 C   0  0  0  0  0  2  0  0  0  0  0  0
  196.5900  175.1400  143.2710 C   0  0  1  0  0  3  0  0  0  0  0  0
  195.8350  176.8150  141.7270 O   0  0  0  0  0  1  0  0  0  0  0  0
  196.6820  176.5950  142.8170 C   0  0  0  0  0  2  0  0  0  0  0  0
  197.9380  174.4580  143.1090 C   0  0  0  0  0  2  0  0  0  0  0  0
  197.9300  173.5380  141.9030 C   0  0  0  0  0  2  0  0  0  0  0  0
  196.5610  173.1520  141.6010 N   0  0  0  0  0  1  0  0  0  0  0  0
  1 27  1  1  0  0  0
  1 17  1  0  0  0  0
  2  1  1  0  0  0  0
  3  4  2  0  0  0  0
  4  2  2  0  0  0  0
  5  2  1  0  0  0  0
  6  5  1  0  0  0  0
  7  5  2  0  0  0  0
  9 14  2  0  0  0  0
 10 13  1  0  0  0  0
 10  9  1  0  0  0  0
 11  8  1  0  0  0  0
 12  9  1  0  0  0  0
 13 11  2  0  0  0  0
 14  8  1  0  0  0  0
 14  6  1  0  0  0  0
 15 16  1  0  0  0  0
 16 13  1  0  0  0  0
 17 18  1  0  0  0  0
 19 18  1  0  0  0  0
 20 21  2  0  0  0  0
 21 23  1  0  0  0  0
 22 19  1  6  0  0  0
 22 23  1  0  0  0  0
 24 20  1  0  0  0  0
 24 22  1  0  0  0  0
 25 26  1  0  0  0  0
 26 20  1  0  0  0  0
 27 28  1  0  0  0  0
 29 30  2  6  0  0  0
 29 31  1  0  0  0  0
 29 28  1  0  0  0  0
 32 29  1  0  0  0  0
 33 32  1  0  0  0  0
 33 34  1  1  0  0  0
 34 35  2  0  0  0  0
 36 38  1  1  0  0  0
 36 33  1  0  0  0  0
 37 38  1  0  0  0  0
 39 36  1  0  0  0  0
 40 39  1  0  0  0  0
 41 40  1  0  0  0  0
M  END
>  <MODEL>
5

>  <REMARK>
 VINA RESULT:      -5.5      3.281      5.563
  Name = 
  19 active torsions:
  status: ('A' for Active; 'I' for Inactive)
    1  A    between atoms: C_1  and  C_16
    2  A    between atoms: C_1  and  C_20
    3  A    between atoms: O_2  and  C_8
    4  A    between atoms: O_2  and  P_10
    5  A    between atoms: C_5  and  C_29
    6  A    between atoms: C_7  and  C_23
    7  A    between atoms: C_7  and  C_26
    8  A    between atoms: C_8  and  C_20
    9  A    between atoms: C_9  and  C_21
   10  A    between atoms: C_9  and  C_36
   11  A    between atoms: C_9  and  C_37
   12  A    between atoms: P_10  and  O_31
   13  A    between atoms: C_12  and  C_20
   14  A    between atoms: C_12  and  C_26
   15  A    between atoms: C_13  and  C_21
   16  A    between atoms: O_31  and  C_36
   17  A    between atoms: C_32  and  C_36
   18  A    between atoms: N_34  and  C_40
   19  A    between atoms: C_35  and  N_41
                            x       y       z     vdW  Elec       q    Type
                         _______ _______ _______ _____ _____    ______ ____

>  <TORSDO>
F 19

$$$$
=
 OpenBabel11042419543D

 41 42  0  0  1  0  0  0  0  0999 V2000
  190.6290  175.0130  143.0200 C   0  0  2  0  0  3  0  0  0  0  0  0
  189.9680  176.3530  142.8260 C   0  0  0  0  0  0  0  0  0  0  0  0
  191.2700  178.5050  143.2340 O   0  0  0  0  0  0  0  0  0  0  0  0
  190.6380  177.4610  143.0350 C   0  0  0  0  0  0  0  0  0  0  0  0
  188.5700  176.4080  142.3590 C   0  0  0  0  0  0  0  0  0  0  0  0
  187.9240  177.6730  142.1620 N   0  0  0  0  0  2  0  0  0  0  0  0
  187.9650  175.3370  142.0800 O   0  0  0  0  0  0  0  0  0  0  0  0
  185.6750  177.8900  143.0730 C   0  0  0  0  0  3  0  0  0  0  0  0
  185.9480  177.9650  140.6800 C   0  0  0  0  0  0  0  0  0  0  0  0
  184.5690  178.1320  140.5470 C   0  0  0  0  0  3  0  0  0  0  0  0
  184.3340  178.0550  142.9190 N   0  0  0  0  0  0  0  0  0  0  0  0
  186.7050  177.8440  139.5620 F   0  0  0  0  0  0  0  0  0  0  0  0
  183.7640  178.1870  141.6930 C   0  0  0  0  0  0  0  0  0  0  0  0
  186.5170  177.8600  141.9610 C   0  0  0  0  0  0  0  0  0  0  0  0
  181.5940  178.0440  140.3910 C   0  0  0  0  0  1  0  0  0  0  0  0
  182.3470  178.3600  141.5940 N   0  0  0  0  0  2  0  0  0  0  0  0
  190.9460  174.7070  144.4810 C   0  0  0  0  0  2  0  0  0  0  0  0
  189.7300  174.1460  145.2100 C   0  0  0  0  0  2  0  0  0  0  0  0
  189.2960  175.0490  146.3650 C   0  0  0  0  0  2  0  0  0  0  0  0
  186.4920  176.9510  146.5230 C   0  0  0  0  0  0  0  0  0  0  0  0
  187.2200  177.6860  147.2880 N   0  0  0  0  0  0  0  0  0  0  0  0
  188.5980  176.3380  145.9180 C   0  0  2  0  0  3  0  0  0  0  0  0
  188.6250  177.4110  147.0120 C   0  0  0  0  0  2  0  0  0  0  0  0
  187.2150  176.1250  145.6870 O   0  0  0  0  0  0  0  0  0  0  0  0
  184.5110  178.4020  146.6190 C   0  0  0  0  0  1  0  0  0  0  0  0
  185.0020  176.9680  146.5650 C   0  0  0  0  0  2  0  0  0  0  0  0
  191.8510  174.8300  142.1240 C   0  0  0  0  0  2  0  0  0  0  0  0
  192.8770  174.1590  142.8000 O   0  0  0  0  0  0  0  0  0  0  0  0
  194.2400  175.1580  142.6610 P   0  0  1  0  0  0  0  0  0  0  0  0
  193.8190  176.6190  141.9120 O   0  0  0  0  0  0  0  0  0  0  0  0
  194.7950  175.4410  144.0410 O   0  0  0  0  0  1  0  0  0  0  0  0
  195.4080  174.3480  141.7260 O   0  0  0  0  0  0  0  0  0  0  0  0
  195.4220  174.9920  140.4810 C   0  0  1  0  0  3  0  0  0  0  0  0
  196.7920  175.5410  140.2100 C   0  0  0  0  0  3  0  0  0  0  0  0
  197.8710  174.9690  140.7410 C   0  0  0  0  0  2  0  0  0  0  0  0
  194.9640  174.0400  139.3650 C   0  0  1  0  0  3  0  0  0  0  0  0
  194.2650  171.8080  138.8340 O   0  0  0  0  0  1  0  0  0  0  0  0
  194.7830  172.6060  139.8570 C   0  0  0  0  0  2  0  0  0  0  0  0
  193.6680  174.5500  138.7560 C   0  0  0  0  0  2  0  0  0  0  0  0
  193.9410  175.2910  137.4610 C   0  0  0  0  0  2  0  0  0  0  0  0
  192.6890  175.4920  136.7490 N   0  0  0  0  0  1  0  0  0  0  0  0
  1 27  1  6  0  0  0
  1 17  1  0  0  0  0
  2  1  1  0  0  0  0
  2  4  2  0  0  0  0
  4  3  2  0  0  0  0
  5  2  1  0  0  0  0
  6  5  1  0  0  0  0
  7  5  2  0  0  0  0
  9 14  1  0  0  0  0
 10  9  2  0  0  0  0
 10 13  1  0  0  0  0
 11  8  1  0  0  0  0
 12  9  1  0  0  0  0
 13 11  2  0  0  0  0
 14  6  1  0  0  0  0
 14  8  2  0  0  0  0
 15 16  1  0  0  0  0
 16 13  1  0  0  0  0
 17 18  1  0  0  0  0
 18 19  1  0  0  0  0
 20 26  1  0  0  0  0
 20 21  2  0  0  0  0
 22 19  1  1  0  0  0
 22 23  1  0  0  0  0
 23 21  1  0  0  0  0
 24 22  1  0  0  0  0
 24 20  1  0  0  0  0
 26 25  1  0  0  0  0
 27 28  1  0  0  0  0
 29 30  2  6  0  0  0
 29 28  1  0  0  0  0
 29 31  1  0  0  0  0
 32 29  1  0  0  0  0
 33 34  1  6  0  0  0
 33 32  1  0  0  0  0
 34 35  2  0  0  0  0
 36 39  1  1  0  0  0
 36 38  1  0  0  0  0
 36 33  1  0  0  0  0
 37 38  1  0  0  0  0
 40 39  1  0  0  0  0
 41 40  1  0  0  0  0
M  END
>  <MODEL>
6

>  <REMARK>
 VINA RESULT:      -5.5      2.477      3.372
  Name = 
  19 active torsions:
  status: ('A' for Active; 'I' for Inactive)
    1  A    between atoms: C_1  and  C_16
    2  A    between atoms: C_1  and  C_20
    3  A    between atoms: O_2  and  C_8
    4  A    between atoms: O_2  and  P_10
    5  A    between atoms: C_5  and  C_29
    6  A    between atoms: C_7  and  C_23
    7  A    between atoms: C_7  and  C_26
    8  A    between atoms: C_8  and  C_20
    9  A    between atoms: C_9  and  C_21
   10  A    between atoms: C_9  and  C_36
   11  A    between atoms: C_9  and  C_37
   12  A    between atoms: P_10  and  O_31
   13  A    between atoms: C_12  and  C_20
   14  A    between atoms: C_12  and  C_26
   15  A    between atoms: C_13  and  C_21
   16  A    between atoms: O_31  and  C_36
   17  A    between atoms: C_32  and  C_36
   18  A    between atoms: N_34  and  C_40
   19  A    between atoms: C_35  and  N_41
                            x       y       z     vdW  Elec       q    Type
                         _______ _______ _______ _____ _____    ______ ____

>  <TORSDO>
F 19

$$$$
=
 OpenBabel11042419543D

 41 42  0  0  1  0  0  0  0  0999 V2000
  190.8870  176.1580  144.8190 C   0  0  2  0  0  3  0  0  0  0  0  0
  190.0770  176.0990  143.5510 C   0  0  0  0  0  0  0  0  0  0  0  0
  189.0740  178.2210  142.5600 O   0  0  0  0  0  0  0  0  0  0  0  0
  189.5610  177.1910  143.0400 C   0  0  0  0  0  0  0  0  0  0  0  0
  189.9030  174.8050  142.8650 C   0  0  0  0  0  0  0  0  0  0  0  0
  190.5410  174.5640  141.6030 N   0  0  0  0  0  2  0  0  0  0  0  0
  189.2360  173.8900  143.4220 O   0  0  0  0  0  0  0  0  0  0  0  0
  191.1350  172.3860  140.6880 C   0  0  0  0  0  2  0  0  0  0  0  0
  189.1410  173.4630  139.8670 C   0  0  0  0  0  0  0  0  0  0  0  0
  188.9200  172.3710  139.0260 C   0  0  0  0  0  2  0  0  0  0  0  0
  190.8980  171.3320  139.8620 N   0  0  0  0  0  0  0  0  0  0  0  0
  188.3070  174.5290  139.7920 F   0  0  0  0  0  0  0  0  0  0  0  0
  189.8150  171.2920  139.0420 C   0  0  0  0  0  0  0  0  0  0  0  0
  190.2530  173.4670  140.7270 C   0  0  0  0  0  0  0  0  0  0  0  0
  190.7170  169.4080  137.6080 C   0  0  0  0  0  1  0  0  0  0  0  0
  189.6180  170.1560  138.1960 N   0  0  0  0  0  2  0  0  0  0  0  0
  190.0790  176.6310  146.0250 C   0  0  0  0  0  2  0  0  0  0  0  0
  189.1260  175.5490  146.5180 C   0  0  0  0  0  2  0  0  0  0  0  0
  187.7310  176.1080  146.8010 C   0  0  0  0  0  2  0  0  0  0  0  0
  185.8220  178.7300  145.8060 C   0  0  0  0  0  0  0  0  0  0  0  0
  185.6880  178.9130  147.0720 N   0  0  0  0  0  0  0  0  0  0  0  0
  187.6280  177.6290  146.6470 C   0  0  2  0  0  3  0  0  0  0  0  0
  186.7930  178.2610  147.7660 C   0  0  0  0  0  2  0  0  0  0  0  0
  186.9320  177.9840  145.4630 O   0  0  0  0  0  0  0  0  0  0  0  0
  185.5460  179.4680  143.4780 C   0  0  0  0  0  1  0  0  0  0  0  0
  184.8460  179.2470  144.8060 C   0  0  0  0  0  2  0  0  0  0  0  0
  192.1770  176.9570  144.6520 C   0  0  0  0  0  2  0  0  0  0  0  0
  193.2580  176.1160  144.3620 O   0  0  0  0  0  0  0  0  0  0  0  0
  194.3720  176.3610  145.6180 P   0  0  1  0  0  0  0  0  0  0  0  0
  194.8960  177.9720  145.6260 O   0  0  0  0  0  0  0  0  0  0  0  0
  193.7110  176.0390  146.9410 O   0  0  0  0  0  1  0  0  0  0  0  0
  195.6980  175.3250  145.3700 O   0  0  0  0  0  0  0  0  0  0  0  0
  195.5610  174.8250  144.0680 C   0  0  1  0  0  3  0  0  0  0  0  0
  196.2080  175.7650  143.0940 C   0  0  0  0  0  3  0  0  0  0  0  0
  197.5200  175.9870  143.1320 C   0  0  0  0  0  2  0  0  0  0  0  0
  196.1460  173.4090  143.9580 C   0  0  1  0  0  3  0  0  0  0  0  0
  196.4680  172.1550  145.9780 O   0  0  0  0  0  1  0  0  0  0  0  0
  197.0800  173.0700  145.1180 C   0  0  0  0  0  2  0  0  0  0  0  0
  195.0180  172.3920  143.8840 C   0  0  0  0  0  2  0  0  0  0  0  0
  193.7770  173.0150  143.2740 C   0  0  0  0  0  2  0  0  0  0  0  0
  192.6230  172.6930  144.0980 N   0  0  0  0  0  1  0  0  0  0  0  0
  1 27  1  6  0  0  0
  1 17  1  0  0  0  0
  2  1  1  0  0  0  0
  3  4  2  0  0  0  0
  4  2  2  0  0  0  0
  5  7  2  0  0  0  0
  5  2  1  0  0  0  0
  6  5  1  0  0  0  0
  8 14  1  0  0  0  0
  9 14  2  0  0  0  0
 10 13  1  0  0  0  0
 10  9  1  0  0  0  0
 11  8  1  0  0  0  0
 12  9  1  0  0  0  0
 13 11  2  0  0  0  0
 14  6  1  0  0  0  0
 15 16  1  0  0  0  0
 16 13  1  0  0  0  0
 17 18  1  0  0  0  0
 18 19  1  0  0  0  0
 20 21  2  0  0  0  0
 21 23  1  0  0  0  0
 22 19  1  1  0  0  0
 22 23  1  0  0  0  0
 24 20  1  0  0  0  0
 24 22  1  0  0  0  0
 25 26  1  0  0  0  0
 26 20  1  0  0  0  0
 28 27  1  0  0  0  0
 28 29  1  0  0  0  0
 29 30  2  6  0  0  0
 29 31  1  0  0  0  0
 32 29  1  0  0  0  0
 33 34  1  6  0  0  0
 33 32  1  0  0  0  0
 34 35  2  0  0  0  0
 36 39  1  1  0  0  0
 36 33  1  0  0  0  0
 36 38  1  0  0  0  0
 38 37  1  0  0  0  0
 40 39  1  0  0  0  0
 40 41  1  0  0  0  0
M  END
>  <MODEL>
7

>  <REMARK>
 VINA RESULT:      -5.5      3.073      5.022
  Name = 
  19 active torsions:
  status: ('A' for Active; 'I' for Inactive)
    1  A    between atoms: C_1  and  C_16
    2  A    between atoms: C_1  and  C_20
    3  A    between atoms: O_2  and  C_8
    4  A    between atoms: O_2  and  P_10
    5  A    between atoms: C_5  and  C_29
    6  A    between atoms: C_7  and  C_23
    7  A    between atoms: C_7  and  C_26
    8  A    between atoms: C_8  and  C_20
    9  A    between atoms: C_9  and  C_21
   10  A    between atoms: C_9  and  C_36
   11  A    between atoms: C_9  and  C_37
   12  A    between atoms: P_10  and  O_31
   13  A    between atoms: C_12  and  C_20
   14  A    between atoms: C_12  and  C_26
   15  A    between atoms: C_13  and  C_21
   16  A    between atoms: O_31  and  C_36
   17  A    between atoms: C_32  and  C_36
   18  A    between atoms: N_34  and  C_40
   19  A    between atoms: C_35  and  N_41
                            x       y       z     vdW  Elec       q    Type
                         _______ _______ _______ _____ _____    ______ ____

>  <TORSDO>
F 19

$$$$
=
 OpenBabel11042419543D

 41 42  0  0  1  0  0  0  0  0999 V2000
  189.9270  174.5420  142.6210 C   0  0  2  0  0  3  0  0  0  0  0  0
  191.1290  175.2710  143.1630 C   0  0  0  0  0  0  0  0  0  0  0  0
  191.3820  177.7820  142.8130 O   0  0  0  0  0  0  0  0  0  0  0  0
  191.2590  176.5630  142.9840 C   0  0  0  0  0  0  0  0  0  0  0  0
  192.1400  174.5220  143.9340 C   0  0  0  0  0  0  0  0  0  0  0  0
  193.5260  174.6020  143.5740 N   0  0  0  0  0  2  0  0  0  0  0  0
  191.7850  173.8590  144.9460 O   0  0  0  0  0  0  0  0  0  0  0  0
  194.8820  172.5890  143.3520 C   0  0  0  0  0  3  0  0  0  0  0  0
  195.2250  173.9880  145.2840 C   0  0  0  0  0  0  0  0  0  0  0  0
  196.2130  173.1060  145.7240 C   0  0  0  0  0  3  0  0  0  0  0  0
  195.8500  171.7450  143.7990 N   0  0  0  0  0  0  0  0  0  0  0  0
  194.8830  175.0370  146.0730 F   0  0  0  0  0  0  0  0  0  0  0  0
  196.5260  171.9780  144.9540 C   0  0  0  0  0  0  0  0  0  0  0  0
  194.5590  173.7410  144.0710 C   0  0  0  0  0  0  0  0  0  0  0  0
  197.2360  169.8310  146.0990 C   0  0  0  0  0  1  0  0  0  0  0  0
  197.5360  171.0540  145.3720 N   0  0  0  0  0  2  0  0  0  0  0  0
  190.2950  173.3680  141.7170 C   0  0  0  0  0  2  0  0  0  0  0  0
  189.2740  173.1800  140.6010 C   0  0  0  0  0  2  0  0  0  0  0  0
  189.8630  173.5180  139.2320 C   0  0  0  0  0  2  0  0  0  0  0  0
  187.7900  175.1520  137.1020 C   0  0  0  0  0  0  0  0  0  0  0  0
  188.7120  174.8870  136.2450 N   0  0  0  0  0  0  0  0  0  0  0  0
  188.8630  173.3980  138.0770 C   0  0  2  0  0  3  0  0  0  0  0  0
  189.5000  173.7590  136.7300 C   0  0  0  0  0  2  0  0  0  0  0  0
  187.8040  174.3310  138.2110 O   0  0  0  0  0  0  0  0  0  0  0  0
  186.1570  176.1570  135.5640 C   0  0  0  0  0  1  0  0  0  0  0  0
  186.8190  176.2680  136.9250 C   0  0  0  0  0  2  0  0  0  0  0  0
  188.9270  175.4810  141.9520 C   0  0  0  0  0  2  0  0  0  0  0  0
  187.7150  175.5100  142.6510 O   0  0  0  0  0  0  0  0  0  0  0  0
  187.1980  177.1240  142.5950 P   0  0  1  0  0  0  0  0  0  0  0  0
  188.1240  177.9950  141.4730 O   0  0  0  0  0  0  0  0  0  0  0  0
  185.7410  177.1680  142.1860 O   0  0  0  0  0  1  0  0  0  0  0  0
  187.3820  177.8030  144.1430 O   0  0  0  0  0  0  0  0  0  0  0  0
  187.1240  176.7680  145.0530 C   0  0  1  0  0  3  0  0  0  0  0  0
  188.3570  176.4820  145.8580 C   0  0  0  0  0  3  0  0  0  0  0  0
  189.3450  177.3720  145.9280 C   0  0  0  0  0  2  0  0  0  0  0  0
  185.9300  177.1140  145.9550 C   0  0  1  0  0  3  0  0  0  0  0  0
  186.0680  177.9290  148.2080 O   0  0  0  0  0  1  0  0  0  0  0  0
  186.1880  176.7790  147.4230 C   0  0  0  0  0  2  0  0  0  0  0  0
  185.5860  178.5880  145.8100 C   0  0  0  0  0  2  0  0  0  0  0  0
  184.1170  178.7640  145.4750 C   0  0  0  0  0  2  0  0  0  0  0  0
  183.9910  179.2860  144.1240 N   0  0  0  0  0  1  0  0  0  0  0  0
  1 17  1  6  0  0  0
  1  2  1  0  0  0  0
  2  5  1  0  0  0  0
  3  4  2  0  0  0  0
  4  2  2  0  0  0  0
  5  7  2  0  0  0  0
  6  5  1  0  0  0  0
  6 14  1  0  0  0  0
  8 11  1  0  0  0  0
  8 14  2  0  0  0  0
  9 10  2  0  0  0  0
  9 12  1  0  0  0  0
 11 13  2  0  0  0  0
 13 16  1  0  0  0  0
 13 10  1  0  0  0  0
 14  9  1  0  0  0  0
 16 15  1  0  0  0  0
 18 17  1  0  0  0  0
 19 18  1  0  0  0  0
 20 24  1  0  0  0  0
 21 23  1  0  0  0  0
 21 20  2  0  0  0  0
 22 24  1  0  0  0  0
 22 19  1  1  0  0  0
 23 22  1  0  0  0  0
 25 26  1  0  0  0  0
 26 20  1  0  0  0  0
 27  1  1  0  0  0  0
 27 28  1  0  0  0  0
 29 30  2  6  0  0  0
 29 28  1  0  0  0  0
 29 32  1  0  0  0  0
 31 29  1  0  0  0  0
 32 33  1  0  0  0  0
 33 34  1  1  0  0  0
 33 36  1  0  0  0  0
 34 35  2  0  0  0  0
 36 39  1  1  0  0  0
 36 38  1  0  0  0  0
 38 37  1  0  0  0  0
 40 39  1  0  0  0  0
 41 40  1  0  0  0  0
M  END
>  <MODEL>
8

>  <REMARK>
 VINA RESULT:      -5.5      3.413      9.709
  Name = 
  19 active torsions:
  status: ('A' for Active; 'I' for Inactive)
    1  A    between atoms: C_1  and  C_16
    2  A    between atoms: C_1  and  C_20
    3  A    between atoms: O_2  and  C_8
    4  A    between atoms: O_2  and  P_10
    5  A    between atoms: C_5  and  C_29
    6  A    between atoms: C_7  and  C_23
    7  A    between atoms: C_7  and  C_26
    8  A    between atoms: C_8  and  C_20
    9  A    between atoms: C_9  and  C_21
   10  A    between atoms: C_9  and  C_36
   11  A    between atoms: C_9  and  C_37
   12  A    between atoms: P_10  and  O_31
   13  A    between atoms: C_12  and  C_20
   14  A    between atoms: C_12  and  C_26
   15  A    between atoms: C_13  and  C_21
   16  A    between atoms: O_31  and  C_36
   17  A    between atoms: C_32  and  C_36
   18  A    between atoms: N_34  and  C_40
   19  A    between atoms: C_35  and  N_41
                            x       y       z     vdW  Elec       q    Type
                         _______ _______ _______ _____ _____    ______ ____

>  <TORSDO>
F 19

$$$$
=
 OpenBabel11042419543D

 41 42  0  0  1  0  0  0  0  0999 V2000
  187.8050  176.2970  144.2910 C   0  0  2  0  0  3  0  0  0  0  0  0
  188.2430  176.2410  142.8510 C   0  0  0  0  0  0  0  0  0  0  0  0
  189.0080  178.3550  141.6510 O   0  0  0  0  0  0  0  0  0  0  0  0
  188.6370  177.3290  142.2330 C   0  0  0  0  0  0  0  0  0  0  0  0
  188.2640  174.9420  142.1520 C   0  0  0  0  0  0  0  0  0  0  0  0
  189.3700  174.5940  141.3080 N   0  0  0  0  0  2  0  0  0  0  0  0
  187.3320  174.1160  142.3470 O   0  0  0  0  0  0  0  0  0  0  0  0
  190.1710  172.3760  140.6970 C   0  0  0  0  0  2  0  0  0  0  0  0
  188.7050  173.5220  139.1650 C   0  0  0  0  0  0  0  0  0  0  0  0
  188.7780  172.4250  138.3050 C   0  0  0  0  0  2  0  0  0  0  0  0
  190.2250  171.3180  139.8440 N   0  0  0  0  0  0  0  0  0  0  0  0
  188.0160  174.6210  138.7700 F   0  0  0  0  0  0  0  0  0  0  0  0
  189.5450  171.3100  138.6680 C   0  0  0  0  0  0  0  0  0  0  0  0
  189.3950  173.4940  140.3890 C   0  0  0  0  0  0  0  0  0  0  0  0
  190.7170  169.1950  137.9070 C   0  0  0  0  0  1  0  0  0  0  0  0
  189.6390  170.1670  137.8120 N   0  0  0  0  0  2  0  0  0  0  0  0
  186.3920  176.8500  144.4660 C   0  0  0  0  0  2  0  0  0  0  0  0
  186.3920  178.3730  144.5260 C   0  0  0  0  0  2  0  0  0  0  0  0
  185.6380  178.9850  143.3450 C   0  0  0  0  0  2  0  0  0  0  0  0
  182.8140  178.2890  141.6000 C   0  0  0  0  0  0  0  0  0  0  0  0
  183.5810  178.4760  140.5840 N   0  0  0  0  0  0  0  0  0  0  0  0
  184.8830  177.9620  142.4910 C   0  0  2  0  0  3  0  0  0  0  0  0
  184.9680  178.2920  140.9960 C   0  0  0  0  0  2  0  0  0  0  0  0
  183.4910  177.9860  142.7640 O   0  0  0  0  0  0  0  0  0  0  0  0
  180.8570  178.1040  140.1250 C   0  0  0  0  0  1  0  0  0  0  0  0
  181.3320  178.4240  141.5300 C   0  0  0  0  0  2  0  0  0  0  0  0
  188.8110  177.0210  145.1800 C   0  0  0  0  0  2  0  0  0  0  0  0
  189.7040  176.1190  145.7700 O   0  0  0  0  0  0  0  0  0  0  0  0
  191.2360  176.5450  145.1800 P   0  0  1  0  0  0  0  0  0  0  0  0
  191.1960  178.1100  144.5300 O   0  0  0  0  0  0  0  0  0  0  0  0
  192.2390  176.4960  146.3120 O   0  0  0  0  0  1  0  0  0  0  0  0
  191.6760  175.4310  143.9720 O   0  0  0  0  0  0  0  0  0  0  0  0
  191.9380  174.2240  144.6350 C   0  0  1  0  0  3  0  0  0  0  0  0
  190.9630  173.1770  144.1850 C   0  0  0  0  0  3  0  0  0  0  0  0
  189.9100  172.8610  144.9360 C   0  0  0  0  0  2  0  0  0  0  0  0
  193.3900  173.7770  144.4090 C   0  0  1  0  0  3  0  0  0  0  0  0
  195.3770  175.0860  144.7190 O   0  0  0  0  0  1  0  0  0  0  0  0
  194.3600  174.4150  145.4020 C   0  0  0  0  0  2  0  0  0  0  0  0
  193.4800  172.2620  144.4950 C   0  0  0  0  0  2  0  0  0  0  0  0
  194.2340  171.8400  145.7410 C   0  0  0  0  0  2  0  0  0  0  0  0
  195.0650  170.6870  145.4330 N   0  0  0  0  0  1  0  0  0  0  0  0
  1 17  1  6  0  0  0
  1 27  1  0  0  0  0
  2  1  1  0  0  0  0
  3  4  2  0  0  0  0
  4  2  2  0  0  0  0
  5  7  2  0  0  0  0
  5  2  1  0  0  0  0
  6  5  1  0  0  0  0
  9 14  2  0  0  0  0
 10 13  1  0  0  0  0
 10  9  1  0  0  0  0
 11  8  1  0  0  0  0
 12  9  1  0  0  0  0
 13 11  2  0  0  0  0
 14  8  1  0  0  0  0
 14  6  1  0  0  0  0
 16 15  1  0  0  0  0
 16 13  1  0  0  0  0
 17 18  1  0  0  0  0
 19 18  1  0  0  0  0
 20 24  1  0  0  0  0
 21 23  1  0  0  0  0
 21 20  2  0  0  0  0
 22 24  1  0  0  0  0
 22 19  1  1  0  0  0
 23 22  1  0  0  0  0
 25 26  1  0  0  0  0
 26 20  1  0  0  0  0
 27 28  1  0  0  0  0
 29 30  2  6  0  0  0
 29 28  1  0  0  0  0
 29 31  1  0  0  0  0
 32 33  1  0  0  0  0
 32 29  1  0  0  0  0
 33 34  1  6  0  0  0
 34 35  2  0  0  0  0
 36 39  1  1  0  0  0
 36 33  1  0  0  0  0
 36 38  1  0  0  0  0
 37 38  1  0  0  0  0
 39 40  1  0  0  0  0
 41 40  1  0  0  0  0
M  END
>  <MODEL>
9

>  <REMARK>
 VINA RESULT:      -5.4      3.136      5.864
  Name = 
  19 active torsions:
  status: ('A' for Active; 'I' for Inactive)
    1  A    between atoms: C_1  and  C_16
    2  A    between atoms: C_1  and  C_20
    3  A    between atoms: O_2  and  C_8
    4  A    between atoms: O_2  and  P_10
    5  A    between atoms: C_5  and  C_29
    6  A    between atoms: C_7  and  C_23
    7  A    between atoms: C_7  and  C_26
    8  A    between atoms: C_8  and  C_20
    9  A    between atoms: C_9  and  C_21
   10  A    between atoms: C_9  and  C_36
   11  A    between atoms: C_9  and  C_37
   12  A    between atoms: P_10  and  O_31
   13  A    between atoms: C_12  and  C_20
   14  A    between atoms: C_12  and  C_26
   15  A    between atoms: C_13  and  C_21
   16  A    between atoms: O_31  and  C_36
   17  A    between atoms: C_32  and  C_36
   18  A    between atoms: N_34  and  C_40
   19  A    between atoms: C_35  and  N_41
                            x       y       z     vdW  Elec       q    Type
                         _______ _______ _______ _____ _____    ______ ____

>  <TORSDO>
F 19

$$$$
