=
 OpenBabel11042413593D

 36 39  0  0  1  0  0  0  0  0999 V2000
  185.0050  178.5500  144.0160 C   0  0  1  0  0  3  0  0  0  0  0  0
  186.0090  177.7050  141.1870 C   0  0  0  0  0  0  0  0  0  0  0  0
  182.4190  177.9200  141.6910 O   0  0  0  0  0  0  0  0  0  0  0  0
  183.8340  179.0370  143.2040 C   0  0  0  0  0  2  0  0  0  0  0  0
  186.2450  179.1030  143.3600 C   0  0  0  0  0  2  0  0  0  0  0  0
  183.6090  178.1950  141.9900 C   0  0  0  0  0  0  0  0  0  0  0  0
  184.6680  177.7220  141.0720 C   0  0  0  0  0  3  0  0  0  0  0  0
  186.7210  178.1900  142.3380 N   0  0  0  0  0  2  0  0  0  0  0  0
  186.1740  177.1370  146.2710 N   0  0  0  0  0  2  0  0  0  0  0  0
  185.5420  178.4030  146.4690 C   0  0  0  0  0  0  0  0  0  0  0  0
  184.9070  179.0650  145.3730 N   0  0  0  0  0  2  0  0  0  0  0  0
  185.5360  178.9420  147.6070 O   0  0  0  0  0  0  0  0  0  0  0  0
  186.9610  176.4820  147.3030 C   0  0  0  0  0  2  0  0  0  0  0  0
  188.8530  175.0850  147.5560 F   0  0  0  0  0  0  0  0  0  0  0  0
  188.1700  175.5530  145.4650 F   0  0  0  0  0  0  0  0  0  0  0  0
  188.3160  176.0660  146.7440 C   0  0  0  0  0  0  0  0  0  0  0  0
  189.2700  177.2590  146.7290 C   0  0  0  0  0  2  0  0  0  0  0  0
  190.1640  177.2760  145.5250 C   0  0  0  0  0  0  0  0  0  0  0  0
  191.6320  176.7860  143.1870 C   0  0  0  0  0  2  0  0  0  0  0  0
  189.7620  177.8980  144.4040 C   0  0  0  0  0  3  0  0  0  0  0  0
  190.6090  177.9180  143.1610 C   0  0  0  0  0  2  0  0  0  0  0  0
  192.3370  176.8030  144.4660 N   0  0  0  0  0  2  0  0  0  0  0  0
  191.3980  176.4070  145.5180 C   0  0  0  0  0  2  0  0  0  0  0  0
  186.7520  177.7290  138.8920 O   0  0  0  0  0  1  0  0  0  0  0  0
  186.7680  177.1260  140.1080 N   0  0  0  0  0  0  0  0  0  0  0  0
  188.8490  174.5810  141.7810 C   0  0  0  0  0  0  0  0  0  0  0  0
  189.2350  174.1140  143.1150 C   0  0  0  0  0  3  0  0  0  0  0  0
  187.5900  175.9950  140.3000 N   0  0  0  0  0  0  0  0  0  0  0  0
  188.0170  175.6110  141.6210 C   0  0  0  0  0  3  0  0  0  0  0  0
  187.7980  175.0780  139.2090 C   0  0  0  0  0  3  0  0  0  0  0  0
  189.4750  173.9130  140.5810 C   0  0  2  0  0  3  0  0  0  0  0  0
  189.8180  172.9200  143.2410 C   0  0  0  0  0  3  0  0  0  0  0  0
  188.6480  174.0550  139.3340 C   0  0  0  0  0  3  0  0  0  0  0  0
  190.4550  170.6510  142.2450 C   0  0  0  0  0  1  0  0  0  0  0  0
  189.8140  172.5130  140.8520 N   0  0  0  0  0  0  0  0  0  0  0  0
  190.0420  172.0650  142.0540 C   0  0  0  0  0  0  0  0  0  0  0  0
  1 11  1  1  0  0  0
  2  8  1  0  0  0  0
  3  6  2  0  0  0  0
  4  1  1  0  0  0  0
  5  1  1  0  0  0  0
  6  4  1  0  0  0  0
  7  2  2  0  0  0  0
  7  6  1  0  0  0  0
  8  5  1  0  0  0  0
  9 10  1  0  0  0  0
  9 13  1  0  0  0  0
 10 12  2  0  0  0  0
 11 10  1  0  0  0  0
 15 16  1  0  0  0  0
 16 13  1  0  0  0  0
 16 14  1  0  0  0  0
 17 16  1  0  0  0  0
 18 17  1  0  0  0  0
 19 22  1  0  0  0  0
 20 18  2  0  0  0  0
 21 19  1  0  0  0  0
 21 20  1  0  0  0  0
 22 23  1  0  0  0  0
 23 18  1  0  0  0  0
 24 25  1  0  0  0  0
 25 28  1  0  0  0  0
 25  2  1  0  0  0  0
 26 27  1  0  0  0  0
 27 32  2  0  0  0  0
 28 29  1  0  0  0  0
 29 26  2  0  0  0  0
 30 33  2  0  0  0  0
 30 28  1  0  0  0  0
 31 33  1  6  0  0  0
 31 35  1  0  0  0  0
 31 26  1  0  0  0  0
 35 36  2  0  0  0  0
 36 34  1  0  0  0  0
 36 32  1  0  0  0  0
M  END
>  <MODEL>
1

>  <REMARK>
 VINA RESULT:      -7.9      0.000      0.000
  Name = 
  7 active torsions:
  status: ('A' for Active; 'I' for Inactive)
    1  A    between atoms: C_2  and  C_12
    2  A    between atoms: N_4  and  N_29
    3  A    between atoms: C_5  and  N_16
    4  A    between atoms: C_5  and  C_20
    5  A    between atoms: C_6  and  N_24
    6  A    between atoms: C_7  and  N_29
    7  A    between atoms: C_12  and  C_20
                            x       y       z     vdW  Elec       q    Type
                         _______ _______ _______ _____ _____    ______ ____

>  <TORSDO>
F 7

$$$$
=
 OpenBabel11042413593D

 36 39  0  0  1  0  0  0  0  0999 V2000
  186.5530  177.8180  141.9680 C   0  0  1  0  0  3  0  0  0  0  0  0
  188.3950  175.3660  141.4050 C   0  0  0  0  0  0  0  0  0  0  0  0
  186.2630  176.5110  138.6970 O   0  0  0  0  0  0  0  0  0  0  0  0
  186.7040  177.9840  140.4780 C   0  0  0  0  0  2  0  0  0  0  0  0
  187.9440  177.6600  142.5280 C   0  0  0  0  0  2  0  0  0  0  0  0
  186.8720  176.6700  139.7850 C   0  0  0  0  0  0  0  0  0  0  0  0
  187.7530  175.5730  140.2400 C   0  0  0  0  0  3  0  0  0  0  0  0
  188.3300  176.2610  142.5260 N   0  0  0  0  0  2  0  0  0  0  0  0
  185.7540  177.9430  144.7590 N   0  0  0  0  0  2  0  0  0  0  0  0
  185.6110  179.0910  143.9210 C   0  0  0  0  0  0  0  0  0  0  0  0
  185.9390  179.0090  142.5320 N   0  0  0  0  0  2  0  0  0  0  0  0
  185.1910  180.1790  144.3970 O   0  0  0  0  0  0  0  0  0  0  0  0
  185.5790  177.9960  146.2010 C   0  0  0  0  0  2  0  0  0  0  0  0
  187.5930  178.1730  147.4310 F   0  0  0  0  0  0  0  0  0  0  0  0
  186.2130  176.4660  147.9210 F   0  0  0  0  0  0  0  0  0  0  0  0
  186.7130  177.2510  146.8950 C   0  0  0  0  0  0  0  0  0  0  0  0
  187.4700  176.3860  145.8900 C   0  0  0  0  0  2  0  0  0  0  0  0
  188.9190  176.2200  146.2370 C   0  0  0  0  0  0  0  0  0  0  0  0
  191.5520  176.3810  147.1900 C   0  0  0  0  0  2  0  0  0  0  0  0
  189.2800  175.3530  147.1970 C   0  0  0  0  0  3  0  0  0  0  0  0
  190.7180  175.1710  147.6030 C   0  0  0  0  0  2  0  0  0  0  0  0
  191.2950  176.6850  145.7840 N   0  0  0  0  0  2  0  0  0  0  0  0
  189.9250  177.1870  145.6610 C   0  0  0  0  0  2  0  0  0  0  0  0
  188.8490  173.0850  140.7620 O   0  0  0  0  0  1  0  0  0  0  0  0
  189.1570  174.1500  141.5430 N   0  0  0  0  0  0  0  0  0  0  0  0
  192.5210  174.6870  142.9590 C   0  0  0  0  0  0  0  0  0  0  0  0
  193.7180  175.5140  142.7860 C   0  0  0  0  0  3  0  0  0  0  0  0
  190.2640  174.0630  142.4140 N   0  0  0  0  0  0  0  0  0  0  0  0
  191.4580  174.8310  142.1680 C   0  0  0  0  0  3  0  0  0  0  0  0
  190.1160  173.4020  143.6850 C   0  0  0  0  0  3  0  0  0  0  0  0
  192.5440  173.6090  144.0160 C   0  0  2  0  0  3  0  0  0  0  0  0
  194.6280  175.5510  143.7620 C   0  0  0  0  0  3  0  0  0  0  0  0
  191.1700  173.2190  144.4840 C   0  0  0  0  0  3  0  0  0  0  0  0
  195.3070  175.0480  146.1760 C   0  0  0  0  0  1  0  0  0  0  0  0
  193.4190  173.9640  145.1370 N   0  0  0  0  0  0  0  0  0  0  0  0
  194.4160  174.7940  145.0150 C   0  0  0  0  0  0  0  0  0  0  0  0
  1  5  1  0  0  0  0
  1 11  1  1  0  0  0
  2 25  1  0  0  0  0
  2  8  1  0  0  0  0
  3  6  2  0  0  0  0
  4  1  1  0  0  0  0
  6  7  1  0  0  0  0
  6  4  1  0  0  0  0
  7  2  2  0  0  0  0
  8  5  1  0  0  0  0
  9 13  1  0  0  0  0
 10 12  2  0  0  0  0
 10  9  1  0  0  0  0
 11 10  1  0  0  0  0
 13 16  1  0  0  0  0
 16 14  1  0  0  0  0
 16 15  1  0  0  0  0
 17 18  1  0  0  0  0
 17 16  1  0  0  0  0
 18 20  2  0  0  0  0
 19 21  1  0  0  0  0
 20 21  1  0  0  0  0
 22 19  1  0  0  0  0
 23 22  1  0  0  0  0
 23 18  1  0  0  0  0
 24 25  1  0  0  0  0
 25 28  1  0  0  0  0
 26 31  1  0  0  0  0
 27 26  1  0  0  0  0
 27 32  2  0  0  0  0
 28 30  1  0  0  0  0
 29 28  1  0  0  0  0
 29 26  2  0  0  0  0
 30 33  2  0  0  0  0
 31 33  1  1  0  0  0
 31 35  1  0  0  0  0
 32 36  1  0  0  0  0
 36 35  2  0  0  0  0
 36 34  1  0  0  0  0
M  END
>  <MODEL>
2

>  <REMARK>
 VINA RESULT:      -7.8      2.296      4.053
  Name = 
  7 active torsions:
  status: ('A' for Active; 'I' for Inactive)
    1  A    between atoms: C_2  and  C_12
    2  A    between atoms: N_4  and  N_29
    3  A    between atoms: C_5  and  N_16
    4  A    between atoms: C_5  and  C_20
    5  A    between atoms: C_6  and  N_24
    6  A    between atoms: C_7  and  N_29
    7  A    between atoms: C_12  and  C_20
                            x       y       z     vdW  Elec       q    Type
                         _______ _______ _______ _____ _____    ______ ____

>  <TORSDO>
F 7

$$$$
=
 OpenBabel11042413593D

 36 39  0  0  1  0  0  0  0  0999 V2000
  188.4340  175.9650  146.4290 C   0  0  1  0  0  3  0  0  0  0  0  0
  190.3450  174.3560  144.5620 C   0  0  0  0  0  0  0  0  0  0  0  0
  189.9710  177.9100  143.9100 O   0  0  0  0  0  0  0  0  0  0  0  0
  189.3560  177.0860  146.0260 C   0  0  0  0  0  2  0  0  0  0  0  0
  189.3110  174.8300  146.8940 C   0  0  0  0  0  2  0  0  0  0  0  0
  189.8980  176.8940  144.6470 C   0  0  0  0  0  0  0  0  0  0  0  0
  190.4230  175.6210  144.1060 C   0  0  0  0  0  3  0  0  0  0  0  0
  189.6690  173.9810  145.7720 N   0  0  0  0  0  2  0  0  0  0  0  0
  186.1910  177.7620  146.0020 N   0  0  0  0  0  2  0  0  0  0  0  0
  186.4430  177.2280  147.3030 C   0  0  0  0  0  0  0  0  0  0  0  0
  187.5860  176.4000  147.5270 N   0  0  0  0  0  2  0  0  0  0  0  0
  185.6650  177.4850  148.2590 O   0  0  0  0  0  0  0  0  0  0  0  0
  184.9740  178.4870  145.6730 C   0  0  0  0  0  2  0  0  0  0  0  0
  184.3840  180.2950  144.2650 F   0  0  0  0  0  0  0  0  0  0  0  0
  186.4200  179.3780  143.9940 F   0  0  0  0  0  0  0  0  0  0  0  0
  185.0920  179.1080  144.2860 C   0  0  0  0  0  0  0  0  0  0  0  0
  184.5010  178.1710  143.2350 C   0  0  0  0  0  2  0  0  0  0  0  0
  185.5480  177.4320  142.4560 C   0  0  0  0  0  0  0  0  0  0  0  0
  187.8510  176.4630  141.1820 C   0  0  0  0  0  2  0  0  0  0  0  0
  186.1360  176.3490  142.9890 C   0  0  0  0  0  3  0  0  0  0  0  0
  187.2130  175.5910  142.2600 C   0  0  0  0  0  2  0  0  0  0  0  0
  186.7990  177.0660  140.3660 N   0  0  0  0  0  2  0  0  0  0  0  0
  186.0830  178.0470  141.1840 C   0  0  0  0  0  2  0  0  0  0  0  0
  191.5060  172.2490  144.3790 O   0  0  0  0  0  1  0  0  0  0  0  0
  190.9410  173.3170  143.7610 N   0  0  0  0  0  0  0  0  0  0  0  0
  189.6150  173.0730  140.3270 C   0  0  0  0  0  0  0  0  0  0  0  0
  188.3540  172.9290  139.5940 C   0  0  0  0  0  3  0  0  0  0  0  0
  190.8840  173.3410  142.3510 N   0  0  0  0  0  0  0  0  0  0  0  0
  189.6410  173.1160  141.6590 C   0  0  0  0  0  3  0  0  0  0  0  0
  192.0120  173.8380  141.6050 C   0  0  0  0  0  3  0  0  0  0  0  0
  190.9020  173.0990  139.5380 C   0  0  2  0  0  3  0  0  0  0  0  0
  188.3330  173.1860  138.2840 C   0  0  0  0  0  3  0  0  0  0  0  0
  192.0230  173.7800  140.2710 C   0  0  0  0  0  3  0  0  0  0  0  0
  189.4530  174.1600  136.2000 C   0  0  0  0  0  1  0  0  0  0  0  0
  190.7080  173.6590  138.1980 N   0  0  0  0  0  0  0  0  0  0  0  0
  189.5570  173.6410  137.5880 C   0  0  0  0  0  0  0  0  0  0  0  0
  1  5  1  0  0  0  0
  1 11  1  1  0  0  0
  2  8  1  0  0  0  0
  3  6  2  0  0  0  0
  4  1  1  0  0  0  0
  6  4  1  0  0  0  0
  7  2  2  0  0  0  0
  7  6  1  0  0  0  0
  8  5  1  0  0  0  0
  9 10  1  0  0  0  0
 10 11  1  0  0  0  0
 10 12  2  0  0  0  0
 13  9  1  0  0  0  0
 14 16  1  0  0  0  0
 15 16  1  0  0  0  0
 16 13  1  0  0  0  0
 17 16  1  0  0  0  0
 18 20  2  0  0  0  0
 18 17  1  0  0  0  0
 19 21  1  0  0  0  0
 21 20  1  0  0  0  0
 22 19  1  0  0  0  0
 22 23  1  0  0  0  0
 23 18  1  0  0  0  0
 25 24  1  0  0  0  0
 25  2  1  0  0  0  0
 26 29  2  0  0  0  0
 27 26  1  0  0  0  0
 28 25  1  0  0  0  0
 29 28  1  0  0  0  0
 30 28  1  0  0  0  0
 31 33  1  1  0  0  0
 31 26  1  0  0  0  0
 32 27  2  0  0  0  0
 33 30  2  0  0  0  0
 34 36  1  0  0  0  0
 35 31  1  0  0  0  0
 36 35  2  0  0  0  0
 36 32  1  0  0  0  0
M  END
>  <MODEL>
3

>  <REMARK>
 VINA RESULT:      -7.6      2.809      5.344
  Name = 
  7 active torsions:
  status: ('A' for Active; 'I' for Inactive)
    1  A    between atoms: C_2  and  C_12
    2  A    between atoms: N_4  and  N_29
    3  A    between atoms: C_5  and  N_16
    4  A    between atoms: C_5  and  C_20
    5  A    between atoms: C_6  and  N_24
    6  A    between atoms: C_7  and  N_29
    7  A    between atoms: C_12  and  C_20
                            x       y       z     vdW  Elec       q    Type
                         _______ _______ _______ _____ _____    ______ ____

>  <TORSDO>
F 7

$$$$
=
 OpenBabel11042413593D

 36 39  0  0  1  0  0  0  0  0999 V2000
  185.2970  178.1550  145.2080 C   0  0  1  0  0  3  0  0  0  0  0  0
  187.5600  176.5990  146.6850 C   0  0  0  0  0  0  0  0  0  0  0  0
  186.3830  179.6810  148.2050 O   0  0  0  0  0  0  0  0  0  0  0  0
  185.0140  178.6200  146.6120 C   0  0  0  0  0  2  0  0  0  0  0  0
  185.3920  176.6520  145.2610 C   0  0  0  0  0  2  0  0  0  0  0  0
  186.2580  178.6930  147.4370 C   0  0  0  0  0  0  0  0  0  0  0  0
  187.3170  177.6620  147.4760 C   0  0  0  0  0  3  0  0  0  0  0  0
  186.7550  176.2450  145.5490 N   0  0  0  0  0  2  0  0  0  0  0  0
  185.5920  178.1980  142.3170 N   0  0  0  0  0  2  0  0  0  0  0  0
  184.3270  178.4910  142.9120 C   0  0  0  0  0  0  0  0  0  0  0  0
  184.1990  178.5380  144.3350 N   0  0  0  0  0  2  0  0  0  0  0  0
  183.3190  178.7140  142.1900 O   0  0  0  0  0  0  0  0  0  0  0  0
  185.7580  177.9910  140.8870 C   0  0  0  0  0  2  0  0  0  0  0  0
  186.9220  176.6250  139.3440 F   0  0  0  0  0  0  0  0  0  0  0  0
  188.1390  177.9370  140.7070 F   0  0  0  0  0  0  0  0  0  0  0  0
  187.0010  177.1500  140.6200 C   0  0  0  0  0  0  0  0  0  0  0  0
  187.0820  175.9950  141.6160 C   0  0  0  0  0  2  0  0  0  0  0  0
  188.3630  175.2230  141.5120 C   0  0  0  0  0  0  0  0  0  0  0  0
  190.8650  174.1250  140.8820 C   0  0  0  0  0  2  0  0  0  0  0  0
  189.3880  175.5180  142.3290 C   0  0  0  0  0  3  0  0  0  0  0  0
  190.7030  174.7940  142.2450 C   0  0  0  0  0  2  0  0  0  0  0  0
  189.6640  173.3510  140.5800 N   0  0  0  0  0  2  0  0  0  0  0  0
  188.5580  174.2820  140.3480 C   0  0  0  0  0  2  0  0  0  0  0  0
  188.6120  174.7700  147.8540 O   0  0  0  0  0  1  0  0  0  0  0  0
  188.7220  175.7990  146.9760 N   0  0  0  0  0  0  0  0  0  0  0  0
  192.1480  175.2190  145.7380 C   0  0  0  0  0  0  0  0  0  0  0  0
  193.1690  174.1720  145.6400 C   0  0  0  0  0  3  0  0  0  0  0  0
  189.9510  176.0060  146.3150 N   0  0  0  0  0  0  0  0  0  0  0  0
  190.9660  174.9830  146.3070 C   0  0  0  0  0  3  0  0  0  0  0  0
  190.1010  177.1370  145.4360 C   0  0  0  0  0  3  0  0  0  0  0  0
  192.4930  176.6020  145.2410 C   0  0  2  0  0  3  0  0  0  0  0  0
  194.2040  174.3500  144.8160 C   0  0  0  0  0  3  0  0  0  0  0  0
  191.2820  177.4120  144.8760 C   0  0  0  0  0  3  0  0  0  0  0  0
  195.3160  175.6350  142.9030 C   0  0  0  0  0  1  0  0  0  0  0  0
  193.4700  176.5610  144.1500 N   0  0  0  0  0  0  0  0  0  0  0  0
  194.3030  175.5720  143.9880 C   0  0  0  0  0  0  0  0  0  0  0  0
  1 11  1  6  0  0  0
  1  5  1  0  0  0  0
  1  4  1  0  0  0  0
  2 25  1  0  0  0  0
  2  7  2  0  0  0  0
  4  6  1  0  0  0  0
  5  8  1  0  0  0  0
  6  7  1  0  0  0  0
  6  3  2  0  0  0  0
  8  2  1  0  0  0  0
  9 10  1  0  0  0  0
 10 11  1  0  0  0  0
 12 10  2  0  0  0  0
 13  9  1  0  0  0  0
 14 16  1  0  0  0  0
 16 15  1  0  0  0  0
 16 13  1  0  0  0  0
 16 17  1  0  0  0  0
 18 17  1  0  0  0  0
 18 20  2  0  0  0  0
 19 21  1  0  0  0  0
 21 20  1  0  0  0  0
 22 19  1  0  0  0  0
 23 22  1  0  0  0  0
 23 18  1  0  0  0  0
 25 24  1  0  0  0  0
 26 29  2  0  0  0  0
 27 26  1  0  0  0  0
 28 25  1  0  0  0  0
 29 28  1  0  0  0  0
 30 28  1  0  0  0  0
 31 33  1  6  0  0  0
 31 26  1  0  0  0  0
 32 27  2  0  0  0  0
 33 30  2  0  0  0  0
 34 36  1  0  0  0  0
 35 31  1  0  0  0  0
 36 35  2  0  0  0  0
 36 32  1  0  0  0  0
M  END
>  <MODEL>
4

>  <REMARK>
 VINA RESULT:      -7.6      2.351      5.742
  Name = 
  7 active torsions:
  status: ('A' for Active; 'I' for Inactive)
    1  A    between atoms: C_2  and  C_12
    2  A    between atoms: N_4  and  N_29
    3  A    between atoms: C_5  and  N_16
    4  A    between atoms: C_5  and  C_20
    5  A    between atoms: C_6  and  N_24
    6  A    between atoms: C_7  and  N_29
    7  A    between atoms: C_12  and  C_20
                            x       y       z     vdW  Elec       q    Type
                         _______ _______ _______ _____ _____    ______ ____

>  <TORSDO>
F 7

$$$$
=
 OpenBabel11042413593D

 36 39  0  0  1  0  0  0  0  0999 V2000
  189.0800  176.7360  146.2350 C   0  0  1  0  0  3  0  0  0  0  0  0
  190.0620  174.3570  144.4750 C   0  0  0  0  0  0  0  0  0  0  0  0
  190.9360  177.7110  143.3890 O   0  0  0  0  0  0  0  0  0  0  0  0
  190.2970  177.3870  145.6310 C   0  0  0  0  0  2  0  0  0  0  0  0
  189.5300  175.4070  146.7870 C   0  0  0  0  0  2  0  0  0  0  0  0
  190.5790  176.8730  144.2560 C   0  0  0  0  0  0  0  0  0  0  0  0
  190.5440  175.4500  143.8540 C   0  0  0  0  0  3  0  0  0  0  0  0
  189.4310  174.3810  145.7650 N   0  0  0  0  0  2  0  0  0  0  0  0
  186.5150  178.0890  146.0480 N   0  0  0  0  0  2  0  0  0  0  0  0
  187.2800  178.1680  147.2520 C   0  0  0  0  0  0  0  0  0  0  0  0
  188.5730  177.5620  147.3200 N   0  0  0  0  0  2  0  0  0  0  0  0
  186.8260  178.7750  148.2570 O   0  0  0  0  0  0  0  0  0  0  0  0
  185.1400  178.5550  145.9590 C   0  0  0  0  0  2  0  0  0  0  0  0
  184.7540  177.2360  144.0330 F   0  0  0  0  0  0  0  0  0  0  0  0
  183.3540  178.9530  144.4250 F   0  0  0  0  0  0  0  0  0  0  0  0
  184.6720  178.5310  144.5100 C   0  0  0  0  0  0  0  0  0  0  0  0
  185.5670  179.4220  143.6500 C   0  0  0  0  0  2  0  0  0  0  0  0
  186.1630  178.6970  142.4810 C   0  0  0  0  0  0  0  0  0  0  0  0
  187.1720  176.8770  140.6020 C   0  0  0  0  0  2  0  0  0  0  0  0
  185.4170  178.4630  141.3890 C   0  0  0  0  0  3  0  0  0  0  0  0
  185.9600  177.7140  140.2030 C   0  0  0  0  0  2  0  0  0  0  0  0
  188.1130  177.7140  141.3420 N   0  0  0  0  0  2  0  0  0  0  0  0
  187.5170  178.0480  142.6370 C   0  0  0  0  0  2  0  0  0  0  0  0
  190.4030  171.9680  144.4890 O   0  0  0  0  0  1  0  0  0  0  0  0
  190.1500  173.0980  143.7800 N   0  0  0  0  0  0  0  0  0  0  0  0
  190.7180  172.5740  140.1730 C   0  0  0  0  0  0  0  0  0  0  0  0
  191.7340  172.0960  139.2310 C   0  0  0  0  0  3  0  0  0  0  0  0
  189.9020  172.9950  142.3950 N   0  0  0  0  0  0  0  0  0  0  0  0
  190.9480  172.5990  141.4860 C   0  0  0  0  0  3  0  0  0  0  0  0
  188.5460  173.0420  141.9120 C   0  0  0  0  0  3  0  0  0  0  0  0
  189.4220  173.1090  139.6150 C   0  0  2  0  0  3  0  0  0  0  0  0
  191.3730  171.8070  137.9790 C   0  0  0  0  0  3  0  0  0  0  0  0
  188.2900  173.0460  140.6010 C   0  0  0  0  0  3  0  0  0  0  0  0
  189.5410  171.3740  136.2470 C   0  0  0  0  0  1  0  0  0  0  0  0
  189.0710  172.4710  138.3430 N   0  0  0  0  0  0  0  0  0  0  0  0
  189.9620  171.9360  137.5560 C   0  0  0  0  0  0  0  0  0  0  0  0
  1  5  1  0  0  0  0
  1 11  1  1  0  0  0
  2  8  1  0  0  0  0
  3  6  2  0  0  0  0
  4  1  1  0  0  0  0
  6  4  1  0  0  0  0
  7  6  1  0  0  0  0
  7  2  2  0  0  0  0
  8  5  1  0  0  0  0
  9 10  1  0  0  0  0
 10 11  1  0  0  0  0
 10 12  2  0  0  0  0
 13  9  1  0  0  0  0
 14 16  1  0  0  0  0
 15 16  1  0  0  0  0
 16 13  1  0  0  0  0
 17 16  1  0  0  0  0
 18 23  1  0  0  0  0
 18 17  1  0  0  0  0
 19 22  1  0  0  0  0
 20 18  2  0  0  0  0
 21 19  1  0  0  0  0
 21 20  1  0  0  0  0
 22 23  1  0  0  0  0
 25  2  1  0  0  0  0
 25 24  1  0  0  0  0
 26 29  2  0  0  0  0
 27 26  1  0  0  0  0
 28 25  1  0  0  0  0
 29 28  1  0  0  0  0
 30 28  1  0  0  0  0
 31 26  1  0  0  0  0
 31 33  1  1  0  0  0
 32 27  2  0  0  0  0
 33 30  2  0  0  0  0
 34 36  1  0  0  0  0
 35 31  1  0  0  0  0
 36 32  1  0  0  0  0
 36 35  2  0  0  0  0
M  END
>  <MODEL>
5

>  <REMARK>
 VINA RESULT:      -7.5      2.894      5.243
  Name = 
  7 active torsions:
  status: ('A' for Active; 'I' for Inactive)
    1  A    between atoms: C_2  and  C_12
    2  A    between atoms: N_4  and  N_29
    3  A    between atoms: C_5  and  N_16
    4  A    between atoms: C_5  and  C_20
    5  A    between atoms: C_6  and  N_24
    6  A    between atoms: C_7  and  N_29
    7  A    between atoms: C_12  and  C_20
                            x       y       z     vdW  Elec       q    Type
                         _______ _______ _______ _____ _____    ______ ____

>  <TORSDO>
F 7

$$$$
=
 OpenBabel11042413593D

 36 39  0  0  1  0  0  0  0  0999 V2000
  185.2500  178.2610  144.4270 C   0  0  1  0  0  3  0  0  0  0  0  0
  186.2720  177.5130  141.5770 C   0  0  0  0  0  0  0  0  0  0  0  0
  182.7370  178.2630  141.9410 O   0  0  0  0  0  0  0  0  0  0  0  0
  184.2190  179.0000  143.6140 C   0  0  0  0  0  2  0  0  0  0  0  0
  186.5980  178.6600  143.8820 C   0  0  0  0  0  2  0  0  0  0  0  0
  183.9360  178.3140  142.3170 C   0  0  0  0  0  0  0  0  0  0  0  0
  184.9600  177.7570  141.4050 C   0  0  0  0  0  3  0  0  0  0  0  0
  186.9830  177.7740  142.7990 N   0  0  0  0  0  2  0  0  0  0  0  0
  186.5520  176.7530  146.5430 N   0  0  0  0  0  2  0  0  0  0  0  0
  185.8530  177.9610  146.8500 C   0  0  0  0  0  0  0  0  0  0  0  0
  185.1550  178.6650  145.8210 N   0  0  0  0  0  2  0  0  0  0  0  0
  185.8440  178.4100  148.0260 O   0  0  0  0  0  0  0  0  0  0  0  0
  187.4000  176.0700  147.5060 C   0  0  0  0  0  2  0  0  0  0  0  0
  189.3700  174.7640  147.6220 F   0  0  0  0  0  0  0  0  0  0  0  0
  188.5900  175.3040  145.5830 F   0  0  0  0  0  0  0  0  0  0  0  0
  188.7550  175.7560  146.8820 C   0  0  0  0  0  0  0  0  0  0  0  0
  189.6450  176.9970  146.9010 C   0  0  0  0  0  2  0  0  0  0  0  0
  190.5260  177.1020  145.6920 C   0  0  0  0  0  0  0  0  0  0  0  0
  191.9530  176.7920  143.2980 C   0  0  0  0  0  2  0  0  0  0  0  0
  190.1330  177.8410  144.6420 C   0  0  0  0  0  3  0  0  0  0  0  0
  190.9670  177.9540  143.3950 C   0  0  0  0  0  2  0  0  0  0  0  0
  192.6710  176.6640  144.5640 N   0  0  0  0  0  2  0  0  0  0  0  0
  191.7310  176.1980  145.5850 C   0  0  0  0  0  2  0  0  0  0  0  0
  187.0010  177.5410  139.2780 O   0  0  0  0  0  1  0  0  0  0  0  0
  186.9930  176.9160  140.4820 N   0  0  0  0  0  0  0  0  0  0  0  0
  188.5520  173.6510  139.7630 C   0  0  0  0  0  0  0  0  0  0  0  0
  188.7770  172.7060  138.6650 C   0  0  0  0  0  3  0  0  0  0  0  0
  187.7530  175.7390  140.6470 N   0  0  0  0  0  0  0  0  0  0  0  0
  187.8880  174.7910  139.5700 C   0  0  0  0  0  3  0  0  0  0  0  0
  188.6020  175.6000  141.8020 C   0  0  0  0  0  3  0  0  0  0  0  0
  189.0280  173.2690  141.1440 C   0  0  2  0  0  3  0  0  0  0  0  0
  189.6840  171.7380  138.8190 C   0  0  0  0  0  3  0  0  0  0  0  0
  189.2550  174.4580  142.0330 C   0  0  0  0  0  3  0  0  0  0  0  0
  191.6420  170.7230  140.1150 C   0  0  0  0  0  1  0  0  0  0  0  0
  190.2040  172.3950  141.0920 N   0  0  0  0  0  0  0  0  0  0  0  0
  190.4740  171.6400  140.0660 C   0  0  0  0  0  0  0  0  0  0  0  0
  1 11  1  1  0  0  0
  2  8  1  0  0  0  0
  3  6  2  0  0  0  0
  4  1  1  0  0  0  0
  5  1  1  0  0  0  0
  6  4  1  0  0  0  0
  7  2  2  0  0  0  0
  7  6  1  0  0  0  0
  8  5  1  0  0  0  0
  9 10  1  0  0  0  0
  9 13  1  0  0  0  0
 10 12  2  0  0  0  0
 11 10  1  0  0  0  0
 15 16  1  0  0  0  0
 16 17  1  0  0  0  0
 16 13  1  0  0  0  0
 16 14  1  0  0  0  0
 18 17  1  0  0  0  0
 19 21  1  0  0  0  0
 19 22  1  0  0  0  0
 20 18  2  0  0  0  0
 21 20  1  0  0  0  0
 22 23  1  0  0  0  0
 23 18  1  0  0  0  0
 24 25  1  0  0  0  0
 25 28  1  0  0  0  0
 25  2  1  0  0  0  0
 26 31  1  0  0  0  0
 27 32  2  0  0  0  0
 27 26  1  0  0  0  0
 28 30  1  0  0  0  0
 29 26  2  0  0  0  0
 29 28  1  0  0  0  0
 30 33  2  0  0  0  0
 31 33  1  1  0  0  0
 32 36  1  0  0  0  0
 35 31  1  0  0  0  0
 36 34  1  0  0  0  0
 36 35  2  0  0  0  0
M  END
>  <MODEL>
6

>  <REMARK>
 VINA RESULT:      -7.5      0.902      1.559
  Name = 
  7 active torsions:
  status: ('A' for Active; 'I' for Inactive)
    1  A    between atoms: C_2  and  C_12
    2  A    between atoms: N_4  and  N_29
    3  A    between atoms: C_5  and  N_16
    4  A    between atoms: C_5  and  C_20
    5  A    between atoms: C_6  and  N_24
    6  A    between atoms: C_7  and  N_29
    7  A    between atoms: C_12  and  C_20
                            x       y       z     vdW  Elec       q    Type
                         _______ _______ _______ _____ _____    ______ ____

>  <TORSDO>
F 7

$$$$
=
 OpenBabel11042413593D

 36 39  0  0  1  0  0  0  0  0999 V2000
  191.4880  176.4320  146.8790 C   0  0  1  0  0  3  0  0  0  0  0  0
  188.4620  177.1120  147.2080 C   0  0  0  0  0  0  0  0  0  0  0  0
  189.3170  173.7150  146.2500 O   0  0  0  0  0  0  0  0  0  0  0  0
  190.9820  175.0570  147.2310 C   0  0  0  0  0  2  0  0  0  0  0  0
  190.9420  177.3730  147.9230 C   0  0  0  0  0  2  0  0  0  0  0  0
  189.5840  174.8370  146.7490 C   0  0  0  0  0  0  0  0  0  0  0  0
  188.4750  175.8070  146.8800 C   0  0  0  0  0  3  0  0  0  0  0  0
  189.6410  177.8720  147.5180 N   0  0  0  0  0  2  0  0  0  0  0  0
  193.0920  174.9310  144.9770 N   0  0  0  0  0  2  0  0  0  0  0  0
  193.7270  175.7620  145.9500 C   0  0  0  0  0  0  0  0  0  0  0  0
  192.9410  176.4460  146.9290 N   0  0  0  0  0  2  0  0  0  0  0  0
  194.9790  175.8950  145.9560 O   0  0  0  0  0  0  0  0  0  0  0  0
  193.8140  174.3270  143.8690 C   0  0  0  0  0  2  0  0  0  0  0  0
  193.5310  172.9900  141.9380 F   0  0  0  0  0  0  0  0  0  0  0  0
  191.9030  172.9470  143.4890 F   0  0  0  0  0  0  0  0  0  0  0  0
  192.8330  173.7550  142.8540 C   0  0  0  0  0  0  0  0  0  0  0  0
  192.1270  174.8830  142.1050 C   0  0  0  0  0  2  0  0  0  0  0  0
  190.6440  174.6850  142.0120 C   0  0  0  0  0  0  0  0  0  0  0  0
  187.9880  173.7860  142.0090 C   0  0  0  0  0  2  0  0  0  0  0  0
  189.8500  175.1090  143.0090 C   0  0  0  0  0  3  0  0  0  0  0  0
  188.3600  174.9060  142.9770 C   0  0  0  0  0  2  0  0  0  0  0  0
  188.6510  174.0160  140.7280 N   0  0  0  0  0  2  0  0  0  0  0  0
  190.0900  173.8160  140.9090 C   0  0  0  0  0  2  0  0  0  0  0  0
  186.7010  178.2800  148.3730 O   0  0  0  0  0  1  0  0  0  0  0  0
  187.1920  177.7920  147.2050 N   0  0  0  0  0  0  0  0  0  0  0  0
  186.4800  178.2890  143.6200 C   0  0  0  0  0  0  0  0  0  0  0  0
  187.1080  178.1750  142.3010 C   0  0  0  0  0  3  0  0  0  0  0  0
  186.4810  178.0330  146.0110 N   0  0  0  0  0  0  0  0  0  0  0  0
  187.1480  177.9920  144.7350 C   0  0  0  0  0  3  0  0  0  0  0  0
  185.0410  178.0720  146.0380 C   0  0  0  0  0  3  0  0  0  0  0  0
  185.0700  178.8230  143.6970 C   0  0  2  0  0  3  0  0  0  0  0  0
  186.3370  178.1910  141.2120 C   0  0  0  0  0  3  0  0  0  0  0  0
  184.3480  178.3950  144.9430 C   0  0  0  0  0  3  0  0  0  0  0  0
  184.0190  178.0510  140.1370 C   0  0  0  0  0  1  0  0  0  0  0  0
  184.3020  178.5100  142.4880 N   0  0  0  0  0  0  0  0  0  0  0  0
  184.8660  178.2890  141.3350 C   0  0  0  0  0  0  0  0  0  0  0  0
  1 11  1  1  0  0  0
  1  4  1  0  0  0  0
  1  5  1  0  0  0  0
  2  8  1  0  0  0  0
  3  6  2  0  0  0  0
  6  7  1  0  0  0  0
  6  4  1  0  0  0  0
  7  2  2  0  0  0  0
  8  5  1  0  0  0  0
  9 10  1  0  0  0  0
 10 12  2  0  0  0  0
 10 11  1  0  0  0  0
 13  9  1  0  0  0  0
 14 16  1  0  0  0  0
 16 15  1  0  0  0  0
 16 13  1  0  0  0  0
 17 16  1  0  0  0  0
 18 17  1  0  0  0  0
 18 20  2  0  0  0  0
 19 21  1  0  0  0  0
 21 20  1  0  0  0  0
 22 23  1  0  0  0  0
 22 19  1  0  0  0  0
 23 18  1  0  0  0  0
 25  2  1  0  0  0  0
 25 24  1  0  0  0  0
 26 31  1  0  0  0  0
 26 29  2  0  0  0  0
 27 26  1  0  0  0  0
 28 30  1  0  0  0  0
 28 25  1  0  0  0  0
 29 28  1  0  0  0  0
 31 33  1  1  0  0  0
 32 36  1  0  0  0  0
 32 27  2  0  0  0  0
 33 30  2  0  0  0  0
 34 36  1  0  0  0  0
 35 31  1  0  0  0  0
 36 35  2  0  0  0  0
M  END
>  <MODEL>
7

>  <REMARK>
 VINA RESULT:      -7.4      3.002      7.133
  Name = 
  7 active torsions:
  status: ('A' for Active; 'I' for Inactive)
    1  A    between atoms: C_2  and  C_12
    2  A    between atoms: N_4  and  N_29
    3  A    between atoms: C_5  and  N_16
    4  A    between atoms: C_5  and  C_20
    5  A    between atoms: C_6  and  N_24
    6  A    between atoms: C_7  and  N_29
    7  A    between atoms: C_12  and  C_20
                            x       y       z     vdW  Elec       q    Type
                         _______ _______ _______ _____ _____    ______ ____

>  <TORSDO>
F 7

$$$$
=
 OpenBabel11042413593D

 36 39  0  0  1  0  0  0  0  0999 V2000
  186.5510  177.6620  143.4430 C   0  0  1  0  0  3  0  0  0  0  0  0
  187.9270  175.8240  141.3330 C   0  0  0  0  0  0  0  0  0  0  0  0
  185.3980  178.1400  140.1360 O   0  0  0  0  0  0  0  0  0  0  0  0
  186.3880  178.5430  142.2320 C   0  0  0  0  0  2  0  0  0  0  0  0
  188.0030  177.2590  143.4920 C   0  0  0  0  0  2  0  0  0  0  0  0
  186.2460  177.7450  140.9770 C   0  0  0  0  0  0  0  0  0  0  0  0
  187.0730  176.5740  140.6120 C   0  0  0  0  0  3  0  0  0  0  0  0
  188.2140  176.0470  142.7220 N   0  0  0  0  0  2  0  0  0  0  0  0
  187.1370  176.6320  146.0960 N   0  0  0  0  0  2  0  0  0  0  0  0
  186.5700  177.9340  145.9430 C   0  0  0  0  0  0  0  0  0  0  0  0
  186.2170  178.4130  144.6430 N   0  0  0  0  0  2  0  0  0  0  0  0
  186.3730  178.6660  146.9480 O   0  0  0  0  0  0  0  0  0  0  0  0
  187.6510  176.1440  147.3660 C   0  0  0  0  0  2  0  0  0  0  0  0
  188.8650  174.2060  147.9750 F   0  0  0  0  0  0  0  0  0  0  0  0
  188.9490  174.8630  145.8250 F   0  0  0  0  0  0  0  0  0  0  0  0
  188.9020  175.3060  147.1370 C   0  0  0  0  0  0  0  0  0  0  0  0
  190.1520  176.1210  147.4640 C   0  0  0  0  0  2  0  0  0  0  0  0
  191.2520  175.9300  146.4630 C   0  0  0  0  0  0  0  0  0  0  0  0
  193.4930  176.0750  144.7830 C   0  0  0  0  0  2  0  0  0  0  0  0
  192.2970  175.1410  146.7620 C   0  0  0  0  0  3  0  0  0  0  0  0
  193.4400  174.9410  145.8030 C   0  0  0  0  0  2  0  0  0  0  0  0
  192.1660  176.2590  144.2000 N   0  0  0  0  0  2  0  0  0  0  0  0
  191.2780  176.8010  145.2300 C   0  0  0  0  0  2  0  0  0  0  0  0
  188.3850  174.5430  139.3400 O   0  0  0  0  0  1  0  0  0  0  0  0
  188.5550  174.7050  140.6760 N   0  0  0  0  0  0  0  0  0  0  0  0
  191.6270  173.1630  142.0150 C   0  0  0  0  0  0  0  0  0  0  0  0
  193.0660  173.4070  142.1510 C   0  0  0  0  0  3  0  0  0  0  0  0
  189.4060  173.8190  141.3700 N   0  0  0  0  0  0  0  0  0  0  0  0
  190.8280  174.0450  141.4150 C   0  0  0  0  0  3  0  0  0  0  0  0
  188.8340  172.8260  142.2430 C   0  0  0  0  0  3  0  0  0  0  0  0
  191.0750  171.8480  142.5100 C   0  0  2  0  0  3  0  0  0  0  0  0
  193.7730  172.6600  143.0020 C   0  0  0  0  0  3  0  0  0  0  0  0
  189.6090  171.9130  142.8340 C   0  0  0  0  0  3  0  0  0  0  0  0
  193.8580  170.9860  144.9350 C   0  0  0  0  0  1  0  0  0  0  0  0
  191.8570  171.3150  143.6290 N   0  0  0  0  0  0  0  0  0  0  0  0
  193.1080  171.6240  143.8230 C   0  0  0  0  0  0  0  0  0  0  0  0
  1  5  1  0  0  0  0
  1 11  1  1  0  0  0
  2  8  1  0  0  0  0
  3  6  2  0  0  0  0
  4  1  1  0  0  0  0
  6  4  1  0  0  0  0
  7  6  1  0  0  0  0
  7  2  2  0  0  0  0
  8  5  1  0  0  0  0
  9 13  1  0  0  0  0
 10  9  1  0  0  0  0
 10 12  2  0  0  0  0
 11 10  1  0  0  0  0
 15 16  1  0  0  0  0
 16 13  1  0  0  0  0
 16 17  1  0  0  0  0
 16 14  1  0  0  0  0
 18 20  2  0  0  0  0
 18 17  1  0  0  0  0
 19 21  1  0  0  0  0
 21 20  1  0  0  0  0
 22 19  1  0  0  0  0
 22 23  1  0  0  0  0
 23 18  1  0  0  0  0
 24 25  1  0  0  0  0
 25  2  1  0  0  0  0
 25 28  1  0  0  0  0
 26 27  1  0  0  0  0
 26 31  1  0  0  0  0
 27 32  2  0  0  0  0
 28 29  1  0  0  0  0
 28 30  1  0  0  0  0
 29 26  2  0  0  0  0
 30 33  2  0  0  0  0
 31 33  1  1  0  0  0
 31 35  1  0  0  0  0
 32 36  1  0  0  0  0
 35 36  2  0  0  0  0
 36 34  1  0  0  0  0
M  END
>  <MODEL>
8

>  <REMARK>
 VINA RESULT:      -7.3      2.030      2.880
  Name = 
  7 active torsions:
  status: ('A' for Active; 'I' for Inactive)
    1  A    between atoms: C_2  and  C_12
    2  A    between atoms: N_4  and  N_29
    3  A    between atoms: C_5  and  N_16
    4  A    between atoms: C_5  and  C_20
    5  A    between atoms: C_6  and  N_24
    6  A    between atoms: C_7  and  N_29
    7  A    between atoms: C_12  and  C_20
                            x       y       z     vdW  Elec       q    Type
                         _______ _______ _______ _____ _____    ______ ____

>  <TORSDO>
F 7

$$$$
=
 OpenBabel11042413593D

 36 39  0  0  1  0  0  0  0  0999 V2000
  194.8850  175.4460  144.8150 C   0  0  1  0  0  3  0  0  0  0  0  0
  192.2890  175.9660  146.4640 C   0  0  0  0  0  0  0  0  0  0  0  0
  192.6990  172.6730  144.9870 O   0  0  0  0  0  0  0  0  0  0  0  0
  194.6030  174.0310  145.2490 C   0  0  0  0  0  2  0  0  0  0  0  0
  194.8300  176.2980  146.0570 C   0  0  0  0  0  2  0  0  0  0  0  0
  193.1390  173.7760  145.4020 C   0  0  0  0  0  0  0  0  0  0  0  0
  192.1800  174.6840  146.0680 C   0  0  0  0  0  3  0  0  0  0  0  0
  193.4740  176.7600  146.2890 N   0  0  0  0  0  2  0  0  0  0  0  0
  195.3450  174.9600  141.9870 N   0  0  0  0  0  2  0  0  0  0  0  0
  196.4280  175.3520  142.8320 C   0  0  0  0  0  0  0  0  0  0  0  0
  196.2160  175.5230  144.2350 N   0  0  0  0  0  2  0  0  0  0  0  0
  197.5750  175.5450  142.3500 O   0  0  0  0  0  0  0  0  0  0  0  0
  195.4570  174.9100  140.5380 C   0  0  0  0  0  2  0  0  0  0  0  0
  193.4250  174.9170  139.3250 F   0  0  0  0  0  0  0  0  0  0  0  0
  194.8220  173.1810  139.0190 F   0  0  0  0  0  0  0  0  0  0  0  0
  194.3240  174.0760  139.9530 C   0  0  0  0  0  0  0  0  0  0  0  0
  193.5920  173.3260  141.0640 C   0  0  0  0  0  2  0  0  0  0  0  0
  192.1380  173.6820  141.1490 C   0  0  0  0  0  0  0  0  0  0  0  0
  189.3730  173.8560  141.5870 C   0  0  0  0  0  2  0  0  0  0  0  0
  191.7170  174.5460  142.0890 C   0  0  0  0  0  3  0  0  0  0  0  0
  190.2650  174.9130  142.2340 C   0  0  0  0  0  2  0  0  0  0  0  0
  189.8540  173.5850  140.2340 N   0  0  0  0  0  2  0  0  0  0  0  0
  191.1430  172.8980  140.3280 C   0  0  0  0  0  2  0  0  0  0  0  0
  191.1900  176.9890  148.3520 O   0  0  0  0  0  1  0  0  0  0  0  0
  191.1320  176.5860  147.0580 N   0  0  0  0  0  0  0  0  0  0  0  0
  187.5690  176.8770  146.1490 C   0  0  0  0  0  0  0  0  0  0  0  0
  186.2270  176.7910  146.7320 C   0  0  0  0  0  3  0  0  0  0  0  0
  189.9680  176.8570  146.3090 N   0  0  0  0  0  0  0  0  0  0  0  0
  188.6600  176.6840  146.8890 C   0  0  0  0  0  3  0  0  0  0  0  0
  190.0800  177.5440  145.0480 C   0  0  0  0  0  3  0  0  0  0  0  0
  187.6880  177.1190  144.6630 C   0  0  2  0  0  3  0  0  0  0  0  0
  185.1890  177.2740  146.0450 C   0  0  0  0  0  3  0  0  0  0  0  0
  189.0070  177.7250  144.2730 C   0  0  0  0  0  3  0  0  0  0  0  0
  184.2730  178.6670  144.1050 C   0  0  0  0  0  1  0  0  0  0  0  0
  186.5590  177.8960  144.1450 N   0  0  0  0  0  0  0  0  0  0  0  0
  185.3940  177.9170  144.7290 C   0  0  0  0  0  0  0  0  0  0  0  0
  1 11  1  1  0  0  0
  1  4  1  0  0  0  0
  1  5  1  0  0  0  0
  2 25  1  0  0  0  0
  3  6  2  0  0  0  0
  4  6  1  0  0  0  0
  5  8  1  0  0  0  0
  6  7  1  0  0  0  0
  7  2  2  0  0  0  0
  8  2  1  0  0  0  0
  9 10  1  0  0  0  0
 10 11  1  0  0  0  0
 12 10  2  0  0  0  0
 13  9  1  0  0  0  0
 14 16  1  0  0  0  0
 15 16  1  0  0  0  0
 16 13  1  0  0  0  0
 16 17  1  0  0  0  0
 17 18  1  0  0  0  0
 18 20  2  0  0  0  0
 19 21  1  0  0  0  0
 20 21  1  0  0  0  0
 22 23  1  0  0  0  0
 22 19  1  0  0  0  0
 23 18  1  0  0  0  0
 25 24  1  0  0  0  0
 26 27  1  0  0  0  0
 26 29  2  0  0  0  0
 28 29  1  0  0  0  0
 28 25  1  0  0  0  0
 30 28  1  0  0  0  0
 31 33  1  1  0  0  0
 31 26  1  0  0  0  0
 32 27  2  0  0  0  0
 33 30  2  0  0  0  0
 34 36  1  0  0  0  0
 35 31  1  0  0  0  0
 35 36  2  0  0  0  0
 36 32  1  0  0  0  0
M  END
>  <MODEL>
9

>  <REMARK>
 VINA RESULT:      -7.2      4.303      8.662
  Name = 
  7 active torsions:
  status: ('A' for Active; 'I' for Inactive)
    1  A    between atoms: C_2  and  C_12
    2  A    between atoms: N_4  and  N_29
    3  A    between atoms: C_5  and  N_16
    4  A    between atoms: C_5  and  C_20
    5  A    between atoms: C_6  and  N_24
    6  A    between atoms: C_7  and  N_29
    7  A    between atoms: C_12  and  C_20
                            x       y       z     vdW  Elec       q    Type
                         _______ _______ _______ _____ _____    ______ ____

>  <TORSDO>
F 7

$$$$
