=
 OpenBabel11042416333D

 62 66  0  0  1  0  0  0  0  0999 V2000
  189.0730  173.7020  140.4720 C   0  0  0  0  0  0  0  0  0  0  0  0
  187.8450  175.9980  140.6970 C   0  0  0  0  0  3  0  0  0  0  0  0
  188.4690  174.8560  140.5680 C   0  0  0  0  0  0  0  0  0  0  0  0
  191.2960  172.8230  139.7650 C   0  0  0  0  0  1  0  0  0  0  0  0
  189.9820  173.4400  139.3090 C   0  0  1  0  0  3  0  0  0  0  0  0
  189.3240  172.5910  138.2590 C   0  0  0  0  0  0  0  0  0  0  0  0
  188.2440  172.9160  137.7860 O   0  0  0  0  0  0  0  0  0  0  0  0
  189.9400  171.2960  137.8360 C   0  0  1  0  0  3  0  0  0  0  0  0
  189.3800  170.2320  138.5450 O   0  0  0  0  0  1  0  0  0  0  0  0
  189.7390  171.0950  136.3420 C   0  0  0  0  0  2  0  0  0  0  0  0
  191.0660  171.0280  135.5960 C   0  0  0  0  0  2  0  0  0  0  0  0
  195.7440  174.5690  137.8340 C   0  0  1  0  0  3  0  0  0  0  0  0
  192.3720  174.6000  135.2110 C   0  0  0  0  0  0  0  0  0  0  0  0
  194.3970  175.7420  136.3270 C   0  0  2  0  0  3  0  0  0  0  0  0
  193.6910  173.4470  136.9400 C   0  0  1  0  0  3  0  0  0  0  0  0
  191.5150  173.4080  135.1230 C   0  0  0  0  0  3  0  0  0  0  0  0
  191.9710  175.6920  134.7290 O   0  0  0  0  0  0  0  0  0  0  0  0
  195.0730  173.2030  137.5470 C   0  0  0  0  0  0  0  0  0  0  0  0
  195.7250  175.5060  136.7680 O   0  0  0  0  0  0  0  0  0  0  0  0
  194.9430  172.3820  138.8190 C   0  0  0  0  0  1  0  0  0  0  0  0
  195.9510  172.4290  136.5740 C   0  0  0  0  0  1  0  0  0  0  0  0
  191.8760  172.2780  135.7480 C   0  0  0  0  0  0  0  0  0  0  0  0
  193.7610  174.4510  135.7890 C   0  0  1  0  0  3  0  0  0  0  0  0
  194.4270  176.7180  135.3260 O   0  0  0  0  0  1  0  0  0  0  0  0
  193.0450  172.2420  136.5230 O   0  0  0  0  0  0  0  0  0  0  0  0
  196.8120  175.4690  139.6590 C   0  0  0  0  0  1  0  0  0  0  0  0
  195.5610  175.1440  139.1140 O   0  0  0  0  0  0  0  0  0  0  0  0
  188.9460  172.7110  141.5880 C   0  0  0  0  0  2  0  0  0  0  0  0
  189.2090  173.3720  142.9360 C   0  0  0  0  0  2  0  0  0  0  0  0
  190.0260  172.4480  143.8220 C   0  0  0  0  0  2  0  0  0  0  0  0
  191.5020  172.5500  143.4760 C   0  0  0  0  0  2  0  0  0  0  0  0
  192.6210  175.0850  142.7750 O   0  0  0  0  0  0  0  0  0  0  0  0
  192.1740  173.4600  144.3940 N   0  0  0  0  0  2  0  0  0  0  0  0
  192.7030  174.7250  143.9790 C   0  0  0  0  0  0  0  0  0  0  0  0
  193.5740  176.8060  144.6790 O   0  0  0  0  0  0  0  0  0  0  0  0
  193.6870  175.1180  146.2180 O   0  0  0  0  0  1  0  0  0  0  0  0
  193.3440  175.6040  144.9630 C   0  0  0  0  0  0  0  0  0  0  0  0
  187.6730  176.7040  142.0170 C   0  0  2  0  0  3  0  0  0  0  0  0
  186.6910  178.8050  142.6560 O   0  0  0  0  0  1  0  0  0  0  0  0
  186.4430  177.6140  141.9660 C   0  0  1  0  0  3  0  0  0  0  0  0
  185.9990  177.9080  140.5550 C   0  0  0  0  0  3  0  0  0  0  0  0
  184.7310  178.1920  140.2310 C   0  0  0  0  0  3  0  0  0  0  0  0
  183.6260  178.2540  141.2410 C   0  0  0  0  0  2  0  0  0  0  0  0
  182.2990  177.9380  140.5740 C   0  0  0  0  0  2  0  0  0  0  0  0
  179.8400  178.2380  140.6920 C   0  0  0  0  0  0  0  0  0  0  0  0
  180.5510  179.5900  140.8720 C   0  0  0  0  0  2  0  0  0  0  0  0
  179.1500  177.5900  141.7190 O   0  0  0  0  0  0  0  0  0  0  0  0
  181.1650  178.4060  141.4610 C   0  0  2  0  0  3  0  0  0  0  0  0
  178.5980  178.6500  141.1750 O   0  0  0  0  0  0  0  0  0  0  0  0
  188.9360  177.4370  142.4870 C   0  0  0  0  0  2  0  0  0  0  0  0
  189.5860  176.7230  143.6560 C   0  0  0  0  0  2  0  0  0  0  0  0
  190.0370  177.7430  144.6890 C   0  0  0  0  0  2  0  0  0  0  0  0
  190.1870  177.1170  146.0710 C   0  0  0  0  0  2  0  0  0  0  0  0
  189.7580  175.6580  146.0700 C   0  0  0  0  0  2  0  0  0  0  0  0
  188.4860  175.4910  146.8820 C   0  0  0  0  0  2  0  0  0  0  0  0
  188.0150  176.7610  147.3230 O   0  0  0  0  0  0  0  0  0  0  0  0
  184.2640  178.2740  146.1850 C   0  0  0  0  0  3  0  0  0  0  0  0
  184.7900  178.6060  147.4380 C   0  0  0  0  0  3  0  0  0  0  0  0
  184.9900  177.4530  145.3170 C   0  0  0  0  0  3  0  0  0  0  0  0
  186.7680  177.2790  146.9590 C   0  0  0  0  0  0  0  0  0  0  0  0
  186.0370  178.1110  147.8250 C   0  0  0  0  0  3  0  0  0  0  0  0
  186.2400  176.9590  145.7040 C   0  0  0  0  0  3  0  0  0  0  0  0
  1  3  2  0  0  0  0
  1 28  1  0  0  0  0
  3  2  2  0  0  0  0
  5  4  1  1  0  0  0
  5  1  1  0  0  0  0
  6  5  1  0  0  0  0
  7  6  2  0  0  0  0
  8  6  1  0  0  0  0
  8  9  1  1  0  0  0
 10  8  1  0  0  0  0
 11 22  1  0  0  0  0
 11 10  1  0  0  0  0
 12 27  1  1  0  0  0
 14 24  1  6  0  0  0
 14 19  1  0  0  0  0
 15 25  1  6  0  0  0
 15 18  1  0  0  0  0
 16 13  1  0  0  0  0
 16 22  2  0  0  0  0
 17 13  2  0  0  0  0
 18 12  1  0  0  0  0
 18 20  1  0  0  0  0
 19 12  1  0  0  0  0
 21 18  1  0  0  0  0
 22 25  1  0  0  0  0
 23 13  1  1  0  0  0
 23 14  1  0  0  0  0
 23 15  1  0  0  0  0
 27 26  1  0  0  0  0
 28 29  1  0  0  0  0
 29 30  1  0  0  0  0
 31 30  1  0  0  0  0
 31 33  1  0  0  0  0
 32 34  2  0  0  0  0
 34 33  1  0  0  0  0
 34 37  1  0  0  0  0
 35 37  2  0  0  0  0
 37 36  1  0  0  0  0
 38  2  1  6  0  0  0
 38 50  1  0  0  0  0
 40 38  1  0  0  0  0
 40 39  1  6  0  0  0
 41 40  1  0  0  0  0
 42 41  2  0  0  0  0
 42 43  1  0  0  0  0
 44 43  1  0  0  0  0
 45 46  1  0  0  0  0
 45 49  1  0  0  0  0
 45 48  1  0  0  0  0
 45 47  1  0  0  0  0
 46 48  1  0  0  0  0
 48 44  1  6  0  0  0
 49 47  1  0  0  0  0
 50 51  1  0  0  0  0
 51 52  1  0  0  0  0
 52 53  1  0  0  0  0
 54 53  1  0  0  0  0
 54 55  1  0  0  0  0
 55 56  1  0  0  0  0
 57 58  1  0  0  0  0
 58 61  2  0  0  0  0
 59 62  1  0  0  0  0
 59 57  2  0  0  0  0
 60 56  1  0  0  0  0
 60 61  1  0  0  0  0
 62 60  2  0  0  0  0
M  END
>  <MODEL>
1

>  <REMARK>
 VINA RESULT:      -6.5      0.000      0.000
  Name = 
  27 active torsions:
  status: ('A' for Active; 'I' for Inactive)
    1  A    between atoms: C_2  and  O_51
    2  A    between atoms: C_3  and  C_13
    3  A    between atoms: C_3  and  C_16
    4  A    between atoms: C_5  and  C_62
    5  A    between atoms: C_6  and  C_21
    6  A    between atoms: C_6  and  C_53
    7  A    between atoms: O_7  and  C_27
    8  A    between atoms: O_7  and  C_35
    9  A    between atoms: C_9  and  C_12
   10  A    between atoms: C_9  and  C_36
   11  A    between atoms: C_12  and  C_45
   12  A    between atoms: C_12  and  C_62
   13  A    between atoms: C_13  and  C_40
   14  A    between atoms: C_15  and  C_21
   15  A    between atoms: C_15  and  C_30
   16  A    between atoms: C_16  and  C_28
   17  A    between atoms: C_24  and  C_50
   18  A    between atoms: C_24  and  C_54
   19  A    between atoms: C_27  and  C_50
   20  A    between atoms: C_28  and  C_53
   21  A    between atoms: C_30  and  C_47
   22  A    between atoms: N_31  and  C_40
   23  A    between atoms: C_34  and  C_57
   24  A    between atoms: C_36  and  C_54
   25  A    between atoms: C_41  and  C_44
   26  A    between atoms: C_49  and  C_55
   27  A    between atoms: C_49  and  C_57
                            x       y       z     vdW  Elec       q    Type
                         _______ _______ _______ _____ _____    ______ ____

>  <TORSDO>
F 27

$$$$
=
 OpenBabel11042416333D

 62 66  0  0  1  0  0  0  0  0999 V2000
  189.1770  175.2740  144.8700 C   0  0  0  0  0  0  0  0  0  0  0  0
  188.9110  177.0090  142.9340 C   0  0  0  0  0  3  0  0  0  0  0  0
  189.0410  176.1550  143.9170 C   0  0  0  0  0  0  0  0  0  0  0  0
  189.0140  174.5100  147.2380 C   0  0  0  0  0  1  0  0  0  0  0  0
  189.0400  175.7070  146.2990 C   0  0  1  0  0  3  0  0  0  0  0  0
  190.1120  176.6820  146.6990 C   0  0  0  0  0  0  0  0  0  0  0  0
  189.8630  177.8750  146.7910 O   0  0  0  0  0  0  0  0  0  0  0  0
  191.5180  176.2170  146.9100 C   0  0  1  0  0  3  0  0  0  0  0  0
  191.5330  174.9470  147.4860 O   0  0  0  0  0  1  0  0  0  0  0  0
  192.2580  176.2010  145.5820 C   0  0  0  0  0  2  0  0  0  0  0  0
  193.2700  175.0630  145.5110 C   0  0  0  0  0  2  0  0  0  0  0  0
  195.1450  173.4730  139.7320 C   0  0  1  0  0  3  0  0  0  0  0  0
  195.9690  176.0910  143.0060 C   0  0  0  0  0  0  0  0  0  0  0  0
  196.4500  175.1860  140.6390 C   0  0  2  0  0  3  0  0  0  0  0  0
  194.7310  174.1650  142.1040 C   0  0  1  0  0  3  0  0  0  0  0  0
  195.1870  175.9640  144.2450 C   0  0  0  0  0  3  0  0  0  0  0  0
  197.0290  176.7710  143.0040 O   0  0  0  0  0  0  0  0  0  0  0  0
  194.1000  173.5090  140.8760 C   0  0  0  0  0  0  0  0  0  0  0  0
  195.8170  174.6950  139.4680 O   0  0  0  0  0  0  0  0  0  0  0  0
  193.6250  172.1070  141.2220 C   0  0  0  0  0  1  0  0  0  0  0  0
  192.8960  174.3110  140.4040 C   0  0  0  0  0  1  0  0  0  0  0  0
  194.1340  175.1370  144.2890 C   0  0  0  0  0  0  0  0  0  0  0  0
  195.4170  175.4810  141.7370 C   0  0  1  0  0  3  0  0  0  0  0  0
  197.1510  176.3500  140.3130 O   0  0  0  0  0  1  0  0  0  0  0  0
  193.8010  174.3570  143.1720 O   0  0  0  0  0  0  0  0  0  0  0  0
  196.6550  172.3720  138.3940 C   0  0  0  0  0  1  0  0  0  0  0  0
  195.9620  172.3240  139.6130 O   0  0  0  0  0  0  0  0  0  0  0  0
  189.3430  173.8280  144.5170 C   0  0  0  0  0  2  0  0  0  0  0  0
  190.4940  173.6350  143.5370 C   0  0  0  0  0  2  0  0  0  0  0  0
  190.8700  172.1660  143.4530 C   0  0  0  0  0  2  0  0  0  0  0  0
  191.8700  171.8120  144.5420 C   0  0  0  0  0  2  0  0  0  0  0  0
  194.6120  171.3450  145.1950 O   0  0  0  0  0  0  0  0  0  0  0  0
  192.6410  170.6380  144.1570 N   0  0  0  0  0  2  0  0  0  0  0  0
  194.0130  170.4590  144.5290 C   0  0  0  0  0  0  0  0  0  0  0  0
  194.5310  168.1660  144.7540 O   0  0  0  0  0  1  0  0  0  0  0  0
  195.5980  169.2590  143.0510 O   0  0  0  0  0  0  0  0  0  0  0  0
  194.7220  169.2390  144.1300 C   0  0  0  0  0  0  0  0  0  0  0  0
  188.1940  176.6900  141.6480 C   0  0  2  0  0  3  0  0  0  0  0  0
  186.8360  177.9520  140.1150 O   0  0  0  0  0  1  0  0  0  0  0  0
  187.0030  177.6350  141.4670 C   0  0  1  0  0  3  0  0  0  0  0  0
  185.7260  177.0720  142.0360 C   0  0  0  0  0  3  0  0  0  0  0  0
  185.0250  177.6790  143.0020 C   0  0  0  0  0  3  0  0  0  0  0  0
  185.4360  178.9840  143.6110 C   0  0  0  0  0  2  0  0  0  0  0  0
  186.4240  178.7390  144.7370 C   0  0  0  0  0  2  0  0  0  0  0  0
  186.3490  177.9500  147.0880 C   0  0  0  0  0  0  0  0  0  0  0  0
  184.9950  177.7070  146.4000 C   0  0  0  0  0  2  0  0  0  0  0  0
  186.5390  178.8930  148.1010 O   0  0  0  0  0  0  0  0  0  0  0  0
  185.7270  178.9240  146.0680 C   0  0  2  0  0  3  0  0  0  0  0  0
  185.8910  177.7890  148.3950 O   0  0  0  0  0  0  0  0  0  0  0  0
  187.8040  175.2120  141.5170 C   0  0  0  0  0  2  0  0  0  0  0  0
  188.6950  174.4930  140.5230 C   0  0  0  0  0  2  0  0  0  0  0  0
  188.3190  173.0210  140.4730 C   0  0  0  0  0  2  0  0  0  0  0  0
  188.6650  172.3960  139.1260 C   0  0  0  0  0  2  0  0  0  0  0  0
  189.8610  173.0810  138.4850 C   0  0  0  0  0  2  0  0  0  0  0  0
  189.4540  173.7050  137.1620 C   0  0  0  0  0  2  0  0  0  0  0  0
  190.5540  173.6940  136.2560 O   0  0  0  0  0  0  0  0  0  0  0  0
  193.1420  176.9710  135.7930 C   0  0  0  0  0  3  0  0  0  0  0  0
  193.4870  175.9390  136.6710 C   0  0  0  0  0  3  0  0  0  0  0  0
  191.9490  176.9020  135.0680 C   0  0  0  0  0  3  0  0  0  0  0  0
  191.4310  174.7740  136.1100 C   0  0  0  0  0  0  0  0  0  0  0  0
  192.6350  174.8440  136.8300 C   0  0  0  0  0  3  0  0  0  0  0  0
  191.0970  175.8050  135.2260 C   0  0  0  0  0  3  0  0  0  0  0  0
  1  5  1  0  0  0  0
  2  3  2  0  0  0  0
  3  1  2  0  0  0  0
  5  6  1  0  0  0  0
  5  4  1  1  0  0  0
  6  7  2  0  0  0  0
  6  8  1  0  0  0  0
  8  9  1  6  0  0  0
 10  8  1  0  0  0  0
 11 10  1  0  0  0  0
 12 27  1  1  0  0  0
 12 18  1  0  0  0  0
 13 16  1  0  0  0  0
 14 24  1  6  0  0  0
 14 23  1  0  0  0  0
 15 25  1  1  0  0  0
 16 22  2  0  0  0  0
 17 13  2  0  0  0  0
 18 20  1  0  0  0  0
 18 15  1  0  0  0  0
 19 12  1  0  0  0  0
 19 14  1  0  0  0  0
 21 18  1  0  0  0  0
 22 11  1  0  0  0  0
 23 15  1  0  0  0  0
 23 13  1  1  0  0  0
 25 22  1  0  0  0  0
 26 27  1  0  0  0  0
 28  1  1  0  0  0  0
 29 28  1  0  0  0  0
 30 29  1  0  0  0  0
 30 31  1  0  0  0  0
 33 34  1  0  0  0  0
 33 31  1  0  0  0  0
 34 32  2  0  0  0  0
 36 37  2  0  0  0  0
 37 34  1  0  0  0  0
 37 35  1  0  0  0  0
 38 50  1  1  0  0  0
 38  2  1  0  0  0  0
 40 39  1  6  0  0  0
 40 38  1  0  0  0  0
 40 41  1  0  0  0  0
 41 42  2  0  0  0  0
 42 43  1  0  0  0  0
 43 44  1  0  0  0  0
 45 47  1  0  0  0  0
 45 49  1  0  0  0  0
 46 45  1  0  0  0  0
 47 49  1  0  0  0  0
 48 44  1  6  0  0  0
 48 46  1  0  0  0  0
 48 45  1  0  0  0  0
 51 50  1  0  0  0  0
 52 51  1  0  0  0  0
 53 52  1  0  0  0  0
 54 53  1  0  0  0  0
 55 54  1  0  0  0  0
 56 55  1  0  0  0  0
 57 58  1  0  0  0  0
 58 61  2  0  0  0  0
 59 62  1  0  0  0  0
 59 57  2  0  0  0  0
 60 56  1  0  0  0  0
 60 61  1  0  0  0  0
 62 60  2  0  0  0  0
M  END
>  <MODEL>
2

>  <REMARK>
 VINA RESULT:      -6.3      2.655      7.556
  Name = 
  27 active torsions:
  status: ('A' for Active; 'I' for Inactive)
    1  A    between atoms: C_2  and  O_51
    2  A    between atoms: C_3  and  C_13
    3  A    between atoms: C_3  and  C_16
    4  A    between atoms: C_5  and  C_62
    5  A    between atoms: C_6  and  C_21
    6  A    between atoms: C_6  and  C_53
    7  A    between atoms: O_7  and  C_27
    8  A    between atoms: O_7  and  C_35
    9  A    between atoms: C_9  and  C_12
   10  A    between atoms: C_9  and  C_36
   11  A    between atoms: C_12  and  C_45
   12  A    between atoms: C_12  and  C_62
   13  A    between atoms: C_13  and  C_40
   14  A    between atoms: C_15  and  C_21
   15  A    between atoms: C_15  and  C_30
   16  A    between atoms: C_16  and  C_28
   17  A    between atoms: C_24  and  C_50
   18  A    between atoms: C_24  and  C_54
   19  A    between atoms: C_27  and  C_50
   20  A    between atoms: C_28  and  C_53
   21  A    between atoms: C_30  and  C_47
   22  A    between atoms: N_31  and  C_40
   23  A    between atoms: C_34  and  C_57
   24  A    between atoms: C_36  and  C_54
   25  A    between atoms: C_41  and  C_44
   26  A    between atoms: C_49  and  C_55
   27  A    between atoms: C_49  and  C_57
                            x       y       z     vdW  Elec       q    Type
                         _______ _______ _______ _____ _____    ______ ____

>  <TORSDO>
F 27

$$$$
=
 OpenBabel11042416333D

 62 66  0  0  1  0  0  0  0  0999 V2000
  190.6310  176.4460  145.5120 C   0  0  0  0  0  0  0  0  0  0  0  0
  188.1910  177.3720  145.6540 C   0  0  0  0  0  3  0  0  0  0  0  0
  189.4070  176.8930  145.5940 C   0  0  0  0  0  0  0  0  0  0  0  0
  190.3950  175.1190  147.6100 C   0  0  0  0  0  1  0  0  0  0  0  0
  191.0000  175.1740  146.2150 C   0  0  1  0  0  3  0  0  0  0  0  0
  190.6240  173.9580  145.4160 C   0  0  0  0  0  0  0  0  0  0  0  0
  189.5710  173.3750  145.6350 O   0  0  0  0  0  0  0  0  0  0  0  0
  191.5670  173.3960  144.4010 C   0  0  1  0  0  3  0  0  0  0  0  0
  192.7060  172.8840  145.0210 O   0  0  0  0  0  1  0  0  0  0  0  0
  190.8690  172.3070  143.6020 C   0  0  0  0  0  2  0  0  0  0  0  0
  191.7510  171.0750  143.4320 C   0  0  0  0  0  2  0  0  0  0  0  0
  194.5800  173.1630  138.2290 C   0  0  1  0  0  3  0  0  0  0  0  0
  192.8980  169.6880  140.0590 C   0  0  0  0  0  0  0  0  0  0  0  0
  194.0720  170.8850  138.0990 C   0  0  2  0  0  3  0  0  0  0  0  0
  193.2750  172.1200  140.0950 C   0  0  1  0  0  3  0  0  0  0  0  0
  192.2510  169.8070  141.3750 C   0  0  0  0  0  3  0  0  0  0  0  0
  192.7240  168.6470  139.3720 O   0  0  0  0  0  0  0  0  0  0  0  0
  194.2010  173.2780  139.7270 C   0  0  0  0  0  0  0  0  0  0  0  0
  195.0320  171.8860  137.8010 O   0  0  0  0  0  0  0  0  0  0  0  0
  193.5150  174.6040  140.0130 C   0  0  0  0  0  1  0  0  0  0  0  0
  195.4780  173.2200  140.5530 C   0  0  0  0  0  1  0  0  0  0  0  0
  192.3230  170.9610  142.0520 C   0  0  0  0  0  0  0  0  0  0  0  0
  193.8410  170.7840  139.6150 C   0  0  1  0  0  3  0  0  0  0  0  0
  194.5310  169.6630  137.6000 O   0  0  0  0  0  1  0  0  0  0  0  0
  192.9720  172.0710  141.4910 O   0  0  0  0  0  0  0  0  0  0  0  0
  194.5280  174.8470  136.6670 C   0  0  0  0  0  1  0  0  0  0  0  0
  193.7740  173.8390  137.2840 O   0  0  0  0  0  0  0  0  0  0  0  0
  191.6090  177.1420  144.6170 C   0  0  0  0  0  2  0  0  0  0  0  0
  193.0370  176.7130  144.9320 C   0  0  0  0  0  2  0  0  0  0  0  0
  193.7490  176.2880  143.6590 C   0  0  0  0  0  2  0  0  0  0  0  0
  195.1890  175.9060  143.9600 C   0  0  0  0  0  2  0  0  0  0  0  0
  197.2330  174.3880  145.2570 O   0  0  0  0  0  0  0  0  0  0  0  0
  195.3610  174.4640  143.8600 N   0  0  0  0  0  2  0  0  0  0  0  0
  196.4020  173.7600  144.5480 C   0  0  0  0  0  0  0  0  0  0  0  0
  195.7320  171.6810  143.6490 O   0  0  0  0  0  0  0  0  0  0  0  0
  197.4570  171.6010  145.1500 O   0  0  0  0  0  1  0  0  0  0  0  0
  196.5010  172.3020  144.4240 C   0  0  0  0  0  0  0  0  0  0  0  0
  187.4860  177.9910  144.4760 C   0  0  2  0  0  3  0  0  0  0  0  0
  185.7890  176.5930  145.4530 O   0  0  0  0  0  1  0  0  0  0  0  0
  186.0350  177.5040  144.4210 C   0  0  1  0  0  3  0  0  0  0  0  0
  185.0420  178.6380  144.4730 C   0  0  0  0  0  3  0  0  0  0  0  0
  184.1110  178.8380  143.5320 C   0  0  0  0  0  3  0  0  0  0  0  0
  183.9560  177.9500  142.3350 C   0  0  0  0  0  2  0  0  0  0  0  0
  183.0820  178.6300  141.2970 C   0  0  0  0  0  2  0  0  0  0  0  0
  180.7430  178.9910  140.5540 C   0  0  0  0  0  0  0  0  0  0  0  0
  180.8330  179.0680  142.0870 C   0  0  0  0  0  2  0  0  0  0  0  0
  180.1050  177.9510  139.8730 O   0  0  0  0  0  0  0  0  0  0  0  0
  181.6700  178.0940  141.3980 C   0  0  2  0  0  3  0  0  0  0  0  0
  179.3580  178.8400  140.4870 O   0  0  0  0  0  0  0  0  0  0  0  0
  188.2290  177.7970  143.1480 C   0  0  0  0  0  2  0  0  0  0  0  0
  187.6930  176.6000  142.3860 C   0  0  0  0  0  2  0  0  0  0  0  0
  188.6780  175.4470  142.4890 C   0  0  0  0  0  2  0  0  0  0  0  0
  188.1280  174.1760  141.8510 C   0  0  0  0  0  2  0  0  0  0  0  0
  188.5090  174.0820  140.3830 C   0  0  0  0  0  2  0  0  0  0  0  0
  189.9690  173.6880  140.2490 C   0  0  0  0  0  2  0  0  0  0  0  0
  190.3170  173.5540  138.8740 O   0  0  0  0  0  0  0  0  0  0  0  0
  190.1640  169.9190  136.7720 C   0  0  0  0  0  3  0  0  0  0  0  0
  189.7590  169.9590  138.1100 C   0  0  0  0  0  3  0  0  0  0  0  0
  190.6060  171.0850  136.1400 C   0  0  0  0  0  3  0  0  0  0  0  0
  190.2540  172.3360  138.1880 C   0  0  0  0  0  0  0  0  0  0  0  0
  189.8030  171.1630  138.8170 C   0  0  0  0  0  3  0  0  0  0  0  0
  190.6490  172.2900  136.8470 C   0  0  0  0  0  3  0  0  0  0  0  0
  1  3  2  0  0  0  0
  1  5  1  0  0  0  0
  3  2  2  0  0  0  0
  5  4  1  1  0  0  0
  6  7  2  0  0  0  0
  6  5  1  0  0  0  0
  8  9  1  1  0  0  0
  8  6  1  0  0  0  0
 10  8  1  0  0  0  0
 11 10  1  0  0  0  0
 12 27  1  6  0  0  0
 12 18  1  0  0  0  0
 13 16  1  0  0  0  0
 14 24  1  1  0  0  0
 14 23  1  0  0  0  0
 15 25  1  1  0  0  0
 16 22  2  0  0  0  0
 17 13  2  0  0  0  0
 18 20  1  0  0  0  0
 18 15  1  0  0  0  0
 18 21  1  0  0  0  0
 19 14  1  0  0  0  0
 19 12  1  0  0  0  0
 22 11  1  0  0  0  0
 23 13  1  6  0  0  0
 23 15  1  0  0  0  0
 25 22  1  0  0  0  0
 26 27  1  0  0  0  0
 28 29  1  0  0  0  0
 28  1  1  0  0  0  0
 30 31  1  0  0  0  0
 30 29  1  0  0  0  0
 33 31  1  0  0  0  0
 33 34  1  0  0  0  0
 34 32  2  0  0  0  0
 35 37  2  0  0  0  0
 37 34  1  0  0  0  0
 37 36  1  0  0  0  0
 38 50  1  6  0  0  0
 38  2  1  0  0  0  0
 40 41  1  0  0  0  0
 40 38  1  0  0  0  0
 40 39  1  1  0  0  0
 42 41  2  0  0  0  0
 43 42  1  0  0  0  0
 44 43  1  0  0  0  0
 45 48  1  0  0  0  0
 45 46  1  0  0  0  0
 47 49  1  0  0  0  0
 47 45  1  0  0  0  0
 48 44  1  6  0  0  0
 48 46  1  0  0  0  0
 49 45  1  0  0  0  0
 51 52  1  0  0  0  0
 51 50  1  0  0  0  0
 53 52  1  0  0  0  0
 54 53  1  0  0  0  0
 55 54  1  0  0  0  0
 56 55  1  0  0  0  0
 57 58  1  0  0  0  0
 58 61  2  0  0  0  0
 59 57  2  0  0  0  0
 59 62  1  0  0  0  0
 60 61  1  0  0  0  0
 60 56  1  0  0  0  0
 62 60  2  0  0  0  0
M  END
>  <MODEL>
3

>  <REMARK>
 VINA RESULT:      -5.9      2.270      6.282
  Name = 
  27 active torsions:
  status: ('A' for Active; 'I' for Inactive)
    1  A    between atoms: C_2  and  O_51
    2  A    between atoms: C_3  and  C_13
    3  A    between atoms: C_3  and  C_16
    4  A    between atoms: C_5  and  C_62
    5  A    between atoms: C_6  and  C_21
    6  A    between atoms: C_6  and  C_53
    7  A    between atoms: O_7  and  C_27
    8  A    between atoms: O_7  and  C_35
    9  A    between atoms: C_9  and  C_12
   10  A    between atoms: C_9  and  C_36
   11  A    between atoms: C_12  and  C_45
   12  A    between atoms: C_12  and  C_62
   13  A    between atoms: C_13  and  C_40
   14  A    between atoms: C_15  and  C_21
   15  A    between atoms: C_15  and  C_30
   16  A    between atoms: C_16  and  C_28
   17  A    between atoms: C_24  and  C_50
   18  A    between atoms: C_24  and  C_54
   19  A    between atoms: C_27  and  C_50
   20  A    between atoms: C_28  and  C_53
   21  A    between atoms: C_30  and  C_47
   22  A    between atoms: N_31  and  C_40
   23  A    between atoms: C_34  and  C_57
   24  A    between atoms: C_36  and  C_54
   25  A    between atoms: C_41  and  C_44
   26  A    between atoms: C_49  and  C_55
   27  A    between atoms: C_49  and  C_57
                            x       y       z     vdW  Elec       q    Type
                         _______ _______ _______ _____ _____    ______ ____

>  <TORSDO>
F 27

$$$$
=
 OpenBabel11042416333D

 62 66  0  0  1  0  0  0  0  0999 V2000
  192.3460  174.7450  143.6280 C   0  0  0  0  0  0  0  0  0  0  0  0
  194.5180  173.3210  143.9230 C   0  0  0  0  0  3  0  0  0  0  0  0
  193.4260  174.0290  143.7940 C   0  0  0  0  0  0  0  0  0  0  0  0
  191.1550  173.5170  145.4410 C   0  0  0  0  0  1  0  0  0  0  0  0
  191.3560  174.8560  144.7470 C   0  0  1  0  0  3  0  0  0  0  0  0
  191.7380  175.9220  145.7360 C   0  0  0  0  0  0  0  0  0  0  0  0
  192.7940  176.5280  145.6170 O   0  0  0  0  0  0  0  0  0  0  0  0
  190.8740  176.1990  146.9240 C   0  0  1  0  0  3  0  0  0  0  0  0
  191.6180  176.7880  147.9450 O   0  0  0  0  0  1  0  0  0  0  0  0
  189.7230  177.1080  146.5200 C   0  0  0  0  0  2  0  0  0  0  0  0
  188.4110  176.3420  146.4000 C   0  0  0  0  0  2  0  0  0  0  0  0
  184.0690  178.8620  142.6270 C   0  0  1  0  0  3  0  0  0  0  0  0
  187.4840  176.2950  142.6920 C   0  0  0  0  0  0  0  0  0  0  0  0
  185.5670  177.5000  141.4580 C   0  0  2  0  0  3  0  0  0  0  0  0
  185.7860  177.5800  143.9250 C   0  0  1  0  0  3  0  0  0  0  0  0
  188.1180  175.9690  143.9780 C   0  0  0  0  0  3  0  0  0  0  0  0
  187.7750  175.6230  141.6670 O   0  0  0  0  0  0  0  0  0  0  0  0
  184.8760  178.8080  143.9490 C   0  0  0  0  0  0  0  0  0  0  0  0
  184.8240  178.7090  141.4340 O   0  0  0  0  0  0  0  0  0  0  0  0
  183.9470  178.7430  145.1500 C   0  0  0  0  0  1  0  0  0  0  0  0
  185.7030  180.0800  144.0610 C   0  0  0  0  0  1  0  0  0  0  0  0
  187.7160  176.5900  145.0960 C   0  0  0  0  0  0  0  0  0  0  0  0
  186.5740  177.5000  142.6180 C   0  0  1  0  0  3  0  0  0  0  0  0
  186.2370  177.3650  140.2380 O   0  0  0  0  0  1  0  0  0  0  0  0
  186.6630  177.5150  145.0520 O   0  0  0  0  0  0  0  0  0  0  0  0
  182.3040  178.2600  141.2830 C   0  0  0  0  0  1  0  0  0  0  0  0
  182.8010  178.2350  142.5950 O   0  0  0  0  0  0  0  0  0  0  0  0
  192.1790  175.5410  142.3700 C   0  0  0  0  0  2  0  0  0  0  0  0
  190.9420  175.0920  141.6020 C   0  0  0  0  0  2  0  0  0  0  0  0
  191.0460  173.6160  141.2580 C   0  0  0  0  0  2  0  0  0  0  0  0
  190.0070  173.2410  140.2150 C   0  0  0  0  0  2  0  0  0  0  0  0
  190.8600  171.7880  137.9070 O   0  0  0  0  0  0  0  0  0  0  0  0
  189.9470  171.7940  140.0580 N   0  0  0  0  0  2  0  0  0  0  0  0
  190.4040  171.1250  138.8770 C   0  0  0  0  0  0  0  0  0  0  0  0
  189.9210  169.1050  137.7520 O   0  0  0  0  0  0  0  0  0  0  0  0
  190.7570  168.8840  139.8700 O   0  0  0  0  0  1  0  0  0  0  0  0
  190.3400  169.6620  138.7970 C   0  0  0  0  0  0  0  0  0  0  0  0
  195.8570  173.7580  143.3890 C   0  0  2  0  0  3  0  0  0  0  0  0
  196.3260  175.8260  144.5240 O   0  0  0  0  0  1  0  0  0  0  0  0
  196.6520  174.4670  144.4880 C   0  0  1  0  0  3  0  0  0  0  0  0
  196.4460  173.8420  145.8450 C   0  0  0  0  0  3  0  0  0  0  0  0
  196.8470  172.6000  146.1470 C   0  0  0  0  0  3  0  0  0  0  0  0
  197.5490  171.7090  145.1680 C   0  0  0  0  0  2  0  0  0  0  0  0
  197.2000  170.2590  145.4480 C   0  0  0  0  0  2  0  0  0  0  0  0
  194.9980  169.1160  145.4950 C   0  0  0  0  0  0  0  0  0  0  0  0
  195.9510  168.3980  144.5240 C   0  0  0  0  0  2  0  0  0  0  0  0
  193.8780  169.8380  145.0790 O   0  0  0  0  0  0  0  0  0  0  0  0
  196.0140  169.8530  144.6000 C   0  0  2  0  0  3  0  0  0  0  0  0
  193.8250  168.5260  145.0260 O   0  0  0  0  0  0  0  0  0  0  0  0
  195.7590  174.5840  142.0990 C   0  0  0  0  0  2  0  0  0  0  0  0
  197.1190  174.7520  141.4480 C   0  0  0  0  0  2  0  0  0  0  0  0
  197.0010  175.6920  140.2590 C   0  0  0  0  0  2  0  0  0  0  0  0
  197.6490  175.1050  139.0100 C   0  0  0  0  0  2  0  0  0  0  0  0
  196.7590  175.2770  137.7890 C   0  0  0  0  0  2  0  0  0  0  0  0
  195.5860  174.3150  137.8620 C   0  0  0  0  0  2  0  0  0  0  0  0
  196.0480  172.9990  138.1530 O   0  0  0  0  0  0  0  0  0  0  0  0
  194.6080  170.6950  141.3570 C   0  0  0  0  0  3  0  0  0  0  0  0
  193.7240  171.5100  140.6420 C   0  0  0  0  0  3  0  0  0  0  0  0
  195.9570  170.6430  140.9970 C   0  0  0  0  0  3  0  0  0  0  0  0
  195.5500  172.2350  139.2130 C   0  0  0  0  0  0  0  0  0  0  0  0
  194.1920  172.2780  139.5740 C   0  0  0  0  0  3  0  0  0  0  0  0
  196.4260  171.4100  139.9260 C   0  0  0  0  0  3  0  0  0  0  0  0
  1  3  2  0  0  0  0
  1  5  1  0  0  0  0
  3  2  2  0  0  0  0
  5  4  1  1  0  0  0
  5  6  1  0  0  0  0
  6  8  1  0  0  0  0
  7  6  2  0  0  0  0
  8  9  1  1  0  0  0
 10  8  1  0  0  0  0
 11 10  1  0  0  0  0
 12 27  1  1  0  0  0
 12 18  1  0  0  0  0
 13 16  1  0  0  0  0
 14 24  1  6  0  0  0
 14 23  1  0  0  0  0
 15 18  1  0  0  0  0
 15 25  1  1  0  0  0
 16 22  2  0  0  0  0
 17 13  2  0  0  0  0
 18 21  1  0  0  0  0
 18 20  1  0  0  0  0
 19 14  1  0  0  0  0
 19 12  1  0  0  0  0
 22 11  1  0  0  0  0
 23 13  1  1  0  0  0
 23 15  1  0  0  0  0
 25 22  1  0  0  0  0
 26 27  1  0  0  0  0
 28  1  1  0  0  0  0
 29 28  1  0  0  0  0
 30 29  1  0  0  0  0
 31 30  1  0  0  0  0
 32 34  2  0  0  0  0
 33 31  1  0  0  0  0
 34 33  1  0  0  0  0
 35 37  2  0  0  0  0
 37 34  1  0  0  0  0
 37 36  1  0  0  0  0
 38 50  1  6  0  0  0
 38  2  1  0  0  0  0
 38 40  1  0  0  0  0
 40 39  1  1  0  0  0
 40 41  1  0  0  0  0
 41 42  2  0  0  0  0
 43 44  1  0  0  0  0
 43 42  1  0  0  0  0
 46 48  1  0  0  0  0
 46 45  1  0  0  0  0
 47 45  1  0  0  0  0
 48 44  1  1  0  0  0
 48 45  1  0  0  0  0
 49 47  1  0  0  0  0
 49 45  1  0  0  0  0
 51 50  1  0  0  0  0
 52 51  1  0  0  0  0
 53 52  1  0  0  0  0
 54 55  1  0  0  0  0
 54 53  1  0  0  0  0
 55 56  1  0  0  0  0
 56 60  1  0  0  0  0
 58 57  2  0  0  0  0
 59 57  1  0  0  0  0
 60 61  2  0  0  0  0
 60 62  1  0  0  0  0
 61 58  1  0  0  0  0
 62 59  2  0  0  0  0
M  END
>  <MODEL>
4

>  <REMARK>
 VINA RESULT:      -5.8      2.918     11.541
  Name = 
  27 active torsions:
  status: ('A' for Active; 'I' for Inactive)
    1  A    between atoms: C_2  and  O_51
    2  A    between atoms: C_3  and  C_13
    3  A    between atoms: C_3  and  C_16
    4  A    between atoms: C_5  and  C_62
    5  A    between atoms: C_6  and  C_21
    6  A    between atoms: C_6  and  C_53
    7  A    between atoms: O_7  and  C_27
    8  A    between atoms: O_7  and  C_35
    9  A    between atoms: C_9  and  C_12
   10  A    between atoms: C_9  and  C_36
   11  A    between atoms: C_12  and  C_45
   12  A    between atoms: C_12  and  C_62
   13  A    between atoms: C_13  and  C_40
   14  A    between atoms: C_15  and  C_21
   15  A    between atoms: C_15  and  C_30
   16  A    between atoms: C_16  and  C_28
   17  A    between atoms: C_24  and  C_50
   18  A    between atoms: C_24  and  C_54
   19  A    between atoms: C_27  and  C_50
   20  A    between atoms: C_28  and  C_53
   21  A    between atoms: C_30  and  C_47
   22  A    between atoms: N_31  and  C_40
   23  A    between atoms: C_34  and  C_57
   24  A    between atoms: C_36  and  C_54
   25  A    between atoms: C_41  and  C_44
   26  A    between atoms: C_49  and  C_55
   27  A    between atoms: C_49  and  C_57
                            x       y       z     vdW  Elec       q    Type
                         _______ _______ _______ _____ _____    ______ ____

>  <TORSDO>
F 27

$$$$
=
 OpenBabel11042416333D

 62 66  0  0  1  0  0  0  0  0999 V2000
  195.5100  175.1710  141.4930 C   0  0  0  0  0  0  0  0  0  0  0  0
  195.6820  176.3970  143.7950 C   0  0  0  0  0  3  0  0  0  0  0  0
  195.6130  175.7730  142.6470 C   0  0  0  0  0  0  0  0  0  0  0  0
  197.9210  174.5620  141.6660 C   0  0  0  0  0  1  0  0  0  0  0  0
  196.5690  174.1960  141.0730 C   0  0  1  0  0  3  0  0  0  0  0  0
  196.1980  172.7800  141.4120 C   0  0  0  0  0  0  0  0  0  0  0  0
  195.6810  172.5150  142.4880 O   0  0  0  0  0  0  0  0  0  0  0  0
  196.5310  171.6640  140.4750 C   0  0  1  0  0  3  0  0  0  0  0  0
  196.7620  170.4830  141.1800 O   0  0  0  0  0  1  0  0  0  0  0  0
  195.3930  171.4700  139.4840 C   0  0  0  0  0  2  0  0  0  0  0  0
  194.3390  170.5040  140.0130 C   0  0  0  0  0  2  0  0  0  0  0  0
  188.8930  172.9500  138.0660 C   0  0  1  0  0  3  0  0  0  0  0  0
  191.1970  172.0470  141.5490 C   0  0  0  0  0  0  0  0  0  0  0  0
  189.0840  172.9720  140.3950 C   0  0  2  0  0  3  0  0  0  0  0  0
  191.0520  172.2070  139.0970 C   0  0  1  0  0  3  0  0  0  0  0  0
  192.5530  171.4980  141.3950 C   0  0  0  0  0  3  0  0  0  0  0  0
  190.8280  172.4890  142.6690 O   0  0  0  0  0  0  0  0  0  0  0  0
  190.1670  172.0930  137.8560 C   0  0  0  0  0  0  0  0  0  0  0  0
  188.2120  172.7570  139.2960 O   0  0  0  0  0  0  0  0  0  0  0  0
  190.9340  172.5520  136.6270 C   0  0  0  0  0  1  0  0  0  0  0  0
  189.7450  170.6480  137.6360 C   0  0  0  0  0  1  0  0  0  0  0  0
  192.9980  171.1500  140.1800 C   0  0  0  0  0  0  0  0  0  0  0  0
  190.2470  171.9690  140.3750 C   0  0  1  0  0  3  0  0  0  0  0  0
  188.3520  172.8360  141.5790 O   0  0  0  0  0  1  0  0  0  0  0  0
  192.1940  171.3490  139.0480 O   0  0  0  0  0  0  0  0  0  0  0  0
  187.5970  174.7700  137.5270 C   0  0  0  0  0  1  0  0  0  0  0  0
  188.9130  174.2920  137.6190 O   0  0  0  0  0  0  0  0  0  0  0  0
  194.2760  175.3700  140.6670 C   0  0  0  0  0  2  0  0  0  0  0  0
  194.6170  175.4180  139.1830 C   0  0  0  0  0  2  0  0  0  0  0  0
  193.7350  174.4500  138.4120 C   0  0  0  0  0  2  0  0  0  0  0  0
  194.1670  174.3850  136.9560 C   0  0  0  0  0  2  0  0  0  0  0  0
  192.1010  175.6150  135.4110 O   0  0  0  0  0  0  0  0  0  0  0  0
  194.2220  175.7250  136.3860 N   0  0  0  0  0  2  0  0  0  0  0  0
  193.1440  176.2870  135.6290 C   0  0  0  0  0  0  0  0  0  0  0  0
  194.3490  178.2690  135.1790 O   0  0  0  0  0  1  0  0  0  0  0  0
  192.1610  178.2680  134.5130 O   0  0  0  0  0  0  0  0  0  0  0  0
  193.2560  177.6530  135.1060 C   0  0  0  0  0  0  0  0  0  0  0  0
  194.4860  176.6430  144.6770 C   0  0  2  0  0  3  0  0  0  0  0  0
  193.8570  176.3740  146.9840 O   0  0  0  0  0  1  0  0  0  0  0  0
  194.5880  175.7900  145.9450 C   0  0  1  0  0  3  0  0  0  0  0  0
  194.1380  174.3680  145.7220 C   0  0  0  0  0  3  0  0  0  0  0  0
  194.9840  173.3300  145.6900 C   0  0  0  0  0  3  0  0  0  0  0  0
  196.4630  173.4760  145.8800 C   0  0  0  0  0  2  0  0  0  0  0  0
  197.1490  172.1440  145.6360 C   0  0  0  0  0  2  0  0  0  0  0  0
  197.0570  169.7060  146.0860 C   0  0  0  0  0  0  0  0  0  0  0  0
  196.0180  170.0910  145.0190 C   0  0  0  0  0  2  0  0  0  0  0  0
  196.7170  169.2920  147.3760 O   0  0  0  0  0  0  0  0  0  0  0  0
  196.2540  171.0220  146.1160 C   0  0  2  0  0  3  0  0  0  0  0  0
  196.5190  168.4550  146.3840 O   0  0  0  0  0  0  0  0  0  0  0  0
  193.1460  176.4710  143.9510 C   0  0  0  0  0  2  0  0  0  0  0  0
  192.0510  177.2850  144.6130 C   0  0  0  0  0  2  0  0  0  0  0  0
  190.6980  176.6630  144.3080 C   0  0  0  0  0  2  0  0  0  0  0  0
  190.2600  176.9400  142.8740 C   0  0  0  0  0  2  0  0  0  0  0  0
  188.9960  176.1750  142.5200 C   0  0  0  0  0  2  0  0  0  0  0  0
  188.0550  177.0640  141.7260 C   0  0  0  0  0  2  0  0  0  0  0  0
  186.7200  176.9100  142.1970 O   0  0  0  0  0  0  0  0  0  0  0  0
  185.1750  179.1060  145.4300 C   0  0  0  0  0  3  0  0  0  0  0  0
  185.3850  177.7300  145.5680 C   0  0  0  0  0  3  0  0  0  0  0  0
  185.4890  179.7430  144.2250 C   0  0  0  0  0  3  0  0  0  0  0  0
  186.2100  177.6260  143.2860 C   0  0  0  0  0  0  0  0  0  0  0  0
  185.9010  176.9910  144.5010 C   0  0  0  0  0  3  0  0  0  0  0  0
  186.0070  179.0040  143.1570 C   0  0  0  0  0  3  0  0  0  0  0  0
  1  3  2  0  0  0  0
  3  2  2  0  0  0  0
  5  6  1  0  0  0  0
  5  1  1  0  0  0  0
  5  4  1  1  0  0  0
  6  7  2  0  0  0  0
  8  9  1  1  0  0  0
  8  6  1  0  0  0  0
 10 11  1  0  0  0  0
 10  8  1  0  0  0  0
 11 22  1  0  0  0  0
 12 27  1  1  0  0  0
 12 19  1  0  0  0  0
 13 17  2  0  0  0  0
 14 24  1  1  0  0  0
 15 25  1  6  0  0  0
 15 23  1  0  0  0  0
 16 13  1  0  0  0  0
 18 12  1  0  0  0  0
 18 15  1  0  0  0  0
 19 14  1  0  0  0  0
 20 18  1  0  0  0  0
 21 18  1  0  0  0  0
 22 16  2  0  0  0  0
 23 14  1  0  0  0  0
 23 13  1  1  0  0  0
 25 22  1  0  0  0  0
 26 27  1  0  0  0  0
 28  1  1  0  0  0  0
 29 28  1  0  0  0  0
 30 29  1  0  0  0  0
 31 30  1  0  0  0  0
 32 34  2  0  0  0  0
 33 31  1  0  0  0  0
 34 33  1  0  0  0  0
 36 37  2  0  0  0  0
 37 35  1  0  0  0  0
 37 34  1  0  0  0  0
 38  2  1  6  0  0  0
 38 40  1  0  0  0  0
 40 39  1  1  0  0  0
 41 40  1  0  0  0  0
 42 41  2  0  0  0  0
 42 43  1  0  0  0  0
 44 43  1  0  0  0  0
 45 48  1  0  0  0  0
 45 49  1  0  0  0  0
 45 47  1  0  0  0  0
 46 45  1  0  0  0  0
 46 48  1  0  0  0  0
 48 44  1  6  0  0  0
 49 47  1  0  0  0  0
 50 51  1  0  0  0  0
 50 38  1  0  0  0  0
 52 51  1  0  0  0  0
 53 52  1  0  0  0  0
 54 53  1  0  0  0  0
 55 56  1  0  0  0  0
 55 54  1  0  0  0  0
 56 60  1  0  0  0  0
 57 58  1  0  0  0  0
 59 57  2  0  0  0  0
 60 61  1  0  0  0  0
 61 58  2  0  0  0  0
 62 60  2  0  0  0  0
 62 59  1  0  0  0  0
M  END
>  <MODEL>
5

>  <REMARK>
 VINA RESULT:      -5.6      3.047      9.066
  Name = 
  27 active torsions:
  status: ('A' for Active; 'I' for Inactive)
    1  A    between atoms: C_2  and  O_51
    2  A    between atoms: C_3  and  C_13
    3  A    between atoms: C_3  and  C_16
    4  A    between atoms: C_5  and  C_62
    5  A    between atoms: C_6  and  C_21
    6  A    between atoms: C_6  and  C_53
    7  A    between atoms: O_7  and  C_27
    8  A    between atoms: O_7  and  C_35
    9  A    between atoms: C_9  and  C_12
   10  A    between atoms: C_9  and  C_36
   11  A    between atoms: C_12  and  C_45
   12  A    between atoms: C_12  and  C_62
   13  A    between atoms: C_13  and  C_40
   14  A    between atoms: C_15  and  C_21
   15  A    between atoms: C_15  and  C_30
   16  A    between atoms: C_16  and  C_28
   17  A    between atoms: C_24  and  C_50
   18  A    between atoms: C_24  and  C_54
   19  A    between atoms: C_27  and  C_50
   20  A    between atoms: C_28  and  C_53
   21  A    between atoms: C_30  and  C_47
   22  A    between atoms: N_31  and  C_40
   23  A    between atoms: C_34  and  C_57
   24  A    between atoms: C_36  and  C_54
   25  A    between atoms: C_41  and  C_44
   26  A    between atoms: C_49  and  C_55
   27  A    between atoms: C_49  and  C_57
                            x       y       z     vdW  Elec       q    Type
                         _______ _______ _______ _____ _____    ______ ____

>  <TORSDO>
F 27

$$$$
=
 OpenBabel11042416333D

 62 66  0  0  1  0  0  0  0  0999 V2000
  188.7210  174.0760  141.3320 C   0  0  0  0  0  0  0  0  0  0  0  0
  187.1360  176.1530  141.3800 C   0  0  0  0  0  3  0  0  0  0  0  0
  187.9370  175.1200  141.3380 C   0  0  0  0  0  0  0  0  0  0  0  0
  191.0800  173.8080  140.5700 C   0  0  0  0  0  1  0  0  0  0  0  0
  189.6160  173.8340  140.1540 C   0  0  1  0  0  3  0  0  0  0  0  0
  189.2450  172.5800  139.4120 C   0  0  0  0  0  0  0  0  0  0  0  0
  188.1010  172.4090  139.0170 O   0  0  0  0  0  0  0  0  0  0  0  0
  190.2490  171.4890  139.2190 C   0  0  1  0  0  3  0  0  0  0  0  0
  190.2580  170.6300  140.3190 O   0  0  0  0  0  1  0  0  0  0  0  0
  189.9270  170.7150  137.9510 C   0  0  0  0  0  2  0  0  0  0  0  0
  191.1330  170.6190  137.0230 C   0  0  0  0  0  2  0  0  0  0  0  0
  195.7590  174.6470  138.3720 C   0  0  1  0  0  3  0  0  0  0  0  0
  192.2370  174.1350  136.0080 C   0  0  0  0  0  0  0  0  0  0  0  0
  194.2670  175.5160  136.7970 C   0  0  2  0  0  3  0  0  0  0  0  0
  193.7130  173.3190  137.8010 C   0  0  1  0  0  3  0  0  0  0  0  0
  191.4360  172.9110  136.1620 C   0  0  0  0  0  3  0  0  0  0  0  0
  191.7540  175.1220  135.3930 O   0  0  0  0  0  0  0  0  0  0  0  0
  195.1390  173.2270  138.3430 C   0  0  0  0  0  0  0  0  0  0  0  0
  195.6300  175.4030  137.1780 O   0  0  0  0  0  0  0  0  0  0  0  0
  195.1270  172.6110  139.7330 C   0  0  0  0  0  1  0  0  0  0  0  0
  195.9940  172.3460  137.4440 C   0  0  0  0  0  1  0  0  0  0  0  0
  191.8890  171.9080  136.9270 C   0  0  0  0  0  0  0  0  0  0  0  0
  193.6640  174.1330  136.5080 C   0  0  1  0  0  3  0  0  0  0  0  0
  194.1880  176.3230  135.6580 O   0  0  0  0  0  1  0  0  0  0  0  0
  193.1020  172.0400  137.6180 O   0  0  0  0  0  0  0  0  0  0  0  0
  196.8960  175.6370  140.1070 C   0  0  0  0  0  1  0  0  0  0  0  0
  195.6260  175.4070  139.5570 O   0  0  0  0  0  0  0  0  0  0  0  0
  188.8050  173.2120  142.5530 C   0  0  0  0  0  2  0  0  0  0  0  0
  189.4170  173.9770  143.7200 C   0  0  0  0  0  2  0  0  0  0  0  0
  190.2080  173.0320  144.6090 C   0  0  0  0  0  2  0  0  0  0  0  0
  191.3760  172.4370  143.8410 C   0  0  0  0  0  2  0  0  0  0  0  0
  194.0930  172.0400  143.0480 O   0  0  0  0  0  0  0  0  0  0  0  0
  192.4880  172.1670  144.7430 N   0  0  0  0  0  2  0  0  0  0  0  0
  193.8320  171.9890  144.2800 C   0  0  0  0  0  0  0  0  0  0  0  0
  195.1500  170.5790  145.6410 O   0  0  0  0  0  0  0  0  0  0  0  0
  195.6770  172.8030  145.7180 O   0  0  0  0  0  1  0  0  0  0  0  0
  194.9080  171.7460  145.2460 C   0  0  0  0  0  0  0  0  0  0  0  0
  186.8990  176.9680  142.6240 C   0  0  2  0  0  3  0  0  0  0  0  0
  185.6460  178.9080  143.2980 O   0  0  0  0  0  1  0  0  0  0  0  0
  185.6030  177.7730  142.4830 C   0  0  1  0  0  3  0  0  0  0  0  0
  185.3180  178.1620  141.0550 C   0  0  0  0  0  3  0  0  0  0  0  0
  184.0800  178.2300  140.5480 C   0  0  0  0  0  3  0  0  0  0  0  0
  182.8520  177.9340  141.3540 C   0  0  0  0  0  2  0  0  0  0  0  0
  181.7740  178.9580  141.0490 C   0  0  0  0  0  2  0  0  0  0  0  0
  179.4750  178.7800  140.1360 C   0  0  0  0  0  0  0  0  0  0  0  0
  179.4430  179.3970  141.5440 C   0  0  0  0  0  2  0  0  0  0  0  0
  178.9840  177.5050  139.8440 O   0  0  0  0  0  0  0  0  0  0  0  0
  180.4120  178.3400  141.2780 C   0  0  2  0  0  3  0  0  0  0  0  0
  178.1180  178.4650  140.0730 O   0  0  0  0  0  0  0  0  0  0  0  0
  188.0980  177.8380  143.0220 C   0  0  0  0  0  2  0  0  0  0  0  0
  188.2740  177.8800  144.5280 C   0  0  0  0  0  2  0  0  0  0  0  0
  187.8580  176.5460  145.1260 C   0  0  0  0  0  2  0  0  0  0  0  0
  188.4790  176.3280  146.5020 C   0  0  0  0  0  2  0  0  0  0  0  0
  189.7250  177.1780  146.6910 C   0  0  0  0  0  2  0  0  0  0  0  0
  190.7480  176.4220  147.5210 C   0  0  0  0  0  2  0  0  0  0  0  0
  191.4160  175.4570  146.7140 O   0  0  0  0  0  0  0  0  0  0  0  0
  194.7640  176.3870  144.3520 C   0  0  0  0  0  3  0  0  0  0  0  0
  194.9320  176.1370  145.7180 C   0  0  0  0  0  3  0  0  0  0  0  0
  193.4910  176.3160  143.7800 C   0  0  0  0  0  3  0  0  0  0  0  0
  192.5430  175.7600  145.9420 C   0  0  0  0  0  0  0  0  0  0  0  0
  193.8260  175.8240  146.5110 C   0  0  0  0  0  3  0  0  0  0  0  0
  192.3840  176.0010  144.5740 C   0  0  0  0  0  3  0  0  0  0  0  0
  1  3  2  0  0  0  0
  1 28  1  0  0  0  0
  3  2  2  0  0  0  0
  5  4  1  1  0  0  0
  5  1  1  0  0  0  0
  6  5  1  0  0  0  0
  7  6  2  0  0  0  0
  8  6  1  0  0  0  0
  8  9  1  1  0  0  0
 10  8  1  0  0  0  0
 11 10  1  0  0  0  0
 12 27  1  1  0  0  0
 13 16  1  0  0  0  0
 14 24  1  6  0  0  0
 14 19  1  0  0  0  0
 15 25  1  6  0  0  0
 15 18  1  0  0  0  0
 16 22  2  0  0  0  0
 17 13  2  0  0  0  0
 18 12  1  0  0  0  0
 18 20  1  0  0  0  0
 19 12  1  0  0  0  0
 21 18  1  0  0  0  0
 22 11  1  0  0  0  0
 22 25  1  0  0  0  0
 23 13  1  1  0  0  0
 23 14  1  0  0  0  0
 23 15  1  0  0  0  0
 27 26  1  0  0  0  0
 28 29  1  0  0  0  0
 29 30  1  0  0  0  0
 31 30  1  0  0  0  0
 31 33  1  0  0  0  0
 32 34  2  0  0  0  0
 34 33  1  0  0  0  0
 34 37  1  0  0  0  0
 37 35  2  0  0  0  0
 37 36  1  0  0  0  0
 38  2  1  6  0  0  0
 38 50  1  0  0  0  0
 40 38  1  0  0  0  0
 40 39  1  1  0  0  0
 41 40  1  0  0  0  0
 42 41  2  0  0  0  0
 42 43  1  0  0  0  0
 44 43  1  0  0  0  0
 45 48  1  0  0  0  0
 45 46  1  0  0  0  0
 47 49  1  0  0  0  0
 47 45  1  0  0  0  0
 48 44  1  6  0  0  0
 48 46  1  0  0  0  0
 49 45  1  0  0  0  0
 50 51  1  0  0  0  0
 51 52  1  0  0  0  0
 52 53  1  0  0  0  0
 53 54  1  0  0  0  0
 54 55  1  0  0  0  0
 56 55  1  0  0  0  0
 57 58  1  0  0  0  0
 58 61  2  0  0  0  0
 59 57  2  0  0  0  0
 59 62  1  0  0  0  0
 60 61  1  0  0  0  0
 60 56  1  0  0  0  0
 62 60  2  0  0  0  0
M  END
>  <MODEL>
6

>  <REMARK>
 VINA RESULT:      -5.5      1.629      3.183
  Name = 
  27 active torsions:
  status: ('A' for Active; 'I' for Inactive)
    1  A    between atoms: C_2  and  O_51
    2  A    between atoms: C_3  and  C_13
    3  A    between atoms: C_3  and  C_16
    4  A    between atoms: C_5  and  C_62
    5  A    between atoms: C_6  and  C_21
    6  A    between atoms: C_6  and  C_53
    7  A    between atoms: O_7  and  C_27
    8  A    between atoms: O_7  and  C_35
    9  A    between atoms: C_9  and  C_12
   10  A    between atoms: C_9  and  C_36
   11  A    between atoms: C_12  and  C_45
   12  A    between atoms: C_12  and  C_62
   13  A    between atoms: C_13  and  C_40
   14  A    between atoms: C_15  and  C_21
   15  A    between atoms: C_15  and  C_30
   16  A    between atoms: C_16  and  C_28
   17  A    between atoms: C_24  and  C_50
   18  A    between atoms: C_24  and  C_54
   19  A    between atoms: C_27  and  C_50
   20  A    between atoms: C_28  and  C_53
   21  A    between atoms: C_30  and  C_47
   22  A    between atoms: N_31  and  C_40
   23  A    between atoms: C_34  and  C_57
   24  A    between atoms: C_36  and  C_54
   25  A    between atoms: C_41  and  C_44
   26  A    between atoms: C_49  and  C_55
   27  A    between atoms: C_49  and  C_57
                            x       y       z     vdW  Elec       q    Type
                         _______ _______ _______ _____ _____    ______ ____

>  <TORSDO>
F 27

$$$$
=
 OpenBabel11042416333D

 62 66  0  0  1  0  0  0  0  0999 V2000
  192.0810  171.7170  140.0600 C   0  0  0  0  0  0  0  0  0  0  0  0
  190.5700  171.3390  137.9620 C   0  0  0  0  0  3  0  0  0  0  0  0
  191.3410  171.5190  139.0030 C   0  0  0  0  0  0  0  0  0  0  0  0
  193.5070  169.7140  139.6480 C   0  0  0  0  0  1  0  0  0  0  0  0
  193.4750  171.1670  140.0980 C   0  0  1  0  0  3  0  0  0  0  0  0
  194.4330  172.0000  139.2940 C   0  0  0  0  0  0  0  0  0  0  0  0
  194.1580  173.1560  139.0040 O   0  0  0  0  0  0  0  0  0  0  0  0
  195.6990  171.4040  138.7670 C   0  0  1  0  0  3  0  0  0  0  0  0
  195.5680  171.0930  137.4130 O   0  0  0  0  0  1  0  0  0  0  0  0
  196.8490  172.3760  138.9740 C   0  0  0  0  0  2  0  0  0  0  0  0
  197.6700  172.0280  140.2120 C   0  0  0  0  0  2  0  0  0  0  0  0
  194.5520  175.5290  144.3900 C   0  0  1  0  0  3  0  0  0  0  0  0
  195.9530  171.5720  143.5970 C   0  0  0  0  0  0  0  0  0  0  0  0
  194.7280  173.2990  145.0690 C   0  0  2  0  0  3  0  0  0  0  0  0
  195.9170  173.9580  142.9960 C   0  0  1  0  0  3  0  0  0  0  0  0
  196.7620  171.3200  142.3940 C   0  0  0  0  0  3  0  0  0  0  0  0
  195.9010  170.7010  144.5060 O   0  0  0  0  0  0  0  0  0  0  0  0
  195.1180  175.2610  142.9730 C   0  0  0  0  0  0  0  0  0  0  0  0
  193.8840  174.4380  145.0070 O   0  0  0  0  0  0  0  0  0  0  0  0
  196.0070  176.4070  142.5180 C   0  0  0  0  0  1  0  0  0  0  0  0
  193.9530  175.1530  142.0000 C   0  0  0  0  0  1  0  0  0  0  0  0
  196.9280  172.2920  141.4860 C   0  0  0  0  0  0  0  0  0  0  0  0
  195.1220  172.8330  143.6590 C   0  0  1  0  0  3  0  0  0  0  0  0
  194.0510  172.2780  145.7420 O   0  0  0  0  0  1  0  0  0  0  0  0
  196.3740  173.5620  141.7010 O   0  0  0  0  0  0  0  0  0  0  0  0
  194.4710  176.9990  146.1550 C   0  0  0  0  0  1  0  0  0  0  0  0
  195.3240  176.3120  145.2790 O   0  0  0  0  0  0  0  0  0  0  0  0
  191.5700  172.5960  141.1600 C   0  0  0  0  0  2  0  0  0  0  0  0
  191.5150  171.8370  142.4810 C   0  0  0  0  0  2  0  0  0  0  0  0
  190.2740  172.2340  143.2620 C   0  0  0  0  0  2  0  0  0  0  0  0
  190.6620  172.9660  144.5360 C   0  0  0  0  0  2  0  0  0  0  0  0
  190.8580  174.9340  146.5990 O   0  0  0  0  0  0  0  0  0  0  0  0
  190.5640  174.4060  144.3410 N   0  0  0  0  0  2  0  0  0  0  0  0
  190.6830  175.3410  145.4200 C   0  0  0  0  0  0  0  0  0  0  0  0
  191.4000  177.3160  144.3400 O   0  0  0  0  0  0  0  0  0  0  0  0
  189.6320  177.5560  145.7710 O   0  0  0  0  0  1  0  0  0  0  0  0
  190.6020  176.7800  145.1480 C   0  0  0  0  0  0  0  0  0  0  0  0
  189.6600  172.4060  137.4110 C   0  0  2  0  0  3  0  0  0  0  0  0
  189.4560  173.5260  135.2910 O   0  0  0  0  0  1  0  0  0  0  0  0
  190.3700  173.1690  136.2880 C   0  0  1  0  0  3  0  0  0  0  0  0
  191.1020  174.3870  136.7900 C   0  0  0  0  0  3  0  0  0  0  0  0
  192.3790  174.6520  136.4840 C   0  0  0  0  0  3  0  0  0  0  0  0
  193.2070  173.7650  135.6050 C   0  0  0  0  0  2  0  0  0  0  0  0
  194.4430  174.5120  135.1370 C   0  0  0  0  0  2  0  0  0  0  0  0
  196.5000  175.4990  136.1100 C   0  0  0  0  0  0  0  0  0  0  0  0
  196.8340  174.1930  135.3690 C   0  0  0  0  0  2  0  0  0  0  0  0
  196.5680  175.6330  137.4990 O   0  0  0  0  0  0  0  0  0  0  0  0
  195.5780  174.2630  136.1070 C   0  0  2  0  0  3  0  0  0  0  0  0
  197.6940  175.5810  136.8250 O   0  0  0  0  0  0  0  0  0  0  0  0
  189.0850  173.3340  138.4890 C   0  0  0  0  0  2  0  0  0  0  0  0
  188.2940  172.5560  139.5220 C   0  0  0  0  0  2  0  0  0  0  0  0
  188.0430  173.4340  140.7380 C   0  0  0  0  0  2  0  0  0  0  0  0
  188.5290  174.8610  140.5130 C   0  0  0  0  0  2  0  0  0  0  0  0
  188.6710  175.6140  141.8260 C   0  0  0  0  0  2  0  0  0  0  0  0
  187.3170  176.1330  142.2760 C   0  0  0  0  0  2  0  0  0  0  0  0
  187.2730  176.2180  143.6980 O   0  0  0  0  0  0  0  0  0  0  0  0
  184.9380  179.0110  145.7960 C   0  0  0  0  0  3  0  0  0  0  0  0
  185.5340  179.3810  144.5870 C   0  0  0  0  0  3  0  0  0  0  0  0
  185.1110  177.7160  146.2930 C   0  0  0  0  0  3  0  0  0  0  0  0
  186.4940  177.1590  144.3800 C   0  0  0  0  0  0  0  0  0  0  0  0
  186.3100  178.4590  143.8800 C   0  0  0  0  0  3  0  0  0  0  0  0
  185.8870  176.7920  145.5850 C   0  0  0  0  0  3  0  0  0  0  0  0
  1  5  1  0  0  0  0
  1 28  1  0  0  0  0
  2  3  2  0  0  0  0
  3  1  2  0  0  0  0
  5  4  1  6  0  0  0
  6  5  1  0  0  0  0
  7  6  2  0  0  0  0
  8  9  1  6  0  0  0
  8 10  1  0  0  0  0
  8  6  1  0  0  0  0
 10 11  1  0  0  0  0
 11 22  1  0  0  0  0
 12 19  1  0  0  0  0
 12 27  1  1  0  0  0
 13 17  2  0  0  0  0
 14 24  1  6  0  0  0
 15 25  1  6  0  0  0
 15 23  1  0  0  0  0
 16 13  1  0  0  0  0
 18 15  1  0  0  0  0
 18 12  1  0  0  0  0
 19 14  1  0  0  0  0
 20 18  1  0  0  0  0
 21 18  1  0  0  0  0
 22 25  1  0  0  0  0
 22 16  2  0  0  0  0
 23 13  1  1  0  0  0
 23 14  1  0  0  0  0
 27 26  1  0  0  0  0
 28 29  1  0  0  0  0
 29 30  1  0  0  0  0
 30 31  1  0  0  0  0
 33 31  1  0  0  0  0
 33 34  1  0  0  0  0
 34 32  2  0  0  0  0
 35 37  2  0  0  0  0
 37 34  1  0  0  0  0
 37 36  1  0  0  0  0
 38  2  1  1  0  0  0
 38 50  1  0  0  0  0
 40 39  1  6  0  0  0
 40 41  1  0  0  0  0
 40 38  1  0  0  0  0
 42 41  2  0  0  0  0
 43 42  1  0  0  0  0
 44 43  1  0  0  0  0
 45 49  1  0  0  0  0
 45 47  1  0  0  0  0
 46 48  1  0  0  0  0
 46 45  1  0  0  0  0
 48 44  1  6  0  0  0
 48 45  1  0  0  0  0
 49 47  1  0  0  0  0
 50 51  1  0  0  0  0
 51 52  1  0  0  0  0
 53 52  1  0  0  0  0
 53 54  1  0  0  0  0
 54 55  1  0  0  0  0
 55 56  1  0  0  0  0
 56 60  1  0  0  0  0
 57 59  1  0  0  0  0
 58 57  2  0  0  0  0
 60 62  1  0  0  0  0
 61 60  2  0  0  0  0
 61 58  1  0  0  0  0
 62 59  2  0  0  0  0
M  END
>  <MODEL>
7

>  <REMARK>
 VINA RESULT:      -5.5      2.925      8.034
  Name = 
  27 active torsions:
  status: ('A' for Active; 'I' for Inactive)
    1  A    between atoms: C_2  and  O_51
    2  A    between atoms: C_3  and  C_13
    3  A    between atoms: C_3  and  C_16
    4  A    between atoms: C_5  and  C_62
    5  A    between atoms: C_6  and  C_21
    6  A    between atoms: C_6  and  C_53
    7  A    between atoms: O_7  and  C_27
    8  A    between atoms: O_7  and  C_35
    9  A    between atoms: C_9  and  C_12
   10  A    between atoms: C_9  and  C_36
   11  A    between atoms: C_12  and  C_45
   12  A    between atoms: C_12  and  C_62
   13  A    between atoms: C_13  and  C_40
   14  A    between atoms: C_15  and  C_21
   15  A    between atoms: C_15  and  C_30
   16  A    between atoms: C_16  and  C_28
   17  A    between atoms: C_24  and  C_50
   18  A    between atoms: C_24  and  C_54
   19  A    between atoms: C_27  and  C_50
   20  A    between atoms: C_28  and  C_53
   21  A    between atoms: C_30  and  C_47
   22  A    between atoms: N_31  and  C_40
   23  A    between atoms: C_34  and  C_57
   24  A    between atoms: C_36  and  C_54
   25  A    between atoms: C_41  and  C_44
   26  A    between atoms: C_49  and  C_55
   27  A    between atoms: C_49  and  C_57
                            x       y       z     vdW  Elec       q    Type
                         _______ _______ _______ _____ _____    ______ ____

>  <TORSDO>
F 27

$$$$
=
 OpenBabel11042416333D

 62 66  0  0  1  0  0  0  0  0999 V2000
  190.9300  171.8970  143.1910 C   0  0  0  0  0  0  0  0  0  0  0  0
  190.7020  171.1330  140.7020 C   0  0  0  0  0  3  0  0  0  0  0  0
  190.8360  171.5150  141.9460 C   0  0  0  0  0  0  0  0  0  0  0  0
  193.2700  171.0370  143.2220 C   0  0  0  0  0  1  0  0  0  0  0  0
  192.2830  172.0280  143.8220 C   0  0  1  0  0  3  0  0  0  0  0  0
  192.8120  173.4320  143.7370 C   0  0  0  0  0  0  0  0  0  0  0  0
  192.6630  174.0900  142.7160 O   0  0  0  0  0  0  0  0  0  0  0  0
  193.6000  174.0150  144.8660 C   0  0  1  0  0  3  0  0  0  0  0  0
  193.9860  173.0180  145.7610 O   0  0  0  0  0  1  0  0  0  0  0  0
  194.8230  174.7340  144.3200 C   0  0  0  0  0  2  0  0  0  0  0  0
  195.8700  173.7560  143.7990 C   0  0  0  0  0  2  0  0  0  0  0  0
  195.5860  172.0880  137.7510 C   0  0  1  0  0  3  0  0  0  0  0  0
  196.9790  175.1310  140.4080 C   0  0  0  0  0  0  0  0  0  0  0  0
  196.6740  174.1360  138.0480 C   0  0  2  0  0  3  0  0  0  0  0  0
  196.0060  172.8930  140.0860 C   0  0  1  0  0  3  0  0  0  0  0  0
  196.8220  174.9480  141.8590 C   0  0  0  0  0  3  0  0  0  0  0  0
  197.7410  176.0330  139.9720 O   0  0  0  0  0  0  0  0  0  0  0  0
  195.1190  171.9930  139.2250 C   0  0  0  0  0  0  0  0  0  0  0  0
  195.7660  173.4010  137.2420 O   0  0  0  0  0  0  0  0  0  0  0  0
  195.1910  170.5600  139.7270 C   0  0  0  0  0  1  0  0  0  0  0  0
  193.6690  172.4470  139.3020 C   0  0  0  0  0  1  0  0  0  0  0  0
  196.1190  173.9080  142.3300 C   0  0  0  0  0  0  0  0  0  0  0  0
  196.1330  174.2890  139.4780 C   0  0  1  0  0  3  0  0  0  0  0  0
  196.8680  175.3930  137.4690 O   0  0  0  0  0  1  0  0  0  0  0  0
  195.5710  172.9680  141.4450 O   0  0  0  0  0  0  0  0  0  0  0  0
  196.8220  171.3960  135.9410 C   0  0  0  0  0  1  0  0  0  0  0  0
  196.5450  171.1530  137.2950 O   0  0  0  0  0  0  0  0  0  0  0  0
  189.6940  172.3180  143.9260 C   0  0  0  0  0  2  0  0  0  0  0  0
  190.0490  172.9970  145.2430 C   0  0  0  0  0  2  0  0  0  0  0  0
  189.7470  174.4830  145.1650 C   0  0  0  0  0  2  0  0  0  0  0  0
  189.4720  175.0420  146.5510 C   0  0  0  0  0  2  0  0  0  0  0  0
  188.8840  177.7460  147.2650 O   0  0  0  0  0  0  0  0  0  0  0  0
  188.1410  175.6310  146.6030 N   0  0  0  0  0  2  0  0  0  0  0  0
  187.9160  177.0000  146.9580 C   0  0  0  0  0  0  0  0  0  0  0  0
  185.5780  176.7890  146.6900 O   0  0  0  0  0  0  0  0  0  0  0  0
  186.3220  178.8680  147.2890 O   0  0  0  0  0  1  0  0  0  0  0  0
  186.5500  177.5360  146.9650 C   0  0  0  0  0  0  0  0  0  0  0  0
  189.6990  171.7370  139.7540 C   0  0  2  0  0  3  0  0  0  0  0  0
  189.8220  170.0490  138.0450 O   0  0  0  0  0  1  0  0  0  0  0  0
  190.0760  171.3980  138.3090 C   0  0  1  0  0  3  0  0  0  0  0  0
  189.3680  172.2730  137.3060 C   0  0  0  0  0  3  0  0  0  0  0  0
  190.0080  172.9460  136.3420 C   0  0  0  0  0  3  0  0  0  0  0  0
  191.4940  172.8920  136.1570 C   0  0  0  0  0  2  0  0  0  0  0  0
  192.1290  174.1540  136.7130 C   0  0  0  0  0  2  0  0  0  0  0  0
  192.8710  176.4180  136.0200 C   0  0  0  0  0  0  0  0  0  0  0  0
  191.7760  175.9020  135.0720 C   0  0  0  0  0  2  0  0  0  0  0  0
  194.2050  176.5800  135.6380 O   0  0  0  0  0  0  0  0  0  0  0  0
  192.7500  174.9450  135.5810 C   0  0  2  0  0  3  0  0  0  0  0  0
  193.3230  177.4450  135.1930 O   0  0  0  0  0  0  0  0  0  0  0  0
  189.4790  173.2400  139.9740 C   0  0  0  0  0  2  0  0  0  0  0  0
  188.2280  173.5010  140.7890 C   0  0  0  0  0  2  0  0  0  0  0  0
  188.1170  174.9870  141.0900 C   0  0  0  0  0  2  0  0  0  0  0  0
  187.3210  175.2460  142.3650 C   0  0  0  0  0  2  0  0  0  0  0  0
  187.8360  176.4720  143.1020 C   0  0  0  0  0  2  0  0  0  0  0  0
  188.2110  177.5570  142.1080 C   0  0  0  0  0  2  0  0  0  0  0  0
  187.5170  178.7630  142.4140 O   0  0  0  0  0  0  0  0  0  0  0  0
  183.4540  178.8990  143.4780 C   0  0  0  0  0  3  0  0  0  0  0  0
  183.8290  178.3160  142.2640 C   0  0  0  0  0  3  0  0  0  0  0  0
  184.4290  179.4220  144.3330 C   0  0  0  0  0  3  0  0  0  0  0  0
  186.1600  178.7940  142.7540 C   0  0  0  0  0  0  0  0  0  0  0  0
  185.1770  178.2630  141.9020 C   0  0  0  0  0  3  0  0  0  0  0  0
  185.7790  179.3680  143.9720 C   0  0  0  0  0  3  0  0  0  0  0  0
  1  5  1  0  0  0  0
  1 28  1  0  0  0  0
  2  3  2  0  0  0  0
  3  1  2  0  0  0  0
  5  4  1  6  0  0  0
  6  5  1  0  0  0  0
  6  8  1  0  0  0  0
  7  6  2  0  0  0  0
  8  9  1  1  0  0  0
 10  8  1  0  0  0  0
 11 10  1  0  0  0  0
 12 27  1  1  0  0  0
 12 18  1  0  0  0  0
 13 16  1  0  0  0  0
 14 24  1  6  0  0  0
 14 23  1  0  0  0  0
 15 25  1  1  0  0  0
 16 22  2  0  0  0  0
 17 13  2  0  0  0  0
 18 21  1  0  0  0  0
 18 20  1  0  0  0  0
 18 15  1  0  0  0  0
 19 12  1  0  0  0  0
 19 14  1  0  0  0  0
 22 11  1  0  0  0  0
 23 15  1  0  0  0  0
 23 13  1  1  0  0  0
 25 22  1  0  0  0  0
 26 27  1  0  0  0  0
 28 29  1  0  0  0  0
 30 29  1  0  0  0  0
 30 31  1  0  0  0  0
 31 33  1  0  0  0  0
 33 34  1  0  0  0  0
 34 37  1  0  0  0  0
 34 32  2  0  0  0  0
 35 37  2  0  0  0  0
 37 36  1  0  0  0  0
 38 50  1  6  0  0  0
 38  2  1  0  0  0  0
 40 39  1  6  0  0  0
 40 38  1  0  0  0  0
 41 40  1  0  0  0  0
 42 41  2  0  0  0  0
 43 42  1  0  0  0  0
 43 44  1  0  0  0  0
 46 48  1  0  0  0  0
 46 45  1  0  0  0  0
 47 45  1  0  0  0  0
 48 45  1  0  0  0  0
 48 44  1  1  0  0  0
 49 47  1  0  0  0  0
 49 45  1  0  0  0  0
 50 51  1  0  0  0  0
 51 52  1  0  0  0  0
 52 53  1  0  0  0  0
 53 54  1  0  0  0  0
 55 56  1  0  0  0  0
 55 54  1  0  0  0  0
 56 60  1  0  0  0  0
 57 59  1  0  0  0  0
 58 57  2  0  0  0  0
 60 62  1  0  0  0  0
 61 58  1  0  0  0  0
 61 60  2  0  0  0  0
 62 59  2  0  0  0  0
M  END
>  <MODEL>
8

>  <REMARK>
 VINA RESULT:      -5.4      2.403      7.202
  Name = 
  27 active torsions:
  status: ('A' for Active; 'I' for Inactive)
    1  A    between atoms: C_2  and  O_51
    2  A    between atoms: C_3  and  C_13
    3  A    between atoms: C_3  and  C_16
    4  A    between atoms: C_5  and  C_62
    5  A    between atoms: C_6  and  C_21
    6  A    between atoms: C_6  and  C_53
    7  A    between atoms: O_7  and  C_27
    8  A    between atoms: O_7  and  C_35
    9  A    between atoms: C_9  and  C_12
   10  A    between atoms: C_9  and  C_36
   11  A    between atoms: C_12  and  C_45
   12  A    between atoms: C_12  and  C_62
   13  A    between atoms: C_13  and  C_40
   14  A    between atoms: C_15  and  C_21
   15  A    between atoms: C_15  and  C_30
   16  A    between atoms: C_16  and  C_28
   17  A    between atoms: C_24  and  C_50
   18  A    between atoms: C_24  and  C_54
   19  A    between atoms: C_27  and  C_50
   20  A    between atoms: C_28  and  C_53
   21  A    between atoms: C_30  and  C_47
   22  A    between atoms: N_31  and  C_40
   23  A    between atoms: C_34  and  C_57
   24  A    between atoms: C_36  and  C_54
   25  A    between atoms: C_41  and  C_44
   26  A    between atoms: C_49  and  C_55
   27  A    between atoms: C_49  and  C_57
                            x       y       z     vdW  Elec       q    Type
                         _______ _______ _______ _____ _____    ______ ____

>  <TORSDO>
F 27

$$$$
=
 OpenBabel11042416333D

 62 66  0  0  1  0  0  0  0  0999 V2000
  193.1930  175.1170  143.2710 C   0  0  0  0  0  0  0  0  0  0  0  0
  191.0430  176.4740  143.8760 C   0  0  0  0  0  3  0  0  0  0  0  0
  192.1290  175.8020  143.5890 C   0  0  0  0  0  0  0  0  0  0  0  0
  195.0310  173.9150  144.4510 C   0  0  0  0  0  1  0  0  0  0  0  0
  194.4400  175.2700  144.0890 C   0  0  1  0  0  3  0  0  0  0  0  0
  195.4600  176.1360  143.4060 C   0  0  0  0  0  0  0  0  0  0  0  0
  195.8870  177.1420  143.9550 O   0  0  0  0  0  0  0  0  0  0  0  0
  195.9060  175.8280  142.0120 C   0  0  1  0  0  3  0  0  0  0  0  0
  195.4310  176.7900  141.1210 O   0  0  0  0  0  1  0  0  0  0  0  0
  197.4240  175.7680  141.9610 C   0  0  0  0  0  2  0  0  0  0  0  0
  197.9410  175.7130  140.5280 C   0  0  0  0  0  2  0  0  0  0  0  0
  194.8030  172.5630  136.0930 C   0  0  1  0  0  3  0  0  0  0  0  0
  197.4280  172.0870  139.4300 C   0  0  0  0  0  0  0  0  0  0  0  0
  196.0200  171.1370  137.4890 C   0  0  2  0  0  3  0  0  0  0  0  0
  195.9920  173.5480  138.0650 C   0  0  1  0  0  3  0  0  0  0  0  0
  197.8200  173.2680  140.2140 C   0  0  0  0  0  3  0  0  0  0  0  0
  197.6450  170.9340  139.8890 O   0  0  0  0  0  0  0  0  0  0  0  0
  195.4260  173.8540  136.6790 C   0  0  0  0  0  0  0  0  0  0  0  0
  195.6150  171.4000  136.1540 O   0  0  0  0  0  0  0  0  0  0  0  0
  194.3900  174.9630  136.7750 C   0  0  0  0  0  1  0  0  0  0  0  0
  196.5330  174.3230  135.7450 C   0  0  0  0  0  1  0  0  0  0  0  0
  197.4740  174.4930  139.7940 C   0  0  0  0  0  0  0  0  0  0  0  0
  196.8670  172.2940  138.0410 C   0  0  1  0  0  3  0  0  0  0  0  0
  196.7580  169.9500  137.5050 O   0  0  0  0  0  1  0  0  0  0  0  0
  196.7000  174.6500  138.6350 O   0  0  0  0  0  0  0  0  0  0  0  0
  192.7930  172.0510  135.1030 C   0  0  0  0  0  1  0  0  0  0  0  0
  193.4290  172.3220  136.3240 O   0  0  0  0  0  0  0  0  0  0  0  0
  193.1110  174.0980  142.1760 C   0  0  0  0  0  2  0  0  0  0  0  0
  192.4050  174.6700  140.9530 C   0  0  0  0  0  2  0  0  0  0  0  0
  192.7050  173.8190  139.7300 C   0  0  0  0  0  2  0  0  0  0  0  0
  191.4400  173.1360  139.2370 C   0  0  0  0  0  2  0  0  0  0  0  0
  188.9830  172.5340  137.9080 O   0  0  0  0  0  0  0  0  0  0  0  0
  190.9530  173.7860  138.0280 N   0  0  0  0  0  2  0  0  0  0  0  0
  189.7030  173.4440  137.4180 C   0  0  0  0  0  0  0  0  0  0  0  0
  188.5100  175.1610  136.3180 O   0  0  0  0  0  1  0  0  0  0  0  0
  189.6800  173.7400  134.9590 O   0  0  0  0  0  0  0  0  0  0  0  0
  189.2600  174.1580  136.2160 C   0  0  0  0  0  0  0  0  0  0  0  0
  189.6600  175.8830  143.8030 C   0  0  2  0  0  3  0  0  0  0  0  0
  189.2740  177.9730  142.6760 O   0  0  0  0  0  1  0  0  0  0  0  0
  188.8140  176.6570  142.7880 C   0  0  1  0  0  3  0  0  0  0  0  0
  188.7830  175.9940  141.4350 C   0  0  0  0  0  3  0  0  0  0  0  0
  188.5460  174.6870  141.2660 C   0  0  0  0  0  3  0  0  0  0  0  0
  188.2790  173.7520  142.4060 C   0  0  0  0  0  2  0  0  0  0  0  0
  188.8400  172.3780  142.0890 C   0  0  0  0  0  2  0  0  0  0  0  0
  190.6900  170.8770  142.7830 C   0  0  0  0  0  0  0  0  0  0  0  0
  190.4380  171.9460  143.8600 C   0  0  0  0  0  2  0  0  0  0  0  0
  191.8370  170.8420  141.9880 O   0  0  0  0  0  0  0  0  0  0  0  0
  190.3070  172.3350  142.4610 C   0  0  2  0  0  3  0  0  0  0  0  0
  191.9440  170.4820  143.2460 O   0  0  0  0  0  0  0  0  0  0  0  0
  188.9770  175.7540  145.1710 C   0  0  0  0  0  2  0  0  0  0  0  0
  187.5480  176.2580  145.1240 C   0  0  0  0  0  2  0  0  0  0  0  0
  187.3430  177.3110  146.2000 C   0  0  0  0  0  2  0  0  0  0  0  0
  185.8790  177.4150  146.6160 C   0  0  0  0  0  2  0  0  0  0  0  0
  185.3800  178.8490  146.5390 C   0  0  0  0  0  2  0  0  0  0  0  0
  185.2520  179.2770  145.0870 C   0  0  0  0  0  2  0  0  0  0  0  0
  184.5610  178.2790  144.3410 O   0  0  0  0  0  0  0  0  0  0  0  0
  184.4880  178.2280  140.1400 C   0  0  0  0  0  3  0  0  0  0  0  0
  183.2850  178.2870  140.8500 C   0  0  0  0  0  3  0  0  0  0  0  0
  185.7040  178.1970  140.8280 C   0  0  0  0  0  3  0  0  0  0  0  0
  184.5180  178.2680  142.9430 C   0  0  0  0  0  0  0  0  0  0  0  0
  183.2980  178.3080  142.2460 C   0  0  0  0  0  3  0  0  0  0  0  0
  185.7180  178.2190  142.2260 C   0  0  0  0  0  3  0  0  0  0  0  0
  1  3  2  0  0  0  0
  1  5  1  0  0  0  0
  3  2  2  0  0  0  0
  5  4  1  6  0  0  0
  6  7  2  0  0  0  0
  6  5  1  0  0  0  0
  8  9  1  6  0  0  0
  8  6  1  0  0  0  0
 10  8  1  0  0  0  0
 11 10  1  0  0  0  0
 12 19  1  0  0  0  0
 12 27  1  1  0  0  0
 12 18  1  0  0  0  0
 13 17  2  0  0  0  0
 13 16  1  0  0  0  0
 14 24  1  6  0  0  0
 14 23  1  0  0  0  0
 15 25  1  6  0  0  0
 18 20  1  0  0  0  0
 18 15  1  0  0  0  0
 19 14  1  0  0  0  0
 21 18  1  0  0  0  0
 22 16  2  0  0  0  0
 22 11  1  0  0  0  0
 23 15  1  0  0  0  0
 23 13  1  1  0  0  0
 25 22  1  0  0  0  0
 26 27  1  0  0  0  0
 28  1  1  0  0  0  0
 29 28  1  0  0  0  0
 30 29  1  0  0  0  0
 31 30  1  0  0  0  0
 33 31  1  0  0  0  0
 34 32  2  0  0  0  0
 34 33  1  0  0  0  0
 36 37  2  0  0  0  0
 37 35  1  0  0  0  0
 37 34  1  0  0  0  0
 38  2  1  1  0  0  0
 38 50  1  0  0  0  0
 40 39  1  6  0  0  0
 40 38  1  0  0  0  0
 41 40  1  0  0  0  0
 42 41  2  0  0  0  0
 42 43  1  0  0  0  0
 44 43  1  0  0  0  0
 45 49  1  0  0  0  0
 45 46  1  0  0  0  0
 47 45  1  0  0  0  0
 47 49  1  0  0  0  0
 48 44  1  1  0  0  0
 48 45  1  0  0  0  0
 48 46  1  0  0  0  0
 51 50  1  0  0  0  0
 51 52  1  0  0  0  0
 52 53  1  0  0  0  0
 54 53  1  0  0  0  0
 55 54  1  0  0  0  0
 56 55  1  0  0  0  0
 57 59  2  0  0  0  0
 57 58  1  0  0  0  0
 58 61  2  0  0  0  0
 59 62  1  0  0  0  0
 60 56  1  0  0  0  0
 61 60  1  0  0  0  0
 62 60  2  0  0  0  0
M  END
>  <MODEL>
9

>  <REMARK>
 VINA RESULT:      -5.3      2.344      7.144
  Name = 
  27 active torsions:
  status: ('A' for Active; 'I' for Inactive)
    1  A    between atoms: C_2  and  O_51
    2  A    between atoms: C_3  and  C_13
    3  A    between atoms: C_3  and  C_16
    4  A    between atoms: C_5  and  C_62
    5  A    between atoms: C_6  and  C_21
    6  A    between atoms: C_6  and  C_53
    7  A    between atoms: O_7  and  C_27
    8  A    between atoms: O_7  and  C_35
    9  A    between atoms: C_9  and  C_12
   10  A    between atoms: C_9  and  C_36
   11  A    between atoms: C_12  and  C_45
   12  A    between atoms: C_12  and  C_62
   13  A    between atoms: C_13  and  C_40
   14  A    between atoms: C_15  and  C_21
   15  A    between atoms: C_15  and  C_30
   16  A    between atoms: C_16  and  C_28
   17  A    between atoms: C_24  and  C_50
   18  A    between atoms: C_24  and  C_54
   19  A    between atoms: C_27  and  C_50
   20  A    between atoms: C_28  and  C_53
   21  A    between atoms: C_30  and  C_47
   22  A    between atoms: N_31  and  C_40
   23  A    between atoms: C_34  and  C_57
   24  A    between atoms: C_36  and  C_54
   25  A    between atoms: C_41  and  C_44
   26  A    between atoms: C_49  and  C_55
   27  A    between atoms: C_49  and  C_57
                            x       y       z     vdW  Elec       q    Type
                         _______ _______ _______ _____ _____    ______ ____

>  <TORSDO>
F 27

$$$$
