=
 OpenBabel11042414433D

 36 37  0  0  1  0  0  0  0  0999 V2000
  190.0540  174.4480  145.7660 C   0  0  0  0  0  0  0  0  0  0  0  0
  191.2990  174.5840  146.1200 N   0  0  0  0  0  0  0  0  0  0  0  0
  189.1530  175.5570  145.8600 N   0  0  0  0  0  0  0  0  0  0  0  0
  188.3180  175.6720  146.8400 C   0  0  0  0  0  3  0  0  0  0  0  0
  187.4360  176.7850  146.8980 N   0  0  0  0  0  0  0  0  0  0  0  0
  186.6620  177.0450  145.8970 C   0  0  0  0  0  3  0  0  0  0  0  0
  185.6430  178.8980  146.9640 O   0  0  0  0  0  0  0  0  0  0  0  0
  185.7400  178.1880  145.9270 C   0  0  0  0  0  0  0  0  0  0  0  0
  184.8960  178.5130  144.7380 C   0  0  2  0  0  3  0  0  0  0  0  0
  185.5640  179.5790  143.8900 C   0  0  0  0  0  1  0  0  0  0  0  0
  183.6360  178.9530  145.1430 O   0  0  0  0  0  1  0  0  0  0  0  0
  191.8770  175.8170  146.6470 C   0  0  1  0  0  3  0  0  0  0  0  0
  191.5760  175.9610  148.1340 C   0  0  0  0  0  1  0  0  0  0  0  0
  193.3830  175.8390  146.4000 C   0  0  0  0  0  2  0  0  0  0  0  0
  193.7590  176.8000  145.2760 C   0  0  0  0  0  2  0  0  0  0  0  0
  194.1420  176.0310  144.0090 C   0  0  2  0  0  3  0  0  0  0  0  0
  195.3870  176.4330  143.4680 O   0  0  0  0  0  0  0  0  0  0  0  0
  195.4070  176.1430  142.0920 C   0  0  0  0  0  1  0  0  0  0  0  0
  193.0180  176.0300  142.9680 C   0  0  0  0  0  2  0  0  0  0  0  0
  190.2190  175.9190  142.4050 O   0  0  0  0  0  0  0  0  0  0  0  0
  192.0580  177.0940  143.2360 N   0  0  0  0  0  2  0  0  0  0  0  0
  190.6690  176.9690  142.9360 C   0  0  0  0  0  0  0  0  0  0  0  0
  189.7380  178.0800  143.2750 C   0  0  0  0  0  2  0  0  0  0  0  0
  188.5600  178.0800  142.3210 C   0  0  0  0  0  1  0  0  0  0  0  0
  189.5880  173.2130  145.2940 O   0  0  0  0  0  0  0  0  0  0  0  0
  190.3610  172.3420  144.4700 C   0  0  0  0  0  2  0  0  0  0  0  0
  188.3880  173.2460  138.5910 S   0  0  0  0  0  0  0  0  0  0  0  0
  189.1160  173.0660  140.0890 C   0  0  0  0  0  0  0  0  0  0  0  0
  191.4770  172.9560  140.9340 N   0  0  0  0  0  0  0  0  0  0  0  0
  189.8010  173.3280  137.6800 C   0  0  0  0  0  3  0  0  0  0  0  0
  191.3540  172.7720  142.2130 C   0  0  0  0  0  3  0  0  0  0  0  0
  190.8680  173.2160  138.5700 C   0  0  0  0  0  3  0  0  0  0  0  0
  190.1320  172.6200  143.0200 C   0  0  0  0  0  0  0  0  0  0  0  0
  188.3810  172.9560  141.2990 N   0  0  0  0  0  2  0  0  0  0  0  0
  188.8630  172.7200  142.6210 C   0  0  0  0  0  3  0  0  0  0  0  0
  190.4870  173.0700  139.9120 C   0  0  0  0  0  0  0  0  0  0  0  0
  1  3  1  0  0  0  0
  1  2  2  0  0  0  0
  2 12  1  0  0  0  0
  3  4  2  0  0  0  0
  4  5  1  0  0  0  0
  6  8  1  0  0  0  0
  6  5  2  0  0  0  0
  8  7  2  0  0  0  0
  9 10  1  1  0  0  0
  9 11  1  0  0  0  0
  9  8  1  0  0  0  0
 12 13  1  1  0  0  0
 14 12  1  0  0  0  0
 15 14  1  0  0  0  0
 16 19  1  6  0  0  0
 16 15  1  0  0  0  0
 17 16  1  0  0  0  0
 18 17  1  0  0  0  0
 19 21  1  0  0  0  0
 20 22  2  0  0  0  0
 22 21  1  0  0  0  0
 22 23  1  0  0  0  0
 24 23  1  0  0  0  0
 25  1  1  0  0  0  0
 26 25  1  0  0  0  0
 27 28  1  0  0  0  0
 28 34  1  0  0  0  0
 29 31  2  0  0  0  0
 30 32  2  0  0  0  0
 30 27  1  0  0  0  0
 31 33  1  0  0  0  0
 32 36  1  0  0  0  0
 33 26  1  0  0  0  0
 34 35  1  0  0  0  0
 35 33  2  0  0  0  0
 36 28  2  0  0  0  0
 36 29  1  0  0  0  0
M  END
>  <MODEL>
1

>  <REMARK>
 VINA RESULT:      -5.9      0.000      0.000
  Name = 
  15 active torsions:
  status: ('A' for Active; 'I' for Inactive)
    1  A    between atoms: N_1  and  C_18
    2  A    between atoms: O_7  and  C_14
    3  A    between atoms: O_7  and  C_18
    4  A    between atoms: C_9  and  C_23
    5  A    between atoms: C_10  and  N_21
    6  A    between atoms: C_10  and  C_24
    7  A    between atoms: C_11  and  N_30
    8  A    between atoms: C_11  and  C_31
    9  A    between atoms: C_13  and  C_17
   10  A    between atoms: C_14  and  C_25
   11  A    between atoms: C_15  and  C_24
   12  A    between atoms: C_15  and  C_31
   13  A    between atoms: C_17  and  C_29
   14  A    between atoms: N_20  and  C_22
   15  A    between atoms: C_24  and  O_27
                            x       y       z     vdW  Elec       q    Type
                         _______ _______ _______ _____ _____    ______ ____

>  <TORSDO>
F 15

$$$$
=
 OpenBabel11042414433D

 36 37  0  0  1  0  0  0  0  0999 V2000
  189.2770  175.0630  143.0070 C   0  0  0  0  0  0  0  0  0  0  0  0
  188.3250  175.9330  142.8300 N   0  0  0  0  0  0  0  0  0  0  0  0
  190.5240  175.4670  143.5840 N   0  0  0  0  0  0  0  0  0  0  0  0
  191.3840  174.6050  144.0160 C   0  0  0  0  0  3  0  0  0  0  0  0
  192.6100  175.0440  144.5860 N   0  0  0  0  0  0  0  0  0  0  0  0
  193.1560  176.1390  144.1710 C   0  0  0  0  0  3  0  0  0  0  0  0
  194.4240  177.2980  145.8000 O   0  0  0  0  0  0  0  0  0  0  0  0
  194.4220  176.6180  144.7400 C   0  0  0  0  0  0  0  0  0  0  0  0
  195.7190  176.3190  144.0610 C   0  0  2  0  0  3  0  0  0  0  0  0
  195.5080  176.1410  142.5700 C   0  0  0  0  0  1  0  0  0  0  0  0
  196.2940  175.1670  144.5980 O   0  0  0  0  0  1  0  0  0  0  0  0
  188.4290  177.3500  143.1660 C   0  0  1  0  0  3  0  0  0  0  0  0
  188.7370  178.1770  141.9240 C   0  0  0  0  0  1  0  0  0  0  0  0
  187.1380  177.8300  143.8240 C   0  0  0  0  0  2  0  0  0  0  0  0
  186.2410  176.6640  144.2300 C   0  0  0  0  0  2  0  0  0  0  0  0
  185.6580  176.8880  145.6270 C   0  0  2  0  0  3  0  0  0  0  0  0
  184.5520  177.7710  145.6350 O   0  0  0  0  0  0  0  0  0  0  0  0
  184.5830  178.5400  146.8120 C   0  0  0  0  0  1  0  0  0  0  0  0
  186.7310  177.2760  146.6490 C   0  0  0  0  0  2  0  0  0  0  0  0
  189.5780  177.1990  146.4100 O   0  0  0  0  0  0  0  0  0  0  0  0
  187.5780  176.1350  146.9760 N   0  0  0  0  0  2  0  0  0  0  0  0
  188.9970  176.1670  146.8390 C   0  0  0  0  0  0  0  0  0  0  0  0
  189.8030  174.9780  147.2300 C   0  0  0  0  0  2  0  0  0  0  0  0
  191.0890  175.4200  147.8980 C   0  0  0  0  0  1  0  0  0  0  0  0
  189.0890  173.7270  142.6280 O   0  0  0  0  0  0  0  0  0  0  0  0
  188.1730  173.3180  141.6130 C   0  0  0  0  0  2  0  0  0  0  0  0
  190.1750  173.4080  135.6750 S   0  0  0  0  0  0  0  0  0  0  0  0
  189.8250  173.2690  137.3070 C   0  0  0  0  0  0  0  0  0  0  0  0
  190.6880  171.8850  139.2160 N   0  0  0  0  0  0  0  0  0  0  0  0
  191.3830  172.2370  135.6210 C   0  0  0  0  0  3  0  0  0  0  0  0
  189.9600  172.2420  140.2290 C   0  0  0  0  0  3  0  0  0  0  0  0
  191.5190  171.7280  136.9120 C   0  0  0  0  0  3  0  0  0  0  0  0
  188.8480  173.2060  140.2850 C   0  0  0  0  0  0  0  0  0  0  0  0
  188.8440  174.0620  137.9600 N   0  0  0  0  0  2  0  0  0  0  0  0
  188.3910  173.9950  139.3110 C   0  0  0  0  0  3  0  0  0  0  0  0
  190.6500  172.3030  137.8520 C   0  0  0  0  0  0  0  0  0  0  0  0
  1  3  1  0  0  0  0
  2  1  2  0  0  0  0
  2 12  1  0  0  0  0
  3  4  2  0  0  0  0
  4  5  1  0  0  0  0
  6  5  2  0  0  0  0
  6  8  1  0  0  0  0
  8  7  2  0  0  0  0
  9 10  1  6  0  0  0
  9 11  1  0  0  0  0
  9  8  1  0  0  0  0
 12 13  1  6  0  0  0
 12 14  1  0  0  0  0
 14 15  1  0  0  0  0
 16 15  1  6  0  0  0
 16 17  1  0  0  0  0
 16 19  1  0  0  0  0
 17 18  1  0  0  0  0
 19 21  1  0  0  0  0
 20 22  2  0  0  0  0
 22 21  1  0  0  0  0
 22 23  1  0  0  0  0
 23 24  1  0  0  0  0
 25  1  1  0  0  0  0
 26 25  1  0  0  0  0
 27 28  1  0  0  0  0
 28 36  2  0  0  0  0
 28 34  1  0  0  0  0
 29 31  2  0  0  0  0
 30 27  1  0  0  0  0
 30 32  2  0  0  0  0
 31 33  1  0  0  0  0
 32 36  1  0  0  0  0
 33 26  1  0  0  0  0
 34 35  1  0  0  0  0
 35 33  2  0  0  0  0
 36 29  1  0  0  0  0
M  END
>  <MODEL>
2

>  <REMARK>
 VINA RESULT:      -5.8      1.951      6.536
  Name = 
  15 active torsions:
  status: ('A' for Active; 'I' for Inactive)
    1  A    between atoms: N_1  and  C_18
    2  A    between atoms: O_7  and  C_14
    3  A    between atoms: O_7  and  C_18
    4  A    between atoms: C_9  and  C_23
    5  A    between atoms: C_10  and  N_21
    6  A    between atoms: C_10  and  C_24
    7  A    between atoms: C_11  and  N_30
    8  A    between atoms: C_11  and  C_31
    9  A    between atoms: C_13  and  C_17
   10  A    between atoms: C_14  and  C_25
   11  A    between atoms: C_15  and  C_24
   12  A    between atoms: C_15  and  C_31
   13  A    between atoms: C_17  and  C_29
   14  A    between atoms: N_20  and  C_22
   15  A    between atoms: C_24  and  O_27
                            x       y       z     vdW  Elec       q    Type
                         _______ _______ _______ _____ _____    ______ ____

>  <TORSDO>
F 15

$$$$
=
 OpenBabel11042414433D

 36 37  0  0  1  0  0  0  0  0999 V2000
  190.3630  173.5790  144.5820 C   0  0  0  0  0  0  0  0  0  0  0  0
  191.6200  173.2820  144.7400 N   0  0  0  0  0  0  0  0  0  0  0  0
  189.7320  173.3920  143.3100 N   0  0  0  0  0  0  0  0  0  0  0  0
  189.3490  174.3940  142.5890 C   0  0  0  0  0  3  0  0  0  0  0  0
  188.7230  174.1690  141.3320 N   0  0  0  0  0  0  0  0  0  0  0  0
  189.4430  173.8970  140.2950 C   0  0  0  0  0  3  0  0  0  0  0  0
  187.9920  174.4810  138.5170 O   0  0  0  0  0  0  0  0  0  0  0  0
  188.8260  173.6600  138.9830 C   0  0  0  0  0  0  0  0  0  0  0  0
  189.1670  172.4380  138.1940 C   0  0  2  0  0  3  0  0  0  0  0  0
  189.8960  171.4320  139.0650 C   0  0  0  0  0  1  0  0  0  0  0  0
  189.9590  172.7740  137.0960 O   0  0  0  0  0  1  0  0  0  0  0  0
  192.4860  172.7710  143.6810 C   0  0  1  0  0  3  0  0  0  0  0  0
  193.1590  173.9170  142.9360 C   0  0  0  0  0  1  0  0  0  0  0  0
  193.5310  171.8260  144.2680 C   0  0  0  0  0  2  0  0  0  0  0  0
  194.2700  172.4570  145.4450 C   0  0  0  0  0  2  0  0  0  0  0  0
  195.7780  172.4910  145.1850 C   0  0  2  0  0  3  0  0  0  0  0  0
  196.5320  171.8520  146.1970 O   0  0  0  0  0  0  0  0  0  0  0  0
  197.1110  170.6820  145.6710 C   0  0  0  0  0  1  0  0  0  0  0  0
  196.2810  173.9050  144.8760 C   0  0  0  0  0  2  0  0  0  0  0  0
  195.8370  176.5450  143.8780 O   0  0  0  0  0  0  0  0  0  0  0  0
  195.4250  174.9100  145.4940 N   0  0  0  0  0  2  0  0  0  0  0  0
  195.2420  176.2110  144.9370 C   0  0  0  0  0  0  0  0  0  0  0  0
  194.3200  177.1740  145.5990 C   0  0  0  0  0  2  0  0  0  0  0  0
  193.4720  176.4540  146.6290 C   0  0  0  0  0  1  0  0  0  0  0  0
  189.6200  174.0880  145.6560 O   0  0  0  0  0  0  0  0  0  0  0  0
  189.8310  175.3840  146.2160 C   0  0  0  0  0  2  0  0  0  0  0  0
  184.3820  178.4760  146.0440 S   0  0  0  0  0  0  0  0  0  0  0  0
  185.9100  177.7960  145.9390 C   0  0  0  0  0  0  0  0  0  0  0  0
  187.8530  177.9850  144.3600 N   0  0  0  0  0  0  0  0  0  0  0  0
  184.4770  179.4180  144.6530 C   0  0  0  0  0  3  0  0  0  0  0  0
  188.7350  177.1590  144.8320 C   0  0  0  0  0  3  0  0  0  0  0  0
  185.7350  179.1990  144.0950 C   0  0  0  0  0  3  0  0  0  0  0  0
  188.6460  176.2680  146.0020 C   0  0  0  0  0  0  0  0  0  0  0  0
  186.4200  176.8820  146.8990 N   0  0  0  0  0  2  0  0  0  0  0  0
  187.6560  176.1720  146.8920 C   0  0  0  0  0  3  0  0  0  0  0  0
  186.5340  178.2950  144.8100 C   0  0  0  0  0  0  0  0  0  0  0  0
  1  2  2  0  0  0  0
  1 25  1  0  0  0  0
  3  1  1  0  0  0  0
  4  3  2  0  0  0  0
  5  4  1  0  0  0  0
  6  5  2  0  0  0  0
  7  8  2  0  0  0  0
  8  6  1  0  0  0  0
  9  8  1  0  0  0  0
  9 10  1  1  0  0  0
 11  9  1  0  0  0  0
 12 13  1  1  0  0  0
 12 14  1  0  0  0  0
 12  2  1  0  0  0  0
 14 15  1  0  0  0  0
 16 19  1  1  0  0  0
 16 15  1  0  0  0  0
 16 17  1  0  0  0  0
 18 17  1  0  0  0  0
 19 21  1  0  0  0  0
 20 22  2  0  0  0  0
 22 21  1  0  0  0  0
 22 23  1  0  0  0  0
 23 24  1  0  0  0  0
 25 26  1  0  0  0  0
 28 27  1  0  0  0  0
 28 34  1  0  0  0  0
 29 36  1  0  0  0  0
 29 31  2  0  0  0  0
 30 27  1  0  0  0  0
 31 33  1  0  0  0  0
 32 30  2  0  0  0  0
 32 36  1  0  0  0  0
 33 26  1  0  0  0  0
 33 35  2  0  0  0  0
 35 34  1  0  0  0  0
 36 28  2  0  0  0  0
M  END
>  <MODEL>
3

>  <REMARK>
 VINA RESULT:      -5.6      3.126      6.769
  Name = 
  15 active torsions:
  status: ('A' for Active; 'I' for Inactive)
    1  A    between atoms: N_1  and  C_18
    2  A    between atoms: O_7  and  C_14
    3  A    between atoms: O_7  and  C_18
    4  A    between atoms: C_9  and  C_23
    5  A    between atoms: C_10  and  N_21
    6  A    between atoms: C_10  and  C_24
    7  A    between atoms: C_11  and  N_30
    8  A    between atoms: C_11  and  C_31
    9  A    between atoms: C_13  and  C_17
   10  A    between atoms: C_14  and  C_25
   11  A    between atoms: C_15  and  C_24
   12  A    between atoms: C_15  and  C_31
   13  A    between atoms: C_17  and  C_29
   14  A    between atoms: N_20  and  C_22
   15  A    between atoms: C_24  and  O_27
                            x       y       z     vdW  Elec       q    Type
                         _______ _______ _______ _____ _____    ______ ____

>  <TORSDO>
F 15

$$$$
=
 OpenBabel11042414433D

 36 37  0  0  1  0  0  0  0  0999 V2000
  190.9360  175.2920  144.2680 C   0  0  0  0  0  0  0  0  0  0  0  0
  190.4090  175.8660  145.3100 N   0  0  0  0  0  0  0  0  0  0  0  0
  190.0960  174.7510  143.2420 N   0  0  0  0  0  0  0  0  0  0  0  0
  189.7840  175.4330  142.1900 C   0  0  0  0  0  3  0  0  0  0  0  0
  188.9450  174.8640  141.1940 N   0  0  0  0  0  0  0  0  0  0  0  0
  189.3320  173.8110  140.5520 C   0  0  0  0  0  3  0  0  0  0  0  0
  187.6970  172.2650  139.8140 O   0  0  0  0  0  0  0  0  0  0  0  0
  188.4870  173.2000  139.5180 C   0  0  0  0  0  0  0  0  0  0  0  0
  188.5650  173.6690  138.1010 C   0  0  2  0  0  3  0  0  0  0  0  0
  190.0090  173.9000  137.6980 C   0  0  0  0  0  1  0  0  0  0  0  0
  187.8350  174.8460  137.9390 O   0  0  0  0  0  1  0  0  0  0  0  0
  188.9730  175.9970  145.5430 C   0  0  1  0  0  3  0  0  0  0  0  0
  188.5900  175.3990  146.8910 C   0  0  0  0  0  1  0  0  0  0  0  0
  188.5600  177.4640  145.4700 C   0  0  0  0  0  2  0  0  0  0  0  0
  187.4460  177.6900  144.4510 C   0  0  0  0  0  2  0  0  0  0  0  0
  186.2860  178.4680  145.0780 C   0  0  2  0  0  3  0  0  0  0  0  0
  185.3750  177.6410  145.7770 O   0  0  0  0  0  0  0  0  0  0  0  0
  184.2020  178.3710  146.0440 C   0  0  0  0  0  1  0  0  0  0  0  0
  185.5950  179.3900  144.0690 C   0  0  0  0  0  2  0  0  0  0  0  0
  183.6670  178.2230  142.3130 O   0  0  0  0  0  0  0  0  0  0  0  0
  185.8500  178.9540  142.7020 N   0  0  0  0  0  2  0  0  0  0  0  0
  184.8370  178.3840  141.8750 C   0  0  0  0  0  0  0  0  0  0  0  0
  185.1590  177.9980  140.4740 C   0  0  0  0  0  2  0  0  0  0  0  0
  186.5850  177.4930  140.3900 C   0  0  0  0  0  1  0  0  0  0  0  0
  192.3290  175.1940  144.1480 O   0  0  0  0  0  0  0  0  0  0  0  0
  193.2090  175.0640  145.2640 C   0  0  0  0  0  2  0  0  0  0  0  0
  195.1700  169.1110  145.2140 S   0  0  0  0  0  0  0  0  0  0  0  0
  194.8610  170.7580  145.2250 C   0  0  0  0  0  0  0  0  0  0  0  0
  196.2100  172.8340  145.6420 N   0  0  0  0  0  0  0  0  0  0  0  0
  196.8020  169.2030  145.6170 C   0  0  0  0  0  3  0  0  0  0  0  0
  195.3560  173.8030  145.5270 C   0  0  0  0  0  3  0  0  0  0  0  0
  197.1130  170.5540  145.7590 C   0  0  0  0  0  3  0  0  0  0  0  0
  193.9100  173.7440  145.2520 C   0  0  0  0  0  0  0  0  0  0  0  0
  193.5860  171.3090  144.9270 N   0  0  0  0  0  0  0  0  0  0  0  0
  193.1660  172.6710  144.9770 C   0  0  0  0  0  3  0  0  0  0  0  0
  196.0320  171.4210  145.5410 C   0  0  2  0  0  3  0  0  0  0  0  0
  1  2  2  0  0  0  0
  2 12  1  0  0  0  0
  3  1  1  0  0  0  0
  4  3  2  0  0  0  0
  5  4  1  0  0  0  0
  6  5  2  0  0  0  0
  8  7  2  0  0  0  0
  8  6  1  0  0  0  0
  9 10  1  1  0  0  0
  9  8  1  0  0  0  0
 11  9  1  0  0  0  0
 12 13  1  1  0  0  0
 14 12  1  0  0  0  0
 15 16  1  0  0  0  0
 15 14  1  0  0  0  0
 16 19  1  6  0  0  0
 16 17  1  0  0  0  0
 17 18  1  0  0  0  0
 21 19  1  0  0  0  0
 22 20  2  0  0  0  0
 22 21  1  0  0  0  0
 23 22  1  0  0  0  0
 24 23  1  0  0  0  0
 25  1  1  0  0  0  0
 25 26  1  0  0  0  0
 27 28  1  0  0  0  0
 27 30  1  0  0  0  0
 28 36  1  0  0  0  0
 30 32  2  0  0  0  0
 31 29  2  0  0  0  0
 33 26  1  0  0  0  0
 33 31  1  0  0  0  0
 34 35  1  0  0  0  0
 34 28  2  0  0  0  0
 35 33  2  0  0  0  0
 36 29  1  0  0  0  0
 36 32  1  6  0  0  0
M  END
>  <MODEL>
4

>  <REMARK>
 VINA RESULT:      -5.6      3.674      7.168
  Name = 
  15 active torsions:
  status: ('A' for Active; 'I' for Inactive)
    1  A    between atoms: N_1  and  C_18
    2  A    between atoms: O_7  and  C_14
    3  A    between atoms: O_7  and  C_18
    4  A    between atoms: C_9  and  C_23
    5  A    between atoms: C_10  and  N_21
    6  A    between atoms: C_10  and  C_24
    7  A    between atoms: C_11  and  N_30
    8  A    between atoms: C_11  and  C_31
    9  A    between atoms: C_13  and  C_17
   10  A    between atoms: C_14  and  C_25
   11  A    between atoms: C_15  and  C_24
   12  A    between atoms: C_15  and  C_31
   13  A    between atoms: C_17  and  C_29
   14  A    between atoms: N_20  and  C_22
   15  A    between atoms: C_24  and  O_27
                            x       y       z     vdW  Elec       q    Type
                         _______ _______ _______ _____ _____    ______ ____

>  <TORSDO>
F 15

$$$$
=
 OpenBabel11042414433D

 36 37  0  0  1  0  0  0  0  0999 V2000
  190.8830  173.9130  144.9160 C   0  0  0  0  0  0  0  0  0  0  0  0
  189.9420  174.7690  145.1900 N   0  0  0  0  0  0  0  0  0  0  0  0
  192.2300  174.3600  144.7200 N   0  0  0  0  0  0  0  0  0  0  0  0
  193.1570  174.1240  145.5890 C   0  0  0  0  0  3  0  0  0  0  0  0
  194.4820  174.5860  145.3620 N   0  0  0  0  0  0  0  0  0  0  0  0
  194.9390  174.6600  144.1560 C   0  0  0  0  0  3  0  0  0  0  0  0
  197.2950  174.4440  144.2450 O   0  0  0  0  0  0  0  0  0  0  0  0
  196.3030  175.1340  143.8900 C   0  0  0  0  0  0  0  0  0  0  0  0
  196.5310  176.4450  143.2100 C   0  0  2  0  0  3  0  0  0  0  0  0
  195.9140  176.4370  141.8240 C   0  0  0  0  0  1  0  0  0  0  0  0
  197.8980  176.7120  143.1170 O   0  0  0  0  0  1  0  0  0  0  0  0
  190.1460  176.2110  145.3020 C   0  0  1  0  0  3  0  0  0  0  0  0
  189.7430  176.9140  144.0120 C   0  0  0  0  0  1  0  0  0  0  0  0
  189.3530  176.7620  146.4840 C   0  0  0  0  0  2  0  0  0  0  0  0
  187.9930  176.0850  146.6210 C   0  0  0  0  0  2  0  0  0  0  0  0
  186.8620  177.1110  146.5210 C   0  0  2  0  0  3  0  0  0  0  0  0
  186.1870  177.3180  147.7470 O   0  0  0  0  0  0  0  0  0  0  0  0
  185.3160  178.4150  147.6170 C   0  0  0  0  0  1  0  0  0  0  0  0
  185.9050  176.8100  145.3630 C   0  0  0  0  0  2  0  0  0  0  0  0
  186.2700  175.9670  142.6570 O   0  0  0  0  0  0  0  0  0  0  0  0
  186.1640  177.6900  144.2300 N   0  0  0  0  0  2  0  0  0  0  0  0
  186.3300  177.2020  142.9000 C   0  0  0  0  0  0  0  0  0  0  0  0
  186.5510  178.1620  141.7840 C   0  0  0  0  0  2  0  0  0  0  0  0
  186.9880  177.4170  140.5380 C   0  0  0  0  0  1  0  0  0  0  0  0
  190.5820  172.5490  144.8040 O   0  0  0  0  0  0  0  0  0  0  0  0
  189.3720  172.0530  144.2330 C   0  0  0  0  0  2  0  0  0  0  0  0
  190.2880  172.1960  138.0350 S   0  0  0  0  0  0  0  0  0  0  0  0
  189.8520  172.2650  139.6510 C   0  0  0  0  0  0  0  0  0  0  0  0
  188.1500  173.5250  140.9980 N   0  0  0  0  0  0  0  0  0  0  0  0
  189.1800  173.3310  137.4720 C   0  0  0  0  0  3  0  0  0  0  0  0
  188.3560  173.1410  142.2200 C   0  0  0  0  0  3  0  0  0  0  0  0
  188.4480  173.7710  138.5740 C   0  0  0  0  0  3  0  0  0  0  0  0
  189.3680  172.2100  142.7470 C   0  0  0  0  0  0  0  0  0  0  0  0
  190.4690  171.4710  140.6540 N   0  0  0  0  0  2  0  0  0  0  0  0
  190.2560  171.4850  142.0640 C   0  0  0  0  0  3  0  0  0  0  0  0
  188.8230  173.1770  139.7880 C   0  0  0  0  0  0  0  0  0  0  0  0
  1  2  2  0  0  0  0
  2 12  1  0  0  0  0
  3  1  1  0  0  0  0
  3  4  2  0  0  0  0
  5  4  1  0  0  0  0
  6  5  2  0  0  0  0
  8  6  1  0  0  0  0
  8  7  2  0  0  0  0
  9 10  1  6  0  0  0
  9  8  1  0  0  0  0
 11  9  1  0  0  0  0
 12 13  1  6  0  0  0
 12 14  1  0  0  0  0
 14 15  1  0  0  0  0
 16 19  1  6  0  0  0
 16 15  1  0  0  0  0
 16 17  1  0  0  0  0
 18 17  1  0  0  0  0
 20 22  2  0  0  0  0
 21 19  1  0  0  0  0
 22 21  1  0  0  0  0
 23 22  1  0  0  0  0
 24 23  1  0  0  0  0
 25  1  1  0  0  0  0
 26 25  1  0  0  0  0
 27 28  1  0  0  0  0
 28 36  2  0  0  0  0
 28 34  1  0  0  0  0
 29 31  2  0  0  0  0
 30 27  1  0  0  0  0
 30 32  2  0  0  0  0
 31 33  1  0  0  0  0
 32 36  1  0  0  0  0
 33 26  1  0  0  0  0
 34 35  1  0  0  0  0
 35 33  2  0  0  0  0
 36 29  1  0  0  0  0
M  END
>  <MODEL>
5

>  <REMARK>
 VINA RESULT:      -5.5      2.003      6.496
  Name = 
  15 active torsions:
  status: ('A' for Active; 'I' for Inactive)
    1  A    between atoms: N_1  and  C_18
    2  A    between atoms: O_7  and  C_14
    3  A    between atoms: O_7  and  C_18
    4  A    between atoms: C_9  and  C_23
    5  A    between atoms: C_10  and  N_21
    6  A    between atoms: C_10  and  C_24
    7  A    between atoms: C_11  and  N_30
    8  A    between atoms: C_11  and  C_31
    9  A    between atoms: C_13  and  C_17
   10  A    between atoms: C_14  and  C_25
   11  A    between atoms: C_15  and  C_24
   12  A    between atoms: C_15  and  C_31
   13  A    between atoms: C_17  and  C_29
   14  A    between atoms: N_20  and  C_22
   15  A    between atoms: C_24  and  O_27
                            x       y       z     vdW  Elec       q    Type
                         _______ _______ _______ _____ _____    ______ ____

>  <TORSDO>
F 15

$$$$
=
 OpenBabel11042414433D

 36 37  0  0  1  0  0  0  0  0999 V2000
  190.7840  174.3850  145.0400 C   0  0  0  0  0  0  0  0  0  0  0  0
  191.8500  174.9650  145.5090 N   0  0  0  0  0  0  0  0  0  0  0  0
  190.8390  173.6670  143.8020 N   0  0  0  0  0  0  0  0  0  0  0  0
  189.8760  172.8940  143.4210 C   0  0  0  0  0  3  0  0  0  0  0  0
  189.9690  172.1940  142.1870 N   0  0  0  0  0  0  0  0  0  0  0  0
  190.0690  172.8530  141.0810 C   0  0  0  0  0  3  0  0  0  0  0  0
  190.1000  170.9020  139.7390 O   0  0  0  0  0  0  0  0  0  0  0  0
  190.1670  172.1590  139.7900 C   0  0  0  0  0  0  0  0  0  0  0  0
  190.3610  172.9310  138.5260 C   0  0  2  0  0  3  0  0  0  0  0  0
  191.7120  173.6200  138.5280 C   0  0  0  0  0  1  0  0  0  0  0  0
  189.3470  173.8790  138.3760 O   0  0  0  0  0  1  0  0  0  0  0  0
  193.1500  174.9640  144.8440 C   0  0  1  0  0  3  0  0  0  0  0  0
  193.8110  176.3320  144.9520 C   0  0  0  0  0  1  0  0  0  0  0  0
  194.0470  173.8860  145.4460 C   0  0  0  0  0  2  0  0  0  0  0  0
  195.4370  174.4220  145.7740 C   0  0  0  0  0  2  0  0  0  0  0  0
  196.5180  173.5920  145.0780 C   0  0  2  0  0  3  0  0  0  0  0  0
  197.2240  172.7430  145.9640 O   0  0  0  0  0  0  0  0  0  0  0  0
  196.7620  171.4230  145.8050 C   0  0  0  0  0  1  0  0  0  0  0  0
  197.4480  174.4530  144.2170 C   0  0  0  0  0  2  0  0  0  0  0  0
  197.1700  177.1780  143.4050 O   0  0  0  0  0  0  0  0  0  0  0  0
  196.7660  174.9120  143.0130 N   0  0  0  0  0  2  0  0  0  0  0  0
  196.6700  176.2920  142.6630 C   0  0  0  0  0  0  0  0  0  0  0  0
  195.9950  176.6860  141.3970 C   0  0  0  0  0  2  0  0  0  0  0  0
  195.1550  175.5370  140.8780 C   0  0  0  0  0  1  0  0  0  0  0  0
  189.5730  174.4640  145.7420 O   0  0  0  0  0  0  0  0  0  0  0  0
  189.3080  175.4420  146.7470 C   0  0  0  0  0  2  0  0  0  0  0  0
  184.0680  178.7340  145.7530 S   0  0  0  0  0  0  0  0  0  0  0  0
  185.5610  177.9840  145.8640 C   0  0  0  0  0  0  0  0  0  0  0  0
  187.6600  177.9530  144.4870 N   0  0  0  0  0  0  0  0  0  0  0  0
  184.3490  179.5460  144.3060 C   0  0  0  0  0  3  0  0  0  0  0  0
  188.4470  177.1340  145.1150 C   0  0  0  0  0  3  0  0  0  0  0  0
  185.6450  179.2270  143.9030 C   0  0  0  0  0  3  0  0  0  0  0  0
  188.1960  176.3530  146.3380 C   0  0  0  0  0  0  0  0  0  0  0  0
  185.9250  177.1360  146.9440 N   0  0  0  0  0  2  0  0  0  0  0  0
  187.1190  176.3770  147.1250 C   0  0  0  0  0  3  0  0  0  0  0  0
  186.3200  178.3560  144.7700 C   0  0  0  0  0  0  0  0  0  0  0  0
  1  2  2  0  0  0  0
  1 25  1  0  0  0  0
  3  1  1  0  0  0  0
  4  3  2  0  0  0  0
  5  4  1  0  0  0  0
  6  5  2  0  0  0  0
  7  8  2  0  0  0  0
  8  6  1  0  0  0  0
  9 10  1  1  0  0  0
  9  8  1  0  0  0  0
 11  9  1  0  0  0  0
 12 13  1  1  0  0  0
 12 14  1  0  0  0  0
 12  2  1  0  0  0  0
 14 15  1  0  0  0  0
 16 19  1  1  0  0  0
 16 15  1  0  0  0  0
 16 17  1  0  0  0  0
 18 17  1  0  0  0  0
 21 19  1  0  0  0  0
 22 21  1  0  0  0  0
 22 20  2  0  0  0  0
 23 22  1  0  0  0  0
 24 23  1  0  0  0  0
 25 26  1  0  0  0  0
 27 28  1  0  0  0  0
 28 34  1  0  0  0  0
 29 36  1  0  0  0  0
 29 31  2  0  0  0  0
 30 27  1  0  0  0  0
 31 33  1  0  0  0  0
 32 30  2  0  0  0  0
 32 36  1  0  0  0  0
 33 26  1  0  0  0  0
 33 35  2  0  0  0  0
 34 35  1  0  0  0  0
 36 28  2  0  0  0  0
M  END
>  <MODEL>
6

>  <REMARK>
 VINA RESULT:      -5.5      2.989      6.841
  Name = 
  15 active torsions:
  status: ('A' for Active; 'I' for Inactive)
    1  A    between atoms: N_1  and  C_18
    2  A    between atoms: O_7  and  C_14
    3  A    between atoms: O_7  and  C_18
    4  A    between atoms: C_9  and  C_23
    5  A    between atoms: C_10  and  N_21
    6  A    between atoms: C_10  and  C_24
    7  A    between atoms: C_11  and  N_30
    8  A    between atoms: C_11  and  C_31
    9  A    between atoms: C_13  and  C_17
   10  A    between atoms: C_14  and  C_25
   11  A    between atoms: C_15  and  C_24
   12  A    between atoms: C_15  and  C_31
   13  A    between atoms: C_17  and  C_29
   14  A    between atoms: N_20  and  C_22
   15  A    between atoms: C_24  and  O_27
                            x       y       z     vdW  Elec       q    Type
                         _______ _______ _______ _____ _____    ______ ____

>  <TORSDO>
F 15

$$$$
=
 OpenBabel11042414433D

 36 37  0  0  1  0  0  0  0  0999 V2000
  191.1070  174.9320  143.4240 C   0  0  0  0  0  0  0  0  0  0  0  0
  190.1100  174.0990  143.4900 N   0  0  0  0  0  0  0  0  0  0  0  0
  192.4520  174.4590  143.5590 N   0  0  0  0  0  0  0  0  0  0  0  0
  193.4680  175.2170  143.3060 C   0  0  0  0  0  3  0  0  0  0  0  0
  194.7890  174.7110  143.4480 N   0  0  0  0  0  0  0  0  0  0  0  0
  195.5220  175.0970  144.4390 C   0  0  0  0  0  3  0  0  0  0  0  0
  197.1960  173.9260  145.6370 O   0  0  0  0  0  0  0  0  0  0  0  0
  196.8900  174.5920  144.6120 C   0  0  0  0  0  0  0  0  0  0  0  0
  197.9380  174.8730  143.5850 C   0  0  2  0  0  3  0  0  0  0  0  0
  197.7920  176.2860  143.0530 C   0  0  0  0  0  1  0  0  0  0  0  0
  197.8450  173.9600  142.5340 O   0  0  0  0  0  1  0  0  0  0  0  0
  190.2480  172.6630  143.7200 C   0  0  1  0  0  3  0  0  0  0  0  0
  189.6470  172.2720  145.0640 C   0  0  0  0  0  1  0  0  0  0  0  0
  189.5840  171.8840  142.5880 C   0  0  0  0  0  2  0  0  0  0  0  0
  190.3910  171.9640  141.2950 C   0  0  0  0  0  2  0  0  0  0  0  0
  189.5720  172.6230  140.1820 C   0  0  2  0  0  3  0  0  0  0  0  0
  190.3250  173.5290  139.3980 O   0  0  0  0  0  0  0  0  0  0  0  0
  191.6490  173.5620  139.8750 C   0  0  0  0  0  1  0  0  0  0  0  0
  188.2690  173.2350  140.7060 C   0  0  0  0  0  2  0  0  0  0  0  0
  187.1360  175.2810  142.3470 O   0  0  0  0  0  0  0  0  0  0  0  0
  188.1800  174.6480  140.3570 N   0  0  0  0  0  2  0  0  0  0  0  0
  187.6060  175.6210  141.2290 C   0  0  0  0  0  0  0  0  0  0  0  0
  187.5860  177.0530  140.8250 C   0  0  0  0  0  2  0  0  0  0  0  0
  186.1560  177.5510  140.7530 C   0  0  0  0  0  1  0  0  0  0  0  0
  190.8700  176.2990  143.2250 O   0  0  0  0  0  0  0  0  0  0  0  0
  190.8520  177.2570  144.2830 C   0  0  0  0  0  2  0  0  0  0  0  0
  184.8890  178.6620  145.6070 S   0  0  0  0  0  0  0  0  0  0  0  0
  186.4840  178.1750  145.4450 C   0  0  0  0  0  0  0  0  0  0  0  0
  188.2170  177.1750  146.9610 N   0  0  0  0  0  0  0  0  0  0  0  0
  184.7210  178.2870  147.2380 C   0  0  0  0  0  3  0  0  0  0  0  0
  189.2740  177.0660  146.2170 C   0  0  0  0  0  3  0  0  0  0  0  0
  185.9400  177.7630  147.6660 C   0  0  0  0  0  3  0  0  0  0  0  0
  189.4680  177.4580  144.8100 C   0  0  0  0  0  0  0  0  0  0  0  0
  187.1960  178.2460  144.2170 N   0  0  0  0  0  0  0  0  0  0  0  0
  188.5650  177.9450  143.9570 C   0  0  0  0  0  3  0  0  0  0  0  0
  186.9230  177.7010  146.6670 C   0  0  2  0  0  3  0  0  0  0  0  0
  1  2  2  0  0  0  0
  1  3  1  0  0  0  0
  2 12  1  0  0  0  0
  4  5  1  0  0  0  0
  4  3  2  0  0  0  0
  5  6  2  0  0  0  0
  6  8  1  0  0  0  0
  8  7  2  0  0  0  0
  9 10  1  6  0  0  0
  9  8  1  0  0  0  0
 11  9  1  0  0  0  0
 12 13  1  1  0  0  0
 14 12  1  0  0  0  0
 15 14  1  0  0  0  0
 16 19  1  1  0  0  0
 16 15  1  0  0  0  0
 17 18  1  0  0  0  0
 17 16  1  0  0  0  0
 21 19  1  0  0  0  0
 21 22  1  0  0  0  0
 22 20  2  0  0  0  0
 23 22  1  0  0  0  0
 24 23  1  0  0  0  0
 25  1  1  0  0  0  0
 25 26  1  0  0  0  0
 26 33  1  0  0  0  0
 27 30  1  0  0  0  0
 28 27  1  0  0  0  0
 28 36  1  0  0  0  0
 30 32  2  0  0  0  0
 31 29  2  0  0  0  0
 33 31  1  0  0  0  0
 34 28  2  0  0  0  0
 35 34  1  0  0  0  0
 35 33  2  0  0  0  0
 36 29  1  0  0  0  0
 36 32  1  6  0  0  0
M  END
>  <MODEL>
7

>  <REMARK>
 VINA RESULT:      -5.4      2.928      7.853
  Name = 
  15 active torsions:
  status: ('A' for Active; 'I' for Inactive)
    1  A    between atoms: N_1  and  C_18
    2  A    between atoms: O_7  and  C_14
    3  A    between atoms: O_7  and  C_18
    4  A    between atoms: C_9  and  C_23
    5  A    between atoms: C_10  and  N_21
    6  A    between atoms: C_10  and  C_24
    7  A    between atoms: C_11  and  N_30
    8  A    between atoms: C_11  and  C_31
    9  A    between atoms: C_13  and  C_17
   10  A    between atoms: C_14  and  C_25
   11  A    between atoms: C_15  and  C_24
   12  A    between atoms: C_15  and  C_31
   13  A    between atoms: C_17  and  C_29
   14  A    between atoms: N_20  and  C_22
   15  A    between atoms: C_24  and  O_27
                            x       y       z     vdW  Elec       q    Type
                         _______ _______ _______ _____ _____    ______ ____

>  <TORSDO>
F 15

$$$$
=
 OpenBabel11042414433D

 36 37  0  0  1  0  0  0  0  0999 V2000
  191.8940  176.0500  142.8240 C   0  0  0  0  0  0  0  0  0  0  0  0
  193.0920  176.4580  143.1280 N   0  0  0  0  0  0  0  0  0  0  0  0
  191.7140  174.9340  141.9450 N   0  0  0  0  0  0  0  0  0  0  0  0
  190.7350  174.1030  142.0950 C   0  0  0  0  0  3  0  0  0  0  0  0
  190.5900  173.0040  141.2040 N   0  0  0  0  0  0  0  0  0  0  0  0
  190.4080  173.2180  139.9430 C   0  0  0  0  0  3  0  0  0  0  0  0
  189.3410  172.1270  138.1320 O   0  0  0  0  0  0  0  0  0  0  0  0
  190.2550  172.1040  138.9990 C   0  0  0  0  0  0  0  0  0  0  0  0
  191.1700  170.9240  139.0630 C   0  0  2  0  0  3  0  0  0  0  0  0
  191.9120  170.7570  137.7510 C   0  0  0  0  0  1  0  0  0  0  0  0
  190.4470  169.7650  139.3490 O   0  0  0  0  0  1  0  0  0  0  0  0
  194.3210  175.8620  142.6120 C   0  0  1  0  0  3  0  0  0  0  0  0
  194.6650  176.4360  141.2430 C   0  0  0  0  0  1  0  0  0  0  0  0
  195.4680  176.0920  143.5930 C   0  0  0  0  0  2  0  0  0  0  0  0
  194.9660  176.2480  145.0260 C   0  0  0  0  0  2  0  0  0  0  0  0
  195.0590  174.9210  145.7830 C   0  0  2  0  0  3  0  0  0  0  0  0
  196.1430  174.1140  145.3610 O   0  0  0  0  0  0  0  0  0  0  0  0
  195.8510  172.7660  145.6400 C   0  0  0  0  0  1  0  0  0  0  0  0
  193.7270  174.1640  145.7930 C   0  0  0  0  0  2  0  0  0  0  0  0
  190.9060  173.9620  145.3860 O   0  0  0  0  0  0  0  0  0  0  0  0
  192.7110  174.9070  146.5280 N   0  0  0  0  0  2  0  0  0  0  0  0
  191.3140  174.7520  146.2780 C   0  0  0  0  0  0  0  0  0  0  0  0
  190.3300  175.5130  147.0960 C   0  0  0  0  0  2  0  0  0  0  0  0
  189.0840  174.6790  147.3140 C   0  0  0  0  0  1  0  0  0  0  0  0
  190.7730  176.7050  143.3520 O   0  0  0  0  0  0  0  0  0  0  0  0
  189.9970  177.6530  142.6200 C   0  0  0  0  0  2  0  0  0  0  0  0
  184.1130  178.9890  144.3130 S   0  0  0  0  0  0  0  0  0  0  0  0
  185.7020  178.5270  144.0560 C   0  0  0  0  0  0  0  0  0  0  0  0
  187.5570  177.6100  145.4770 N   0  0  0  0  0  0  0  0  0  0  0  0
  184.0660  178.6640  145.9640 C   0  0  0  0  0  3  0  0  0  0  0  0
  188.5620  177.4960  144.6640 C   0  0  0  0  0  3  0  0  0  0  0  0
  185.3230  178.1780  146.3210 C   0  0  0  0  0  3  0  0  0  0  0  0
  188.6500  177.8450  143.2360 C   0  0  0  0  0  0  0  0  0  0  0  0
  186.3250  178.5710  142.7800 N   0  0  0  0  0  0  0  0  0  0  0  0
  187.6790  178.2870  142.4340 C   0  0  0  0  0  3  0  0  0  0  0  0
  186.2350  178.1010  145.2580 C   0  0  2  0  0  3  0  0  0  0  0  0
  1  2  2  0  0  0  0
  1 25  1  0  0  0  0
  3  4  2  0  0  0  0
  3  1  1  0  0  0  0
  5  4  1  0  0  0  0
  6  5  2  0  0  0  0
  7  8  2  0  0  0  0
  8  9  1  0  0  0  0
  8  6  1  0  0  0  0
  9 10  1  6  0  0  0
  9 11  1  0  0  0  0
 12 13  1  6  0  0  0
 12  2  1  0  0  0  0
 12 14  1  0  0  0  0
 14 15  1  0  0  0  0
 16 15  1  6  0  0  0
 16 19  1  0  0  0  0
 17 18  1  0  0  0  0
 17 16  1  0  0  0  0
 19 21  1  0  0  0  0
 20 22  2  0  0  0  0
 22 21  1  0  0  0  0
 22 23  1  0  0  0  0
 23 24  1  0  0  0  0
 26 33  1  0  0  0  0
 26 25  1  0  0  0  0
 27 30  1  0  0  0  0
 28 27  1  0  0  0  0
 28 36  1  0  0  0  0
 30 32  2  0  0  0  0
 31 29  2  0  0  0  0
 33 31  1  0  0  0  0
 34 28  2  0  0  0  0
 35 34  1  0  0  0  0
 35 33  2  0  0  0  0
 36 29  1  0  0  0  0
 36 32  1  6  0  0  0
M  END
>  <MODEL>
8

>  <REMARK>
 VINA RESULT:      -5.4      2.775      7.162
  Name = 
  15 active torsions:
  status: ('A' for Active; 'I' for Inactive)
    1  A    between atoms: N_1  and  C_18
    2  A    between atoms: O_7  and  C_14
    3  A    between atoms: O_7  and  C_18
    4  A    between atoms: C_9  and  C_23
    5  A    between atoms: C_10  and  N_21
    6  A    between atoms: C_10  and  C_24
    7  A    between atoms: C_11  and  N_30
    8  A    between atoms: C_11  and  C_31
    9  A    between atoms: C_13  and  C_17
   10  A    between atoms: C_14  and  C_25
   11  A    between atoms: C_15  and  C_24
   12  A    between atoms: C_15  and  C_31
   13  A    between atoms: C_17  and  C_29
   14  A    between atoms: N_20  and  C_22
   15  A    between atoms: C_24  and  O_27
                            x       y       z     vdW  Elec       q    Type
                         _______ _______ _______ _____ _____    ______ ____

>  <TORSDO>
F 15

$$$$
=
 OpenBabel11042414433D

 36 37  0  0  1  0  0  0  0  0999 V2000
  189.6070  174.8330  142.7140 C   0  0  0  0  0  0  0  0  0  0  0  0
  188.6630  175.7240  142.6200 N   0  0  0  0  0  0  0  0  0  0  0  0
  190.9090  175.2060  143.1780 N   0  0  0  0  0  0  0  0  0  0  0  0
  191.3700  174.7930  144.3130 C   0  0  0  0  0  3  0  0  0  0  0  0
  192.6660  175.1880  144.7420 N   0  0  0  0  0  0  0  0  0  0  0  0
  193.1680  176.3040  144.3290 C   0  0  0  0  0  3  0  0  0  0  0  0
  194.6420  177.4450  145.7890 O   0  0  0  0  0  0  0  0  0  0  0  0
  194.5040  176.7390  144.7550 C   0  0  0  0  0  0  0  0  0  0  0  0
  195.7130  176.3640  143.9600 C   0  0  2  0  0  3  0  0  0  0  0  0
  195.3650  176.2530  142.4880 C   0  0  0  0  0  1  0  0  0  0  0  0
  196.2360  175.1530  144.4150 O   0  0  0  0  0  1  0  0  0  0  0  0
  188.8300  177.1380  142.9440 C   0  0  1  0  0  3  0  0  0  0  0  0
  188.4780  178.0110  141.7450 C   0  0  0  0  0  1  0  0  0  0  0  0
  187.9670  177.5070  144.1470 C   0  0  0  0  0  2  0  0  0  0  0  0
  187.8810  176.3650  145.1550 C   0  0  0  0  0  2  0  0  0  0  0  0
  188.1460  176.8710  146.5750 C   0  0  2  0  0  3  0  0  0  0  0  0
  189.2390  176.2260  147.2020 O   0  0  0  0  0  0  0  0  0  0  0  0
  189.0810  174.8330  147.0860 C   0  0  0  0  0  1  0  0  0  0  0  0
  186.8810  176.8640  147.4390 C   0  0  0  0  0  2  0  0  0  0  0  0
  185.5840  179.4070  147.3120 O   0  0  0  0  0  0  0  0  0  0  0  0
  185.7020  177.1740  146.6390 N   0  0  0  0  0  2  0  0  0  0  0  0
  185.1080  178.4710  146.6170 C   0  0  0  0  0  0  0  0  0  0  0  0
  183.9290  178.7270  145.7450 C   0  0  0  0  0  2  0  0  0  0  0  0
  184.3720  178.8670  144.3020 C   0  0  0  0  0  1  0  0  0  0  0  0
  189.3540  173.5010  142.3550 O   0  0  0  0  0  0  0  0  0  0  0  0
  188.3740  173.1180  141.3900 C   0  0  0  0  0  2  0  0  0  0  0  0
  191.6040  172.7100  136.0340 S   0  0  0  0  0  0  0  0  0  0  0  0
  190.5780  172.9100  137.3440 C   0  0  0  0  0  0  0  0  0  0  0  0
  188.4660  174.1910  137.7900 N   0  0  0  0  0  0  0  0  0  0  0  0
  190.7780  173.7160  134.9680 C   0  0  0  0  0  3  0  0  0  0  0  0
  188.1930  173.9420  139.0330 C   0  0  0  0  0  3  0  0  0  0  0  0
  189.6710  174.2170  135.6510 C   0  0  0  0  0  3  0  0  0  0  0  0
  188.9400  173.1290  140.0070 C   0  0  0  0  0  0  0  0  0  0  0  0
  190.7750  172.2550  138.5890 N   0  0  0  0  0  2  0  0  0  0  0  0
  190.0350  172.3940  139.8010 C   0  0  0  0  0  3  0  0  0  0  0  0
  189.5590  173.7680  136.9750 C   0  0  0  0  0  0  0  0  0  0  0  0
  1  3  1  0  0  0  0
  2  1  2  0  0  0  0
  2 12  1  0  0  0  0
  3  4  2  0  0  0  0
  4  5  1  0  0  0  0
  6  5  2  0  0  0  0
  6  8  1  0  0  0  0
  8  7  2  0  0  0  0
  9 10  1  6  0  0  0
  9 11  1  0  0  0  0
  9  8  1  0  0  0  0
 12 13  1  6  0  0  0
 12 14  1  0  0  0  0
 14 15  1  0  0  0  0
 16 15  1  6  0  0  0
 16 17  1  0  0  0  0
 16 19  1  0  0  0  0
 18 17  1  0  0  0  0
 21 19  1  0  0  0  0
 22 21  1  0  0  0  0
 22 20  2  0  0  0  0
 23 22  1  0  0  0  0
 24 23  1  0  0  0  0
 25  1  1  0  0  0  0
 26 25  1  0  0  0  0
 27 28  1  0  0  0  0
 28 34  1  0  0  0  0
 29 31  2  0  0  0  0
 30 32  2  0  0  0  0
 30 27  1  0  0  0  0
 31 33  1  0  0  0  0
 32 36  1  0  0  0  0
 33 26  1  0  0  0  0
 34 35  1  0  0  0  0
 35 33  2  0  0  0  0
 36 28  2  0  0  0  0
 36 29  1  0  0  0  0
M  END
>  <MODEL>
9

>  <REMARK>
 VINA RESULT:      -5.4      2.029      6.350
  Name = 
  15 active torsions:
  status: ('A' for Active; 'I' for Inactive)
    1  A    between atoms: N_1  and  C_18
    2  A    between atoms: O_7  and  C_14
    3  A    between atoms: O_7  and  C_18
    4  A    between atoms: C_9  and  C_23
    5  A    between atoms: C_10  and  N_21
    6  A    between atoms: C_10  and  C_24
    7  A    between atoms: C_11  and  N_30
    8  A    between atoms: C_11  and  C_31
    9  A    between atoms: C_13  and  C_17
   10  A    between atoms: C_14  and  C_25
   11  A    between atoms: C_15  and  C_24
   12  A    between atoms: C_15  and  C_31
   13  A    between atoms: C_17  and  C_29
   14  A    between atoms: N_20  and  C_22
   15  A    between atoms: C_24  and  O_27
                            x       y       z     vdW  Elec       q    Type
                         _______ _______ _______ _____ _____    ______ ____

>  <TORSDO>
F 15

$$$$
