=
 OpenBabel11042417343D

 39 41  0  0  1  0  0  0  0  0999 V2000
  189.9520  177.3510  145.6470 N   0  0  0  0  0  0  0  0  0  0  0  0
  190.4450  176.2800  146.2040 C   0  0  0  0  0  0  0  0  0  0  0  0
  188.6070  177.3430  143.6870 N   0  0  0  0  0  0  0  0  0  0  0  0
  186.6650  177.4880  141.9670 C   0  0  1  0  0  3  0  0  0  0  0  0
  186.5440  177.9720  144.3860 C   0  0  0  0  0  0  0  0  0  0  0  0
  188.6990  177.5230  144.9650 C   0  0  0  0  0  0  0  0  0  0  0  0
  185.4360  178.2830  141.8590 N   0  0  0  0  0  2  0  0  0  0  0  0
  187.4150  177.9990  145.5850 C   0  0  0  0  0  2  0  0  0  0  0  0
  187.6100  177.9180  140.9520 N   0  0  0  0  0  1  0  0  0  0  0  0
  185.0890  178.3240  144.3070 C   0  0  2  0  0  3  0  0  0  0  0  0
  184.3980  177.6680  145.3080 F   0  0  0  0  0  0  0  0  0  0  0  0
  187.2680  177.6490  143.3320 C   0  0  0  0  0  0  0  0  0  0  0  0
  184.5170  177.9130  142.9410 C   0  0  1  0  0  3  0  0  0  0  0  0
  183.3010  178.5390  142.7440 F   0  0  0  0  0  0  0  0  0  0  0  0
  190.2400  174.0130  145.1270 N   0  0  0  0  0  2  0  0  0  0  0  0
  188.9870  174.5710  147.0480 N   0  0  0  0  0  2  0  0  0  0  0  0
  189.7980  174.9510  146.1140 C   0  0  0  0  0  0  0  0  0  0  0  0
  189.6910  172.6660  145.0210 C   0  0  0  0  0  2  0  0  0  0  0  0
  190.3160  171.9200  143.8530 C   0  0  0  0  0  2  0  0  0  0  0  0
  191.0390  173.4120  139.1100 C   0  0  0  0  0  1  0  0  0  0  0  0
  191.8870  172.2570  141.5230 O   0  0  0  0  0  0  0  0  0  0  0  0
  190.1870  173.2810  140.2820 N   0  0  0  0  0  0  0  0  0  0  0  0
  189.8250  172.4510  142.5910 N   0  0  0  0  0  2  0  0  0  0  0  0
  190.6860  172.6440  141.4680 C   0  0  0  0  0  0  0  0  0  0  0  0
  188.8340  173.6400  140.1720 N   0  0  0  0  0  2  0  0  0  0  0  0
  188.1940  172.6920  139.2710 C   0  0  0  0  0  1  0  0  0  0  0  0
  191.7820  176.4140  146.8810 C   0  0  1  0  0  3  0  0  0  0  0  0
  191.8510  175.6410  148.0400 O   0  0  0  0  0  1  0  0  0  0  0  0
  193.5190  174.7920  146.0290 N   0  0  0  0  0  2  0  0  0  0  0  0
  192.9290  176.0960  145.9710 C   0  0  0  0  0  0  0  0  0  0  0  0
  193.3200  176.9390  145.1170 O   0  0  0  0  0  0  0  0  0  0  0  0
  195.4960  174.7250  143.0530 C   0  0  0  0  0  3  0  0  0  0  0  0
  196.8230  174.8020  143.1730 C   0  0  0  0  0  0  0  0  0  0  0  0
  195.8730  174.2830  146.0590 C   0  0  0  0  0  3  0  0  0  0  0  0
  197.1820  173.9020  145.4920 C   0  0  0  0  0  3  0  0  0  0  0  0
  194.6330  173.9130  143.9610 C   0  0  0  0  0  2  0  0  0  0  0  0
  197.7150  175.6700  141.9400 Cl  0  0  0  0  0  0  0  0  0  0  0  0
  194.7270  174.3850  145.3760 C   0  0  0  0  0  0  0  0  0  0  0  0
  197.5940  174.1280  144.2380 C   0  0  0  0  0  3  0  0  0  0  0  0
  1  2  2  0  0  0  0
  2 27  1  0  0  0  0
  3  6  2  0  0  0  0
  4  9  1  6  0  0  0
  4 12  1  0  0  0  0
  5  8  1  0  0  0  0
  6  8  1  0  0  0  0
  6  1  1  0  0  0  0
  7  4  1  0  0  0  0
  7 13  1  0  0  0  0
 10  5  1  0  0  0  0
 10 11  1  1  0  0  0
 12  3  1  0  0  0  0
 12  5  2  0  0  0  0
 13 14  1  6  0  0  0
 13 10  1  0  0  0  0
 15 17  1  0  0  0  0
 17  2  1  0  0  0  0
 17 16  2  0  0  0  0
 18 15  1  0  0  0  0
 19 18  1  0  0  0  0
 20 22  1  0  0  0  0
 22 24  1  0  0  0  0
 23 19  1  0  0  0  0
 24 21  2  0  0  0  0
 24 23  1  0  0  0  0
 25 22  1  0  0  0  0
 26 25  1  0  0  0  0
 27 28  1  1  0  0  0
 30 29  1  0  0  0  0
 30 27  1  0  0  0  0
 31 30  2  0  0  0  0
 32 33  2  0  0  0  0
 32 36  1  0  0  0  0
 33 39  1  0  0  0  0
 35 34  1  0  0  0  0
 36 38  1  0  0  0  0
 37 33  1  0  0  0  0
 38 29  1  0  0  0  0
 38 34  2  0  0  0  0
 39 35  2  0  0  0  0
M  END
>  <MODEL>
1

>  <REMARK>
 VINA RESULT:      -7.6      0.000      0.000
  Name = 
  9 active torsions:
  status: ('A' for Active; 'I' for Inactive)
    1  A    between atoms: N_5  and  N_26
    2  A    between atoms: C_8  and  N_14
    3  A    between atoms: N_10  and  C_29
    4  A    between atoms: C_16  and  C_17
    5  A    between atoms: C_16  and  C_32
    6  A    between atoms: C_28  and  N_30
    7  A    between atoms: C_28  and  C_35
    8  A    between atoms: C_32  and  C_39
    9  A    between atoms: C_35  and  N_36
                            x       y       z     vdW  Elec       q    Type
                         _______ _______ _______ _____ _____    ______ ____

>  <TORSDO>
F 9

$$$$
=
 OpenBabel11042417343D

 39 41  0  0  1  0  0  0  0  0999 V2000
  189.9780  177.3010  145.6800 N   0  0  0  0  0  0  0  0  0  0  0  0
  190.5020  176.2150  146.1770 C   0  0  0  0  0  0  0  0  0  0  0  0
  188.6280  177.2750  143.7240 N   0  0  0  0  0  0  0  0  0  0  0  0
  186.6810  177.4100  142.0090 C   0  0  1  0  0  3  0  0  0  0  0  0
  186.5720  177.9320  144.4200 C   0  0  0  0  0  0  0  0  0  0  0  0
  188.7250  177.4730  144.9990 C   0  0  0  0  0  0  0  0  0  0  0  0
  185.4590  178.2130  141.8920 N   0  0  0  0  0  2  0  0  0  0  0  0
  187.4470  177.9700  145.6160 C   0  0  0  0  0  2  0  0  0  0  0  0
  187.6270  177.8160  140.9840 N   0  0  0  0  0  1  0  0  0  0  0  0
  185.1200  178.2950  144.3400 C   0  0  2  0  0  3  0  0  0  0  0  0
  184.4270  177.6610  145.3530 F   0  0  0  0  0  0  0  0  0  0  0  0
  187.2900  177.5870  143.3690 C   0  0  0  0  0  0  0  0  0  0  0  0
  184.5400  177.8690  142.9820 C   0  0  1  0  0  3  0  0  0  0  0  0
  183.3280  178.5020  142.7800 F   0  0  0  0  0  0  0  0  0  0  0  0
  190.3430  174.0300  144.9350 N   0  0  0  0  0  2  0  0  0  0  0  0
  189.1300  174.3950  146.9270 N   0  0  0  0  0  2  0  0  0  0  0  0
  189.8990  174.8740  146.0030 C   0  0  0  0  0  0  0  0  0  0  0  0
  189.8380  172.6760  144.7410 C   0  0  0  0  0  2  0  0  0  0  0  0
  190.7110  171.9110  143.7590 C   0  0  0  0  0  2  0  0  0  0  0  0
  194.6950  168.8890  144.2570 C   0  0  0  0  0  1  0  0  0  0  0  0
  192.3150  169.7030  143.0110 O   0  0  0  0  0  0  0  0  0  0  0  0
  193.9020  170.0270  144.7000 N   0  0  0  0  0  0  0  0  0  0  0  0
  191.9800  171.5610  144.3770 N   0  0  0  0  0  2  0  0  0  0  0  0
  192.7160  170.4010  143.9840 C   0  0  0  0  0  0  0  0  0  0  0  0
  194.4090  170.8370  145.7300 N   0  0  0  0  0  2  0  0  0  0  0  0
  195.8220  170.5240  145.8870 C   0  0  0  0  0  1  0  0  0  0  0  0
  191.8300  176.3500  146.8720 C   0  0  1  0  0  3  0  0  0  0  0  0
  191.8960  175.5550  148.0150 O   0  0  0  0  0  1  0  0  0  0  0  0
  193.5940  174.7680  146.0020 N   0  0  0  0  0  2  0  0  0  0  0  0
  192.9900  176.0670  145.9670 C   0  0  0  0  0  0  0  0  0  0  0  0
  193.3820  176.9330  145.1390 O   0  0  0  0  0  0  0  0  0  0  0  0
  195.5950  174.7710  143.0410 C   0  0  0  0  0  3  0  0  0  0  0  0
  196.9190  174.8690  143.1730 C   0  0  0  0  0  0  0  0  0  0  0  0
  195.9560  174.2980  146.0440 C   0  0  0  0  0  3  0  0  0  0  0  0
  197.2760  173.9470  145.4840 C   0  0  0  0  0  3  0  0  0  0  0  0
  194.7390  173.9340  143.9330 C   0  0  0  0  0  2  0  0  0  0  0  0
  197.8060  175.7660  141.9570 Cl  0  0  0  0  0  0  0  0  0  0  0  0
  194.8140  174.3890  145.3530 C   0  0  0  0  0  0  0  0  0  0  0  0
  197.6940  174.1940  144.2360 C   0  0  0  0  0  3  0  0  0  0  0  0
  1  2  2  0  0  0  0
  2 27  1  0  0  0  0
  3  6  2  0  0  0  0
  4  9  1  6  0  0  0
  4 12  1  0  0  0  0
  5  8  1  0  0  0  0
  6  8  1  0  0  0  0
  6  1  1  0  0  0  0
  7  4  1  0  0  0  0
  7 13  1  0  0  0  0
 10  5  1  0  0  0  0
 10 11  1  1  0  0  0
 12  3  1  0  0  0  0
 12  5  2  0  0  0  0
 13 14  1  6  0  0  0
 13 10  1  0  0  0  0
 15 17  1  0  0  0  0
 17  2  1  0  0  0  0
 17 16  2  0  0  0  0
 18 15  1  0  0  0  0
 19 23  1  0  0  0  0
 19 18  1  0  0  0  0
 20 22  1  0  0  0  0
 21 24  2  0  0  0  0
 22 25  1  0  0  0  0
 24 23  1  0  0  0  0
 24 22  1  0  0  0  0
 25 26  1  0  0  0  0
 27 28  1  1  0  0  0
 30 29  1  0  0  0  0
 30 27  1  0  0  0  0
 31 30  2  0  0  0  0
 32 33  2  0  0  0  0
 32 36  1  0  0  0  0
 33 39  1  0  0  0  0
 35 34  1  0  0  0  0
 36 38  1  0  0  0  0
 37 33  1  0  0  0  0
 38 29  1  0  0  0  0
 38 34  2  0  0  0  0
 39 35  2  0  0  0  0
M  END
>  <MODEL>
2

>  <REMARK>
 VINA RESULT:      -7.5      1.728      2.839
  Name = 
  9 active torsions:
  status: ('A' for Active; 'I' for Inactive)
    1  A    between atoms: N_5  and  N_26
    2  A    between atoms: C_8  and  N_14
    3  A    between atoms: N_10  and  C_29
    4  A    between atoms: C_16  and  C_17
    5  A    between atoms: C_16  and  C_32
    6  A    between atoms: C_28  and  N_30
    7  A    between atoms: C_28  and  C_35
    8  A    between atoms: C_32  and  C_39
    9  A    between atoms: C_35  and  N_36
                            x       y       z     vdW  Elec       q    Type
                         _______ _______ _______ _____ _____    ______ ____

>  <TORSDO>
F 9

$$$$
=
 OpenBabel11042417343D

 39 41  0  0  1  0  0  0  0  0999 V2000
  190.5490  177.1820  144.8180 N   0  0  0  0  0  0  0  0  0  0  0  0
  191.2170  176.0620  144.7940 C   0  0  0  0  0  0  0  0  0  0  0  0
  188.3150  177.6770  144.1740 N   0  0  0  0  0  0  0  0  0  0  0  0
  185.7600  178.1420  144.1080 C   0  0  1  0  0  3  0  0  0  0  0  0
  187.1380  177.7100  146.1110 C   0  0  0  0  0  0  0  0  0  0  0  0
  189.1600  177.4020  145.1140 C   0  0  0  0  0  0  0  0  0  0  0  0
  184.7920  178.7360  145.0370 N   0  0  0  0  0  2  0  0  0  0  0  0
  188.5460  177.4340  146.4850 C   0  0  0  0  0  2  0  0  0  0  0  0
  185.9620  179.0380  142.9830 N   0  0  0  0  0  1  0  0  0  0  0  0
  185.9610  177.8520  147.0290 C   0  0  2  0  0  3  0  0  0  0  0  0
  185.9310  176.7900  147.9130 F   0  0  0  0  0  0  0  0  0  0  0  0
  187.0640  177.8920  144.8080 C   0  0  0  0  0  0  0  0  0  0  0  0
  184.6560  177.8770  146.2190 C   0  0  1  0  0  3  0  0  0  0  0  0
  183.6290  178.3480  147.0140 F   0  0  0  0  0  0  0  0  0  0  0  0
  190.4730  173.8500  143.8480 N   0  0  0  0  0  2  0  0  0  0  0  0
  190.3140  174.3070  146.1580 N   0  0  0  0  0  2  0  0  0  0  0  0
  190.5810  174.7370  144.9670 C   0  0  0  0  0  0  0  0  0  0  0  0
  189.9140  172.5080  143.9580 C   0  0  0  0  0  2  0  0  0  0  0  0
  188.9540  172.2280  142.8140 C   0  0  0  0  0  2  0  0  0  0  0  0
  187.8290  174.9320  138.7320 C   0  0  0  0  0  1  0  0  0  0  0  0
  188.4620  172.5340  140.0440 O   0  0  0  0  0  0  0  0  0  0  0  0
  188.0880  174.8410  140.1610 N   0  0  0  0  0  0  0  0  0  0  0  0
  188.5510  173.4710  142.1750 N   0  0  0  0  0  2  0  0  0  0  0  0
  188.3690  173.5680  140.7620 C   0  0  0  0  0  0  0  0  0  0  0  0
  187.8980  175.9860  140.9510 N   0  0  0  0  0  2  0  0  0  0  0  0
  187.0470  176.9030  140.2070 C   0  0  0  0  0  1  0  0  0  0  0  0
  192.6870  176.1480  144.4790 C   0  0  1  0  0  3  0  0  0  0  0  0
  193.1790  177.4390  144.6670 O   0  0  0  0  0  1  0  0  0  0  0  0
  194.1210  174.0710  144.5490 N   0  0  0  0  0  2  0  0  0  0  0  0
  193.5040  175.1570  145.2510 C   0  0  0  0  0  0  0  0  0  0  0  0
  193.7050  175.3180  146.4860 O   0  0  0  0  0  0  0  0  0  0  0  0
  194.4200  170.5200  144.8160 C   0  0  0  0  0  3  0  0  0  0  0  0
  195.6330  170.0010  145.0180 C   0  0  0  0  0  0  0  0  0  0  0  0
  196.0510  173.0120  145.5250 C   0  0  0  0  0  3  0  0  0  0  0  0
  196.8320  171.9120  146.1250 C   0  0  0  0  0  3  0  0  0  0  0  0
  193.9310  171.7560  145.4950 C   0  0  0  0  0  2  0  0  0  0  0  0
  196.0080  168.4620  144.2690 Cl  0  0  0  0  0  0  0  0  0  0  0  0
  194.7690  172.9430  145.1480 C   0  0  0  0  0  0  0  0  0  0  0  0
  196.6500  170.6040  145.9040 C   0  0  0  0  0  3  0  0  0  0  0  0
  1  6  1  0  0  0  0
  2  1  2  0  0  0  0
  2 17  1  0  0  0  0
  3 12  1  0  0  0  0
  3  6  2  0  0  0  0
  4  9  1  6  0  0  0
  4 12  1  0  0  0  0
  4  7  1  0  0  0  0
  5  8  1  0  0  0  0
  5 10  1  0  0  0  0
  6  8  1  0  0  0  0
  7 13  1  0  0  0  0
 10 11  1  1  0  0  0
 12  5  2  0  0  0  0
 13 14  1  1  0  0  0
 13 10  1  0  0  0  0
 15 18  1  0  0  0  0
 15 17  1  0  0  0  0
 17 16  2  0  0  0  0
 19 18  1  0  0  0  0
 20 22  1  0  0  0  0
 21 24  2  0  0  0  0
 22 24  1  0  0  0  0
 22 25  1  0  0  0  0
 23 19  1  0  0  0  0
 24 23  1  0  0  0  0
 26 25  1  0  0  0  0
 27 28  1  1  0  0  0
 27  2  1  0  0  0  0
 27 30  1  0  0  0  0
 29 38  1  0  0  0  0
 29 30  1  0  0  0  0
 30 31  2  0  0  0  0
 32 33  2  0  0  0  0
 32 36  1  0  0  0  0
 33 39  1  0  0  0  0
 34 35  1  0  0  0  0
 37 33  1  0  0  0  0
 38 36  1  0  0  0  0
 38 34  2  0  0  0  0
 39 35  2  0  0  0  0
M  END
>  <MODEL>
3

>  <REMARK>
 VINA RESULT:      -7.5      2.352      2.952
  Name = 
  9 active torsions:
  status: ('A' for Active; 'I' for Inactive)
    1  A    between atoms: N_5  and  N_26
    2  A    between atoms: C_8  and  N_14
    3  A    between atoms: N_10  and  C_29
    4  A    between atoms: C_16  and  C_17
    5  A    between atoms: C_16  and  C_32
    6  A    between atoms: C_28  and  N_30
    7  A    between atoms: C_28  and  C_35
    8  A    between atoms: C_32  and  C_39
    9  A    between atoms: C_35  and  N_36
                            x       y       z     vdW  Elec       q    Type
                         _______ _______ _______ _____ _____    ______ ____

>  <TORSDO>
F 9

$$$$
=
 OpenBabel11042417343D

 39 41  0  0  1  0  0  0  0  0999 V2000
  192.4010  175.5360  145.7940 N   0  0  0  0  0  0  0  0  0  0  0  0
  191.2270  174.9690  145.7570 C   0  0  0  0  0  0  0  0  0  0  0  0
  194.5310  174.8970  144.9540 N   0  0  0  0  0  0  0  0  0  0  0  0
  196.6720  174.5580  143.5230 C   0  0  1  0  0  3  0  0  0  0  0  0
  194.7230  175.9670  142.9640 C   0  0  0  0  0  0  0  0  0  0  0  0
  193.4300  175.5560  144.7910 C   0  0  0  0  0  0  0  0  0  0  0  0
  197.4020  175.3710  142.5430 N   0  0  0  0  0  2  0  0  0  0  0  0
  193.4140  176.3720  143.5290 C   0  0  0  0  0  2  0  0  0  0  0  0
  197.4560  174.4490  144.7400 N   0  0  0  0  0  1  0  0  0  0  0  0
  195.3360  176.4120  141.6710 C   0  0  2  0  0  3  0  0  0  0  0  0
  194.4120  176.2830  140.6510 F   0  0  0  0  0  0  0  0  0  0  0  0
  195.3400  175.1800  143.8230 C   0  0  0  0  0  0  0  0  0  0  0  0
  196.5720  175.5590  141.3480 C   0  0  1  0  0  3  0  0  0  0  0  0
  197.3180  176.1820  140.3650 F   0  0  0  0  0  0  0  0  0  0  0  0
  191.0860  172.7020  144.6700 N   0  0  0  0  0  2  0  0  0  0  0  0
  189.9570  174.5650  143.7610 N   0  0  0  0  0  2  0  0  0  0  0  0
  190.7830  174.1010  144.6430 C   0  0  0  0  0  0  0  0  0  0  0  0
  190.6290  171.7780  143.6390 C   0  0  0  0  0  2  0  0  0  0  0  0
  191.8090  171.1090  142.9530 C   0  0  0  0  0  2  0  0  0  0  0  0
  195.0120  169.1220  146.2760 C   0  0  0  0  0  1  0  0  0  0  0  0
  192.8220  168.9850  144.5260 O   0  0  0  0  0  0  0  0  0  0  0  0
  194.5270  170.2560  145.5040 N   0  0  0  0  0  0  0  0  0  0  0  0
  192.9950  171.1900  143.7920 N   0  0  0  0  0  2  0  0  0  0  0  0
  193.4220  170.0940  144.6020 C   0  0  0  0  0  0  0  0  0  0  0  0
  195.2590  171.4540  145.5400 N   0  0  0  0  0  2  0  0  0  0  0  0
  196.6310  171.1260  145.8990 C   0  0  0  0  0  1  0  0  0  0  0  0
  190.3410  175.1490  146.9600 C   0  0  1  0  0  3  0  0  0  0  0  0
  191.0850  175.3000  148.1290 O   0  0  0  0  0  1  0  0  0  0  0  0
  188.0260  175.9920  146.4060 N   0  0  0  0  0  2  0  0  0  0  0  0
  189.3720  176.2810  146.8040 C   0  0  0  0  0  0  0  0  0  0  0  0
  189.7170  177.4610  147.0870 O   0  0  0  0  0  0  0  0  0  0  0  0
  186.3340  177.7620  143.8020 C   0  0  0  0  0  3  0  0  0  0  0  0
  185.0410  178.0440  143.9670 C   0  0  0  0  0  0  0  0  0  0  0  0
  185.9340  177.1280  146.7710 C   0  0  0  0  0  3  0  0  0  0  0  0
  184.8340  178.0660  146.4720 C   0  0  0  0  0  3  0  0  0  0  0  0
  187.3470  177.8740  144.8940 C   0  0  0  0  0  2  0  0  0  0  0  0
  184.0030  178.0140  142.5560 Cl  0  0  0  0  0  0  0  0  0  0  0  0
  187.0350  176.9550  146.0300 C   0  0  0  0  0  0  0  0  0  0  0  0
  184.4460  178.4640  145.2530 C   0  0  0  0  0  3  0  0  0  0  0  0
  2  1  2  0  0  0  0
  2 27  1  0  0  0  0
  4 12  1  0  0  0  0
  4  9  1  1  0  0  0
  5  8  1  0  0  0  0
  5 12  2  0  0  0  0
  6  3  2  0  0  0  0
  6  1  1  0  0  0  0
  7  4  1  0  0  0  0
  8  6  1  0  0  0  0
 10 11  1  6  0  0  0
 10  5  1  0  0  0  0
 12  3  1  0  0  0  0
 13 14  1  6  0  0  0
 13 10  1  0  0  0  0
 13  7  1  0  0  0  0
 16 17  2  0  0  0  0
 17 15  1  0  0  0  0
 17  2  1  0  0  0  0
 18 15  1  0  0  0  0
 19 18  1  0  0  0  0
 19 23  1  0  0  0  0
 21 24  2  0  0  0  0
 22 25  1  0  0  0  0
 22 20  1  0  0  0  0
 23 24  1  0  0  0  0
 24 22  1  0  0  0  0
 25 26  1  0  0  0  0
 27 28  1  1  0  0  0
 29 30  1  0  0  0  0
 30 27  1  0  0  0  0
 30 31  2  0  0  0  0
 32 33  2  0  0  0  0
 32 36  1  0  0  0  0
 33 39  1  0  0  0  0
 35 34  1  0  0  0  0
 36 38  1  0  0  0  0
 37 33  1  0  0  0  0
 38 29  1  0  0  0  0
 38 34  2  0  0  0  0
 39 35  2  0  0  0  0
M  END
>  <MODEL>
4

>  <REMARK>
 VINA RESULT:      -7.4      4.363      8.447
  Name = 
  9 active torsions:
  status: ('A' for Active; 'I' for Inactive)
    1  A    between atoms: N_5  and  N_26
    2  A    between atoms: C_8  and  N_14
    3  A    between atoms: N_10  and  C_29
    4  A    between atoms: C_16  and  C_17
    5  A    between atoms: C_16  and  C_32
    6  A    between atoms: C_28  and  N_30
    7  A    between atoms: C_28  and  C_35
    8  A    between atoms: C_32  and  C_39
    9  A    between atoms: C_35  and  N_36
                            x       y       z     vdW  Elec       q    Type
                         _______ _______ _______ _____ _____    ______ ____

>  <TORSDO>
F 9

$$$$
=
 OpenBabel11042417343D

 39 41  0  0  1  0  0  0  0  0999 V2000
  190.0510  177.3330  145.4960 N   0  0  0  0  0  0  0  0  0  0  0  0
  190.4950  176.2650  146.1000 C   0  0  0  0  0  0  0  0  0  0  0  0
  187.7470  177.8860  145.3180 N   0  0  0  0  0  0  0  0  0  0  0  0
  185.3330  178.3730  144.4900 C   0  0  1  0  0  3  0  0  0  0  0  0
  187.2350  177.5780  143.1300 C   0  0  0  0  0  0  0  0  0  0  0  0
  188.8420  177.5100  144.7400 C   0  0  0  0  0  0  0  0  0  0  0  0
  184.4860  177.8580  143.4070 N   0  0  0  0  0  2  0  0  0  0  0  0
  188.6630  177.2090  143.2790 C   0  0  0  0  0  2  0  0  0  0  0  0
  184.8140  177.9180  145.7670 N   0  0  0  0  0  1  0  0  0  0  0  0
  186.4060  177.5330  141.8830 C   0  0  2  0  0  3  0  0  0  0  0  0
  187.0820  178.1600  140.8530 F   0  0  0  0  0  0  0  0  0  0  0  0
  186.7470  177.9020  144.3110 C   0  0  0  0  0  0  0  0  0  0  0  0
  185.0610  178.2400  142.1120 C   0  0  1  0  0  3  0  0  0  0  0  0
  184.1830  177.9000  141.1010 F   0  0  0  0  0  0  0  0  0  0  0  0
  190.3070  173.9860  145.0480 N   0  0  0  0  0  2  0  0  0  0  0  0
  188.9730  174.5910  146.8990 N   0  0  0  0  0  2  0  0  0  0  0  0
  189.8330  174.9450  145.9990 C   0  0  0  0  0  0  0  0  0  0  0  0
  189.7430  172.6450  144.9350 C   0  0  0  0  0  2  0  0  0  0  0  0
  189.3410  172.3490  143.5000 C   0  0  0  0  0  2  0  0  0  0  0  0
  190.9130  173.4290  138.8520 C   0  0  0  0  0  1  0  0  0  0  0  0
  188.9870  172.5630  140.7000 O   0  0  0  0  0  0  0  0  0  0  0  0
  191.1610  173.3230  140.2820 N   0  0  0  0  0  0  0  0  0  0  0  0
  190.3330  172.8750  142.5760 N   0  0  0  0  0  2  0  0  0  0  0  0
  190.1090  172.9070  141.1660 C   0  0  0  0  0  0  0  0  0  0  0  0
  192.3850  173.7900  140.7860 N   0  0  0  0  0  2  0  0  0  0  0  0
  193.3770  172.7440  140.5820 C   0  0  0  0  0  1  0  0  0  0  0  0
  191.7940  176.3920  146.8500 C   0  0  1  0  0  3  0  0  0  0  0  0
  191.8100  175.5920  147.9910 O   0  0  0  0  0  1  0  0  0  0  0  0
  193.5370  174.7830  145.9870 N   0  0  0  0  0  2  0  0  0  0  0  0
  192.9890  176.1070  145.9920 C   0  0  0  0  0  0  0  0  0  0  0  0
  193.4600  176.9980  145.2340 O   0  0  0  0  0  0  0  0  0  0  0  0
  195.6620  174.7940  143.1140 C   0  0  0  0  0  3  0  0  0  0  0  0
  196.9810  174.8560  143.3030 C   0  0  0  0  0  0  0  0  0  0  0  0
  195.8830  174.2540  146.1190 C   0  0  0  0  0  3  0  0  0  0  0  0
  197.2160  173.8810  145.6080 C   0  0  0  0  0  3  0  0  0  0  0  0
  194.7490  173.9610  143.9510 C   0  0  0  0  0  2  0  0  0  0  0  0
  197.9410  175.7550  142.1450 Cl  0  0  0  0  0  0  0  0  0  0  0  0
  194.7740  174.3870  145.3820 C   0  0  0  0  0  0  0  0  0  0  0  0
  197.6930  174.1420  144.3840 C   0  0  0  0  0  3  0  0  0  0  0  0
  1  2  2  0  0  0  0
  2 27  1  0  0  0  0
  4  9  1  1  0  0  0
  5  8  1  0  0  0  0
  5 12  2  0  0  0  0
  6  3  2  0  0  0  0
  6  1  1  0  0  0  0
  7  4  1  0  0  0  0
  8  6  1  0  0  0  0
 10 11  1  6  0  0  0
 10 13  1  0  0  0  0
 10  5  1  0  0  0  0
 12  4  1  0  0  0  0
 12  3  1  0  0  0  0
 13 14  1  6  0  0  0
 13  7  1  0  0  0  0
 15 17  1  0  0  0  0
 17  2  1  0  0  0  0
 17 16  2  0  0  0  0
 18 15  1  0  0  0  0
 19 18  1  0  0  0  0
 20 22  1  0  0  0  0
 21 24  2  0  0  0  0
 22 25  1  0  0  0  0
 22 24  1  0  0  0  0
 23 19  1  0  0  0  0
 24 23  1  0  0  0  0
 26 25  1  0  0  0  0
 27 28  1  1  0  0  0
 29 30  1  0  0  0  0
 30 27  1  0  0  0  0
 31 30  2  0  0  0  0
 32 33  2  0  0  0  0
 32 36  1  0  0  0  0
 33 39  1  0  0  0  0
 35 34  1  0  0  0  0
 36 38  1  0  0  0  0
 37 33  1  0  0  0  0
 38 29  1  0  0  0  0
 38 34  2  0  0  0  0
 39 35  2  0  0  0  0
M  END
>  <MODEL>
5

>  <REMARK>
 VINA RESULT:      -7.4      1.383      1.981
  Name = 
  9 active torsions:
  status: ('A' for Active; 'I' for Inactive)
    1  A    between atoms: N_5  and  N_26
    2  A    between atoms: C_8  and  N_14
    3  A    between atoms: N_10  and  C_29
    4  A    between atoms: C_16  and  C_17
    5  A    between atoms: C_16  and  C_32
    6  A    between atoms: C_28  and  N_30
    7  A    between atoms: C_28  and  C_35
    8  A    between atoms: C_32  and  C_39
    9  A    between atoms: C_35  and  N_36
                            x       y       z     vdW  Elec       q    Type
                         _______ _______ _______ _____ _____    ______ ____

>  <TORSDO>
F 9

$$$$
=
 OpenBabel11042417343D

 39 41  0  0  1  0  0  0  0  0999 V2000
  190.3810  177.1740  145.5970 N   0  0  0  0  0  0  0  0  0  0  0  0
  190.9080  176.0050  145.8340 C   0  0  0  0  0  0  0  0  0  0  0  0
  188.1860  177.6270  146.3880 N   0  0  0  0  0  0  0  0  0  0  0  0
  185.6680  178.2250  146.6190 C   0  0  1  0  0  3  0  0  0  0  0  0
  186.9600  178.0270  144.5230 C   0  0  0  0  0  0  0  0  0  0  0  0
  189.0020  177.5220  145.3900 C   0  0  0  0  0  0  0  0  0  0  0  0
  184.4810  178.0480  145.7740 N   0  0  0  0  0  2  0  0  0  0  0  0
  188.3310  177.7090  144.0590 C   0  0  0  0  0  2  0  0  0  0  0  0
  185.5760  177.3470  147.7720 N   0  0  0  0  0  1  0  0  0  0  0  0
  185.7620  178.3480  143.6810 C   0  0  2  0  0  3  0  0  0  0  0  0
  186.0950  179.3150  142.7500 F   0  0  0  0  0  0  0  0  0  0  0  0
  186.9120  177.9170  145.8360 C   0  0  0  0  0  0  0  0  0  0  0  0
  184.6150  178.8650  144.5630 C   0  0  1  0  0  3  0  0  0  0  0  0
  183.4320  178.8270  143.8500 F   0  0  0  0  0  0  0  0  0  0  0  0
  190.3950  173.7660  144.8030 N   0  0  0  0  0  2  0  0  0  0  0  0
  189.3590  174.4530  146.8090 N   0  0  0  0  0  2  0  0  0  0  0  0
  190.1270  174.7470  145.8110 C   0  0  0  0  0  0  0  0  0  0  0  0
  189.7080  172.4800  144.7560 C   0  0  0  0  0  2  0  0  0  0  0  0
  189.3200  172.1280  143.3290 C   0  0  0  0  0  2  0  0  0  0  0  0
  188.1990  174.5610  139.0780 C   0  0  0  0  0  1  0  0  0  0  0  0
  188.8800  172.2620  140.5360 O   0  0  0  0  0  0  0  0  0  0  0  0
  188.4290  174.5590  140.5150 N   0  0  0  0  0  0  0  0  0  0  0  0
  188.8910  173.3200  142.6130 N   0  0  0  0  0  2  0  0  0  0  0  0
  188.7370  173.3320  141.1930 C   0  0  0  0  0  0  0  0  0  0  0  0
  188.1840  175.7390  141.2350 N   0  0  0  0  0  2  0  0  0  0  0  0
  187.2350  176.5370  140.4730 C   0  0  0  0  0  1  0  0  0  0  0  0
  192.3970  175.9540  146.0440 C   0  0  1  0  0  3  0  0  0  0  0  0
  192.7620  174.9070  146.8910 O   0  0  0  0  0  1  0  0  0  0  0  0
  194.3930  175.1460  144.7270 N   0  0  0  0  0  2  0  0  0  0  0  0
  193.1630  175.8800  144.7590 C   0  0  0  0  0  0  0  0  0  0  0  0
  192.6950  176.3930  143.7060 O   0  0  0  0  0  0  0  0  0  0  0  0
  195.1330  174.2710  141.3410 C   0  0  0  0  0  3  0  0  0  0  0  0
  195.9220  175.0840  140.6360 C   0  0  0  0  0  0  0  0  0  0  0  0
  196.2520  176.0990  143.5270 C   0  0  0  0  0  3  0  0  0  0  0  0
  197.2530  176.2070  142.4480 C   0  0  0  0  0  3  0  0  0  0  0  0
  195.3780  173.9220  142.7720 C   0  0  0  0  0  2  0  0  0  0  0  0
  195.5930  175.2770  138.9260 Cl  0  0  0  0  0  0  0  0  0  0  0  0
  195.3360  175.1310  143.6480 C   0  0  0  0  0  0  0  0  0  0  0  0
  197.1100  175.7650  141.1920 C   0  0  0  0  0  3  0  0  0  0  0  0
  1  2  2  0  0  0  0
  2 27  1  0  0  0  0
  4  9  1  1  0  0  0
  5 12  2  0  0  0  0
  6  1  1  0  0  0  0
  6  3  2  0  0  0  0
  7  4  1  0  0  0  0
  8  5  1  0  0  0  0
  8  6  1  0  0  0  0
 10 11  1  6  0  0  0
 10  5  1  0  0  0  0
 10 13  1  0  0  0  0
 12  3  1  0  0  0  0
 12  4  1  0  0  0  0
 13 14  1  6  0  0  0
 13  7  1  0  0  0  0
 15 17  1  0  0  0  0
 17  2  1  0  0  0  0
 17 16  2  0  0  0  0
 18 15  1  0  0  0  0
 19 18  1  0  0  0  0
 20 22  1  0  0  0  0
 21 24  2  0  0  0  0
 22 24  1  0  0  0  0
 22 25  1  0  0  0  0
 23 19  1  0  0  0  0
 24 23  1  0  0  0  0
 26 25  1  0  0  0  0
 27 28  1  1  0  0  0
 29 30  1  0  0  0  0
 30 27  1  0  0  0  0
 31 30  2  0  0  0  0
 32 36  1  0  0  0  0
 33 39  1  0  0  0  0
 33 32  2  0  0  0  0
 34 38  2  0  0  0  0
 35 34  1  0  0  0  0
 36 38  1  0  0  0  0
 37 33  1  0  0  0  0
 38 29  1  0  0  0  0
 39 35  2  0  0  0  0
M  END
>  <MODEL>
6

>  <REMARK>
 VINA RESULT:      -7.4      1.847      2.580
  Name = 
  9 active torsions:
  status: ('A' for Active; 'I' for Inactive)
    1  A    between atoms: N_5  and  N_26
    2  A    between atoms: C_8  and  N_14
    3  A    between atoms: N_10  and  C_29
    4  A    between atoms: C_16  and  C_17
    5  A    between atoms: C_16  and  C_32
    6  A    between atoms: C_28  and  N_30
    7  A    between atoms: C_28  and  C_35
    8  A    between atoms: C_32  and  C_39
    9  A    between atoms: C_35  and  N_36
                            x       y       z     vdW  Elec       q    Type
                         _______ _______ _______ _____ _____    ______ ____

>  <TORSDO>
F 9

$$$$
=
 OpenBabel11042417343D

 39 41  0  0  1  0  0  0  0  0999 V2000
  190.2470  176.7700  143.5800 N   0  0  0  0  0  0  0  0  0  0  0  0
  190.6390  175.6740  142.9910 C   0  0  0  0  0  0  0  0  0  0  0  0
  187.9740  177.4560  143.4690 N   0  0  0  0  0  0  0  0  0  0  0  0
  185.5120  178.1000  143.9930 C   0  0  1  0  0  3  0  0  0  0  0  0
  187.2560  177.4620  145.6200 C   0  0  0  0  0  0  0  0  0  0  0  0
  188.9790  177.0690  144.1860 C   0  0  0  0  0  0  0  0  0  0  0  0
  184.8220  178.7080  145.1370 N   0  0  0  0  0  2  0  0  0  0  0  0
  188.6850  177.0680  145.6590 C   0  0  0  0  0  2  0  0  0  0  0  0
  185.5340  179.0410  142.8870 N   0  0  0  0  0  1  0  0  0  0  0  0
  186.3240  177.6340  146.7810 C   0  0  2  0  0  3  0  0  0  0  0  0
  186.4030  176.5290  147.6070 F   0  0  0  0  0  0  0  0  0  0  0  0
  186.9140  177.7210  144.3740 C   0  0  0  0  0  0  0  0  0  0  0  0
  184.8790  177.7950  146.2840 C   0  0  1  0  0  3  0  0  0  0  0  0
  184.0930  178.2910  147.3060 F   0  0  0  0  0  0  0  0  0  0  0  0
  189.1760  174.3450  141.4310 N   0  0  0  0  0  2  0  0  0  0  0  0
  189.6270  173.5920  143.6210 N   0  0  0  0  0  2  0  0  0  0  0  0
  189.7380  174.5270  142.7350 C   0  0  0  0  0  0  0  0  0  0  0  0
  188.3300  173.2070  141.0910 C   0  0  0  0  0  2  0  0  0  0  0  0
  188.6430  172.7010  139.6920 C   0  0  0  0  0  2  0  0  0  0  0  0
  189.1780  175.0940  135.3060 C   0  0  0  0  0  1  0  0  0  0  0  0
  189.9120  173.1620  137.2040 O   0  0  0  0  0  0  0  0  0  0  0  0
  188.4950  174.9160  136.5780 N   0  0  0  0  0  0  0  0  0  0  0  0
  188.1910  173.6580  138.6940 N   0  0  0  0  0  2  0  0  0  0  0  0
  188.9100  173.8780  137.4790 C   0  0  0  0  0  0  0  0  0  0  0  0
  187.3340  175.6650  136.8270 N   0  0  0  0  0  2  0  0  0  0  0  0
  186.8910  176.2320  135.5610 C   0  0  0  0  0  1  0  0  0  0  0  0
  192.0520  175.6410  142.4750 C   0  0  1  0  0  3  0  0  0  0  0  0
  192.6640  176.8910  142.5680 O   0  0  0  0  0  1  0  0  0  0  0  0
  193.3730  174.8420  144.4730 N   0  0  0  0  0  2  0  0  0  0  0  0
  192.8900  174.5960  143.1460 C   0  0  0  0  0  0  0  0  0  0  0  0
  193.1070  173.4890  142.5810 O   0  0  0  0  0  0  0  0  0  0  0  0
  194.6660  171.5990  145.2400 C   0  0  0  0  0  3  0  0  0  0  0  0
  195.9810  171.4700  145.4220 C   0  0  0  0  0  0  0  0  0  0  0  0
  195.5540  174.5220  145.4440 C   0  0  0  0  0  3  0  0  0  0  0  0
  196.6320  173.7900  146.1380 C   0  0  0  0  0  3  0  0  0  0  0  0
  193.8710  172.7500  145.7630 C   0  0  0  0  0  2  0  0  0  0  0  0
  196.7480  169.9900  144.8830 Cl  0  0  0  0  0  0  0  0  0  0  0  0
  194.3310  174.0460  145.1800 C   0  0  0  0  0  0  0  0  0  0  0  0
  196.8170  172.4640  146.1280 C   0  0  0  0  0  3  0  0  0  0  0  0
  1  6  1  0  0  0  0
  2  1  2  0  0  0  0
  3  6  2  0  0  0  0
  3 12  1  0  0  0  0
  4  9  1  6  0  0  0
  4 12  1  0  0  0  0
  4  7  1  0  0  0  0
  5  8  1  0  0  0  0
  5 10  1  0  0  0  0
  6  8  1  0  0  0  0
  7 13  1  0  0  0  0
 10 11  1  1  0  0  0
 12  5  2  0  0  0  0
 13 10  1  0  0  0  0
 13 14  1  1  0  0  0
 15 17  1  0  0  0  0
 17  2  1  0  0  0  0
 17 16  2  0  0  0  0
 18 15  1  0  0  0  0
 19 18  1  0  0  0  0
 20 22  1  0  0  0  0
 21 24  2  0  0  0  0
 22 25  1  0  0  0  0
 22 24  1  0  0  0  0
 23 19  1  0  0  0  0
 24 23  1  0  0  0  0
 26 25  1  0  0  0  0
 27 28  1  1  0  0  0
 27  2  1  0  0  0  0
 27 30  1  0  0  0  0
 29 38  1  0  0  0  0
 30 29  1  0  0  0  0
 31 30  2  0  0  0  0
 32 33  2  0  0  0  0
 32 36  1  0  0  0  0
 33 39  1  0  0  0  0
 34 35  1  0  0  0  0
 37 33  1  0  0  0  0
 38 34  2  0  0  0  0
 38 36  1  0  0  0  0
 39 35  2  0  0  0  0
M  END
>  <MODEL>
7

>  <REMARK>
 VINA RESULT:      -7.4      2.640      3.575
  Name = 
  9 active torsions:
  status: ('A' for Active; 'I' for Inactive)
    1  A    between atoms: N_5  and  N_26
    2  A    between atoms: C_8  and  N_14
    3  A    between atoms: N_10  and  C_29
    4  A    between atoms: C_16  and  C_17
    5  A    between atoms: C_16  and  C_32
    6  A    between atoms: C_28  and  N_30
    7  A    between atoms: C_28  and  C_35
    8  A    between atoms: C_32  and  C_39
    9  A    between atoms: C_35  and  N_36
                            x       y       z     vdW  Elec       q    Type
                         _______ _______ _______ _____ _____    ______ ____

>  <TORSDO>
F 9

$$$$
=
 OpenBabel11042417343D

 39 41  0  0  1  0  0  0  0  0999 V2000
  192.1840  175.3810  145.8710 N   0  0  0  0  0  0  0  0  0  0  0  0
  190.9330  175.0300  145.7580 C   0  0  0  0  0  0  0  0  0  0  0  0
  194.0870  174.3870  144.8510 N   0  0  0  0  0  0  0  0  0  0  0  0
  196.1150  173.8110  143.3320 C   0  0  1  0  0  3  0  0  0  0  0  0
  194.6720  175.8100  143.1850 C   0  0  0  0  0  0  0  0  0  0  0  0
  193.2260  175.3520  144.8810 C   0  0  0  0  0  0  0  0  0  0  0  0
  197.0920  174.5960  142.5690 N   0  0  0  0  0  2  0  0  0  0  0  0
  193.5030  176.4200  143.8620 C   0  0  0  0  0  2  0  0  0  0  0  0
  196.7750  173.1900  144.4670 N   0  0  0  0  0  1  0  0  0  0  0  0
  195.4490  176.3630  142.0290 C   0  0  2  0  0  3  0  0  0  0  0  0
  194.5780  176.7550  141.0300 F   0  0  0  0  0  0  0  0  0  0  0  0
  194.9980  174.6940  143.8070 C   0  0  0  0  0  0  0  0  0  0  0  0
  196.4100  175.2990  141.4760 C   0  0  1  0  0  3  0  0  0  0  0  0
  197.3490  175.9030  140.6620 F   0  0  0  0  0  0  0  0  0  0  0  0
  190.0730  172.9960  144.5490 N   0  0  0  0  0  2  0  0  0  0  0  0
  189.9820  175.1360  143.5580 N   0  0  0  0  0  2  0  0  0  0  0  0
  190.3770  174.3950  144.5420 C   0  0  0  0  0  0  0  0  0  0  0  0
  189.4680  172.3160  143.4090 C   0  0  0  0  0  2  0  0  0  0  0  0
  190.4720  171.3940  142.7360 C   0  0  0  0  0  2  0  0  0  0  0  0
  192.8700  174.1170  139.2610 C   0  0  0  0  0  1  0  0  0  0  0  0
  192.4950  173.1780  141.8790 O   0  0  0  0  0  0  0  0  0  0  0  0
  191.7980  173.2110  139.6440 N   0  0  0  0  0  0  0  0  0  0  0  0
  190.6890  171.8010  141.3570 N   0  0  0  0  0  2  0  0  0  0  0  0
  191.6970  172.7470  140.9990 C   0  0  0  0  0  0  0  0  0  0  0  0
  190.9760  172.6800  138.6370 N   0  0  0  0  0  2  0  0  0  0  0  0
  190.4550  173.7930  137.8570 C   0  0  0  0  0  1  0  0  0  0  0  0
  190.0600  175.2060  146.9710 C   0  0  1  0  0  3  0  0  0  0  0  0
  190.8160  175.3100  148.1380 O   0  0  0  0  0  1  0  0  0  0  0  0
  187.7530  176.1210  146.5080 N   0  0  0  0  0  2  0  0  0  0  0  0
  189.1230  176.3690  146.8480 C   0  0  0  0  0  0  0  0  0  0  0  0
  189.5160  177.5380  147.1110 O   0  0  0  0  0  0  0  0  0  0  0  0
  186.0440  177.9640  143.9670 C   0  0  0  0  0  3  0  0  0  0  0  0
  184.7630  178.2770  144.1670 C   0  0  0  0  0  0  0  0  0  0  0  0
  185.7010  177.3070  146.9370 C   0  0  0  0  0  3  0  0  0  0  0  0
  184.6190  178.2760  146.6760 C   0  0  0  0  0  3  0  0  0  0  0  0
  187.0860  178.0370  145.0340 C   0  0  0  0  0  2  0  0  0  0  0  0
  183.6900  178.2910  142.7820 Cl  0  0  0  0  0  0  0  0  0  0  0  0
  186.7780  177.1130  146.1670 C   0  0  0  0  0  0  0  0  0  0  0  0
  184.2120  178.6970  145.4720 C   0  0  0  0  0  3  0  0  0  0  0  0
  2  1  2  0  0  0  0
  2 27  1  0  0  0  0
  3  6  2  0  0  0  0
  4 12  1  0  0  0  0
  4  9  1  1  0  0  0
  5 12  2  0  0  0  0
  5  8  1  0  0  0  0
  6  1  1  0  0  0  0
  7  4  1  0  0  0  0
  8  6  1  0  0  0  0
 10 11  1  6  0  0  0
 10  5  1  0  0  0  0
 12  3  1  0  0  0  0
 13 14  1  6  0  0  0
 13 10  1  0  0  0  0
 13  7  1  0  0  0  0
 16 17  2  0  0  0  0
 17 15  1  0  0  0  0
 17  2  1  0  0  0  0
 18 15  1  0  0  0  0
 19 18  1  0  0  0  0
 20 22  1  0  0  0  0
 22 24  1  0  0  0  0
 23 19  1  0  0  0  0
 24 23  1  0  0  0  0
 24 21  2  0  0  0  0
 25 22  1  0  0  0  0
 26 25  1  0  0  0  0
 27 28  1  1  0  0  0
 29 30  1  0  0  0  0
 30 27  1  0  0  0  0
 30 31  2  0  0  0  0
 32 33  2  0  0  0  0
 32 36  1  0  0  0  0
 33 39  1  0  0  0  0
 35 34  1  0  0  0  0
 36 38  1  0  0  0  0
 37 33  1  0  0  0  0
 38 29  1  0  0  0  0
 38 34  2  0  0  0  0
 39 35  2  0  0  0  0
M  END
>  <MODEL>
8

>  <REMARK>
 VINA RESULT:      -7.3      4.070      7.942
  Name = 
  9 active torsions:
  status: ('A' for Active; 'I' for Inactive)
    1  A    between atoms: N_5  and  N_26
    2  A    between atoms: C_8  and  N_14
    3  A    between atoms: N_10  and  C_29
    4  A    between atoms: C_16  and  C_17
    5  A    between atoms: C_16  and  C_32
    6  A    between atoms: C_28  and  N_30
    7  A    between atoms: C_28  and  C_35
    8  A    between atoms: C_32  and  C_39
    9  A    between atoms: C_35  and  N_36
                            x       y       z     vdW  Elec       q    Type
                         _______ _______ _______ _____ _____    ______ ____

>  <TORSDO>
F 9

$$$$
=
 OpenBabel11042417343D

 39 41  0  0  1  0  0  0  0  0999 V2000
  190.1120  177.0870  144.2290 N   0  0  0  0  0  0  0  0  0  0  0  0
  190.5540  176.0010  143.6570 C   0  0  0  0  0  0  0  0  0  0  0  0
  187.8820  177.8910  144.0460 N   0  0  0  0  0  0  0  0  0  0  0  0
  185.4110  178.5740  144.4670 C   0  0  1  0  0  3  0  0  0  0  0  0
  186.9900  177.6280  146.1130 C   0  0  0  0  0  0  0  0  0  0  0  0
  188.8100  177.3590  144.7740 C   0  0  0  0  0  0  0  0  0  0  0  0
  184.6520  179.0460  145.6310 N   0  0  0  0  0  2  0  0  0  0  0  0
  188.3950  177.1630  146.2040 C   0  0  0  0  0  2  0  0  0  0  0  0
  185.5600  179.6600  143.5140 N   0  0  0  0  0  1  0  0  0  0  0  0
  185.9730  177.6790  147.2130 C   0  0  2  0  0  3  0  0  0  0  0  0
  185.9420  176.4650  147.8740 F   0  0  0  0  0  0  0  0  0  0  0  0
  186.7620  178.0770  144.8950 C   0  0  0  0  0  0  0  0  0  0  0  0
  184.5810  177.9780  146.6350 C   0  0  1  0  0  3  0  0  0  0  0  0
  183.7310  178.3630  147.6550 F   0  0  0  0  0  0  0  0  0  0  0  0
  189.0030  174.7730  142.1000 N   0  0  0  0  0  2  0  0  0  0  0  0
  189.7200  173.8010  144.1280 N   0  0  0  0  0  2  0  0  0  0  0  0
  189.6900  174.8380  143.3540 C   0  0  0  0  0  0  0  0  0  0  0  0
  188.1850  173.6300  141.7090 C   0  0  0  0  0  2  0  0  0  0  0  0
  188.8850  172.8050  140.6420 C   0  0  0  0  0  2  0  0  0  0  0  0
  193.4970  171.2680  141.9150 C   0  0  0  0  0  1  0  0  0  0  0  0
  191.6850  173.1440  140.8780 O   0  0  0  0  0  0  0  0  0  0  0  0
  192.0660  171.0280  141.8040 N   0  0  0  0  0  0  0  0  0  0  0  0
  189.7890  171.8440  141.2570 N   0  0  0  0  0  2  0  0  0  0  0  0
  191.2010  172.0550  141.2960 C   0  0  0  0  0  0  0  0  0  0  0  0
  191.5390  169.8470  142.3510 N   0  0  0  0  0  2  0  0  0  0  0  0
  191.8180  168.7630  141.4210 C   0  0  0  0  0  1  0  0  0  0  0  0
  191.9910  175.9980  143.2110 C   0  0  1  0  0  3  0  0  0  0  0  0
  192.4060  177.2650  142.8010 O   0  0  0  0  0  1  0  0  0  0  0  0
  193.8410  174.4180  143.8840 N   0  0  0  0  0  2  0  0  0  0  0  0
  192.9210  175.4530  144.2520 C   0  0  0  0  0  0  0  0  0  0  0  0
  192.9420  175.9470  145.4120 O   0  0  0  0  0  0  0  0  0  0  0  0
  194.4850  171.3100  145.5280 C   0  0  0  0  0  3  0  0  0  0  0  0
  195.7550  170.9570  145.7370 C   0  0  0  0  0  0  0  0  0  0  0  0
  195.9660  173.9150  144.9010 C   0  0  0  0  0  3  0  0  0  0  0  0
  196.9110  173.1880  145.7710 C   0  0  0  0  0  3  0  0  0  0  0  0
  193.9780  172.7030  145.7090 C   0  0  0  0  0  2  0  0  0  0  0  0
  196.1660  169.2570  145.6330 Cl  0  0  0  0  0  0  0  0  0  0  0  0
  194.6570  173.6600  144.7850 C   0  0  0  0  0  0  0  0  0  0  0  0
  196.8190  171.9020  146.1340 C   0  0  0  0  0  3  0  0  0  0  0  0
  1  6  1  0  0  0  0
  2  1  2  0  0  0  0
  3  6  2  0  0  0  0
  3 12  1  0  0  0  0
  4  9  1  6  0  0  0
  4 12  1  0  0  0  0
  4  7  1  0  0  0  0
  5  8  1  0  0  0  0
  5 10  1  0  0  0  0
  6  8  1  0  0  0  0
  7 13  1  0  0  0  0
 10 11  1  6  0  0  0
 12  5  2  0  0  0  0
 13 10  1  0  0  0  0
 13 14  1  1  0  0  0
 15 17  1  0  0  0  0
 17  2  1  0  0  0  0
 17 16  2  0  0  0  0
 18 15  1  0  0  0  0
 19 23  1  0  0  0  0
 19 18  1  0  0  0  0
 21 24  2  0  0  0  0
 22 20  1  0  0  0  0
 22 25  1  0  0  0  0
 23 24  1  0  0  0  0
 24 22  1  0  0  0  0
 26 25  1  0  0  0  0
 27 28  1  1  0  0  0
 27  2  1  0  0  0  0
 27 30  1  0  0  0  0
 29 30  1  0  0  0  0
 29 38  1  0  0  0  0
 30 31  2  0  0  0  0
 32 36  1  0  0  0  0
 32 33  2  0  0  0  0
 33 39  1  0  0  0  0
 34 35  1  0  0  0  0
 35 39  2  0  0  0  0
 37 33  1  0  0  0  0
 38 34  2  0  0  0  0
 38 36  1  0  0  0  0
M  END
>  <MODEL>
9

>  <REMARK>
 VINA RESULT:      -7.3      2.498      3.329
  Name = 
  9 active torsions:
  status: ('A' for Active; 'I' for Inactive)
    1  A    between atoms: N_5  and  N_26
    2  A    between atoms: C_8  and  N_14
    3  A    between atoms: N_10  and  C_29
    4  A    between atoms: C_16  and  C_17
    5  A    between atoms: C_16  and  C_32
    6  A    between atoms: C_28  and  N_30
    7  A    between atoms: C_28  and  C_35
    8  A    between atoms: C_32  and  C_39
    9  A    between atoms: C_35  and  N_36
                            x       y       z     vdW  Elec       q    Type
                         _______ _______ _______ _____ _____    ______ ____

>  <TORSDO>
F 9

$$$$
