=
 OpenBabel11042417093D

 38 41  0  0  1  0  0  0  0  0999 V2000
  190.3730  172.5120  142.0370 O   0  0  0  0  0  0  0  0  0  0  0  0
  190.3590  173.1680  143.2830 C   0  0  0  0  0  2  0  0  0  0  0  0
  189.4910  174.4020  146.4860 C   0  0  0  0  0  1  0  0  0  0  0  0
  189.2260  172.9290  141.3200 C   0  0  1  0  0  3  0  0  0  0  0  0
  187.2960  174.0540  142.1350 O   0  0  0  0  0  1  0  0  0  0  0  0
  188.6660  174.2080  141.9180 C   0  0  1  0  0  3  0  0  0  0  0  0
  188.9080  176.7740  145.6470 C   0  0  2  0  0  3  0  0  0  0  0  0
  188.3290  176.4280  144.3150 C   0  0  0  0  0  2  0  0  0  0  0  0
  189.2030  175.1980  144.1290 C   0  0  0  0  0  0  0  0  0  0  0  0
  189.7770  175.5450  145.4940 C   0  0  2  0  0  0  0  0  0  0  0  0
  189.3770  174.2600  143.1930 C   0  0  0  0  0  0  0  0  0  0  0  0
  191.2580  175.9650  145.3530 C   0  0  2  0  0  3  0  0  0  0  0  0
  192.2380  174.8070  145.4890 C   0  0  2  0  0  3  0  0  0  0  0  0
  194.2200  175.8740  145.7060 C   0  0  1  0  0  3  0  0  0  0  0  0
  192.0380  175.7710  146.6440 C   0  0  1  0  0  3  0  0  0  0  0  0
  193.4380  175.1160  144.8170 O   0  0  0  0  0  0  0  0  0  0  0  0
  193.2860  176.6020  146.6430 C   0  0  0  0  0  2  0  0  0  0  0  0
  195.0620  175.0290  146.4370 O   0  0  0  0  0  0  0  0  0  0  0  0
  196.0360  174.6180  145.5240 C   0  0  0  0  0  2  0  0  0  0  0  0
  196.9730  173.6150  146.1810 C   0  0  0  0  0  2  0  0  0  0  0  0
  195.4260  171.9050  145.6640 O   0  0  0  0  0  0  0  0  0  0  0  0
  196.5980  172.2130  145.8160 C   0  0  0  0  0  3  0  0  0  0  0  0
  189.5710  173.1420  139.9230 N   0  0  0  0  0  2  0  0  0  0  0  0
  188.4720  172.6350  139.1170 C   0  0  0  0  0  2  0  0  0  0  0  0
  188.3260  173.4460  137.9190 N   0  0  0  0  0  2  0  0  0  0  0  0
  187.1770  175.4800  137.2470 C   0  0  0  0  0  1  0  0  0  0  0  0
  187.9470  174.7800  138.3510 C   0  0  0  0  0  2  0  0  0  0  0  0
  187.8220  176.6890  146.7160 C   0  0  0  0  0  2  0  0  0  0  0  0
  187.1350  178.5040  148.1110 O   0  0  0  0  0  1  0  0  0  0  0  0
  187.0640  178.0060  146.8100 C   0  0  2  0  0  3  0  0  0  0  0  0
  185.6020  177.7960  146.4350 C   0  0  0  0  0  2  0  0  0  0  0  0
  183.6370  178.8690  145.5500 O   0  0  0  0  0  1  0  0  0  0  0  0
  185.0300  178.9460  145.6010 C   0  0  2  0  0  3  0  0  0  0  0  0
  185.5990  178.9810  144.1870 C   0  0  0  0  0  2  0  0  0  0  0  0
  184.6490  178.3300  143.1930 C   0  0  0  0  0  2  0  0  0  0  0  0
  185.3250  177.3710  142.4390 O   0  0  0  0  0  0  0  0  0  0  0  0
  185.8460  178.0780  141.3570 C   0  0  0  0  0  2  0  0  0  0  0  0
  187.1150  177.4060  140.8790 C   0  0  0  0  0  1  0  0  0  0  0  0
  1  2  1  0  0  0  0
  4 23  1  6  0  0  0
  4  6  1  0  0  0  0
  4  1  1  0  0  0  0
  6  5  1  1  0  0  0
  6 11  1  0  0  0  0
  7 28  1  1  0  0  0
  8  7  1  0  0  0  0
  9  8  1  0  0  0  0
  9 10  1  0  0  0  0
 10  7  1  0  0  0  0
 10  3  1  1  0  0  0
 11  2  1  0  0  0  0
 11  9  2  0  0  0  0
 12 13  1  0  0  0  0
 12 10  1  1  0  0  0
 12 15  1  0  0  0  0
 13 16  1  6  0  0  0
 13 15  1  0  0  0  0
 14 18  1  1  0  0  0
 14 17  1  0  0  0  0
 15 17  1  6  0  0  0
 16 14  1  0  0  0  0
 19 20  1  0  0  0  0
 19 18  1  0  0  0  0
 21 22  2  0  0  0  0
 22 20  1  0  0  0  0
 24 23  1  0  0  0  0
 25 27  1  0  0  0  0
 25 24  1  0  0  0  0
 26 27  1  0  0  0  0
 28 30  1  0  0  0  0
 30 29  1  1  0  0  0
 31 30  1  0  0  0  0
 33 32  1  6  0  0  0
 33 31  1  0  0  0  0
 34 33  1  0  0  0  0
 35 34  1  0  0  0  0
 36 35  1  0  0  0  0
 37 36  1  0  0  0  0
 38 37  1  0  0  0  0
M  END
>  <MODEL>
1

>  <REMARK>
 VINA RESULT:      -6.4      0.000      0.000
  Name = 
  17 active torsions:
  status: ('A' for Active; 'I' for Inactive)
    1  A    between atoms: C_3  and  C_5
    2  A    between atoms: C_3  and  C_30
    3  A    between atoms: C_4  and  N_31
    4  A    between atoms: C_4  and  N_33
    5  A    between atoms: C_5  and  O_11
    6  A    between atoms: C_6  and  C_20
    7  A    between atoms: C_6  and  C_24
    8  A    between atoms: C_9  and  C_37
    9  A    between atoms: C_10  and  C_35
   10  A    between atoms: O_11  and  C_15
   11  A    between atoms: C_16  and  O_26
   12  A    between atoms: C_16  and  C_35
   13  A    between atoms: C_17  and  N_33
   14  A    between atoms: C_23  and  O_26
   15  A    between atoms: C_24  and  C_34
   16  A    between atoms: C_28  and  N_31
   17  A    between atoms: C_30  and  C_34
                            x       y       z     vdW  Elec       q    Type
                         _______ _______ _______ _____ _____    ______ ____

>  <TORSDO>
F 17

$$$$
=
 OpenBabel11042417093D

 38 41  0  0  1  0  0  0  0  0999 V2000
  194.5890  176.1150  143.5280 O   0  0  0  0  0  0  0  0  0  0  0  0
  193.2220  176.4480  143.6110 C   0  0  0  0  0  2  0  0  0  0  0  0
  190.1230  178.0270  144.2720 C   0  0  0  0  0  1  0  0  0  0  0  0
  195.0990  176.0680  144.8470 C   0  0  1  0  0  3  0  0  0  0  0  0
  194.1200  176.9030  146.8470 O   0  0  0  0  0  1  0  0  0  0  0  0
  193.9640  175.9410  145.8480 C   0  0  1  0  0  3  0  0  0  0  0  0
  189.4680  176.4140  146.1800 C   0  0  2  0  0  3  0  0  0  0  0  0
  190.8180  176.1660  146.7660 C   0  0  0  0  0  2  0  0  0  0  0  0
  191.5470  176.3320  145.4420 C   0  0  0  0  0  0  0  0  0  0  0  0
  190.1720  176.6010  144.8530 C   0  0  2  0  0  0  0  0  0  0  0  0
  192.8110  176.2640  145.0120 C   0  0  0  0  0  0  0  0  0  0  0  0
  189.7780  175.4620  143.8860 C   0  0  2  0  0  3  0  0  0  0  0  0
  189.9270  175.8280  142.4160 C   0  0  2  0  0  3  0  0  0  0  0  0
  188.8290  174.1410  141.3840 C   0  0  1  0  0  3  0  0  0  0  0  0
  188.5510  175.8080  143.0560 C   0  0  1  0  0  3  0  0  0  0  0  0
  190.1090  174.6590  141.6490 O   0  0  0  0  0  0  0  0  0  0  0  0
  187.9130  174.5680  142.5050 C   0  0  0  0  0  2  0  0  0  0  0  0
  188.3570  174.6450  140.1670 O   0  0  0  0  0  0  0  0  0  0  0  0
  188.5220  173.5980  139.2580 C   0  0  0  0  0  2  0  0  0  0  0  0
  188.4620  174.1320  137.8340 C   0  0  0  0  0  2  0  0  0  0  0  0
  190.7920  174.0920  137.4400 O   0  0  0  0  0  0  0  0  0  0  0  0
  189.6850  173.7420  137.0640 C   0  0  0  0  0  3  0  0  0  0  0  0
  196.0090  174.9400  144.9810 N   0  0  0  0  0  2  0  0  0  0  0  0
  195.2530  173.8310  145.5390 C   0  0  0  0  0  2  0  0  0  0  0  0
  194.7350  172.9980  144.4660 N   0  0  0  0  0  2  0  0  0  0  0  0
  192.3640  172.6850  144.0320 C   0  0  0  0  0  1  0  0  0  0  0  0
  193.5220  172.3710  144.9610 C   0  0  0  0  0  2  0  0  0  0  0  0
  188.8660  177.6760  146.7950 C   0  0  0  0  0  2  0  0  0  0  0  0
  186.9980  176.2460  147.2140 O   0  0  0  0  0  1  0  0  0  0  0  0
  187.3520  177.5540  146.8830 C   0  0  2  0  0  3  0  0  0  0  0  0
  186.7190  177.9190  145.5450 C   0  0  0  0  0  2  0  0  0  0  0  0
  184.6010  178.7770  146.3030 O   0  0  0  0  0  1  0  0  0  0  0  0
  185.7790  179.1250  145.6400 C   0  0  2  0  0  3  0  0  0  0  0  0
  185.4500  179.7160  144.2740 C   0  0  0  0  0  2  0  0  0  0  0  0
  186.0740  178.8970  143.1530 C   0  0  0  0  0  2  0  0  0  0  0  0
  185.1600  178.7330  142.1120 O   0  0  0  0  0  0  0  0  0  0  0  0
  185.5580  177.5560  141.4790 C   0  0  0  0  0  2  0  0  0  0  0  0
  186.8280  177.8100  140.6950 C   0  0  0  0  0  1  0  0  0  0  0  0
  1  2  1  0  0  0  0
  1  4  1  0  0  0  0
  2 11  1  0  0  0  0
  4 23  1  6  0  0  0
  4  6  1  0  0  0  0
  6  5  1  1  0  0  0
  7  8  1  0  0  0  0
  7 28  1  1  0  0  0
  9  8  1  0  0  0  0
 10  3  1  6  0  0  0
 10  9  1  0  0  0  0
 10  7  1  0  0  0  0
 11  9  2  0  0  0  0
 11  6  1  0  0  0  0
 12 10  1  1  0  0  0
 13 16  1  6  0  0  0
 13 15  1  0  0  0  0
 13 12  1  0  0  0  0
 14 18  1  6  0  0  0
 14 16  1  0  0  0  0
 14 17  1  0  0  0  0
 15 17  1  6  0  0  0
 15 12  1  0  0  0  0
 19 18  1  0  0  0  0
 20 19  1  0  0  0  0
 22 21  2  0  0  0  0
 22 20  1  0  0  0  0
 23 24  1  0  0  0  0
 25 27  1  0  0  0  0
 25 24  1  0  0  0  0
 26 27  1  0  0  0  0
 28 30  1  0  0  0  0
 30 29  1  6  0  0  0
 31 33  1  0  0  0  0
 31 30  1  0  0  0  0
 33 32  1  6  0  0  0
 34 33  1  0  0  0  0
 35 34  1  0  0  0  0
 36 35  1  0  0  0  0
 37 36  1  0  0  0  0
 38 37  1  0  0  0  0
M  END
>  <MODEL>
2

>  <REMARK>
 VINA RESULT:      -6.4      2.453      6.128
  Name = 
  17 active torsions:
  status: ('A' for Active; 'I' for Inactive)
    1  A    between atoms: C_3  and  C_5
    2  A    between atoms: C_3  and  C_30
    3  A    between atoms: C_4  and  N_31
    4  A    between atoms: C_4  and  N_33
    5  A    between atoms: C_5  and  O_11
    6  A    between atoms: C_6  and  C_20
    7  A    between atoms: C_6  and  C_24
    8  A    between atoms: C_9  and  C_37
    9  A    between atoms: C_10  and  C_35
   10  A    between atoms: O_11  and  C_15
   11  A    between atoms: C_16  and  O_26
   12  A    between atoms: C_16  and  C_35
   13  A    between atoms: C_17  and  N_33
   14  A    between atoms: C_23  and  O_26
   15  A    between atoms: C_24  and  C_34
   16  A    between atoms: C_28  and  N_31
   17  A    between atoms: C_30  and  C_34
                            x       y       z     vdW  Elec       q    Type
                         _______ _______ _______ _____ _____    ______ ____

>  <TORSDO>
F 17

$$$$
=
 OpenBabel11042417093D

 38 41  0  0  1  0  0  0  0  0999 V2000
  184.9520  176.8380  145.8740 O   0  0  0  0  0  0  0  0  0  0  0  0
  186.2180  176.2340  145.7480 C   0  0  0  0  0  2  0  0  0  0  0  0
  189.3320  174.6630  146.3590 C   0  0  0  0  0  1  0  0  0  0  0  0
  185.0910  177.9490  146.7390 C   0  0  1  0  0  3  0  0  0  0  0  0
  186.8950  178.4780  148.1960 O   0  0  0  0  0  1  0  0  0  0  0  0
  186.5510  178.3530  146.8490 C   0  0  1  0  0  3  0  0  0  0  0  0
  190.7250  176.8060  145.9910 C   0  0  2  0  0  3  0  0  0  0  0  0
  189.7780  177.8140  146.5530 C   0  0  0  0  0  2  0  0  0  0  0  0
  188.5350  177.0290  146.1640 C   0  0  0  0  0  0  0  0  0  0  0  0
  189.5050  175.9980  145.6090 C   0  0  2  0  0  0  0  0  0  0  0  0
  187.2120  177.1880  146.2660 C   0  0  0  0  0  0  0  0  0  0  0  0
  189.3820  175.9310  144.0700 C   0  0  2  0  0  3  0  0  0  0  0  0
  188.5130  174.7820  143.5750 C   0  0  2  0  0  3  0  0  0  0  0  0
  188.9760  174.7450  141.3610 C   0  0  1  0  0  3  0  0  0  0  0  0
  190.0250  174.6790  143.4940 C   0  0  1  0  0  3  0  0  0  0  0  0
  187.9910  175.0920  142.3030 O   0  0  0  0  0  0  0  0  0  0  0  0
  190.3220  174.8550  142.0350 C   0  0  0  0  0  2  0  0  0  0  0  0
  188.7700  173.4320  140.9230 O   0  0  0  0  0  0  0  0  0  0  0  0
  189.9340  173.1020  140.2240 C   0  0  0  0  0  2  0  0  0  0  0  0
  190.1600  171.5970  140.2730 C   0  0  0  0  0  2  0  0  0  0  0  0
  190.6960  169.9950  141.9250 O   0  0  0  0  0  0  0  0  0  0  0  0
  190.2940  171.1220  141.6860 C   0  0  0  0  0  3  0  0  0  0  0  0
  184.3030  179.0640  146.2350 N   0  0  0  0  0  2  0  0  0  0  0  0
  184.1530  178.8820  144.8010 C   0  0  0  0  0  2  0  0  0  0  0  0
  184.9730  179.8520  144.0930 N   0  0  0  0  0  2  0  0  0  0  0  0
  185.1200  177.9870  142.5410 C   0  0  0  0  0  1  0  0  0  0  0  0
  185.8760  179.1020  143.2360 C   0  0  0  0  0  2  0  0  0  0  0  0
  191.5810  176.2260  147.1140 C   0  0  0  0  0  2  0  0  0  0  0  0
  193.8320  177.0250  147.1690 O   0  0  0  0  0  1  0  0  0  0  0  0
  193.0140  176.0260  146.6420 C   0  0  2  0  0  3  0  0  0  0  0  0
  193.0760  176.0800  145.1200 C   0  0  0  0  0  2  0  0  0  0  0  0
  193.2440  173.6800  145.2020 O   0  0  0  0  0  1  0  0  0  0  0  0
  193.6690  174.8100  144.5020 C   0  0  2  0  0  3  0  0  0  0  0  0
  195.1930  174.8450  144.4500 C   0  0  0  0  0  2  0  0  0  0  0  0
  195.7030  176.2420  144.1310 C   0  0  0  0  0  2  0  0  0  0  0  0
  196.9240  176.1660  143.4590 O   0  0  0  0  0  0  0  0  0  0  0  0
  196.6080  175.6140  142.2200 C   0  0  0  0  0  2  0  0  0  0  0  0
  196.1250  176.7060  141.2890 C   0  0  0  0  0  1  0  0  0  0  0  0
  1  4  1  0  0  0  0
  2  1  1  0  0  0  0
  2 11  1  0  0  0  0
  4 23  1  6  0  0  0
  4  6  1  0  0  0  0
  6  5  1  1  0  0  0
  7  8  1  0  0  0  0
  7 28  1  1  0  0  0
  9 11  2  0  0  0  0
  9  8  1  0  0  0  0
 10  7  1  0  0  0  0
 10  9  1  0  0  0  0
 10  3  1  1  0  0  0
 11  6  1  0  0  0  0
 12 10  1  1  0  0  0
 13 16  1  6  0  0  0
 13 12  1  0  0  0  0
 14 18  1  1  0  0  0
 14 17  1  0  0  0  0
 14 16  1  0  0  0  0
 15 17  1  6  0  0  0
 15 13  1  0  0  0  0
 15 12  1  0  0  0  0
 19 20  1  0  0  0  0
 19 18  1  0  0  0  0
 20 22  1  0  0  0  0
 22 21  2  0  0  0  0
 24 23  1  0  0  0  0
 25 24  1  0  0  0  0
 26 27  1  0  0  0  0
 27 25  1  0  0  0  0
 30 28  1  0  0  0  0
 30 29  1  1  0  0  0
 31 30  1  0  0  0  0
 33 31  1  0  0  0  0
 33 32  1  1  0  0  0
 34 33  1  0  0  0  0
 35 34  1  0  0  0  0
 36 35  1  0  0  0  0
 37 36  1  0  0  0  0
 38 37  1  0  0  0  0
M  END
>  <MODEL>
3

>  <REMARK>
 VINA RESULT:      -6.1      2.817      7.456
  Name = 
  17 active torsions:
  status: ('A' for Active; 'I' for Inactive)
    1  A    between atoms: C_3  and  C_5
    2  A    between atoms: C_3  and  C_30
    3  A    between atoms: C_4  and  N_31
    4  A    between atoms: C_4  and  N_33
    5  A    between atoms: C_5  and  O_11
    6  A    between atoms: C_6  and  C_20
    7  A    between atoms: C_6  and  C_24
    8  A    between atoms: C_9  and  C_37
    9  A    between atoms: C_10  and  C_35
   10  A    between atoms: O_11  and  C_15
   11  A    between atoms: C_16  and  O_26
   12  A    between atoms: C_16  and  C_35
   13  A    between atoms: C_17  and  N_33
   14  A    between atoms: C_23  and  O_26
   15  A    between atoms: C_24  and  C_34
   16  A    between atoms: C_28  and  N_31
   17  A    between atoms: C_30  and  C_34
                            x       y       z     vdW  Elec       q    Type
                         _______ _______ _______ _____ _____    ______ ____

>  <TORSDO>
F 17

$$$$
=
 OpenBabel11042417093D

 38 41  0  0  1  0  0  0  0  0999 V2000
  185.1680  176.8790  145.4970 O   0  0  0  0  0  0  0  0  0  0  0  0
  186.3980  176.1940  145.4610 C   0  0  0  0  0  2  0  0  0  0  0  0
  189.3650  174.4510  146.2950 C   0  0  0  0  0  1  0  0  0  0  0  0
  185.3310  178.0090  146.3350 C   0  0  1  0  0  3  0  0  0  0  0  0
  187.0830  178.4710  147.8750 O   0  0  0  0  0  1  0  0  0  0  0  0
  186.8060  178.3230  146.5150 C   0  0  1  0  0  3  0  0  0  0  0  0
  190.9120  176.4890  145.9420 C   0  0  2  0  0  3  0  0  0  0  0  0
  190.0030  177.5730  146.4190 C   0  0  0  0  0  2  0  0  0  0  0  0
  188.7350  176.8550  145.9840 C   0  0  0  0  0  0  0  0  0  0  0  0
  189.6650  175.7460  145.5160 C   0  0  2  0  0  0  0  0  0  0  0  0
  187.4210  177.1010  146.0060 C   0  0  0  0  0  0  0  0  0  0  0  0
  189.6220  175.6350  143.9750 C   0  0  2  0  0  3  0  0  0  0  0  0
  188.7160  174.5220  143.4670 C   0  0  2  0  0  3  0  0  0  0  0  0
  189.2960  174.3850  141.2850 C   0  0  1  0  0  3  0  0  0  0  0  0
  190.2210  174.3300  143.4750 C   0  0  1  0  0  3  0  0  0  0  0  0
  188.2830  174.8190  142.1590 O   0  0  0  0  0  0  0  0  0  0  0  0
  190.6080  174.4410  142.0290 C   0  0  0  0  0  2  0  0  0  0  0  0
  189.0380  173.0730  140.8750 O   0  0  0  0  0  0  0  0  0  0  0  0
  188.4330  173.2020  139.6230 C   0  0  0  0  0  2  0  0  0  0  0  0
  189.4130  173.8170  138.6330 C   0  0  0  0  0  2  0  0  0  0  0  0
  189.2120  173.6110  136.2880 O   0  0  0  0  0  0  0  0  0  0  0  0
  188.7510  174.0780  137.3170 C   0  0  0  0  0  3  0  0  0  0  0  0
  184.6460  179.1530  145.7530 N   0  0  0  0  0  2  0  0  0  0  0  0
  184.3990  178.8520  144.3530 C   0  0  0  0  0  2  0  0  0  0  0  0
  185.3900  179.5170  143.5240 N   0  0  0  0  0  2  0  0  0  0  0  0
  187.1900  178.2610  142.4800 C   0  0  0  0  0  1  0  0  0  0  0  0
  185.7150  178.6090  142.4370 C   0  0  0  0  0  2  0  0  0  0  0  0
  191.6650  175.8940  147.1300 C   0  0  0  0  0  2  0  0  0  0  0  0
  193.7760  176.9140  146.6650 O   0  0  0  0  0  1  0  0  0  0  0  0
  193.1310  175.6820  146.7770 C   0  0  2  0  0  3  0  0  0  0  0  0
  193.2480  174.9350  145.4540 C   0  0  0  0  0  2  0  0  0  0  0  0
  193.3630  176.1760  143.3950 O   0  0  0  0  0  1  0  0  0  0  0  0
  194.1350  175.6600  144.4370 C   0  0  2  0  0  3  0  0  0  0  0  0
  195.2310  174.7620  143.8750 C   0  0  0  0  0  2  0  0  0  0  0  0
  196.6040  175.1860  144.3770 C   0  0  0  0  0  2  0  0  0  0  0  0
  197.3630  174.0630  144.7080 O   0  0  0  0  0  0  0  0  0  0  0  0
  196.8650  173.6550  145.9440 C   0  0  0  0  0  2  0  0  0  0  0  0
  196.8360  172.1420  146.0020 C   0  0  0  0  0  1  0  0  0  0  0  0
  1  4  1  0  0  0  0
  2  1  1  0  0  0  0
  2 11  1  0  0  0  0
  4 23  1  6  0  0  0
  4  6  1  0  0  0  0
  6  5  1  1  0  0  0
  7  8  1  0  0  0  0
  7 28  1  1  0  0  0
  9 11  2  0  0  0  0
  9  8  1  0  0  0  0
 10  7  1  0  0  0  0
 10  9  1  0  0  0  0
 10  3  1  1  0  0  0
 11  6  1  0  0  0  0
 12 10  1  1  0  0  0
 13 16  1  6  0  0  0
 13 15  1  0  0  0  0
 13 12  1  0  0  0  0
 14 18  1  1  0  0  0
 14 17  1  0  0  0  0
 14 16  1  0  0  0  0
 15 17  1  6  0  0  0
 15 12  1  0  0  0  0
 19 18  1  0  0  0  0
 20 19  1  0  0  0  0
 21 22  2  0  0  0  0
 22 20  1  0  0  0  0
 24 23  1  0  0  0  0
 25 24  1  0  0  0  0
 27 26  1  0  0  0  0
 27 25  1  0  0  0  0
 30 29  1  6  0  0  0
 30 28  1  0  0  0  0
 31 30  1  0  0  0  0
 33 32  1  6  0  0  0
 33 31  1  0  0  0  0
 34 35  1  0  0  0  0
 34 33  1  0  0  0  0
 35 36  1  0  0  0  0
 36 37  1  0  0  0  0
 37 38  1  0  0  0  0
M  END
>  <MODEL>
4

>  <REMARK>
 VINA RESULT:      -6.1      2.640      7.981
  Name = 
  17 active torsions:
  status: ('A' for Active; 'I' for Inactive)
    1  A    between atoms: C_3  and  C_5
    2  A    between atoms: C_3  and  C_30
    3  A    between atoms: C_4  and  N_31
    4  A    between atoms: C_4  and  N_33
    5  A    between atoms: C_5  and  O_11
    6  A    between atoms: C_6  and  C_20
    7  A    between atoms: C_6  and  C_24
    8  A    between atoms: C_9  and  C_37
    9  A    between atoms: C_10  and  C_35
   10  A    between atoms: O_11  and  C_15
   11  A    between atoms: C_16  and  O_26
   12  A    between atoms: C_16  and  C_35
   13  A    between atoms: C_17  and  N_33
   14  A    between atoms: C_23  and  O_26
   15  A    between atoms: C_24  and  C_34
   16  A    between atoms: C_28  and  N_31
   17  A    between atoms: C_30  and  C_34
                            x       y       z     vdW  Elec       q    Type
                         _______ _______ _______ _____ _____    ______ ____

>  <TORSDO>
F 17

$$$$
=
 OpenBabel11042417093D

 38 41  0  0  1  0  0  0  0  0999 V2000
  184.9670  176.8130  145.7920 O   0  0  0  0  0  0  0  0  0  0  0  0
  186.2350  176.2140  145.6580 C   0  0  0  0  0  2  0  0  0  0  0  0
  189.3360  174.6080  146.2450 C   0  0  0  0  0  1  0  0  0  0  0  0
  185.0920  177.8800  146.7130 C   0  0  1  0  0  3  0  0  0  0  0  0
  186.8710  178.3310  148.2260 O   0  0  0  0  0  1  0  0  0  0  0  0
  186.5510  178.2750  146.8690 C   0  0  1  0  0  3  0  0  0  0  0  0
  190.7380  176.7640  146.0090 C   0  0  2  0  0  3  0  0  0  0  0  0
  189.7810  177.7450  146.6030 C   0  0  0  0  0  2  0  0  0  0  0  0
  188.5450  176.9830  146.1540 C   0  0  0  0  0  0  0  0  0  0  0  0
  189.5230  175.9780  145.5650 C   0  0  2  0  0  0  0  0  0  0  0  0
  187.2200  177.1390  146.2400 C   0  0  0  0  0  0  0  0  0  0  0  0
  189.4270  175.9880  144.0230 C   0  0  2  0  0  3  0  0  0  0  0  0
  188.3730  175.0390  143.4690 C   0  0  2  0  0  3  0  0  0  0  0  0
  188.8750  174.9920  141.2640 C   0  0  1  0  0  3  0  0  0  0  0  0
  189.8410  174.6580  143.4110 C   0  0  1  0  0  3  0  0  0  0  0  0
  187.9490  175.4840  142.2010 O   0  0  0  0  0  0  0  0  0  0  0  0
  190.2010  174.8260  141.9650 C   0  0  0  0  0  2  0  0  0  0  0  0
  188.4400  173.7570  140.7720 O   0  0  0  0  0  0  0  0  0  0  0  0
  189.2170  173.5310  139.6340 C   0  0  0  0  0  2  0  0  0  0  0  0
  188.8530  172.1890  139.0140 C   0  0  0  0  0  2  0  0  0  0  0  0
  191.1870  171.8290  138.9330 O   0  0  0  0  0  0  0  0  0  0  0  0
  190.0720  171.3480  138.8040 C   0  0  0  0  0  3  0  0  0  0  0  0
  184.3150  179.0200  146.2510 N   0  0  0  0  0  2  0  0  0  0  0  0
  184.8150  179.3880  144.9370 C   0  0  0  0  0  2  0  0  0  0  0  0
  183.8590  178.9880  143.9170 N   0  0  0  0  0  2  0  0  0  0  0  0
  186.1030  178.7780  143.0070 C   0  0  0  0  0  1  0  0  0  0  0  0
  184.6250  178.5360  142.7680 C   0  0  0  0  0  2  0  0  0  0  0  0
  191.5720  176.1260  147.1170 C   0  0  0  0  0  2  0  0  0  0  0  0
  193.8140  176.9500  147.0240 O   0  0  0  0  0  1  0  0  0  0  0  0
  192.9970  175.8870  146.6380 C   0  0  2  0  0  3  0  0  0  0  0  0
  193.0250  175.7630  145.1190 C   0  0  0  0  0  2  0  0  0  0  0  0
  193.7880  174.4290  143.2660 O   0  0  0  0  0  1  0  0  0  0  0  0
  193.5520  174.4060  144.6420 C   0  0  2  0  0  3  0  0  0  0  0  0
  192.6080  173.2600  144.9860 C   0  0  0  0  0  2  0  0  0  0  0  0
  193.1710  171.9230  144.5250 C   0  0  0  0  0  2  0  0  0  0  0  0
  192.1370  171.0820  144.1150 O   0  0  0  0  0  0  0  0  0  0  0  0
  191.8610  171.4770  142.8080 C   0  0  0  0  0  2  0  0  0  0  0  0
  190.4470  171.0720  142.4460 C   0  0  0  0  0  1  0  0  0  0  0  0
  1  4  1  0  0  0  0
  2  1  1  0  0  0  0
  2 11  1  0  0  0  0
  4 23  1  6  0  0  0
  4  6  1  0  0  0  0
  6  5  1  1  0  0  0
  7  8  1  0  0  0  0
  7 28  1  1  0  0  0
  9 11  2  0  0  0  0
  9  8  1  0  0  0  0
 10  7  1  0  0  0  0
 10  9  1  0  0  0  0
 10  3  1  1  0  0  0
 11  6  1  0  0  0  0
 12 10  1  1  0  0  0
 13 16  1  6  0  0  0
 13 12  1  0  0  0  0
 14 18  1  1  0  0  0
 14 17  1  0  0  0  0
 14 16  1  0  0  0  0
 15 17  1  6  0  0  0
 15 13  1  0  0  0  0
 15 12  1  0  0  0  0
 19 18  1  0  0  0  0
 20 19  1  0  0  0  0
 22 21  2  0  0  0  0
 22 20  1  0  0  0  0
 24 23  1  0  0  0  0
 25 24  1  0  0  0  0
 27 26  1  0  0  0  0
 27 25  1  0  0  0  0
 30 29  1  6  0  0  0
 30 28  1  0  0  0  0
 31 30  1  0  0  0  0
 33 32  1  6  0  0  0
 33 34  1  0  0  0  0
 33 31  1  0  0  0  0
 35 34  1  0  0  0  0
 36 35  1  0  0  0  0
 37 36  1  0  0  0  0
 38 37  1  0  0  0  0
M  END
>  <MODEL>
5

>  <REMARK>
 VINA RESULT:      -6.0      2.822      7.406
  Name = 
  17 active torsions:
  status: ('A' for Active; 'I' for Inactive)
    1  A    between atoms: C_3  and  C_5
    2  A    between atoms: C_3  and  C_30
    3  A    between atoms: C_4  and  N_31
    4  A    between atoms: C_4  and  N_33
    5  A    between atoms: C_5  and  O_11
    6  A    between atoms: C_6  and  C_20
    7  A    between atoms: C_6  and  C_24
    8  A    between atoms: C_9  and  C_37
    9  A    between atoms: C_10  and  C_35
   10  A    between atoms: O_11  and  C_15
   11  A    between atoms: C_16  and  O_26
   12  A    between atoms: C_16  and  C_35
   13  A    between atoms: C_17  and  N_33
   14  A    between atoms: C_23  and  O_26
   15  A    between atoms: C_24  and  C_34
   16  A    between atoms: C_28  and  N_31
   17  A    between atoms: C_30  and  C_34
                            x       y       z     vdW  Elec       q    Type
                         _______ _______ _______ _____ _____    ______ ____

>  <TORSDO>
F 17

$$$$
=
 OpenBabel11042417093D

 38 41  0  0  1  0  0  0  0  0999 V2000
  186.0780  179.5160  144.9030 O   0  0  0  0  0  0  0  0  0  0  0  0
  187.1080  178.7480  144.3280 C   0  0  0  0  0  2  0  0  0  0  0  0
  189.3160  177.1220  142.0880 C   0  0  0  0  0  1  0  0  0  0  0  0
  184.8480  179.0370  144.3900 C   0  0  1  0  0  3  0  0  0  0  0  0
  184.4750  177.6200  142.5170 O   0  0  0  0  0  1  0  0  0  0  0  0
  185.0280  177.6500  143.7980 C   0  0  1  0  0  3  0  0  0  0  0  0
  188.2560  174.7880  142.4030 C   0  0  2  0  0  3  0  0  0  0  0  0
  186.8280  175.1890  142.5760 C   0  0  0  0  0  2  0  0  0  0  0  0
  187.1630  176.5250  143.2190 C   0  0  0  0  0  0  0  0  0  0  0  0
  188.6160  176.1200  143.0250 C   0  0  2  0  0  0  0  0  0  0  0  0
  186.4840  177.5610  143.7210 C   0  0  0  0  0  0  0  0  0  0  0  0
  189.2890  175.8920  144.3970 C   0  0  2  0  0  3  0  0  0  0  0  0
  190.2870  176.9780  144.7770 C   0  0  2  0  0  3  0  0  0  0  0  0
  191.3600  176.0520  146.5400 C   0  0  1  0  0  3  0  0  0  0  0  0
  190.7830  175.6350  144.2710 C   0  0  1  0  0  3  0  0  0  0  0  0
  190.4200  177.0340  146.1800 O   0  0  0  0  0  0  0  0  0  0  0  0
  191.3130  174.9590  145.5010 C   0  0  0  0  0  2  0  0  0  0  0  0
  192.6410  176.6150  146.5800 O   0  0  0  0  0  0  0  0  0  0  0  0
  193.5110  175.5220  146.6060 C   0  0  0  0  0  2  0  0  0  0  0  0
  194.8830  175.9380  146.0940 C   0  0  0  0  0  2  0  0  0  0  0  0
  195.5920  176.3590  143.8790 O   0  0  0  0  0  0  0  0  0  0  0  0
  194.7770  176.5990  144.7560 C   0  0  0  0  0  3  0  0  0  0  0  0
  183.8550  178.9990  145.4530 N   0  0  0  0  0  2  0  0  0  0  0  0
  184.2290  177.9310  146.3650 C   0  0  0  0  0  2  0  0  0  0  0  0
  184.6330  178.4950  147.6430 N   0  0  0  0  0  2  0  0  0  0  0  0
  186.2720  176.7260  147.3400 C   0  0  0  0  0  1  0  0  0  0  0  0
  186.0250  178.1340  147.8480 C   0  0  0  0  0  2  0  0  0  0  0  0
  188.5710  174.6430  140.9170 C   0  0  0  0  0  2  0  0  0  0  0  0
  188.1750  172.5950  139.7510 O   0  0  0  0  0  1  0  0  0  0  0  0
  189.0660  173.2360  140.6130 C   0  0  2  0  0  3  0  0  0  0  0  0
  189.1800  172.4320  141.9020 C   0  0  0  0  0  2  0  0  0  0  0  0
  190.4600  170.4010  141.7270 O   0  0  0  0  0  1  0  0  0  0  0  0
  190.5440  171.7540  142.0610 C   0  0  2  0  0  3  0  0  0  0  0  0
  191.1100  171.9060  143.4690 C   0  0  0  0  0  2  0  0  0  0  0  0
  192.0450  170.7560  143.8160 C   0  0  0  0  0  2  0  0  0  0  0  0
  193.1080  171.2180  144.5920 O   0  0  0  0  0  0  0  0  0  0  0  0
  194.0610  171.6380  143.6660 C   0  0  0  0  0  2  0  0  0  0  0  0
  194.8940  172.7490  144.2680 C   0  0  0  0  0  1  0  0  0  0  0  0
  2  1  1  0  0  0  0
  4  1  1  0  0  0  0
  4 23  1  1  0  0  0
  6  5  1  6  0  0  0
  6  4  1  0  0  0  0
  7 28  1  6  0  0  0
  7  8  1  0  0  0  0
  7 10  1  0  0  0  0
  8  9  1  0  0  0  0
  9 11  2  0  0  0  0
 10  3  1  6  0  0  0
 10  9  1  0  0  0  0
 11  6  1  0  0  0  0
 11  2  1  0  0  0  0
 12 10  1  6  0  0  0
 12 13  1  0  0  0  0
 13 16  1  1  0  0  0
 14 18  1  6  0  0  0
 15 12  1  0  0  0  0
 15 13  1  0  0  0  0
 15 17  1  1  0  0  0
 16 14  1  0  0  0  0
 17 14  1  0  0  0  0
 18 19  1  0  0  0  0
 20 19  1  0  0  0  0
 21 22  2  0  0  0  0
 22 20  1  0  0  0  0
 23 24  1  0  0  0  0
 24 25  1  0  0  0  0
 25 27  1  0  0  0  0
 26 27  1  0  0  0  0
 30 29  1  6  0  0  0
 30 28  1  0  0  0  0
 30 31  1  0  0  0  0
 31 33  1  0  0  0  0
 33 32  1  1  0  0  0
 33 34  1  0  0  0  0
 34 35  1  0  0  0  0
 35 36  1  0  0  0  0
 37 38  1  0  0  0  0
 37 36  1  0  0  0  0
M  END
>  <MODEL>
6

>  <REMARK>
 VINA RESULT:      -5.9      3.019      7.227
  Name = 
  17 active torsions:
  status: ('A' for Active; 'I' for Inactive)
    1  A    between atoms: C_3  and  C_5
    2  A    between atoms: C_3  and  C_30
    3  A    between atoms: C_4  and  N_31
    4  A    between atoms: C_4  and  N_33
    5  A    between atoms: C_5  and  O_11
    6  A    between atoms: C_6  and  C_20
    7  A    between atoms: C_6  and  C_24
    8  A    between atoms: C_9  and  C_37
    9  A    between atoms: C_10  and  C_35
   10  A    between atoms: O_11  and  C_15
   11  A    between atoms: C_16  and  O_26
   12  A    between atoms: C_16  and  C_35
   13  A    between atoms: C_17  and  N_33
   14  A    between atoms: C_23  and  O_26
   15  A    between atoms: C_24  and  C_34
   16  A    between atoms: C_28  and  N_31
   17  A    between atoms: C_30  and  C_34
                            x       y       z     vdW  Elec       q    Type
                         _______ _______ _______ _____ _____    ______ ____

>  <TORSDO>
F 17

$$$$
=
 OpenBabel11042417093D

 38 41  0  0  1  0  0  0  0  0999 V2000
  188.0680  175.0790  140.7300 O   0  0  0  0  0  0  0  0  0  0  0  0
  188.5800  175.8240  141.8100 C   0  0  0  0  0  2  0  0  0  0  0  0
  190.5530  177.8720  143.9200 C   0  0  0  0  0  1  0  0  0  0  0  0
  189.0500  174.1280  140.3620 C   0  0  1  0  0  3  0  0  0  0  0  0
  191.3470  174.0570  140.9730 O   0  0  0  0  0  1  0  0  0  0  0  0
  190.0550  173.9450  141.4860 C   0  0  1  0  0  3  0  0  0  0  0  0
  191.4750  175.9060  145.3190 C   0  0  2  0  0  3  0  0  0  0  0  0
  191.5700  174.8680  144.2510 C   0  0  0  0  0  2  0  0  0  0  0  0
  190.3960  175.4150  143.4560 C   0  0  0  0  0  0  0  0  0  0  0  0
  190.3130  176.4810  144.5380 C   0  0  2  0  0  0  0  0  0  0  0  0
  189.7470  175.0950  142.3320 C   0  0  0  0  0  0  0  0  0  0  0  0
  189.0060  176.3150  145.3450 C   0  0  2  0  0  3  0  0  0  0  0  0
  187.8910  177.2530  144.9030 C   0  0  2  0  0  3  0  0  0  0  0  0
  186.3890  177.0440  146.5820 C   0  0  1  0  0  3  0  0  0  0  0  0
  188.6750  177.5500  146.1680 C   0  0  1  0  0  3  0  0  0  0  0  0
  186.6390  176.7000  145.2420 O   0  0  0  0  0  0  0  0  0  0  0  0
  187.7200  177.2140  147.2740 C   0  0  0  0  0  2  0  0  0  0  0  0
  185.6690  178.2410  146.6370 O   0  0  0  0  0  0  0  0  0  0  0  0
  184.4560  177.9580  146.0050 C   0  0  0  0  0  2  0  0  0  0  0  0
  184.1480  179.0290  144.9680 C   0  0  0  0  0  2  0  0  0  0  0  0
  185.0970  178.7070  142.8280 O   0  0  0  0  0  0  0  0  0  0  0  0
  184.1720  178.4580  143.5850 C   0  0  0  0  0  3  0  0  0  0  0  0
  188.4110  172.8580  140.0540 N   0  0  0  0  0  2  0  0  0  0  0  0
  188.9210  172.4110  138.7680 C   0  0  0  0  0  2  0  0  0  0  0  0
  189.7030  171.1990  138.9430 N   0  0  0  0  0  2  0  0  0  0  0  0
  190.0820  169.0530  137.8640 C   0  0  0  0  0  1  0  0  0  0  0  0
  189.7160  170.5110  137.6630 C   0  0  0  0  0  2  0  0  0  0  0  0
  192.7480  176.7480  145.3310 C   0  0  0  0  0  2  0  0  0  0  0  0
  194.5160  175.6380  146.4930 O   0  0  0  0  0  1  0  0  0  0  0  0
  193.9760  175.8560  145.2250 C   0  0  2  0  0  3  0  0  0  0  0  0
  195.0280  176.5160  144.3420 C   0  0  0  0  0  2  0  0  0  0  0  0
  194.8340  174.5940  142.9050 O   0  0  0  0  0  1  0  0  0  0  0  0
  195.7410  175.5210  143.4200 C   0  0  2  0  0  3  0  0  0  0  0  0
  196.8850  174.7950  144.1200 C   0  0  0  0  0  2  0  0  0  0  0  0
  196.5690  173.3180  144.3060 C   0  0  0  0  0  2  0  0  0  0  0  0
  196.6550  172.9740  145.6550 O   0  0  0  0  0  0  0  0  0  0  0  0
  195.8920  171.8130  145.7700 C   0  0  0  0  0  2  0  0  0  0  0  0
  194.4490  172.1230  145.4310 C   0  0  0  0  0  1  0  0  0  0  0  0
  1  2  1  0  0  0  0
  2 11  1  0  0  0  0
  4 23  1  1  0  0  0
  4  1  1  0  0  0  0
  4  6  1  0  0  0  0
  6  5  1  6  0  0  0
  6 11  1  0  0  0  0
  7 28  1  6  0  0  0
  8  7  1  0  0  0  0
  9  8  1  0  0  0  0
  9 10  1  0  0  0  0
 10  3  1  6  0  0  0
 10  7  1  0  0  0  0
 11  9  2  0  0  0  0
 12 10  1  6  0  0  0
 12 15  1  0  0  0  0
 13 16  1  1  0  0  0
 13 12  1  0  0  0  0
 13 15  1  0  0  0  0
 14 18  1  6  0  0  0
 14 17  1  0  0  0  0
 15 17  1  1  0  0  0
 16 14  1  0  0  0  0
 19 18  1  0  0  0  0
 20 19  1  0  0  0  0
 21 22  2  0  0  0  0
 22 20  1  0  0  0  0
 24 25  1  0  0  0  0
 24 23  1  0  0  0  0
 27 26  1  0  0  0  0
 27 25  1  0  0  0  0
 30 28  1  0  0  0  0
 30 29  1  1  0  0  0
 31 30  1  0  0  0  0
 33 32  1  1  0  0  0
 33 34  1  0  0  0  0
 33 31  1  0  0  0  0
 34 35  1  0  0  0  0
 35 36  1  0  0  0  0
 36 37  1  0  0  0  0
 38 37  1  0  0  0  0
M  END
>  <MODEL>
7

>  <REMARK>
 VINA RESULT:      -5.7      1.742      7.981
  Name = 
  17 active torsions:
  status: ('A' for Active; 'I' for Inactive)
    1  A    between atoms: C_3  and  C_5
    2  A    between atoms: C_3  and  C_30
    3  A    between atoms: C_4  and  N_31
    4  A    between atoms: C_4  and  N_33
    5  A    between atoms: C_5  and  O_11
    6  A    between atoms: C_6  and  C_20
    7  A    between atoms: C_6  and  C_24
    8  A    between atoms: C_9  and  C_37
    9  A    between atoms: C_10  and  C_35
   10  A    between atoms: O_11  and  C_15
   11  A    between atoms: C_16  and  O_26
   12  A    between atoms: C_16  and  C_35
   13  A    between atoms: C_17  and  N_33
   14  A    between atoms: C_23  and  O_26
   15  A    between atoms: C_24  and  C_34
   16  A    between atoms: C_28  and  N_31
   17  A    between atoms: C_30  and  C_34
                            x       y       z     vdW  Elec       q    Type
                         _______ _______ _______ _____ _____    ______ ____

>  <TORSDO>
F 17

$$$$
=
 OpenBabel11042417093D

 38 41  0  0  1  0  0  0  0  0999 V2000
  188.8630  174.7530  140.8950 O   0  0  0  0  0  0  0  0  0  0  0  0
  188.8280  175.6540  141.9770 C   0  0  0  0  0  2  0  0  0  0  0  0
  189.6680  177.8690  144.6090 C   0  0  0  0  0  1  0  0  0  0  0  0
  189.6330  173.6340  141.2920 C   0  0  1  0  0  3  0  0  0  0  0  0
  191.0950  173.4270  143.1570 O   0  0  0  0  0  1  0  0  0  0  0  0
  189.7540  173.5870  142.8060 C   0  0  1  0  0  3  0  0  0  0  0  0
  189.1620  176.1680  146.4860 C   0  0  2  0  0  3  0  0  0  0  0  0
  189.6050  174.9140  145.8070 C   0  0  0  0  0  2  0  0  0  0  0  0
  189.2470  175.4070  144.4140 C   0  0  0  0  0  0  0  0  0  0  0  0
  188.8130  176.6890  145.1090 C   0  0  2  0  0  0  0  0  0  0  0  0
  189.2930  174.9250  143.1680 C   0  0  0  0  0  0  0  0  0  0  0  0
  187.2820  176.8630  144.9870 C   0  0  2  0  0  3  0  0  0  0  0  0
  186.8180  177.2360  143.5860 C   0  0  2  0  0  3  0  0  0  0  0  0
  184.6700  177.8540  143.9360 C   0  0  1  0  0  3  0  0  0  0  0  0
  186.8890  178.2970  144.6680 C   0  0  1  0  0  3  0  0  0  0  0  0
  185.4790  176.8340  143.4040 O   0  0  0  0  0  0  0  0  0  0  0  0
  185.4530  178.5480  145.0240 C   0  0  0  0  0  2  0  0  0  0  0  0
  184.3390  178.7690  142.9320 O   0  0  0  0  0  0  0  0  0  0  0  0
  183.7240  178.0040  141.9390 C   0  0  0  0  0  2  0  0  0  0  0  0
  184.1190  178.5230  140.5630 C   0  0  0  0  0  2  0  0  0  0  0  0
  185.9910  177.1690  140.0700 O   0  0  0  0  0  0  0  0  0  0  0  0
  185.5740  178.2920  140.3010 C   0  0  0  0  0  3  0  0  0  0  0  0
  189.0110  172.4130  140.8040 N   0  0  0  0  0  2  0  0  0  0  0  0
  190.0660  171.5670  140.2700 C   0  0  0  0  0  2  0  0  0  0  0  0
  190.4170  172.0060  138.9290 N   0  0  0  0  0  2  0  0  0  0  0  0
  189.9200  171.0260  136.7610 C   0  0  0  0  0  1  0  0  0  0  0  0
  190.5670  170.8120  138.1150 C   0  0  0  0  0  2  0  0  0  0  0  0
  190.3570  176.8340  147.1630 C   0  0  0  0  0  2  0  0  0  0  0  0
  191.5680  175.2910  148.5290 O   0  0  0  0  0  1  0  0  0  0  0  0
  191.5240  175.8610  147.2570 C   0  0  2  0  0  3  0  0  0  0  0  0
  192.8360  176.5910  146.9910 C   0  0  0  0  0  2  0  0  0  0  0  0
  192.7050  176.3520  144.6000 O   0  0  0  0  0  1  0  0  0  0  0  0
  193.5260  176.1270  145.7060 C   0  0  2  0  0  3  0  0  0  0  0  0
  193.9320  174.6580  145.7600 C   0  0  0  0  0  2  0  0  0  0  0  0
  194.3050  174.1370  144.3790 C   0  0  0  0  0  2  0  0  0  0  0  0
  195.5550  173.5200  144.4190 O   0  0  0  0  0  0  0  0  0  0  0  0
  195.7410  173.1910  145.7610 C   0  0  0  0  0  2  0  0  0  0  0  0
  197.1900  173.4140  146.1380 C   0  0  0  0  0  1  0  0  0  0  0  0
  1  4  1  0  0  0  0
  1  2  1  0  0  0  0
  2 11  1  0  0  0  0
  4 23  1  1  0  0  0
  4  6  1  0  0  0  0
  6  5  1  6  0  0  0
  6 11  1  0  0  0  0
  7 28  1  6  0  0  0
  8  7  1  0  0  0  0
  9 10  1  0  0  0  0
  9  8  1  0  0  0  0
 10  3  1  6  0  0  0
 10  7  1  0  0  0  0
 11  9  2  0  0  0  0
 12 10  1  6  0  0  0
 13 16  1  1  0  0  0
 13 15  1  0  0  0  0
 13 12  1  0  0  0  0
 14 18  1  6  0  0  0
 14 17  1  0  0  0  0
 15 12  1  0  0  0  0
 15 17  1  1  0  0  0
 16 14  1  0  0  0  0
 19 18  1  0  0  0  0
 20 19  1  0  0  0  0
 21 22  2  0  0  0  0
 22 20  1  0  0  0  0
 24 23  1  0  0  0  0
 25 24  1  0  0  0  0
 26 27  1  0  0  0  0
 27 25  1  0  0  0  0
 28 30  1  0  0  0  0
 30 29  1  1  0  0  0
 31 30  1  0  0  0  0
 33 32  1  6  0  0  0
 33 34  1  0  0  0  0
 33 31  1  0  0  0  0
 35 36  1  0  0  0  0
 35 34  1  0  0  0  0
 36 37  1  0  0  0  0
 37 38  1  0  0  0  0
M  END
>  <MODEL>
8

>  <REMARK>
 VINA RESULT:      -5.7      1.904      7.656
  Name = 
  17 active torsions:
  status: ('A' for Active; 'I' for Inactive)
    1  A    between atoms: C_3  and  C_5
    2  A    between atoms: C_3  and  C_30
    3  A    between atoms: C_4  and  N_31
    4  A    between atoms: C_4  and  N_33
    5  A    between atoms: C_5  and  O_11
    6  A    between atoms: C_6  and  C_20
    7  A    between atoms: C_6  and  C_24
    8  A    between atoms: C_9  and  C_37
    9  A    between atoms: C_10  and  C_35
   10  A    between atoms: O_11  and  C_15
   11  A    between atoms: C_16  and  O_26
   12  A    between atoms: C_16  and  C_35
   13  A    between atoms: C_17  and  N_33
   14  A    between atoms: C_23  and  O_26
   15  A    between atoms: C_24  and  C_34
   16  A    between atoms: C_28  and  N_31
   17  A    between atoms: C_30  and  C_34
                            x       y       z     vdW  Elec       q    Type
                         _______ _______ _______ _____ _____    ______ ____

>  <TORSDO>
F 17

$$$$
=
 OpenBabel11042417093D

 38 41  0  0  1  0  0  0  0  0999 V2000
  185.5080  178.7800  141.6410 O   0  0  0  0  0  0  0  0  0  0  0  0
  186.6930  178.3010  142.2320 C   0  0  0  0  0  2  0  0  0  0  0  0
  190.0550  177.4420  142.9370 C   0  0  0  0  0  1  0  0  0  0  0  0
  185.3850  178.1710  140.3690 C   0  0  1  0  0  3  0  0  0  0  0  0
  187.0380  177.0030  139.1200 O   0  0  0  0  0  1  0  0  0  0  0  0
  186.2720  176.9410  140.2860 C   0  0  1  0  0  3  0  0  0  0  0  0
  189.7510  174.9360  142.3900 C   0  0  2  0  0  3  0  0  0  0  0  0
  188.7680  175.0470  141.2720 C   0  0  0  0  0  2  0  0  0  0  0  0
  188.1220  176.3120  141.8150 C   0  0  0  0  0  0  0  0  0  0  0  0
  189.1380  176.2050  142.9420 C   0  0  2  0  0  0  0  0  0  0  0  0
  187.1240  177.1250  141.4580 C   0  0  0  0  0  0  0  0  0  0  0  0
  188.4180  175.9000  144.2750 C   0  0  2  0  0  3  0  0  0  0  0  0
  187.6070  177.0710  144.8140 C   0  0  2  0  0  3  0  0  0  0  0  0
  187.1410  176.4060  146.9250 C   0  0  1  0  0  3  0  0  0  0  0  0
  188.9560  176.7380  145.4250 C   0  0  1  0  0  3  0  0  0  0  0  0
  186.5770  176.5940  145.6500 O   0  0  0  0  0  0  0  0  0  0  0  0
  188.6110  176.1150  146.7450 C   0  0  0  0  0  2  0  0  0  0  0  0
  186.9760  177.5640  147.6910 O   0  0  0  0  0  0  0  0  0  0  0  0
  185.5930  177.7290  147.7990 C   0  0  0  0  0  2  0  0  0  0  0  0
  185.1600  178.9880  147.0610 C   0  0  0  0  0  2  0  0  0  0  0  0
  184.2210  178.9510  144.8930 O   0  0  0  0  0  0  0  0  0  0  0  0
  184.0760  178.6840  146.0750 C   0  0  0  0  0  3  0  0  0  0  0  0
  183.9980  177.8010  140.1340 N   0  0  0  0  0  2  0  0  0  0  0  0
  183.2000  178.3920  141.1960 C   0  0  0  0  0  2  0  0  0  0  0  0
  181.7910  178.1260  140.9590 N   0  0  0  0  0  2  0  0  0  0  0  0
  180.0470  179.8190  140.9440 C   0  0  0  0  0  1  0  0  0  0  0  0
  181.0370  179.0470  141.7930 C   0  0  0  0  0  2  0  0  0  0  0  0
  191.1690  175.0710  141.8400 C   0  0  0  0  0  2  0  0  0  0  0  0
  192.9170  173.4730  141.5160 O   0  0  0  0  0  1  0  0  0  0  0  0
  192.0890  174.0430  142.4840 C   0  0  2  0  0  3  0  0  0  0  0  0
  191.2650  172.9450  143.1450 C   0  0  0  0  0  2  0  0  0  0  0  0
  190.8020  173.5860  145.4190 O   0  0  0  0  0  1  0  0  0  0  0  0
  191.6010  172.7590  144.6280 C   0  0  2  0  0  3  0  0  0  0  0  0
  193.0730  173.0190  144.9290 C   0  0  0  0  0  2  0  0  0  0  0  0
  193.2470  174.2340  145.8290 C   0  0  0  0  0  2  0  0  0  0  0  0
  194.0330  175.1950  145.1930 O   0  0  0  0  0  0  0  0  0  0  0  0
  193.2750  176.3640  145.2530 C   0  0  0  0  0  2  0  0  0  0  0  0
  192.5330  176.4160  146.5710 C   0  0  0  0  0  1  0  0  0  0  0  0
  1  2  1  0  0  0  0
  4 23  1  1  0  0  0
  4  1  1  0  0  0  0
  6  5  1  6  0  0  0
  6  4  1  0  0  0  0
  6 11  1  0  0  0  0
  7 28  1  6  0  0  0
  7 10  1  0  0  0  0
  8  9  1  0  0  0  0
  8  7  1  0  0  0  0
  9 10  1  0  0  0  0
 10  3  1  1  0  0  0
 11  9  2  0  0  0  0
 11  2  1  0  0  0  0
 12 10  1  6  0  0  0
 12 13  1  0  0  0  0
 12 15  1  0  0  0  0
 13 15  1  0  0  0  0
 13 16  1  1  0  0  0
 14 18  1  1  0  0  0
 15 17  1  1  0  0  0
 16 14  1  0  0  0  0
 17 14  1  0  0  0  0
 18 19  1  0  0  0  0
 20 19  1  0  0  0  0
 21 22  2  0  0  0  0
 22 20  1  0  0  0  0
 23 24  1  0  0  0  0
 25 24  1  0  0  0  0
 25 27  1  0  0  0  0
 26 27  1  0  0  0  0
 28 30  1  0  0  0  0
 30 29  1  6  0  0  0
 30 31  1  0  0  0  0
 31 33  1  0  0  0  0
 33 34  1  0  0  0  0
 33 32  1  1  0  0  0
 34 35  1  0  0  0  0
 36 37  1  0  0  0  0
 36 35  1  0  0  0  0
 37 38  1  0  0  0  0
M  END
>  <MODEL>
9

>  <REMARK>
 VINA RESULT:      -5.6      2.623      7.894
  Name = 
  17 active torsions:
  status: ('A' for Active; 'I' for Inactive)
    1  A    between atoms: C_3  and  C_5
    2  A    between atoms: C_3  and  C_30
    3  A    between atoms: C_4  and  N_31
    4  A    between atoms: C_4  and  N_33
    5  A    between atoms: C_5  and  O_11
    6  A    between atoms: C_6  and  C_20
    7  A    between atoms: C_6  and  C_24
    8  A    between atoms: C_9  and  C_37
    9  A    between atoms: C_10  and  C_35
   10  A    between atoms: O_11  and  C_15
   11  A    between atoms: C_16  and  O_26
   12  A    between atoms: C_16  and  C_35
   13  A    between atoms: C_17  and  N_33
   14  A    between atoms: C_23  and  O_26
   15  A    between atoms: C_24  and  C_34
   16  A    between atoms: C_28  and  N_31
   17  A    between atoms: C_30  and  C_34
                            x       y       z     vdW  Elec       q    Type
                         _______ _______ _______ _____ _____    ______ ____

>  <TORSDO>
F 17

$$$$
