=
 OpenBabel11042415093D

 69 77  0  0  1  0  0  0  0  0999 V2000
  188.4360  175.2790  141.5170 C   0  0  1  0  0  3  0  0  0  0  0  0
  188.8610  174.4480  142.7280 C   0  0  2  0  0  3  0  0  0  0  0  0
  190.1400  174.9290  143.4310 C   0  0  0  0  0  2  0  0  0  0  0  0
  190.8710  176.0610  142.7100 C   0  0  0  0  0  2  0  0  0  0  0  0
  191.2770  177.1590  143.6810 C   0  0  0  0  0  2  0  0  0  0  0  0
  189.3270  177.5040  145.2540 C   0  0  0  0  0  3  0  0  0  0  0  0
  189.4200  176.5960  147.4950 C   0  0  0  0  0  3  0  0  0  0  0  0
  188.7260  177.2910  146.5010 C   0  0  0  0  0  0  0  0  0  0  0  0
  191.2870  176.3640  146.0160 N   0  0  0  0  0  0  0  0  0  0  0  0
  191.4480  175.4720  148.2540 N   0  0  0  0  0  1  0  0  0  0  0  0
  190.7170  176.1470  147.2370 C   0  0  0  0  0  0  0  0  0  0  0  0
  190.6230  177.0240  145.0220 C   0  0  0  0  0  0  0  0  0  0  0  0
  187.3550  179.2440  148.8200 O   0  0  0  0  0  0  0  0  0  0  0  0
  186.8610  178.6710  147.8150 C   0  0  0  0  0  0  0  0  0  0  0  0
  185.7330  176.4320  145.7990 N   0  0  0  0  0  1  0  0  0  0  0  0
  187.4190  177.7980  146.7630 N   0  0  0  0  0  0  0  0  0  0  0  0
  185.1750  178.5780  147.1530 S   0  0  0  0  0  0  0  0  0  0  0  0
  186.1840  177.7960  146.0160 C   0  0  2  0  0  3  0  0  0  0  0  0
  188.8600  172.9650  142.3770 C   0  0  0  0  0  2  0  0  0  0  0  0
  190.2400  171.4350  143.5880 O   0  0  0  0  0  0  0  0  0  0  0  0
  190.1710  170.9020  142.2870 C   0  0  0  0  0  2  0  0  0  0  0  0
  190.2430  172.3600  142.5280 C   0  0  1  0  0  3  0  0  0  0  0  0
  187.9990  174.3980  140.3620 C   0  0  0  0  0  2  0  0  0  0  0  0
  190.5750  173.8500  137.1120 C   0  0  0  0  0  0  0  0  0  0  0  0
  191.4250  173.8280  136.1830 O   0  0  0  0  0  0  0  0  0  0  0  0
  190.9120  173.3950  138.4850 C   0  0  0  0  0  0  0  0  0  0  0  0
  189.2030  174.4030  136.8420 C   0  0  2  0  0  3  0  0  0  0  0  0
  189.9740  173.6590  139.4860 O   0  0  0  0  0  0  0  0  0  0  0  0
  188.9450  174.5560  139.2690 N   0  0  0  0  0  0  0  0  0  0  0  0
  188.2630  174.1810  138.0320 C   0  0  0  0  0  2  0  0  0  0  0  0
  192.0320  172.7440  138.8180 C   0  0  0  0  0  3  0  0  0  0  0  0
  188.6620  173.8070  135.7150 F   0  0  0  0  0  0  0  0  0  0  0  0
  193.1110  172.3510  137.8610 C   0  0  2  0  0  3  0  0  0  0  0  0
  193.0900  170.9700  137.6840 O   0  0  0  0  0  1  0  0  0  0  0  0
  194.4580  172.7650  138.4270 C   0  0  0  0  0  2  0  0  0  0  0  0
  194.5360  174.2720  138.6160 C   0  0  0  0  0  2  0  0  0  0  0  0
  194.2220  177.4640  145.1580 F   0  0  0  0  0  0  0  0  0  0  0  0
  195.2410  174.9520  140.9300 C   0  0  1  0  0  3  0  0  0  0  0  0
  195.7130  174.6720  139.4890 C   0  0  1  0  0  3  0  0  0  0  0  0
  196.0070  174.1370  141.9970 C   0  0  1  0  0  3  0  0  0  0  0  0
  194.7750  176.2480  144.9190 C   0  0  0  0  0  0  0  0  0  0  0  0
  195.5700  174.1460  145.7380 N   0  0  0  0  0  0  0  0  0  0  0  0
  197.5230  174.2110  141.7710 C   0  0  0  0  0  2  0  0  0  0  0  0
  195.3620  176.4450  141.2370 C   0  0  0  0  0  2  0  0  0  0  0  0
  194.8570  176.7200  142.5420 O   0  0  0  0  0  0  0  0  0  0  0  0
  195.1040  175.8600  143.6180 C   0  0  0  0  0  0  0  0  0  0  0  0
  197.9410  173.8800  140.3360 C   0  0  0  0  0  2  0  0  0  0  0  0
  196.7600  173.5600  139.4210 C   0  0  0  0  0  2  0  0  0  0  0  0
  195.6580  174.5870  143.3910 C   0  0  0  0  0  0  0  0  0  0  0  0
  195.0190  175.3690  145.9750 C   0  0  0  0  0  3  0  0  0  0  0  0
  195.8920  173.7420  144.4810 C   0  0  0  0  0  3  0  0  0  0  0  0
  187.4250  176.2280  141.8260 O   0  0  0  0  0  0  0  0  0  0  0  0
  187.6410  177.6020  141.6870 C   0  0  0  0  0  0  0  0  0  0  0  0
  188.7770  178.1000  141.9240 O   0  0  0  0  0  0  0  0  0  0  0  0
  185.7140  179.0040  142.5170 C   0  0  0  0  0  2  0  0  0  0  0  0
  184.1570  178.2440  140.4140 C   0  0  0  0  0  2  0  0  0  0  0  0
  185.5970  177.7650  140.2790 C   0  0  0  0  0  2  0  0  0  0  0  0
  186.4880  178.4770  141.2990 C   0  0  2  0  0  3  0  0  0  0  0  0
  183.6070  177.8580  141.7210 N   0  0  0  0  0  0  0  0  0  0  0  0
  184.5300  178.0900  142.8530 C   0  0  0  0  0  2  0  0  0  0  0  0
  182.4220  178.6740  141.9490 C   0  0  0  0  0  2  0  0  0  0  0  0
  181.2060  178.0250  141.3100 C   0  0  0  0  0  2  0  0  0  0  0  0
  180.5570  178.9660  140.4100 N   0  0  0  0  0  2  0  0  0  0  0  0
  177.6910  179.4510  142.2780 C   0  0  0  0  0  3  0  0  0  0  0  0
  177.9420  178.0260  142.4810 N   0  0  0  0  0  0  0  0  0  0  0  0
  178.4080  179.8210  141.0480 C   0  0  0  0  0  0  0  0  0  0  0  0
  178.8550  177.5600  141.4280 C   0  0  0  0  0  2  0  0  0  0  0  0
  178.3820  180.9430  140.5670 O   0  0  0  0  0  0  0  0  0  0  0  0
  179.1300  178.6900  140.4440 C   0  0  2  0  0  3  0  0  0  0  0  0
  1 23  1  6  0  0  0
  1 52  1  0  0  0  0
  1  2  1  0  0  0  0
  2 19  1  6  0  0  0
  2  3  1  0  0  0  0
  4  3  1  0  0  0  0
  4  5  1  0  0  0  0
  5 12  1  0  0  0  0
  6  8  1  0  0  0  0
  8 16  1  0  0  0  0
  8  7  2  0  0  0  0
  9 11  2  0  0  0  0
 11  7  1  0  0  0  0
 11 10  1  0  0  0  0
 12  6  2  0  0  0  0
 12  9  1  0  0  0  0
 14 13  2  0  0  0  0
 16 14  1  0  0  0  0
 17 14  1  0  0  0  0
 18 15  1  1  0  0  0
 18 16  1  0  0  0  0
 18 17  1  0  0  0  0
 21 22  1  0  0  0  0
 21 20  1  0  0  0  0
 22 19  1  1  0  0  0
 22 20  1  0  0  0  0
 24 26  1  0  0  0  0
 25 24  2  0  0  0  0
 26 31  2  0  0  0  0
 26 28  1  0  0  0  0
 27 32  1  6  0  0  0
 27 24  1  0  0  0  0
 27 30  1  0  0  0  0
 29 28  1  0  0  0  0
 29 23  1  0  0  0  0
 30 29  1  0  0  0  0
 33 34  1  1  0  0  0
 33 35  1  0  0  0  0
 33 31  1  0  0  0  0
 35 36  1  0  0  0  0
 38 44  1  1  0  0  0
 38 40  1  0  0  0  0
 39 36  1  6  0  0  0
 39 38  1  0  0  0  0
 40 43  1  6  0  0  0
 40 49  1  0  0  0  0
 41 37  1  0  0  0  0
 41 50  1  0  0  0  0
 42 50  2  0  0  0  0
 44 45  1  0  0  0  0
 45 46  1  0  0  0  0
 46 41  2  0  0  0  0
 47 43  1  0  0  0  0
 48 39  1  0  0  0  0
 48 47  1  0  0  0  0
 49 46  1  0  0  0  0
 49 51  2  0  0  0  0
 51 42  1  0  0  0  0
 53 52  1  0  0  0  0
 53 54  2  0  0  0  0
 55 60  1  0  0  0  0
 56 59  1  0  0  0  0
 57 56  1  0  0  0  0
 57 58  1  0  0  0  0
 58 53  1  1  0  0  0
 58 55  1  0  0  0  0
 59 61  1  0  0  0  0
 59 60  1  0  0  0  0
 62 61  1  0  0  0  0
 63 62  1  0  0  0  0
 64 65  2  0  0  0  0
 66 64  1  0  0  0  0
 67 65  1  0  0  0  0
 68 66  2  0  0  0  0
 69 63  1  1  0  0  0
 69 66  1  0  0  0  0
 69 67  1  0  0  0  0
M  END
>  <MODEL>
1

>  <REMARK>
 VINA RESULT:      -7.7      0.000      0.000
  Name = 
  21 active torsions:
  status: ('A' for Active; 'I' for Inactive)
    1  A    between atoms: C_8  and  C_9
    2  A    between atoms: C_8  and  C_37
    3  A    between atoms: C_9  and  C_11
    4  A    between atoms: C_10  and  C_56
    5  A    between atoms: C_10  and  N_66
    6  A    between atoms: C_15  and  C_54
    7  A    between atoms: C_15  and  C_62
    8  A    between atoms: C_18  and  C_51
    9  A    between atoms: C_18  and  C_65
   10  A    between atoms: C_20  and  N_42
   11  A    between atoms: O_26  and  C_27
   12  A    between atoms: O_26  and  C_45
   13  A    between atoms: C_27  and  C_33
   14  A    between atoms: C_37  and  C_59
   15  A    between atoms: N_39  and  C_41
   16  A    between atoms: C_41  and  C_45
   17  A    between atoms: C_45  and  C_51
   18  A    between atoms: C_48  and  C_51
   19  A    between atoms: C_48  and  C_54
   20  A    between atoms: C_56  and  N_64
   21  A    between atoms: N_66  and  C_67
                            x       y       z     vdW  Elec       q    Type
                         _______ _______ _______ _____ _____    ______ ____

>  <TORSDO>
F 21

$$$$
=
 OpenBabel11042415093D

 69 77  0  0  1  0  0  0  0  0999 V2000
  189.0730  175.1420  142.2450 C   0  0  1  0  0  3  0  0  0  0  0  0
  190.2120  174.6350  143.1300 C   0  0  2  0  0  3  0  0  0  0  0  0
  189.7900  174.1690  144.5320 C   0  0  0  0  0  2  0  0  0  0  0  0
  190.3200  172.7900  144.9270 C   0  0  0  0  0  2  0  0  0  0  0  0
  190.9760  172.0950  143.7440 C   0  0  0  0  0  2  0  0  0  0  0  0
  193.4570  172.3710  144.1480 C   0  0  0  0  0  3  0  0  0  0  0  0
  194.7800  170.4630  144.8300 C   0  0  0  0  0  3  0  0  0  0  0  0
  194.6890  171.8240  144.5270 C   0  0  0  0  0  0  0  0  0  0  0  0
  192.4490  170.2120  144.3520 N   0  0  0  0  0  0  0  0  0  0  0  0
  193.7290  168.2680  144.9920 N   0  0  0  0  0  1  0  0  0  0  0  0
  193.6410  169.6610  144.7230 C   0  0  0  0  0  0  0  0  0  0  0  0
  192.3300  171.5420  144.0690 C   0  0  0  0  0  0  0  0  0  0  0  0
  197.9280  171.4150  143.8780 O   0  0  0  0  0  0  0  0  0  0  0  0
  197.2780  172.4150  144.2800 C   0  0  0  0  0  0  0  0  0  0  0  0
  195.5840  174.4460  146.1110 N   0  0  0  0  0  1  0  0  0  0  0  0
  195.8520  172.6490  144.5830 N   0  0  0  0  0  0  0  0  0  0  0  0
  197.7670  174.0970  144.7470 S   0  0  0  0  0  0  0  0  0  0  0  0
  196.0590  174.0620  144.7930 C   0  0  2  0  0  3  0  0  0  0  0  0
  191.3690  175.6270  143.1230 C   0  0  0  0  0  2  0  0  0  0  0  0
  192.7870  175.6090  145.0460 O   0  0  0  0  0  0  0  0  0  0  0  0
  192.9180  176.9060  144.5180 C   0  0  0  0  0  2  0  0  0  0  0  0
  191.6240  176.1890  144.5080 C   0  0  1  0  0  3  0  0  0  0  0  0
  188.4370  174.0130  141.4560 C   0  0  0  0  0  2  0  0  0  0  0  0
  190.1100  172.4960  137.9340 C   0  0  0  0  0  0  0  0  0  0  0  0
  190.7620  172.0900  136.9360 O   0  0  0  0  0  0  0  0  0  0  0  0
  190.0440  171.7090  139.1910 C   0  0  0  0  0  0  0  0  0  0  0  0
  189.4290  173.8360  137.8740 C   0  0  2  0  0  3  0  0  0  0  0  0
  189.4800  172.3390  140.3030 O   0  0  0  0  0  0  0  0  0  0  0  0
  189.2820  173.7080  140.3120 N   0  0  0  0  0  0  0  0  0  0  0  0
  188.5460  174.0720  139.1040 C   0  0  0  0  0  2  0  0  0  0  0  0
  190.4690  170.4470  139.3230 C   0  0  0  0  0  3  0  0  0  0  0  0
  188.6550  173.9250  136.7300 F   0  0  0  0  0  0  0  0  0  0  0  0
  191.0550  169.6220  138.2240 C   0  0  2  0  0  3  0  0  0  0  0  0
  190.0610  168.8210  137.6680 O   0  0  0  0  0  1  0  0  0  0  0  0
  192.1530  168.7390  138.7910 C   0  0  0  0  0  2  0  0  0  0  0  0
  193.4530  168.9150  138.0220 C   0  0  0  0  0  2  0  0  0  0  0  0
  196.3780  175.5880  138.0420 F   0  0  0  0  0  0  0  0  0  0  0  0
  194.6410  170.9520  138.8890 C   0  0  1  0  0  3  0  0  0  0  0  0
  194.5760  169.4120  138.9160 C   0  0  1  0  0  3  0  0  0  0  0  0
  194.5800  171.5950  140.2940 C   0  0  1  0  0  3  0  0  0  0  0  0
  195.7470  175.0200  139.1010 C   0  0  0  0  0  0  0  0  0  0  0  0
  194.6760  175.2430  141.2280 N   0  0  0  0  0  0  0  0  0  0  0  0
  195.5520  170.9080  141.2620 C   0  0  0  0  0  2  0  0  0  0  0  0
  195.9100  171.4070  138.1690 C   0  0  0  0  0  2  0  0  0  0  0  0
  195.9380  172.8300  138.0760 O   0  0  0  0  0  0  0  0  0  0  0  0
  195.5230  173.6400  139.1380 C   0  0  0  0  0  0  0  0  0  0  0  0
  195.4150  169.3830  141.2830 C   0  0  0  0  0  2  0  0  0  0  0  0
  194.3480  168.8590  140.3240 C   0  0  0  0  0  2  0  0  0  0  0  0
  194.8490  173.0750  140.2360 C   0  0  0  0  0  0  0  0  0  0  0  0
  195.3130  175.8100  140.1660 C   0  0  0  0  0  3  0  0  0  0  0  0
  194.4380  173.9060  141.2840 C   0  0  0  0  0  3  0  0  0  0  0  0
  188.0830  175.8550  142.9730 O   0  0  0  0  0  0  0  0  0  0  0  0
  188.1290  177.2460  143.1020 C   0  0  0  0  0  0  0  0  0  0  0  0
  188.7190  177.7820  144.0820 O   0  0  0  0  0  0  0  0  0  0  0  0
  186.2380  178.8640  142.6780 C   0  0  0  0  0  2  0  0  0  0  0  0
  185.7810  177.8020  140.2110 C   0  0  0  0  0  2  0  0  0  0  0  0
  187.0370  177.2400  140.8670 C   0  0  0  0  0  2  0  0  0  0  0  0
  187.4220  178.0870  142.0820 C   0  0  2  0  0  3  0  0  0  0  0  0
  184.6330  177.6890  141.1210 N   0  0  0  0  0  0  0  0  0  0  0  0
  184.9300  178.0840  142.5150 C   0  0  0  0  0  2  0  0  0  0  0  0
  183.5990  178.5870  140.6240 C   0  0  0  0  0  2  0  0  0  0  0  0
  182.3900  178.5570  141.5440 C   0  0  0  0  0  2  0  0  0  0  0  0
  181.3450  177.7290  140.9630 N   0  0  0  0  0  2  0  0  0  0  0  0
  177.9800  178.0860  141.6590 C   0  0  0  0  0  3  0  0  0  0  0  0
  177.9530  177.7120  140.2470 N   0  0  0  0  0  0  0  0  0  0  0  0
  179.3280  178.6110  141.9190 C   0  0  0  0  0  0  0  0  0  0  0  0
  179.2900  177.9420  139.6810 C   0  0  0  0  0  2  0  0  0  0  0  0
  179.6820  179.0490  143.0020 O   0  0  0  0  0  0  0  0  0  0  0  0
  180.1920  178.5830  140.7270 C   0  0  2  0  0  3  0  0  0  0  0  0
  1 23  1  1  0  0  0
  1 52  1  0  0  0  0
  1  2  1  0  0  0  0
  2 19  1  1  0  0  0
  2  3  1  0  0  0  0
  3  4  1  0  0  0  0
  5 12  1  0  0  0  0
  5  4  1  0  0  0  0
  6  8  1  0  0  0  0
  8 16  1  0  0  0  0
  8  7  2  0  0  0  0
  9 11  2  0  0  0  0
 11  7  1  0  0  0  0
 11 10  1  0  0  0  0
 12  6  2  0  0  0  0
 12  9  1  0  0  0  0
 13 14  2  0  0  0  0
 14 16  1  0  0  0  0
 14 17  1  0  0  0  0
 16 18  1  0  0  0  0
 17 18  1  0  0  0  0
 18 15  1  1  0  0  0
 21 20  1  0  0  0  0
 22 19  1  6  0  0  0
 22 21  1  0  0  0  0
 22 20  1  0  0  0  0
 24 26  1  0  0  0  0
 25 24  2  0  0  0  0
 26 31  2  0  0  0  0
 26 28  1  0  0  0  0
 27 32  1  6  0  0  0
 27 24  1  0  0  0  0
 27 30  1  0  0  0  0
 28 29  1  0  0  0  0
 29 23  1  0  0  0  0
 30 29  1  0  0  0  0
 33 34  1  1  0  0  0
 33 35  1  0  0  0  0
 33 31  1  0  0  0  0
 36 35  1  0  0  0  0
 37 41  1  0  0  0  0
 38 44  1  1  0  0  0
 38 39  1  0  0  0  0
 38 40  1  0  0  0  0
 39 36  1  6  0  0  0
 39 48  1  0  0  0  0
 40 43  1  1  0  0  0
 41 46  2  0  0  0  0
 41 50  1  0  0  0  0
 42 51  1  0  0  0  0
 43 47  1  0  0  0  0
 45 44  1  0  0  0  0
 45 46  1  0  0  0  0
 46 49  1  0  0  0  0
 48 47  1  0  0  0  0
 49 40  1  0  0  0  0
 49 51  2  0  0  0  0
 50 42  2  0  0  0  0
 52 53  1  0  0  0  0
 53 54  2  0  0  0  0
 56 57  1  0  0  0  0
 56 59  1  0  0  0  0
 57 58  1  0  0  0  0
 58 55  1  0  0  0  0
 58 53  1  1  0  0  0
 59 60  1  0  0  0  0
 60 55  1  0  0  0  0
 61 59  1  0  0  0  0
 61 62  1  0  0  0  0
 63 62  1  0  0  0  0
 64 66  1  0  0  0  0
 65 64  2  0  0  0  0
 66 68  2  0  0  0  0
 67 65  1  0  0  0  0
 67 69  1  0  0  0  0
 69 63  1  1  0  0  0
 69 66  1  0  0  0  0
M  END
>  <MODEL>
2

>  <REMARK>
 VINA RESULT:      -6.9      3.116      5.337
  Name = 
  21 active torsions:
  status: ('A' for Active; 'I' for Inactive)
    1  A    between atoms: C_8  and  C_9
    2  A    between atoms: C_8  and  C_37
    3  A    between atoms: C_9  and  C_11
    4  A    between atoms: C_10  and  C_56
    5  A    between atoms: C_10  and  N_66
    6  A    between atoms: C_15  and  C_54
    7  A    between atoms: C_15  and  C_62
    8  A    between atoms: C_18  and  C_51
    9  A    between atoms: C_18  and  C_65
   10  A    between atoms: C_20  and  N_42
   11  A    between atoms: O_26  and  C_27
   12  A    between atoms: O_26  and  C_45
   13  A    between atoms: C_27  and  C_33
   14  A    between atoms: C_37  and  C_59
   15  A    between atoms: N_39  and  C_41
   16  A    between atoms: C_41  and  C_45
   17  A    between atoms: C_45  and  C_51
   18  A    between atoms: C_48  and  C_51
   19  A    between atoms: C_48  and  C_54
   20  A    between atoms: C_56  and  N_64
   21  A    between atoms: N_66  and  C_67
                            x       y       z     vdW  Elec       q    Type
                         _______ _______ _______ _____ _____    ______ ____

>  <TORSDO>
F 21

$$$$
=
 OpenBabel11042415093D

 69 77  0  0  1  0  0  0  0  0999 V2000
  188.7970  174.6350  140.9240 C   0  0  1  0  0  3  0  0  0  0  0  0
  189.3290  173.6340  141.9490 C   0  0  2  0  0  3  0  0  0  0  0  0
  189.2220  174.0830  143.4140 C   0  0  0  0  0  2  0  0  0  0  0  0
  190.5660  174.3110  144.1060 C   0  0  0  0  0  2  0  0  0  0  0  0
  190.8840  175.7940  144.2130 C   0  0  0  0  0  2  0  0  0  0  0  0
  188.9500  176.7270  145.5490 C   0  0  0  0  0  3  0  0  0  0  0  0
  189.3100  177.4550  147.8290 C   0  0  0  0  0  3  0  0  0  0  0  0
  188.4490  177.2500  146.7480 C   0  0  0  0  0  0  0  0  0  0  0  0
  191.1390  176.6540  146.5110 N   0  0  0  0  0  0  0  0  0  0  0  0
  191.5610  177.4020  148.7670 N   0  0  0  0  0  1  0  0  0  0  0  0
  190.6680  177.1620  147.6870 C   0  0  0  0  0  0  0  0  0  0  0  0
  190.3150  176.4260  145.4460 C   0  0  0  0  0  0  0  0  0  0  0  0
  185.6800  176.5310  145.0480 O   0  0  0  0  0  0  0  0  0  0  0  0
  185.8690  177.2390  146.0720 C   0  0  0  0  0  0  0  0  0  0  0  0
  186.7540  179.6280  148.0350 N   0  0  0  0  0  1  0  0  0  0  0  0
  187.0680  177.5900  146.8590 N   0  0  0  0  0  0  0  0  0  0  0  0
  184.7640  178.2460  147.0970 S   0  0  0  0  0  0  0  0  0  0  0  0
  186.2880  178.2620  147.8710 C   0  0  2  0  0  3  0  0  0  0  0  0
  190.7150  173.1480  141.5430 C   0  0  0  0  0  2  0  0  0  0  0  0
  190.2420  170.9850  140.6430 O   0  0  0  0  0  0  0  0  0  0  0  0
  191.6450  171.0870  140.6090 C   0  0  0  0  0  2  0  0  0  0  0  0
  190.8500  171.6480  141.7240 C   0  0  1  0  0  3  0  0  0  0  0  0
  188.1580  173.9340  139.7390 C   0  0  0  0  0  2  0  0  0  0  0  0
  190.0070  173.7640  135.9900 C   0  0  0  0  0  0  0  0  0  0  0  0
  190.6950  173.7900  134.9350 O   0  0  0  0  0  0  0  0  0  0  0  0
  190.2340  172.7400  137.0410 C   0  0  0  0  0  0  0  0  0  0  0  0
  188.9710  174.8290  136.2210 C   0  0  2  0  0  3  0  0  0  0  0  0
  189.5730  172.9240  138.2570 O   0  0  0  0  0  0  0  0  0  0  0  0
  188.9940  174.1410  138.5670 N   0  0  0  0  0  0  0  0  0  0  0  0
  188.1220  174.5280  137.4610 C   0  0  0  0  0  2  0  0  0  0  0  0
  191.0070  171.6570  136.8950 C   0  0  0  0  0  3  0  0  0  0  0  0
  188.1440  174.9350  135.1150 F   0  0  0  0  0  0  0  0  0  0  0  0
  191.7460  171.2950  135.6470 C   0  0  2  0  0  3  0  0  0  0  0  0
  191.1870  170.1430  135.0980 O   0  0  0  0  0  1  0  0  0  0  0  0
  193.2030  171.0340  135.9860 C   0  0  0  0  0  2  0  0  0  0  0  0
  193.9570  172.3360  136.2110 C   0  0  0  0  0  2  0  0  0  0  0  0
  195.8060  177.3530  141.1600 F   0  0  0  0  0  0  0  0  0  0  0  0
  194.8370  173.2990  138.3580 C   0  0  1  0  0  3  0  0  0  0  0  0
  195.0130  172.1980  137.2930 C   0  0  1  0  0  3  0  0  0  0  0  0
  194.7160  172.7480  139.7980 C   0  0  1  0  0  3  0  0  0  0  0  0
  195.3020  176.1280  141.4550 C   0  0  0  0  0  0  0  0  0  0  0  0
  194.2690  174.6440  143.0210 N   0  0  0  0  0  0  0  0  0  0  0  0
  195.8100  171.7130  140.0910 C   0  0  0  0  0  2  0  0  0  0  0  0
  195.9990  174.2890  138.2810 C   0  0  0  0  0  2  0  0  0  0  0  0
  195.8030  175.3500  139.2140 O   0  0  0  0  0  0  0  0  0  0  0  0
  195.2960  175.1120  140.4960 C   0  0  0  0  0  0  0  0  0  0  0  0
  195.9130  170.6180  139.0250 C   0  0  0  0  0  2  0  0  0  0  0  0
  194.9140  170.7900  137.8830 C   0  0  0  0  0  2  0  0  0  0  0  0
  194.7500  173.8560  140.8170 C   0  0  0  0  0  0  0  0  0  0  0  0
  194.7790  175.8710  142.7240 C   0  0  0  0  0  3  0  0  0  0  0  0
  194.2440  173.6420  142.1040 C   0  0  0  0  0  3  0  0  0  0  0  0
  187.8930  175.5750  141.4870 O   0  0  0  0  0  0  0  0  0  0  0  0
  188.2090  176.9340  141.5750 C   0  0  0  0  0  0  0  0  0  0  0  0
  189.2640  177.3120  142.1580 O   0  0  0  0  0  0  0  0  0  0  0  0
  186.3930  178.6080  142.0930 C   0  0  0  0  0  2  0  0  0  0  0  0
  185.0490  177.9710  139.8090 C   0  0  0  0  0  2  0  0  0  0  0  0
  186.4160  177.3030  139.8900 C   0  0  0  0  0  2  0  0  0  0  0  0
  187.2480  177.9350  141.0090 C   0  0  2  0  0  3  0  0  0  0  0  0
  184.2790  177.7140  141.0350 N   0  0  0  0  0  0  0  0  0  0  0  0
  185.0620  177.8710  142.2800 C   0  0  0  0  0  2  0  0  0  0  0  0
  183.1950  178.6860  141.0750 C   0  0  0  0  0  2  0  0  0  0  0  0
  181.8800  178.0220  140.7030 C   0  0  0  0  0  2  0  0  0  0  0  0
  180.9680  178.0600  141.8360 N   0  0  0  0  0  2  0  0  0  0  0  0
  177.8890  176.8140  140.8860 C   0  0  0  0  0  3  0  0  0  0  0  0
  178.4660  177.1950  139.5990 N   0  0  0  0  0  0  0  0  0  0  0  0
  178.6170  177.5840  141.9050 C   0  0  0  0  0  0  0  0  0  0  0  0
  179.5740  178.1280  139.8460 C   0  0  0  0  0  2  0  0  0  0  0  0
  178.3620  177.5300  143.0990 O   0  0  0  0  0  0  0  0  0  0  0  0
  179.6610  178.4480  141.3310 C   0  0  2  0  0  3  0  0  0  0  0  0
  1 23  1  6  0  0  0
  1 52  1  0  0  0  0
  1  2  1  0  0  0  0
  2 19  1  6  0  0  0
  2  3  1  0  0  0  0
  3  4  1  0  0  0  0
  4  5  1  0  0  0  0
  5 12  1  0  0  0  0
  6  8  1  0  0  0  0
  8 16  1  0  0  0  0
  8  7  2  0  0  0  0
  9 11  2  0  0  0  0
 11  7  1  0  0  0  0
 11 10  1  0  0  0  0
 12  6  2  0  0  0  0
 12  9  1  0  0  0  0
 13 14  2  0  0  0  0
 14 16  1  0  0  0  0
 14 17  1  0  0  0  0
 16 18  1  0  0  0  0
 17 18  1  0  0  0  0
 18 15  1  6  0  0  0
 20 22  1  0  0  0  0
 21 20  1  0  0  0  0
 21 22  1  0  0  0  0
 22 19  1  6  0  0  0
 24 27  1  0  0  0  0
 24 26  1  0  0  0  0
 25 24  2  0  0  0  0
 26 28  1  0  0  0  0
 27 32  1  6  0  0  0
 27 30  1  0  0  0  0
 28 29  1  0  0  0  0
 29 23  1  0  0  0  0
 30 29  1  0  0  0  0
 31 26  2  0  0  0  0
 33 34  1  1  0  0  0
 33 35  1  0  0  0  0
 33 31  1  0  0  0  0
 35 36  1  0  0  0  0
 37 41  1  0  0  0  0
 38 44  1  1  0  0  0
 38 40  1  0  0  0  0
 39 36  1  6  0  0  0
 39 48  1  0  0  0  0
 39 38  1  0  0  0  0
 40 43  1  1  0  0  0
 40 49  1  0  0  0  0
 41 50  1  0  0  0  0
 44 45  1  0  0  0  0
 45 46  1  0  0  0  0
 46 49  1  0  0  0  0
 46 41  2  0  0  0  0
 47 43  1  0  0  0  0
 48 47  1  0  0  0  0
 49 51  2  0  0  0  0
 50 42  2  0  0  0  0
 51 42  1  0  0  0  0
 52 53  1  0  0  0  0
 53 54  2  0  0  0  0
 55 60  1  0  0  0  0
 56 57  1  0  0  0  0
 56 59  1  0  0  0  0
 57 58  1  0  0  0  0
 58 53  1  1  0  0  0
 58 55  1  0  0  0  0
 59 61  1  0  0  0  0
 59 60  1  0  0  0  0
 62 61  1  0  0  0  0
 62 63  1  0  0  0  0
 64 66  1  0  0  0  0
 65 67  1  0  0  0  0
 65 64  2  0  0  0  0
 66 68  2  0  0  0  0
 67 69  1  0  0  0  0
 69 63  1  1  0  0  0
 69 66  1  0  0  0  0
M  END
>  <MODEL>
3

>  <REMARK>
 VINA RESULT:      -6.8      1.842      2.361
  Name = 
  21 active torsions:
  status: ('A' for Active; 'I' for Inactive)
    1  A    between atoms: C_8  and  C_9
    2  A    between atoms: C_8  and  C_37
    3  A    between atoms: C_9  and  C_11
    4  A    between atoms: C_10  and  C_56
    5  A    between atoms: C_10  and  N_66
    6  A    between atoms: C_15  and  C_54
    7  A    between atoms: C_15  and  C_62
    8  A    between atoms: C_18  and  C_51
    9  A    between atoms: C_18  and  C_65
   10  A    between atoms: C_20  and  N_42
   11  A    between atoms: O_26  and  C_27
   12  A    between atoms: O_26  and  C_45
   13  A    between atoms: C_27  and  C_33
   14  A    between atoms: C_37  and  C_59
   15  A    between atoms: N_39  and  C_41
   16  A    between atoms: C_41  and  C_45
   17  A    between atoms: C_45  and  C_51
   18  A    between atoms: C_48  and  C_51
   19  A    between atoms: C_48  and  C_54
   20  A    between atoms: C_56  and  N_64
   21  A    between atoms: N_66  and  C_67
                            x       y       z     vdW  Elec       q    Type
                         _______ _______ _______ _____ _____    ______ ____

>  <TORSDO>
F 21

$$$$
=
 OpenBabel11042415093D

 69 77  0  0  1  0  0  0  0  0999 V2000
  191.4300  175.7060  145.6650 C   0  0  1  0  0  3  0  0  0  0  0  0
  192.7620  176.3430  145.2680 C   0  0  2  0  0  3  0  0  0  0  0  0
  193.0770  176.3100  143.7640 C   0  0  0  0  0  2  0  0  0  0  0  0
  191.8560  176.1100  142.8670 C   0  0  0  0  0  2  0  0  0  0  0  0
  192.1270  175.0650  141.7950 C   0  0  0  0  0  2  0  0  0  0  0  0
  190.9150  173.6920  140.0500 C   0  0  0  0  0  3  0  0  0  0  0  0
  188.5130  173.4380  140.1820 C   0  0  0  0  0  3  0  0  0  0  0  0
  189.7250  173.1510  139.5490 C   0  0  0  0  0  0  0  0  0  0  0  0
  189.6740  174.8060  141.7660 N   0  0  0  0  0  0  0  0  0  0  0  0
  187.2720  174.6170  141.9210 N   0  0  0  0  0  1  0  0  0  0  0  0
  188.5040  174.2870  141.2920 C   0  0  0  0  0  0  0  0  0  0  0  0
  190.8730  174.5250  141.1770 C   0  0  0  0  0  0  0  0  0  0  0  0
  190.1510  169.9070  138.9450 O   0  0  0  0  0  0  0  0  0  0  0  0
  189.9400  170.8780  138.1720 C   0  0  0  0  0  0  0  0  0  0  0  0
  190.3080  173.5620  136.4390 N   0  0  0  0  0  1  0  0  0  0  0  0
  189.7470  172.3260  138.3860 N   0  0  0  0  0  0  0  0  0  0  0  0
  189.8090  171.0140  136.3690 S   0  0  0  0  0  0  0  0  0  0  0  0
  189.4230  172.5550  136.9990 C   0  0  2  0  0  3  0  0  0  0  0  0
  193.8840  175.8180  146.1550 C   0  0  0  0  0  2  0  0  0  0  0  0
  196.0260  174.7590  146.1790 O   0  0  0  0  0  0  0  0  0  0  0  0
  195.1770  173.8330  145.5450 C   0  0  0  0  0  2  0  0  0  0  0  0
  195.0410  175.2900  145.3280 C   0  0  1  0  0  3  0  0  0  0  0  0
  191.5960  174.2380  146.0110 C   0  0  0  0  0  2  0  0  0  0  0  0
  191.0640  171.2120  143.1730 C   0  0  0  0  0  0  0  0  0  0  0  0
  190.9840  170.4030  142.2110 O   0  0  0  0  0  0  0  0  0  0  0  0
  192.3050  171.3450  143.9750 C   0  0  0  0  0  0  0  0  0  0  0  0
  189.8950  172.1070  143.4810 C   0  0  2  0  0  3  0  0  0  0  0  0
  192.3650  172.4120  144.8740 O   0  0  0  0  0  0  0  0  0  0  0  0
  191.4570  173.4520  144.7960 N   0  0  0  0  0  0  0  0  0  0  0  0
  190.1110  172.8850  144.7840 C   0  0  0  0  0  2  0  0  0  0  0  0
  193.3490  170.5110  143.9070 C   0  0  0  0  0  3  0  0  0  0  0  0
  188.7350  171.3580  143.5830 F   0  0  0  0  0  0  0  0  0  0  0  0
  193.4240  169.3030  143.0320 C   0  0  2  0  0  3  0  0  0  0  0  0
  193.1470  168.1660  143.7880 O   0  0  0  0  0  1  0  0  0  0  0  0
  194.8230  169.1910  142.4510 C   0  0  0  0  0  2  0  0  0  0  0  0
  194.7860  168.6650  141.0240 C   0  0  0  0  0  2  0  0  0  0  0  0
  196.1210  175.8100  140.5120 F   0  0  0  0  0  0  0  0  0  0  0  0
  194.9340  170.9560  140.0020 C   0  0  1  0  0  3  0  0  0  0  0  0
  194.1210  169.6480  140.0760 C   0  0  1  0  0  3  0  0  0  0  0  0
  195.3210  171.3600  138.5610 C   0  0  1  0  0  3  0  0  0  0  0  0
  196.3030  174.9170  139.5070 C   0  0  0  0  0  0  0  0  0  0  0  0
  197.2760  174.3600  137.3940 N   0  0  0  0  0  0  0  0  0  0  0  0
  194.1130  171.2770  137.6180 C   0  0  0  0  0  2  0  0  0  0  0  0
  194.1540  172.0910  140.6640 C   0  0  0  0  0  2  0  0  0  0  0  0
  194.9320  173.2870  140.6650 O   0  0  0  0  0  0  0  0  0  0  0  0
  195.7120  173.6520  139.5620 C   0  0  0  0  0  0  0  0  0  0  0  0
  193.3690  169.9410  137.6970 C   0  0  0  0  0  2  0  0  0  0  0  0
  193.9740  168.9720  138.7120 C   0  0  0  0  0  2  0  0  0  0  0  0
  195.9320  172.7350  138.5190 C   0  0  0  0  0  0  0  0  0  0  0  0
  197.0880  175.2550  138.4030 C   0  0  0  0  0  3  0  0  0  0  0  0
  196.7200  173.1200  137.4280 C   0  0  0  0  0  3  0  0  0  0  0  0
  190.7830  176.3940  146.7270 O   0  0  0  0  0  0  0  0  0  0  0  0
  189.4060  176.2840  146.9400 C   0  0  0  0  0  0  0  0  0  0  0  0
  188.9130  175.2230  147.4180 O   0  0  0  0  0  0  0  0  0  0  0  0
  187.1400  177.3610  147.2120 C   0  0  0  0  0  2  0  0  0  0  0  0
  187.1120  178.1380  144.6000 C   0  0  0  0  0  2  0  0  0  0  0  0
  188.4510  177.5450  145.0200 C   0  0  0  0  0  2  0  0  0  0  0  0
  188.5220  177.4270  146.5440 C   0  0  2  0  0  3  0  0  0  0  0  0
  186.0140  177.2270  144.9540 N   0  0  0  0  0  0  0  0  0  0  0  0
  186.1270  176.6470  146.3090 C   0  0  0  0  0  2  0  0  0  0  0  0
  184.7800  178.0020  144.9120 C   0  0  0  0  0  2  0  0  0  0  0  0
  184.7940  178.9470  143.7210 C   0  0  0  0  0  2  0  0  0  0  0  0
  184.2060  178.2910  142.5630 N   0  0  0  0  0  2  0  0  0  0  0  0
  185.9030  177.2030  139.7570 C   0  0  0  0  0  3  0  0  0  0  0  0
  186.9940  177.7060  140.5880 N   0  0  0  0  0  0  0  0  0  0  0  0
  184.6790  177.8510  140.2520 C   0  0  0  0  0  0  0  0  0  0  0  0
  186.4250  178.5890  141.6150 C   0  0  0  0  0  2  0  0  0  0  0  0
  183.5780  177.6770  139.7530 O   0  0  0  0  0  0  0  0  0  0  0  0
  184.9290  178.7520  141.3880 C   0  0  2  0  0  3  0  0  0  0  0  0
  1 23  1  1  0  0  0
  1 52  1  0  0  0  0
  2  3  1  6  0  0  0
  2  1  1  0  0  0  0
  2 19  1  0  0  0  0
  4  3  1  0  0  0  0
  5  4  1  0  0  0  0
  6 12  1  0  0  0  0
  7 11  2  0  0  0  0
  8  6  2  0  0  0  0
  8  7  1  0  0  0  0
 11  9  1  0  0  0  0
 11 10  1  0  0  0  0
 12  9  2  0  0  0  0
 12  5  1  0  0  0  0
 14 16  1  0  0  0  0
 14 13  2  0  0  0  0
 16  8  1  0  0  0  0
 17 18  1  0  0  0  0
 17 14  1  0  0  0  0
 18 15  1  6  0  0  0
 18 16  1  0  0  0  0
 21 20  1  0  0  0  0
 22 21  1  0  0  0  0
 22 19  1  1  0  0  0
 22 20  1  0  0  0  0
 24 27  1  0  0  0  0
 24 26  1  0  0  0  0
 25 24  2  0  0  0  0
 26 28  1  0  0  0  0
 27 32  1  1  0  0  0
 27 30  1  0  0  0  0
 29 28  1  0  0  0  0
 29 23  1  0  0  0  0
 30 29  1  0  0  0  0
 31 26  2  0  0  0  0
 33 34  1  1  0  0  0
 33 31  1  0  0  0  0
 35 33  1  0  0  0  0
 36 35  1  0  0  0  0
 38 39  1  0  0  0  0
 38 44  1  6  0  0  0
 39 36  1  1  0  0  0
 40 43  1  6  0  0  0
 40 38  1  0  0  0  0
 41 46  1  0  0  0  0
 41 37  1  0  0  0  0
 42 51  2  0  0  0  0
 42 50  1  0  0  0  0
 43 47  1  0  0  0  0
 44 45  1  0  0  0  0
 46 45  1  0  0  0  0
 47 48  1  0  0  0  0
 48 39  1  0  0  0  0
 49 40  1  0  0  0  0
 49 46  2  0  0  0  0
 50 41  2  0  0  0  0
 51 49  1  0  0  0  0
 52 53  1  0  0  0  0
 53 54  2  0  0  0  0
 56 59  1  0  0  0  0
 56 57  1  0  0  0  0
 57 58  1  0  0  0  0
 58 53  1  6  0  0  0
 58 55  1  0  0  0  0
 59 60  1  0  0  0  0
 60 55  1  0  0  0  0
 61 59  1  0  0  0  0
 62 61  1  0  0  0  0
 63 62  1  0  0  0  0
 64 66  1  0  0  0  0
 64 65  2  0  0  0  0
 65 67  1  0  0  0  0
 66 69  1  0  0  0  0
 68 66  2  0  0  0  0
 69 67  1  0  0  0  0
 69 63  1  1  0  0  0
M  END
>  <MODEL>
4

>  <REMARK>
 VINA RESULT:      -6.7      3.549      6.830
  Name = 
  21 active torsions:
  status: ('A' for Active; 'I' for Inactive)
    1  A    between atoms: C_8  and  C_9
    2  A    between atoms: C_8  and  C_37
    3  A    between atoms: C_9  and  C_11
    4  A    between atoms: C_10  and  C_56
    5  A    between atoms: C_10  and  N_66
    6  A    between atoms: C_15  and  C_54
    7  A    between atoms: C_15  and  C_62
    8  A    between atoms: C_18  and  C_51
    9  A    between atoms: C_18  and  C_65
   10  A    between atoms: C_20  and  N_42
   11  A    between atoms: O_26  and  C_27
   12  A    between atoms: O_26  and  C_45
   13  A    between atoms: C_27  and  C_33
   14  A    between atoms: C_37  and  C_59
   15  A    between atoms: N_39  and  C_41
   16  A    between atoms: C_41  and  C_45
   17  A    between atoms: C_45  and  C_51
   18  A    between atoms: C_48  and  C_51
   19  A    between atoms: C_48  and  C_54
   20  A    between atoms: C_56  and  N_64
   21  A    between atoms: N_66  and  C_67
                            x       y       z     vdW  Elec       q    Type
                         _______ _______ _______ _____ _____    ______ ____

>  <TORSDO>
F 21

$$$$
=
 OpenBabel11042415093D

 69 77  0  0  1  0  0  0  0  0999 V2000
  191.6140  173.2560  141.6470 C   0  0  1  0  0  3  0  0  0  0  0  0
  190.7330  172.0170  141.8110 C   0  0  2  0  0  3  0  0  0  0  0  0
  191.4540  170.7720  142.3490 C   0  0  0  0  0  2  0  0  0  0  0  0
  191.7790  170.8250  143.8420 C   0  0  0  0  0  2  0  0  0  0  0  0
  192.9350  169.8980  144.1860 C   0  0  0  0  0  2  0  0  0  0  0  0
  194.3370  172.0020  144.2460 C   0  0  0  0  0  3  0  0  0  0  0  0
  196.5030  171.9670  145.3240 C   0  0  0  0  0  3  0  0  0  0  0  0
  195.5030  172.6680  144.6450 C   0  0  0  0  0  0  0  0  0  0  0  0
  195.1950  169.9700  145.1710 N   0  0  0  0  0  0  0  0  0  0  0  0
  197.3650  169.8700  146.2240 N   0  0  0  0  0  1  0  0  0  0  0  0
  196.3370  170.6020  145.5690 C   0  0  0  0  0  0  0  0  0  0  0  0
  194.1950  170.6360  144.5240 C   0  0  0  0  0  0  0  0  0  0  0  0
  193.9340  175.4910  145.4480 O   0  0  0  0  0  0  0  0  0  0  0  0
  194.9460  175.2740  144.7320 C   0  0  0  0  0  0  0  0  0  0  0  0
  196.8610  174.3690  142.3110 N   0  0  0  0  0  1  0  0  0  0  0  0
  195.6760  174.0510  144.3440 N   0  0  0  0  0  0  0  0  0  0  0  0
  196.0190  176.3590  143.7520 S   0  0  0  0  0  0  0  0  0  0  0  0
  196.7210  174.8020  143.6910 C   0  0  2  0  0  3  0  0  0  0  0  0
  189.9240  171.7730  140.5430 C   0  0  0  0  0  2  0  0  0  0  0  0
  189.1320  173.6940  139.3630 O   0  0  0  0  0  0  0  0  0  0  0  0
  188.2150  172.6760  139.0440 C   0  0  0  0  0  2  0  0  0  0  0  0
  188.8100  172.7920  140.3930 C   0  0  1  0  0  3  0  0  0  0  0  0
  191.4930  174.1870  142.8390 C   0  0  0  0  0  2  0  0  0  0  0  0
  189.3940  177.7760  142.3710 C   0  0  0  0  0  0  0  0  0  0  0  0
  188.8030  178.8450  142.0670 O   0  0  0  0  0  0  0  0  0  0  0  0
  188.7710  176.4490  142.1380 C   0  0  0  0  0  0  0  0  0  0  0  0
  190.7890  177.8390  142.9300 C   0  0  2  0  0  3  0  0  0  0  0  0
  189.5870  175.3280  142.3080 O   0  0  0  0  0  0  0  0  0  0  0  0
  190.9610  175.4620  142.3840 N   0  0  0  0  0  0  0  0  0  0  0  0
  191.2680  176.4620  143.4030 C   0  0  0  0  0  2  0  0  0  0  0  0
  187.4910  176.2580  141.7970 C   0  0  0  0  0  3  0  0  0  0  0  0
  190.8380  178.7290  143.9900 F   0  0  0  0  0  0  0  0  0  0  0  0
  186.4810  177.3450  141.6190 C   0  0  2  0  0  3  0  0  0  0  0  0
  186.6790  177.9620  140.3860 O   0  0  0  0  0  1  0  0  0  0  0  0
  186.6490  178.3710  142.7260 C   0  0  0  0  0  2  0  0  0  0  0  0
  185.3510  178.5690  143.4940 C   0  0  0  0  0  2  0  0  0  0  0  0
  190.6630  174.3510  146.1550 F   0  0  0  0  0  0  0  0  0  0  0  0
  186.8470  177.4710  145.1880 C   0  0  1  0  0  3  0  0  0  0  0  0
  185.4170  177.9590  144.8830 C   0  0  1  0  0  3  0  0  0  0  0  0
  187.4290  178.0480  146.4980 C   0  0  1  0  0  3  0  0  0  0  0  0
  190.3040  175.5540  146.6680 C   0  0  0  0  0  0  0  0  0  0  0  0
  190.8040  177.4390  148.0540 N   0  0  0  0  0  0  0  0  0  0  0  0
  186.4270  177.9230  147.6540 C   0  0  0  0  0  2  0  0  0  0  0  0
  186.8750  175.9430  145.2400 C   0  0  0  0  0  2  0  0  0  0  0  0
  188.2090  175.4840  145.4480 O   0  0  0  0  0  0  0  0  0  0  0  0
  189.0780  176.1350  146.3310 C   0  0  0  0  0  0  0  0  0  0  0  0
  185.0350  178.4640  147.3140 C   0  0  0  0  0  2  0  0  0  0  0  0
  184.9280  179.0030  145.8890 C   0  0  0  0  0  2  0  0  0  0  0  0
  188.7350  177.3930  146.8580 C   0  0  0  0  0  0  0  0  0  0  0  0
  191.1600  176.2280  147.5410 C   0  0  0  0  0  3  0  0  0  0  0  0
  189.6220  178.0280  147.7350 C   0  0  0  0  0  3  0  0  0  0  0  0
  192.9770  172.9360  141.4060 O   0  0  0  0  0  0  0  0  0  0  0  0
  193.7190  173.5880  140.4170 C   0  0  0  0  0  0  0  0  0  0  0  0
  193.8620  174.8430  140.4430 O   0  0  0  0  0  0  0  0  0  0  0  0
  193.2620  171.8490  138.6470 C   0  0  0  0  0  2  0  0  0  0  0  0
  195.7300  170.7440  138.9880 C   0  0  0  0  0  2  0  0  0  0  0  0
  195.5560  172.0400  139.7690 C   0  0  0  0  0  2  0  0  0  0  0  0
  194.2990  172.7760  139.2990 C   0  0  2  0  0  3  0  0  0  0  0  0
  194.6270  169.8180  139.2770 N   0  0  0  0  0  0  0  0  0  0  0  0
  193.2930  170.4550  139.2850 C   0  0  0  0  0  2  0  0  0  0  0  0
  194.6230  168.8090  138.2260 C   0  0  0  0  0  2  0  0  0  0  0  0
  193.1980  168.5000  137.7990 C   0  0  0  0  0  2  0  0  0  0  0  0
  192.9630  169.0070  136.4560 N   0  0  0  0  0  2  0  0  0  0  0  0
  189.8970  170.5980  136.3930 C   0  0  0  0  0  3  0  0  0  0  0  0
  189.7470  169.7080  137.5410 N   0  0  0  0  0  0  0  0  0  0  0  0
  190.9800  170.0330  135.5750 C   0  0  0  0  0  0  0  0  0  0  0  0
  190.7730  168.6600  137.4530 C   0  0  0  0  0  2  0  0  0  0  0  0
  191.3450  170.5160  134.5140 O   0  0  0  0  0  0  0  0  0  0  0  0
  191.5550  168.8070  136.1550 C   0  0  2  0  0  3  0  0  0  0  0  0
  1  2  1  0  0  0  0
  1 23  1  1  0  0  0
  2 19  1  6  0  0  0
  2  3  1  0  0  0  0
  3  4  1  0  0  0  0
  4  5  1  0  0  0  0
  5 12  1  0  0  0  0
  6 12  2  0  0  0  0
  6  8  1  0  0  0  0
  7 11  1  0  0  0  0
  8  7  2  0  0  0  0
  9 11  2  0  0  0  0
 11 10  1  0  0  0  0
 12  9  1  0  0  0  0
 14 13  2  0  0  0  0
 16  8  1  0  0  0  0
 16 14  1  0  0  0  0
 17 14  1  0  0  0  0
 18 15  1  6  0  0  0
 18 17  1  0  0  0  0
 18 16  1  0  0  0  0
 20 22  1  0  0  0  0
 21 20  1  0  0  0  0
 21 22  1  0  0  0  0
 22 19  1  6  0  0  0
 24 27  1  0  0  0  0
 25 24  2  0  0  0  0
 26 28  1  0  0  0  0
 26 24  1  0  0  0  0
 27 30  1  0  0  0  0
 27 32  1  1  0  0  0
 28 29  1  0  0  0  0
 29 23  1  0  0  0  0
 29 30  1  0  0  0  0
 31 26  2  0  0  0  0
 33 34  1  6  0  0  0
 33 31  1  0  0  0  0
 33 35  1  0  0  0  0
 35 36  1  0  0  0  0
 37 41  1  0  0  0  0
 38 44  1  1  0  0  0
 38 40  1  0  0  0  0
 39 36  1  6  0  0  0
 39 38  1  0  0  0  0
 39 48  1  0  0  0  0
 40 49  1  0  0  0  0
 40 43  1  1  0  0  0
 41 50  1  0  0  0  0
 44 45  1  0  0  0  0
 45 46  1  0  0  0  0
 46 41  2  0  0  0  0
 46 49  1  0  0  0  0
 47 43  1  0  0  0  0
 48 47  1  0  0  0  0
 49 51  2  0  0  0  0
 50 42  2  0  0  0  0
 51 42  1  0  0  0  0
 52  1  1  0  0  0  0
 53 54  2  0  0  0  0
 53 52  1  0  0  0  0
 55 60  1  0  0  0  0
 55 58  1  0  0  0  0
 56 59  1  0  0  0  0
 56 57  1  0  0  0  0
 58 57  1  0  0  0  0
 58 53  1  1  0  0  0
 59 60  1  0  0  0  0
 61 59  1  0  0  0  0
 62 61  1  0  0  0  0
 63 62  1  0  0  0  0
 64 65  2  0  0  0  0
 66 69  1  0  0  0  0
 66 64  1  0  0  0  0
 67 65  1  0  0  0  0
 68 66  2  0  0  0  0
 69 63  1  1  0  0  0
 69 67  1  0  0  0  0
M  END
>  <MODEL>
5

>  <REMARK>
 VINA RESULT:      -6.4      4.201     10.001
  Name = 
  21 active torsions:
  status: ('A' for Active; 'I' for Inactive)
    1  A    between atoms: C_8  and  C_9
    2  A    between atoms: C_8  and  C_37
    3  A    between atoms: C_9  and  C_11
    4  A    between atoms: C_10  and  C_56
    5  A    between atoms: C_10  and  N_66
    6  A    between atoms: C_15  and  C_54
    7  A    between atoms: C_15  and  C_62
    8  A    between atoms: C_18  and  C_51
    9  A    between atoms: C_18  and  C_65
   10  A    between atoms: C_20  and  N_42
   11  A    between atoms: O_26  and  C_27
   12  A    between atoms: O_26  and  C_45
   13  A    between atoms: C_27  and  C_33
   14  A    between atoms: C_37  and  C_59
   15  A    between atoms: N_39  and  C_41
   16  A    between atoms: C_41  and  C_45
   17  A    between atoms: C_45  and  C_51
   18  A    between atoms: C_48  and  C_51
   19  A    between atoms: C_48  and  C_54
   20  A    between atoms: C_56  and  N_64
   21  A    between atoms: N_66  and  C_67
                            x       y       z     vdW  Elec       q    Type
                         _______ _______ _______ _____ _____    ______ ____

>  <TORSDO>
F 21

$$$$
=
 OpenBabel11042415093D

 69 77  0  0  1  0  0  0  0  0999 V2000
  186.0830  178.4540  142.7340 C   0  0  1  0  0  3  0  0  0  0  0  0
  186.5890  178.2130  144.1570 C   0  0  2  0  0  3  0  0  0  0  0  0
  186.4430  176.7700  144.6640 C   0  0  0  0  0  2  0  0  0  0  0  0
  187.2030  176.4740  145.9570 C   0  0  0  0  0  2  0  0  0  0  0  0
  188.6020  177.0700  145.9210 C   0  0  0  0  0  2  0  0  0  0  0  0
  190.9980  176.4360  145.4200 C   0  0  0  0  0  3  0  0  0  0  0  0
  191.5810  174.1080  145.1070 C   0  0  0  0  0  3  0  0  0  0  0  0
  191.9630  175.4500  145.1760 C   0  0  0  0  0  0  0  0  0  0  0  0
  189.3070  174.7460  145.4910 N   0  0  0  0  0  0  0  0  0  0  0  0
  189.8270  172.4130  145.1480 N   0  0  0  0  0  1  0  0  0  0  0  0
  190.2340  173.7720  145.2540 C   0  0  0  0  0  0  0  0  0  0  0  0
  189.6580  176.0620  145.5820 C   0  0  0  0  0  0  0  0  0  0  0  0
  194.2360  177.1660  146.8980 O   0  0  0  0  0  0  0  0  0  0  0  0
  194.2990  176.5840  145.7840 C   0  0  0  0  0  0  0  0  0  0  0  0
  193.9110  175.8430  142.6780 N   0  0  0  0  0  1  0  0  0  0  0  0
  193.3270  175.8170  144.9790 N   0  0  0  0  0  0  0  0  0  0  0  0
  195.6160  176.4250  144.5490 S   0  0  0  0  0  0  0  0  0  0  0  0
  194.3280  175.4400  144.0100 C   0  0  2  0  0  3  0  0  0  0  0  0
  186.0310  179.2690  145.1030 C   0  0  0  0  0  2  0  0  0  0  0  0
  184.2830  177.8380  145.8820 O   0  0  0  0  0  0  0  0  0  0  0  0
  184.2500  178.9460  146.7490 C   0  0  0  0  0  2  0  0  0  0  0  0
  184.5370  179.0950  145.3050 C   0  0  1  0  0  3  0  0  0  0  0  0
  187.1910  178.2830  141.7120 C   0  0  0  0  0  2  0  0  0  0  0  0
  188.8910  174.5660  140.8180 C   0  0  0  0  0  0  0  0  0  0  0  0
  189.2580  173.3810  140.6040 O   0  0  0  0  0  0  0  0  0  0  0  0
  188.0010  175.2860  139.8730 C   0  0  0  0  0  0  0  0  0  0  0  0
  189.3150  175.2510  142.0880 C   0  0  2  0  0  3  0  0  0  0  0  0
  187.4810  176.5100  140.3020 O   0  0  0  0  0  0  0  0  0  0  0  0
  187.5430  176.8740  141.6340 N   0  0  0  0  0  0  0  0  0  0  0  0
  188.9250  176.7340  142.0830 C   0  0  0  0  0  2  0  0  0  0  0  0
  187.6810  174.8540  138.6480 C   0  0  0  0  0  3  0  0  0  0  0  0
  190.6850  175.1390  142.2550 F   0  0  0  0  0  0  0  0  0  0  0  0
  188.1860  173.5920  138.0260 C   0  0  2  0  0  3  0  0  0  0  0  0
  187.9860  172.5320  138.9060 O   0  0  0  0  0  1  0  0  0  0  0  0
  189.6710  173.7340  137.7400 C   0  0  0  0  0  2  0  0  0  0  0  0
  190.0910  172.8630  136.5660 C   0  0  0  0  0  2  0  0  0  0  0  0
  194.6940  172.6070  142.2080 F   0  0  0  0  0  0  0  0  0  0  0  0
  191.4480  171.8900  138.4430 C   0  0  1  0  0  3  0  0  0  0  0  0
  190.9130  171.6680  137.0140 C   0  0  1  0  0  3  0  0  0  0  0  0
  191.0870  170.7470  139.4190 C   0  0  1  0  0  3  0  0  0  0  0  0
  193.5860  171.8350  142.0810 C   0  0  0  0  0  0  0  0  0  0  0  0
  191.9460  170.4010  143.0700 N   0  0  0  0  0  0  0  0  0  0  0  0
  191.3900  169.3740  138.8040 C   0  0  0  0  0  2  0  0  0  0  0  0
  192.9650  172.0770  138.4070 C   0  0  0  0  0  2  0  0  0  0  0  0
  193.4560  172.3560  139.7170 O   0  0  0  0  0  0  0  0  0  0  0  0
  192.9550  171.6930  140.8420 C   0  0  0  0  0  0  0  0  0  0  0  0
  190.7980  169.1890  137.4040 C   0  0  0  0  0  2  0  0  0  0  0  0
  190.0400  170.4170  136.9020 C   0  0  0  0  0  2  0  0  0  0  0  0
  191.7950  170.9040  140.7380 C   0  0  0  0  0  0  0  0  0  0  0  0
  193.0610  171.1730  143.1930 C   0  0  0  0  0  3  0  0  0  0  0  0
  191.3100  170.2530  141.8780 C   0  0  0  0  0  3  0  0  0  0  0  0
  184.9700  177.6370  142.3980 O   0  0  0  0  0  0  0  0  0  0  0  0
  183.9480  178.0980  141.5630 C   0  0  0  0  0  0  0  0  0  0  0  0
  184.2200  178.6660  140.4690 O   0  0  0  0  0  0  0  0  0  0  0  0
  181.5630  177.6820  140.8490 C   0  0  0  0  0  2  0  0  0  0  0  0
  180.6180  179.3970  142.7450 C   0  0  0  0  0  2  0  0  0  0  0  0
  182.1140  179.1440  142.8790 C   0  0  0  0  0  2  0  0  0  0  0  0
  182.5270  177.9490  142.0160 C   0  0  2  0  0  3  0  0  0  0  0  0
  180.2860  179.8000  141.3710 N   0  0  0  0  0  0  0  0  0  0  0  0
  180.9540  178.9890  140.3290 C   0  0  0  0  0  2  0  0  0  0  0  0
  178.8490  179.6260  141.2050 C   0  0  0  0  0  2  0  0  0  0  0  0
  178.4650  179.7910  139.7430 C   0  0  0  0  0  2  0  0  0  0  0  0
  177.9270  181.1240  139.5210 N   0  0  0  0  0  2  0  0  0  0  0  0
  177.9010  183.6940  137.2120 C   0  0  0  0  0  3  0  0  0  0  0  0
  177.6910  182.5260  136.3600 N   0  0  0  0  0  0  0  0  0  0  0  0
  178.5100  183.1920  138.4530 C   0  0  0  0  0  0  0  0  0  0  0  0
  178.1030  181.3290  137.1050 C   0  0  0  0  0  2  0  0  0  0  0  0
  178.8500  183.9150  139.3760 O   0  0  0  0  0  0  0  0  0  0  0  0
  178.6970  181.7320  138.4480 C   0  0  2  0  0  3  0  0  0  0  0  0
  1 23  1  6  0  0  0
  1  2  1  0  0  0  0
  2  3  1  1  0  0  0
  2 19  1  0  0  0  0
  3  4  1  0  0  0  0
  5  4  1  0  0  0  0
  6 12  1  0  0  0  0
  7  8  1  0  0  0  0
  7 11  2  0  0  0  0
  8  6  2  0  0  0  0
  9 12  2  0  0  0  0
 10 11  1  0  0  0  0
 11  9  1  0  0  0  0
 12  5  1  0  0  0  0
 14 13  2  0  0  0  0
 16  8  1  0  0  0  0
 16 14  1  0  0  0  0
 17 14  1  0  0  0  0
 18 15  1  6  0  0  0
 18 17  1  0  0  0  0
 18 16  1  0  0  0  0
 20 21  1  0  0  0  0
 22 19  1  1  0  0  0
 22 20  1  0  0  0  0
 22 21  1  0  0  0  0
 24 27  1  0  0  0  0
 25 24  2  0  0  0  0
 26 28  1  0  0  0  0
 26 24  1  0  0  0  0
 27 32  1  6  0  0  0
 28 29  1  0  0  0  0
 29 23  1  0  0  0  0
 29 30  1  0  0  0  0
 30 27  1  0  0  0  0
 31 26  2  0  0  0  0
 33 31  1  0  0  0  0
 33 34  1  1  0  0  0
 35 33  1  0  0  0  0
 36 35  1  0  0  0  0
 38 44  1  6  0  0  0
 38 40  1  0  0  0  0
 39 36  1  1  0  0  0
 39 38  1  0  0  0  0
 40 43  1  6  0  0  0
 40 49  1  0  0  0  0
 41 37  1  0  0  0  0
 41 50  1  0  0  0  0
 42 50  2  0  0  0  0
 44 45  1  0  0  0  0
 45 46  1  0  0  0  0
 46 41  2  0  0  0  0
 47 43  1  0  0  0  0
 48 39  1  0  0  0  0
 48 47  1  0  0  0  0
 49 46  1  0  0  0  0
 49 51  2  0  0  0  0
 51 42  1  0  0  0  0
 52  1  1  0  0  0  0
 53 52  1  0  0  0  0
 54 53  2  0  0  0  0
 55 58  1  0  0  0  0
 56 57  1  0  0  0  0
 58 53  1  6  0  0  0
 58 57  1  0  0  0  0
 59 56  1  0  0  0  0
 60 55  1  0  0  0  0
 60 59  1  0  0  0  0
 61 59  1  0  0  0  0
 62 61  1  0  0  0  0
 63 62  1  0  0  0  0
 64 66  1  0  0  0  0
 65 67  1  0  0  0  0
 65 64  2  0  0  0  0
 66 68  2  0  0  0  0
 67 69  1  0  0  0  0
 69 66  1  0  0  0  0
 69 63  1  1  0  0  0
M  END
>  <MODEL>
6

>  <REMARK>
 VINA RESULT:      -6.2      3.053      5.733
  Name = 
  21 active torsions:
  status: ('A' for Active; 'I' for Inactive)
    1  A    between atoms: C_8  and  C_9
    2  A    between atoms: C_8  and  C_37
    3  A    between atoms: C_9  and  C_11
    4  A    between atoms: C_10  and  C_56
    5  A    between atoms: C_10  and  N_66
    6  A    between atoms: C_15  and  C_54
    7  A    between atoms: C_15  and  C_62
    8  A    between atoms: C_18  and  C_51
    9  A    between atoms: C_18  and  C_65
   10  A    between atoms: C_20  and  N_42
   11  A    between atoms: O_26  and  C_27
   12  A    between atoms: O_26  and  C_45
   13  A    between atoms: C_27  and  C_33
   14  A    between atoms: C_37  and  C_59
   15  A    between atoms: N_39  and  C_41
   16  A    between atoms: C_41  and  C_45
   17  A    between atoms: C_45  and  C_51
   18  A    between atoms: C_48  and  C_51
   19  A    between atoms: C_48  and  C_54
   20  A    between atoms: C_56  and  N_64
   21  A    between atoms: N_66  and  C_67
                            x       y       z     vdW  Elec       q    Type
                         _______ _______ _______ _____ _____    ______ ____

>  <TORSDO>
F 21

$$$$
=
 OpenBabel11042415093D

 69 77  0  0  1  0  0  0  0  0999 V2000
  189.9750  172.6640  138.5900 C   0  0  1  0  0  3  0  0  0  0  0  0
  189.1220  173.9330  138.6100 C   0  0  2  0  0  3  0  0  0  0  0  0
  188.1630  174.0530  139.8040 C   0  0  0  0  0  2  0  0  0  0  0  0
  188.6730  174.9400  140.9400 C   0  0  0  0  0  2  0  0  0  0  0  0
  187.8000  174.8050  142.1780 C   0  0  0  0  0  2  0  0  0  0  0  0
  186.8630  176.5060  143.7970 C   0  0  0  0  0  3  0  0  0  0  0  0
  185.6940  178.4480  142.9500 C   0  0  0  0  0  3  0  0  0  0  0  0
  186.1890  177.7120  144.0290 C   0  0  0  0  0  0  0  0  0  0  0  0
  186.5110  176.7760  141.4460 N   0  0  0  0  0  0  0  0  0  0  0  0
  185.3200  178.6760  140.5500 N   0  0  0  0  0  1  0  0  0  0  0  0
  185.8530  177.9540  141.6540 C   0  0  0  0  0  0  0  0  0  0  0  0
  187.0210  176.0480  142.4820 C   0  0  0  0  0  0  0  0  0  0  0  0
  187.7720  177.3420  146.9330 O   0  0  0  0  0  0  0  0  0  0  0  0
  186.7340  177.9830  146.6260 C   0  0  0  0  0  0  0  0  0  0  0  0
  183.7220  178.7320  145.7780 N   0  0  0  0  0  1  0  0  0  0  0  0
  185.9930  178.1780  145.3630 N   0  0  0  0  0  0  0  0  0  0  0  0
  185.5650  178.9750  147.5940 S   0  0  0  0  0  0  0  0  0  0  0  0
  185.1030  179.1470  145.9570 C   0  0  2  0  0  3  0  0  0  0  0  0
  188.4640  174.1490  137.2540 C   0  0  0  0  0  2  0  0  0  0  0  0
  188.8710  174.5150  134.9270 O   0  0  0  0  0  0  0  0  0  0  0  0
  189.1030  175.7640  135.5320 C   0  0  0  0  0  2  0  0  0  0  0  0
  189.4890  174.4970  136.1910 C   0  0  1  0  0  3  0  0  0  0  0  0
  190.4330  172.2780  139.9840 C   0  0  0  0  0  2  0  0  0  0  0  0
  194.6040  172.5500  139.8010 C   0  0  0  0  0  0  0  0  0  0  0  0
  195.8490  172.7180  139.8900 O   0  0  0  0  0  0  0  0  0  0  0  0
  193.9050  171.4890  140.5690 C   0  0  0  0  0  0  0  0  0  0  0  0
  193.7950  173.4830  138.9410 C   0  0  2  0  0  3  0  0  0  0  0  0
  192.5090  171.5230  140.5670 O   0  0  0  0  0  0  0  0  0  0  0  0
  191.8320  172.6490  140.1360 N   0  0  0  0  0  0  0  0  0  0  0  0
  192.3410  173.0140  138.8170 C   0  0  0  0  0  2  0  0  0  0  0  0
  194.5160  170.5070  141.2390 C   0  0  0  0  0  3  0  0  0  0  0  0
  194.3560  173.5740  137.6790 F   0  0  0  0  0  0  0  0  0  0  0  0
  195.9960  170.3060  141.3040 C   0  0  2  0  0  3  0  0  0  0  0  0
  196.2840  168.9480  141.1920 O   0  0  0  0  0  1  0  0  0  0  0  0
  196.5130  170.8210  142.6370 C   0  0  0  0  0  2  0  0  0  0  0  0
  195.3730  171.3010  143.5210 C   0  0  0  0  0  2  0  0  0  0  0  0
  190.5980  176.7700  142.9090 F   0  0  0  0  0  0  0  0  0  0  0  0
  194.2220  173.4760  144.0260 C   0  0  1  0  0  3  0  0  0  0  0  0
  195.5740  172.7370  143.9730 C   0  0  1  0  0  3  0  0  0  0  0  0
  193.9340  174.1350  145.3940 C   0  0  1  0  0  3  0  0  0  0  0  0
  191.0860  176.3000  144.0850 C   0  0  0  0  0  0  0  0  0  0  0  0
  190.9290  176.1370  146.4660 N   0  0  0  0  0  0  0  0  0  0  0  0
  195.1460  174.9350  145.8920 C   0  0  0  0  0  2  0  0  0  0  0  0
  194.1640  174.5330  142.9230 C   0  0  0  0  0  2  0  0  0  0  0  0
  192.8870  175.1700  142.9200 O   0  0  0  0  0  0  0  0  0  0  0  0
  192.2340  175.5030  144.1110 C   0  0  0  0  0  0  0  0  0  0  0  0
  196.4540  174.1390  145.8620 C   0  0  0  0  0  2  0  0  0  0  0  0
  196.2850  172.7180  145.3270 C   0  0  0  0  0  2  0  0  0  0  0  0
  192.7100  175.0100  145.3390 C   0  0  0  0  0  0  0  0  0  0  0  0
  190.4440  176.6100  145.2850 C   0  0  0  0  0  3  0  0  0  0  0  0
  192.0380  175.3530  146.5170 C   0  0  0  0  0  3  0  0  0  0  0  0
  189.3210  171.5690  137.9640 O   0  0  0  0  0  0  0  0  0  0  0  0
  189.9010  170.2980  137.9180 C   0  0  0  0  0  0  0  0  0  0  0  0
  189.9300  169.5670  138.9480 O   0  0  0  0  0  0  0  0  0  0  0  0
  191.7700  168.9610  136.8730 C   0  0  0  0  0  2  0  0  0  0  0  0
  192.0080  170.7500  134.8300 C   0  0  0  0  0  2  0  0  0  0  0  0
  190.8050  171.0340  135.7200 C   0  0  0  0  0  2  0  0  0  0  0  0
  190.5320  169.8400  136.6370 C   0  0  2  0  0  3  0  0  0  0  0  0
  193.2270  170.6190  135.6420 N   0  0  0  0  0  0  0  0  0  0  0  0
  193.0510  169.8020  136.8620 C   0  0  0  0  0  2  0  0  0  0  0  0
  194.2270  169.9580  134.8140 C   0  0  0  0  0  2  0  0  0  0  0  0
  195.3790  170.9060  134.5240 C   0  0  0  0  0  2  0  0  0  0  0  0
  195.5550  171.8250  135.6380 N   0  0  0  0  0  2  0  0  0  0  0  0
  197.7480  174.0620  137.0960 C   0  0  0  0  0  3  0  0  0  0  0  0
  197.1570  174.8740  136.0350 N   0  0  0  0  0  0  0  0  0  0  0  0
  197.5350  172.6600  136.7060 C   0  0  0  0  0  0  0  0  0  0  0  0
  196.5330  173.9730  135.0550 C   0  0  0  0  0  2  0  0  0  0  0  0
  197.9400  171.7110  137.3600 O   0  0  0  0  0  0  0  0  0  0  0  0
  196.8130  172.5250  135.4310 C   0  0  2  0  0  3  0  0  0  0  0  0
  1  2  1  0  0  0  0
  1 23  1  1  0  0  0
  2 19  1  6  0  0  0
  2  3  1  0  0  0  0
  3  4  1  0  0  0  0
  4  5  1  0  0  0  0
  5 12  1  0  0  0  0
  6  8  1  0  0  0  0
  7  8  2  0  0  0  0
  8 16  1  0  0  0  0
  9 11  2  0  0  0  0
  9 12  1  0  0  0  0
 10 11  1  0  0  0  0
 11  7  1  0  0  0  0
 12  6  2  0  0  0  0
 14 13  2  0  0  0  0
 14 17  1  0  0  0  0
 16 18  1  0  0  0  0
 16 14  1  0  0  0  0
 18 15  1  1  0  0  0
 18 17  1  0  0  0  0
 20 21  1  0  0  0  0
 20 22  1  0  0  0  0
 21 22  1  0  0  0  0
 22 19  1  1  0  0  0
 23 29  1  0  0  0  0
 24 25  2  0  0  0  0
 24 26  1  0  0  0  0
 26 31  2  0  0  0  0
 27 32  1  6  0  0  0
 27 24  1  0  0  0  0
 28 26  1  0  0  0  0
 29 28  1  0  0  0  0
 30 27  1  0  0  0  0
 30 29  1  0  0  0  0
 31 33  1  0  0  0  0
 33 34  1  1  0  0  0
 33 35  1  0  0  0  0
 35 36  1  0  0  0  0
 37 41  1  0  0  0  0
 38 44  1  6  0  0  0
 38 40  1  0  0  0  0
 39 36  1  1  0  0  0
 39 38  1  0  0  0  0
 39 48  1  0  0  0  0
 40 43  1  6  0  0  0
 41 46  2  0  0  0  0
 41 50  1  0  0  0  0
 42 51  1  0  0  0  0
 45 44  1  0  0  0  0
 45 46  1  0  0  0  0
 46 49  1  0  0  0  0
 47 43  1  0  0  0  0
 48 47  1  0  0  0  0
 49 40  1  0  0  0  0
 49 51  2  0  0  0  0
 50 42  2  0  0  0  0
 52  1  1  0  0  0  0
 53 52  1  0  0  0  0
 53 54  2  0  0  0  0
 56 59  1  0  0  0  0
 56 57  1  0  0  0  0
 57 58  1  0  0  0  0
 58 55  1  0  0  0  0
 58 53  1  1  0  0  0
 59 60  1  0  0  0  0
 60 55  1  0  0  0  0
 61 59  1  0  0  0  0
 62 61  1  0  0  0  0
 62 63  1  0  0  0  0
 65 64  2  0  0  0  0
 66 64  1  0  0  0  0
 66 68  2  0  0  0  0
 67 69  1  0  0  0  0
 67 65  1  0  0  0  0
 69 63  1  1  0  0  0
 69 66  1  0  0  0  0
M  END
>  <MODEL>
7

>  <REMARK>
 VINA RESULT:      -6.2      3.423      9.095
  Name = 
  21 active torsions:
  status: ('A' for Active; 'I' for Inactive)
    1  A    between atoms: C_8  and  C_9
    2  A    between atoms: C_8  and  C_37
    3  A    between atoms: C_9  and  C_11
    4  A    between atoms: C_10  and  C_56
    5  A    between atoms: C_10  and  N_66
    6  A    between atoms: C_15  and  C_54
    7  A    between atoms: C_15  and  C_62
    8  A    between atoms: C_18  and  C_51
    9  A    between atoms: C_18  and  C_65
   10  A    between atoms: C_20  and  N_42
   11  A    between atoms: O_26  and  C_27
   12  A    between atoms: O_26  and  C_45
   13  A    between atoms: C_27  and  C_33
   14  A    between atoms: C_37  and  C_59
   15  A    between atoms: N_39  and  C_41
   16  A    between atoms: C_41  and  C_45
   17  A    between atoms: C_45  and  C_51
   18  A    between atoms: C_48  and  C_51
   19  A    between atoms: C_48  and  C_54
   20  A    between atoms: C_56  and  N_64
   21  A    between atoms: N_66  and  C_67
                            x       y       z     vdW  Elec       q    Type
                         _______ _______ _______ _____ _____    ______ ____

>  <TORSDO>
F 21

$$$$
=
 OpenBabel11042415093D

 69 77  0  0  1  0  0  0  0  0999 V2000
  186.4320  177.6670  142.0830 C   0  0  1  0  0  3  0  0  0  0  0  0
  185.0670  177.6640  142.7720 C   0  0  2  0  0  3  0  0  0  0  0  0
  183.8610  177.5570  141.8260 C   0  0  0  0  0  2  0  0  0  0  0  0
  183.0290  178.8350  141.7150 C   0  0  0  0  0  2  0  0  0  0  0  0
  181.6610  178.6580  142.3550 C   0  0  0  0  0  2  0  0  0  0  0  0
  180.3140  180.2460  140.9200 C   0  0  0  0  0  3  0  0  0  0  0  0
  178.5130  179.3880  139.5520 C   0  0  0  0  0  3  0  0  0  0  0  0
  179.2930  180.4630  139.9860 C   0  0  0  0  0  0  0  0  0  0  0  0
  179.7440  177.9240  140.9880 N   0  0  0  0  0  0  0  0  0  0  0  0
  177.9320  177.0220  139.6720 N   0  0  0  0  0  1  0  0  0  0  0  0
  178.7450  178.1160  140.0780 C   0  0  0  0  0  0  0  0  0  0  0  0
  180.5330  178.9530  141.4150 C   0  0  0  0  0  0  0  0  0  0  0  0
  177.6990  183.1550  141.1190 O   0  0  0  0  0  0  0  0  0  0  0  0
  178.3200  182.9440  140.0450 C   0  0  0  0  0  0  0  0  0  0  0  0
  179.1330  181.8670  137.1250 N   0  0  0  0  0  1  0  0  0  0  0  0
  179.0390  181.7770  139.4960 N   0  0  0  0  0  0  0  0  0  0  0  0
  178.6200  183.9610  138.5750 S   0  0  0  0  0  0  0  0  0  0  0  0
  179.5230  182.5260  138.3610 C   0  0  2  0  0  3  0  0  0  0  0  0
  184.9780  178.8080  143.7740 C   0  0  0  0  0  2  0  0  0  0  0  0
  185.2360  177.6770  145.8630 O   0  0  0  0  0  0  0  0  0  0  0  0
  184.9740  179.0150  146.2110 C   0  0  0  0  0  2  0  0  0  0  0  0
  184.3080  178.3650  145.0610 C   0  0  1  0  0  3  0  0  0  0  0  0
  186.3420  178.2180  140.6720 C   0  0  0  0  0  2  0  0  0  0  0  0
  187.8330  175.0200  138.4250 C   0  0  0  0  0  0  0  0  0  0  0  0
  188.4260  174.1430  137.7430 O   0  0  0  0  0  0  0  0  0  0  0  0
  188.0230  175.1220  139.8940 C   0  0  0  0  0  0  0  0  0  0  0  0
  186.9560  176.0250  137.7300 C   0  0  2  0  0  3  0  0  0  0  0  0
  187.4940  176.2520  140.5220 O   0  0  0  0  0  0  0  0  0  0  0  0
  187.0950  177.3480  139.7810 N   0  0  0  0  0  0  0  0  0  0  0  0
  186.1850  176.8880  138.7350 C   0  0  0  0  0  2  0  0  0  0  0  0
  188.6440  174.2070  140.6470 C   0  0  0  0  0  3  0  0  0  0  0  0
  186.0570  175.3780  136.8990 F   0  0  0  0  0  0  0  0  0  0  0  0
  189.2240  172.9290  140.1360 C   0  0  2  0  0  3  0  0  0  0  0  0
  188.5980  171.8540  140.7610 O   0  0  0  0  0  1  0  0  0  0  0  0
  190.7110  172.8940  140.4460 C   0  0  0  0  0  2  0  0  0  0  0  0
  191.5030  173.7120  139.4380 C   0  0  0  0  0  2  0  0  0  0  0  0
  196.7710  172.0060  134.7030 F   0  0  0  0  0  0  0  0  0  0  0  0
  193.7880  173.6470  138.3960 C   0  0  1  0  0  3  0  0  0  0  0  0
  192.9950  173.6640  139.7180 C   0  0  1  0  0  3  0  0  0  0  0  0
  194.8510  174.7650  138.3020 C   0  0  1  0  0  3  0  0  0  0  0  0
  196.6610  173.2010  135.3360 C   0  0  0  0  0  0  0  0  0  0  0  0
  197.2480  175.5150  135.4950 N   0  0  0  0  0  0  0  0  0  0  0  0
  195.6970  174.8360  139.5800 C   0  0  0  0  0  2  0  0  0  0  0  0
  194.4540  172.2850  138.2060 C   0  0  0  0  0  2  0  0  0  0  0  0
  195.1280  172.2380  136.9500 O   0  0  0  0  0  0  0  0  0  0  0  0
  195.8480  173.3360  136.4650 C   0  0  0  0  0  0  0  0  0  0  0  0
  194.8610  174.8970  140.8620 C   0  0  0  0  0  2  0  0  0  0  0  0
  193.3550  174.8590  140.6020 C   0  0  0  0  0  2  0  0  0  0  0  0
  195.7320  174.5880  137.0940 C   0  0  0  0  0  0  0  0  0  0  0  0
  197.3600  174.3130  134.8640 C   0  0  0  0  0  3  0  0  0  0  0  0
  196.4580  175.6730  136.5890 C   0  0  0  0  0  3  0  0  0  0  0  0
  187.4230  178.3650  142.8240 O   0  0  0  0  0  0  0  0  0  0  0  0
  188.2040  177.7230  143.7900 C   0  0  0  0  0  0  0  0  0  0  0  0
  188.1740  178.1000  144.9950 O   0  0  0  0  0  0  0  0  0  0  0  0
  188.7320  175.2630  143.9870 C   0  0  0  0  0  2  0  0  0  0  0  0
  191.4100  175.7510  143.8600 C   0  0  0  0  0  2  0  0  0  0  0  0
  190.5750  176.9970  143.5940 C   0  0  0  0  0  2  0  0  0  0  0  0
  189.1130  176.6120  143.3580 C   0  0  2  0  0  3  0  0  0  0  0  0
  190.9890  175.1090  145.1130 N   0  0  0  0  0  0  0  0  0  0  0  0
  189.5220  175.0150  145.2770 C   0  0  0  0  0  2  0  0  0  0  0  0
  191.5140  173.7500  145.1000 C   0  0  0  0  0  2  0  0  0  0  0  0
  192.7740  173.6830  144.2530 C   0  0  0  0  0  2  0  0  0  0  0  0
  193.6900  172.6960  144.8050 N   0  0  0  0  0  2  0  0  0  0  0  0
  196.7620  173.7310  145.9980 C   0  0  0  0  0  3  0  0  0  0  0  0
  196.2630  174.9490  145.3650 N   0  0  0  0  0  0  0  0  0  0  0  0
  196.0150  172.6190  145.3920 C   0  0  0  0  0  0  0  0  0  0  0  0
  195.1800  174.5820  144.4420 C   0  0  0  0  0  2  0  0  0  0  0  0
  196.2100  171.4460  145.6720 O   0  0  0  0  0  0  0  0  0  0  0  0
  195.0330  173.0680  144.3910 C   0  0  2  0  0  3  0  0  0  0  0  0
  1 23  1  6  0  0  0
  1  2  1  0  0  0  0
  1 52  1  0  0  0  0
  2  3  1  6  0  0  0
  2 19  1  0  0  0  0
  4  3  1  0  0  0  0
  4  5  1  0  0  0  0
  6 12  1  0  0  0  0
  7  8  1  0  0  0  0
  7 11  2  0  0  0  0
  8  6  2  0  0  0  0
  9 12  2  0  0  0  0
 10 11  1  0  0  0  0
 11  9  1  0  0  0  0
 12  5  1  0  0  0  0
 14 13  2  0  0  0  0
 16  8  1  0  0  0  0
 16 14  1  0  0  0  0
 17 14  1  0  0  0  0
 18 15  1  6  0  0  0
 18 17  1  0  0  0  0
 18 16  1  0  0  0  0
 20 21  1  0  0  0  0
 22 19  1  6  0  0  0
 22 20  1  0  0  0  0
 22 21  1  0  0  0  0
 24 26  1  0  0  0  0
 25 24  2  0  0  0  0
 26 28  1  0  0  0  0
 26 31  2  0  0  0  0
 27 32  1  6  0  0  0
 27 24  1  0  0  0  0
 27 30  1  0  0  0  0
 29 28  1  0  0  0  0
 29 23  1  0  0  0  0
 30 29  1  0  0  0  0
 33 35  1  0  0  0  0
 33 31  1  0  0  0  0
 33 34  1  1  0  0  0
 36 35  1  0  0  0  0
 37 41  1  0  0  0  0
 38 44  1  1  0  0  0
 38 39  1  0  0  0  0
 39 36  1  6  0  0  0
 39 48  1  0  0  0  0
 40 38  1  0  0  0  0
 40 43  1  1  0  0  0
 41 46  1  0  0  0  0
 42 51  2  0  0  0  0
 43 47  1  0  0  0  0
 45 44  1  0  0  0  0
 46 45  1  0  0  0  0
 46 49  2  0  0  0  0
 48 47  1  0  0  0  0
 49 40  1  0  0  0  0
 50 41  2  0  0  0  0
 50 42  1  0  0  0  0
 51 49  1  0  0  0  0
 52 53  1  0  0  0  0
 53 54  2  0  0  0  0
 55 60  1  0  0  0  0
 56 59  1  0  0  0  0
 57 56  1  0  0  0  0
 58 57  1  0  0  0  0
 58 53  1  1  0  0  0
 58 55  1  0  0  0  0
 59 60  1  0  0  0  0
 61 59  1  0  0  0  0
 62 63  1  0  0  0  0
 62 61  1  0  0  0  0
 65 64  2  0  0  0  0
 66 68  2  0  0  0  0
 66 64  1  0  0  0  0
 67 65  1  0  0  0  0
 69 67  1  0  0  0  0
 69 63  1  1  0  0  0
 69 66  1  0  0  0  0
M  END
>  <MODEL>
8

>  <REMARK>
 VINA RESULT:      -6.1      3.052      9.758
  Name = 
  21 active torsions:
  status: ('A' for Active; 'I' for Inactive)
    1  A    between atoms: C_8  and  C_9
    2  A    between atoms: C_8  and  C_37
    3  A    between atoms: C_9  and  C_11
    4  A    between atoms: C_10  and  C_56
    5  A    between atoms: C_10  and  N_66
    6  A    between atoms: C_15  and  C_54
    7  A    between atoms: C_15  and  C_62
    8  A    between atoms: C_18  and  C_51
    9  A    between atoms: C_18  and  C_65
   10  A    between atoms: C_20  and  N_42
   11  A    between atoms: O_26  and  C_27
   12  A    between atoms: O_26  and  C_45
   13  A    between atoms: C_27  and  C_33
   14  A    between atoms: C_37  and  C_59
   15  A    between atoms: N_39  and  C_41
   16  A    between atoms: C_41  and  C_45
   17  A    between atoms: C_45  and  C_51
   18  A    between atoms: C_48  and  C_51
   19  A    between atoms: C_48  and  C_54
   20  A    between atoms: C_56  and  N_64
   21  A    between atoms: N_66  and  C_67
                            x       y       z     vdW  Elec       q    Type
                         _______ _______ _______ _____ _____    ______ ____

>  <TORSDO>
F 21

$$$$
=
 OpenBabel11042415093D

 69 77  0  0  1  0  0  0  0  0999 V2000
  194.6580  174.2360  141.4550 C   0  0  1  0  0  3  0  0  0  0  0  0
  196.1480  174.2960  141.7940 C   0  0  2  0  0  3  0  0  0  0  0  0
  196.4740  174.8180  143.2020 C   0  0  0  0  0  2  0  0  0  0  0  0
  197.5590  174.0280  143.9340 C   0  0  0  0  0  2  0  0  0  0  0  0
  197.0850  173.5890  145.3110 C   0  0  0  0  0  2  0  0  0  0  0  0
  194.7160  174.2740  145.8700 C   0  0  0  0  0  3  0  0  0  0  0  0
  192.8770  172.8150  145.2840 C   0  0  0  0  0  3  0  0  0  0  0  0
  193.3400  174.0130  145.8330 C   0  0  0  0  0  0  0  0  0  0  0  0
  195.1340  172.1520  144.8490 N   0  0  0  0  0  0  0  0  0  0  0  0
  193.3390  170.6420  144.2770 N   0  0  0  0  0  1  0  0  0  0  0  0
  193.7970  171.8810  144.8040 C   0  0  0  0  0  0  0  0  0  0  0  0
  195.6110  173.3230  145.3640 C   0  0  0  0  0  0  0  0  0  0  0  0
  190.0370  174.1600  146.2100 O   0  0  0  0  0  0  0  0  0  0  0  0
  190.9480  174.9720  146.5180 C   0  0  0  0  0  0  0  0  0  0  0  0
  193.2980  177.1620  146.3490 N   0  0  0  0  0  1  0  0  0  0  0  0
  192.4180  174.9580  146.3720 N   0  0  0  0  0  0  0  0  0  0  0  0
  190.9270  176.6240  147.2640 S   0  0  0  0  0  0  0  0  0  0  0  0
  192.5710  176.1760  147.1300 C   0  0  2  0  0  3  0  0  0  0  0  0
  196.9170  174.9890  140.6760 C   0  0  0  0  0  2  0  0  0  0  0  0
  196.8570  175.6510  138.3810 O   0  0  0  0  0  0  0  0  0  0  0  0
  196.6750  174.2560  138.3550 C   0  0  0  0  0  2  0  0  0  0  0  0
  196.0810  175.0990  139.4160 C   0  0  1  0  0  3  0  0  0  0  0  0
  194.2410  172.8430  141.0230 C   0  0  0  0  0  2  0  0  0  0  0  0
  190.3000  172.1860  139.7830 C   0  0  0  0  0  0  0  0  0  0  0  0
  189.0750  172.1260  139.4980 O   0  0  0  0  0  0  0  0  0  0  0  0
  191.2210  173.1040  139.0670 C   0  0  0  0  0  0  0  0  0  0  0  0
  190.8350  171.3500  140.9140 C   0  0  2  0  0  3  0  0  0  0  0  0
  192.5050  173.2520  139.5970 O   0  0  0  0  0  0  0  0  0  0  0  0
  192.7940  172.8120  140.8750 N   0  0  0  0  0  0  0  0  0  0  0  0
  192.3640  171.4210  140.9900 C   0  0  0  0  0  2  0  0  0  0  0  0
  190.9110  173.7780  137.9530 C   0  0  0  0  0  3  0  0  0  0  0  0
  190.4450  170.0310  140.7560 F   0  0  0  0  0  0  0  0  0  0  0  0
  189.6000  173.6970  137.2400 C   0  0  2  0  0  3  0  0  0  0  0  0
  188.5990  174.2250  138.0510 O   0  0  0  0  0  1  0  0  0  0  0  0
  189.2850  172.2420  136.9360 C   0  0  0  0  0  2  0  0  0  0  0  0
  190.0120  171.7700  135.6870 C   0  0  0  0  0  2  0  0  0  0  0  0
  197.2140  170.8450  135.0850 F   0  0  0  0  0  0  0  0  0  0  0  0
  192.2920  170.7900  136.0820 C   0  0  1  0  0  3  0  0  0  0  0  0
  190.7870  170.4880  135.9340 C   0  0  1  0  0  3  0  0  0  0  0  0
  192.9040  170.2370  137.3890 C   0  0  1  0  0  3  0  0  0  0  0  0
  196.5080  170.6730  136.2310 C   0  0  0  0  0  0  0  0  0  0  0  0
  196.4580  170.4720  138.6140 N   0  0  0  0  0  0  0  0  0  0  0  0
  192.4970  168.7760  137.6190 C   0  0  0  0  0  2  0  0  0  0  0  0
  193.0550  170.2340  134.8790 C   0  0  0  0  0  2  0  0  0  0  0  0
  194.4360  170.5750  134.9750 O   0  0  0  0  0  0  0  0  0  0  0  0
  195.1180  170.5320  136.1950 C   0  0  0  0  0  0  0  0  0  0  0  0
  190.9880  168.5390  137.5060 C   0  0  0  0  0  2  0  0  0  0  0  0
  190.2020  169.8060  137.1710 C   0  0  0  0  0  2  0  0  0  0  0  0
  194.4030  170.3760  137.3970 C   0  0  0  0  0  0  0  0  0  0  0  0
  197.1650  170.6390  137.4620 C   0  0  0  0  0  3  0  0  0  0  0  0
  195.1060  170.3400  138.6070 C   0  0  0  0  0  3  0  0  0  0  0  0
  193.8310  174.6940  142.5150 O   0  0  0  0  0  0  0  0  0  0  0  0
  193.0610  175.8550  142.3950 C   0  0  0  0  0  0  0  0  0  0  0  0
  193.4360  176.7990  141.6450 O   0  0  0  0  0  0  0  0  0  0  0  0
  190.7930  174.8690  142.8980 C   0  0  0  0  0  2  0  0  0  0  0  0
  189.7130  177.3450  143.2600 C   0  0  0  0  0  2  0  0  0  0  0  0
  191.2260  177.3850  143.0880 C   0  0  0  0  0  2  0  0  0  0  0  0
  191.8100  175.9760  143.2120 C   0  0  2  0  0  3  0  0  0  0  0  0
  189.0920  176.5880  142.1640 N   0  0  0  0  0  0  0  0  0  0  0  0
  189.7920  175.3280  141.8310 C   0  0  0  0  0  2  0  0  0  0  0  0
  187.7440  176.2390  142.5900 C   0  0  0  0  0  2  0  0  0  0  0  0
  187.5340  176.6310  144.0430 C   0  0  0  0  0  2  0  0  0  0  0  0
  186.1530  177.0360  144.2520 N   0  0  0  0  0  2  0  0  0  0  0  0
  185.8670  178.6640  147.2860 C   0  0  0  0  0  3  0  0  0  0  0  0
  187.0970  177.8980  147.4740 N   0  0  0  0  0  0  0  0  0  0  0  0
  185.1330  178.0000  146.1990 C   0  0  0  0  0  0  0  0  0  0  0  0
  187.1360  176.8300  146.4650 C   0  0  0  0  0  2  0  0  0  0  0  0
  184.0350  178.3660  145.8070 O   0  0  0  0  0  0  0  0  0  0  0  0
  185.8460  176.8310  145.6580 C   0  0  2  0  0  3  0  0  0  0  0  0
  1 23  1  1  0  0  0
  1  2  1  0  0  0  0
  1 52  1  0  0  0  0
  2 19  1  6  0  0  0
  2  3  1  0  0  0  0
  3  4  1  0  0  0  0
  4  5  1  0  0  0  0
  5 12  1  0  0  0  0
  7  8  2  0  0  0  0
  8  6  1  0  0  0  0
  8 16  1  0  0  0  0
  9 12  1  0  0  0  0
 10 11  1  0  0  0  0
 11  9  2  0  0  0  0
 11  7  1  0  0  0  0
 12  6  2  0  0  0  0
 13 14  2  0  0  0  0
 14 17  1  0  0  0  0
 16 14  1  0  0  0  0
 16 18  1  0  0  0  0
 18 15  1  6  0  0  0
 18 17  1  0  0  0  0
 20 22  1  0  0  0  0
 21 20  1  0  0  0  0
 21 22  1  0  0  0  0
 22 19  1  1  0  0  0
 24 27  1  0  0  0  0
 25 24  2  0  0  0  0
 26 28  1  0  0  0  0
 26 24  1  0  0  0  0
 27 32  1  6  0  0  0
 27 30  1  0  0  0  0
 28 29  1  0  0  0  0
 29 30  1  0  0  0  0
 29 23  1  0  0  0  0
 31 26  2  0  0  0  0
 33 31  1  0  0  0  0
 33 34  1  1  0  0  0
 35 33  1  0  0  0  0
 36 35  1  0  0  0  0
 37 41  1  0  0  0  0
 38 44  1  6  0  0  0
 38 40  1  0  0  0  0
 39 36  1  1  0  0  0
 39 38  1  0  0  0  0
 39 48  1  0  0  0  0
 40 49  1  0  0  0  0
 40 43  1  6  0  0  0
 41 50  1  0  0  0  0
 44 45  1  0  0  0  0
 45 46  1  0  0  0  0
 46 41  2  0  0  0  0
 46 49  1  0  0  0  0
 47 43  1  0  0  0  0
 48 47  1  0  0  0  0
 49 51  2  0  0  0  0
 50 42  2  0  0  0  0
 51 42  1  0  0  0  0
 53 52  1  0  0  0  0
 54 53  2  0  0  0  0
 55 58  1  0  0  0  0
 57 58  1  0  0  0  0
 57 56  1  0  0  0  0
 58 53  1  6  0  0  0
 59 61  1  0  0  0  0
 59 56  1  0  0  0  0
 60 59  1  0  0  0  0
 60 55  1  0  0  0  0
 61 62  1  0  0  0  0
 62 63  1  0  0  0  0
 64 65  2  0  0  0  0
 66 64  1  0  0  0  0
 67 65  1  0  0  0  0
 68 66  2  0  0  0  0
 69 63  1  6  0  0  0
 69 66  1  0  0  0  0
 69 67  1  0  0  0  0
M  END
>  <MODEL>
9

>  <REMARK>
 VINA RESULT:      -6.0      3.821      7.088
  Name = 
  21 active torsions:
  status: ('A' for Active; 'I' for Inactive)
    1  A    between atoms: C_8  and  C_9
    2  A    between atoms: C_8  and  C_37
    3  A    between atoms: C_9  and  C_11
    4  A    between atoms: C_10  and  C_56
    5  A    between atoms: C_10  and  N_66
    6  A    between atoms: C_15  and  C_54
    7  A    between atoms: C_15  and  C_62
    8  A    between atoms: C_18  and  C_51
    9  A    between atoms: C_18  and  C_65
   10  A    between atoms: C_20  and  N_42
   11  A    between atoms: O_26  and  C_27
   12  A    between atoms: O_26  and  C_45
   13  A    between atoms: C_27  and  C_33
   14  A    between atoms: C_37  and  C_59
   15  A    between atoms: N_39  and  C_41
   16  A    between atoms: C_41  and  C_45
   17  A    between atoms: C_45  and  C_51
   18  A    between atoms: C_48  and  C_51
   19  A    between atoms: C_48  and  C_54
   20  A    between atoms: C_56  and  N_64
   21  A    between atoms: N_66  and  C_67
                            x       y       z     vdW  Elec       q    Type
                         _______ _______ _______ _____ _____    ______ ____

>  <TORSDO>
F 21

$$$$
