=
 OpenBabel11042417183D

 26 28  0  0  1  0  0  0  0  0999 V2000
  189.6070  175.4440  147.1530 C   0  0  0  0  0  0  0  0  0  0  0  0
  188.9660  176.4350  146.3420 N   0  0  0  0  0  2  0  0  0  0  0  0
  190.9600  175.6250  147.5770 N   0  0  0  0  0  2  0  0  0  0  0  0
  188.9650  174.3850  147.5240 N   0  0  0  0  0  2  0  0  0  0  0  0
  186.7160  177.3100  146.6360 C   0  0  0  0  0  2  0  0  0  0  0  0
  187.5950  176.3190  145.8700 C   0  0  1  0  0  3  0  0  0  0  0  0
  185.7600  178.6670  144.4160 S   0  0  0  0  0  0  0  0  0  0  0  0
  187.5420  176.5050  144.3470 C   0  0  0  0  0  2  0  0  0  0  0  0
  184.4620  178.3260  146.7980 C   0  0  0  0  0  1  0  0  0  0  0  0
  185.4320  177.6150  145.8800 C   0  0  2  0  0  3  0  0  0  0  0  0
  187.4020  177.9750  143.9630 C   0  0  1  0  0  3  0  0  0  0  0  0
  187.6790  178.1770  142.5430 N   0  0  0  0  0  2  0  0  0  0  0  0
  186.4930  177.7520  140.7700 C   0  0  0  0  0  1  0  0  0  0  0  0
  186.5260  178.5330  141.9230 O   0  0  0  0  0  0  0  0  0  0  0  0
  191.7470  176.8000  147.2310 C   0  0  0  0  0  2  0  0  0  0  0  0
  195.7430  175.4570  143.0980 N   0  0  0  0  0  2  0  0  0  0  0  0
  193.9510  175.7350  146.6950 N   0  0  0  0  0  0  0  0  0  0  0  0
  196.3850  174.8790  144.1710 C   0  0  0  0  0  3  0  0  0  0  0  0
  192.8510  176.4330  146.2920 C   0  0  0  0  0  0  0  0  0  0  0  0
  194.5710  176.0950  143.2270 N   0  0  0  0  0  0  0  0  0  0  0  0
  194.6670  175.5780  145.5690 C   0  0  0  0  0  0  0  0  0  0  0  0
  195.8440  174.9340  145.4260 N   0  0  0  0  0  0  0  0  0  0  0  0
  194.0230  176.1660  144.4570 C   0  0  0  0  0  0  0  0  0  0  0  0
  192.8600  176.7110  144.9190 C   0  0  0  0  0  0  0  0  0  0  0  0
  191.0510  177.9550  143.5350 N   0  0  0  0  0  0  0  0  0  0  0  0
  191.8570  177.4000  144.1510 C   0  0  0  0  0  0  0  0  0  0  0  0
  1  4  2  0  0  0  0
  1  3  1  0  0  0  0
  2  1  1  0  0  0  0
  6  2  1  1  0  0  0
  6  5  1  0  0  0  0
  7 10  1  0  0  0  0
  8  6  1  0  0  0  0
 10  5  1  0  0  0  0
 10  9  1  1  0  0  0
 11 12  1  6  0  0  0
 11  8  1  0  0  0  0
 11  7  1  0  0  0  0
 13 14  1  0  0  0  0
 14 12  1  0  0  0  0
 15  3  1  0  0  0  0
 16 20  1  0  0  0  0
 16 18  1  0  0  0  0
 18 22  2  0  0  0  0
 19 17  1  0  0  0  0
 19 15  1  0  0  0  0
 20 23  2  0  0  0  0
 21 17  2  0  0  0  0
 22 21  1  0  0  0  0
 23 24  1  0  0  0  0
 23 21  1  0  0  0  0
 24 19  2  0  0  0  0
 25 26  3  0  0  0  0
 26 24  1  0  0  0  0
M  END
>  <MODEL>
1

>  <REMARK>
 VINA RESULT:      -6.6      0.000      0.000
  Name = 
  6 active torsions:
  status: ('A' for Active; 'I' for Inactive)
    1  A    between atoms: C_5  and  N_8
    2  A    between atoms: C_7  and  C_16
    3  A    between atoms: C_7  and  N_23
    4  A    between atoms: O_13  and  N_24
    5  A    between atoms: C_21  and  C_22
    6  A    between atoms: N_24  and  C_25
                            x       y       z     vdW  Elec       q    Type
                         _______ _______ _______ _____ _____    ______ ____

>  <TORSDO>
F 6

$$$$
=
 OpenBabel11042417183D

 26 28  0  0  1  0  0  0  0  0999 V2000
  189.8000  175.4830  142.3980 C   0  0  0  0  0  0  0  0  0  0  0  0
  190.8120  176.0910  143.2080 N   0  0  0  0  0  2  0  0  0  0  0  0
  188.7050  176.2600  141.9090 N   0  0  0  0  0  2  0  0  0  0  0  0
  189.8740  174.2300  142.0870 N   0  0  0  0  0  2  0  0  0  0  0  0
  193.2070  176.2300  143.6070 C   0  0  0  0  0  2  0  0  0  0  0  0
  191.9520  175.3640  143.7440 C   0  0  1  0  0  3  0  0  0  0  0  0
  193.8800  176.2400  146.2960 S   0  0  0  0  0  0  0  0  0  0  0  0
  191.6690  174.9230  145.1870 C   0  0  0  0  0  2  0  0  0  0  0  0
  195.6080  176.4390  144.1850 C   0  0  0  0  0  1  0  0  0  0  0  0
  194.2980  175.7860  144.5700 C   0  0  2  0  0  3  0  0  0  0  0  0
  192.0600  176.0010  146.1940 C   0  0  1  0  0  3  0  0  0  0  0  0
  191.4960  175.7200  147.5110 N   0  0  0  0  0  2  0  0  0  0  0  0
  190.0210  177.3040  147.2930 C   0  0  0  0  0  1  0  0  0  0  0  0
  191.1000  176.8920  148.0710 O   0  0  0  0  0  0  0  0  0  0  0  0
  188.5580  177.6820  142.1860 C   0  0  0  0  0  2  0  0  0  0  0  0
  183.9570  178.7890  145.7150 N   0  0  0  0  0  2  0  0  0  0  0  0
  187.7120  177.9350  144.5300 N   0  0  0  0  0  0  0  0  0  0  0  0
  184.9130  178.6440  146.6970 C   0  0  0  0  0  3  0  0  0  0  0  0
  187.4730  177.9120  143.1880 C   0  0  0  0  0  0  0  0  0  0  0  0
  184.2450  178.6510  144.4130 N   0  0  0  0  0  0  0  0  0  0  0  0
  186.5100  178.2030  145.0690 C   0  0  0  0  0  0  0  0  0  0  0  0
  186.2100  178.3490  146.3770 N   0  0  0  0  0  0  0  0  0  0  0  0
  185.5170  178.3540  144.0770 C   0  0  0  0  0  0  0  0  0  0  0  0
  186.1330  178.1700  142.8720 C   0  0  0  0  0  0  0  0  0  0  0  0
  185.0500  178.3110  140.5170 N   0  0  0  0  0  0  0  0  0  0  0  0
  185.5330  178.2480  141.5670 C   0  0  0  0  0  0  0  0  0  0  0  0
  1  2  1  0  0  0  0
  3 15  1  0  0  0  0
  3  1  1  0  0  0  0
  4  1  2  0  0  0  0
  5  6  1  0  0  0  0
  5 10  1  0  0  0  0
  6  2  1  1  0  0  0
  6  8  1  0  0  0  0
  8 11  1  0  0  0  0
 10  9  1  6  0  0  0
 10  7  1  0  0  0  0
 11  7  1  0  0  0  0
 11 12  1  1  0  0  0
 12 14  1  0  0  0  0
 13 14  1  0  0  0  0
 15 19  1  0  0  0  0
 16 18  1  0  0  0  0
 17 21  2  0  0  0  0
 19 17  1  0  0  0  0
 20 16  1  0  0  0  0
 21 22  1  0  0  0  0
 22 18  2  0  0  0  0
 23 20  2  0  0  0  0
 23 21  1  0  0  0  0
 24 19  2  0  0  0  0
 24 23  1  0  0  0  0
 25 26  3  0  0  0  0
 26 24  1  0  0  0  0
M  END
>  <MODEL>
2

>  <REMARK>
 VINA RESULT:      -6.5      3.236      7.935
  Name = 
  6 active torsions:
  status: ('A' for Active; 'I' for Inactive)
    1  A    between atoms: C_5  and  N_8
    2  A    between atoms: C_7  and  C_16
    3  A    between atoms: C_7  and  N_23
    4  A    between atoms: O_13  and  N_24
    5  A    between atoms: C_21  and  C_22
    6  A    between atoms: N_24  and  C_25
                            x       y       z     vdW  Elec       q    Type
                         _______ _______ _______ _____ _____    ______ ____

>  <TORSDO>
F 6

$$$$
=
 OpenBabel11042417183D

 26 28  0  0  1  0  0  0  0  0999 V2000
  191.2960  176.5270  146.8690 C   0  0  0  0  0  0  0  0  0  0  0  0
  192.0700  175.7870  145.9190 N   0  0  0  0  0  2  0  0  0  0  0  0
  190.0960  177.1870  146.4630 N   0  0  0  0  0  2  0  0  0  0  0  0
  191.6650  176.5910  148.1070 N   0  0  0  0  0  2  0  0  0  0  0  0
  193.2710  173.6880  145.6490 C   0  0  0  0  0  2  0  0  0  0  0  0
  193.3030  175.0920  146.2580 C   0  0  1  0  0  3  0  0  0  0  0  0
  195.6010  173.9310  144.1660 S   0  0  0  0  0  0  0  0  0  0  0  0
  194.5170  175.9220  145.8160 C   0  0  0  0  0  2  0  0  0  0  0  0
  194.5750  171.6260  145.2210 C   0  0  0  0  0  1  0  0  0  0  0  0
  194.6700  173.1070  145.5130 C   0  0  2  0  0  3  0  0  0  0  0  0
  194.9100  175.6220  144.3720 C   0  0  1  0  0  3  0  0  0  0  0  0
  195.8340  176.6300  143.8580 N   0  0  0  0  0  2  0  0  0  0  0  0
  196.1630  176.6990  141.7090 C   0  0  0  0  0  1  0  0  0  0  0  0
  196.5850  176.0680  142.8770 O   0  0  0  0  0  0  0  0  0  0  0  0
  189.5910  177.1420  145.0970 C   0  0  0  0  0  2  0  0  0  0  0  0
  184.0110  178.9420  144.4130 N   0  0  0  0  0  2  0  0  0  0  0  0
  187.3900  177.6470  146.1830 N   0  0  0  0  0  0  0  0  0  0  0  0
  183.9860  178.7790  145.7800 C   0  0  0  0  0  3  0  0  0  0  0  0
  188.1530  177.5470  145.0570 C   0  0  0  0  0  0  0  0  0  0  0  0
  185.1050  178.6810  143.6830 N   0  0  0  0  0  0  0  0  0  0  0  0
  186.1970  178.0670  145.7300 C   0  0  0  0  0  0  0  0  0  0  0  0
  185.0920  178.3380  146.4560 N   0  0  0  0  0  0  0  0  0  0  0  0
  186.2030  178.2400  144.3280 C   0  0  0  0  0  0  0  0  0  0  0  0
  187.4560  177.9090  143.8970 C   0  0  0  0  0  0  0  0  0  0  0  0
  188.3470  177.9800  141.4600 N   0  0  0  0  0  0  0  0  0  0  0  0
  187.9500  177.9480  142.5460 C   0  0  0  0  0  0  0  0  0  0  0  0
  1  4  2  0  0  0  0
  2  1  1  0  0  0  0
  3  1  1  0  0  0  0
  5  6  1  0  0  0  0
  6  2  1  6  0  0  0
  7 11  1  0  0  0  0
  7 10  1  0  0  0  0
  8  6  1  0  0  0  0
 10  9  1  6  0  0  0
 10  5  1  0  0  0  0
 11 12  1  1  0  0  0
 11  8  1  0  0  0  0
 13 14  1  0  0  0  0
 14 12  1  0  0  0  0
 15  3  1  0  0  0  0
 16 18  1  0  0  0  0
 18 22  2  0  0  0  0
 19 15  1  0  0  0  0
 19 17  1  0  0  0  0
 20 23  2  0  0  0  0
 20 16  1  0  0  0  0
 21 17  2  0  0  0  0
 21 22  1  0  0  0  0
 23 21  1  0  0  0  0
 24 23  1  0  0  0  0
 24 19  2  0  0  0  0
 25 26  3  0  0  0  0
 26 24  1  0  0  0  0
M  END
>  <MODEL>
3

>  <REMARK>
 VINA RESULT:      -6.2      3.617      8.130
  Name = 
  6 active torsions:
  status: ('A' for Active; 'I' for Inactive)
    1  A    between atoms: C_5  and  N_8
    2  A    between atoms: C_7  and  C_16
    3  A    between atoms: C_7  and  N_23
    4  A    between atoms: O_13  and  N_24
    5  A    between atoms: C_21  and  C_22
    6  A    between atoms: N_24  and  C_25
                            x       y       z     vdW  Elec       q    Type
                         _______ _______ _______ _____ _____    ______ ____

>  <TORSDO>
F 6

$$$$
=
 OpenBabel11042417183D

 26 28  0  0  1  0  0  0  0  0999 V2000
  188.5800  175.8990  142.8510 C   0  0  0  0  0  0  0  0  0  0  0  0
  188.0020  176.7540  143.8430 N   0  0  0  0  0  2  0  0  0  0  0  0
  189.9140  176.1270  142.3920 N   0  0  0  0  0  2  0  0  0  0  0  0
  187.9080  174.9030  142.3730 N   0  0  0  0  0  2  0  0  0  0  0  0
  186.4400  177.5420  145.5330 C   0  0  0  0  0  2  0  0  0  0  0  0
  186.6510  176.5870  144.3560 C   0  0  1  0  0  3  0  0  0  0  0  0
  184.2450  178.8680  144.4770 S   0  0  0  0  0  0  0  0  0  0  0  0
  185.6280  176.7740  143.2260 C   0  0  0  0  0  2  0  0  0  0  0  0
  184.7870  178.4720  147.1280 C   0  0  0  0  0  1  0  0  0  0  0  0
  184.9620  177.8000  145.7840 C   0  0  2  0  0  3  0  0  0  0  0  0
  185.2330  178.2400  143.0600 C   0  0  1  0  0  3  0  0  0  0  0  0
  184.5300  178.4550  141.7980 N   0  0  0  0  0  2  0  0  0  0  0  0
  182.6550  178.2170  140.7210 C   0  0  0  0  0  1  0  0  0  0  0  0
  183.2040  178.2500  142.0010 O   0  0  0  0  0  0  0  0  0  0  0  0
  190.7510  177.2060  142.8970 C   0  0  0  0  0  2  0  0  0  0  0  0
  195.2090  175.2200  146.2170 N   0  0  0  0  0  0  0  0  0  0  0  0
  193.0950  176.3240  142.9710 N   0  0  0  0  0  0  0  0  0  0  0  0
  195.8400  175.1410  144.9950 C   0  0  0  0  0  3  0  0  0  0  0  0
  191.9390  176.6540  143.6160 C   0  0  0  0  0  0  0  0  0  0  0  0
  193.9420  175.6410  146.3410 N   0  0  0  0  0  0  0  0  0  0  0  0
  193.9100  175.9140  143.9570 C   0  0  0  0  0  0  0  0  0  0  0  0
  195.1880  175.4930  143.8450 N   0  0  0  0  0  2  0  0  0  0  0  0
  193.2810  175.9880  145.2190 C   0  0  0  0  0  0  0  0  0  0  0  0
  192.0190  176.4640  145.0010 C   0  0  0  0  0  0  0  0  0  0  0  0
  190.1940  176.9450  146.7820 N   0  0  0  0  0  0  0  0  0  0  0  0
  191.0070  176.7300  145.9890 C   0  0  0  0  0  0  0  0  0  0  0  0
  1  2  1  0  0  0  0
  3  1  1  0  0  0  0
  3 15  1  0  0  0  0
  4  1  2  0  0  0  0
  5 10  1  0  0  0  0
  6  2  1  6  0  0  0
  6  5  1  0  0  0  0
  7 10  1  0  0  0  0
  8  6  1  0  0  0  0
 10  9  1  1  0  0  0
 11 12  1  6  0  0  0
 11  8  1  0  0  0  0
 11  7  1  0  0  0  0
 12 14  1  0  0  0  0
 13 14  1  0  0  0  0
 15 19  1  0  0  0  0
 16 20  1  0  0  0  0
 17 19  1  0  0  0  0
 17 21  2  0  0  0  0
 18 16  2  0  0  0  0
 19 24  2  0  0  0  0
 21 23  1  0  0  0  0
 22 21  1  0  0  0  0
 22 18  1  0  0  0  0
 23 20  2  0  0  0  0
 24 23  1  0  0  0  0
 24 26  1  0  0  0  0
 26 25  3  0  0  0  0
M  END
>  <MODEL>
4

>  <REMARK>
 VINA RESULT:      -6.2      1.874      2.958
  Name = 
  6 active torsions:
  status: ('A' for Active; 'I' for Inactive)
    1  A    between atoms: C_5  and  N_8
    2  A    between atoms: C_7  and  C_16
    3  A    between atoms: C_7  and  N_23
    4  A    between atoms: O_13  and  N_24
    5  A    between atoms: C_21  and  C_22
    6  A    between atoms: N_24  and  C_25
                            x       y       z     vdW  Elec       q    Type
                         _______ _______ _______ _____ _____    ______ ____

>  <TORSDO>
F 6

$$$$
=
 OpenBabel11042417183D

 26 28  0  0  1  0  0  0  0  0999 V2000
  190.0700  173.9370  145.5610 C   0  0  0  0  0  0  0  0  0  0  0  0
  191.2000  174.6660  145.0700 N   0  0  0  0  0  2  0  0  0  0  0  0
  189.1110  174.5780  146.4060 N   0  0  0  0  0  2  0  0  0  0  0  0
  189.8970  172.6990  145.2330 N   0  0  0  0  0  2  0  0  0  0  0  0
  192.4430  174.9980  143.0050 C   0  0  0  0  0  2  0  0  0  0  0  0
  192.2180  174.0820  144.2110 C   0  0  1  0  0  3  0  0  0  0  0  0
  195.1600  175.3830  143.4000 S   0  0  0  0  0  0  0  0  0  0  0  0
  193.4970  173.8060  145.0150 C   0  0  0  0  0  2  0  0  0  0  0  0
  193.8410  175.4220  141.0040 C   0  0  0  0  0  1  0  0  0  0  0  0
  193.7950  174.7450  142.3570 C   0  0  2  0  0  3  0  0  0  0  0  0
  194.4180  175.0230  145.0440 C   0  0  1  0  0  3  0  0  0  0  0  0
  195.4550  174.8740  146.0620 N   0  0  0  0  0  2  0  0  0  0  0  0
  197.0880  173.4590  146.3130 C   0  0  0  0  0  1  0  0  0  0  0  0
  196.5930  174.4440  145.4610 O   0  0  0  0  0  0  0  0  0  0  0  0
  189.2130  175.9750  146.8000 C   0  0  0  0  0  2  0  0  0  0  0  0
  184.8340  179.2750  144.6130 N   0  0  0  0  0  2  0  0  0  0  0  0
  186.8500  176.7710  147.0410 N   0  0  0  0  0  0  0  0  0  0  0  0
  184.1760  178.8120  145.7320 C   0  0  0  0  0  3  0  0  0  0  0  0
  188.0160  176.7400  146.3350 C   0  0  0  0  0  0  0  0  0  0  0  0
  186.0930  178.9150  144.3250 N   0  0  0  0  0  0  0  0  0  0  0  0
  186.0560  177.5810  146.3210 C   0  0  0  0  0  0  0  0  0  0  0  0
  184.7900  177.9550  146.6040 N   0  0  0  0  0  0  0  0  0  0  0  0
  186.7140  178.0660  145.1690 C   0  0  0  0  0  0  0  0  0  0  0  0
  187.9700  177.5290  145.1790 C   0  0  0  0  0  0  0  0  0  0  0  0
  189.8600  177.9270  143.4450 N   0  0  0  0  0  0  0  0  0  0  0  0
  189.0180  177.7490  144.2180 C   0  0  0  0  0  0  0  0  0  0  0  0
  1  3  1  0  0  0  0
  2  1  1  0  0  0  0
  3 15  1  0  0  0  0
  4  1  2  0  0  0  0
  5  6  1  0  0  0  0
  6  8  1  0  0  0  0
  6  2  1  1  0  0  0
  7 11  1  0  0  0  0
  8 11  1  0  0  0  0
 10  9  1  6  0  0  0
 10  5  1  0  0  0  0
 10  7  1  0  0  0  0
 11 12  1  1  0  0  0
 14 12  1  0  0  0  0
 14 13  1  0  0  0  0
 16 18  1  0  0  0  0
 18 22  2  0  0  0  0
 19 15  1  0  0  0  0
 19 17  1  0  0  0  0
 20 16  1  0  0  0  0
 20 23  2  0  0  0  0
 21 22  1  0  0  0  0
 21 17  2  0  0  0  0
 23 24  1  0  0  0  0
 23 21  1  0  0  0  0
 24 19  2  0  0  0  0
 25 26  3  0  0  0  0
 26 24  1  0  0  0  0
M  END
>  <MODEL>
5

>  <REMARK>
 VINA RESULT:      -5.9      3.695      8.034
  Name = 
  6 active torsions:
  status: ('A' for Active; 'I' for Inactive)
    1  A    between atoms: C_5  and  N_8
    2  A    between atoms: C_7  and  C_16
    3  A    between atoms: C_7  and  N_23
    4  A    between atoms: O_13  and  N_24
    5  A    between atoms: C_21  and  C_22
    6  A    between atoms: N_24  and  C_25
                            x       y       z     vdW  Elec       q    Type
                         _______ _______ _______ _____ _____    ______ ____

>  <TORSDO>
F 6

$$$$
=
 OpenBabel11042417183D

 26 28  0  0  1  0  0  0  0  0999 V2000
  189.4020  175.8300  145.4630 C   0  0  0  0  0  0  0  0  0  0  0  0
  188.4680  176.6080  144.7080 N   0  0  0  0  0  2  0  0  0  0  0  0
  190.8060  176.0620  145.3330 N   0  0  0  0  0  2  0  0  0  0  0  0
  188.9850  174.9210  146.2830 N   0  0  0  0  0  2  0  0  0  0  0  0
  186.4490  177.4290  145.7870 C   0  0  0  0  0  2  0  0  0  0  0  0
  187.0270  176.4270  144.7850 C   0  0  1  0  0  3  0  0  0  0  0  0
  184.6750  178.6420  144.0350 S   0  0  0  0  0  0  0  0  0  0  0  0
  186.4030  176.5330  143.3860 C   0  0  0  0  0  2  0  0  0  0  0  0
  184.3710  178.3840  146.7410 C   0  0  0  0  0  1  0  0  0  0  0  0
  184.9630  177.6570  145.5540 C   0  0  2  0  0  3  0  0  0  0  0  0
  186.0620  177.9770  143.0290 C   0  0  1  0  0  3  0  0  0  0  0  0
  185.7830  178.1140  141.6010 N   0  0  0  0  0  2  0  0  0  0  0  0
  186.4720  177.3900  139.6690 C   0  0  0  0  0  1  0  0  0  0  0  0
  186.9180  177.8390  140.9100 O   0  0  0  0  0  0  0  0  0  0  0  0
  191.3610  177.0840  144.4560 C   0  0  0  0  0  2  0  0  0  0  0  0
  196.5930  175.3810  142.3180 N   0  0  0  0  0  0  0  0  0  0  0  0
  192.6520  176.1940  142.5020 N   0  0  0  0  0  0  0  0  0  0  0  0
  195.8520  175.1830  141.1740 C   0  0  0  0  0  3  0  0  0  0  0  0
  192.6130  176.5930  143.8060 C   0  0  0  0  0  0  0  0  0  0  0  0
  196.0420  175.8230  143.4570 N   0  0  0  0  0  0  0  0  0  0  0  0
  193.9400  175.8710  142.2990 C   0  0  0  0  0  0  0  0  0  0  0  0
  194.5070  175.4310  141.1560 N   0  0  0  0  0  2  0  0  0  0  0  0
  194.7160  176.0680  143.4630 C   0  0  0  0  0  0  0  0  0  0  0  0
  193.8670  176.5320  144.4270 C   0  0  0  0  0  0  0  0  0  0  0  0
  194.4710  177.1930  146.8630 N   0  0  0  0  0  0  0  0  0  0  0  0
  194.2020  176.8990  145.7770 C   0  0  0  0  0  0  0  0  0  0  0  0
  1  4  2  0  0  0  0
  2  1  1  0  0  0  0
  3  1  1  0  0  0  0
  6  2  1  6  0  0  0
  6  5  1  0  0  0  0
  7 10  1  0  0  0  0
  8  6  1  0  0  0  0
 10  5  1  0  0  0  0
 10  9  1  1  0  0  0
 11 12  1  6  0  0  0
 11  8  1  0  0  0  0
 11  7  1  0  0  0  0
 13 14  1  0  0  0  0
 14 12  1  0  0  0  0
 15  3  1  0  0  0  0
 16 20  1  0  0  0  0
 17 19  1  0  0  0  0
 18 16  2  0  0  0  0
 19 24  2  0  0  0  0
 19 15  1  0  0  0  0
 20 23  2  0  0  0  0
 21 17  2  0  0  0  0
 21 23  1  0  0  0  0
 22 18  1  0  0  0  0
 22 21  1  0  0  0  0
 23 24  1  0  0  0  0
 24 26  1  0  0  0  0
 26 25  3  0  0  0  0
M  END
>  <MODEL>
6

>  <REMARK>
 VINA RESULT:      -5.8      1.549      2.339
  Name = 
  6 active torsions:
  status: ('A' for Active; 'I' for Inactive)
    1  A    between atoms: C_5  and  N_8
    2  A    between atoms: C_7  and  C_16
    3  A    between atoms: C_7  and  N_23
    4  A    between atoms: O_13  and  N_24
    5  A    between atoms: C_21  and  C_22
    6  A    between atoms: N_24  and  C_25
                            x       y       z     vdW  Elec       q    Type
                         _______ _______ _______ _____ _____    ______ ____

>  <TORSDO>
F 6

$$$$
=
 OpenBabel11042417183D

 26 28  0  0  1  0  0  0  0  0999 V2000
  188.1100  175.8140  142.0180 C   0  0  0  0  0  0  0  0  0  0  0  0
  187.5710  176.5740  143.1050 N   0  0  0  0  0  2  0  0  0  0  0  0
  188.8630  174.6260  142.2730 N   0  0  0  0  0  2  0  0  0  0  0  0
  187.9070  176.1830  140.7960 N   0  0  0  0  0  2  0  0  0  0  0  0
  185.3820  177.4270  142.4720 C   0  0  0  0  0  2  0  0  0  0  0  0
  186.7980  177.7930  142.9240 C   0  0  1  0  0  3  0  0  0  0  0  0
  184.0490  178.6950  144.5450 S   0  0  0  0  0  0  0  0  0  0  0  0
  186.8310  178.6370  144.2060 C   0  0  0  0  0  2  0  0  0  0  0  0
  183.1060  178.2910  142.0100 C   0  0  0  0  0  1  0  0  0  0  0  0
  184.3990  178.5530  142.7520 C   0  0  2  0  0  3  0  0  0  0  0  0
  185.7170  178.2400  145.1710 C   0  0  1  0  0  3  0  0  0  0  0  0
  185.9460  178.8020  146.5000 N   0  0  0  0  0  2  0  0  0  0  0  0
  185.9980  176.8090  147.3700 C   0  0  0  0  0  1  0  0  0  0  0  0
  186.7590  177.9620  147.1900 O   0  0  0  0  0  0  0  0  0  0  0  0
  189.1140  174.1210  143.6160 C   0  0  0  0  0  2  0  0  0  0  0  0
  193.6950  176.6590  146.3400 N   0  0  0  0  0  0  0  0  0  0  0  0
  191.3910  175.1430  143.4030 N   0  0  0  0  0  0  0  0  0  0  0  0
  194.1840  176.7270  145.0540 C   0  0  0  0  0  3  0  0  0  0  0  0
  190.3490  174.7410  144.1850 C   0  0  0  0  0  0  0  0  0  0  0  0
  192.5050  176.1100  146.6240 N   0  0  0  0  0  0  0  0  0  0  0  0
  192.2670  175.6710  144.2760 C   0  0  0  0  0  0  0  0  0  0  0  0
  193.4640  176.2300  144.0020 N   0  0  0  0  0  2  0  0  0  0  0  0
  191.7820  175.6100  145.6010 C   0  0  0  0  0  0  0  0  0  0  0  0
  190.5530  175.0160  145.5430 C   0  0  0  0  0  0  0  0  0  0  0  0
  188.9430  174.5440  147.5230 N   0  0  0  0  0  0  0  0  0  0  0  0
  189.6610  174.7550  146.6410 C   0  0  0  0  0  0  0  0  0  0  0  0
  1  3  1  0  0  0  0
  1  2  1  0  0  0  0
  3 15  1  0  0  0  0
  4  1  2  0  0  0  0
  5 10  1  0  0  0  0
  5  6  1  0  0  0  0
  6  2  1  1  0  0  0
  6  8  1  0  0  0  0
  7 11  1  0  0  0  0
  8 11  1  0  0  0  0
 10  9  1  6  0  0  0
 10  7  1  0  0  0  0
 11 12  1  1  0  0  0
 12 14  1  0  0  0  0
 14 13  1  0  0  0  0
 15 19  1  0  0  0  0
 16 20  1  0  0  0  0
 17 19  1  0  0  0  0
 17 21  2  0  0  0  0
 18 16  2  0  0  0  0
 19 24  2  0  0  0  0
 21 23  1  0  0  0  0
 22 21  1  0  0  0  0
 22 18  1  0  0  0  0
 23 20  2  0  0  0  0
 24 23  1  0  0  0  0
 24 26  1  0  0  0  0
 26 25  3  0  0  0  0
M  END
>  <MODEL>
7

>  <REMARK>
 VINA RESULT:      -5.8      2.383      4.284
  Name = 
  6 active torsions:
  status: ('A' for Active; 'I' for Inactive)
    1  A    between atoms: C_5  and  N_8
    2  A    between atoms: C_7  and  C_16
    3  A    between atoms: C_7  and  N_23
    4  A    between atoms: O_13  and  N_24
    5  A    between atoms: C_21  and  C_22
    6  A    between atoms: N_24  and  C_25
                            x       y       z     vdW  Elec       q    Type
                         _______ _______ _______ _____ _____    ______ ____

>  <TORSDO>
F 6

$$$$
=
 OpenBabel11042417183D

 26 28  0  0  1  0  0  0  0  0999 V2000
  188.2430  174.3840  142.0490 C   0  0  0  0  0  0  0  0  0  0  0  0
  189.2180  174.4760  143.0940 N   0  0  0  0  0  2  0  0  0  0  0  0
  187.7460  175.5680  141.4210 N   0  0  0  0  0  2  0  0  0  0  0  0
  187.8160  173.2300  141.6510 N   0  0  0  0  0  2  0  0  0  0  0  0
  190.7960  172.6370  142.8740 C   0  0  0  0  0  2  0  0  0  0  0  0
  189.7670  173.3170  143.7810 C   0  0  1  0  0  3  0  0  0  0  0  0
  192.9270  172.7950  144.6400 S   0  0  0  0  0  0  0  0  0  0  0  0
  190.3340  173.7300  145.1470 C   0  0  0  0  0  2  0  0  0  0  0  0
  192.5330  170.8770  142.7310 C   0  0  0  0  0  1  0  0  0  0  0  0
  191.7560  171.7690  143.6730 C   0  0  2  0  0  3  0  0  0  0  0  0
  191.7880  174.1810  145.0400 C   0  0  1  0  0  3  0  0  0  0  0  0
  192.2150  174.8730  146.2540 N   0  0  0  0  0  2  0  0  0  0  0  0
  193.7240  176.4180  146.5120 C   0  0  0  0  0  1  0  0  0  0  0  0
  193.5560  175.0730  146.1900 O   0  0  0  0  0  0  0  0  0  0  0  0
  188.1940  176.9040  141.7860 C   0  0  0  0  0  2  0  0  0  0  0  0
  185.0700  179.0400  146.3170 N   0  0  0  0  0  0  0  0  0  0  0  0
  185.9890  177.7650  142.6080 N   0  0  0  0  0  0  0  0  0  0  0  0
  184.0600  179.0400  145.3800 C   0  0  0  0  0  3  0  0  0  0  0  0
  187.3040  177.4860  142.8370 C   0  0  0  0  0  0  0  0  0  0  0  0
  186.3160  178.6400  146.0240 N   0  0  0  0  0  0  0  0  0  0  0  0
  185.5450  178.2260  143.7890 C   0  0  0  0  0  0  0  0  0  0  0  0
  184.2930  178.6260  144.0970 N   0  0  0  0  0  2  0  0  0  0  0  0
  186.5670  178.2340  144.7630 C   0  0  0  0  0  0  0  0  0  0  0  0
  187.6940  177.7580  144.1550 C   0  0  0  0  0  0  0  0  0  0  0  0
  190.0290  177.4040  145.2320 N   0  0  0  0  0  0  0  0  0  0  0  0
  188.9880  177.5620  144.7510 C   0  0  0  0  0  0  0  0  0  0  0  0
  1  2  1  0  0  0  0
  3 15  1  0  0  0  0
  3  1  1  0  0  0  0
  4  1  2  0  0  0  0
  5 10  1  0  0  0  0
  5  6  1  0  0  0  0
  6  2  1  6  0  0  0
  6  8  1  0  0  0  0
  7 11  1  0  0  0  0
 10  9  1  6  0  0  0
 10  7  1  0  0  0  0
 11  8  1  0  0  0  0
 11 12  1  1  0  0  0
 14 12  1  0  0  0  0
 14 13  1  0  0  0  0
 15 19  1  0  0  0  0
 17 19  1  0  0  0  0
 17 21  2  0  0  0  0
 18 16  2  0  0  0  0
 19 24  2  0  0  0  0
 20 16  1  0  0  0  0
 21 22  1  0  0  0  0
 21 23  1  0  0  0  0
 22 18  1  0  0  0  0
 23 20  2  0  0  0  0
 24 26  1  0  0  0  0
 24 23  1  0  0  0  0
 26 25  3  0  0  0  0
M  END
>  <MODEL>
8

>  <REMARK>
 VINA RESULT:      -5.8      3.987      8.011
  Name = 
  6 active torsions:
  status: ('A' for Active; 'I' for Inactive)
    1  A    between atoms: C_5  and  N_8
    2  A    between atoms: C_7  and  C_16
    3  A    between atoms: C_7  and  N_23
    4  A    between atoms: O_13  and  N_24
    5  A    between atoms: C_21  and  C_22
    6  A    between atoms: N_24  and  C_25
                            x       y       z     vdW  Elec       q    Type
                         _______ _______ _______ _____ _____    ______ ____

>  <TORSDO>
F 6

$$$$
=
 OpenBabel11042417183D

 26 28  0  0  1  0  0  0  0  0999 V2000
  188.3540  174.5240  142.1490 C   0  0  0  0  0  0  0  0  0  0  0  0
  189.2600  174.6580  143.2500 N   0  0  0  0  0  2  0  0  0  0  0  0
  187.7790  175.6850  141.5450 N   0  0  0  0  0  2  0  0  0  0  0  0
  188.0600  173.3560  141.6800 N   0  0  0  0  0  2  0  0  0  0  0  0
  191.0160  172.9870  143.0410 C   0  0  0  0  0  2  0  0  0  0  0  0
  189.8810  173.5240  143.9170 C   0  0  1  0  0  3  0  0  0  0  0  0
  193.0290  173.2600  144.9290 S   0  0  0  0  0  0  0  0  0  0  0  0
  190.3350  173.9230  145.3280 C   0  0  0  0  0  2  0  0  0  0  0  0
  192.9190  171.4050  142.9210 C   0  0  0  0  0  1  0  0  0  0  0  0
  192.0120  172.1760  143.8560 C   0  0  2  0  0  3  0  0  0  0  0  0
  191.7430  174.5130  145.3230 C   0  0  1  0  0  3  0  0  0  0  0  0
  192.0380  175.1840  146.5860 N   0  0  0  0  0  2  0  0  0  0  0  0
  193.6980  176.5830  146.7160 C   0  0  0  0  0  1  0  0  0  0  0  0
  192.3650  176.4740  146.3250 O   0  0  0  0  0  0  0  0  0  0  0  0
  188.0770  177.0390  141.9900 C   0  0  0  0  0  2  0  0  0  0  0  0
  183.9830  178.9820  145.7730 N   0  0  0  0  0  2  0  0  0  0  0  0
  187.4300  177.4320  144.3780 N   0  0  0  0  0  0  0  0  0  0  0  0
  184.9470  178.6490  146.6990 C   0  0  0  0  0  3  0  0  0  0  0  0
  187.1150  177.4650  143.0520 C   0  0  0  0  0  0  0  0  0  0  0  0
  184.1640  178.8010  144.4570 N   0  0  0  0  0  0  0  0  0  0  0  0
  186.3340  177.9210  144.9840 C   0  0  0  0  0  0  0  0  0  0  0  0
  186.1430  178.1130  146.3060 N   0  0  0  0  0  0  0  0  0  0  0  0
  185.3340  178.2680  144.0490 C   0  0  0  0  0  0  0  0  0  0  0  0
  185.8340  177.9780  142.8120 C   0  0  0  0  0  0  0  0  0  0  0  0
  184.6660  178.3420  140.5230 N   0  0  0  0  0  0  0  0  0  0  0  0
  185.1870  178.1800  141.5430 C   0  0  0  0  0  0  0  0  0  0  0  0
  1  2  1  0  0  0  0
  3 15  1  0  0  0  0
  3  1  1  0  0  0  0
  4  1  2  0  0  0  0
  5 10  1  0  0  0  0
  5  6  1  0  0  0  0
  6  2  1  6  0  0  0
  6  8  1  0  0  0  0
  7 11  1  0  0  0  0
 10  9  1  6  0  0  0
 10  7  1  0  0  0  0
 11  8  1  0  0  0  0
 11 12  1  1  0  0  0
 14 12  1  0  0  0  0
 14 13  1  0  0  0  0
 15 19  1  0  0  0  0
 16 18  1  0  0  0  0
 17 21  2  0  0  0  0
 19 17  1  0  0  0  0
 20 16  1  0  0  0  0
 21 22  1  0  0  0  0
 22 18  2  0  0  0  0
 23 20  2  0  0  0  0
 23 21  1  0  0  0  0
 24 19  2  0  0  0  0
 24 23  1  0  0  0  0
 25 26  3  0  0  0  0
 26 24  1  0  0  0  0
M  END
>  <MODEL>
9

>  <REMARK>
 VINA RESULT:      -5.8      3.807      8.092
  Name = 
  6 active torsions:
  status: ('A' for Active; 'I' for Inactive)
    1  A    between atoms: C_5  and  N_8
    2  A    between atoms: C_7  and  C_16
    3  A    between atoms: C_7  and  N_23
    4  A    between atoms: O_13  and  N_24
    5  A    between atoms: C_21  and  C_22
    6  A    between atoms: N_24  and  C_25
                            x       y       z     vdW  Elec       q    Type
                         _______ _______ _______ _____ _____    ______ ____

>  <TORSDO>
F 6

$$$$
