=
 OpenBabel11042418523D

 26 31  0  0  1  0  0  0  0  0999 V2000
  185.1220  178.1710  142.3940 C   0  0  1  0  0  3  0  0  0  0  0  0
  187.2170  177.3180  141.5790 C   0  0  2  0  0  0  0  0  0  0  0  0
  185.6630  177.7140  143.6840 N   0  0  0  0  0  0  0  0  0  0  0  0
  189.2670  178.0450  143.3720 C   0  0  0  0  0  2  0  0  0  0  0  0
  187.5810  178.6490  141.9300 O   0  0  0  0  0  0  0  0  0  0  0  0
  184.8180  178.5110  147.3040 C   0  0  0  0  0  2  0  0  0  0  0  0
  186.9410  177.3110  145.8330 C   0  0  0  0  0  0  0  0  0  0  0  0
  185.7620  177.8150  145.1100 C   0  0  0  0  0  0  0  0  0  0  0  0
  185.8580  177.6840  147.9350 N   0  0  0  0  0  0  0  0  0  0  0  0
  187.0980  176.2200  142.5840 C   0  0  0  0  0  2  0  0  0  0  0  0
  189.1080  176.9960  144.4300 C   0  0  0  0  0  0  0  0  0  0  0  0
  186.8630  177.1730  147.2890 C   0  0  0  0  0  3  0  0  0  0  0  0
  188.6420  177.7700  141.9790 C   0  0  2  0  0  3  0  0  0  0  0  0
  184.7510  178.3400  145.8050 C   0  0  0  0  0  3  0  0  0  0  0  0
  188.0580  177.1180  145.1970 C   0  0  0  0  0  0  0  0  0  0  0  0
  185.8510  176.9820  142.3640 C   0  0  1  0  0  0  0  0  0  0  0  0
  183.7580  177.8900  142.3410 O   0  0  0  0  0  1  0  0  0  0  0  0
  189.4300  174.4710  144.7060 C   0  0  0  0  0  3  0  0  0  0  0  0
  191.7080  173.5180  144.9210 C   0  0  0  0  0  2  0  0  0  0  0  0
  190.0010  175.8160  144.4900 C   0  0  0  0  0  0  0  0  0  0  0  0
  190.2100  173.4010  144.8730 C   0  0  0  0  0  3  0  0  0  0  0  0
  192.1760  174.7840  144.3530 N   0  0  0  0  0  0  0  0  0  0  0  0
  191.3210  175.9360  144.3030 C   0  0  0  0  0  3  0  0  0  0  0  0
  193.5950  174.9420  144.0840 C   0  0  0  0  0  2  0  0  0  0  0  0
  194.5440  175.7180  146.2320 C   0  0  0  0  0  1  0  0  0  0  0  0
  194.1390  176.1400  144.8370 C   0  0  0  0  0  2  0  0  0  0  0  0
  1 17  1  1  0  0  0
  1  3  1  0  0  0  0
  2  5  1  0  0  0  0
  2 13  1  0  0  0  0
  2 16  1  0  0  0  0
  2 10  1  1  0  0  0
  3  8  1  0  0  0  0
  4 11  1  0  0  0  0
  5 13  1  0  0  0  0
  6  9  1  0  0  0  0
  7 12  1  0  0  0  0
  8 14  2  0  0  0  0
  8  7  1  0  0  0  0
 11 20  1  0  0  0  0
 11 15  2  0  0  0  0
 12  9  2  0  0  0  0
 13  4  1  1  0  0  0
 14  6  1  0  0  0  0
 15  7  2  0  0  0  0
 16  1  1  0  0  0  0
 16 10  1  6  0  0  0
 16  3  1  0  0  0  0
 18 21  2  0  0  0  0
 20 18  1  0  0  0  0
 21 19  1  0  0  0  0
 22 19  1  0  0  0  0
 23 22  1  0  0  0  0
 23 20  2  0  0  0  0
 24 22  1  0  0  0  0
 24 26  1  0  0  0  0
 26 25  1  0  0  0  0
M  END
>  <MODEL>
1

>  <REMARK>
 VINA RESULT:      -7.8      0.000      0.000
  Name = 
  3 active torsions:
  status: ('A' for Active; 'I' for Inactive)
    1  A    between atoms: C_9  and  C_14
    2  A    between atoms: C_19  and  C_22
    3  A    between atoms: C_22  and  N_23
                            x       y       z     vdW  Elec       q    Type
                         _______ _______ _______ _____ _____    ______ ____

>  <TORSDO>
F 3

$$$$
=
 OpenBabel11042418523D

 26 31  0  0  1  0  0  0  0  0999 V2000
  185.3120  178.1200  142.3510 C   0  0  1  0  0  3  0  0  0  0  0  0
  187.4460  177.2330  141.6890 C   0  0  2  0  0  0  0  0  0  0  0  0
  185.7700  177.6970  143.6840 N   0  0  0  0  0  0  0  0  0  0  0  0
  189.3880  177.9990  143.5830 C   0  0  0  0  0  2  0  0  0  0  0  0
  187.7970  178.5710  142.0250 O   0  0  0  0  0  0  0  0  0  0  0  0
  184.7120  178.6010  147.2220 C   0  0  0  0  0  2  0  0  0  0  0  0
  186.9120  177.3480  145.9170 C   0  0  0  0  0  0  0  0  0  0  0  0
  185.7820  177.8380  145.1090 C   0  0  0  0  0  0  0  0  0  0  0  0
  185.7060  177.7870  147.9380 N   0  0  0  0  0  0  0  0  0  0  0  0
  187.2580  176.1640  142.7160 C   0  0  0  0  0  2  0  0  0  0  0  0
  189.1580  176.9820  144.6580 C   0  0  0  0  0  0  0  0  0  0  0  0
  186.7450  177.2520  147.3690 C   0  0  0  0  0  3  0  0  0  0  0  0
  188.8480  177.6880  142.1630 C   0  0  2  0  0  3  0  0  0  0  0  0
  184.7350  178.3880  145.7270 C   0  0  0  0  0  3  0  0  0  0  0  0
  188.0650  177.1310  145.3570 C   0  0  0  0  0  0  0  0  0  0  0  0
  186.0320  176.9260  142.3990 C   0  0  1  0  0  0  0  0  0  0  0  0
  183.9510  177.8450  142.2230 O   0  0  0  0  0  1  0  0  0  0  0  0
  191.4470  175.9750  145.2100 C   0  0  0  0  0  3  0  0  0  0  0  0
  191.8780  173.5650  144.8170 C   0  0  0  0  0  2  0  0  0  0  0  0
  190.0370  175.7990  144.8060 C   0  0  0  0  0  0  0  0  0  0  0  0
  192.2940  174.9450  145.2490 C   0  0  0  0  0  3  0  0  0  0  0  0
  190.4220  173.4190  144.7840 N   0  0  0  0  0  0  0  0  0  0  0  0
  189.5650  174.5590  144.6280 C   0  0  0  0  0  3  0  0  0  0  0  0
  189.8620  172.0860  144.6450 C   0  0  0  0  0  2  0  0  0  0  0  0
  190.1110  171.4710  142.2620 C   0  0  0  0  0  1  0  0  0  0  0  0
  189.1420  171.9590  143.3160 C   0  0  0  0  0  2  0  0  0  0  0  0
  1 17  1  1  0  0  0
  1 16  1  0  0  0  0
  1  3  1  0  0  0  0
  2  5  1  0  0  0  0
  2 13  1  0  0  0  0
  2 16  1  0  0  0  0
  2 10  1  1  0  0  0
  3  8  1  0  0  0  0
  4 11  1  0  0  0  0
  5 13  1  0  0  0  0
  6  9  1  0  0  0  0
  7 12  1  0  0  0  0
  8 14  2  0  0  0  0
  8  7  1  0  0  0  0
 11 20  1  0  0  0  0
 11 15  2  0  0  0  0
 12  9  2  0  0  0  0
 13  4  1  1  0  0  0
 14  6  1  0  0  0  0
 15  7  2  0  0  0  0
 16 10  1  6  0  0  0
 16  3  1  0  0  0  0
 18 21  2  0  0  0  0
 19 21  1  0  0  0  0
 20 18  1  0  0  0  0
 22 19  1  0  0  0  0
 23 22  1  0  0  0  0
 23 20  2  0  0  0  0
 24 22  1  0  0  0  0
 25 26  1  0  0  0  0
 26 24  1  0  0  0  0
M  END
>  <MODEL>
2

>  <REMARK>
 VINA RESULT:      -7.6      1.026      2.362
  Name = 
  3 active torsions:
  status: ('A' for Active; 'I' for Inactive)
    1  A    between atoms: C_9  and  C_14
    2  A    between atoms: C_19  and  C_22
    3  A    between atoms: C_22  and  N_23
                            x       y       z     vdW  Elec       q    Type
                         _______ _______ _______ _____ _____    ______ ____

>  <TORSDO>
F 3

$$$$
=
 OpenBabel11042418523D

 26 31  0  0  1  0  0  0  0  0999 V2000
  191.6030  174.0140  145.0130 C   0  0  1  0  0  3  0  0  0  0  0  0
  190.5290  175.6750  146.3800 C   0  0  2  0  0  0  0  0  0  0  0  0
  190.4930  174.3320  144.1000 N   0  0  0  0  0  0  0  0  0  0  0  0
  189.7010  177.8170  144.7450 C   0  0  0  0  0  2  0  0  0  0  0  0
  191.3810  176.4870  145.5800 O   0  0  0  0  0  0  0  0  0  0  0  0
  189.9210  173.7680  140.3840 C   0  0  0  0  0  2  0  0  0  0  0  0
  188.8210  175.3410  142.4880 C   0  0  0  0  0  0  0  0  0  0  0  0
  189.9450  174.4350  142.7800 C   0  0  0  0  0  0  0  0  0  0  0  0
  188.6110  174.4290  140.2850 N   0  0  0  0  0  0  0  0  0  0  0  0
  189.2190  175.1500  145.8910 C   0  0  0  0  0  2  0  0  0  0  0  0
  188.4240  177.2730  144.1830 C   0  0  0  0  0  0  0  0  0  0  0  0
  188.1170  175.1940  141.2120 C   0  0  0  0  0  3  0  0  0  0  0  0
  190.2660  177.1600  146.0320 C   0  0  2  0  0  3  0  0  0  0  0  0
  190.4310  173.6700  141.8020 C   0  0  0  0  0  3  0  0  0  0  0  0
  188.5540  176.3250  143.2950 C   0  0  0  0  0  0  0  0  0  0  0  0
  190.3700  174.2660  145.6150 C   0  0  1  0  0  0  0  0  0  0  0  0
  191.8440  172.6420  144.9860 O   0  0  0  0  0  1  0  0  0  0  0  0
  186.9220  177.8350  146.1790 C   0  0  0  0  0  3  0  0  0  0  0  0
  184.4870  178.1710  145.8530 C   0  0  0  0  0  2  0  0  0  0  0  0
  187.1050  177.6790  144.7220 C   0  0  0  0  0  0  0  0  0  0  0  0
  185.7240  178.0940  146.7060 C   0  0  0  0  0  3  0  0  0  0  0  0
  184.8100  178.3610  144.4390 N   0  0  0  0  0  0  0  0  0  0  0  0
  186.0810  177.9580  143.9060 C   0  0  0  0  0  3  0  0  0  0  0  0
  183.7390  178.7170  143.5240 C   0  0  0  0  0  2  0  0  0  0  0  0
  182.7580  178.2550  141.3000 C   0  0  0  0  0  1  0  0  0  0  0  0
  183.9960  178.1090  142.1580 C   0  0  0  0  0  2  0  0  0  0  0  0
  1 17  1  6  0  0  0
  1 16  1  0  0  0  0
  2 10  1  6  0  0  0
  3  1  1  0  0  0  0
  3 16  1  0  0  0  0
  5 13  1  0  0  0  0
  5  2  1  0  0  0  0
  6 14  1  0  0  0  0
  7  8  1  0  0  0  0
  7 15  2  0  0  0  0
  8  3  1  0  0  0  0
  9  6  1  0  0  0  0
  9 12  2  0  0  0  0
 11 20  1  0  0  0  0
 11  4  1  0  0  0  0
 12  7  1  0  0  0  0
 13  4  1  6  0  0  0
 13  2  1  0  0  0  0
 14  8  2  0  0  0  0
 15 11  2  0  0  0  0
 16 10  1  1  0  0  0
 16  2  1  0  0  0  0
 18 21  2  0  0  0  0
 19 21  1  0  0  0  0
 20 18  1  0  0  0  0
 22 19  1  0  0  0  0
 23 22  1  0  0  0  0
 23 20  2  0  0  0  0
 24 22  1  0  0  0  0
 25 26  1  0  0  0  0
 26 24  1  0  0  0  0
M  END
>  <MODEL>
3

>  <REMARK>
 VINA RESULT:      -7.3      2.786      7.169
  Name = 
  3 active torsions:
  status: ('A' for Active; 'I' for Inactive)
    1  A    between atoms: C_9  and  C_14
    2  A    between atoms: C_19  and  C_22
    3  A    between atoms: C_22  and  N_23
                            x       y       z     vdW  Elec       q    Type
                         _______ _______ _______ _____ _____    ______ ____

>  <TORSDO>
F 3

$$$$
=
 OpenBabel11042418523D

 26 31  0  0  1  0  0  0  0  0999 V2000
  184.2120  178.3090  145.5330 C   0  0  1  0  0  3  0  0  0  0  0  0
  186.2150  177.6930  146.7110 C   0  0  2  0  0  0  0  0  0  0  0  0
  185.1130  178.2500  144.3710 N   0  0  0  0  0  0  0  0  0  0  0  0
  187.5950  175.7390  145.2210 C   0  0  0  0  0  2  0  0  0  0  0  0
  185.7070  176.4140  146.3460 O   0  0  0  0  0  0  0  0  0  0  0  0
  184.5330  177.9660  140.6240 C   0  0  0  0  0  2  0  0  0  0  0  0
  186.6740  177.6370  142.4730 C   0  0  0  0  0  0  0  0  0  0  0  0
  185.3470  178.0310  142.9740 C   0  0  0  0  0  0  0  0  0  0  0  0
  185.9440  177.9150  140.2110 N   0  0  0  0  0  0  0  0  0  0  0  0
  186.9740  178.5630  145.7630 C   0  0  0  0  0  2  0  0  0  0  0  0
  188.3010  176.5920  144.2120 C   0  0  0  0  0  0  0  0  0  0  0  0
  186.9300  177.7120  141.0330 C   0  0  0  0  0  3  0  0  0  0  0  0
  187.0760  176.4220  146.5120 C   0  0  2  0  0  3  0  0  0  0  0  0
  184.3560  178.2240  142.1010 C   0  0  0  0  0  3  0  0  0  0  0  0
  187.5460  177.1170  143.2850 C   0  0  0  0  0  0  0  0  0  0  0  0
  185.5110  178.7720  145.7430 C   0  0  1  0  0  0  0  0  0  0  0  0
  183.3440  179.3900  145.3880 O   0  0  0  0  0  1  0  0  0  0  0  0
  190.3330  177.9710  143.4890 C   0  0  0  0  0  3  0  0  0  0  0  0
  192.5830  177.4450  144.3850 C   0  0  0  0  0  2  0  0  0  0  0  0
  189.7340  176.9390  144.3580 C   0  0  0  0  0  0  0  0  0  0  0  0
  191.6410  178.2330  143.5180 C   0  0  0  0  0  3  0  0  0  0  0  0
  191.8760  176.7190  145.4420 N   0  0  0  0  0  0  0  0  0  0  0  0
  190.4920  176.3670  145.3020 C   0  0  0  0  0  3  0  0  0  0  0  0
  192.6530  176.1260  146.5170 C   0  0  0  0  0  2  0  0  0  0  0  0
  194.9520  175.2890  146.1520 C   0  0  0  0  0  1  0  0  0  0  0  0
  194.1110  176.5250  146.3880 C   0  0  0  0  0  2  0  0  0  0  0  0
  1 17  1  6  0  0  0
  1 16  1  0  0  0  0
  2 10  1  6  0  0  0
  3  1  1  0  0  0  0
  3 16  1  0  0  0  0
  5 13  1  0  0  0  0
  5  2  1  0  0  0  0
  6 14  1  0  0  0  0
  7  8  1  0  0  0  0
  7 15  2  0  0  0  0
  8  3  1  0  0  0  0
  9  6  1  0  0  0  0
  9 12  2  0  0  0  0
 11 20  1  0  0  0  0
 11  4  1  0  0  0  0
 12  7  1  0  0  0  0
 13  4  1  6  0  0  0
 13  2  1  0  0  0  0
 14  8  2  0  0  0  0
 15 11  2  0  0  0  0
 16 10  1  1  0  0  0
 16  2  1  0  0  0  0
 18 21  2  0  0  0  0
 18 20  1  0  0  0  0
 19 22  1  0  0  0  0
 20 23  2  0  0  0  0
 21 19  1  0  0  0  0
 22 24  1  0  0  0  0
 23 22  1  0  0  0  0
 25 26  1  0  0  0  0
 26 24  1  0  0  0  0
M  END
>  <MODEL>
4

>  <REMARK>
 VINA RESULT:      -7.1      2.078      3.934
  Name = 
  3 active torsions:
  status: ('A' for Active; 'I' for Inactive)
    1  A    between atoms: C_9  and  C_14
    2  A    between atoms: C_19  and  C_22
    3  A    between atoms: C_22  and  N_23
                            x       y       z     vdW  Elec       q    Type
                         _______ _______ _______ _____ _____    ______ ____

>  <TORSDO>
F 3

$$$$
=
 OpenBabel11042418523D

 26 31  0  0  1  0  0  0  0  0999 V2000
  191.5850  174.2510  144.7270 C   0  0  1  0  0  3  0  0  0  0  0  0
  190.3500  175.9540  145.8900 C   0  0  2  0  0  0  0  0  0  0  0  0
  190.5190  174.4370  143.7280 N   0  0  0  0  0  0  0  0  0  0  0  0
  189.5230  177.9160  144.0410 C   0  0  0  0  0  2  0  0  0  0  0  0
  191.2100  176.7460  145.0770 O   0  0  0  0  0  0  0  0  0  0  0  0
  190.2060  173.5550  140.0430 C   0  0  0  0  0  2  0  0  0  0  0  0
  188.9040  175.2280  141.9450 C   0  0  0  0  0  0  0  0  0  0  0  0
  190.0490  174.4080  142.3750 C   0  0  0  0  0  0  0  0  0  0  0  0
  188.8750  174.1370  139.8150 N   0  0  0  0  0  0  0  0  0  0  0  0
  189.0990  175.3250  145.3700 C   0  0  0  0  0  2  0  0  0  0  0  0
  188.3110  177.2630  143.4520 C   0  0  0  0  0  0  0  0  0  0  0  0
  188.2880  174.9440  140.6470 C   0  0  0  0  0  3  0  0  0  0  0  0
  190.0380  177.3920  145.4070 C   0  0  2  0  0  3  0  0  0  0  0  0
  190.6310  173.5950  141.4920 C   0  0  0  0  0  3  0  0  0  0  0  0
  188.5400  176.2560  142.6530 C   0  0  0  0  0  0  0  0  0  0  0  0
  190.3060  174.4840  145.2330 C   0  0  1  0  0  0  0  0  0  0  0  0
  191.8920  172.8950  144.8250 O   0  0  0  0  0  1  0  0  0  0  0  0
  185.8270  177.5760  142.9140 C   0  0  0  0  0  3  0  0  0  0  0  0
  184.3180  178.6490  144.5620 C   0  0  0  0  0  2  0  0  0  0  0  0
  186.9430  177.6400  143.8790 C   0  0  0  0  0  0  0  0  0  0  0  0
  184.6060  178.0090  143.2320 C   0  0  0  0  0  3  0  0  0  0  0  0
  185.3560  178.3480  145.5500 N   0  0  0  0  0  0  0  0  0  0  0  0
  186.6860  177.9940  145.1440 C   0  0  0  0  0  3  0  0  0  0  0  0
  185.1010  178.6660  146.9440 C   0  0  0  0  0  2  0  0  0  0  0  0
  186.8990  179.3820  148.4840 C   0  0  0  0  0  1  0  0  0  0  0  0
  186.2540  178.1920  147.8070 C   0  0  0  0  0  2  0  0  0  0  0  0
  1 17  1  1  0  0  0
  1 16  1  0  0  0  0
  2 10  1  6  0  0  0
  3  1  1  0  0  0  0
  3 16  1  0  0  0  0
  5 13  1  0  0  0  0
  5  2  1  0  0  0  0
  6 14  1  0  0  0  0
  7  8  1  0  0  0  0
  7 15  2  0  0  0  0
  8  3  1  0  0  0  0
  9  6  1  0  0  0  0
  9 12  2  0  0  0  0
 11 20  1  0  0  0  0
 11  4  1  0  0  0  0
 12  7  1  0  0  0  0
 13  4  1  6  0  0  0
 13  2  1  0  0  0  0
 14  8  2  0  0  0  0
 15 11  2  0  0  0  0
 16 10  1  1  0  0  0
 16  2  1  0  0  0  0
 18 21  2  0  0  0  0
 18 20  1  0  0  0  0
 19 22  1  0  0  0  0
 20 23  2  0  0  0  0
 21 19  1  0  0  0  0
 22 24  1  0  0  0  0
 23 22  1  0  0  0  0
 24 26  1  0  0  0  0
 26 25  1  0  0  0  0
M  END
>  <MODEL>
5

>  <REMARK>
 VINA RESULT:      -7.0      2.806      6.827
  Name = 
  3 active torsions:
  status: ('A' for Active; 'I' for Inactive)
    1  A    between atoms: C_9  and  C_14
    2  A    between atoms: C_19  and  C_22
    3  A    between atoms: C_22  and  N_23
                            x       y       z     vdW  Elec       q    Type
                         _______ _______ _______ _____ _____    ______ ____

>  <TORSDO>
F 3

$$$$
=
 OpenBabel11042418523D

 26 31  0  0  1  0  0  0  0  0999 V2000
  187.0220  177.3850  144.3520 C   0  0  1  0  0  3  0  0  0  0  0  0
  188.5440  177.2520  146.2080 C   0  0  2  0  0  0  0  0  0  0  0  0
  188.0910  176.6320  143.6760 N   0  0  0  0  0  0  0  0  0  0  0  0
  189.6690  174.6690  146.2930 C   0  0  0  0  0  2  0  0  0  0  0  0
  187.8210  176.0350  146.3590 O   0  0  0  0  0  0  0  0  0  0  0  0
  188.2030  174.5100  140.5230 C   0  0  0  0  0  2  0  0  0  0  0  0
  189.7950  174.9540  142.8420 C   0  0  0  0  0  0  0  0  0  0  0  0
  188.5320  175.6950  142.6860 C   0  0  0  0  0  0  0  0  0  0  0  0
  189.6100  174.0960  140.6150 N   0  0  0  0  0  0  0  0  0  0  0  0
  189.6630  177.4130  145.2310 C   0  0  0  0  0  2  0  0  0  0  0  0
  190.7450  174.7900  145.2580 C   0  0  0  0  0  0  0  0  0  0  0  0
  190.3370  174.2420  141.6830 C   0  0  0  0  0  3  0  0  0  0  0  0
  189.0910  175.9760  146.8940 C   0  0  2  0  0  3  0  0  0  0  0  0
  187.8080  175.5150  141.5790 C   0  0  0  0  0  3  0  0  0  0  0  0
  190.3370  174.8380  144.0180 C   0  0  0  0  0  0  0  0  0  0  0  0
  188.3280  177.7420  144.6890 C   0  0  1  0  0  0  0  0  0  0  0  0
  186.4890  178.3220  143.4680 O   0  0  0  0  0  1  0  0  0  0  0  0
  192.5450  176.1910  146.4210 C   0  0  0  0  0  3  0  0  0  0  0  0
  194.9430  175.6280  146.1380 C   0  0  0  0  0  2  0  0  0  0  0  0
  192.1620  175.0020  145.6340 C   0  0  0  0  0  0  0  0  0  0  0  0
  193.8230  176.4690  146.6860 C   0  0  0  0  0  3  0  0  0  0  0  0
  194.4720  174.3150  145.6940 N   0  0  0  0  0  0  0  0  0  0  0  0
  193.1040  174.1050  145.3150 C   0  0  0  0  0  3  0  0  0  0  0  0
  195.4580  173.2920  145.3870 C   0  0  0  0  0  2  0  0  0  0  0  0
  197.8100  173.5150  144.6550 C   0  0  0  0  0  1  0  0  0  0  0  0
  196.8410  173.7630  145.7910 C   0  0  0  0  0  2  0  0  0  0  0  0
  1 17  1  6  0  0  0
  1 16  1  0  0  0  0
  2 10  1  6  0  0  0
  2  5  1  0  0  0  0
  2 13  1  0  0  0  0
  3  1  1  0  0  0  0
  3 16  1  0  0  0  0
  5 13  1  0  0  0  0
  6  9  1  0  0  0  0
  6 14  1  0  0  0  0
  7 15  2  0  0  0  0
  8  7  1  0  0  0  0
  8  3  1  0  0  0  0
  9 12  2  0  0  0  0
 11 20  1  0  0  0  0
 11  4  1  0  0  0  0
 12  7  1  0  0  0  0
 13  4  1  6  0  0  0
 14  8  2  0  0  0  0
 15 11  2  0  0  0  0
 16 10  1  6  0  0  0
 16  2  1  0  0  0  0
 18 21  2  0  0  0  0
 19 21  1  0  0  0  0
 20 18  1  0  0  0  0
 22 19  1  0  0  0  0
 23 20  2  0  0  0  0
 23 22  1  0  0  0  0
 24 22  1  0  0  0  0
 24 26  1  0  0  0  0
 25 26  1  0  0  0  0
M  END
>  <MODEL>
6

>  <REMARK>
 VINA RESULT:      -6.9      2.433      4.680
  Name = 
  3 active torsions:
  status: ('A' for Active; 'I' for Inactive)
    1  A    between atoms: C_9  and  C_14
    2  A    between atoms: C_19  and  C_22
    3  A    between atoms: C_22  and  N_23
                            x       y       z     vdW  Elec       q    Type
                         _______ _______ _______ _____ _____    ______ ____

>  <TORSDO>
F 3

$$$$
=
 OpenBabel11042418523D

 26 31  0  0  1  0  0  0  0  0999 V2000
  186.7790  176.7230  144.3620 C   0  0  1  0  0  3  0  0  0  0  0  0
  188.5120  177.3470  145.9070 C   0  0  2  0  0  0  0  0  0  0  0  0
  187.8900  176.0120  143.7080 N   0  0  0  0  0  0  0  0  0  0  0  0
  190.1540  175.1100  146.4010 C   0  0  0  0  0  2  0  0  0  0  0  0
  188.0840  176.1080  146.4610 O   0  0  0  0  0  0  0  0  0  0  0  0
  188.0540  173.1850  141.1720 C   0  0  0  0  0  2  0  0  0  0  0  0
  189.7910  174.4910  143.0110 C   0  0  0  0  0  0  0  0  0  0  0  0
  188.3920  174.9370  142.9050 C   0  0  0  0  0  0  0  0  0  0  0  0
  189.5170  173.0570  141.1150 N   0  0  0  0  0  0  0  0  0  0  0  0
  189.4430  177.4340  144.7420 C   0  0  0  0  0  2  0  0  0  0  0  0
  191.0450  175.1360  145.1970 C   0  0  0  0  0  0  0  0  0  0  0  0
  190.3230  173.6020  141.9770 C   0  0  0  0  0  3  0  0  0  0  0  0
  189.3940  176.4100  146.7680 C   0  0  2  0  0  3  0  0  0  0  0  0
  187.5910  174.3500  142.0130 C   0  0  0  0  0  3  0  0  0  0  0  0
  190.4870  174.7840  144.0700 C   0  0  0  0  0  0  0  0  0  0  0  0
  188.0120  177.3740  144.3750 C   0  0  1  0  0  0  0  0  0  0  0  0
  185.9570  177.2880  143.3880 O   0  0  0  0  0  1  0  0  0  0  0  0
  192.9480  176.1960  146.5420 C   0  0  0  0  0  3  0  0  0  0  0  0
  194.9810  177.0240  145.3900 C   0  0  0  0  0  2  0  0  0  0  0  0
  192.4220  175.6780  145.2630 C   0  0  0  0  0  0  0  0  0  0  0  0
  194.1410  176.7890  146.6150 C   0  0  0  0  0  3  0  0  0  0  0  0
  194.5600  176.1820  144.2690 N   0  0  0  0  0  0  0  0  0  0  0  0
  193.2240  175.6640  144.1910 C   0  0  0  0  0  3  0  0  0  0  0  0
  195.4240  176.0940  143.1040 C   0  0  0  0  0  2  0  0  0  0  0  0
  197.8720  175.9940  142.7640 C   0  0  0  0  0  1  0  0  0  0  0  0
  196.7420  176.7910  143.3790 C   0  0  0  0  0  2  0  0  0  0  0  0
  1 17  1  6  0  0  0
  1 16  1  0  0  0  0
  2 10  1  6  0  0  0
  2  5  1  0  0  0  0
  2 13  1  0  0  0  0
  3  1  1  0  0  0  0
  3 16  1  0  0  0  0
  5 13  1  0  0  0  0
  6 14  1  0  0  0  0
  7 15  2  0  0  0  0
  8  7  1  0  0  0  0
  8  3  1  0  0  0  0
  9  6  1  0  0  0  0
  9 12  2  0  0  0  0
 11 20  1  0  0  0  0
 11  4  1  0  0  0  0
 12  7  1  0  0  0  0
 13  4  1  6  0  0  0
 14  8  2  0  0  0  0
 15 11  2  0  0  0  0
 16 10  1  6  0  0  0
 16  2  1  0  0  0  0
 18 21  2  0  0  0  0
 19 21  1  0  0  0  0
 20 18  1  0  0  0  0
 22 19  1  0  0  0  0
 23 22  1  0  0  0  0
 23 20  2  0  0  0  0
 24 26  1  0  0  0  0
 24 22  1  0  0  0  0
 25 26  1  0  0  0  0
M  END
>  <MODEL>
7

>  <REMARK>
 VINA RESULT:      -6.9      2.464      4.708
  Name = 
  3 active torsions:
  status: ('A' for Active; 'I' for Inactive)
    1  A    between atoms: C_9  and  C_14
    2  A    between atoms: C_19  and  C_22
    3  A    between atoms: C_22  and  N_23
                            x       y       z     vdW  Elec       q    Type
                         _______ _______ _______ _____ _____    ______ ____

>  <TORSDO>
F 3

$$$$
=
 OpenBabel11042418523D

 26 31  0  0  1  0  0  0  0  0999 V2000
  185.7430  178.7910  145.1590 C   0  0  1  0  0  3  0  0  0  0  0  0
  185.4270  178.0010  142.9100 C   0  0  2  0  0  0  0  0  0  0  0  0
  186.8470  177.8180  145.1350 N   0  0  0  0  0  0  0  0  0  0  0  0
  187.9440  177.7110  141.6740 C   0  0  0  0  0  2  0  0  0  0  0  0
  186.3770  179.0410  142.7050 O   0  0  0  0  0  0  0  0  0  0  0  0
  189.9610  177.3460  147.2660 C   0  0  0  0  0  2  0  0  0  0  0  0
  188.9580  176.4730  144.7470 C   0  0  0  0  0  0  0  0  0  0  0  0
  188.1370  177.3740  145.5740 C   0  0  0  0  0  0  0  0  0  0  0  0
  190.5280  176.2030  146.5340 N   0  0  0  0  0  0  0  0  0  0  0  0
  185.8100  176.6400  143.3930 C   0  0  0  0  0  2  0  0  0  0  0  0
  188.3780  176.3830  142.2130 C   0  0  0  0  0  0  0  0  0  0  0  0
  190.1190  175.8240  145.3600 C   0  0  0  0  0  3  0  0  0  0  0  0
  186.4350  178.0610  141.7360 C   0  0  2  0  0  3  0  0  0  0  0  0
  188.5920  177.7480  146.7710 C   0  0  0  0  0  3  0  0  0  0  0  0
  188.7220  176.3660  143.4740 C   0  0  0  0  0  0  0  0  0  0  0  0
  185.4970  177.6030  144.4700 C   0  0  1  0  0  0  0  0  0  0  0  0
  185.1210  178.7510  146.4050 O   0  0  0  0  0  1  0  0  0  0  0  0
  188.0560  173.8460  142.0750 C   0  0  0  0  0  3  0  0  0  0  0  0
  188.3510  172.6660  139.9150 C   0  0  0  0  0  2  0  0  0  0  0  0
  188.2690  175.1460  141.4060 C   0  0  0  0  0  0  0  0  0  0  0  0
  188.0600  172.7010  141.3900 C   0  0  0  0  0  3  0  0  0  0  0  0
  188.1930  173.9830  139.2950 N   0  0  0  0  0  0  0  0  0  0  0  0
  188.3100  175.1870  140.0690 C   0  0  0  0  0  3  0  0  0  0  0  0
  188.1790  174.0710  137.8450 C   0  0  0  0  0  2  0  0  0  0  0  0
  189.9340  174.5020  136.1560 C   0  0  0  0  0  1  0  0  0  0  0  0
  189.5000  173.5870  137.2810 C   0  0  0  0  0  2  0  0  0  0  0  0
  1 17  1  1  0  0  0
  2 10  1  1  0  0  0
  2 16  1  0  0  0  0
  3  1  1  0  0  0  0
  3  8  1  0  0  0  0
  4 11  1  0  0  0  0
  5  2  1  0  0  0  0
  7 12  1  0  0  0  0
  7  8  1  0  0  0  0
  8 14  2  0  0  0  0
  9  6  1  0  0  0  0
 11 15  2  0  0  0  0
 12  9  2  0  0  0  0
 13  4  1  1  0  0  0
 13  5  1  0  0  0  0
 13  2  1  0  0  0  0
 14  6  1  0  0  0  0
 15  7  2  0  0  0  0
 16 10  1  1  0  0  0
 16  3  1  0  0  0  0
 16  1  1  0  0  0  0
 19 21  1  0  0  0  0
 20 18  1  0  0  0  0
 20 11  1  0  0  0  0
 21 18  2  0  0  0  0
 22 19  1  0  0  0  0
 22 23  1  0  0  0  0
 23 20  2  0  0  0  0
 24 22  1  0  0  0  0
 25 26  1  0  0  0  0
 26 24  1  0  0  0  0
M  END
>  <MODEL>
8

>  <REMARK>
 VINA RESULT:      -6.8      3.144      4.756
  Name = 
  3 active torsions:
  status: ('A' for Active; 'I' for Inactive)
    1  A    between atoms: C_9  and  C_14
    2  A    between atoms: C_19  and  C_22
    3  A    between atoms: C_22  and  N_23
                            x       y       z     vdW  Elec       q    Type
                         _______ _______ _______ _____ _____    ______ ____

>  <TORSDO>
F 3

$$$$
=
 OpenBabel11042418523D

 26 31  0  0  1  0  0  0  0  0999 V2000
  187.4410  177.1980  147.1240 C   0  0  1  0  0  3  0  0  0  0  0  0
  189.4990  175.9560  147.1550 C   0  0  2  0  0  0  0  0  0  0  0  0
  187.8270  177.4220  145.7210 N   0  0  0  0  0  0  0  0  0  0  0  0
  189.7100  174.4650  144.7710 C   0  0  0  0  0  2  0  0  0  0  0  0
  188.5830  174.9590  146.7140 O   0  0  0  0  0  0  0  0  0  0  0  0
  185.9120  178.5190  142.6250 C   0  0  0  0  0  2  0  0  0  0  0  0
  188.4040  177.2950  143.2580 C   0  0  0  0  0  0  0  0  0  0  0  0
  187.4880  177.6660  144.3500 C   0  0  0  0  0  0  0  0  0  0  0  0
  187.0220  178.4250  141.6650 N   0  0  0  0  0  0  0  0  0  0  0  0
  190.0730  176.9880  146.2410 C   0  0  0  0  0  2  0  0  0  0  0  0
  190.2100  175.5100  143.8220 C   0  0  0  0  0  0  0  0  0  0  0  0
  188.1460  177.8240  141.9170 C   0  0  0  0  0  3  0  0  0  0  0  0
  189.8750  174.7270  146.2910 C   0  0  2  0  0  3  0  0  0  0  0  0
  186.3400  178.2760  144.0530 C   0  0  0  0  0  3  0  0  0  0  0  0
  189.3400  176.4170  143.4660 C   0  0  0  0  0  0  0  0  0  0  0  0
  188.8030  177.3840  146.8870 C   0  0  1  0  0  0  0  0  0  0  0  0
  186.8890  178.3690  147.6410 O   0  0  0  0  0  1  0  0  0  0  0  0
  192.0490  175.3280  142.0500 C   0  0  0  0  0  3  0  0  0  0  0  0
  194.4360  175.4400  142.7100 C   0  0  0  0  0  2  0  0  0  0  0  0
  191.6400  175.5930  143.4440 C   0  0  0  0  0  0  0  0  0  0  0  0
  193.3350  175.2880  141.6970 C   0  0  0  0  0  3  0  0  0  0  0  0
  193.9530  176.0410  143.9550 N   0  0  0  0  0  0  0  0  0  0  0  0
  192.5720  175.9540  144.3350 C   0  0  0  0  0  3  0  0  0  0  0  0
  194.9290  176.4970  144.9300 C   0  0  0  0  0  2  0  0  0  0  0  0
  195.8910  174.4450  145.9220 C   0  0  0  0  0  1  0  0  0  0  0  0
  194.9200  175.5850  146.1420 C   0  0  0  0  0  2  0  0  0  0  0  0
  1 17  1  1  0  0  0
  2 10  1  6  0  0  0
  3 16  1  0  0  0  0
  3  1  1  0  0  0  0
  5  2  1  0  0  0  0
  6 14  1  0  0  0  0
  7 15  2  0  0  0  0
  7  8  1  0  0  0  0
  8  3  1  0  0  0  0
  9 12  2  0  0  0  0
  9  6  1  0  0  0  0
 11  4  1  0  0  0  0
 12  7  1  0  0  0  0
 13  4  1  6  0  0  0
 13  5  1  0  0  0  0
 13  2  1  0  0  0  0
 14  8  2  0  0  0  0
 15 11  2  0  0  0  0
 16 10  1  1  0  0  0
 16  1  1  0  0  0  0
 16  2  1  0  0  0  0
 18 20  1  0  0  0  0
 19 22  1  0  0  0  0
 20 11  1  0  0  0  0
 20 23  2  0  0  0  0
 21 18  2  0  0  0  0
 21 19  1  0  0  0  0
 22 23  1  0  0  0  0
 22 24  1  0  0  0  0
 24 26  1  0  0  0  0
 25 26  1  0  0  0  0
M  END
>  <MODEL>
9

>  <REMARK>
 VINA RESULT:      -6.8      2.304      4.139
  Name = 
  3 active torsions:
  status: ('A' for Active; 'I' for Inactive)
    1  A    between atoms: C_9  and  C_14
    2  A    between atoms: C_19  and  C_22
    3  A    between atoms: C_22  and  N_23
                            x       y       z     vdW  Elec       q    Type
                         _______ _______ _______ _____ _____    ______ ____

>  <TORSDO>
F 3

$$$$
