=
 OpenBabel11042415023D

 33 37  0  0  1  0  0  0  0  0999 V2000
  193.6950  176.4280  144.5500 C   0  0  2  0  0  3  0  0  0  0  0  0
  197.0810  175.6970  140.0240 C   0  0  0  0  0  3  0  0  0  0  0  0
  194.8770  175.6090  141.0460 C   0  0  0  0  0  0  0  0  0  0  0  0
  196.5400  175.2490  138.8130 C   0  0  0  0  0  0  0  0  0  0  0  0
  195.1630  174.9830  138.7270 C   0  0  0  0  0  3  0  0  0  0  0  0
  196.2610  175.8800  141.1390 C   0  0  0  0  0  0  0  0  0  0  0  0
  196.8020  176.3270  142.3470 C   0  0  0  0  0  3  0  0  0  0  0  0
  194.3340  175.1630  139.8390 C   0  0  0  0  0  3  0  0  0  0  0  0
  194.0550  175.7910  142.1620 C   0  0  0  0  0  3  0  0  0  0  0  0
  194.6000  176.2390  143.3710 C   0  0  0  0  0  0  0  0  0  0  0  0
  195.9750  176.5070  143.4590 C   0  0  0  0  0  3  0  0  0  0  0  0
  197.3890  175.0780  137.7170 O   0  0  0  0  0  0  0  0  0  0  0  0
  197.1710  175.7240  136.4690 C   0  0  0  0  0  1  0  0  0  0  0  0
  193.1520  174.2550  145.9390 C   0  0  0  0  0  2  0  0  0  0  0  0
  194.6160  175.9740  146.8480 O   0  0  0  0  0  1  0  0  0  0  0  0
  194.5410  174.0660  145.3310 C   0  0  0  0  0  2  0  0  0  0  0  0
  194.0450  175.4490  145.6890 C   0  0  0  0  0  0  0  0  0  0  0  0
  192.2580  176.4170  144.1190 C   0  0  0  0  0  3  0  0  0  0  0  0
  191.3350  177.0820  144.8040 C   0  0  0  0  0  3  0  0  0  0  0  0
  189.9500  177.0950  144.4330 N   0  0  0  0  0  2  0  0  0  0  0  0
  189.3260  174.9720  145.2180 O   0  0  0  0  0  0  0  0  0  0  0  0
  188.9930  176.0480  144.6560 C   0  0  0  0  0  0  0  0  0  0  0  0
  185.8140  177.7840  147.2830 C   0  0  0  0  0  3  0  0  0  0  0  0
  186.7600  178.2000  143.2260 C   0  0  0  0  0  0  0  0  0  0  0  0
  187.5060  177.0130  142.9870 N   0  0  0  0  0  0  0  0  0  0  0  0
  186.5570  176.8370  146.5570 C   0  0  0  0  0  3  0  0  0  0  0  0
  187.8420  176.4960  141.6710 C   0  0  0  0  0  1  0  0  0  0  0  0
  186.4880  179.0600  142.3480 O   0  0  0  0  0  0  0  0  0  0  0  0
  186.3530  178.2430  144.6070 C   0  0  0  0  0  0  0  0  0  0  0  0
  187.5710  176.2320  144.2270 C   0  0  2  0  0  3  0  0  0  0  0  0
  186.8210  177.0940  145.2100 C   0  0  0  0  0  0  0  0  0  0  0  0
  185.6120  179.1970  145.3000 C   0  0  0  0  0  3  0  0  0  0  0  0
  185.3460  178.9580  146.6590 C   0  0  0  0  0  3  0  0  0  0  0  0
  1 18  1  6  0  0  0
  1 17  1  0  0  0  0
  2  6  1  0  0  0  0
  3  6  2  0  0  0  0
  3  9  1  0  0  0  0
  4  2  2  0  0  0  0
  5  4  1  0  0  0  0
  5  8  2  0  0  0  0
  6  7  1  0  0  0  0
  7 11  2  0  0  0  0
  8  3  1  0  0  0  0
  9 10  2  0  0  0  0
 10 11  1  0  0  0  0
 10  1  1  0  0  0  0
 12  4  1  0  0  0  0
 13 12  1  0  0  0  0
 16 17  1  0  0  0  0
 16 14  1  0  0  0  0
 17 14  1  0  0  0  0
 17 15  1  0  0  0  0
 18 19  2  0  0  0  0
 20 22  1  0  0  0  0
 20 19  1  0  0  0  0
 22 21  2  0  0  0  0
 24 29  1  0  0  0  0
 25 24  1  0  0  0  0
 25 30  1  0  0  0  0
 26 23  2  0  0  0  0
 27 25  1  0  0  0  0
 28 24  2  0  0  0  0
 29 31  2  0  0  0  0
 29 32  1  0  0  0  0
 30 22  1  1  0  0  0
 30 31  1  0  0  0  0
 31 26  1  0  0  0  0
 32 33  2  0  0  0  0
 33 23  1  0  0  0  0
M  END
>  <MODEL>
1

>  <REMARK>
 VINA RESULT:      -7.8      0.000      0.000
  Name = 
  6 active torsions:
  status: ('A' for Active; 'I' for Inactive)
    1  A    between atoms: C_1  and  C_11
    2  A    between atoms: C_6  and  O_7
    3  A    between atoms: C_11  and  C_25
    4  A    between atoms: C_11  and  C_33
    5  A    between atoms: N_12  and  C_16
    6  A    between atoms: C_23  and  C_28
                            x       y       z     vdW  Elec       q    Type
                         _______ _______ _______ _____ _____    ______ ____

>  <TORSDO>
F 6

$$$$
=
 OpenBabel11042415023D

 33 37  0  0  1  0  0  0  0  0999 V2000
  192.8870  176.5140  144.6560 C   0  0  2  0  0  3  0  0  0  0  0  0
  194.8580  174.7300  139.6130 C   0  0  0  0  0  3  0  0  0  0  0  0
  195.1950  175.9060  141.7150 C   0  0  0  0  0  0  0  0  0  0  0  0
  196.1710  175.0290  139.2330 C   0  0  0  0  0  0  0  0  0  0  0  0
  196.9930  175.7670  140.1010 C   0  0  0  0  0  3  0  0  0  0  0  0
  194.3640  175.1620  140.8470 C   0  0  0  0  0  0  0  0  0  0  0  0
  193.0540  174.8640  141.2250 C   0  0  0  0  0  3  0  0  0  0  0  0
  196.5060  176.2040  141.3380 C   0  0  0  0  0  3  0  0  0  0  0  0
  194.7020  176.3400  142.9490 C   0  0  0  0  0  3  0  0  0  0  0  0
  193.3880  176.0390  143.3260 C   0  0  0  0  0  0  0  0  0  0  0  0
  192.5670  175.3000  142.4610 C   0  0  0  0  0  3  0  0  0  0  0  0
  196.6330  174.5800  137.9930 O   0  0  0  0  0  0  0  0  0  0  0  0
  196.9610  175.4650  136.9300 C   0  0  0  0  0  1  0  0  0  0  0  0
  192.6550  174.9650  146.7750 C   0  0  0  0  0  2  0  0  0  0  0  0
  194.6770  176.2680  146.4070 O   0  0  0  0  0  1  0  0  0  0  0  0
  193.5240  174.2180  145.7640 C   0  0  0  0  0  2  0  0  0  0  0  0
  193.5360  175.7290  145.8140 C   0  0  0  0  0  0  0  0  0  0  0  0
  191.3870  176.5480  144.6710 C   0  0  0  0  0  3  0  0  0  0  0  0
  190.7280  177.6840  144.4730 C   0  0  0  0  0  3  0  0  0  0  0  0
  189.2970  177.7650  144.4850 N   0  0  0  0  0  2  0  0  0  0  0  0
  188.8010  175.9030  143.1430 O   0  0  0  0  0  0  0  0  0  0  0  0
  188.3820  176.8730  143.8280 C   0  0  0  0  0  0  0  0  0  0  0  0
  186.2410  176.9980  147.7550 C   0  0  0  0  0  3  0  0  0  0  0  0
  185.9140  179.2010  144.2110 C   0  0  0  0  0  0  0  0  0  0  0  0
  186.4990  178.3100  143.2690 N   0  0  0  0  0  0  0  0  0  0  0  0
  186.6840  176.5300  146.5050 C   0  0  0  0  0  3  0  0  0  0  0  0
  186.3920  178.4420  141.8260 C   0  0  0  0  0  1  0  0  0  0  0  0
  185.4230  180.3240  143.9200 O   0  0  0  0  0  0  0  0  0  0  0  0
  185.9520  178.6090  145.5230 C   0  0  0  0  0  0  0  0  0  0  0  0
  186.9070  177.0840  143.9630 C   0  0  2  0  0  3  0  0  0  0  0  0
  186.5320  177.3640  145.3960 C   0  0  0  0  0  0  0  0  0  0  0  0
  185.5010  179.0960  146.7470 C   0  0  0  0  0  3  0  0  0  0  0  0
  185.6550  178.2740  147.8750 C   0  0  0  0  0  3  0  0  0  0  0  0
  1 18  1  6  0  0  0
  1 17  1  0  0  0  0
  2  6  1  0  0  0  0
  3  9  1  0  0  0  0
  4  2  2  0  0  0  0
  4  5  1  0  0  0  0
  5  8  2  0  0  0  0
  6  7  1  0  0  0  0
  6  3  2  0  0  0  0
  7 11  2  0  0  0  0
  8  3  1  0  0  0  0
  9 10  2  0  0  0  0
 10  1  1  0  0  0  0
 11 10  1  0  0  0  0
 12  4  1  0  0  0  0
 13 12  1  0  0  0  0
 16 17  1  0  0  0  0
 16 14  1  0  0  0  0
 17 15  1  0  0  0  0
 17 14  1  0  0  0  0
 19 20  1  0  0  0  0
 19 18  2  0  0  0  0
 21 22  2  0  0  0  0
 22 20  1  0  0  0  0
 23 33  1  0  0  0  0
 24 29  1  0  0  0  0
 25 30  1  0  0  0  0
 25 24  1  0  0  0  0
 26 23  2  0  0  0  0
 27 25  1  0  0  0  0
 28 24  2  0  0  0  0
 29 32  1  0  0  0  0
 30 22  1  1  0  0  0
 30 31  1  0  0  0  0
 31 29  2  0  0  0  0
 31 26  1  0  0  0  0
 32 33  2  0  0  0  0
M  END
>  <MODEL>
2

>  <REMARK>
 VINA RESULT:      -7.8      1.085      1.733
  Name = 
  6 active torsions:
  status: ('A' for Active; 'I' for Inactive)
    1  A    between atoms: C_1  and  C_11
    2  A    between atoms: C_6  and  O_7
    3  A    between atoms: C_11  and  C_25
    4  A    between atoms: C_11  and  C_33
    5  A    between atoms: N_12  and  C_16
    6  A    between atoms: C_23  and  C_28
                            x       y       z     vdW  Elec       q    Type
                         _______ _______ _______ _____ _____    ______ ____

>  <TORSDO>
F 6

$$$$
=
 OpenBabel11042415023D

 33 37  0  0  1  0  0  0  0  0999 V2000
  191.9710  174.8650  145.0660 C   0  0  2  0  0  3  0  0  0  0  0  0
  186.8160  176.5970  146.7730 C   0  0  0  0  0  3  0  0  0  0  0  0
  188.6830  176.7390  145.2220 C   0  0  0  0  0  0  0  0  0  0  0  0
  186.1430  177.5940  146.0580 C   0  0  0  0  0  0  0  0  0  0  0  0
  186.7480  178.1600  144.9220 C   0  0  0  0  0  3  0  0  0  0  0  0
  188.0800  176.1650  146.3640 C   0  0  0  0  0  0  0  0  0  0  0  0
  188.7500  175.1700  147.0790 C   0  0  0  0  0  3  0  0  0  0  0  0
  188.0130  177.7330  144.5060 C   0  0  0  0  0  3  0  0  0  0  0  0
  189.9480  176.3080  144.8110 C   0  0  0  0  0  3  0  0  0  0  0  0
  190.6170  175.3110  145.5300 C   0  0  0  0  0  0  0  0  0  0  0  0
  190.0140  174.7430  146.6630 C   0  0  0  0  0  3  0  0  0  0  0  0
  184.8800  178.0020  146.4940 O   0  0  0  0  0  0  0  0  0  0  0  0
  184.0220  178.8180  145.7070 C   0  0  0  0  0  1  0  0  0  0  0  0
  193.1470  176.5100  146.7560 C   0  0  0  0  0  2  0  0  0  0  0  0
  193.3590  176.8390  144.3530 O   0  0  0  0  0  1  0  0  0  0  0  0
  194.2200  175.5530  146.2380 C   0  0  0  0  0  2  0  0  0  0  0  0
  193.0460  175.9310  145.3630 C   0  0  0  0  0  0  0  0  0  0  0  0
  191.9120  174.3990  143.6410 C   0  0  0  0  0  2  0  0  0  0  0  0
  191.4820  173.1790  143.3390 C   0  0  0  0  0  3  0  0  0  0  0  0
  191.4140  172.6900  141.9940 N   0  0  0  0  0  0  0  0  0  0  0  0
  190.1520  170.7430  142.3610 O   0  0  0  0  0  0  0  0  0  0  0  0
  190.7490  171.4960  141.5480 C   0  0  0  0  0  0  0  0  0  0  0  0
  188.1760  173.5130  138.4940 C   0  0  0  0  0  3  0  0  0  0  0  0
  192.1410  172.1720  138.5040 C   0  0  0  0  0  0  0  0  0  0  0  0
  192.1110  171.2090  139.5510 N   0  0  0  0  0  0  0  0  0  0  0  0
  188.6600  172.5270  139.3700 C   0  0  0  0  0  3  0  0  0  0  0  0
  193.1490  170.2230  139.8010 C   0  0  0  0  0  1  0  0  0  0  0  0
  193.1550  172.4340  137.8060 O   0  0  0  0  0  0  0  0  0  0  0  0
  190.8380  172.7670  138.3590 C   0  0  0  0  0  0  0  0  0  0  0  0
  190.7500  171.1390  140.0950 C   0  0  2  0  0  3  0  0  0  0  0  0
  190.0080  172.1720  139.2870 C   0  0  0  0  0  0  0  0  0  0  0  0
  190.3850  173.7450  137.4770 C   0  0  0  0  0  3  0  0  0  0  0  0
  189.0330  174.1200  137.5540 C   0  0  0  0  0  3  0  0  0  0  0  0
  1 18  1  6  0  0  0
  1 17  1  0  0  0  0
  1 10  1  0  0  0  0
  3  6  1  0  0  0  0
  4 12  1  0  0  0  0
  4  2  2  0  0  0  0
  5  4  1  0  0  0  0
  6  2  1  0  0  0  0
  6  7  2  0  0  0  0
  8  5  2  0  0  0  0
  8  3  1  0  0  0  0
  9  3  2  0  0  0  0
  9 10  1  0  0  0  0
 10 11  2  0  0  0  0
 11  7  1  0  0  0  0
 13 12  1  0  0  0  0
 15 17  1  0  0  0  0
 16 14  1  0  0  0  0
 17 16  1  0  0  0  0
 17 14  1  0  0  0  0
 19 18  1  0  0  0  0
 20 19  2  0  0  0  0
 22 20  1  0  0  0  0
 22 21  2  0  0  0  0
 23 26  1  0  0  0  0
 24 25  1  0  0  0  0
 25 27  1  0  0  0  0
 25 30  1  0  0  0  0
 28 24  2  0  0  0  0
 29 24  1  0  0  0  0
 29 31  1  0  0  0  0
 30 22  1  1  0  0  0
 31 26  2  0  0  0  0
 31 30  1  0  0  0  0
 32 33  1  0  0  0  0
 32 29  2  0  0  0  0
 33 23  2  0  0  0  0
M  END
>  <MODEL>
3

>  <REMARK>
 VINA RESULT:      -7.5      3.727      8.597
  Name = 
  6 active torsions:
  status: ('A' for Active; 'I' for Inactive)
    1  A    between atoms: C_1  and  C_11
    2  A    between atoms: C_6  and  O_7
    3  A    between atoms: C_11  and  C_25
    4  A    between atoms: C_11  and  C_33
    5  A    between atoms: N_12  and  C_16
    6  A    between atoms: C_23  and  C_28
                            x       y       z     vdW  Elec       q    Type
                         _______ _______ _______ _____ _____    ______ ____

>  <TORSDO>
F 6

$$$$
=
 OpenBabel11042415023D

 33 37  0  0  1  0  0  0  0  0999 V2000
  190.5510  175.2970  145.4400 C   0  0  2  0  0  3  0  0  0  0  0  0
  187.2640  178.2050  141.8020 C   0  0  0  0  0  3  0  0  0  0  0  0
  187.4970  176.6140  143.6270 C   0  0  0  0  0  0  0  0  0  0  0  0
  185.8740  178.0450  141.8380 C   0  0  0  0  0  0  0  0  0  0  0  0
  185.3020  177.1670  142.7740 C   0  0  0  0  0  3  0  0  0  0  0  0
  188.0790  177.4970  142.6890 C   0  0  0  0  0  0  0  0  0  0  0  0
  189.4660  177.6570  142.6520 C   0  0  0  0  0  3  0  0  0  0  0  0
  186.1110  176.4550  143.6660 C   0  0  0  0  0  3  0  0  0  0  0  0
  188.3120  175.9050  144.5150 C   0  0  0  0  0  3  0  0  0  0  0  0
  189.7010  176.0670  144.4750 C   0  0  0  0  0  0  0  0  0  0  0  0
  190.2750  176.9450  143.5420 C   0  0  0  0  0  3  0  0  0  0  0  0
  185.0880  178.7690  140.9380 O   0  0  0  0  0  0  0  0  0  0  0  0
  183.8200  178.3130  140.4870 C   0  0  0  0  0  1  0  0  0  0  0  0
  191.3550  176.3400  147.7230 C   0  0  0  0  0  2  0  0  0  0  0  0
  189.3910  174.9050  147.6390 O   0  0  0  0  0  1  0  0  0  0  0  0
  190.1750  177.1790  147.2350 C   0  0  0  0  0  2  0  0  0  0  0  0
  190.2580  175.7070  146.8980 C   0  0  0  0  0  0  0  0  0  0  0  0
  191.9950  175.3600  145.0370 C   0  0  0  0  0  3  0  0  0  0  0  0
  192.7630  174.2770  145.0780 C   0  0  0  0  0  3  0  0  0  0  0  0
  194.1480  174.2920  144.7080 N   0  0  0  0  0  2  0  0  0  0  0  0
  195.0000  175.5710  146.4830 O   0  0  0  0  0  0  0  0  0  0  0  0
  195.2190  174.9300  145.4220 C   0  0  0  0  0  0  0  0  0  0  0  0
  197.5460  171.1110  145.3110 C   0  0  0  0  0  3  0  0  0  0  0  0
  197.1580  174.3390  142.6750 C   0  0  0  0  0  0  0  0  0  0  0  0
  196.7130  175.3680  143.5510 N   0  0  0  0  0  0  0  0  0  0  0  0
  197.1290  172.3930  145.7080 C   0  0  0  0  0  3  0  0  0  0  0  0
  196.6910  176.7830  143.2240 C   0  0  0  0  0  1  0  0  0  0  0  0
  197.3800  174.4970  141.4450 O   0  0  0  0  0  0  0  0  0  0  0  0
  197.3360  173.1180  143.4160 C   0  0  0  0  0  0  0  0  0  0  0  0
  196.6210  174.8280  144.9120 C   0  0  2  0  0  3  0  0  0  0  0  0
  197.0250  173.3860  144.7330 C   0  0  0  0  0  0  0  0  0  0  0  0
  197.7550  171.8580  142.9940 C   0  0  0  0  0  3  0  0  0  0  0  0
  197.8560  170.8450  143.9620 C   0  0  0  0  0  3  0  0  0  0  0  0
  1 18  1  6  0  0  0
  1 17  1  0  0  0  0
  2  4  2  0  0  0  0
  2  6  1  0  0  0  0
  3  8  1  0  0  0  0
  3  9  1  0  0  0  0
  4  5  1  0  0  0  0
  5  8  2  0  0  0  0
  6  3  2  0  0  0  0
  7  6  1  0  0  0  0
  7 11  2  0  0  0  0
 10  9  2  0  0  0  0
 10  1  1  0  0  0  0
 11 10  1  0  0  0  0
 12  4  1  0  0  0  0
 13 12  1  0  0  0  0
 16 14  1  0  0  0  0
 17 16  1  0  0  0  0
 17 15  1  0  0  0  0
 17 14  1  0  0  0  0
 18 19  2  0  0  0  0
 20 19  1  0  0  0  0
 20 22  1  0  0  0  0
 22 21  2  0  0  0  0
 23 26  1  0  0  0  0
 24 29  1  0  0  0  0
 24 25  1  0  0  0  0
 25 30  1  0  0  0  0
 27 25  1  0  0  0  0
 28 24  2  0  0  0  0
 29 31  1  0  0  0  0
 30 22  1  6  0  0  0
 31 30  1  0  0  0  0
 31 26  2  0  0  0  0
 32 29  2  0  0  0  0
 32 33  1  0  0  0  0
 33 23  2  0  0  0  0
M  END
>  <MODEL>
4

>  <REMARK>
 VINA RESULT:      -7.5      3.074      9.295
  Name = 
  6 active torsions:
  status: ('A' for Active; 'I' for Inactive)
    1  A    between atoms: C_1  and  C_11
    2  A    between atoms: C_6  and  O_7
    3  A    between atoms: C_11  and  C_25
    4  A    between atoms: C_11  and  C_33
    5  A    between atoms: N_12  and  C_16
    6  A    between atoms: C_23  and  C_28
                            x       y       z     vdW  Elec       q    Type
                         _______ _______ _______ _____ _____    ______ ____

>  <TORSDO>
F 6

$$$$
=
 OpenBabel11042415023D

 33 37  0  0  1  0  0  0  0  0999 V2000
  189.6840  174.5090  141.6590 C   0  0  2  0  0  3  0  0  0  0  0  0
  186.0890  177.5450  144.8750 C   0  0  0  0  0  3  0  0  0  0  0  0
  188.0460  176.1160  144.6720 C   0  0  0  0  0  0  0  0  0  0  0  0
  186.2790  177.6110  146.2600 C   0  0  0  0  0  0  0  0  0  0  0  0
  187.3580  176.9270  146.8450 C   0  0  0  0  0  3  0  0  0  0  0  0
  186.9640  176.8030  144.0780 C   0  0  0  0  0  0  0  0  0  0  0  0
  186.7730  176.7370  142.6960 C   0  0  0  0  0  3  0  0  0  0  0  0
  188.2380  176.1820  146.0530 C   0  0  0  0  0  3  0  0  0  0  0  0
  188.9220  175.3740  143.8740 C   0  0  0  0  0  3  0  0  0  0  0  0
  188.7280  175.3090  142.4900 C   0  0  0  0  0  0  0  0  0  0  0  0
  187.6520  175.9940  141.9040 C   0  0  0  0  0  3  0  0  0  0  0  0
  185.3860  178.3620  147.0290 O   0  0  0  0  0  0  0  0  0  0  0  0
  184.0660  178.6660  146.5940 C   0  0  0  0  0  1  0  0  0  0  0  0
  188.5970  173.2250  139.6300 C   0  0  0  0  0  2  0  0  0  0  0  0
  188.1550  172.5280  141.9190 O   0  0  0  0  0  1  0  0  0  0  0  0
  189.7830  172.3890  140.1090 C   0  0  0  0  0  2  0  0  0  0  0  0
  189.0090  173.2470  141.0840 C   0  0  0  0  0  0  0  0  0  0  0  0
  190.9590  174.2630  142.4120 C   0  0  0  0  0  3  0  0  0  0  0  0
  192.0280  175.0240  142.2090 C   0  0  0  0  0  3  0  0  0  0  0  0
  193.2680  174.8230  142.9010 N   0  0  0  0  0  2  0  0  0  0  0  0
  193.0040  176.4020  144.6190 O   0  0  0  0  0  0  0  0  0  0  0  0
  193.7120  175.5100  144.0820 C   0  0  0  0  0  0  0  0  0  0  0  0
  194.6730  171.4760  145.7630 C   0  0  0  0  0  3  0  0  0  0  0  0
  196.8290  174.2520  143.4890 C   0  0  0  0  0  0  0  0  0  0  0  0
  196.1250  175.4550  143.7690 N   0  0  0  0  0  0  0  0  0  0  0  0
  194.3630  172.8470  145.7100 C   0  0  0  0  0  3  0  0  0  0  0  0
  196.6130  176.7900  143.4690 C   0  0  0  0  0  1  0  0  0  0  0  0
  197.8520  174.1780  142.7570 O   0  0  0  0  0  0  0  0  0  0  0  0
  196.2090  173.1560  144.1880 C   0  0  0  0  0  0  0  0  0  0  0  0
  195.0290  175.1600  144.6990 C   0  0  2  0  0  3  0  0  0  0  0  0
  195.1490  173.6720  144.9040 C   0  0  0  0  0  0  0  0  0  0  0  0
  196.5410  171.8040  144.2230 C   0  0  0  0  0  3  0  0  0  0  0  0
  195.7550  170.9580  145.0230 C   0  0  0  0  0  3  0  0  0  0  0  0
  1 18  1  1  0  0  0
  1 10  1  0  0  0  0
  2  4  1  0  0  0  0
  3  8  2  0  0  0  0
  4  5  2  0  0  0  0
  4 12  1  0  0  0  0
  6  3  1  0  0  0  0
  6  2  2  0  0  0  0
  7  6  1  0  0  0  0
  8  5  1  0  0  0  0
  9  3  1  0  0  0  0
 10  9  2  0  0  0  0
 11 10  1  0  0  0  0
 11  7  2  0  0  0  0
 13 12  1  0  0  0  0
 14 16  1  0  0  0  0
 14 17  1  0  0  0  0
 16 17  1  0  0  0  0
 17  1  1  0  0  0  0
 17 15  1  0  0  0  0
 19 18  2  0  0  0  0
 19 20  1  0  0  0  0
 20 22  1  0  0  0  0
 22 21  2  0  0  0  0
 24 25  1  0  0  0  0
 24 29  1  0  0  0  0
 25 30  1  0  0  0  0
 26 23  1  0  0  0  0
 27 25  1  0  0  0  0
 28 24  2  0  0  0  0
 29 32  2  0  0  0  0
 29 31  1  0  0  0  0
 30 22  1  6  0  0  0
 30 31  1  0  0  0  0
 31 26  2  0  0  0  0
 32 33  1  0  0  0  0
 33 23  2  0  0  0  0
M  END
>  <MODEL>
5

>  <REMARK>
 VINA RESULT:      -7.1      3.040      9.579
  Name = 
  6 active torsions:
  status: ('A' for Active; 'I' for Inactive)
    1  A    between atoms: C_1  and  C_11
    2  A    between atoms: C_6  and  O_7
    3  A    between atoms: C_11  and  C_25
    4  A    between atoms: C_11  and  C_33
    5  A    between atoms: N_12  and  C_16
    6  A    between atoms: C_23  and  C_28
                            x       y       z     vdW  Elec       q    Type
                         _______ _______ _______ _____ _____    ______ ____

>  <TORSDO>
F 6

$$$$
=
 OpenBabel11042415023D

 33 37  0  0  1  0  0  0  0  0999 V2000
  192.7150  175.0450  144.3040 C   0  0  2  0  0  3  0  0  0  0  0  0
  195.0450  169.9820  145.5020 C   0  0  0  0  0  3  0  0  0  0  0  0
  195.2610  172.3840  145.1890 C   0  0  0  0  0  0  0  0  0  0  0  0
  196.4130  169.8930  145.7810 C   0  0  0  0  0  0  0  0  0  0  0  0
  197.2010  171.0570  145.7630 C   0  0  0  0  0  3  0  0  0  0  0  0
  194.4630  171.2180  145.2070 C   0  0  0  0  0  0  0  0  0  0  0  0
  193.0980  171.3050  144.9280 C   0  0  0  0  0  3  0  0  0  0  0  0
  196.6270  172.2980  145.4680 C   0  0  0  0  0  3  0  0  0  0  0  0
  194.6810  173.6210  144.8930 C   0  0  0  0  0  3  0  0  0  0  0  0
  193.3120  173.7060  144.6150 C   0  0  0  0  0  0  0  0  0  0  0  0
  192.5230  172.5450  144.6340 C   0  0  0  0  0  3  0  0  0  0  0  0
  196.9620  168.6420  146.0730 O   0  0  0  0  0  0  0  0  0  0  0  0
  197.4680  168.3070  147.3580 C   0  0  0  0  0  1  0  0  0  0  0  0
  192.5390  176.1620  146.6840 C   0  0  0  0  0  2  0  0  0  0  0  0
  193.5360  177.3660  144.8190 O   0  0  0  0  0  1  0  0  0  0  0  0
  193.9780  175.6760  146.5200 C   0  0  0  0  0  2  0  0  0  0  0  0
  193.1770  176.1140  145.3140 C   0  0  0  0  0  0  0  0  0  0  0  0
  191.2290  174.9310  144.1300 C   0  0  0  0  0  3  0  0  0  0  0  0
  190.5660  175.7810  143.3550 C   0  0  0  0  0  3  0  0  0  0  0  0
  189.1460  175.7140  143.1640 N   0  0  0  0  0  2  0  0  0  0  0  0
  188.5270  177.7180  144.2210 O   0  0  0  0  0  0  0  0  0  0  0  0
  188.1770  176.6830  143.5950 C   0  0  0  0  0  0  0  0  0  0  0  0
  184.8860  177.5050  146.5130 C   0  0  0  0  0  3  0  0  0  0  0  0
  185.3320  178.1450  142.4000 C   0  0  0  0  0  0  0  0  0  0  0  0
  186.3470  177.2030  142.0760 N   0  0  0  0  0  0  0  0  0  0  0  0
  185.7920  176.7910  145.7090 C   0  0  0  0  0  3  0  0  0  0  0  0
  186.6960  176.7910  140.7260 C   0  0  0  0  0  1  0  0  0  0  0  0
  184.7630  178.8960  141.5640 O   0  0  0  0  0  0  0  0  0  0  0  0
  185.0480  178.0810  143.8100 C   0  0  0  0  0  0  0  0  0  0  0  0
  186.7270  176.4740  143.2910 C   0  0  2  0  0  3  0  0  0  0  0  0
  185.8590  177.1040  144.3500 C   0  0  0  0  0  0  0  0  0  0  0  0
  184.1400  178.8020  144.5820 C   0  0  0  0  0  3  0  0  0  0  0  0
  184.0660  178.5050  145.9530 C   0  0  0  0  0  3  0  0  0  0  0  0
  1 18  1  1  0  0  0
  1 10  1  0  0  0  0
  1 17  1  0  0  0  0
  2  4  1  0  0  0  0
  3  6  1  0  0  0  0
  3  8  2  0  0  0  0
  4 12  1  0  0  0  0
  5  4  2  0  0  0  0
  6  2  2  0  0  0  0
  7  6  1  0  0  0  0
  8  5  1  0  0  0  0
  9  3  1  0  0  0  0
 10 11  1  0  0  0  0
 10  9  2  0  0  0  0
 11  7  2  0  0  0  0
 12 13  1  0  0  0  0
 15 17  1  0  0  0  0
 16 14  1  0  0  0  0
 17 16  1  0  0  0  0
 17 14  1  0  0  0  0
 19 18  2  0  0  0  0
 20 19  1  0  0  0  0
 20 22  1  0  0  0  0
 22 21  2  0  0  0  0
 24 29  1  0  0  0  0
 25 24  1  0  0  0  0
 25 30  1  0  0  0  0
 26 23  2  0  0  0  0
 27 25  1  0  0  0  0
 28 24  2  0  0  0  0
 29 31  2  0  0  0  0
 29 32  1  0  0  0  0
 30 22  1  1  0  0  0
 30 31  1  0  0  0  0
 31 26  1  0  0  0  0
 32 33  2  0  0  0  0
 33 23  1  0  0  0  0
M  END
>  <MODEL>
6

>  <REMARK>
 VINA RESULT:      -7.1      3.587      4.854
  Name = 
  6 active torsions:
  status: ('A' for Active; 'I' for Inactive)
    1  A    between atoms: C_1  and  C_11
    2  A    between atoms: C_6  and  O_7
    3  A    between atoms: C_11  and  C_25
    4  A    between atoms: C_11  and  C_33
    5  A    between atoms: N_12  and  C_16
    6  A    between atoms: C_23  and  C_28
                            x       y       z     vdW  Elec       q    Type
                         _______ _______ _______ _____ _____    ______ ____

>  <TORSDO>
F 6

$$$$
=
 OpenBabel11042415023D

 33 37  0  0  1  0  0  0  0  0999 V2000
  179.0650  178.8300  140.1830 C   0  0  2  0  0  3  0  0  0  0  0  0
  178.5260  174.0110  137.1860 C   0  0  0  0  0  3  0  0  0  0  0  0
  179.7440  176.0520  137.6990 C   0  0  0  0  0  0  0  0  0  0  0  0
  179.4840  173.6790  136.2210 C   0  0  0  0  0  0  0  0  0  0  0  0
  180.5720  174.5410  136.0010 C   0  0  0  0  0  3  0  0  0  0  0  0
  178.6480  175.1890  137.9260 C   0  0  0  0  0  0  0  0  0  0  0  0
  177.6910  175.5190  138.8890 C   0  0  0  0  0  3  0  0  0  0  0  0
  180.7010  175.7230  136.7370 C   0  0  0  0  0  3  0  0  0  0  0  0
  179.8670  177.2320  138.4380 C   0  0  0  0  0  3  0  0  0  0  0  0
  178.9070  177.5600  139.4020 C   0  0  0  0  0  0  0  0  0  0  0  0
  177.8200  176.7000  139.6250 C   0  0  0  0  0  3  0  0  0  0  0  0
  179.3320  172.4920  135.4990 O   0  0  0  0  0  0  0  0  0  0  0  0
  179.1310  171.2330  136.1270 C   0  0  0  0  0  1  0  0  0  0  0  0
  177.8740  181.1810  140.2150 C   0  0  0  0  0  2  0  0  0  0  0  0
  177.8060  179.7830  138.2230 O   0  0  0  0  0  1  0  0  0  0  0  0
  179.1960  181.3550  139.4670 C   0  0  0  0  0  2  0  0  0  0  0  0
  178.4630  180.0320  139.4270 C   0  0  0  0  0  0  0  0  0  0  0  0
  180.4880  179.0020  140.6260 C   0  0  0  0  0  3  0  0  0  0  0  0
  180.9660  178.3260  141.6640 C   0  0  0  0  0  3  0  0  0  0  0  0
  182.3160  178.4630  142.1250 N   0  0  0  0  0  2  0  0  0  0  0  0
  183.4520  177.9430  140.1360 O   0  0  0  0  0  0  0  0  0  0  0  0
  183.5110  178.2740  141.3490 C   0  0  0  0  0  0  0  0  0  0  0  0
  184.1500  178.6210  145.7640 C   0  0  0  0  0  3  0  0  0  0  0  0
  186.2470  176.7240  142.6780 C   0  0  0  0  0  0  0  0  0  0  0  0
  185.7920  177.4460  141.5410 N   0  0  0  0  0  0  0  0  0  0  0  0
  184.0430  178.9880  144.4110 C   0  0  0  0  0  3  0  0  0  0  0  0
  186.4110  177.4000  140.2270 C   0  0  0  0  0  1  0  0  0  0  0  0
  187.0980  175.7960  142.6390 O   0  0  0  0  0  0  0  0  0  0  0  0
  185.6080  177.2360  143.8620 C   0  0  0  0  0  0  0  0  0  0  0  0
  184.8520  178.4830  141.9800 C   0  0  2  0  0  3  0  0  0  0  0  0
  184.7840  178.2700  143.4710 C   0  0  0  0  0  0  0  0  0  0  0  0
  185.7360  176.8520  145.1950 C   0  0  0  0  0  3  0  0  0  0  0  0
  184.9910  177.5590  146.1540 C   0  0  0  0  0  3  0  0  0  0  0  0
  1 18  1  6  0  0  0
  2  6  1  0  0  0  0
  3  6  2  0  0  0  0
  3  9  1  0  0  0  0
  4  2  2  0  0  0  0
  5  4  1  0  0  0  0
  5  8  2  0  0  0  0
  6  7  1  0  0  0  0
  7 11  2  0  0  0  0
  8  3  1  0  0  0  0
  9 10  2  0  0  0  0
 10 11  1  0  0  0  0
 10  1  1  0  0  0  0
 12 13  1  0  0  0  0
 12  4  1  0  0  0  0
 15 17  1  0  0  0  0
 16 14  1  0  0  0  0
 17 16  1  0  0  0  0
 17  1  1  0  0  0  0
 17 14  1  0  0  0  0
 18 19  2  0  0  0  0
 19 20  1  0  0  0  0
 21 22  2  0  0  0  0
 22 20  1  0  0  0  0
 23 33  1  0  0  0  0
 24 29  1  0  0  0  0
 25 30  1  0  0  0  0
 25 24  1  0  0  0  0
 26 23  2  0  0  0  0
 27 25  1  0  0  0  0
 28 24  2  0  0  0  0
 29 32  1  0  0  0  0
 30 22  1  6  0  0  0
 30 31  1  0  0  0  0
 31 29  2  0  0  0  0
 31 26  1  0  0  0  0
 32 33  2  0  0  0  0
M  END
>  <MODEL>
7

>  <REMARK>
 VINA RESULT:      -7.0      7.380     13.036
  Name = 
  6 active torsions:
  status: ('A' for Active; 'I' for Inactive)
    1  A    between atoms: C_1  and  C_11
    2  A    between atoms: C_6  and  O_7
    3  A    between atoms: C_11  and  C_25
    4  A    between atoms: C_11  and  C_33
    5  A    between atoms: N_12  and  C_16
    6  A    between atoms: C_23  and  C_28
                            x       y       z     vdW  Elec       q    Type
                         _______ _______ _______ _____ _____    ______ ____

>  <TORSDO>
F 6

$$$$
=
 OpenBabel11042415023D

 33 37  0  0  1  0  0  0  0  0999 V2000
  190.1620  174.4670  141.7570 C   0  0  2  0  0  3  0  0  0  0  0  0
  187.1390  177.5140  145.5070 C   0  0  0  0  0  3  0  0  0  0  0  0
  187.7770  177.0240  143.2120 C   0  0  0  0  0  0  0  0  0  0  0  0
  186.2850  178.5270  145.0550 C   0  0  0  0  0  0  0  0  0  0  0  0
  186.1820  178.7830  143.6770 C   0  0  0  0  0  3  0  0  0  0  0  0
  187.8850  176.7620  144.5970 C   0  0  0  0  0  0  0  0  0  0  0  0
  188.7370  175.7510  145.0490 C   0  0  0  0  0  3  0  0  0  0  0  0
  186.9250  178.0340  142.7590 C   0  0  0  0  0  3  0  0  0  0  0  0
  188.5240  176.2720  142.3000 C   0  0  0  0  0  3  0  0  0  0  0  0
  189.3770  175.2600  142.7560 C   0  0  0  0  0  0  0  0  0  0  0  0
  189.4800  175.0020  144.1320 C   0  0  0  0  0  3  0  0  0  0  0  0
  185.5530  179.2600  145.9930 O   0  0  0  0  0  0  0  0  0  0  0  0
  184.5880  178.6640  146.8500 C   0  0  0  0  0  1  0  0  0  0  0  0
  188.0310  172.9200  141.8490 C   0  0  0  0  0  2  0  0  0  0  0  0
  190.2400  171.9680  141.4730 O   0  0  0  0  0  1  0  0  0  0  0  0
  188.3860  173.1110  140.3740 C   0  0  0  0  0  2  0  0  0  0  0  0
  189.4690  173.1290  141.4300 C   0  0  0  0  0  0  0  0  0  0  0  0
  191.5970  174.3550  142.1840 C   0  0  0  0  0  3  0  0  0  0  0  0
  192.5830  174.6680  141.3520 C   0  0  0  0  0  3  0  0  0  0  0  0
  193.9660  174.5710  141.7150 N   0  0  0  0  0  2  0  0  0  0  0  0
  194.6360  176.7740  141.2530 O   0  0  0  0  0  0  0  0  0  0  0  0
  194.9430  175.6230  141.6610 C   0  0  0  0  0  0  0  0  0  0  0  0
  196.0640  174.5480  145.8570 C   0  0  0  0  0  3  0  0  0  0  0  0
  197.3370  173.2280  142.0940 C   0  0  0  0  0  0  0  0  0  0  0  0
  196.9640  174.3240  141.2680 N   0  0  0  0  0  0  0  0  0  0  0  0
  195.9210  175.3020  144.6790 C   0  0  0  0  0  3  0  0  0  0  0  0
  197.4250  174.5300  139.9060 C   0  0  0  0  0  1  0  0  0  0  0  0
  197.9310  172.1950  141.6830 O   0  0  0  0  0  0  0  0  0  0  0  0
  196.9560  173.4980  143.4560 C   0  0  0  0  0  0  0  0  0  0  0  0
  196.3480  175.3610  142.1030 C   0  0  2  0  0  3  0  0  0  0  0  0
  196.3730  174.7480  143.4800 C   0  0  0  0  0  0  0  0  0  0  0  0
  197.1140  172.7300  144.6080 C   0  0  0  0  0  3  0  0  0  0  0  0
  196.6550  173.2700  145.8210 C   0  0  0  0  0  3  0  0  0  0  0  0
  1 18  1  1  0  0  0
  1 10  1  0  0  0  0
  3  6  1  0  0  0  0
  4  2  1  0  0  0  0
  4 12  1  0  0  0  0
  5  4  2  0  0  0  0
  6  7  1  0  0  0  0
  6  2  2  0  0  0  0
  8  3  2  0  0  0  0
  8  5  1  0  0  0  0
  9 10  2  0  0  0  0
  9  3  1  0  0  0  0
 10 11  1  0  0  0  0
 11  7  2  0  0  0  0
 12 13  1  0  0  0  0
 16 17  1  0  0  0  0
 16 14  1  0  0  0  0
 17 15  1  0  0  0  0
 17  1  1  0  0  0  0
 17 14  1  0  0  0  0
 19 20  1  0  0  0  0
 19 18  2  0  0  0  0
 21 22  2  0  0  0  0
 22 20  1  0  0  0  0
 24 29  1  0  0  0  0
 25 24  1  0  0  0  0
 25 30  1  0  0  0  0
 26 23  2  0  0  0  0
 27 25  1  0  0  0  0
 28 24  2  0  0  0  0
 29 31  2  0  0  0  0
 29 32  1  0  0  0  0
 30 22  1  6  0  0  0
 30 31  1  0  0  0  0
 31 26  1  0  0  0  0
 32 33  2  0  0  0  0
 33 23  1  0  0  0  0
M  END
>  <MODEL>
8

>  <REMARK>
 VINA RESULT:      -6.8      3.019      9.639
  Name = 
  6 active torsions:
  status: ('A' for Active; 'I' for Inactive)
    1  A    between atoms: C_1  and  C_11
    2  A    between atoms: C_6  and  O_7
    3  A    between atoms: C_11  and  C_25
    4  A    between atoms: C_11  and  C_33
    5  A    between atoms: N_12  and  C_16
    6  A    between atoms: C_23  and  C_28
                            x       y       z     vdW  Elec       q    Type
                         _______ _______ _______ _____ _____    ______ ____

>  <TORSDO>
F 6

$$$$
=
 OpenBabel11042415023D

 33 37  0  0  1  0  0  0  0  0999 V2000
  190.6010  174.5610  145.9560 C   0  0  2  0  0  3  0  0  0  0  0  0
  185.7170  177.3220  144.9480 C   0  0  0  0  0  3  0  0  0  0  0  0
  187.6930  176.1630  144.1320 C   0  0  0  0  0  0  0  0  0  0  0  0
  185.2880  177.5210  143.6310 C   0  0  0  0  0  0  0  0  0  0  0  0
  186.0680  177.0360  142.5670 C   0  0  0  0  0  3  0  0  0  0  0  0
  186.9120  176.6470  145.2060 C   0  0  0  0  0  0  0  0  0  0  0  0
  187.3400  176.4490  146.5210 C   0  0  0  0  0  3  0  0  0  0  0  0
  187.2660  176.3590  142.8170 C   0  0  0  0  0  3  0  0  0  0  0  0
  188.8900  175.4870  144.3900 C   0  0  0  0  0  3  0  0  0  0  0  0
  189.3160  175.2910  145.7080 C   0  0  0  0  0  0  0  0  0  0  0  0
  188.5370  175.7720  146.7720 C   0  0  0  0  0  3  0  0  0  0  0  0
  184.0870  178.2000  143.4080 O   0  0  0  0  0  0  0  0  0  0  0  0
  183.4970  178.3130  142.1200 C   0  0  0  0  0  1  0  0  0  0  0  0
  192.9930  175.4980  146.5440 C   0  0  0  0  0  2  0  0  0  0  0  0
  191.2840  175.2890  148.2650 O   0  0  0  0  0  1  0  0  0  0  0  0
  192.0540  176.6980  146.4290 C   0  0  0  0  0  2  0  0  0  0  0  0
  191.5290  175.3580  146.8940 C   0  0  0  0  0  0  0  0  0  0  0  0
  191.2210  174.1320  144.6580 C   0  0  0  0  0  3  0  0  0  0  0  0
  191.3720  172.8460  144.3660 C   0  0  0  0  0  3  0  0  0  0  0  0
  191.9640  172.3910  143.1420 N   0  0  0  0  0  2  0  0  0  0  0  0
  190.2030  172.8770  141.6650 O   0  0  0  0  0  0  0  0  0  0  0  0
  191.3670  172.4260  141.8350 C   0  0  0  0  0  0  0  0  0  0  0  0
  190.5160  168.5530  139.7640 C   0  0  0  0  0  3  0  0  0  0  0  0
  191.5230  172.3890  138.4250 C   0  0  0  0  0  0  0  0  0  0  0  0
  192.1350  172.9410  139.5840 N   0  0  0  0  0  0  0  0  0  0  0  0
  191.1660  169.5090  140.5630 C   0  0  0  0  0  3  0  0  0  0  0  0
  192.9320  174.1570  139.6020 C   0  0  0  0  0  1  0  0  0  0  0  0
  191.4100  172.9900  137.3240 O   0  0  0  0  0  0  0  0  0  0  0  0
  191.0870  171.0450  138.7040 C   0  0  0  0  0  0  0  0  0  0  0  0
  192.1340  171.9330  140.6500 C   0  0  2  0  0  3  0  0  0  0  0  0
  191.4380  170.7610  140.0080 C   0  0  0  0  0  0  0  0  0  0  0  0
  190.4450  170.1170  137.8880 C   0  0  0  0  0  3  0  0  0  0  0  0
  190.1560  168.8550  138.4350 C   0  0  0  0  0  3  0  0  0  0  0  0
  1 18  1  6  0  0  0
  1 17  1  0  0  0  0
  2  6  1  0  0  0  0
  3  9  2  0  0  0  0
  3  6  1  0  0  0  0
  4  2  2  0  0  0  0
  5  8  2  0  0  0  0
  5  4  1  0  0  0  0
  6  7  2  0  0  0  0
  7 11  1  0  0  0  0
  8  3  1  0  0  0  0
  9 10  1  0  0  0  0
 10  1  1  0  0  0  0
 10 11  2  0  0  0  0
 12  4  1  0  0  0  0
 13 12  1  0  0  0  0
 14 17  1  0  0  0  0
 16 14  1  0  0  0  0
 16 17  1  0  0  0  0
 17 15  1  0  0  0  0
 19 18  2  0  0  0  0
 20 19  1  0  0  0  0
 21 22  2  0  0  0  0
 22 20  1  0  0  0  0
 23 26  1  0  0  0  0
 24 29  1  0  0  0  0
 24 25  1  0  0  0  0
 25 27  1  0  0  0  0
 25 30  1  0  0  0  0
 28 24  2  0  0  0  0
 29 31  1  0  0  0  0
 30 22  1  1  0  0  0
 31 26  2  0  0  0  0
 31 30  1  0  0  0  0
 32 33  1  0  0  0  0
 32 29  2  0  0  0  0
 33 23  2  0  0  0  0
M  END
>  <MODEL>
9

>  <REMARK>
 VINA RESULT:      -6.8      3.991      8.880
  Name = 
  6 active torsions:
  status: ('A' for Active; 'I' for Inactive)
    1  A    between atoms: C_1  and  C_11
    2  A    between atoms: C_6  and  O_7
    3  A    between atoms: C_11  and  C_25
    4  A    between atoms: C_11  and  C_33
    5  A    between atoms: N_12  and  C_16
    6  A    between atoms: C_23  and  C_28
                            x       y       z     vdW  Elec       q    Type
                         _______ _______ _______ _____ _____    ______ ____

>  <TORSDO>
F 6

$$$$
