=
 OpenBabel11042418553D

 31 35  0  0  1  0  0  0  0  0999 V2000
  189.0390  175.0720  141.5030 C   0  0  1  0  0  3  0  0  0  0  0  0
  188.5880  176.1810  144.9290 N   0  0  0  0  0  0  0  0  0  0  0  0
  191.1170  177.2290  148.2850 N   0  0  0  0  0  1  0  0  0  0  0  0
  188.7820  175.2420  143.8820 C   0  0  2  0  0  3  0  0  0  0  0  0
  190.9520  175.8910  147.7460 C   0  0  1  0  0  3  0  0  0  0  0  0
  190.0270  174.8890  143.8090 C   0  0  2  0  0  3  0  0  0  0  0  0
  191.7910  174.8300  145.6030 C   0  0  2  0  0  3  0  0  0  0  0  0
  189.6470  175.8060  146.9510 C   0  0  0  0  0  2  0  0  0  0  0  0
  190.8040  175.6970  144.7960 C   0  0  2  0  0  3  0  0  0  0  0  0
  187.9990  175.1480  142.6250 C   0  0  0  0  0  2  0  0  0  0  0  0
  189.7930  176.4160  145.6210 N   0  0  1  0  0  0  0  0  0  0  0  0
  192.1810  175.5210  146.9100 C   0  0  0  0  0  2  0  0  0  0  0  0
  190.5830  174.3670  142.2030 S   0  0  0  0  0  0  0  0  0  0  0  0
  186.0150  178.9080  144.7270 C   0  0  0  0  0  3  0  0  0  0  0  0
  185.0440  178.4250  145.6080 C   0  0  0  0  0  0  0  0  0  0  0  0
  185.2410  177.2070  146.2640 C   0  0  0  0  0  3  0  0  0  0  0  0
  187.1830  178.1740  144.5050 C   0  0  0  0  0  3  0  0  0  0  0  0
  183.9110  179.1360  145.8240 F   0  0  0  0  0  0  0  0  0  0  0  0
  187.3940  176.9530  145.1630 C   0  0  0  0  0  0  0  0  0  0  0  0
  186.4100  176.4740  146.0410 C   0  0  0  0  0  3  0  0  0  0  0  0
  188.5460  174.2690  140.3330 C   0  0  0  0  0  0  0  0  0  0  0  0
  188.0200  174.8780  139.3220 N   0  0  0  0  0  2  0  0  0  0  0  0
  188.3300  172.8670  140.4740 N   0  0  0  0  0  1  0  0  0  0  0  0
  192.9660  174.4460  144.8170 N   0  0  0  0  0  2  0  0  0  0  0  0
  194.1210  175.2640  145.1800 C   0  0  0  0  0  2  0  0  0  0  0  0
  194.6260  176.0160  143.9600 C   0  0  0  0  0  2  0  0  0  0  0  0
  196.5460  176.5790  142.7460 C   0  0  0  0  0  2  0  0  0  0  0  0
  196.6730  174.9740  144.3870 C   0  0  0  0  0  2  0  0  0  0  0  0
  196.0570  176.2520  144.0710 N   0  0  0  0  0  0  0  0  0  0  0  0
  197.7910  175.7550  142.5210 C   0  0  0  0  0  2  0  0  0  0  0  0
  197.9250  174.8600  143.6560 N   0  0  0  0  0  2  0  0  0  0  0  0
  1 21  1  6  0  0  0
  1 13  1  0  0  0  0
  1 10  1  0  0  0  0
  2 19  1  0  0  0  0
  2 11  1  0  0  0  0
  4 10  1  6  0  0  0
  4  2  1  0  0  0  0
  5  3  1  6  0  0  0
  6 13  1  6  0  0  0
  6  4  1  0  0  0  0
  6  9  1  0  0  0  0
  7 24  1  6  0  0  0
  7 12  1  0  0  0  0
  8  5  1  0  0  0  0
  9  7  1  0  0  0  0
  9 11  1  0  0  0  0
 11  8  1  0  0  0  0
 12  5  1  0  0  0  0
 14 15  1  0  0  0  0
 15 18  1  0  0  0  0
 15 16  2  0  0  0  0
 17 14  2  0  0  0  0
 17 19  1  0  0  0  0
 19 20  2  0  0  0  0
 20 16  1  0  0  0  0
 21 23  1  0  0  0  0
 22 21  2  0  0  0  0
 24 25  1  0  0  0  0
 26 29  1  0  0  0  0
 26 25  1  0  0  0  0
 27 29  1  0  0  0  0
 29 28  1  0  0  0  0
 30 27  1  0  0  0  0
 30 31  1  0  0  0  0
 31 28  1  0  0  0  0
M  END
>  <MODEL>
1

>  <REMARK>
 VINA RESULT:      -7.5      0.000      0.000
  Name = 
  6 active torsions:
  status: ('A' for Active; 'I' for Inactive)
    1  A    between atoms: C_1  and  C_3
    2  A    between atoms: N_4  and  C_16
    3  A    between atoms: N_4  and  C_28
    4  A    between atoms: N_6  and  C_24
    5  A    between atoms: C_11  and  N_14
    6  A    between atoms: C_11  and  C_28
                            x       y       z     vdW  Elec       q    Type
                         _______ _______ _______ _____ _____    ______ ____

>  <TORSDO>
F 6

$$$$
=
 OpenBabel11042418553D

 31 35  0  0  1  0  0  0  0  0999 V2000
  189.0830  175.0300  141.6090 C   0  0  1  0  0  3  0  0  0  0  0  0
  188.6660  176.1350  145.0420 N   0  0  0  0  0  0  0  0  0  0  0  0
  191.2310  177.2090  148.3630 N   0  0  0  0  0  1  0  0  0  0  0  0
  188.8560  175.1990  143.9910 C   0  0  2  0  0  3  0  0  0  0  0  0
  191.0720  175.8690  147.8260 C   0  0  1  0  0  3  0  0  0  0  0  0
  190.1030  174.8580  143.9020 C   0  0  2  0  0  3  0  0  0  0  0  0
  191.8920  174.8170  145.6720 C   0  0  2  0  0  3  0  0  0  0  0  0
  189.7570  175.7710  147.0480 C   0  0  0  0  0  2  0  0  0  0  0  0
  190.8860  175.6740  144.8780 C   0  0  2  0  0  3  0  0  0  0  0  0
  188.0570  175.0970  142.7450 C   0  0  0  0  0  2  0  0  0  0  0  0
  189.8790  176.3830  145.7170 N   0  0  1  0  0  0  0  0  0  0  0  0
  192.2930  175.5120  146.9740 C   0  0  0  0  0  2  0  0  0  0  0  0
  190.6430  174.3420  142.2880 S   0  0  0  0  0  0  0  0  0  0  0  0
  185.3800  177.2240  146.4950 C   0  0  0  0  0  3  0  0  0  0  0  0
  185.1540  178.4070  145.7870 C   0  0  0  0  0  0  0  0  0  0  0  0
  186.0820  178.8410  144.8370 C   0  0  0  0  0  3  0  0  0  0  0  0
  186.5320  176.4720  146.2490 C   0  0  0  0  0  3  0  0  0  0  0  0
  184.0370  179.1360  146.0250 F   0  0  0  0  0  0  0  0  0  0  0  0
  187.4680  176.8950  145.2920 C   0  0  0  0  0  0  0  0  0  0  0  0
  187.2340  178.0880  144.5930 C   0  0  0  0  0  3  0  0  0  0  0  0
  188.5810  174.2230  140.4460 C   0  0  0  0  0  0  0  0  0  0  0  0
  188.1190  174.8300  139.4040 N   0  0  0  0  0  2  0  0  0  0  0  0
  188.2870  172.8380  140.6170 N   0  0  0  0  0  1  0  0  0  0  0  0
  193.0600  174.4450  144.8700 N   0  0  0  0  0  2  0  0  0  0  0  0
  194.2970  174.7830  145.5700 C   0  0  0  0  0  2  0  0  0  0  0  0
  195.3250  175.3070  144.5810 C   0  0  0  0  0  2  0  0  0  0  0  0
  196.5490  173.5080  143.7180 C   0  0  0  0  0  2  0  0  0  0  0  0
  196.5210  173.8750  145.9860 C   0  0  0  0  0  2  0  0  0  0  0  0
  196.5700  174.5660  144.7090 N   0  0  0  0  0  0  0  0  0  0  0  0
  196.9780  172.2400  144.4170 C   0  0  0  0  0  2  0  0  0  0  0  0
  197.1020  172.5500  145.8300 N   0  0  0  0  0  2  0  0  0  0  0  0
  1 21  1  6  0  0  0
  1 13  1  0  0  0  0
  1 10  1  0  0  0  0
  2 19  1  0  0  0  0
  2 11  1  0  0  0  0
  4 10  1  6  0  0  0
  4  2  1  0  0  0  0
  5  3  1  6  0  0  0
  6 13  1  6  0  0  0
  6  4  1  0  0  0  0
  6  9  1  0  0  0  0
  7 24  1  6  0  0  0
  7 12  1  0  0  0  0
  8  5  1  0  0  0  0
  9  7  1  0  0  0  0
  9 11  1  0  0  0  0
 11  8  1  0  0  0  0
 12  5  1  0  0  0  0
 15 18  1  0  0  0  0
 15 14  2  0  0  0  0
 16 15  1  0  0  0  0
 17 14  1  0  0  0  0
 19 17  2  0  0  0  0
 20 16  2  0  0  0  0
 20 19  1  0  0  0  0
 21 23  1  0  0  0  0
 22 21  2  0  0  0  0
 24 25  1  0  0  0  0
 26 29  1  0  0  0  0
 26 25  1  0  0  0  0
 27 30  1  0  0  0  0
 27 29  1  0  0  0  0
 29 28  1  0  0  0  0
 30 31  1  0  0  0  0
 31 28  1  0  0  0  0
M  END
>  <MODEL>
2

>  <REMARK>
 VINA RESULT:      -7.3      0.986      1.511
  Name = 
  6 active torsions:
  status: ('A' for Active; 'I' for Inactive)
    1  A    between atoms: C_1  and  C_3
    2  A    between atoms: N_4  and  C_16
    3  A    between atoms: N_4  and  C_28
    4  A    between atoms: N_6  and  C_24
    5  A    between atoms: C_11  and  N_14
    6  A    between atoms: C_11  and  C_28
                            x       y       z     vdW  Elec       q    Type
                         _______ _______ _______ _____ _____    ______ ____

>  <TORSDO>
F 6

$$$$
=
 OpenBabel11042418553D

 31 35  0  0  1  0  0  0  0  0999 V2000
  188.6990  174.6250  141.4120 C   0  0  1  0  0  3  0  0  0  0  0  0
  188.2200  176.5830  144.4300 N   0  0  0  0  0  0  0  0  0  0  0  0
  184.9770  178.7210  146.3440 N   0  0  0  0  0  1  0  0  0  0  0  0
  188.4980  176.3600  143.0560 C   0  0  2  0  0  3  0  0  0  0  0  0
  185.6300  179.1200  145.1100 C   0  0  1  0  0  3  0  0  0  0  0  0
  187.4510  176.6050  142.3320 C   0  0  2  0  0  3  0  0  0  0  0  0
  185.5210  178.1600  142.7680 C   0  0  2  0  0  3  0  0  0  0  0  0
  187.0100  178.4650  145.0160 C   0  0  0  0  0  2  0  0  0  0  0  0
  186.3130  176.9260  143.2440 C   0  0  2  0  0  3  0  0  0  0  0  0
  189.4670  175.3840  142.4980 C   0  0  0  0  0  2  0  0  0  0  0  0
  186.9050  177.0570  144.6050 N   0  0  1  0  0  0  0  0  0  0  0  0
  184.7290  178.7780  143.9210 C   0  0  0  0  0  2  0  0  0  0  0  0
  187.3530  175.7110  140.7980 S   0  0  0  0  0  0  0  0  0  0  0  0
  189.5350  174.7940  147.4590 C   0  0  0  0  0  3  0  0  0  0  0  0
  190.7410  175.4700  147.6640 C   0  0  0  0  0  0  0  0  0  0  0  0
  191.1150  176.5080  146.8080 C   0  0  0  0  0  3  0  0  0  0  0  0
  188.7020  175.1610  146.3980 C   0  0  0  0  0  3  0  0  0  0  0  0
  191.5500  175.1150  148.6920 F   0  0  0  0  0  0  0  0  0  0  0  0
  189.0650  176.2070  145.5360 C   0  0  0  0  0  0  0  0  0  0  0  0
  190.2810  176.8730  145.7480 C   0  0  0  0  0  3  0  0  0  0  0  0
  189.6000  174.1760  140.2960 C   0  0  0  0  0  0  0  0  0  0  0  0
  189.0890  173.8780  139.1480 N   0  0  0  0  0  2  0  0  0  0  0  0
  190.9290  173.7450  140.5860 N   0  0  0  0  0  1  0  0  0  0  0  0
  184.6660  177.8620  141.6160 N   0  0  0  0  0  2  0  0  0  0  0  0
  183.2970  178.3120  141.8580 C   0  0  0  0  0  2  0  0  0  0  0  0
  182.4570  178.1080  140.6090 C   0  0  0  0  0  2  0  0  0  0  0  0
  180.9370  179.1250  142.0710 C   0  0  0  0  0  2  0  0  0  0  0  0
  180.1660  178.1200  140.1530 C   0  0  0  0  0  2  0  0  0  0  0  0
  181.2570  178.9280  140.6700 N   0  0  0  0  0  0  0  0  0  0  0  0
  179.4600  178.8570  142.2270 C   0  0  0  0  0  2  0  0  0  0  0  0
  178.9740  178.3710  140.9490 N   0  0  0  0  0  2  0  0  0  0  0  0
  1 21  1  6  0  0  0
  1 10  1  0  0  0  0
  2 11  1  0  0  0  0
  2 19  1  0  0  0  0
  4 10  1  1  0  0  0
  4  2  1  0  0  0  0
  5  3  1  1  0  0  0
  6 13  1  1  0  0  0
  6  4  1  0  0  0  0
  6  9  1  0  0  0  0
  7 24  1  6  0  0  0
  7  9  1  0  0  0  0
  7 12  1  0  0  0  0
  8  5  1  0  0  0  0
  9 11  1  0  0  0  0
 11  8  1  0  0  0  0
 12  5  1  0  0  0  0
 13  1  1  0  0  0  0
 14 15  1  0  0  0  0
 15 18  1  0  0  0  0
 16 15  2  0  0  0  0
 17 14  2  0  0  0  0
 19 20  2  0  0  0  0
 19 17  1  0  0  0  0
 20 16  1  0  0  0  0
 21 23  1  0  0  0  0
 22 21  2  0  0  0  0
 24 25  1  0  0  0  0
 26 29  1  0  0  0  0
 26 25  1  0  0  0  0
 27 30  1  0  0  0  0
 28 29  1  0  0  0  0
 28 31  1  0  0  0  0
 29 27  1  0  0  0  0
 31 30  1  0  0  0  0
M  END
>  <MODEL>
3

>  <REMARK>
 VINA RESULT:      -7.3      4.093      8.900
  Name = 
  6 active torsions:
  status: ('A' for Active; 'I' for Inactive)
    1  A    between atoms: C_1  and  C_3
    2  A    between atoms: N_4  and  C_16
    3  A    between atoms: N_4  and  C_28
    4  A    between atoms: N_6  and  C_24
    5  A    between atoms: C_11  and  N_14
    6  A    between atoms: C_11  and  C_28
                            x       y       z     vdW  Elec       q    Type
                         _______ _______ _______ _____ _____    ______ ____

>  <TORSDO>
F 6

$$$$
=
 OpenBabel11042418553D

 31 35  0  0  1  0  0  0  0  0999 V2000
  189.3400  174.7200  141.6660 C   0  0  1  0  0  3  0  0  0  0  0  0
  188.8060  176.0200  145.0120 N   0  0  0  0  0  0  0  0  0  0  0  0
  191.2540  177.2510  148.3670 N   0  0  0  0  0  1  0  0  0  0  0  0
  189.0240  175.0240  144.0240 C   0  0  2  0  0  3  0  0  0  0  0  0
  191.0990  175.8850  147.8990 C   0  0  1  0  0  3  0  0  0  0  0  0
  190.2700  174.6660  144.0030 C   0  0  2  0  0  3  0  0  0  0  0  0
  191.9880  174.7050  145.8410 C   0  0  2  0  0  3  0  0  0  0  0  0
  189.8140  175.7570  147.0780 C   0  0  0  0  0  2  0  0  0  0  0  0
  191.0240  175.5270  144.9620 C   0  0  2  0  0  3  0  0  0  0  0  0
  188.2730  174.8610  142.7550 C   0  0  0  0  0  2  0  0  0  0  0  0
  189.9950  176.2920  145.7200 N   0  0  1  0  0  0  0  0  0  0  0  0
  192.3470  175.4680  147.1170 C   0  0  0  0  0  2  0  0  0  0  0  0
  190.8640  174.0540  142.4430 S   0  0  0  0  0  0  0  0  0  0  0  0
  185.4520  177.1880  146.2290 C   0  0  0  0  0  3  0  0  0  0  0  0
  185.2970  178.3660  145.4940 C   0  0  0  0  0  0  0  0  0  0  0  0
  186.2940  178.7700  144.6040 C   0  0  0  0  0  3  0  0  0  0  0  0
  186.6030  176.4120  146.0700 C   0  0  0  0  0  3  0  0  0  0  0  0
  184.1810  179.1190  145.6480 F   0  0  0  0  0  0  0  0  0  0  0  0
  187.6090  176.8050  145.1730 C   0  0  0  0  0  0  0  0  0  0  0  0
  187.4460  177.9930  144.4460 C   0  0  0  0  0  3  0  0  0  0  0  0
  188.8740  173.8540  140.5300 C   0  0  0  0  0  0  0  0  0  0  0  0
  188.1050  172.8450  140.7760 N   0  0  0  0  0  1  0  0  0  0  0  0
  189.5380  173.9170  139.2700 N   0  0  0  0  0  2  0  0  0  0  0  0
  193.1820  174.2770  145.1070 N   0  0  0  0  0  2  0  0  0  0  0  0
  194.3120  175.1550  145.4000 C   0  0  0  0  0  2  0  0  0  0  0  0
  194.4420  176.2100  144.3150 C   0  0  0  0  0  2  0  0  0  0  0  0
  196.2700  176.3810  142.8630 C   0  0  0  0  0  2  0  0  0  0  0  0
  194.1790  175.9530  142.0080 C   0  0  0  0  0  2  0  0  0  0  0  0
  195.0530  175.6370  143.1260 N   0  0  0  0  0  0  0  0  0  0  0  0
  196.2730  176.7140  141.3900 C   0  0  0  0  0  2  0  0  0  0  0  0
  194.9950  176.2860  140.8510 N   0  0  0  0  0  2  0  0  0  0  0  0
  1 21  1  6  0  0  0
  1 13  1  0  0  0  0
  1 10  1  0  0  0  0
  2 19  1  0  0  0  0
  2 11  1  0  0  0  0
  4 10  1  6  0  0  0
  4  2  1  0  0  0  0
  5  3  1  6  0  0  0
  6 13  1  6  0  0  0
  6  4  1  0  0  0  0
  6  9  1  0  0  0  0
  7 24  1  6  0  0  0
  7 12  1  0  0  0  0
  8  5  1  0  0  0  0
  9 11  1  0  0  0  0
  9  7  1  0  0  0  0
 11  8  1  0  0  0  0
 12  5  1  0  0  0  0
 15 18  1  0  0  0  0
 15 14  2  0  0  0  0
 16 15  1  0  0  0  0
 17 14  1  0  0  0  0
 19 17  2  0  0  0  0
 20 16  2  0  0  0  0
 20 19  1  0  0  0  0
 21 22  1  0  0  0  0
 23 21  2  0  0  0  0
 24 25  1  0  0  0  0
 26 25  1  0  0  0  0
 27 29  1  0  0  0  0
 28 29  1  0  0  0  0
 29 26  1  0  0  0  0
 30 27  1  0  0  0  0
 31 30  1  0  0  0  0
 31 28  1  0  0  0  0
M  END
>  <MODEL>
4

>  <REMARK>
 VINA RESULT:      -7.3      0.916      1.552
  Name = 
  6 active torsions:
  status: ('A' for Active; 'I' for Inactive)
    1  A    between atoms: C_1  and  C_3
    2  A    between atoms: N_4  and  C_16
    3  A    between atoms: N_4  and  C_28
    4  A    between atoms: N_6  and  C_24
    5  A    between atoms: C_11  and  N_14
    6  A    between atoms: C_11  and  C_28
                            x       y       z     vdW  Elec       q    Type
                         _______ _______ _______ _____ _____    ______ ____

>  <TORSDO>
F 6

$$$$
=
 OpenBabel11042418553D

 31 35  0  0  1  0  0  0  0  0999 V2000
  189.0500  175.0420  141.5650 C   0  0  1  0  0  3  0  0  0  0  0  0
  188.6400  176.1550  144.9960 N   0  0  0  0  0  0  0  0  0  0  0  0
  191.2080  177.1620  148.3340 N   0  0  0  0  0  1  0  0  0  0  0  0
  188.8120  175.2140  143.9460 C   0  0  2  0  0  3  0  0  0  0  0  0
  191.0200  175.8270  147.7950 C   0  0  1  0  0  3  0  0  0  0  0  0
  190.0520  174.8430  143.8640 C   0  0  2  0  0  3  0  0  0  0  0  0
  191.8280  174.7570  145.6450 C   0  0  2  0  0  3  0  0  0  0  0  0
  189.7080  175.7620  147.0090 C   0  0  0  0  0  2  0  0  0  0  0  0
  190.8480  175.6390  144.8460 C   0  0  2  0  0  3  0  0  0  0  0  0
  188.0190  175.1330  142.6950 C   0  0  0  0  0  2  0  0  0  0  0  0
  189.8530  176.3720  145.6800 N   0  0  1  0  0  0  0  0  0  0  0  0
  192.2370  175.4410  146.9500 C   0  0  0  0  0  2  0  0  0  0  0  0
  190.5880  174.3150  142.2540 S   0  0  0  0  0  0  0  0  0  0  0  0
  186.0820  178.8950  144.7820 C   0  0  0  0  0  3  0  0  0  0  0  0
  185.1330  178.4470  145.7050 C   0  0  0  0  0  0  0  0  0  0  0  0
  185.3390  177.2490  146.3920 C   0  0  0  0  0  3  0  0  0  0  0  0
  187.2380  178.1450  144.5500 C   0  0  0  0  0  3  0  0  0  0  0  0
  184.0120  179.1740  145.9310 F   0  0  0  0  0  0  0  0  0  0  0  0
  187.4580  176.9430  145.2400 C   0  0  0  0  0  0  0  0  0  0  0  0
  186.4960  176.5000  146.1590 C   0  0  0  0  0  3  0  0  0  0  0  0
  188.5360  174.2480  140.3980 C   0  0  0  0  0  0  0  0  0  0  0  0
  188.0890  174.8670  139.3570 N   0  0  0  0  0  2  0  0  0  0  0  0
  188.2140  172.8690  140.5650 N   0  0  0  0  0  1  0  0  0  0  0  0
  192.9920  174.3580  144.8500 N   0  0  0  0  0  2  0  0  0  0  0  0
  193.3990  172.9940  145.1790 C   0  0  0  0  0  2  0  0  0  0  0  0
  194.5050  172.5440  144.2400 C   0  0  0  0  0  2  0  0  0  0  0  0
  193.7750  171.6980  142.1830 C   0  0  0  0  0  2  0  0  0  0  0  0
  192.8560  170.8940  144.1310 C   0  0  0  0  0  2  0  0  0  0  0  0
  194.1120  171.3280  143.5440 N   0  0  0  0  0  0  0  0  0  0  0  0
  192.4640  171.0240  141.8560 C   0  0  0  0  0  2  0  0  0  0  0  0
  191.9900  170.3930  143.0750 N   0  0  0  0  0  2  0  0  0  0  0  0
  1 21  1  6  0  0  0
  1 13  1  0  0  0  0
  1 10  1  0  0  0  0
  2 19  1  0  0  0  0
  2 11  1  0  0  0  0
  4 10  1  6  0  0  0
  4  2  1  0  0  0  0
  5  3  1  6  0  0  0
  6 13  1  6  0  0  0
  6  4  1  0  0  0  0
  6  9  1  0  0  0  0
  7 24  1  6  0  0  0
  7 12  1  0  0  0  0
  8  5  1  0  0  0  0
  9  7  1  0  0  0  0
  9 11  1  0  0  0  0
 11  8  1  0  0  0  0
 12  5  1  0  0  0  0
 14 15  1  0  0  0  0
 15 18  1  0  0  0  0
 15 16  2  0  0  0  0
 17 14  2  0  0  0  0
 17 19  1  0  0  0  0
 19 20  2  0  0  0  0
 20 16  1  0  0  0  0
 21 23  1  0  0  0  0
 22 21  2  0  0  0  0
 24 25  1  0  0  0  0
 26 25  1  0  0  0  0
 27 29  1  0  0  0  0
 29 28  1  0  0  0  0
 29 26  1  0  0  0  0
 30 27  1  0  0  0  0
 30 31  1  0  0  0  0
 31 28  1  0  0  0  0
M  END
>  <MODEL>
5

>  <REMARK>
 VINA RESULT:      -6.9      1.926      2.641
  Name = 
  6 active torsions:
  status: ('A' for Active; 'I' for Inactive)
    1  A    between atoms: C_1  and  C_3
    2  A    between atoms: N_4  and  C_16
    3  A    between atoms: N_4  and  C_28
    4  A    between atoms: N_6  and  C_24
    5  A    between atoms: C_11  and  N_14
    6  A    between atoms: C_11  and  C_28
                            x       y       z     vdW  Elec       q    Type
                         _______ _______ _______ _____ _____    ______ ____

>  <TORSDO>
F 6

$$$$
=
 OpenBabel11042418553D

 31 35  0  0  1  0  0  0  0  0999 V2000
  190.8140  173.2510  140.8940 C   0  0  1  0  0  3  0  0  0  0  0  0
  191.8120  175.3130  143.7100 N   0  0  0  0  0  0  0  0  0  0  0  0
  189.9000  177.1390  147.1410 N   0  0  0  0  0  1  0  0  0  0  0  0
  191.3140  175.0440  142.4080 C   0  0  2  0  0  3  0  0  0  0  0  0
  189.7040  177.5410  145.7590 C   0  0  1  0  0  3  0  0  0  0  0  0
  190.0200  175.1110  142.3900 C   0  0  2  0  0  3  0  0  0  0  0  0
  188.4560  176.4350  143.8510 C   0  0  2  0  0  3  0  0  0  0  0  0
  190.8780  177.0600  144.9040 C   0  0  0  0  0  2  0  0  0  0  0  0
  189.5410  175.3410  143.7850 C   0  0  2  0  0  3  0  0  0  0  0  0
  191.9390  174.1660  141.3880 C   0  0  0  0  0  2  0  0  0  0  0  0
  190.7600  175.6280  144.5940 N   0  0  1  0  0  0  0  0  0  0  0  0
  188.3540  177.0170  145.2620 C   0  0  0  0  0  2  0  0  0  0  0  0
  189.2180  174.1210  141.1500 S   0  0  0  0  0  0  0  0  0  0  0  0
  194.8260  173.8340  145.3910 C   0  0  0  0  0  3  0  0  0  0  0  0
  195.8220  174.7260  144.9850 C   0  0  0  0  0  0  0  0  0  0  0  0
  195.4980  175.8070  144.1620 C   0  0  0  0  0  3  0  0  0  0  0  0
  193.5050  174.0270  144.9770 C   0  0  0  0  0  3  0  0  0  0  0  0
  197.1030  174.5400  145.3860 F   0  0  0  0  0  0  0  0  0  0  0  0
  193.1680  175.1140  144.1550 C   0  0  0  0  0  0  0  0  0  0  0  0
  194.1770  175.9980  143.7480 C   0  0  0  0  0  3  0  0  0  0  0  0
  191.0030  172.8530  139.4580 C   0  0  0  0  0  0  0  0  0  0  0  0
  191.8580  173.4910  138.7300 N   0  0  0  0  0  2  0  0  0  0  0  0
  190.0250  172.0410  138.8120 N   0  0  0  0  0  1  0  0  0  0  0  0
  187.1590  175.9630  143.3600 N   0  0  0  0  0  2  0  0  0  0  0  0
  186.7200  176.7560  142.2150 C   0  0  0  0  0  2  0  0  0  0  0  0
  187.1130  178.2100  142.4110 C   0  0  0  0  0  2  0  0  0  0  0  0
  185.7680  179.3680  143.9380 C   0  0  0  0  0  2  0  0  0  0  0  0
  184.7840  178.1950  142.2230 C   0  0  0  0  0  2  0  0  0  0  0  0
  185.9250  179.0410  142.5340 N   0  0  0  0  0  0  0  0  0  0  0  0
  184.3200  179.1260  144.2870 C   0  0  0  0  0  2  0  0  0  0  0  0
  183.6910  178.5270  143.1240 N   0  0  0  0  0  2  0  0  0  0  0  0
  1 21  1  6  0  0  0
  1 13  1  0  0  0  0
  1 10  1  0  0  0  0
  2 19  1  0  0  0  0
  2 11  1  0  0  0  0
  4 10  1  1  0  0  0
  4  2  1  0  0  0  0
  5  3  1  1  0  0  0
  6 13  1  1  0  0  0
  6  4  1  0  0  0  0
  6  9  1  0  0  0  0
  7 24  1  1  0  0  0
  7 12  1  0  0  0  0
  8  5  1  0  0  0  0
  9  7  1  0  0  0  0
  9 11  1  0  0  0  0
 11  8  1  0  0  0  0
 12  5  1  0  0  0  0
 15 18  1  0  0  0  0
 15 14  1  0  0  0  0
 16 15  2  0  0  0  0
 17 14  2  0  0  0  0
 19 17  1  0  0  0  0
 20 19  2  0  0  0  0
 20 16  1  0  0  0  0
 22 21  2  0  0  0  0
 23 21  1  0  0  0  0
 25 26  1  0  0  0  0
 25 24  1  0  0  0  0
 26 29  1  0  0  0  0
 27 30  1  0  0  0  0
 28 29  1  0  0  0  0
 28 31  1  0  0  0  0
 29 27  1  0  0  0  0
 31 30  1  0  0  0  0
M  END
>  <MODEL>
6

>  <REMARK>
 VINA RESULT:      -6.7      3.416      7.662
  Name = 
  6 active torsions:
  status: ('A' for Active; 'I' for Inactive)
    1  A    between atoms: C_1  and  C_3
    2  A    between atoms: N_4  and  C_16
    3  A    between atoms: N_4  and  C_28
    4  A    between atoms: N_6  and  C_24
    5  A    between atoms: C_11  and  N_14
    6  A    between atoms: C_11  and  C_28
                            x       y       z     vdW  Elec       q    Type
                         _______ _______ _______ _____ _____    ______ ____

>  <TORSDO>
F 6

$$$$
=
 OpenBabel11042418553D

 31 35  0  0  1  0  0  0  0  0999 V2000
  189.3710  173.4410  140.6860 C   0  0  1  0  0  3  0  0  0  0  0  0
  191.1570  174.8150  143.5320 N   0  0  0  0  0  0  0  0  0  0  0  0
  190.1740  176.9920  147.1440 N   0  0  0  0  0  1  0  0  0  0  0  0
  190.5490  174.8290  142.2490 C   0  0  2  0  0  3  0  0  0  0  0  0
  190.0890  177.5250  145.7960 C   0  0  1  0  0  3  0  0  0  0  0  0
  189.3700  175.3640  142.3070 C   0  0  2  0  0  3  0  0  0  0  0  0
  188.4550  177.0720  143.9140 C   0  0  2  0  0  3  0  0  0  0  0  0
  190.9730  176.7040  144.8540 C   0  0  0  0  0  2  0  0  0  0  0  0
  189.0590  175.6640  143.7370 C   0  0  2  0  0  3  0  0  0  0  0  0
  190.7710  173.8500  141.1560 C   0  0  0  0  0  2  0  0  0  0  0  0
  190.3270  175.4360  144.4870 N   0  0  1  0  0  0  0  0  0  0  0  0
  188.6240  177.5610  145.3520 C   0  0  0  0  0  2  0  0  0  0  0  0
  188.2160  174.8140  141.0710 S   0  0  0  0  0  0  0  0  0  0  0  0
  194.7850  173.9130  143.8840 C   0  0  0  0  0  3  0  0  0  0  0  0
  194.6950  172.7330  144.6260 C   0  0  0  0  0  0  0  0  0  0  0  0
  193.4450  172.2400  145.0060 C   0  0  0  0  0  3  0  0  0  0  0  0
  193.6220  174.5980  143.5190 C   0  0  0  0  0  3  0  0  0  0  0  0
  195.8220  172.0680  144.9800 F   0  0  0  0  0  0  0  0  0  0  0  0
  192.3600  174.1090  143.8900 C   0  0  0  0  0  0  0  0  0  0  0  0
  192.2830  172.9260  144.6410 C   0  0  0  0  0  3  0  0  0  0  0  0
  189.3490  173.0920  139.2250 C   0  0  0  0  0  0  0  0  0  0  0  0
  190.4460  172.7410  138.6390 N   0  0  0  0  0  1  0  0  0  0  0  0
  188.2370  173.4770  138.4200 N   0  0  0  0  0  2  0  0  0  0  0  0
  187.0580  177.1360  143.4760 N   0  0  0  0  0  2  0  0  0  0  0  0
  186.3570  178.2310  144.1420 C   0  0  0  0  0  2  0  0  0  0  0  0
  184.9110  177.8430  144.3950 C   0  0  0  0  0  2  0  0  0  0  0  0
  185.3300  179.0810  146.3370 C   0  0  0  0  0  2  0  0  0  0  0  0
  185.2120  176.7890  146.4580 C   0  0  0  0  0  2  0  0  0  0  0  0
  184.6040  177.9400  145.8140 N   0  0  0  0  0  0  0  0  0  0  0  0
  185.9980  178.6310  147.6140 C   0  0  0  0  0  2  0  0  0  0  0  0
  185.7680  177.2020  147.7370 N   0  0  0  0  0  2  0  0  0  0  0  0
  1 21  1  6  0  0  0
  1 13  1  0  0  0  0
  1 10  1  0  0  0  0
  2 19  1  0  0  0  0
  2 11  1  0  0  0  0
  4 10  1  1  0  0  0
  4  6  1  0  0  0  0
  4  2  1  0  0  0  0
  5  3  1  1  0  0  0
  6 13  1  1  0  0  0
  6  9  1  0  0  0  0
  7 24  1  1  0  0  0
  7 12  1  0  0  0  0
  8  5  1  0  0  0  0
  9  7  1  0  0  0  0
  9 11  1  0  0  0  0
 11  8  1  0  0  0  0
 12  5  1  0  0  0  0
 14 15  1  0  0  0  0
 15 18  1  0  0  0  0
 15 16  2  0  0  0  0
 17 14  2  0  0  0  0
 17 19  1  0  0  0  0
 19 20  2  0  0  0  0
 20 16  1  0  0  0  0
 22 21  1  0  0  0  0
 23 21  2  0  0  0  0
 24 25  1  0  0  0  0
 25 26  1  0  0  0  0
 26 29  1  0  0  0  0
 27 30  1  0  0  0  0
 28 31  1  0  0  0  0
 29 27  1  0  0  0  0
 29 28  1  0  0  0  0
 30 31  1  0  0  0  0
M  END
>  <MODEL>
7

>  <REMARK>
 VINA RESULT:      -6.6      3.439      7.517
  Name = 
  6 active torsions:
  status: ('A' for Active; 'I' for Inactive)
    1  A    between atoms: C_1  and  C_3
    2  A    between atoms: N_4  and  C_16
    3  A    between atoms: N_4  and  C_28
    4  A    between atoms: N_6  and  C_24
    5  A    between atoms: C_11  and  N_14
    6  A    between atoms: C_11  and  C_28
                            x       y       z     vdW  Elec       q    Type
                         _______ _______ _______ _____ _____    ______ ____

>  <TORSDO>
F 6

$$$$
=
 OpenBabel11042418553D

 31 35  0  0  1  0  0  0  0  0999 V2000
  192.2910  173.3880  143.9760 C   0  0  1  0  0  3  0  0  0  0  0  0
  189.4990  174.3750  141.8760 N   0  0  0  0  0  0  0  0  0  0  0  0
  187.0570  177.9040  141.2970 N   0  0  0  0  0  1  0  0  0  0  0  0
  190.1350  173.8710  143.0410 C   0  0  2  0  0  3  0  0  0  0  0  0
  187.0370  177.0560  142.4750 C   0  0  1  0  0  3  0  0  0  0  0  0
  190.1980  174.7840  143.9590 C   0  0  2  0  0  3  0  0  0  0  0  0
  188.7030  176.7680  144.3620 C   0  0  2  0  0  3  0  0  0  0  0  0
  187.6040  175.6760  142.1340 C   0  0  0  0  0  2  0  0  0  0  0  0
  189.6700  176.0600  143.3920 C   0  0  2  0  0  3  0  0  0  0  0  0
  191.1780  172.8170  143.0910 C   0  0  0  0  0  2  0  0  0  0  0  0
  189.0730  175.7040  142.0730 N   0  0  1  0  0  0  0  0  0  0  0  0
  187.7960  177.7450  143.6130 C   0  0  0  0  0  2  0  0  0  0  0  0
  191.5410  174.6190  145.1120 S   0  0  0  0  0  0  0  0  0  0  0  0
  188.2500  172.4300  138.9170 C   0  0  0  0  0  3  0  0  0  0  0  0
  189.3590  172.4920  138.0700 C   0  0  0  0  0  0  0  0  0  0  0  0
  190.5110  173.1720  138.4750 C   0  0  0  0  0  3  0  0  0  0  0  0
  188.2950  173.0450  140.1720 C   0  0  0  0  0  3  0  0  0  0  0  0
  189.3170  171.8960  136.8540 F   0  0  0  0  0  0  0  0  0  0  0  0
  189.4490  173.7250  140.5910 C   0  0  0  0  0  0  0  0  0  0  0  0
  190.5540  173.7870  139.7300 C   0  0  0  0  0  3  0  0  0  0  0  0
  193.0190  172.3110  144.7280 C   0  0  0  0  0  0  0  0  0  0  0  0
  193.9030  172.6400  145.6100 N   0  0  0  0  0  1  0  0  0  0  0  0
  193.0040  170.9710  144.2420 N   0  0  0  0  0  2  0  0  0  0  0  0
  189.4060  177.4170  145.4720 N   0  0  0  0  0  2  0  0  0  0  0  0
  188.5090  177.6120  146.6090 C   0  0  0  0  0  2  0  0  0  0  0  0
  187.6150  176.3960  146.7760 C   0  0  0  0  0  2  0  0  0  0  0  0
  185.3970  176.7860  146.1340 C   0  0  0  0  0  2  0  0  0  0  0  0
  186.4060  178.1980  147.6410 C   0  0  0  0  0  2  0  0  0  0  0  0
  186.3050  176.7980  147.2650 N   0  0  0  0  0  0  0  0  0  0  0  0
  184.6180  178.0780  146.1810 C   0  0  0  0  0  2  0  0  0  0  0  0
  185.1830  178.8820  147.2490 N   0  0  0  0  0  2  0  0  0  0  0  0
  1 21  1  1  0  0  0
  1 13  1  0  0  0  0
  2 11  1  0  0  0  0
  2  4  1  0  0  0  0
  4 10  1  6  0  0  0
  4  6  1  0  0  0  0
  5  3  1  6  0  0  0
  5 12  1  0  0  0  0
  6 13  1  6  0  0  0
  7 24  1  1  0  0  0
  8  5  1  0  0  0  0
  9  6  1  0  0  0  0
  9  7  1  0  0  0  0
 10  1  1  0  0  0  0
 11  8  1  0  0  0  0
 11  9  1  0  0  0  0
 12  7  1  0  0  0  0
 14 17  1  0  0  0  0
 15 16  1  0  0  0  0
 15 14  2  0  0  0  0
 16 20  2  0  0  0  0
 17 19  2  0  0  0  0
 18 15  1  0  0  0  0
 19  2  1  0  0  0  0
 20 19  1  0  0  0  0
 21 22  1  0  0  0  0
 23 21  2  0  0  0  0
 24 25  1  0  0  0  0
 25 26  1  0  0  0  0
 26 29  1  0  0  0  0
 27 30  1  0  0  0  0
 27 29  1  0  0  0  0
 29 28  1  0  0  0  0
 30 31  1  0  0  0  0
 31 28  1  0  0  0  0
M  END
>  <MODEL>
8

>  <REMARK>
 VINA RESULT:      -6.5      3.642      7.835
  Name = 
  6 active torsions:
  status: ('A' for Active; 'I' for Inactive)
    1  A    between atoms: C_1  and  C_3
    2  A    between atoms: N_4  and  C_16
    3  A    between atoms: N_4  and  C_28
    4  A    between atoms: N_6  and  C_24
    5  A    between atoms: C_11  and  N_14
    6  A    between atoms: C_11  and  C_28
                            x       y       z     vdW  Elec       q    Type
                         _______ _______ _______ _____ _____    ______ ____

>  <TORSDO>
F 6

$$$$
=
 OpenBabel11042418553D

 31 35  0  0  1  0  0  0  0  0999 V2000
  187.2350  177.8200  142.3560 C   0  0  1  0  0  3  0  0  0  0  0  0
  189.2490  175.0940  143.6540 N   0  0  0  0  0  0  0  0  0  0  0  0
  191.7520  171.9490  142.0400 N   0  0  0  0  0  1  0  0  0  0  0  0
  188.0860  175.7140  143.1260 C   0  0  2  0  0  3  0  0  0  0  0  0
  190.3070  172.0170  141.9160 C   0  0  1  0  0  3  0  0  0  0  0  0
  187.9720  175.4670  141.8590 C   0  0  2  0  0  3  0  0  0  0  0  0
  188.8120  173.5100  140.5170 C   0  0  2  0  0  3  0  0  0  0  0  0
  189.7310  172.9280  143.0030 C   0  0  0  0  0  2  0  0  0  0  0  0
  189.1790  174.7080  141.4160 C   0  0  2  0  0  3  0  0  0  0  0  0
  187.4580  176.9680  143.6090 C   0  0  0  0  0  2  0  0  0  0  0  0
  189.9130  174.3460  142.6610 N   0  0  1  0  0  0  0  0  0  0  0  0
  189.9360  172.4740  140.5020 C   0  0  0  0  0  2  0  0  0  0  0  0
  187.0920  176.6910  140.9160 S   0  0  0  0  0  0  0  0  0  0  0  0
  191.4740  176.3730  146.3960 C   0  0  0  0  0  3  0  0  0  0  0  0
  190.8750  175.7930  147.5170 C   0  0  0  0  0  0  0  0  0  0  0  0
  189.7450  174.9850  147.3670 C   0  0  0  0  0  3  0  0  0  0  0  0
  190.9440  176.1410  145.1230 C   0  0  0  0  0  3  0  0  0  0  0  0
  191.3890  176.0170  148.7510 F   0  0  0  0  0  0  0  0  0  0  0  0
  189.8120  175.3260  144.9600 C   0  0  0  0  0  0  0  0  0  0  0  0
  189.2160  174.7550  146.0940 C   0  0  0  0  0  3  0  0  0  0  0  0
  186.0290  178.7070  142.4860 C   0  0  0  0  0  0  0  0  0  0  0  0
  185.8780  179.4210  143.5520 N   0  0  0  0  0  1  0  0  0  0  0  0
  184.9050  178.5060  141.6330 N   0  0  0  0  0  2  0  0  0  0  0  0
  188.4340  173.9250  139.1640 N   0  0  0  0  0  2  0  0  0  0  0  0
  189.0890  173.0860  138.1640 C   0  0  0  0  0  2  0  0  0  0  0  0
  189.6320  173.9510  137.0390 C   0  0  0  0  0  2  0  0  0  0  0  0
  189.5170  172.0540  135.6720 C   0  0  0  0  0  2  0  0  0  0  0  0
  191.4430  172.4870  136.8490 C   0  0  0  0  0  2  0  0  0  0  0  0
  190.3830  173.1360  136.0960 N   0  0  0  0  0  0  0  0  0  0  0  0
  190.3260  170.7820  135.7580 C   0  0  0  0  0  2  0  0  0  0  0  0
  191.6000  171.1240  136.3650 N   0  0  0  0  0  2  0  0  0  0  0  0
  1 21  1  1  0  0  0
  1 10  1  0  0  0  0
  2 19  1  0  0  0  0
  4 10  1  6  0  0  0
  4  2  1  0  0  0  0
  5  3  1  6  0  0  0
  5  8  1  0  0  0  0
  6 13  1  6  0  0  0
  6  4  1  0  0  0  0
  7 24  1  6  0  0  0
  7  9  1  0  0  0  0
  9  6  1  0  0  0  0
  9 11  1  0  0  0  0
 11  8  1  0  0  0  0
 11  2  1  0  0  0  0
 12  7  1  0  0  0  0
 12  5  1  0  0  0  0
 13  1  1  0  0  0  0
 14 15  1  0  0  0  0
 15 18  1  0  0  0  0
 16 15  2  0  0  0  0
 17 14  2  0  0  0  0
 19 17  1  0  0  0  0
 19 20  2  0  0  0  0
 20 16  1  0  0  0  0
 21 22  1  0  0  0  0
 23 21  2  0  0  0  0
 25 24  1  0  0  0  0
 26 25  1  0  0  0  0
 27 30  1  0  0  0  0
 27 29  1  0  0  0  0
 29 28  1  0  0  0  0
 29 26  1  0  0  0  0
 30 31  1  0  0  0  0
 31 28  1  0  0  0  0
M  END
>  <MODEL>
9

>  <REMARK>
 VINA RESULT:      -6.4      3.762      6.739
  Name = 
  6 active torsions:
  status: ('A' for Active; 'I' for Inactive)
    1  A    between atoms: C_1  and  C_3
    2  A    between atoms: N_4  and  C_16
    3  A    between atoms: N_4  and  C_28
    4  A    between atoms: N_6  and  C_24
    5  A    between atoms: C_11  and  N_14
    6  A    between atoms: C_11  and  C_28
                            x       y       z     vdW  Elec       q    Type
                         _______ _______ _______ _____ _____    ______ ____

>  <TORSDO>
F 6

$$$$
