=
 OpenBabel11042413473D

 30 31  0  0  1  0  0  0  0  0999 V2000
  193.6460  175.6130  144.2440 N   0  0  0  0  0  0  0  0  0  0  0  0
  193.8380  175.4340  145.6600 C   0  0  0  0  0  0  0  0  0  0  0  0
  194.9430  175.7330  146.1890 O   0  0  0  0  0  0  0  0  0  0  0  0
  194.7810  175.9990  143.4160 C   0  0  0  0  0  1  0  0  0  0  0  0
  187.8220  176.1850  141.6200 N   0  0  0  0  0  0  0  0  0  0  0  0
  188.6120  175.0860  141.7550 C   0  0  0  0  0  3  0  0  0  0  0  0
  192.3600  175.4570  143.6230 C   0  0  0  0  0  0  0  0  0  0  0  0
  190.2820  176.4510  142.8490 C   0  0  0  0  0  0  0  0  0  0  0  0
  189.4540  177.5640  142.6970 C   0  0  0  0  0  3  0  0  0  0  0  0
  191.5260  176.5750  143.4660 C   0  0  0  0  0  3  0  0  0  0  0  0
  187.3560  178.5320  141.9130 N   0  0  0  0  0  1  0  0  0  0  0  0
  190.6820  174.0790  142.5220 C   0  0  0  0  0  3  0  0  0  0  0  0
  189.8580  175.1960  142.3730 C   0  0  0  0  0  0  0  0  0  0  0  0
  191.9360  174.1990  143.1460 C   0  0  0  0  0  0  0  0  0  0  0  0
  188.2120  177.4080  142.0730 C   0  0  0  0  0  0  0  0  0  0  0  0
  192.7630  173.0820  143.3130 O   0  0  0  0  0  0  0  0  0  0  0  0
  192.4740  172.0380  144.2340 C   0  0  0  0  0  1  0  0  0  0  0  0
  192.7540  174.8740  146.5300 C   0  0  0  0  0  2  0  0  0  0  0  0
  191.9660  175.9830  147.2070 C   0  0  0  0  0  2  0  0  0  0  0  0
  190.6000  175.4800  147.6440 C   0  0  0  0  0  2  0  0  0  0  0  0
  189.2750  174.7650  145.8310 O   0  0  0  0  0  0  0  0  0  0  0  0
  189.6000  175.6920  146.5580 C   0  0  0  0  0  0  0  0  0  0  0  0
  189.0000  177.0440  146.3640 C   0  0  0  0  0  2  0  0  0  0  0  0
  187.5850  176.9210  145.8160 C   0  0  0  0  0  2  0  0  0  0  0  0
  186.0590  177.3450  147.6300 O   0  0  0  0  0  1  0  0  0  0  0  0
  186.6190  177.9000  146.4780 C   0  0  2  0  0  3  0  0  0  0  0  0
  185.7260  179.9270  144.6540 O   0  0  0  0  0  1  0  0  0  0  0  0
  185.3080  178.4350  145.3340 P   0  0  0  0  0  0  0  0  0  0  0  0
  185.1090  177.2930  144.1020 O   0  0  0  0  0  0  0  0  0  0  0  0
  184.0090  178.5800  146.0940 O   0  0  0  0  0  1  0  0  0  0  0  0
  1  2  1  0  0  0  0
  2  3  2  0  0  0  0
  2 18  1  0  0  0  0
  4  1  1  0  0  0  0
  5  6  2  0  0  0  0
  5 15  1  0  0  0  0
  6 13  1  0  0  0  0
  7  1  1  0  0  0  0
  8 10  2  0  0  0  0
  9  8  1  0  0  0  0
 10  7  1  0  0  0  0
 11 15  1  0  0  0  0
 12 14  1  0  0  0  0
 13 12  2  0  0  0  0
 13  8  1  0  0  0  0
 14 16  1  0  0  0  0
 14  7  2  0  0  0  0
 15  9  2  0  0  0  0
 16 17  1  0  0  0  0
 18 19  1  0  0  0  0
 19 20  1  0  0  0  0
 21 22  2  0  0  0  0
 22 20  1  0  0  0  0
 23 22  1  0  0  0  0
 24 23  1  0  0  0  0
 24 26  1  0  0  0  0
 26 25  1  1  0  0  0
 27 28  1  0  0  0  0
 28 30  1  0  0  0  0
 28 26  1  0  0  0  0
 29 28  2  0  0  0  0
M  END
>  <MODEL>
1

>  <REMARK>
 VINA RESULT:      -6.2      0.000      0.000
  Name = 
  10 active torsions:
  status: ('A' for Active; 'I' for Inactive)
    1  A    between atoms: O_2  and  C_25
    2  A    between atoms: N_5  and  C_13
    3  A    between atoms: C_7  and  C_20
    4  A    between atoms: C_7  and  C_23
    5  A    between atoms: P_8  and  C_18
    6  A    between atoms: C_10  and  C_29
    7  A    between atoms: C_18  and  C_23
    8  A    between atoms: C_20  and  C_24
    9  A    between atoms: C_24  and  C_30
   10  A    between atoms: C_29  and  C_30
                            x       y       z     vdW  Elec       q    Type
                         _______ _______ _______ _____ _____    ______ ____

>  <TORSDO>
F 10

$$$$
=
 OpenBabel11042413473D

 30 31  0  0  1  0  0  0  0  0999 V2000
  190.6280  176.5470  144.2850 N   0  0  0  0  0  0  0  0  0  0  0  0
  190.8340  175.1470  144.0190 C   0  0  0  0  0  0  0  0  0  0  0  0
  191.8330  174.7740  143.3450 O   0  0  0  0  0  0  0  0  0  0  0  0
  191.4970  177.5270  143.6460 C   0  0  0  0  0  1  0  0  0  0  0  0
  185.3600  178.6490  147.2780 N   0  0  0  0  0  0  0  0  0  0  0  0
  186.5760  178.3140  147.7880 C   0  0  0  0  0  3  0  0  0  0  0  0
  189.6130  177.0110  145.1900 C   0  0  0  0  0  0  0  0  0  0  0  0
  187.3420  177.7930  145.5540 C   0  0  0  0  0  0  0  0  0  0  0  0
  186.0860  178.1430  145.0550 C   0  0  0  0  0  3  0  0  0  0  0  0
  188.3480  177.3590  144.6920 C   0  0  0  0  0  3  0  0  0  0  0  0
  183.8120  178.9350  145.4520 N   0  0  0  0  0  1  0  0  0  0  0  0
  188.8460  177.5320  147.4410 C   0  0  0  0  0  3  0  0  0  0  0  0
  187.5920  177.8790  146.9370 C   0  0  0  0  0  0  0  0  0  0  0  0
  189.8650  177.0960  146.5750 C   0  0  0  0  0  0  0  0  0  0  0  0
  185.0970  178.5740  145.9450 C   0  0  0  0  0  0  0  0  0  0  0  0
  191.1300  176.7590  147.0700 O   0  0  0  0  0  0  0  0  0  0  0  0
  191.3940  175.5350  147.7440 C   0  0  0  0  0  1  0  0  0  0  0  0
  189.8700  174.1100  144.5090 C   0  0  0  0  0  2  0  0  0  0  0  0
  190.3390  172.7100  144.1460 C   0  0  0  0  0  2  0  0  0  0  0  0
  189.2880  171.9930  143.3140 C   0  0  0  0  0  2  0  0  0  0  0  0
  190.3560  172.3320  141.2410 O   0  0  0  0  0  0  0  0  0  0  0  0
  189.3370  172.4680  141.9000 C   0  0  0  0  0  0  0  0  0  0  0  0
  188.1330  173.1110  141.2980 C   0  0  0  0  0  2  0  0  0  0  0  0
  188.4350  174.5560  140.9270 C   0  0  0  0  0  2  0  0  0  0  0  0
  186.7550  174.9470  142.6080 O   0  0  0  0  0  1  0  0  0  0  0  0
  187.7890  175.5500  141.8870 C   0  0  2  0  0  3  0  0  0  0  0  0
  185.6540  177.4490  141.6290 O   0  0  0  0  0  1  0  0  0  0  0  0
  187.1740  177.0280  141.0190 P   0  0  0  0  0  0  0  0  0  0  0  0
  188.2450  178.3180  141.2400 O   0  0  0  0  0  1  0  0  0  0  0  0
  187.0530  176.7270  139.5430 O   0  0  0  0  0  0  0  0  0  0  0  0
  1  7  1  0  0  0  0
  2  1  1  0  0  0  0
  2 18  1  0  0  0  0
  3  2  2  0  0  0  0
  4  1  1  0  0  0  0
  5  6  1  0  0  0  0
  7 14  1  0  0  0  0
  8 13  1  0  0  0  0
  9  8  2  0  0  0  0
  9 15  1  0  0  0  0
 10  7  2  0  0  0  0
 10  8  1  0  0  0  0
 11 15  1  0  0  0  0
 13 12  1  0  0  0  0
 13  6  2  0  0  0  0
 14 16  1  0  0  0  0
 14 12  2  0  0  0  0
 15  5  2  0  0  0  0
 16 17  1  0  0  0  0
 19 18  1  0  0  0  0
 20 19  1  0  0  0  0
 21 22  2  0  0  0  0
 22 20  1  0  0  0  0
 23 22  1  0  0  0  0
 24 23  1  0  0  0  0
 24 26  1  0  0  0  0
 26 25  1  6  0  0  0
 28 29  1  0  0  0  0
 28 27  1  0  0  0  0
 28 26  1  0  0  0  0
 30 28  2  0  0  0  0
M  END
>  <MODEL>
2

>  <REMARK>
 VINA RESULT:      -5.9      2.802      5.122
  Name = 
  10 active torsions:
  status: ('A' for Active; 'I' for Inactive)
    1  A    between atoms: O_2  and  C_25
    2  A    between atoms: N_5  and  C_13
    3  A    between atoms: C_7  and  C_20
    4  A    between atoms: C_7  and  C_23
    5  A    between atoms: P_8  and  C_18
    6  A    between atoms: C_10  and  C_29
    7  A    between atoms: C_18  and  C_23
    8  A    between atoms: C_20  and  C_24
    9  A    between atoms: C_24  and  C_30
   10  A    between atoms: C_29  and  C_30
                            x       y       z     vdW  Elec       q    Type
                         _______ _______ _______ _____ _____    ______ ____

>  <TORSDO>
F 10

$$$$
=
 OpenBabel11042413473D

 30 31  0  0  1  0  0  0  0  0999 V2000
  186.3060  178.4780  143.8250 N   0  0  0  0  0  0  0  0  0  0  0  0
  185.9470  178.0230  142.5070 C   0  0  0  0  0  0  0  0  0  0  0  0
  185.3150  178.7850  141.7270 O   0  0  0  0  0  0  0  0  0  0  0  0
  185.8040  179.7640  144.2940 C   0  0  0  0  0  1  0  0  0  0  0  0
  191.1180  175.6690  147.0000 N   0  0  0  0  0  0  0  0  0  0  0  0
  189.7750  175.5860  147.2030 C   0  0  0  0  0  3  0  0  0  0  0  0
  187.1740  177.7220  144.6850 C   0  0  0  0  0  0  0  0  0  0  0  0
  189.4260  177.0820  145.3350 C   0  0  0  0  0  0  0  0  0  0  0  0
  190.8070  177.1510  145.1480 C   0  0  0  0  0  3  0  0  0  0  0  0
  188.5640  177.7920  144.5010 C   0  0  0  0  0  3  0  0  0  0  0  0
  193.0560  176.4860  145.8230 N   0  0  0  0  0  1  0  0  0  0  0  0
  187.5210  176.2170  146.5660 C   0  0  0  0  0  3  0  0  0  0  0  0
  188.9020  176.2900  146.3750 C   0  0  0  0  0  0  0  0  0  0  0  0
  186.6480  176.9290  145.7260 C   0  0  0  0  0  0  0  0  0  0  0  0
  191.6470  176.4280  146.0010 C   0  0  0  0  0  0  0  0  0  0  0  0
  185.2610  176.8510  145.9010 O   0  0  0  0  0  0  0  0  0  0  0  0
  184.5550  177.6540  146.8380 C   0  0  0  0  0  1  0  0  0  0  0  0
  186.2900  176.6410  142.0400 C   0  0  0  0  0  2  0  0  0  0  0  0
  187.4170  176.6710  141.0200 C   0  0  0  0  0  2  0  0  0  0  0  0
  188.5660  175.7820  141.4670 C   0  0  0  0  0  2  0  0  0  0  0  0
  188.4130  174.2740  139.6630 O   0  0  0  0  0  0  0  0  0  0  0  0
  188.4250  174.4200  140.8750 C   0  0  0  0  0  0  0  0  0  0  0  0
  188.2970  173.2370  141.7750 C   0  0  0  0  0  2  0  0  0  0  0  0
  189.0270  173.4900  143.0880 C   0  0  0  0  0  2  0  0  0  0  0  0
  189.7270  172.3920  145.1140 O   0  0  0  0  0  1  0  0  0  0  0  0
  189.4930  172.1970  143.7510 C   0  0  2  0  0  3  0  0  0  0  0  0
  191.7660  172.7500  142.0900 O   0  0  0  0  0  1  0  0  0  0  0  0
  190.9800  171.5210  142.9460 P   0  0  0  0  0  0  0  0  0  0  0  0
  192.0320  170.8860  144.1080 O   0  0  0  0  0  1  0  0  0  0  0  0
  190.5750  170.4260  141.9870 O   0  0  0  0  0  0  0  0  0  0  0  0
  1  4  1  0  0  0  0
  1  7  1  0  0  0  0
  2  1  1  0  0  0  0
  3  2  2  0  0  0  0
  5  6  1  0  0  0  0
  7 14  1  0  0  0  0
  8 13  1  0  0  0  0
  9  8  2  0  0  0  0
  9 15  1  0  0  0  0
 10  7  2  0  0  0  0
 10  8  1  0  0  0  0
 11 15  1  0  0  0  0
 13 12  1  0  0  0  0
 13  6  2  0  0  0  0
 14 16  1  0  0  0  0
 14 12  2  0  0  0  0
 15  5  2  0  0  0  0
 16 17  1  0  0  0  0
 18  2  1  0  0  0  0
 19 20  1  0  0  0  0
 19 18  1  0  0  0  0
 21 22  2  0  0  0  0
 22 20  1  0  0  0  0
 22 23  1  0  0  0  0
 23 24  1  0  0  0  0
 24 26  1  0  0  0  0
 26 25  1  1  0  0  0
 27 28  1  0  0  0  0
 28 26  1  0  0  0  0
 28 29  1  0  0  0  0
 30 28  2  0  0  0  0
M  END
>  <MODEL>
3

>  <REMARK>
 VINA RESULT:      -5.9      2.905      7.362
  Name = 
  10 active torsions:
  status: ('A' for Active; 'I' for Inactive)
    1  A    between atoms: O_2  and  C_25
    2  A    between atoms: N_5  and  C_13
    3  A    between atoms: C_7  and  C_20
    4  A    between atoms: C_7  and  C_23
    5  A    between atoms: P_8  and  C_18
    6  A    between atoms: C_10  and  C_29
    7  A    between atoms: C_18  and  C_23
    8  A    between atoms: C_20  and  C_24
    9  A    between atoms: C_24  and  C_30
   10  A    between atoms: C_29  and  C_30
                            x       y       z     vdW  Elec       q    Type
                         _______ _______ _______ _____ _____    ______ ____

>  <TORSDO>
F 10

$$$$
=
 OpenBabel11042413473D

 30 31  0  0  1  0  0  0  0  0999 V2000
  193.3380  175.8410  143.9700 N   0  0  0  0  0  0  0  0  0  0  0  0
  192.5430  176.6570  144.8510 C   0  0  0  0  0  0  0  0  0  0  0  0
  191.6220  177.3800  144.3810 O   0  0  0  0  0  0  0  0  0  0  0  0
  193.1660  175.9740  142.5290 C   0  0  0  0  0  1  0  0  0  0  0  0
  196.5120  170.7280  146.1840 N   0  0  0  0  0  0  0  0  0  0  0  0
  196.9740  171.9670  145.8640 C   0  0  0  0  0  3  0  0  0  0  0  0
  194.2760  174.8720  144.4670 C   0  0  0  0  0  0  0  0  0  0  0  0
  194.7230  172.6220  145.2670 C   0  0  0  0  0  0  0  0  0  0  0  0
  194.2750  171.3430  145.6020 C   0  0  0  0  0  3  0  0  0  0  0  0
  193.8280  173.5840  144.8010 C   0  0  0  0  0  3  0  0  0  0  0  0
  194.7560  169.0920  146.4120 N   0  0  0  0  0  1  0  0  0  0  0  0
  196.5420  174.2160  145.0650 C   0  0  0  0  0  3  0  0  0  0  0  0
  196.0880  172.9390  145.3980 C   0  0  0  0  0  0  0  0  0  0  0  0
  195.6430  175.1910  144.5980 C   0  0  0  0  0  0  0  0  0  0  0  0
  195.1970  170.3990  146.0650 C   0  0  0  0  0  0  0  0  0  0  0  0
  196.0860  176.4790  144.2750 O   0  0  0  0  0  0  0  0  0  0  0  0
  196.8150  176.7690  143.0890 C   0  0  0  0  0  1  0  0  0  0  0  0
  192.7970  176.6880  146.3270 C   0  0  0  0  0  2  0  0  0  0  0  0
  191.5170  176.4430  147.1090 C   0  0  0  0  0  2  0  0  0  0  0  0
  190.9570  175.0640  146.8000 C   0  0  0  0  0  2  0  0  0  0  0  0
  188.8680  174.4050  147.6690 O   0  0  0  0  0  0  0  0  0  0  0  0
  189.4660  175.0890  146.8530 C   0  0  0  0  0  0  0  0  0  0  0  0
  188.7110  175.9520  145.8990 C   0  0  0  0  0  2  0  0  0  0  0  0
  187.6930  176.8020  146.6470 C   0  0  0  0  0  2  0  0  0  0  0  0
  186.5440  176.7340  144.5310 O   0  0  0  0  0  1  0  0  0  0  0  0
  186.3620  176.9000  145.9060 C   0  0  2  0  0  3  0  0  0  0  0  0
  186.0990  179.1320  147.6890 O   0  0  0  0  0  1  0  0  0  0  0  0
  185.5140  178.4750  146.2450 P   0  0  0  0  0  0  0  0  0  0  0  0
  185.7850  179.5650  144.9810 O   0  0  0  0  0  0  0  0  0  0  0  0
  184.0290  178.2250  146.3780 O   0  0  0  0  0  1  0  0  0  0  0  0
  1  7  1  0  0  0  0
  1  2  1  0  0  0  0
  2 18  1  0  0  0  0
  3  2  2  0  0  0  0
  4  1  1  0  0  0  0
  6  5  2  0  0  0  0
  7 14  2  0  0  0  0
  7 10  1  0  0  0  0
  8 13  1  0  0  0  0
  8  9  1  0  0  0  0
  9 15  2  0  0  0  0
 10  8  2  0  0  0  0
 12 13  2  0  0  0  0
 13  6  1  0  0  0  0
 14 12  1  0  0  0  0
 15  5  1  0  0  0  0
 15 11  1  0  0  0  0
 16 14  1  0  0  0  0
 17 16  1  0  0  0  0
 18 19  1  0  0  0  0
 20 22  1  0  0  0  0
 20 19  1  0  0  0  0
 22 21  2  0  0  0  0
 23 24  1  0  0  0  0
 23 22  1  0  0  0  0
 26 25  1  6  0  0  0
 26 28  1  0  0  0  0
 26 24  1  0  0  0  0
 28 30  1  0  0  0  0
 28 27  1  0  0  0  0
 29 28  2  0  0  0  0
M  END
>  <MODEL>
4

>  <REMARK>
 VINA RESULT:      -5.8      2.752      5.396
  Name = 
  10 active torsions:
  status: ('A' for Active; 'I' for Inactive)
    1  A    between atoms: O_2  and  C_25
    2  A    between atoms: N_5  and  C_13
    3  A    between atoms: C_7  and  C_20
    4  A    between atoms: C_7  and  C_23
    5  A    between atoms: P_8  and  C_18
    6  A    between atoms: C_10  and  C_29
    7  A    between atoms: C_18  and  C_23
    8  A    between atoms: C_20  and  C_24
    9  A    between atoms: C_24  and  C_30
   10  A    between atoms: C_29  and  C_30
                            x       y       z     vdW  Elec       q    Type
                         _______ _______ _______ _____ _____    ______ ____

>  <TORSDO>
F 10

$$$$
=
 OpenBabel11042413473D

 30 31  0  0  1  0  0  0  0  0999 V2000
  186.5280  178.2890  143.8740 N   0  0  0  0  0  0  0  0  0  0  0  0
  186.1620  177.7740  142.5800 C   0  0  0  0  0  0  0  0  0  0  0  0
  185.5310  178.5020  141.7670 O   0  0  0  0  0  0  0  0  0  0  0  0
  186.0340  179.5980  144.2830 C   0  0  0  0  0  1  0  0  0  0  0  0
  191.3340  175.6950  147.2360 N   0  0  0  0  0  0  0  0  0  0  0  0
  189.9900  175.5440  147.3800 C   0  0  0  0  0  3  0  0  0  0  0  0
  187.3950  177.5690  144.7650 C   0  0  0  0  0  0  0  0  0  0  0  0
  189.6460  177.0360  145.5080 C   0  0  0  0  0  0  0  0  0  0  0  0
  191.0290  177.1750  145.3810 C   0  0  0  0  0  3  0  0  0  0  0  0
  188.7870  177.7100  144.6420 C   0  0  0  0  0  3  0  0  0  0  0  0
  193.2780  176.6180  146.1480 N   0  0  0  0  0  1  0  0  0  0  0  0
  187.7370  176.0680  146.6510 C   0  0  0  0  0  3  0  0  0  0  0  0
  189.1180  176.2110  146.5190 C   0  0  0  0  0  0  0  0  0  0  0  0
  186.8650  176.7430  145.7780 C   0  0  0  0  0  0  0  0  0  0  0  0
  191.8660  176.4880  146.2650 C   0  0  0  0  0  0  0  0  0  0  0  0
  185.4780  176.5940  145.8930 O   0  0  0  0  0  0  0  0  0  0  0  0
  184.6870  177.3880  146.7670 C   0  0  0  0  0  1  0  0  0  0  0  0
  186.4960  176.3700  142.1770 C   0  0  0  0  0  2  0  0  0  0  0  0
  187.7480  176.3280  141.3170 C   0  0  0  0  0  2  0  0  0  0  0  0
  188.3460  174.9310  141.3070 C   0  0  0  0  0  2  0  0  0  0  0  0
  190.3940  175.6130  142.2530 O   0  0  0  0  0  0  0  0  0  0  0  0
  189.4520  174.8360  142.3040 C   0  0  0  0  0  0  0  0  0  0  0  0
  189.4010  173.7850  143.3610 C   0  0  0  0  0  2  0  0  0  0  0  0
  190.7180  173.7390  144.1240 C   0  0  0  0  0  2  0  0  0  0  0  0
  191.2350  171.3910  143.9730 O   0  0  0  0  0  1  0  0  0  0  0  0
  191.6610  172.6650  143.5900 C   0  0  2  0  0  3  0  0  0  0  0  0
  194.0400  174.2340  143.2570 O   0  0  0  0  0  0  0  0  0  0  0  0
  193.3780  172.9440  144.1280 P   0  0  0  0  0  0  0  0  0  0  0  0
  193.4190  173.3030  145.7800 O   0  0  0  0  0  1  0  0  0  0  0  0
  194.1930  171.6970  143.8680 O   0  0  0  0  0  1  0  0  0  0  0  0
  1  4  1  0  0  0  0
  1  7  1  0  0  0  0
  2  1  1  0  0  0  0
  3  2  2  0  0  0  0
  5  6  1  0  0  0  0
  7 14  1  0  0  0  0
  8 13  1  0  0  0  0
  9  8  2  0  0  0  0
  9 15  1  0  0  0  0
 10  7  2  0  0  0  0
 10  8  1  0  0  0  0
 11 15  1  0  0  0  0
 13 12  1  0  0  0  0
 13  6  2  0  0  0  0
 14 16  1  0  0  0  0
 14 12  2  0  0  0  0
 15  5  2  0  0  0  0
 16 17  1  0  0  0  0
 18  2  1  0  0  0  0
 19 18  1  0  0  0  0
 20 19  1  0  0  0  0
 20 22  1  0  0  0  0
 21 22  2  0  0  0  0
 22 23  1  0  0  0  0
 23 24  1  0  0  0  0
 26 25  1  1  0  0  0
 26 24  1  0  0  0  0
 26 28  1  0  0  0  0
 27 28  2  0  0  0  0
 28 29  1  0  0  0  0
 30 28  1  0  0  0  0
M  END
>  <MODEL>
5

>  <REMARK>
 VINA RESULT:      -5.8      2.741      7.379
  Name = 
  10 active torsions:
  status: ('A' for Active; 'I' for Inactive)
    1  A    between atoms: O_2  and  C_25
    2  A    between atoms: N_5  and  C_13
    3  A    between atoms: C_7  and  C_20
    4  A    between atoms: C_7  and  C_23
    5  A    between atoms: P_8  and  C_18
    6  A    between atoms: C_10  and  C_29
    7  A    between atoms: C_18  and  C_23
    8  A    between atoms: C_20  and  C_24
    9  A    between atoms: C_24  and  C_30
   10  A    between atoms: C_29  and  C_30
                            x       y       z     vdW  Elec       q    Type
                         _______ _______ _______ _____ _____    ______ ____

>  <TORSDO>
F 10

$$$$
=
 OpenBabel11042413473D

 30 31  0  0  1  0  0  0  0  0999 V2000
  188.9900  175.4210  142.7060 N   0  0  0  0  0  0  0  0  0  0  0  0
  190.3080  176.0020  142.6760 C   0  0  0  0  0  0  0  0  0  0  0  0
  191.2850  175.3260  142.2550 O   0  0  0  0  0  0  0  0  0  0  0  0
  188.8290  174.0080  142.3880 C   0  0  0  0  0  1  0  0  0  0  0  0
  184.1180  178.7120  145.2680 N   0  0  0  0  0  0  0  0  0  0  0  0
  184.4460  178.5170  143.9620 C   0  0  0  0  0  3  0  0  0  0  0  0
  187.8200  176.1990  143.0070 C   0  0  0  0  0  0  0  0  0  0  0  0
  186.3400  177.1870  144.6620 C   0  0  0  0  0  0  0  0  0  0  0  0
  185.9830  177.4010  145.9940 C   0  0  0  0  0  3  0  0  0  0  0  0
  187.4610  176.4190  144.3460 C   0  0  0  0  0  3  0  0  0  0  0  0
  184.4770  178.4030  147.6320 N   0  0  0  0  0  1  0  0  0  0  0  0
  185.9150  177.5380  142.2990 C   0  0  0  0  0  3  0  0  0  0  0  0
  185.5630  177.7500  143.6320 C   0  0  0  0  0  0  0  0  0  0  0  0
  187.0430  176.7630  141.9750 C   0  0  0  0  0  0  0  0  0  0  0  0
  184.8550  178.1760  146.2800 C   0  0  0  0  0  0  0  0  0  0  0  0
  187.3950  176.5330  140.6390 O   0  0  0  0  0  0  0  0  0  0  0  0
  186.7100  177.1310  139.5470 C   0  0  0  0  0  1  0  0  0  0  0  0
  190.5550  177.3980  143.1590 C   0  0  0  0  0  2  0  0  0  0  0  0
  191.5750  177.4160  144.2860 C   0  0  0  0  0  2  0  0  0  0  0  0
  191.0500  176.6590  145.4950 C   0  0  0  0  0  2  0  0  0  0  0  0
  191.9940  175.1120  147.0010 O   0  0  0  0  0  0  0  0  0  0  0  0
  192.1820  176.0700  146.2670 C   0  0  0  0  0  0  0  0  0  0  0  0
  193.5460  176.6610  146.1390 C   0  0  0  0  0  2  0  0  0  0  0  0
  194.5570  175.5850  145.7680 C   0  0  0  0  0  2  0  0  0  0  0  0
  193.9840  174.1860  143.8920 O   0  0  0  0  0  1  0  0  0  0  0  0
  194.6420  175.3620  144.2610 C   0  0  2  0  0  3  0  0  0  0  0  0
  196.4620  174.4260  142.2520 O   0  0  0  0  0  0  0  0  0  0  0  0
  196.3660  175.3290  143.6780 P   0  0  0  0  0  0  0  0  0  0  0  0
  196.9100  176.9030  143.3830 O   0  0  0  0  0  1  0  0  0  0  0  0
  197.2390  174.6890  144.7330 O   0  0  0  0  0  1  0  0  0  0  0  0
  1  7  1  0  0  0  0
  2  1  1  0  0  0  0
  2 18  1  0  0  0  0
  3  2  2  0  0  0  0
  4  1  1  0  0  0  0
  5 15  1  0  0  0  0
  6  5  2  0  0  0  0
  7 10  1  0  0  0  0
  8  9  1  0  0  0  0
  9 15  2  0  0  0  0
 10  8  2  0  0  0  0
 12 13  2  0  0  0  0
 13  6  1  0  0  0  0
 13  8  1  0  0  0  0
 14 12  1  0  0  0  0
 14  7  2  0  0  0  0
 15 11  1  0  0  0  0
 16 14  1  0  0  0  0
 17 16  1  0  0  0  0
 18 19  1  0  0  0  0
 19 20  1  0  0  0  0
 20 22  1  0  0  0  0
 22 21  2  0  0  0  0
 23 22  1  0  0  0  0
 24 23  1  0  0  0  0
 26 25  1  1  0  0  0
 26 24  1  0  0  0  0
 27 28  2  0  0  0  0
 28 26  1  0  0  0  0
 28 30  1  0  0  0  0
 29 28  1  0  0  0  0
M  END
>  <MODEL>
6

>  <REMARK>
 VINA RESULT:      -5.7      3.601      6.985
  Name = 
  10 active torsions:
  status: ('A' for Active; 'I' for Inactive)
    1  A    between atoms: O_2  and  C_25
    2  A    between atoms: N_5  and  C_13
    3  A    between atoms: C_7  and  C_20
    4  A    between atoms: C_7  and  C_23
    5  A    between atoms: P_8  and  C_18
    6  A    between atoms: C_10  and  C_29
    7  A    between atoms: C_18  and  C_23
    8  A    between atoms: C_20  and  C_24
    9  A    between atoms: C_24  and  C_30
   10  A    between atoms: C_29  and  C_30
                            x       y       z     vdW  Elec       q    Type
                         _______ _______ _______ _____ _____    ______ ____

>  <TORSDO>
F 10

$$$$
=
 OpenBabel11042413473D

 30 31  0  0  1  0  0  0  0  0999 V2000
  189.3360  176.9910  142.6300 N   0  0  0  0  0  0  0  0  0  0  0  0
  189.5370  175.6420  142.1680 C   0  0  0  0  0  0  0  0  0  0  0  0
  190.7050  175.2050  141.9870 O   0  0  0  0  0  0  0  0  0  0  0  0
  190.4840  177.8820  142.7420 C   0  0  0  0  0  1  0  0  0  0  0  0
  183.9830  178.9630  145.5590 N   0  0  0  0  0  0  0  0  0  0  0  0
  184.3000  178.9590  144.2360 C   0  0  0  0  0  3  0  0  0  0  0  0
  188.0430  177.4800  143.0190 C   0  0  0  0  0  0  0  0  0  0  0  0
  186.4480  177.9890  144.7810 C   0  0  0  0  0  0  0  0  0  0  0  0
  186.0980  178.0050  146.1320 C   0  0  0  0  0  3  0  0  0  0  0  0
  187.6900  177.5010  144.3780 C   0  0  0  0  0  3  0  0  0  0  0  0
  184.4740  178.5230  147.8780 N   0  0  0  0  0  1  0  0  0  0  0  0
  185.8820  178.4570  142.4670 C   0  0  0  0  0  3  0  0  0  0  0  0
  185.5390  178.4710  143.8200 C   0  0  0  0  0  0  0  0  0  0  0  0
  187.1330  177.9630  142.0560 C   0  0  0  0  0  0  0  0  0  0  0  0
  184.8460  178.5020  146.5050 C   0  0  0  0  0  0  0  0  0  0  0  0
  187.4810  177.9320  140.7000 O   0  0  0  0  0  0  0  0  0  0  0  0
  186.6080  177.4410  139.6910 C   0  0  0  0  0  1  0  0  0  0  0  0
  188.3780  174.7400  141.8700 C   0  0  0  0  0  2  0  0  0  0  0  0
  188.8530  173.3580  141.4500 C   0  0  0  0  0  2  0  0  0  0  0  0
  188.5730  172.3410  142.5440 C   0  0  0  0  0  2  0  0  0  0  0  0
  190.7980  171.5690  142.6140 O   0  0  0  0  0  0  0  0  0  0  0  0
  189.8370  171.9780  143.2480 C   0  0  0  0  0  0  0  0  0  0  0  0
  189.9190  172.1150  144.7310 C   0  0  0  0  0  2  0  0  0  0  0  0
  190.0720  173.5800  145.1180 C   0  0  0  0  0  2  0  0  0  0  0  0
  192.4270  173.0770  145.1750 O   0  0  0  0  0  1  0  0  0  0  0  0
  191.4980  174.0870  144.9200 C   0  0  2  0  0  3  0  0  0  0  0  0
  193.1410  176.4090  145.2920 O   0  0  0  0  0  0  0  0  0  0  0  0
  191.8480  175.5430  145.9550 P   0  0  0  0  0  0  0  0  0  0  0  0
  190.4860  176.5420  146.0340 O   0  0  0  0  0  1  0  0  0  0  0  0
  192.2160  175.0890  147.3490 O   0  0  0  0  0  1  0  0  0  0  0  0
  1  4  1  0  0  0  0
  1  7  1  0  0  0  0
  2  1  1  0  0  0  0
  3  2  2  0  0  0  0
  5 15  1  0  0  0  0
  6  5  2  0  0  0  0
  7 10  1  0  0  0  0
  8  9  1  0  0  0  0
  9 15  2  0  0  0  0
 10  8  2  0  0  0  0
 12 13  2  0  0  0  0
 13  6  1  0  0  0  0
 13  8  1  0  0  0  0
 14 12  1  0  0  0  0
 14  7  2  0  0  0  0
 15 11  1  0  0  0  0
 16 14  1  0  0  0  0
 17 16  1  0  0  0  0
 18  2  1  0  0  0  0
 19 18  1  0  0  0  0
 19 20  1  0  0  0  0
 20 22  1  0  0  0  0
 21 22  2  0  0  0  0
 22 23  1  0  0  0  0
 23 24  1  0  0  0  0
 26 24  1  0  0  0  0
 26 25  1  1  0  0  0
 26 28  1  0  0  0  0
 27 28  2  0  0  0  0
 28 29  1  0  0  0  0
 28 30  1  0  0  0  0
M  END
>  <MODEL>
7

>  <REMARK>
 VINA RESULT:      -5.7      3.117      6.237
  Name = 
  10 active torsions:
  status: ('A' for Active; 'I' for Inactive)
    1  A    between atoms: O_2  and  C_25
    2  A    between atoms: N_5  and  C_13
    3  A    between atoms: C_7  and  C_20
    4  A    between atoms: C_7  and  C_23
    5  A    between atoms: P_8  and  C_18
    6  A    between atoms: C_10  and  C_29
    7  A    between atoms: C_18  and  C_23
    8  A    between atoms: C_20  and  C_24
    9  A    between atoms: C_24  and  C_30
   10  A    between atoms: C_29  and  C_30
                            x       y       z     vdW  Elec       q    Type
                         _______ _______ _______ _____ _____    ______ ____

>  <TORSDO>
F 10

$$$$
=
 OpenBabel11042413473D

 30 31  0  0  1  0  0  0  0  0999 V2000
  190.5930  176.7880  144.1860 N   0  0  0  0  0  0  0  0  0  0  0  0
  189.2350  176.9820  144.6250 C   0  0  0  0  0  0  0  0  0  0  0  0
  188.5890  177.9960  144.2480 O   0  0  0  0  0  0  0  0  0  0  0  0
  191.2520  177.8450  143.4290 C   0  0  0  0  0  1  0  0  0  0  0  0
  193.3180  170.9830  144.1890 N   0  0  0  0  0  0  0  0  0  0  0  0
  193.4370  172.0010  145.0840 C   0  0  0  0  0  3  0  0  0  0  0  0
  191.3120  175.5710  144.4390 C   0  0  0  0  0  0  0  0  0  0  0  0
  191.9150  173.3210  143.7470 C   0  0  0  0  0  0  0  0  0  0  0  0
  191.8100  172.2620  142.8430 C   0  0  0  0  0  3  0  0  0  0  0  0
  191.2110  174.5050  143.5310 C   0  0  0  0  0  3  0  0  0  0  0  0
  192.4320  169.9990  142.1760 N   0  0  0  0  0  1  0  0  0  0  0  0
  192.8450  174.2460  145.7880 C   0  0  0  0  0  3  0  0  0  0  0  0
  192.7370  173.1910  144.8810 C   0  0  0  0  0  0  0  0  0  0  0  0
  192.1360  175.4420  145.5770 C   0  0  0  0  0  0  0  0  0  0  0  0
  192.5290  171.0870  143.0860 C   0  0  0  0  0  0  0  0  0  0  0  0
  192.2270  176.5000  146.4880 O   0  0  0  0  0  0  0  0  0  0  0  0
  191.6190  176.4660  147.7730 C   0  0  0  0  0  1  0  0  0  0  0  0
  188.5690  176.0080  145.5490 C   0  0  0  0  0  2  0  0  0  0  0  0
  188.1260  176.6880  146.8350 C   0  0  0  0  0  2  0  0  0  0  0  0
  186.6100  176.7310  146.9220 C   0  0  0  0  0  2  0  0  0  0  0  0
  186.8890  178.7580  148.0910 O   0  0  0  0  0  0  0  0  0  0  0  0
  186.1580  178.0730  147.3930 C   0  0  0  0  0  0  0  0  0  0  0  0
  184.8060  178.5710  147.0060 C   0  0  0  0  0  2  0  0  0  0  0  0
  184.4660  178.1310  145.5880 C   0  0  0  0  0  2  0  0  0  0  0  0
  184.8700  180.1770  144.3820 O   0  0  0  0  0  1  0  0  0  0  0  0
  185.3020  178.8580  144.5390 C   0  0  2  0  0  3  0  0  0  0  0  0
  185.8290  176.4060  143.1460 O   0  0  0  0  0  1  0  0  0  0  0  0
  185.2810  177.9920  142.9380 P   0  0  0  0  0  0  0  0  0  0  0  0
  183.7100  177.9650  142.3120 O   0  0  0  0  0  1  0  0  0  0  0  0
  186.1920  178.7100  141.9680 O   0  0  0  0  0  0  0  0  0  0  0  0
  1  7  1  0  0  0  0
  1  2  1  0  0  0  0
  2 18  1  0  0  0  0
  3  2  2  0  0  0  0
  4  1  1  0  0  0  0
  5  6  1  0  0  0  0
  7 14  1  0  0  0  0
  8 13  1  0  0  0  0
  9 15  1  0  0  0  0
  9  8  2  0  0  0  0
 10  8  1  0  0  0  0
 10  7  2  0  0  0  0
 11 15  1  0  0  0  0
 13  6  2  0  0  0  0
 13 12  1  0  0  0  0
 14 12  2  0  0  0  0
 14 16  1  0  0  0  0
 15  5  2  0  0  0  0
 16 17  1  0  0  0  0
 18 19  1  0  0  0  0
 19 20  1  0  0  0  0
 20 22  1  0  0  0  0
 22 21  2  0  0  0  0
 23 22  1  0  0  0  0
 24 23  1  0  0  0  0
 26 25  1  6  0  0  0
 26 24  1  0  0  0  0
 28 27  1  0  0  0  0
 28 26  1  0  0  0  0
 29 28  1  0  0  0  0
 30 28  2  0  0  0  0
M  END
>  <MODEL>
8

>  <REMARK>
 VINA RESULT:      -5.6      2.340      4.899
  Name = 
  10 active torsions:
  status: ('A' for Active; 'I' for Inactive)
    1  A    between atoms: O_2  and  C_25
    2  A    between atoms: N_5  and  C_13
    3  A    between atoms: C_7  and  C_20
    4  A    between atoms: C_7  and  C_23
    5  A    between atoms: P_8  and  C_18
    6  A    between atoms: C_10  and  C_29
    7  A    between atoms: C_18  and  C_23
    8  A    between atoms: C_20  and  C_24
    9  A    between atoms: C_24  and  C_30
   10  A    between atoms: C_29  and  C_30
                            x       y       z     vdW  Elec       q    Type
                         _______ _______ _______ _____ _____    ______ ____

>  <TORSDO>
F 10

$$$$
=
 OpenBabel11042413473D

 30 31  0  0  1  0  0  0  0  0999 V2000
  190.9380  173.5150  142.9020 N   0  0  0  0  0  0  0  0  0  0  0  0
  191.1460  172.8970  144.1860 C   0  0  0  0  0  0  0  0  0  0  0  0
  191.8350  171.8450  144.2750 O   0  0  0  0  0  0  0  0  0  0  0  0
  191.4050  172.8340  141.7020 C   0  0  0  0  0  1  0  0  0  0  0  0
  187.0710  178.5830  142.2070 N   0  0  0  0  0  0  0  0  0  0  0  0
  188.4130  178.5360  142.4250 C   0  0  0  0  0  3  0  0  0  0  0  0
  190.3150  174.8020  142.7670 C   0  0  0  0  0  0  0  0  0  0  0  0
  188.3010  176.1200  142.4310 C   0  0  0  0  0  0  0  0  0  0  0  0
  186.9250  176.1960  142.2080 C   0  0  0  0  0  3  0  0  0  0  0  0
  188.9300  174.8820  142.5460 C   0  0  0  0  0  3  0  0  0  0  0  0
  184.9210  177.5460  141.8690 N   0  0  0  0  0  1  0  0  0  0  0  0
  190.4320  177.2340  142.7620 C   0  0  0  0  0  3  0  0  0  0  0  0
  189.0560  177.3030  142.5410 C   0  0  0  0  0  0  0  0  0  0  0  0
  191.0720  175.9870  142.8770 C   0  0  0  0  0  0  0  0  0  0  0  0
  186.3220  177.4520  142.0980 C   0  0  0  0  0  0  0  0  0  0  0  0
  192.4540  175.9070  143.0850 O   0  0  0  0  0  0  0  0  0  0  0  0
  193.4010  176.0410  142.0340 C   0  0  0  0  0  1  0  0  0  0  0  0
  190.5380  173.4650  145.4320 C   0  0  0  0  0  2  0  0  0  0  0  0
  191.4470  174.5090  146.0590 C   0  0  0  0  0  2  0  0  0  0  0  0
  190.7260  175.2450  147.1770 C   0  0  0  0  0  2  0  0  0  0  0  0
  190.2950  177.3790  146.2750 O   0  0  0  0  0  0  0  0  0  0  0  0
  189.8350  176.2980  146.6100 C   0  0  0  0  0  0  0  0  0  0  0  0
  188.3760  176.0240  146.4590 C   0  0  0  0  0  2  0  0  0  0  0  0
  187.6570  177.2600  145.9370 C   0  0  0  0  0  2  0  0  0  0  0  0
  185.4670  176.4190  145.3880 O   0  0  0  0  0  1  0  0  0  0  0  0
  186.1670  177.2480  146.2680 C   0  0  2  0  0  3  0  0  0  0  0  0
  183.7690  178.8210  146.2180 O   0  0  0  0  0  1  0  0  0  0  0  0
  185.4570  178.9240  146.2550 P   0  0  0  0  0  0  0  0  0  0  0  0
  185.9380  179.7700  147.6380 O   0  0  0  0  0  1  0  0  0  0  0  0
  185.9380  179.6610  145.0260 O   0  0  0  0  0  0  0  0  0  0  0  0
  1  2  1  0  0  0  0
  2  3  2  0  0  0  0
  2 18  1  0  0  0  0
  4  1  1  0  0  0  0
  5  6  1  0  0  0  0
  6 13  2  0  0  0  0
  7 14  1  0  0  0  0
  7  1  1  0  0  0  0
  8 13  1  0  0  0  0
  8 10  1  0  0  0  0
  9  8  2  0  0  0  0
 10  7  2  0  0  0  0
 11 15  1  0  0  0  0
 12 14  2  0  0  0  0
 13 12  1  0  0  0  0
 14 16  1  0  0  0  0
 15  5  2  0  0  0  0
 15  9  1  0  0  0  0
 17 16  1  0  0  0  0
 18 19  1  0  0  0  0
 19 20  1  0  0  0  0
 21 22  2  0  0  0  0
 22 20  1  0  0  0  0
 23 22  1  0  0  0  0
 24 26  1  0  0  0  0
 24 23  1  0  0  0  0
 26 25  1  6  0  0  0
 27 28  1  0  0  0  0
 28 26  1  0  0  0  0
 28 29  1  0  0  0  0
 30 28  2  0  0  0  0
M  END
>  <MODEL>
9

>  <REMARK>
 VINA RESULT:      -5.6      1.712      2.900
  Name = 
  10 active torsions:
  status: ('A' for Active; 'I' for Inactive)
    1  A    between atoms: O_2  and  C_25
    2  A    between atoms: N_5  and  C_13
    3  A    between atoms: C_7  and  C_20
    4  A    between atoms: C_7  and  C_23
    5  A    between atoms: P_8  and  C_18
    6  A    between atoms: C_10  and  C_29
    7  A    between atoms: C_18  and  C_23
    8  A    between atoms: C_20  and  C_24
    9  A    between atoms: C_24  and  C_30
   10  A    between atoms: C_29  and  C_30
                            x       y       z     vdW  Elec       q    Type
                         _______ _______ _______ _____ _____    ______ ____

>  <TORSDO>
F 10

$$$$
