=
 OpenBabel11042418043D

 45 50  0  0  1  0  0  0  0  0999 V2000
  190.4410  174.3850  145.2080 C   0  0  0  0  0  0  0  0  0  0  0  0
  190.9500  173.0800  144.2790 S   0  0  0  0  0  0  0  0  0  0  0  0
  189.3230  174.9090  144.7430 N   0  0  0  0  0  0  0  0  0  0  0  0
  190.8990  175.0940  146.2980 C   0  0  0  0  0  0  0  0  0  0  0  0
  188.8070  174.3470  143.6570 N   0  0  0  0  0  0  0  0  0  0  0  0
  190.0560  177.2050  147.4910 C   0  0  0  0  0  1  0  0  0  0  0  0
  189.9670  176.1300  146.4620 C   0  0  0  0  0  0  0  0  0  0  0  0
  188.9790  175.9870  145.4700 C   0  0  0  0  0  0  0  0  0  0  0  0
  189.5800  173.2940  143.2700 C   0  0  0  0  0  0  0  0  0  0  0  0
  186.7450  178.6240  143.9140 C   0  0  0  0  0  3  0  0  0  0  0  0
  185.5910  178.5190  144.6990 C   0  0  0  0  0  0  0  0  0  0  0  0
  186.6410  176.7510  145.9820 C   0  0  0  0  0  3  0  0  0  0  0  0
  187.8420  177.7980  144.1690 C   0  0  0  0  0  3  0  0  0  0  0  0
  184.4350  179.4150  144.4240 C   0  0  0  0  0  1  0  0  0  0  0  0
  185.5390  177.5770  145.7350 C   0  0  0  0  0  0  0  0  0  0  0  0
  184.4330  177.4650  146.5120 F   0  0  0  0  0  0  0  0  0  0  0  0
  187.8030  176.8530  145.2030 C   0  0  0  0  0  0  0  0  0  0  0  0
  190.3110  171.3180  141.9680 C   0  0  0  0  0  2  0  0  0  0  0  0
  191.0650  171.5730  140.7490 N   0  0  0  0  0  0  0  0  0  0  0  0
  189.5360  173.2530  140.8590 N   0  0  0  0  0  2  0  0  0  0  0  0
  189.3020  172.4680  142.0580 C   0  0  2  0  0  3  0  0  0  0  0  0
  190.6130  172.6340  140.1820 C   0  0  0  0  0  0  0  0  0  0  0  0
  191.3150  173.2920  138.6690 S   0  0  0  0  0  0  0  0  0  0  0  0
  188.9440  173.8190  137.3740 C   0  0  0  0  0  1  0  0  0  0  0  0
  189.9620  172.7140  137.5860 C   0  0  0  0  0  0  0  0  0  0  0  0
  189.3440  171.6110  138.1410 F   0  0  0  0  0  0  0  0  0  0  0  0
  190.4900  172.3580  136.3630 F   0  0  0  0  0  0  0  0  0  0  0  0
  192.1980  174.9390  147.0290 C   0  0  0  0  0  2  0  0  0  0  0  0
  193.3510  175.5130  146.2690 C   0  0  0  0  0  0  0  0  0  0  0  0
  194.2100  174.6920  145.5180 C   0  0  0  0  0  0  0  0  0  0  0  0
  193.5670  176.8950  146.3100 C   0  0  0  0  0  3  0  0  0  0  0  0
  194.6380  177.4600  145.6170 C   0  0  0  0  0  3  0  0  0  0  0  0
  195.4950  176.6460  144.8750 C   0  0  0  0  0  3  0  0  0  0  0  0
  195.2850  175.2600  144.8180 C   0  0  0  0  0  0  0  0  0  0  0  0
  194.0090  173.3480  145.4780 F   0  0  0  0  0  0  0  0  0  0  0  0
  196.1680  174.4130  144.0700 N   0  0  0  0  0  2  0  0  0  0  0  0
  194.5840  174.5630  142.2230 C   0  0  2  0  0  3  0  0  0  0  0  0
  194.8960  174.8810  139.6690 C   0  0  0  0  0  1  0  0  0  0  0  0
  197.9410  175.5000  142.0070 O   0  0  0  0  0  0  0  0  0  0  0  0
  195.3460  176.7700  141.2640 C   0  0  0  0  0  1  0  0  0  0  0  0
  195.8300  173.8600  142.7660 C   0  0  1  0  0  3  0  0  0  0  0  0
  197.4210  173.5180  140.5440 O   0  0  0  0  0  0  0  0  0  0  0  0
  193.6810  173.6070  141.7500 O   0  0  0  0  0  1  0  0  0  0  0  0
  195.3370  175.2640  141.0760 C   0  0  0  0  0  0  0  0  0  0  0  0
  196.8940  174.5360  141.5140 S   0  0  0  0  0  0  0  0  0  0  0  0
  1  4  2  0  0  0  0
  2  1  1  0  0  0  0
  3  1  1  0  0  0  0
  3  8  1  0  0  0  0
  4  7  1  0  0  0  0
  4 28  1  0  0  0  0
  5  3  1  0  0  0  0
  7  6  1  0  0  0  0
  8  7  2  0  0  0  0
  9  5  2  0  0  0  0
  9  2  1  0  0  0  0
 10 13  2  0  0  0  0
 10 11  1  0  0  0  0
 11 15  2  0  0  0  0
 13 17  1  0  0  0  0
 14 11  1  0  0  0  0
 15 12  1  0  0  0  0
 15 16  1  0  0  0  0
 17  8  1  0  0  0  0
 17 12  2  0  0  0  0
 18 21  1  0  0  0  0
 19 18  1  0  0  0  0
 20 21  1  0  0  0  0
 21  9  1  1  0  0  0
 22 19  2  0  0  0  0
 22 20  1  0  0  0  0
 23 22  1  0  0  0  0
 24 25  1  0  0  0  0
 25 26  1  0  0  0  0
 25 23  1  0  0  0  0
 27 25  1  0  0  0  0
 29 31  1  0  0  0  0
 29 28  1  0  0  0  0
 30 29  2  0  0  0  0
 32 31  2  0  0  0  0
 33 32  1  0  0  0  0
 34 33  2  0  0  0  0
 34 30  1  0  0  0  0
 35 30  1  0  0  0  0
 36 34  1  0  0  0  0
 37 43  1  6  0  0  0
 37 41  1  0  0  0  0
 38 44  1  0  0  0  0
 41 36  1  1  0  0  0
 42 45  2  0  0  0  0
 44 40  1  0  0  0  0
 44 45  1  0  0  0  0
 44 37  1  0  0  0  0
 45 39  2  0  0  0  0
 45 41  1  0  0  0  0
M  END
>  <MODEL>
1

>  <REMARK>
 VINA RESULT:      -8.3      0.000      0.000
  Name = 
  8 active torsions:
  status: ('A' for Active; 'I' for Inactive)
    1  A    between atoms: C_6  and  C_32
    2  A    between atoms: C_9  and  N_18
    3  A    between atoms: C_15  and  S_16
    4  A    between atoms: S_16  and  C_36
    5  A    between atoms: C_17  and  C_32
    6  A    between atoms: N_18  and  C_37
    7  A    between atoms: C_28  and  C_34
    8  A    between atoms: C_31  and  C_40
                            x       y       z     vdW  Elec       q    Type
                         _______ _______ _______ _____ _____    ______ ____

>  <TORSDO>
F 8

$$$$
=
 OpenBabel11042418043D

 45 50  0  0  1  0  0  0  0  0999 V2000
  189.1270  174.5020  142.8390 C   0  0  0  0  0  0  0  0  0  0  0  0
  188.1480  175.7120  143.4730 S   0  0  0  0  0  0  0  0  0  0  0  0
  188.9420  174.3530  141.5410 N   0  0  0  0  0  0  0  0  0  0  0  0
  190.0380  173.5810  143.3130 C   0  0  0  0  0  0  0  0  0  0  0  0
  188.0440  175.1480  140.9720 N   0  0  0  0  0  0  0  0  0  0  0  0
  191.3280  171.6620  142.1970 C   0  0  0  0  0  1  0  0  0  0  0  0
  190.3950  172.8260  142.1860 C   0  0  0  0  0  0  0  0  0  0  0  0
  189.6920  173.3370  141.0790 C   0  0  0  0  0  0  0  0  0  0  0  0
  187.5130  175.9870  141.9040 C   0  0  0  0  0  0  0  0  0  0  0  0
  189.3630  171.0660  138.0630 C   0  0  0  0  0  3  0  0  0  0  0  0
  189.7330  171.9210  137.0200 C   0  0  0  0  0  0  0  0  0  0  0  0
  190.0660  173.7080  138.6230 C   0  0  0  0  0  3  0  0  0  0  0  0
  189.3500  171.5310  139.3800 C   0  0  0  0  0  3  0  0  0  0  0  0
  189.7550  171.4070  135.6240 C   0  0  0  0  0  1  0  0  0  0  0  0
  190.0840  173.2480  137.3020 C   0  0  0  0  0  0  0  0  0  0  0  0
  190.4540  174.0920  136.3060 F   0  0  0  0  0  0  0  0  0  0  0  0
  189.7000  172.8560  139.6750 C   0  0  0  0  0  0  0  0  0  0  0  0
  187.0360  178.3960  141.5790 C   0  0  0  0  0  2  0  0  0  0  0  0
  186.3900  179.0950  142.6800 N   0  0  0  0  0  0  0  0  0  0  0  0
  185.4760  177.0130  142.6870 N   0  0  0  0  0  2  0  0  0  0  0  0
  186.4420  176.9830  141.6030 C   0  0  2  0  0  3  0  0  0  0  0  0
  185.5540  178.3060  143.2540 C   0  0  0  0  0  0  0  0  0  0  0  0
  184.5890  178.7990  144.6830 S   0  0  0  0  0  0  0  0  0  0  0  0
  185.5450  176.8240  146.3440 C   0  0  0  0  0  1  0  0  0  0  0  0
  185.8190  178.2550  145.9190 C   0  0  0  0  0  0  0  0  0  0  0  0
  185.7860  179.0840  147.0230 F   0  0  0  0  0  0  0  0  0  0  0  0
  187.0760  178.3170  145.3550 F   0  0  0  0  0  0  0  0  0  0  0  0
  190.4200  173.2990  144.7340 C   0  0  0  0  0  2  0  0  0  0  0  0
  191.2620  174.3840  145.3230 C   0  0  0  0  0  0  0  0  0  0  0  0
  192.3210  174.9600  144.6000 C   0  0  0  0  0  0  0  0  0  0  0  0
  190.9800  174.8300  146.6200 C   0  0  0  0  0  3  0  0  0  0  0  0
  191.7520  175.8370  147.2010 C   0  0  0  0  0  3  0  0  0  0  0  0
  192.8060  176.4070  146.4850 C   0  0  0  0  0  3  0  0  0  0  0  0
  193.0950  175.9750  145.1820 C   0  0  0  0  0  0  0  0  0  0  0  0
  192.6040  174.5280  143.3420 F   0  0  0  0  0  0  0  0  0  0  0  0
  194.1850  176.5440  144.4430 N   0  0  0  0  0  2  0  0  0  0  0  0
  195.6760  174.6500  144.8190 C   0  0  2  0  0  3  0  0  0  0  0  0
  197.8390  173.8610  143.6290 C   0  0  0  0  0  1  0  0  0  0  0  0
  195.6580  176.5840  141.9110 O   0  0  0  0  0  0  0  0  0  0  0  0
  195.6040  173.6600  142.4990 C   0  0  0  0  0  1  0  0  0  0  0  0
  195.5760  176.1690  144.6580 C   0  0  1  0  0  3  0  0  0  0  0  0
  197.8120  176.8290  143.1910 O   0  0  0  0  0  0  0  0  0  0  0  0
  196.4670  174.3540  145.9330 O   0  0  0  0  0  1  0  0  0  0  0  0
  196.4370  174.4430  143.4960 C   0  0  0  0  0  0  0  0  0  0  0  0
  196.4620  176.1750  143.1170 S   0  0  0  0  0  0  0  0  0  0  0  0
  1  4  2  0  0  0  0
  1  2  1  0  0  0  0
  3  1  1  0  0  0  0
  4 28  1  0  0  0  0
  5  3  1  0  0  0  0
  5  9  2  0  0  0  0
  7  6  1  0  0  0  0
  7  4  1  0  0  0  0
  8  3  1  0  0  0  0
  8  7  2  0  0  0  0
  9  2  1  0  0  0  0
 10 13  1  0  0  0  0
 11 15  1  0  0  0  0
 11 10  2  0  0  0  0
 12 17  1  0  0  0  0
 13 17  2  0  0  0  0
 14 11  1  0  0  0  0
 15 12  2  0  0  0  0
 16 15  1  0  0  0  0
 17  8  1  0  0  0  0
 18 21  1  0  0  0  0
 18 19  1  0  0  0  0
 19 22  2  0  0  0  0
 20 22  1  0  0  0  0
 21  9  1  1  0  0  0
 21 20  1  0  0  0  0
 22 23  1  0  0  0  0
 23 25  1  0  0  0  0
 25 24  1  0  0  0  0
 25 26  1  0  0  0  0
 27 25  1  0  0  0  0
 28 29  1  0  0  0  0
 29 31  1  0  0  0  0
 30 34  1  0  0  0  0
 30 29  2  0  0  0  0
 31 32  2  0  0  0  0
 33 32  1  0  0  0  0
 34 33  2  0  0  0  0
 35 30  1  0  0  0  0
 36 34  1  0  0  0  0
 37 43  1  1  0  0  0
 39 45  2  0  0  0  0
 40 44  1  0  0  0  0
 41 36  1  6  0  0  0
 41 37  1  0  0  0  0
 44 38  1  0  0  0  0
 44 37  1  0  0  0  0
 45 42  2  0  0  0  0
 45 44  1  0  0  0  0
 45 41  1  0  0  0  0
M  END
>  <MODEL>
2

>  <REMARK>
 VINA RESULT:      -7.8      2.487      6.828
  Name = 
  8 active torsions:
  status: ('A' for Active; 'I' for Inactive)
    1  A    between atoms: C_6  and  C_32
    2  A    between atoms: C_9  and  N_18
    3  A    between atoms: C_15  and  S_16
    4  A    between atoms: S_16  and  C_36
    5  A    between atoms: C_17  and  C_32
    6  A    between atoms: N_18  and  C_37
    7  A    between atoms: C_28  and  C_34
    8  A    between atoms: C_31  and  C_40
                            x       y       z     vdW  Elec       q    Type
                         _______ _______ _______ _____ _____    ______ ____

>  <TORSDO>
F 8

$$$$
=
 OpenBabel11042418043D

 45 50  0  0  1  0  0  0  0  0999 V2000
  189.2650  173.4940  142.1080 C   0  0  0  0  0  0  0  0  0  0  0  0
  188.3460  174.0610  140.8200 S   0  0  0  0  0  0  0  0  0  0  0  0
  189.3850  174.4000  143.0590 N   0  0  0  0  0  0  0  0  0  0  0  0
  189.9740  172.3540  142.4230 C   0  0  0  0  0  0  0  0  0  0  0  0
  188.7900  175.5670  142.8490 N   0  0  0  0  0  0  0  0  0  0  0  0
  191.4860  171.7260  144.4010 C   0  0  0  0  0  1  0  0  0  0  0  0
  190.5690  172.6400  143.6620 C   0  0  0  0  0  0  0  0  0  0  0  0
  190.1760  173.9370  144.0430 C   0  0  0  0  0  0  0  0  0  0  0  0
  188.1440  175.5480  141.6500 C   0  0  0  0  0  0  0  0  0  0  0  0
  190.0910  175.4560  147.5140 C   0  0  0  0  0  3  0  0  0  0  0  0
  191.2910  176.1740  147.5400 C   0  0  0  0  0  0  0  0  0  0  0  0
  191.7740  175.4240  145.2870 C   0  0  0  0  0  3  0  0  0  0  0  0
  189.7340  174.7300  146.3750 C   0  0  0  0  0  3  0  0  0  0  0  0
  191.6520  176.9540  148.7550 C   0  0  0  0  0  1  0  0  0  0  0  0
  192.1370  176.1560  146.4230 C   0  0  0  0  0  0  0  0  0  0  0  0
  193.3010  176.8520  146.4250 F   0  0  0  0  0  0  0  0  0  0  0  0
  190.5700  174.7050  145.2510 C   0  0  0  0  0  0  0  0  0  0  0  0
  188.0870  178.0220  141.5260 C   0  0  0  0  0  2  0  0  0  0  0  0
  187.1050  178.7020  142.3570 N   0  0  0  0  0  0  0  0  0  0  0  0
  186.0780  176.7910  141.6730 N   0  0  0  0  0  2  0  0  0  0  0  0
  187.4070  176.7190  141.0910 C   0  0  2  0  0  3  0  0  0  0  0  0
  186.0310  177.9970  142.4110 C   0  0  0  0  0  0  0  0  0  0  0  0
  184.6020  178.4910  143.3740 S   0  0  0  0  0  0  0  0  0  0  0  0
  184.3170  178.0970  146.0820 C   0  0  0  0  0  1  0  0  0  0  0  0
  185.3760  178.1890  145.0000 C   0  0  0  0  0  0  0  0  0  0  0  0
  186.2640  179.2030  145.3020 F   0  0  0  0  0  0  0  0  0  0  0  0
  186.0660  176.9960  144.9510 F   0  0  0  0  0  0  0  0  0  0  0  0
  190.2340  171.1530  141.5650 C   0  0  0  0  0  2  0  0  0  0  0  0
  191.0980  171.4710  140.3880 C   0  0  0  0  0  0  0  0  0  0  0  0
  192.4850  171.6490  140.5280 C   0  0  0  0  0  0  0  0  0  0  0  0
  190.5040  171.5900  139.1260 C   0  0  0  0  0  3  0  0  0  0  0  0
  191.2820  171.8940  138.0080 C   0  0  0  0  0  3  0  0  0  0  0  0
  192.6600  172.0740  138.1470 C   0  0  0  0  0  3  0  0  0  0  0  0
  193.2690  171.9510  139.4040 C   0  0  0  0  0  0  0  0  0  0  0  0
  193.0680  171.5400  141.7520 F   0  0  0  0  0  0  0  0  0  0  0  0
  194.6810  172.1490  139.5600 N   0  0  0  0  0  2  0  0  0  0  0  0
  194.2410  174.5440  139.6930 C   0  0  2  0  0  3  0  0  0  0  0  0
  195.2260  176.4260  141.1780 C   0  0  0  0  0  1  0  0  0  0  0  0
  195.9580  172.7280  142.1330 O   0  0  0  0  0  0  0  0  0  0  0  0
  193.7040  174.6820  142.1550 C   0  0  0  0  0  1  0  0  0  0  0  0
  195.3110  173.4610  139.5310 C   0  0  1  0  0  3  0  0  0  0  0  0
  197.4430  174.4120  140.9950 O   0  0  0  0  0  0  0  0  0  0  0  0
  194.4340  175.5350  138.7260 O   0  0  0  0  0  1  0  0  0  0  0  0
  194.7330  174.9870  141.0840 C   0  0  0  0  0  0  0  0  0  0  0  0
  196.0670  173.8180  141.0990 S   0  0  0  0  0  0  0  0  0  0  0  0
  1  4  2  0  0  0  0
  1  3  1  0  0  0  0
  2  9  1  0  0  0  0
  2  1  1  0  0  0  0
  3  8  1  0  0  0  0
  4  7  1  0  0  0  0
  5  3  1  0  0  0  0
  7  8  2  0  0  0  0
  7  6  1  0  0  0  0
  8 17  1  0  0  0  0
  9  5  2  0  0  0  0
 10 11  1  0  0  0  0
 11 14  1  0  0  0  0
 12 15  1  0  0  0  0
 13 10  2  0  0  0  0
 15 16  1  0  0  0  0
 15 11  2  0  0  0  0
 17 12  2  0  0  0  0
 17 13  1  0  0  0  0
 18 19  1  0  0  0  0
 19 22  2  0  0  0  0
 20 22  1  0  0  0  0
 21 18  1  0  0  0  0
 21  9  1  1  0  0  0
 21 20  1  0  0  0  0
 22 23  1  0  0  0  0
 23 25  1  0  0  0  0
 25 26  1  0  0  0  0
 25 24  1  0  0  0  0
 27 25  1  0  0  0  0
 28  4  1  0  0  0  0
 29 30  1  0  0  0  0
 29 28  1  0  0  0  0
 30 35  1  0  0  0  0
 31 29  2  0  0  0  0
 32 33  2  0  0  0  0
 32 31  1  0  0  0  0
 33 34  1  0  0  0  0
 34 36  1  0  0  0  0
 34 30  2  0  0  0  0
 37 43  1  6  0  0  0
 37 44  1  0  0  0  0
 41 36  1  1  0  0  0
 41 37  1  0  0  0  0
 41 45  1  0  0  0  0
 42 45  2  0  0  0  0
 44 45  1  0  0  0  0
 44 38  1  0  0  0  0
 44 40  1  0  0  0  0
 45 39  2  0  0  0  0
M  END
>  <MODEL>
3

>  <REMARK>
 VINA RESULT:      -7.8      2.578      6.331
  Name = 
  8 active torsions:
  status: ('A' for Active; 'I' for Inactive)
    1  A    between atoms: C_6  and  C_32
    2  A    between atoms: C_9  and  N_18
    3  A    between atoms: C_15  and  S_16
    4  A    between atoms: S_16  and  C_36
    5  A    between atoms: C_17  and  C_32
    6  A    between atoms: N_18  and  C_37
    7  A    between atoms: C_28  and  C_34
    8  A    between atoms: C_31  and  C_40
                            x       y       z     vdW  Elec       q    Type
                         _______ _______ _______ _____ _____    ______ ____

>  <TORSDO>
F 8

$$$$
=
 OpenBabel11042418043D

 45 50  0  0  1  0  0  0  0  0999 V2000
  190.7990  175.6940  144.4850 C   0  0  0  0  0  0  0  0  0  0  0  0
  191.4050  174.9000  143.1330 S   0  0  0  0  0  0  0  0  0  0  0  0
  189.5180  175.9790  144.3510 N   0  0  0  0  0  0  0  0  0  0  0  0
  191.2870  176.1770  145.6810 C   0  0  0  0  0  0  0  0  0  0  0  0
  188.9420  175.6130  143.2130 N   0  0  0  0  0  0  0  0  0  0  0  0
  190.2260  177.5400  147.5800 C   0  0  0  0  0  1  0  0  0  0  0  0
  190.1880  176.8120  146.2790 C   0  0  0  0  0  0  0  0  0  0  0  0
  189.0820  176.6690  145.4200 C   0  0  0  0  0  0  0  0  0  0  0  0
  189.8470  174.9780  142.4190 C   0  0  0  0  0  0  0  0  0  0  0  0
  185.5350  177.1000  146.6820 C   0  0  0  0  0  3  0  0  0  0  0  0
  185.0840  178.1720  145.9050 C   0  0  0  0  0  0  0  0  0  0  0  0
  187.2470  178.2740  144.8160 C   0  0  0  0  0  3  0  0  0  0  0  0
  186.8350  176.6160  146.5210 C   0  0  0  0  0  3  0  0  0  0  0  0
  183.6910  178.6670  146.0780 C   0  0  0  0  0  1  0  0  0  0  0  0
  185.9440  178.7620  144.9700 C   0  0  0  0  0  0  0  0  0  0  0  0
  185.5240  179.7970  144.2000 F   0  0  0  0  0  0  0  0  0  0  0  0
  187.7050  177.1960  145.5890 C   0  0  0  0  0  0  0  0  0  0  0  0
  188.2520  173.6360  141.0810 C   0  0  0  0  0  2  0  0  0  0  0  0
  188.6690  172.2930  140.7090 N   0  0  0  0  0  0  0  0  0  0  0  0
  190.5650  173.5460  140.6160 N   0  0  0  0  0  2  0  0  0  0  0  0
  189.5350  174.4740  141.0490 C   0  0  2  0  0  3  0  0  0  0  0  0
  189.9320  172.2900  140.4690 C   0  0  0  0  0  0  0  0  0  0  0  0
  190.8230  170.8010  140.0140 S   0  0  0  0  0  0  0  0  0  0  0  0
  192.5120  170.1090  142.0730 C   0  0  0  0  0  1  0  0  0  0  0  0
  191.0380  170.2000  141.7250 C   0  0  0  0  0  0  0  0  0  0  0  0
  190.4470  168.9600  141.8730 F   0  0  0  0  0  0  0  0  0  0  0  0
  190.4310  171.0860  142.5900 F   0  0  0  0  0  0  0  0  0  0  0  0
  192.7060  176.2090  146.1610 C   0  0  0  0  0  2  0  0  0  0  0  0
  193.5020  175.0460  145.6620 C   0  0  0  0  0  0  0  0  0  0  0  0
  194.6560  175.2330  144.8820 C   0  0  0  0  0  0  0  0  0  0  0  0
  193.0820  173.7510  145.9860 C   0  0  0  0  0  3  0  0  0  0  0  0
  193.8000  172.6440  145.5300 C   0  0  0  0  0  3  0  0  0  0  0  0
  194.9440  172.8290  144.7520 C   0  0  0  0  0  3  0  0  0  0  0  0
  195.3800  174.1220  144.4260 C   0  0  0  0  0  0  0  0  0  0  0  0
  195.0660  176.4890  144.5590 F   0  0  0  0  0  0  0  0  0  0  0  0
  196.5460  174.3220  143.6140 N   0  0  0  0  0  2  0  0  0  0  0  0
  195.1320  174.0260  141.6490 C   0  0  2  0  0  3  0  0  0  0  0  0
  195.0800  175.1970  139.3370 C   0  0  0  0  0  1  0  0  0  0  0  0
  197.1880  176.7980  142.1860 O   0  0  0  0  0  0  0  0  0  0  0  0
  194.3340  176.4080  141.4090 C   0  0  0  0  0  1  0  0  0  0  0  0
  196.5680  174.0890  142.1770 C   0  0  1  0  0  3  0  0  0  0  0  0
  197.9410  175.4370  140.2060 O   0  0  0  0  0  0  0  0  0  0  0  0
  194.9920  172.9100  140.8190 O   0  0  0  0  0  1  0  0  0  0  0  0
  195.2470  175.3350  140.8450 C   0  0  0  0  0  0  0  0  0  0  0  0
  196.9380  175.5960  141.3130 S   0  0  0  0  0  0  0  0  0  0  0  0
  1  4  2  0  0  0  0
  2  1  1  0  0  0  0
  3  1  1  0  0  0  0
  3  8  1  0  0  0  0
  4 28  1  0  0  0  0
  4  7  1  0  0  0  0
  5  3  1  0  0  0  0
  7  6  1  0  0  0  0
  8 17  1  0  0  0  0
  8  7  2  0  0  0  0
  9  2  1  0  0  0  0
  9  5  2  0  0  0  0
 11 14  1  0  0  0  0
 11 10  2  0  0  0  0
 12 15  2  0  0  0  0
 12 17  1  0  0  0  0
 13 10  1  0  0  0  0
 15 11  1  0  0  0  0
 16 15  1  0  0  0  0
 17 13  2  0  0  0  0
 19 18  1  0  0  0  0
 20 21  1  0  0  0  0
 21 18  1  0  0  0  0
 21  9  1  1  0  0  0
 22 20  1  0  0  0  0
 22 19  2  0  0  0  0
 23 22  1  0  0  0  0
 23 25  1  0  0  0  0
 25 26  1  0  0  0  0
 25 24  1  0  0  0  0
 25 27  1  0  0  0  0
 29 31  1  0  0  0  0
 29 28  1  0  0  0  0
 30 29  2  0  0  0  0
 32 31  2  0  0  0  0
 33 32  1  0  0  0  0
 34 33  2  0  0  0  0
 34 30  1  0  0  0  0
 35 30  1  0  0  0  0
 36 34  1  0  0  0  0
 37 43  1  6  0  0  0
 37 41  1  0  0  0  0
 38 44  1  0  0  0  0
 41 36  1  1  0  0  0
 42 45  2  0  0  0  0
 44 45  1  0  0  0  0
 44 40  1  0  0  0  0
 44 37  1  0  0  0  0
 45 41  1  0  0  0  0
 45 39  2  0  0  0  0
M  END
>  <MODEL>
4

>  <REMARK>
 VINA RESULT:      -7.8      1.986      2.619
  Name = 
  8 active torsions:
  status: ('A' for Active; 'I' for Inactive)
    1  A    between atoms: C_6  and  C_32
    2  A    between atoms: C_9  and  N_18
    3  A    between atoms: C_15  and  S_16
    4  A    between atoms: S_16  and  C_36
    5  A    between atoms: C_17  and  C_32
    6  A    between atoms: N_18  and  C_37
    7  A    between atoms: C_28  and  C_34
    8  A    between atoms: C_31  and  C_40
                            x       y       z     vdW  Elec       q    Type
                         _______ _______ _______ _____ _____    ______ ____

>  <TORSDO>
F 8

$$$$
=
 OpenBabel11042418043D

 45 50  0  0  1  0  0  0  0  0999 V2000
  193.4980  174.4970  143.3450 C   0  0  0  0  0  0  0  0  0  0  0  0
  192.4980  174.6340  142.0010 S   0  0  0  0  0  0  0  0  0  0  0  0
  194.1100  173.3290  143.3820 N   0  0  0  0  0  0  0  0  0  0  0  0
  193.8170  175.2540  144.4520 C   0  0  0  0  0  0  0  0  0  0  0  0
  193.8420  172.4840  142.3950 N   0  0  0  0  0  0  0  0  0  0  0  0
  195.2600  174.7980  146.5260 C   0  0  0  0  0  1  0  0  0  0  0  0
  194.6780  174.4380  145.2010 C   0  0  0  0  0  0  0  0  0  0  0  0
  194.8500  173.2290  144.5010 C   0  0  0  0  0  0  0  0  0  0  0  0
  192.9710  173.0570  141.5190 C   0  0  0  0  0  0  0  0  0  0  0  0
  197.7430  170.8190  144.9300 C   0  0  0  0  0  3  0  0  0  0  0  0
  197.1350  169.7650  145.6210 C   0  0  0  0  0  0  0  0  0  0  0  0
  195.0360  170.9750  145.5930 C   0  0  0  0  0  3  0  0  0  0  0  0
  196.9960  171.9430  144.5690 C   0  0  0  0  0  3  0  0  0  0  0  0
  197.9410  168.5680  145.9860 C   0  0  0  0  0  1  0  0  0  0  0  0
  195.7770  169.8440  145.9540 C   0  0  0  0  0  0  0  0  0  0  0  0
  195.1670  168.8290  146.6170 F   0  0  0  0  0  0  0  0  0  0  0  0
  195.6360  172.0340  144.8970 C   0  0  0  0  0  0  0  0  0  0  0  0
  192.2720  173.3550  139.1610 C   0  0  0  0  0  2  0  0  0  0  0  0
  190.8420  173.4020  138.8970 N   0  0  0  0  0  0  0  0  0  0  0  0
  191.0820  171.8880  140.5780 N   0  0  0  0  0  2  0  0  0  0  0  0
  192.4310  172.3590  140.3150 C   0  0  2  0  0  3  0  0  0  0  0  0
  190.2350  172.5930  139.6910 C   0  0  0  0  0  0  0  0  0  0  0  0
  188.4530  172.3990  139.6920 S   0  0  0  0  0  0  0  0  0  0  0  0
  188.6170  174.5530  141.3980 C   0  0  0  0  0  1  0  0  0  0  0  0
  188.2050  173.0930  141.3640 C   0  0  0  0  0  0  0  0  0  0  0  0
  188.9410  172.3800  142.2900 F   0  0  0  0  0  0  0  0  0  0  0  0
  186.8690  173.0010  141.6920 F   0  0  0  0  0  0  0  0  0  0  0  0
  193.2320  176.5650  144.8830 C   0  0  0  0  0  2  0  0  0  0  0  0
  191.8960  176.4060  145.5330 C   0  0  0  0  0  0  0  0  0  0  0  0
  190.8000  177.1990  145.1510 C   0  0  0  0  0  0  0  0  0  0  0  0
  191.7440  175.4460  146.5400 C   0  0  0  0  0  3  0  0  0  0  0  0
  190.5110  175.2780  147.1710 C   0  0  0  0  0  3  0  0  0  0  0  0
  189.4230  176.0670  146.7950 C   0  0  0  0  0  3  0  0  0  0  0  0
  189.5590  177.0280  145.7820 C   0  0  0  0  0  0  0  0  0  0  0  0
  190.9410  178.1370  144.1770 F   0  0  0  0  0  0  0  0  0  0  0  0
  188.4500  177.8530  145.3980 N   0  0  0  0  0  2  0  0  0  0  0  0
  186.0710  178.3220  145.6530 C   0  0  2  0  0  3  0  0  0  0  0  0
  184.1010  178.3490  143.9680 C   0  0  0  0  0  1  0  0  0  0  0  0
  187.7320  178.2260  142.5820 O   0  0  0  0  0  0  0  0  0  0  0  0
  185.8660  180.1370  143.9100 C   0  0  0  0  0  1  0  0  0  0  0  0
  187.1160  177.3290  145.1400 C   0  0  1  0  0  3  0  0  0  0  0  0
  186.0340  176.3790  142.7910 O   0  0  0  0  0  0  0  0  0  0  0  0
  185.1080  177.6370  146.3990 O   0  0  0  0  0  1  0  0  0  0  0  0
  185.5600  178.6890  144.2460 C   0  0  0  0  0  0  0  0  0  0  0  0
  186.6760  177.5750  143.4360 S   0  0  0  0  0  0  0  0  0  0  0  0
  1  3  1  0  0  0  0
  1  4  2  0  0  0  0
  2  1  1  0  0  0  0
  3  8  1  0  0  0  0
  4 28  1  0  0  0  0
  4  7  1  0  0  0  0
  5  3  1  0  0  0  0
  7  6  1  0  0  0  0
  8 17  1  0  0  0  0
  8  7  2  0  0  0  0
  9  2  1  0  0  0  0
  9  5  2  0  0  0  0
 10 11  1  0  0  0  0
 11 15  2  0  0  0  0
 11 14  1  0  0  0  0
 12 15  1  0  0  0  0
 13 17  1  0  0  0  0
 13 10  2  0  0  0  0
 15 16  1  0  0  0  0
 17 12  2  0  0  0  0
 18 21  1  0  0  0  0
 19 18  1  0  0  0  0
 19 22  2  0  0  0  0
 21 20  1  0  0  0  0
 21  9  1  1  0  0  0
 22 23  1  0  0  0  0
 22 20  1  0  0  0  0
 23 25  1  0  0  0  0
 25 24  1  0  0  0  0
 25 27  1  0  0  0  0
 25 26  1  0  0  0  0
 28 29  1  0  0  0  0
 29 31  1  0  0  0  0
 30 29  2  0  0  0  0
 30 34  1  0  0  0  0
 31 32  2  0  0  0  0
 33 32  1  0  0  0  0
 34 33  2  0  0  0  0
 35 30  1  0  0  0  0
 36 34  1  0  0  0  0
 37 43  1  1  0  0  0
 38 44  1  0  0  0  0
 39 45  2  0  0  0  0
 40 44  1  0  0  0  0
 41 36  1  6  0  0  0
 41 37  1  0  0  0  0
 42 45  2  0  0  0  0
 44 37  1  0  0  0  0
 45 44  1  0  0  0  0
 45 41  1  0  0  0  0
M  END
>  <MODEL>
5

>  <REMARK>
 VINA RESULT:      -7.6      3.703      8.172
  Name = 
  8 active torsions:
  status: ('A' for Active; 'I' for Inactive)
    1  A    between atoms: C_6  and  C_32
    2  A    between atoms: C_9  and  N_18
    3  A    between atoms: C_15  and  S_16
    4  A    between atoms: S_16  and  C_36
    5  A    between atoms: C_17  and  C_32
    6  A    between atoms: N_18  and  C_37
    7  A    between atoms: C_28  and  C_34
    8  A    between atoms: C_31  and  C_40
                            x       y       z     vdW  Elec       q    Type
                         _______ _______ _______ _____ _____    ______ ____

>  <TORSDO>
F 8

$$$$
=
 OpenBabel11042418043D

 45 50  0  0  1  0  0  0  0  0999 V2000
  190.7810  174.0520  143.4130 C   0  0  0  0  0  0  0  0  0  0  0  0
  192.3250  173.6030  143.9010 S   0  0  0  0  0  0  0  0  0  0  0  0
  190.2760  174.9910  144.1910 N   0  0  0  0  0  0  0  0  0  0  0  0
  189.8710  173.6720  142.4490 C   0  0  0  0  0  0  0  0  0  0  0  0
  191.0380  175.4060  145.1950 N   0  0  0  0  0  0  0  0  0  0  0  0
  187.4490  174.3680  141.9580 C   0  0  0  0  0  1  0  0  0  0  0  0
  188.7350  174.4520  142.7090 C   0  0  0  0  0  0  0  0  0  0  0  0
  189.0190  175.2800  143.8120 C   0  0  0  0  0  0  0  0  0  0  0  0
  192.2300  174.7480  145.1740 C   0  0  0  0  0  0  0  0  0  0  0  0
  186.8880  178.3470  144.4590 C   0  0  0  0  0  3  0  0  0  0  0  0
  186.4590  178.1240  145.7710 C   0  0  0  0  0  0  0  0  0  0  0  0
  187.6900  176.0370  145.8050 C   0  0  0  0  0  3  0  0  0  0  0  0
  187.7190  177.4190  143.8260 C   0  0  0  0  0  3  0  0  0  0  0  0
  185.5850  179.1290  146.4360 C   0  0  0  0  0  1  0  0  0  0  0  0
  186.8610  176.9640  146.4460 C   0  0  0  0  0  0  0  0  0  0  0  0
  186.4620  176.7330  147.7220 F   0  0  0  0  0  0  0  0  0  0  0  0
  188.1290  176.2550  144.4900 C   0  0  0  0  0  0  0  0  0  0  0  0
  193.9260  176.3400  146.0260 C   0  0  0  0  0  2  0  0  0  0  0  0
  195.3110  176.0890  145.6550 N   0  0  0  0  0  0  0  0  0  0  0  0
  194.3980  174.0270  145.9480 N   0  0  0  0  0  2  0  0  0  0  0  0
  193.3020  174.9500  146.1930 C   0  0  2  0  0  3  0  0  0  0  0  0
  195.5210  174.8220  145.6220 C   0  0  0  0  0  0  0  0  0  0  0  0
  197.1070  174.1200  145.1660 S   0  0  0  0  0  0  0  0  0  0  0  0
  197.5400  175.7400  142.9840 C   0  0  0  0  0  1  0  0  0  0  0  0
  196.9160  174.4130  143.3730 C   0  0  0  0  0  0  0  0  0  0  0  0
  195.5790  174.4070  143.0280 F   0  0  0  0  0  0  0  0  0  0  0  0
  197.5570  173.4030  142.6850 F   0  0  0  0  0  0  0  0  0  0  0  0
  189.9730  172.5430  141.4680 C   0  0  0  0  0  2  0  0  0  0  0  0
  190.4700  172.9940  140.1320 C   0  0  0  0  0  0  0  0  0  0  0  0
  191.8440  173.0140  139.8340 C   0  0  0  0  0  0  0  0  0  0  0  0
  189.5420  173.4000  139.1670 C   0  0  0  0  0  3  0  0  0  0  0  0
  189.9740  173.8330  137.9130 C   0  0  0  0  0  3  0  0  0  0  0  0
  191.3380  173.8560  137.6170 C   0  0  0  0  0  3  0  0  0  0  0  0
  192.2790  173.4450  138.5730 C   0  0  0  0  0  0  0  0  0  0  0  0
  192.7510  172.6260  140.7690 F   0  0  0  0  0  0  0  0  0  0  0  0
  193.6840  173.4790  138.2840 N   0  0  0  0  0  2  0  0  0  0  0  0
  195.2430  174.6680  139.7350 C   0  0  2  0  0  3  0  0  0  0  0  0
  197.6090  175.6460  139.3340 C   0  0  0  0  0  1  0  0  0  0  0  0
  196.1190  173.2360  136.6720 O   0  0  0  0  0  0  0  0  0  0  0  0
  197.2460  173.1620  139.4330 C   0  0  0  0  0  1  0  0  0  0  0  0
  194.4940  174.6840  138.4000 C   0  0  1  0  0  3  0  0  0  0  0  0
  196.3180  175.7450  136.6290 O   0  0  0  0  0  0  0  0  0  0  0  0
  195.0980  175.9080  140.3630 O   0  0  0  0  0  1  0  0  0  0  0  0
  196.6310  174.5050  139.0870 C   0  0  0  0  0  0  0  0  0  0  0  0
  195.9790  174.5250  137.4380 S   0  0  0  0  0  0  0  0  0  0  0  0
  1  2  1  0  0  0  0
  1  3  1  0  0  0  0
  2  9  1  0  0  0  0
  3  5  1  0  0  0  0
  4  7  1  0  0  0  0
  4  1  2  0  0  0  0
  6  7  1  0  0  0  0
  7  8  2  0  0  0  0
  8  3  1  0  0  0  0
  8 17  1  0  0  0  0
  9  5  2  0  0  0  0
 10 11  1  0  0  0  0
 11 14  1  0  0  0  0
 11 15  2  0  0  0  0
 12 15  1  0  0  0  0
 13 10  2  0  0  0  0
 13 17  1  0  0  0  0
 15 16  1  0  0  0  0
 17 12  2  0  0  0  0
 18 21  1  0  0  0  0
 19 18  1  0  0  0  0
 20 21  1  0  0  0  0
 21  9  1  6  0  0  0
 22 19  2  0  0  0  0
 22 20  1  0  0  0  0
 23 22  1  0  0  0  0
 24 25  1  0  0  0  0
 25 23  1  0  0  0  0
 26 25  1  0  0  0  0
 27 25  1  0  0  0  0
 28  4  1  0  0  0  0
 29 28  1  0  0  0  0
 30 29  1  0  0  0  0
 30 35  1  0  0  0  0
 31 29  2  0  0  0  0
 32 31  1  0  0  0  0
 33 32  2  0  0  0  0
 33 34  1  0  0  0  0
 34 30  2  0  0  0  0
 36 34  1  0  0  0  0
 37 43  1  6  0  0  0
 39 45  2  0  0  0  0
 41 36  1  1  0  0  0
 41 37  1  0  0  0  0
 42 45  2  0  0  0  0
 44 38  1  0  0  0  0
 44 40  1  0  0  0  0
 44 37  1  0  0  0  0
 45 41  1  0  0  0  0
 45 44  1  0  0  0  0
M  END
>  <MODEL>
6

>  <REMARK>
 VINA RESULT:      -7.5      2.331      5.734
  Name = 
  8 active torsions:
  status: ('A' for Active; 'I' for Inactive)
    1  A    between atoms: C_6  and  C_32
    2  A    between atoms: C_9  and  N_18
    3  A    between atoms: C_15  and  S_16
    4  A    between atoms: S_16  and  C_36
    5  A    between atoms: C_17  and  C_32
    6  A    between atoms: N_18  and  C_37
    7  A    between atoms: C_28  and  C_34
    8  A    between atoms: C_31  and  C_40
                            x       y       z     vdW  Elec       q    Type
                         _______ _______ _______ _____ _____    ______ ____

>  <TORSDO>
F 8

$$$$
=
 OpenBabel11042418043D

 45 50  0  0  1  0  0  0  0  0999 V2000
  193.0590  174.3370  143.2260 C   0  0  0  0  0  0  0  0  0  0  0  0
  191.9240  174.2600  141.9890 S   0  0  0  0  0  0  0  0  0  0  0  0
  193.5680  173.1510  143.4970 N   0  0  0  0  0  0  0  0  0  0  0  0
  193.5690  175.2960  144.0760 C   0  0  0  0  0  0  0  0  0  0  0  0
  193.1150  172.1300  142.7810 N   0  0  0  0  0  0  0  0  0  0  0  0
  195.2020  175.1890  146.0550 C   0  0  0  0  0  1  0  0  0  0  0  0
  194.4390  174.5910  144.9210 C   0  0  0  0  0  0  0  0  0  0  0  0
  194.4230  173.2380  144.5310 C   0  0  0  0  0  0  0  0  0  0  0  0
  192.1990  172.5710  141.8750 C   0  0  0  0  0  0  0  0  0  0  0  0
  197.2270  170.9180  145.5880 C   0  0  0  0  0  3  0  0  0  0  0  0
  196.5270  169.9130  146.2630 C   0  0  0  0  0  0  0  0  0  0  0  0
  194.4510  171.0820  145.8200 C   0  0  0  0  0  3  0  0  0  0  0  0
  196.5390  171.9970  145.0280 C   0  0  0  0  0  3  0  0  0  0  0  0
  197.2730  168.7630  146.8420 C   0  0  0  0  0  1  0  0  0  0  0  0
  195.1330  169.9970  146.3810 C   0  0  0  0  0  0  0  0  0  0  0  0
  194.4340  169.0290  147.0250 F   0  0  0  0  0  0  0  0  0  0  0  0
  195.1450  172.0920  145.1380 C   0  0  0  0  0  0  0  0  0  0  0  0
  192.4360  170.6670  140.3070 C   0  0  0  0  0  2  0  0  0  0  0  0
  192.4300  170.9780  138.8860 N   0  0  0  0  0  0  0  0  0  0  0  0
  190.9530  172.4370  139.8140 N   0  0  0  0  0  2  0  0  0  0  0  0
  191.4640  171.6710  140.9370 C   0  0  2  0  0  3  0  0  0  0  0  0
  191.6140  171.9460  138.6640 C   0  0  0  0  0  0  0  0  0  0  0  0
  191.3600  172.6380  137.0300 S   0  0  0  0  0  0  0  0  0  0  0  0
  190.9060  170.1970  135.8430 C   0  0  0  0  0  1  0  0  0  0  0  0
  190.1730  171.3610  136.4840 C   0  0  0  0  0  0  0  0  0  0  0  0
  189.2740  171.8980  135.5830 F   0  0  0  0  0  0  0  0  0  0  0  0
  189.4790  170.8970  137.5820 F   0  0  0  0  0  0  0  0  0  0  0  0
  193.1540  176.7290  144.2180 C   0  0  0  0  0  2  0  0  0  0  0  0
  191.7540  176.8680  144.7230 C   0  0  0  0  0  0  0  0  0  0  0  0
  190.7290  177.3700  143.9030 C   0  0  0  0  0  0  0  0  0  0  0  0
  191.4690  176.4850  146.0390 C   0  0  0  0  0  3  0  0  0  0  0  0
  190.1730  176.6090  146.5420 C   0  0  0  0  0  3  0  0  0  0  0  0
  189.1550  177.1120  145.7300 C   0  0  0  0  0  3  0  0  0  0  0  0
  189.4250  177.4920  144.4070 C   0  0  0  0  0  0  0  0  0  0  0  0
  191.0000  177.7490  142.6250 F   0  0  0  0  0  0  0  0  0  0  0  0
  188.3900  178.0230  143.5680 N   0  0  0  0  0  2  0  0  0  0  0  0
  186.2900  179.1650  143.0830 C   0  0  2  0  0  3  0  0  0  0  0  0
  183.8720  178.3050  142.7200 C   0  0  0  0  0  1  0  0  0  0  0  0
  186.7840  175.7280  142.7080 O   0  0  0  0  0  0  0  0  0  0  0  0
  185.6550  177.8950  140.9970 C   0  0  0  0  0  1  0  0  0  0  0  0
  187.0090  178.1770  144.0040 C   0  0  1  0  0  3  0  0  0  0  0  0
  185.1110  176.2460  144.5170 O   0  0  0  0  0  0  0  0  0  0  0  0
  185.5870  180.0930  143.8570 O   0  0  0  0  0  1  0  0  0  0  0  0
  185.3610  178.1000  142.4710 C   0  0  0  0  0  0  0  0  0  0  0  0
  186.0340  176.7930  143.4640 S   0  0  0  0  0  0  0  0  0  0  0  0
  1  3  1  0  0  0  0
  1  4  2  0  0  0  0
  2  1  1  0  0  0  0
  3  8  1  0  0  0  0
  4 28  1  0  0  0  0
  4  7  1  0  0  0  0
  5  3  1  0  0  0  0
  7  6  1  0  0  0  0
  8  7  2  0  0  0  0
  8 17  1  0  0  0  0
  9  2  1  0  0  0  0
  9  5  2  0  0  0  0
 10 11  1  0  0  0  0
 11 15  2  0  0  0  0
 11 14  1  0  0  0  0
 12 15  1  0  0  0  0
 13 17  1  0  0  0  0
 13 10  2  0  0  0  0
 15 16  1  0  0  0  0
 17 12  2  0  0  0  0
 18 21  1  0  0  0  0
 19 18  1  0  0  0  0
 20 21  1  0  0  0  0
 21  9  1  1  0  0  0
 22 19  2  0  0  0  0
 22 20  1  0  0  0  0
 23 22  1  0  0  0  0
 24 25  1  0  0  0  0
 25 23  1  0  0  0  0
 25 27  1  0  0  0  0
 26 25  1  0  0  0  0
 28 29  1  0  0  0  0
 29 31  1  0  0  0  0
 30 34  1  0  0  0  0
 30 29  2  0  0  0  0
 31 32  2  0  0  0  0
 33 32  1  0  0  0  0
 34 33  2  0  0  0  0
 35 30  1  0  0  0  0
 36 34  1  0  0  0  0
 37 43  1  1  0  0  0
 37 41  1  0  0  0  0
 39 45  2  0  0  0  0
 40 44  1  0  0  0  0
 41 36  1  6  0  0  0
 44 38  1  0  0  0  0
 44 37  1  0  0  0  0
 44 45  1  0  0  0  0
 45 41  1  0  0  0  0
 45 42  2  0  0  0  0
M  END
>  <MODEL>
7

>  <REMARK>
 VINA RESULT:      -7.5      3.750      7.933
  Name = 
  8 active torsions:
  status: ('A' for Active; 'I' for Inactive)
    1  A    between atoms: C_6  and  C_32
    2  A    between atoms: C_9  and  N_18
    3  A    between atoms: C_15  and  S_16
    4  A    between atoms: S_16  and  C_36
    5  A    between atoms: C_17  and  C_32
    6  A    between atoms: N_18  and  C_37
    7  A    between atoms: C_28  and  C_34
    8  A    between atoms: C_31  and  C_40
                            x       y       z     vdW  Elec       q    Type
                         _______ _______ _______ _____ _____    ______ ____

>  <TORSDO>
F 8

$$$$
=
 OpenBabel11042418043D

 45 50  0  0  1  0  0  0  0  0999 V2000
  193.2550  173.7110  145.2210 C   0  0  0  0  0  0  0  0  0  0  0  0
  193.6520  172.2800  144.4340 S   0  0  0  0  0  0  0  0  0  0  0  0
  192.0340  174.1110  144.9210 N   0  0  0  0  0  0  0  0  0  0  0  0
  193.8750  174.6140  146.0570 C   0  0  0  0  0  0  0  0  0  0  0  0
  191.3480  173.3510  144.0760 N   0  0  0  0  0  0  0  0  0  0  0  0
  193.1520  176.8750  147.0360 C   0  0  0  0  0  1  0  0  0  0  0  0
  192.9280  175.6340  146.2400 C   0  0  0  0  0  0  0  0  0  0  0  0
  191.7720  175.2880  145.5150 C   0  0  0  0  0  0  0  0  0  0  0  0
  192.0950  172.2710  143.7140 C   0  0  0  0  0  0  0  0  0  0  0  0
  188.3510  176.7490  146.2380 C   0  0  0  0  0  3  0  0  0  0  0  0
  188.1080  177.4920  145.0790 C   0  0  0  0  0  0  0  0  0  0  0  0
  190.2620  176.8090  144.2050 C   0  0  0  0  0  3  0  0  0  0  0  0
  189.5440  176.0350  146.3750 C   0  0  0  0  0  3  0  0  0  0  0  0
  186.8260  178.2360  144.9410 C   0  0  0  0  0  1  0  0  0  0  0  0
  189.0680  177.5240  144.0590 C   0  0  0  0  0  0  0  0  0  0  0  0
  188.8480  178.2320  142.9230 F   0  0  0  0  0  0  0  0  0  0  0  0
  190.5120  176.0570  145.3620 C   0  0  0  0  0  0  0  0  0  0  0  0
  192.4740  171.3130  141.4610 C   0  0  0  0  0  2  0  0  0  0  0  0
  191.5350  171.6930  140.4170 N   0  0  0  0  0  0  0  0  0  0  0  0
  190.2810  171.5340  142.3070 N   0  0  0  0  0  2  0  0  0  0  0  0
  191.6350  171.2370  142.7410 C   0  0  2  0  0  3  0  0  0  0  0  0
  190.3580  171.8030  140.9210 C   0  0  0  0  0  0  0  0  0  0  0  0
  188.9340  172.2940  139.9470 S   0  0  0  0  0  0  0  0  0  0  0  0
  187.9850  174.0610  141.8320 C   0  0  0  0  0  1  0  0  0  0  0  0
  188.8620  174.0010  140.5960 C   0  0  0  0  0  0  0  0  0  0  0  0
  188.3680  174.8570  139.6310 F   0  0  0  0  0  0  0  0  0  0  0  0
  190.1370  174.4030  140.9360 F   0  0  0  0  0  0  0  0  0  0  0  0
  195.3030  174.6310  146.5140 C   0  0  0  0  0  2  0  0  0  0  0  0
  196.2140  173.9300  145.5580 C   0  0  0  0  0  0  0  0  0  0  0  0
  196.5740  174.5160  144.3320 C   0  0  0  0  0  0  0  0  0  0  0  0
  196.7130  172.6680  145.9010 C   0  0  0  0  0  3  0  0  0  0  0  0
  197.5600  171.9860  145.0270 C   0  0  0  0  0  3  0  0  0  0  0  0
  197.9160  172.5650  143.8080 C   0  0  0  0  0  3  0  0  0  0  0  0
  197.4290  173.8320  143.4540 C   0  0  0  0  0  0  0  0  0  0  0  0
  196.0890  175.7390  143.9900 F   0  0  0  0  0  0  0  0  0  0  0  0
  197.7770  174.4300  142.1980 N   0  0  0  0  0  2  0  0  0  0  0  0
  195.9200  173.2160  141.1840 C   0  0  2  0  0  3  0  0  0  0  0  0
  194.2100  173.8510  139.3430 C   0  0  0  0  0  1  0  0  0  0  0  0
  196.3950  176.6650  140.9010 O   0  0  0  0  0  0  0  0  0  0  0  0
  194.0960  174.9050  141.6210 C   0  0  0  0  0  1  0  0  0  0  0  0
  197.2050  174.0060  140.9270 C   0  0  1  0  0  3  0  0  0  0  0  0
  196.6290  175.4970  138.6830 O   0  0  0  0  0  0  0  0  0  0  0  0
  195.9380  172.0420  140.4260 O   0  0  0  0  0  1  0  0  0  0  0  0
  195.0000  174.2880  140.5700 C   0  0  0  0  0  0  0  0  0  0  0  0
  196.3510  175.3580  140.1530 S   0  0  0  0  0  0  0  0  0  0  0  0
  1  4  2  0  0  0  0
  2  1  1  0  0  0  0
  3  1  1  0  0  0  0
  3  8  1  0  0  0  0
  4  7  1  0  0  0  0
  4 28  1  0  0  0  0
  5  3  1  0  0  0  0
  7  6  1  0  0  0  0
  8  7  2  0  0  0  0
  9  5  2  0  0  0  0
  9  2  1  0  0  0  0
 10 13  1  0  0  0  0
 11 10  2  0  0  0  0
 12 17  1  0  0  0  0
 14 11  1  0  0  0  0
 15 12  2  0  0  0  0
 15 11  1  0  0  0  0
 16 15  1  0  0  0  0
 17  8  1  0  0  0  0
 17 13  2  0  0  0  0
 18 21  1  0  0  0  0
 19 22  2  0  0  0  0
 19 18  1  0  0  0  0
 20 21  1  0  0  0  0
 21  9  1  1  0  0  0
 22 20  1  0  0  0  0
 23 25  1  0  0  0  0
 23 22  1  0  0  0  0
 25 27  1  0  0  0  0
 25 24  1  0  0  0  0
 26 25  1  0  0  0  0
 29 31  1  0  0  0  0
 29 28  1  0  0  0  0
 30 29  2  0  0  0  0
 32 31  2  0  0  0  0
 33 32  1  0  0  0  0
 34 33  2  0  0  0  0
 34 30  1  0  0  0  0
 35 30  1  0  0  0  0
 36 34  1  0  0  0  0
 37 43  1  6  0  0  0
 38 44  1  0  0  0  0
 41 37  1  0  0  0  0
 41 36  1  1  0  0  0
 42 45  2  0  0  0  0
 44 37  1  0  0  0  0
 44 40  1  0  0  0  0
 45 44  1  0  0  0  0
 45 39  2  0  0  0  0
 45 41  1  0  0  0  0
M  END
>  <MODEL>
8

>  <REMARK>
 VINA RESULT:      -7.4      2.265      3.246
  Name = 
  8 active torsions:
  status: ('A' for Active; 'I' for Inactive)
    1  A    between atoms: C_6  and  C_32
    2  A    between atoms: C_9  and  N_18
    3  A    between atoms: C_15  and  S_16
    4  A    between atoms: S_16  and  C_36
    5  A    between atoms: C_17  and  C_32
    6  A    between atoms: N_18  and  C_37
    7  A    between atoms: C_28  and  C_34
    8  A    between atoms: C_31  and  C_40
                            x       y       z     vdW  Elec       q    Type
                         _______ _______ _______ _____ _____    ______ ____

>  <TORSDO>
F 8

$$$$
=
 OpenBabel11042418043D

 45 50  0  0  1  0  0  0  0  0999 V2000
  190.0420  173.9220  144.6950 C   0  0  0  0  0  0  0  0  0  0  0  0
  190.7350  172.4490  144.2800 S   0  0  0  0  0  0  0  0  0  0  0  0
  189.1310  174.2980  143.8170 N   0  0  0  0  0  0  0  0  0  0  0  0
  190.2000  174.8760  145.6780 C   0  0  0  0  0  0  0  0  0  0  0  0
  188.9240  173.4870  142.7880 N   0  0  0  0  0  0  0  0  0  0  0  0
  189.1480  177.1880  146.0560 C   0  0  0  0  0  1  0  0  0  0  0  0
  189.3090  175.9010  145.3210 C   0  0  0  0  0  0  0  0  0  0  0  0
  188.6440  175.5080  144.1450 C   0  0  0  0  0  0  0  0  0  0  0  0
  189.7260  172.3910  142.8950 C   0  0  0  0  0  0  0  0  0  0  0  0
  185.3920  177.1690  143.1300 C   0  0  0  0  0  3  0  0  0  0  0  0
  185.7100  177.6690  141.8640 C   0  0  0  0  0  0  0  0  0  0  0  0
  187.9500  176.7700  142.0870 C   0  0  0  0  0  3  0  0  0  0  0  0
  186.3490  176.4680  143.8680 C   0  0  0  0  0  3  0  0  0  0  0  0
  184.6750  178.4010  141.0840 C   0  0  0  0  0  1  0  0  0  0  0  0
  186.9950  177.4700  141.3410 C   0  0  0  0  0  0  0  0  0  0  0  0
  187.3210  177.9400  140.1110 F   0  0  0  0  0  0  0  0  0  0  0  0
  187.6370  176.2620  143.3560 C   0  0  0  0  0  0  0  0  0  0  0  0
  191.1540  170.6390  141.8810 C   0  0  0  0  0  2  0  0  0  0  0  0
  191.7080  170.9200  140.5650 N   0  0  0  0  0  0  0  0  0  0  0  0
  189.6360  171.8580  140.5450 N   0  0  0  0  0  2  0  0  0  0  0  0
  189.7710  171.2980  141.8790 C   0  0  2  0  0  3  0  0  0  0  0  0
  190.8520  171.5850  139.8750 C   0  0  0  0  0  0  0  0  0  0  0  0
  191.1880  172.1490  138.2060 S   0  0  0  0  0  0  0  0  0  0  0  0
  190.4240  170.8240  135.9180 C   0  0  0  0  0  1  0  0  0  0  0  0
  190.6920  170.5900  137.3940 C   0  0  0  0  0  0  0  0  0  0  0  0
  189.5600  170.0770  137.9970 F   0  0  0  0  0  0  0  0  0  0  0  0
  191.7150  169.6750  137.5200 F   0  0  0  0  0  0  0  0  0  0  0  0
  191.2240  174.9260  146.7700 C   0  0  0  0  0  2  0  0  0  0  0  0
  192.5550  175.4010  146.2820 C   0  0  0  0  0  0  0  0  0  0  0  0
  193.5560  174.4930  145.8960 C   0  0  0  0  0  0  0  0  0  0  0  0
  192.7960  176.7780  146.2100 C   0  0  0  0  0  3  0  0  0  0  0  0
  194.0300  177.2530  145.7650 C   0  0  0  0  0  3  0  0  0  0  0  0
  195.0270  176.3530  145.3840 C   0  0  0  0  0  3  0  0  0  0  0  0
  194.7960  174.9710  145.4450 C   0  0  0  0  0  0  0  0  0  0  0  0
  193.3300  173.1550  145.9680 F   0  0  0  0  0  0  0  0  0  0  0  0
  195.8190  174.0370  145.0700 N   0  0  0  0  0  2  0  0  0  0  0  0
  194.7110  173.8850  142.9030 C   0  0  2  0  0  3  0  0  0  0  0  0
  195.5940  174.0300  140.4700 C   0  0  0  0  0  1  0  0  0  0  0  0
  197.9410  175.1280  143.3700 O   0  0  0  0  0  0  0  0  0  0  0  0
  195.5060  176.0740  141.9300 C   0  0  0  0  0  1  0  0  0  0  0  0
  195.8430  173.3530  143.7850 C   0  0  1  0  0  3  0  0  0  0  0  0
  197.9380  172.9950  142.0320 O   0  0  0  0  0  0  0  0  0  0  0  0
  194.0220  172.8100  142.3330 O   0  0  0  0  0  1  0  0  0  0  0  0
  195.6580  174.5650  141.8960 C   0  0  0  0  0  0  0  0  0  0  0  0
  197.1180  174.0300  142.7490 S   0  0  0  0  0  0  0  0  0  0  0  0
  1  4  2  0  0  0  0
  2  1  1  0  0  0  0
  3  8  1  0  0  0  0
  3  1  1  0  0  0  0
  4 28  1  0  0  0  0
  5  9  2  0  0  0  0
  5  3  1  0  0  0  0
  7  4  1  0  0  0  0
  7  6  1  0  0  0  0
  8  7  2  0  0  0  0
  9  2  1  0  0  0  0
 10 13  1  0  0  0  0
 11 10  2  0  0  0  0
 12 17  1  0  0  0  0
 14 11  1  0  0  0  0
 15 11  1  0  0  0  0
 15 12  2  0  0  0  0
 16 15  1  0  0  0  0
 17 13  2  0  0  0  0
 17  8  1  0  0  0  0
 19 18  1  0  0  0  0
 20 21  1  0  0  0  0
 21 18  1  0  0  0  0
 21  9  1  1  0  0  0
 22 20  1  0  0  0  0
 22 19  2  0  0  0  0
 23 22  1  0  0  0  0
 24 25  1  0  0  0  0
 25 27  1  0  0  0  0
 25 26  1  0  0  0  0
 25 23  1  0  0  0  0
 29 28  1  0  0  0  0
 30 35  1  0  0  0  0
 30 29  2  0  0  0  0
 31 29  1  0  0  0  0
 32 31  2  0  0  0  0
 33 34  2  0  0  0  0
 33 32  1  0  0  0  0
 34 30  1  0  0  0  0
 36 34  1  0  0  0  0
 37 43  1  6  0  0  0
 37 41  1  0  0  0  0
 38 44  1  0  0  0  0
 41 36  1  1  0  0  0
 42 45  2  0  0  0  0
 44 40  1  0  0  0  0
 44 45  1  0  0  0  0
 44 37  1  0  0  0  0
 45 39  2  0  0  0  0
 45 41  1  0  0  0  0
M  END
>  <MODEL>
9

>  <REMARK>
 VINA RESULT:      -7.4      1.827      2.075
  Name = 
  8 active torsions:
  status: ('A' for Active; 'I' for Inactive)
    1  A    between atoms: C_6  and  C_32
    2  A    between atoms: C_9  and  N_18
    3  A    between atoms: C_15  and  S_16
    4  A    between atoms: S_16  and  C_36
    5  A    between atoms: C_17  and  C_32
    6  A    between atoms: N_18  and  C_37
    7  A    between atoms: C_28  and  C_34
    8  A    between atoms: C_31  and  C_40
                            x       y       z     vdW  Elec       q    Type
                         _______ _______ _______ _____ _____    ______ ____

>  <TORSDO>
F 8

$$$$
