=
 OpenBabel11042413453D

 30 34  0  0  1  0  0  0  0  0999 V2000
  194.1040  177.0820  145.5270 O   0  0  0  0  0  1  0  0  0  0  0  0
  192.8530  176.6210  145.1180 C   0  0  2  0  0  0  0  0  0  0  0  0
  191.9490  174.6220  144.4490 C   0  0  1  0  0  3  0  0  0  0  0  0
  191.9110  176.6940  146.1050 O   0  0  0  0  0  0  0  0  0  0  0  0
  192.3430  175.3640  145.7680 C   0  0  2  0  0  0  0  0  0  0  0  0
  192.3320  176.9430  143.7480 C   0  0  0  0  0  2  0  0  0  0  0  0
  190.9670  174.6560  145.5670 C   0  0  1  0  0  3  0  0  0  0  0  0
  191.8190  175.6110  143.2720 C   0  0  2  0  0  3  0  0  0  0  0  0
  188.6760  174.6740  141.2460 C   0  0  0  0  0  0  0  0  0  0  0  0
  189.8740  174.4110  142.1230 C   0  0  0  0  0  0  0  0  0  0  0  0
  191.3720  171.7320  139.9120 N   0  0  0  0  0  1  0  0  0  0  0  0
  189.6960  176.8580  142.6760 C   0  0  0  0  0  3  0  0  0  0  0  0
  188.5250  176.9250  142.0410 C   0  0  0  0  0  0  0  0  0  0  0  0
  189.0800  172.6560  140.0230 N   0  0  0  0  0  0  0  0  0  0  0  0
  188.2410  173.5990  140.3460 C   0  0  0  0  0  2  0  0  0  0  0  0
  188.0550  175.8130  141.2660 N   0  0  0  0  0  0  0  0  0  0  0  0
  190.4430  172.6430  140.4880 C   0  0  0  0  0  0  0  0  0  0  0  0
  190.4820  175.6490  142.6480 N   0  0  0  0  0  0  0  0  0  0  0  0
  190.8580  173.5040  141.4280 C   0  0  0  0  0  3  0  0  0  0  0  0
  187.7540  178.2010  142.0440 C   0  0  0  0  0  2  0  0  0  0  0  0
  186.4740  178.0520  142.7990 C   0  0  0  0  0  3  0  0  0  0  0  0
  185.9270  179.0690  143.3540 N   0  0  0  0  0  2  0  0  0  0  0  0
  189.8780  175.5410  145.3090 O   0  0  0  0  0  0  0  0  0  0  0  0
  188.7450  174.8920  147.1910 O   0  0  0  0  0  0  0  0  0  0  0  0
  187.8150  176.6770  146.0100 N   0  0  0  0  0  2  0  0  0  0  0  0
  188.8160  175.6720  146.2050 C   0  0  0  0  0  0  0  0  0  0  0  0
  186.6770  176.8180  146.9060 C   0  0  0  0  0  2  0  0  0  0  0  0
  185.3800  176.7330  146.1170 C   0  0  0  0  0  2  0  0  0  0  0  0
  184.4590  177.8920  146.4680 C   0  0  0  0  0  2  0  0  0  0  0  0
  185.2350  179.0120  146.9730 N   0  0  0  0  0  1  0  0  0  0  0  0
  2  1  1  1  0  0  0
  2  5  1  0  0  0  0
  2  4  1  0  0  0  0
  3  7  1  0  0  0  0
  3  5  1  0  0  0  0
  5  4  1  0  0  0  0
  6  2  1  0  0  0  0
  7  5  1  0  0  0  0
  8  6  1  0  0  0  0
  8  3  1  0  0  0  0
  9 16  2  0  0  0  0
  9 10  1  0  0  0  0
 10 18  1  0  0  0  0
 11 17  1  0  0  0  0
 13 20  1  0  0  0  0
 13 12  2  0  0  0  0
 14 15  1  0  0  0  0
 14 17  2  0  0  0  0
 15  9  1  0  0  0  0
 16 13  1  0  0  0  0
 17 19  1  0  0  0  0
 18 12  1  0  0  0  0
 18  8  1  0  0  0  0
 19 10  2  0  0  0  0
 20 21  1  0  0  0  0
 21 22  2  0  0  0  0
 23  7  1  0  0  0  0
 23 26  1  0  0  0  0
 25 26  1  0  0  0  0
 25 27  1  0  0  0  0
 26 24  2  0  0  0  0
 28 29  1  0  0  0  0
 28 27  1  0  0  0  0
 29 30  1  0  0  0  0
M  END
>  <MODEL>
1

>  <REMARK>
 VINA RESULT:      -6.3      0.000      0.000
  Name = 
  8 active torsions:
  status: ('A' for Active; 'I' for Inactive)
    1  A    between atoms: C_6  and  C_12
    2  A    between atoms: C_6  and  C_23
    3  A    between atoms: C_8  and  C_27
    4  A    between atoms: N_11  and  C_16
    5  A    between atoms: O_13  and  C_15
    6  A    between atoms: O_13  and  C_24
    7  A    between atoms: C_16  and  C_27
    8  A    between atoms: N_25  and  C_26
                            x       y       z     vdW  Elec       q    Type
                         _______ _______ _______ _____ _____    ______ ____

>  <TORSDO>
F 8

$$$$
=
 OpenBabel11042413453D

 30 34  0  0  1  0  0  0  0  0999 V2000
  190.9530  175.2900  148.0420 O   0  0  0  0  0  1  0  0  0  0  0  0
  190.7060  175.5220  146.6880 C   0  0  2  0  0  0  0  0  0  0  0  0
  190.2790  177.3410  145.3590 C   0  0  1  0  0  3  0  0  0  0  0  0
  191.7750  175.2170  145.8930 O   0  0  0  0  0  0  0  0  0  0  0  0
  191.4940  176.6210  146.0290 C   0  0  2  0  0  0  0  0  0  0  0  0
  189.3760  175.1770  146.0860 C   0  0  0  0  0  2  0  0  0  0  0  0
  191.4840  177.0600  144.5320 C   0  0  1  0  0  3  0  0  0  0  0  0
  189.0520  176.4080  145.2830 C   0  0  2  0  0  3  0  0  0  0  0  0
  187.2580  176.7480  141.8880 C   0  0  0  0  0  0  0  0  0  0  0  0
  187.9900  177.2420  143.1110 C   0  0  0  0  0  0  0  0  0  0  0  0
  185.4130  179.8440  144.0600 N   0  0  0  0  0  1  0  0  0  0  0  0
  188.7750  174.8600  143.2980 C   0  0  0  0  0  3  0  0  0  0  0  0
  188.2640  174.5880  142.0970 C   0  0  0  0  0  0  0  0  0  0  0  0
  185.8250  178.6660  141.9240 N   0  0  0  0  0  0  0  0  0  0  0  0
  186.3100  177.6660  141.2450 C   0  0  0  0  0  2  0  0  0  0  0  0
  187.4400  175.5510  141.4230 N   0  0  0  0  0  0  0  0  0  0  0  0
  186.1550  178.8910  143.3080 C   0  0  0  0  0  0  0  0  0  0  0  0
  188.5640  176.1460  143.9150 N   0  0  0  0  0  0  0  0  0  0  0  0
  187.1250  178.1860  143.9080 C   0  0  0  0  0  3  0  0  0  0  0  0
  188.4550  173.2350  141.5000 C   0  0  0  0  0  2  0  0  0  0  0  0
  189.0520  172.2920  142.4910 C   0  0  0  0  0  3  0  0  0  0  0  0
  190.0130  171.5150  142.1490 N   0  0  0  0  0  2  0  0  0  0  0  0
  191.2730  175.9960  143.6050 O   0  0  0  0  0  0  0  0  0  0  0  0
  191.9160  174.8420  141.7340 O   0  0  0  0  0  0  0  0  0  0  0  0
  193.4650  176.3780  142.5630 N   0  0  0  0  0  2  0  0  0  0  0  0
  192.2010  175.7060  142.6040 C   0  0  0  0  0  0  0  0  0  0  0  0
  194.4680  176.0740  141.5530 C   0  0  0  0  0  2  0  0  0  0  0  0
  195.8540  176.4150  142.0790 C   0  0  0  0  0  2  0  0  0  0  0  0
  195.8760  176.3870  143.5990 C   0  0  0  0  0  2  0  0  0  0  0  0
  196.7440  175.3180  144.0670 N   0  0  0  0  0  1  0  0  0  0  0  0
  2  1  1  1  0  0  0
  3  5  1  0  0  0  0
  4  5  1  0  0  0  0
  4  2  1  0  0  0  0
  5  2  1  0  0  0  0
  6  2  1  0  0  0  0
  7  3  1  0  0  0  0
  7  5  1  0  0  0  0
  8  3  1  0  0  0  0
  8  6  1  0  0  0  0
  9 10  1  0  0  0  0
 10 19  2  0  0  0  0
 10 18  1  0  0  0  0
 12 18  1  0  0  0  0
 13 12  2  0  0  0  0
 14 17  2  0  0  0  0
 15  9  1  0  0  0  0
 15 14  1  0  0  0  0
 16  9  2  0  0  0  0
 16 13  1  0  0  0  0
 17 19  1  0  0  0  0
 17 11  1  0  0  0  0
 18  8  1  0  0  0  0
 20 13  1  0  0  0  0
 20 21  1  0  0  0  0
 22 21  2  0  0  0  0
 23  7  1  0  0  0  0
 24 26  2  0  0  0  0
 25 26  1  0  0  0  0
 26 23  1  0  0  0  0
 27 28  1  0  0  0  0
 27 25  1  0  0  0  0
 28 29  1  0  0  0  0
 29 30  1  0  0  0  0
M  END
>  <MODEL>
2

>  <REMARK>
 VINA RESULT:      -6.1      2.362      6.268
  Name = 
  8 active torsions:
  status: ('A' for Active; 'I' for Inactive)
    1  A    between atoms: C_6  and  C_12
    2  A    between atoms: C_6  and  C_23
    3  A    between atoms: C_8  and  C_27
    4  A    between atoms: N_11  and  C_16
    5  A    between atoms: O_13  and  C_15
    6  A    between atoms: O_13  and  C_24
    7  A    between atoms: C_16  and  C_27
    8  A    between atoms: N_25  and  C_26
                            x       y       z     vdW  Elec       q    Type
                         _______ _______ _______ _____ _____    ______ ____

>  <TORSDO>
F 8

$$$$
=
 OpenBabel11042413453D

 30 34  0  0  1  0  0  0  0  0999 V2000
  190.1030  170.4510  141.9470 O   0  0  0  0  0  1  0  0  0  0  0  0
  190.2230  171.7250  142.5020 C   0  0  2  0  0  0  0  0  0  0  0  0
  191.7990  173.3910  142.5280 C   0  0  1  0  0  3  0  0  0  0  0  0
  189.3190  172.6140  141.9940 O   0  0  0  0  0  0  0  0  0  0  0  0
  190.6830  172.8270  141.5890 C   0  0  2  0  0  0  0  0  0  0  0  0
  190.4920  171.8950  143.9690 C   0  0  0  0  0  2  0  0  0  0  0  0
  190.8440  174.3470  141.9040 C   0  0  1  0  0  3  0  0  0  0  0  0
  191.5890  172.9240  143.9840 C   0  0  2  0  0  3  0  0  0  0  0  0
  192.2480  175.8760  146.3740 C   0  0  0  0  0  0  0  0  0  0  0  0
  192.4530  175.0370  145.1370 C   0  0  2  0  0  3  0  0  0  0  0  0
  196.1840  174.6100  145.5920 N   0  0  0  0  0  1  0  0  0  0  0  0
  190.1390  174.1850  145.6330 C   0  0  0  0  0  3  0  0  0  0  0  0
  189.9880  175.1170  146.5750 C   0  0  0  0  0  0  0  0  0  0  0  0
  194.6050  176.2530  146.5550 N   0  0  0  0  0  0  0  0  0  0  0  0
  193.4020  176.6230  146.8890 C   0  0  0  0  0  3  0  0  0  0  0  0
  191.1010  175.9280  146.9780 N   0  0  0  0  0  0  0  0  0  0  0  0
  194.8570  175.1060  145.7210 C   0  0  0  0  0  0  0  0  0  0  0  0
  191.4010  174.0170  144.9570 N   0  0  0  0  0  0  0  0  0  0  0  0
  193.8520  174.4760  145.0960 C   0  0  0  0  0  3  0  0  0  0  0  0
  188.6880  175.2400  147.2930 C   0  0  0  0  0  2  0  0  0  0  0  0
  187.7730  176.1850  146.5870 C   0  0  0  0  0  3  0  0  0  0  0  0
  188.0410  177.4380  146.5460 N   0  0  0  0  0  2  0  0  0  0  0  0
  189.8970  174.8610  142.8400 O   0  0  0  0  0  0  0  0  0  0  0  0
  189.7990  177.0390  143.5420 O   0  0  0  0  0  0  0  0  0  0  0  0
  188.4400  176.4950  141.7240 N   0  0  0  0  0  2  0  0  0  0  0  0
  189.3980  176.1600  142.7350 C   0  0  0  0  0  0  0  0  0  0  0  0
  187.8760  177.8310  141.6090 C   0  0  0  0  0  2  0  0  0  0  0  0
  186.4000  177.7420  141.2520 C   0  0  0  0  0  2  0  0  0  0  0  0
  185.5510  178.4700  142.2830 C   0  0  0  0  0  2  0  0  0  0  0  0
  186.3200  178.6910  143.4970 N   0  0  0  0  0  1  0  0  0  0  0  0
  2  1  1  6  0  0  0
  2  6  1  0  0  0  0
  3  8  1  0  0  0  0
  4  2  1  0  0  0  0
  5  7  1  0  0  0  0
  5  4  1  0  0  0  0
  5  2  1  0  0  0  0
  5  3  1  0  0  0  0
  6  8  1  0  0  0  0
  7  3  1  0  0  0  0
  7 23  1  0  0  0  0
  8 18  1  0  0  0  0
  9 15  1  0  0  0  0
  9 16  2  0  0  0  0
 10  9  1  0  0  0  0
 11 17  1  0  0  0  0
 12 13  2  0  0  0  0
 13 16  1  0  0  0  0
 13 20  1  0  0  0  0
 14 15  2  0  0  0  0
 17 14  1  0  0  0  0
 18 10  1  0  0  0  0
 18 12  1  0  0  0  0
 19 10  1  0  0  0  0
 19 17  2  0  0  0  0
 21 20  1  0  0  0  0
 22 21  2  0  0  0  0
 25 26  1  0  0  0  0
 26 23  1  0  0  0  0
 26 24  2  0  0  0  0
 27 25  1  0  0  0  0
 28 27  1  0  0  0  0
 28 29  1  0  0  0  0
 29 30  1  0  0  0  0
M  END
>  <MODEL>
3

>  <REMARK>
 VINA RESULT:      -5.9      2.663      5.498
  Name = 
  8 active torsions:
  status: ('A' for Active; 'I' for Inactive)
    1  A    between atoms: C_6  and  C_12
    2  A    between atoms: C_6  and  C_23
    3  A    between atoms: C_8  and  C_27
    4  A    between atoms: N_11  and  C_16
    5  A    between atoms: O_13  and  C_15
    6  A    between atoms: O_13  and  C_24
    7  A    between atoms: C_16  and  C_27
    8  A    between atoms: N_25  and  C_26
                            x       y       z     vdW  Elec       q    Type
                         _______ _______ _______ _____ _____    ______ ____

>  <TORSDO>
F 8

$$$$
=
 OpenBabel11042413453D

 30 34  0  0  1  0  0  0  0  0999 V2000
  184.9430  178.1620  143.1280 O   0  0  0  0  0  1  0  0  0  0  0  0
  186.2110  177.5880  143.0360 C   0  0  2  0  0  0  0  0  0  0  0  0
  187.7450  177.1860  141.3790 C   0  0  1  0  0  3  0  0  0  0  0  0
  187.1640  178.2880  143.7210 O   0  0  0  0  0  0  0  0  0  0  0  0
  187.2600  178.3630  142.2880 C   0  0  2  0  0  0  0  0  0  0  0  0
  186.3790  176.0970  143.1040 C   0  0  0  0  0  2  0  0  0  0  0  0
  188.7660  178.0100  142.0810 C   0  0  1  0  0  3  0  0  0  0  0  0
  187.3160  175.8220  141.9590 C   0  0  2  0  0  3  0  0  0  0  0  0
  190.2230  173.3110  141.6380 C   0  0  0  0  0  0  0  0  0  0  0  0
  189.3540  174.4690  141.2130 C   0  0  0  0  0  0  0  0  0  0  0  0
  188.5870  173.1120  137.7660 N   0  0  0  0  0  1  0  0  0  0  0  0
  188.7280  174.5680  143.6470 C   0  0  0  0  0  3  0  0  0  0  0  0
  189.6810  173.6820  143.9380 C   0  0  0  0  0  0  0  0  0  0  0  0
  190.3820  172.5510  139.3730 N   0  0  0  0  0  0  0  0  0  0  0  0
  190.8670  172.5200  140.5820 C   0  0  0  0  0  2  0  0  0  0  0  0
  190.3900  173.0080  142.8880 N   0  0  0  0  0  0  0  0  0  0  0  0
  189.2070  173.3090  139.0320 C   0  0  0  0  0  0  0  0  0  0  0  0
  188.4340  174.9130  142.2780 N   0  0  0  0  0  0  0  0  0  0  0  0
  188.6640  174.1690  139.9060 C   0  0  0  0  0  3  0  0  0  0  0  0
  189.9340  173.3050  145.3580 C   0  0  0  0  0  2  0  0  0  0  0  0
  189.8460  174.4980  146.2520 C   0  0  0  0  0  3  0  0  0  0  0  0
  189.1120  174.4670  147.3020 N   0  0  0  0  0  2  0  0  0  0  0  0
  189.3670  177.3180  143.1740 O   0  0  0  0  0  0  0  0  0  0  0  0
  190.9960  178.8370  143.7090 O   0  0  0  0  0  0  0  0  0  0  0  0
  191.5790  176.5910  143.9600 N   0  0  0  0  0  2  0  0  0  0  0  0
  190.6540  177.6290  143.6170 C   0  0  0  0  0  0  0  0  0  0  0  0
  192.9380  176.8810  144.3920 C   0  0  0  0  0  2  0  0  0  0  0  0
  193.4530  175.7570  145.2770 C   0  0  0  0  0  2  0  0  0  0  0  0
  193.4040  174.4260  144.5400 C   0  0  0  0  0  2  0  0  0  0  0  0
  194.6150  174.2450  143.7560 N   0  0  0  0  0  1  0  0  0  0  0  0
  2  6  1  0  0  0  0
  2  1  1  1  0  0  0
  2  4  1  0  0  0  0
  3  8  1  0  0  0  0
  3  7  1  0  0  0  0
  3  5  1  0  0  0  0
  5  2  1  0  0  0  0
  5  4  1  0  0  0  0
  7  5  1  0  0  0  0
  7 23  1  0  0  0  0
  8 18  1  0  0  0  0
  8  6  1  0  0  0  0
  9 16  2  0  0  0  0
 10  9  1  0  0  0  0
 10 18  1  0  0  0  0
 11 17  1  0  0  0  0
 12 13  2  0  0  0  0
 13 20  1  0  0  0  0
 14 15  1  0  0  0  0
 15  9  1  0  0  0  0
 16 13  1  0  0  0  0
 17 14  2  0  0  0  0
 17 19  1  0  0  0  0
 18 12  1  0  0  0  0
 19 10  2  0  0  0  0
 20 21  1  0  0  0  0
 21 22  2  0  0  0  0
 23 26  1  0  0  0  0
 25 27  1  0  0  0  0
 26 24  2  0  0  0  0
 26 25  1  0  0  0  0
 27 28  1  0  0  0  0
 29 28  1  0  0  0  0
 30 29  1  0  0  0  0
M  END
>  <MODEL>
4

>  <REMARK>
 VINA RESULT:      -5.8      2.565      5.622
  Name = 
  8 active torsions:
  status: ('A' for Active; 'I' for Inactive)
    1  A    between atoms: C_6  and  C_12
    2  A    between atoms: C_6  and  C_23
    3  A    between atoms: C_8  and  C_27
    4  A    between atoms: N_11  and  C_16
    5  A    between atoms: O_13  and  C_15
    6  A    between atoms: O_13  and  C_24
    7  A    between atoms: C_16  and  C_27
    8  A    between atoms: N_25  and  C_26
                            x       y       z     vdW  Elec       q    Type
                         _______ _______ _______ _____ _____    ______ ____

>  <TORSDO>
F 8

$$$$
=
 OpenBabel11042413453D

 30 34  0  0  1  0  0  0  0  0999 V2000
  195.0200  177.3610  145.4870 O   0  0  0  0  0  1  0  0  0  0  0  0
  193.7580  176.7850  145.3340 C   0  0  2  0  0  0  0  0  0  0  0  0
  192.8680  174.6730  145.4060 C   0  0  1  0  0  3  0  0  0  0  0  0
  192.8770  177.1690  146.3050 O   0  0  0  0  0  0  0  0  0  0  0  0
  193.3230  175.8040  146.3860 C   0  0  2  0  0  0  0  0  0  0  0  0
  193.1450  176.6450  143.9710 C   0  0  0  0  0  2  0  0  0  0  0  0
  191.9560  175.0610  146.5160 C   0  0  1  0  0  3  0  0  0  0  0  0
  192.6390  175.2280  143.9850 C   0  0  2  0  0  3  0  0  0  0  0  0
  189.3700  173.6590  142.6790 C   0  0  0  0  0  0  0  0  0  0  0  0
  190.6190  173.7300  143.5200 C   0  0  0  0  0  0  0  0  0  0  0  0
  191.9590  170.3480  142.4810 N   0  0  0  0  0  1  0  0  0  0  0  0
  190.4900  176.1990  143.0600 C   0  0  0  0  0  3  0  0  0  0  0  0
  189.2820  176.0440  142.5180 C   0  0  0  0  0  0  0  0  0  0  0  0
  189.6840  171.3100  142.3410 N   0  0  0  0  0  0  0  0  0  0  0  0
  188.8730  172.3280  142.3080 C   0  0  0  0  0  2  0  0  0  0  0  0
  188.7570  174.7300  142.2780 N   0  0  0  0  0  0  0  0  0  0  0  0
  191.0730  171.4400  142.6960 C   0  0  0  0  0  0  0  0  0  0  0  0
  191.2660  175.0560  143.4730 N   0  0  0  0  0  0  0  0  0  0  0  0
  191.5520  172.5920  143.1900 C   0  0  0  0  0  3  0  0  0  0  0  0
  188.5200  177.2380  142.0540 C   0  0  0  0  0  2  0  0  0  0  0  0
  187.4210  176.8440  141.1230 C   0  0  0  0  0  3  0  0  0  0  0  0
  186.2090  177.1780  141.3720 N   0  0  0  0  0  2  0  0  0  0  0  0
  190.8300  175.8100  146.0610 O   0  0  0  0  0  0  0  0  0  0  0  0
  189.4400  174.8960  147.6350 O   0  0  0  0  0  0  0  0  0  0  0  0
  188.4860  176.5200  146.2560 N   0  0  0  0  0  2  0  0  0  0  0  0
  189.5860  175.7100  146.6860 C   0  0  0  0  0  0  0  0  0  0  0  0
  187.1680  176.4160  146.8640 C   0  0  0  0  0  2  0  0  0  0  0  0
  186.1600  177.2200  146.0580 C   0  0  0  0  0  2  0  0  0  0  0  0
  186.8630  178.0830  145.0220 C   0  0  0  0  0  2  0  0  0  0  0  0
  185.9670  179.1260  144.5490 N   0  0  0  0  0  1  0  0  0  0  0  0
  2  1  1  1  0  0  0
  2  4  1  0  0  0  0
  2  5  1  0  0  0  0
  3  5  1  0  0  0  0
  3  7  1  0  0  0  0
  4  5  1  0  0  0  0
  5  7  1  0  0  0  0
  6  8  1  0  0  0  0
  6  2  1  0  0  0  0
  8  3  1  0  0  0  0
  9 10  1  0  0  0  0
 11 17  1  0  0  0  0
 12 18  1  0  0  0  0
 13 12  2  0  0  0  0
 14 17  2  0  0  0  0
 15 14  1  0  0  0  0
 15  9  1  0  0  0  0
 16 13  1  0  0  0  0
 16  9  2  0  0  0  0
 17 19  1  0  0  0  0
 18 10  1  0  0  0  0
 18  8  1  0  0  0  0
 19 10  2  0  0  0  0
 20 13  1  0  0  0  0
 21 22  2  0  0  0  0
 21 20  1  0  0  0  0
 23  7  1  0  0  0  0
 23 26  1  0  0  0  0
 25 26  1  0  0  0  0
 25 27  1  0  0  0  0
 26 24  2  0  0  0  0
 28 27  1  0  0  0  0
 29 28  1  0  0  0  0
 30 29  1  0  0  0  0
M  END
>  <MODEL>
5

>  <REMARK>
 VINA RESULT:      -5.7      1.568      1.742
  Name = 
  8 active torsions:
  status: ('A' for Active; 'I' for Inactive)
    1  A    between atoms: C_6  and  C_12
    2  A    between atoms: C_6  and  C_23
    3  A    between atoms: C_8  and  C_27
    4  A    between atoms: N_11  and  C_16
    5  A    between atoms: O_13  and  C_15
    6  A    between atoms: O_13  and  C_24
    7  A    between atoms: C_16  and  C_27
    8  A    between atoms: N_25  and  C_26
                            x       y       z     vdW  Elec       q    Type
                         _______ _______ _______ _____ _____    ______ ____

>  <TORSDO>
F 8

$$$$
=
 OpenBabel11042413453D

 30 34  0  0  1  0  0  0  0  0999 V2000
  191.0930  175.2780  148.0230 O   0  0  0  0  0  1  0  0  0  0  0  0
  190.8280  175.4840  146.6690 C   0  0  2  0  0  0  0  0  0  0  0  0
  190.3690  177.2750  145.3130 C   0  0  1  0  0  3  0  0  0  0  0  0
  191.8910  175.1740  145.8670 O   0  0  0  0  0  0  0  0  0  0  0  0
  191.5980  176.5770  145.9820 C   0  0  2  0  0  0  0  0  0  0  0  0
  189.4940  175.1170  146.0880 C   0  0  0  0  0  2  0  0  0  0  0  0
  191.5670  176.9900  144.4770 C   0  0  1  0  0  3  0  0  0  0  0  0
  189.1500  176.3310  145.2680 C   0  0  2  0  0  3  0  0  0  0  0  0
  187.3400  176.6100  141.8760 C   0  0  0  0  0  0  0  0  0  0  0  0
  188.0890  177.1240  143.0810 C   0  0  0  0  0  0  0  0  0  0  0  0
  185.5630  179.7960  143.9750 N   0  0  0  0  0  1  0  0  0  0  0  0
  188.8330  174.7350  143.3270 C   0  0  0  0  0  3  0  0  0  0  0  0
  188.3100  174.4390  142.1370 C   0  0  0  0  0  0  0  0  0  0  0  0
  185.9410  178.5530  141.8690 N   0  0  0  0  0  0  0  0  0  0  0  0
  186.4040  177.5270  141.2140 C   0  0  0  0  0  2  0  0  0  0  0  0
  187.4980  175.3980  141.4430 N   0  0  0  0  0  0  0  0  0  0  0  0
  186.2830  178.8100  143.2440 C   0  0  0  0  0  0  0  0  0  0  0  0
  188.6490  176.0400  143.9110 N   0  0  0  0  0  0  0  0  0  0  0  0
  187.2450  178.1040  143.8570 C   0  0  0  0  0  3  0  0  0  0  0  0
  188.4730  173.0680  141.5760 C   0  0  0  0  0  2  0  0  0  0  0  0
  188.9380  173.1210  140.1580 C   0  0  0  0  0  3  0  0  0  0  0  0
  188.1940  172.6740  139.2150 N   0  0  0  0  0  2  0  0  0  0  0  0
  191.3550  175.9090  143.5710 O   0  0  0  0  0  0  0  0  0  0  0  0
  193.2780  176.3550  142.4090 O   0  0  0  0  0  0  0  0  0  0  0  0
  192.0080  174.5610  141.6240 N   0  0  0  0  0  2  0  0  0  0  0  0
  192.2510  175.6380  142.5360 C   0  0  0  0  0  0  0  0  0  0  0  0
  192.9040  174.2740  140.5130 C   0  0  0  0  0  2  0  0  0  0  0  0
  192.7140  172.8380  140.0510 C   0  0  0  0  0  2  0  0  0  0  0  0
  192.8650  172.7320  138.5410 C   0  0  0  0  0  2  0  0  0  0  0  0
  191.6800  173.2590  137.8830 N   0  0  0  0  0  1  0  0  0  0  0  0
  2  1  1  1  0  0  0
  3  5  1  0  0  0  0
  4  5  1  0  0  0  0
  4  2  1  0  0  0  0
  5  2  1  0  0  0  0
  6  2  1  0  0  0  0
  7  3  1  0  0  0  0
  7  5  1  0  0  0  0
  8  3  1  0  0  0  0
  8  6  1  0  0  0  0
  9 10  1  0  0  0  0
 10 19  2  0  0  0  0
 10 18  1  0  0  0  0
 12 18  1  0  0  0  0
 13 12  2  0  0  0  0
 14 17  2  0  0  0  0
 15 14  1  0  0  0  0
 15  9  1  0  0  0  0
 16  9  2  0  0  0  0
 16 13  1  0  0  0  0
 17 19  1  0  0  0  0
 17 11  1  0  0  0  0
 18  8  1  0  0  0  0
 20 13  1  0  0  0  0
 21 20  1  0  0  0  0
 22 21  2  0  0  0  0
 23  7  1  0  0  0  0
 24 26  2  0  0  0  0
 25 26  1  0  0  0  0
 26 23  1  0  0  0  0
 27 25  1  0  0  0  0
 28 27  1  0  0  0  0
 29 28  1  0  0  0  0
 30 29  1  0  0  0  0
M  END
>  <MODEL>
6

>  <REMARK>
 VINA RESULT:      -5.7      1.987      6.196
  Name = 
  8 active torsions:
  status: ('A' for Active; 'I' for Inactive)
    1  A    between atoms: C_6  and  C_12
    2  A    between atoms: C_6  and  C_23
    3  A    between atoms: C_8  and  C_27
    4  A    between atoms: N_11  and  C_16
    5  A    between atoms: O_13  and  C_15
    6  A    between atoms: O_13  and  C_24
    7  A    between atoms: C_16  and  C_27
    8  A    between atoms: N_25  and  C_26
                            x       y       z     vdW  Elec       q    Type
                         _______ _______ _______ _____ _____    ______ ____

>  <TORSDO>
F 8

$$$$
=
 OpenBabel11042413453D

 30 34  0  0  1  0  0  0  0  0999 V2000
  188.4890  178.2710  141.2800 O   0  0  0  0  0  1  0  0  0  0  0  0
  189.0540  177.5790  142.3510 C   0  0  2  0  0  0  0  0  0  0  0  0
  190.8090  177.8850  143.7950 C   0  0  1  0  0  3  0  0  0  0  0  0
  188.2140  177.4800  143.4240 O   0  0  0  0  0  0  0  0  0  0  0  0
  189.3340  178.3650  143.6010 C   0  0  2  0  0  0  0  0  0  0  0  0
  189.8890  176.3540  142.1110 C   0  0  0  0  0  2  0  0  0  0  0  0
  189.8920  177.8550  144.9660 C   0  0  1  0  0  3  0  0  0  0  0  0
  191.0850  176.5970  142.9920 C   0  0  2  0  0  3  0  0  0  0  0  0
  193.1610  174.1690  145.1490 C   0  0  0  0  0  0  0  0  0  0  0  0
  192.7140  175.5170  144.6410 C   0  0  2  0  0  3  0  0  0  0  0  0
  196.1800  176.7410  143.7420 N   0  0  0  0  0  1  0  0  0  0  0  0
  190.6430  174.2840  143.9240 C   0  0  0  0  0  3  0  0  0  0  0  0
  191.0450  173.2030  144.5920 C   0  0  0  0  0  0  0  0  0  0  0  0
  195.4360  174.9100  145.2310 N   0  0  0  0  0  0  0  0  0  0  0  0
  194.5450  174.0430  145.6210 C   0  0  0  0  0  3  0  0  0  0  0  0
  192.3620  173.1460  145.1580 N   0  0  0  0  0  0  0  0  0  0  0  0
  195.1240  175.9790  144.3180 C   0  0  0  0  0  0  0  0  0  0  0  0
  191.4960  175.4400  143.8110 N   0  0  0  0  0  0  0  0  0  0  0  0
  193.8560  176.2410  143.9720 C   0  0  0  0  0  3  0  0  0  0  0  0
  190.1640  172.0010  144.6550 C   0  0  0  0  0  2  0  0  0  0  0  0
  189.4290  171.8080  143.3700 C   0  0  0  0  0  3  0  0  0  0  0  0
  189.9830  171.1880  142.3940 N   0  0  0  0  0  2  0  0  0  0  0  0
  189.4910  176.5300  145.3110 O   0  0  0  0  0  0  0  0  0  0  0  0
  188.5060  175.2120  146.9040 O   0  0  0  0  0  0  0  0  0  0  0  0
  187.4650  177.2590  146.4920 N   0  0  0  0  0  2  0  0  0  0  0  0
  188.4940  176.2910  146.2570 C   0  0  0  0  0  0  0  0  0  0  0  0
  186.3910  177.0270  147.4480 C   0  0  0  0  0  2  0  0  0  0  0  0
  185.0600  176.9320  146.7200 C   0  0  0  0  0  2  0  0  0  0  0  0
  185.1020  177.7120  145.4150 C   0  0  0  0  0  2  0  0  0  0  0  0
  184.2540  178.8890  145.5090 N   0  0  0  0  0  1  0  0  0  0  0  0
  2  1  1  6  0  0  0
  2  4  1  0  0  0  0
  2  5  1  0  0  0  0
  3  7  1  0  0  0  0
  4  5  1  0  0  0  0
  5  3  1  0  0  0  0
  5  7  1  0  0  0  0
  6  2  1  0  0  0  0
  6  8  1  0  0  0  0
  7 23  1  0  0  0  0
  8  3  1  0  0  0  0
  8 18  1  0  0  0  0
  9 16  2  0  0  0  0
  9 15  1  0  0  0  0
 10  9  1  0  0  0  0
 11 17  1  0  0  0  0
 12 13  2  0  0  0  0
 13 20  1  0  0  0  0
 13 16  1  0  0  0  0
 14 15  2  0  0  0  0
 17 14  1  0  0  0  0
 18 12  1  0  0  0  0
 18 10  1  0  0  0  0
 19 17  2  0  0  0  0
 19 10  1  0  0  0  0
 21 20  1  0  0  0  0
 22 21  2  0  0  0  0
 23 26  1  0  0  0  0
 25 27  1  0  0  0  0
 26 25  1  0  0  0  0
 26 24  2  0  0  0  0
 28 27  1  0  0  0  0
 29 30  1  0  0  0  0
 29 28  1  0  0  0  0
M  END
>  <MODEL>
7

>  <REMARK>
 VINA RESULT:      -5.6      2.543      4.980
  Name = 
  8 active torsions:
  status: ('A' for Active; 'I' for Inactive)
    1  A    between atoms: C_6  and  C_12
    2  A    between atoms: C_6  and  C_23
    3  A    between atoms: C_8  and  C_27
    4  A    between atoms: N_11  and  C_16
    5  A    between atoms: O_13  and  C_15
    6  A    between atoms: O_13  and  C_24
    7  A    between atoms: C_16  and  C_27
    8  A    between atoms: N_25  and  C_26
                            x       y       z     vdW  Elec       q    Type
                         _______ _______ _______ _____ _____    ______ ____

>  <TORSDO>
F 8

$$$$
=
 OpenBabel11042413453D

 30 34  0  0  1  0  0  0  0  0999 V2000
  184.7980  178.0420  141.0160 O   0  0  0  0  0  1  0  0  0  0  0  0
  185.9480  177.7080  141.7310 C   0  0  2  0  0  0  0  0  0  0  0  0
  187.8910  176.5600  141.3240 C   0  0  1  0  0  3  0  0  0  0  0  0
  186.6900  178.8000  142.0840 O   0  0  0  0  0  0  0  0  0  0  0  0
  187.2690  177.9700  141.0620 C   0  0  2  0  0  0  0  0  0  0  0  0
  185.9110  176.6290  142.7740 C   0  0  0  0  0  2  0  0  0  0  0  0
  188.7060  177.7660  141.6340 C   0  0  1  0  0  3  0  0  0  0  0  0
  187.1390  175.8210  142.4520 C   0  0  2  0  0  3  0  0  0  0  0  0
  189.7480  174.1360  144.7350 C   0  0  0  0  0  0  0  0  0  0  0  0
  189.2010  174.6720  143.4350 C   0  0  2  0  0  3  0  0  0  0  0  0
  189.7460  171.4890  141.4640 N   0  0  0  0  0  1  0  0  0  0  0  0
  187.6820  176.0210  144.9170 C   0  0  0  0  0  3  0  0  0  0  0  0
  188.3780  175.6430  145.9900 C   0  0  0  0  0  0  0  0  0  0  0  0
  190.7240  172.2680  143.5990 N   0  0  0  0  0  0  0  0  0  0  0  0
  190.6930  173.0150  144.6660 C   0  0  0  0  0  3  0  0  0  0  0  0
  189.3900  174.6310  145.8790 N   0  0  0  0  0  0  0  0  0  0  0  0
  189.8340  172.4750  142.4860 C   0  0  0  0  0  0  0  0  0  0  0  0
  187.9730  175.4700  143.6170 N   0  0  0  0  0  0  0  0  0  0  0  0
  189.0580  173.5670  142.4190 C   0  0  0  0  0  3  0  0  0  0  0  0
  188.0270  176.1900  147.3310 C   0  0  0  0  0  2  0  0  0  0  0  0
  186.7320  176.9310  147.2850 C   0  0  0  0  0  3  0  0  0  0  0  0
  186.6790  178.1650  147.6300 N   0  0  0  0  0  2  0  0  0  0  0  0
  188.8230  177.9990  143.0370 O   0  0  0  0  0  0  0  0  0  0  0  0
  190.1530  178.4380  144.8490 O   0  0  0  0  0  0  0  0  0  0  0  0
  191.2190  177.4570  143.0190 N   0  0  0  0  0  2  0  0  0  0  0  0
  190.0620  177.9830  143.6790 C   0  0  0  0  0  0  0  0  0  0  0  0
  192.5320  177.4560  143.6470 C   0  0  0  0  0  2  0  0  0  0  0  0
  192.7730  176.1260  144.3440 C   0  0  0  0  0  2  0  0  0  0  0  0
  192.9420  176.3250  145.8420 C   0  0  0  0  0  2  0  0  0  0  0  0
  193.0840  175.0380  146.5050 N   0  0  0  0  0  1  0  0  0  0  0  0
  2  1  1  6  0  0  0
  2  4  1  0  0  0  0
  2  6  1  0  0  0  0
  3  7  1  0  0  0  0
  3  8  1  0  0  0  0
  5  3  1  0  0  0  0
  5  7  1  0  0  0  0
  5  2  1  0  0  0  0
  5  4  1  0  0  0  0
  7 23  1  0  0  0  0
  8  6  1  0  0  0  0
  8 18  1  0  0  0  0
  9 16  2  0  0  0  0
 10 18  1  0  0  0  0
 10  9  1  0  0  0  0
 11 17  1  0  0  0  0
 12 13  2  0  0  0  0
 13 20  1  0  0  0  0
 14 15  2  0  0  0  0
 15  9  1  0  0  0  0
 16 13  1  0  0  0  0
 17 14  1  0  0  0  0
 18 12  1  0  0  0  0
 19 17  2  0  0  0  0
 19 10  1  0  0  0  0
 21 20  1  0  0  0  0
 21 22  2  0  0  0  0
 23 26  1  0  0  0  0
 25 27  1  0  0  0  0
 25 26  1  0  0  0  0
 26 24  2  0  0  0  0
 27 28  1  0  0  0  0
 28 29  1  0  0  0  0
 29 30  1  0  0  0  0
M  END
>  <MODEL>
8

>  <REMARK>
 VINA RESULT:      -5.2      2.534      5.540
  Name = 
  8 active torsions:
  status: ('A' for Active; 'I' for Inactive)
    1  A    between atoms: C_6  and  C_12
    2  A    between atoms: C_6  and  C_23
    3  A    between atoms: C_8  and  C_27
    4  A    between atoms: N_11  and  C_16
    5  A    between atoms: O_13  and  C_15
    6  A    between atoms: O_13  and  C_24
    7  A    between atoms: C_16  and  C_27
    8  A    between atoms: N_25  and  C_26
                            x       y       z     vdW  Elec       q    Type
                         _______ _______ _______ _____ _____    ______ ____

>  <TORSDO>
F 8

$$$$
=
 OpenBabel11042413453D

 30 34  0  0  1  0  0  0  0  0999 V2000
  194.9850  177.9320  145.6040 O   0  0  0  0  0  1  0  0  0  0  0  0
  194.1540  176.8330  145.3880 C   0  0  2  0  0  0  0  0  0  0  0  0
  193.6240  174.8990  146.4990 C   0  0  1  0  0  3  0  0  0  0  0  0
  192.8280  177.1640  145.3710 O   0  0  0  0  0  0  0  0  0  0  0  0
  193.2600  176.4190  146.5230 C   0  0  2  0  0  0  0  0  0  0  0  0
  194.5340  175.7740  144.3950 C   0  0  0  0  0  2  0  0  0  0  0  0
  192.1880  175.2850  146.5530 C   0  0  1  0  0  3  0  0  0  0  0  0
  194.2710  174.5030  145.1550 C   0  0  2  0  0  3  0  0  0  0  0  0
  192.8890  171.1130  143.9480 C   0  0  0  0  0  0  0  0  0  0  0  0
  193.3710  172.1160  144.9660 C   0  0  0  0  0  0  0  0  0  0  0  0
  195.9370  169.8320  146.5510 N   0  0  0  0  0  1  0  0  0  0  0  0
  192.8450  173.8080  143.1810 C   0  0  0  0  0  3  0  0  0  0  0  0
  192.2510  172.8650  142.4500 C   0  0  0  0  0  0  0  0  0  0  0  0
  193.9740  169.3350  145.1290 N   0  0  0  0  0  0  0  0  0  0  0  0
  193.0780  169.6890  144.2520 C   0  0  0  0  0  2  0  0  0  0  0  0
  192.3400  171.4850  142.8330 N   0  0  0  0  0  0  0  0  0  0  0  0
  194.8220  170.2900  145.7940 C   0  0  0  0  0  0  0  0  0  0  0  0
  193.5350  173.4700  144.4010 N   0  0  0  0  0  0  0  0  0  0  0  0
  194.5990  171.6070  145.6780 C   0  0  0  0  0  3  0  0  0  0  0  0
  191.5850  173.2320  141.1670 C   0  0  0  0  0  2  0  0  0  0  0  0
  190.2700  173.8940  141.4160 C   0  0  0  0  0  3  0  0  0  0  0  0
  189.3830  173.3210  142.1420 N   0  0  0  0  0  2  0  0  0  0  0  0
  191.5190  175.0720  145.3100 O   0  0  0  0  0  0  0  0  0  0  0  0
  189.4110  174.3190  145.7970 O   0  0  0  0  0  0  0  0  0  0  0  0
  189.5260  176.2060  144.4280 N   0  0  0  0  0  2  0  0  0  0  0  0
  190.1300  175.1650  145.2040 C   0  0  0  0  0  0  0  0  0  0  0  0
  188.0830  176.3120  144.2700 C   0  0  0  0  0  2  0  0  0  0  0  0
  187.5960  177.6430  144.8200 C   0  0  0  0  0  2  0  0  0  0  0  0
  186.5260  177.4290  145.8790 C   0  0  0  0  0  2  0  0  0  0  0  0
  187.0340  176.5710  146.9370 N   0  0  0  0  0  1  0  0  0  0  0  0
  2  1  1  1  0  0  0
  2  5  1  0  0  0  0
  3  5  1  0  0  0  0
  3  7  1  0  0  0  0
  4  2  1  0  0  0  0
  4  5  1  0  0  0  0
  5  7  1  0  0  0  0
  6  8  1  0  0  0  0
  6  2  1  0  0  0  0
  8  3  1  0  0  0  0
  9 15  1  0  0  0  0
  9 10  1  0  0  0  0
 10 19  2  0  0  0  0
 12 18  1  0  0  0  0
 13 16  1  0  0  0  0
 13 12  2  0  0  0  0
 14 17  2  0  0  0  0
 15 14  1  0  0  0  0
 16  9  2  0  0  0  0
 17 11  1  0  0  0  0
 18 10  1  0  0  0  0
 18  8  1  0  0  0  0
 19 17  1  0  0  0  0
 20 21  1  0  0  0  0
 20 13  1  0  0  0  0
 21 22  2  0  0  0  0
 23  7  1  0  0  0  0
 25 26  1  0  0  0  0
 26 23  1  0  0  0  0
 26 24  2  0  0  0  0
 27 25  1  0  0  0  0
 27 28  1  0  0  0  0
 28 29  1  0  0  0  0
 29 30  1  0  0  0  0
M  END
>  <MODEL>
9

>  <REMARK>
 VINA RESULT:      -5.2      3.078      4.626
  Name = 
  8 active torsions:
  status: ('A' for Active; 'I' for Inactive)
    1  A    between atoms: C_6  and  C_12
    2  A    between atoms: C_6  and  C_23
    3  A    between atoms: C_8  and  C_27
    4  A    between atoms: N_11  and  C_16
    5  A    between atoms: O_13  and  C_15
    6  A    between atoms: O_13  and  C_24
    7  A    between atoms: C_16  and  C_27
    8  A    between atoms: N_25  and  C_26
                            x       y       z     vdW  Elec       q    Type
                         _______ _______ _______ _____ _____    ______ ____

>  <TORSDO>
F 8

$$$$
