=
 OpenBabel11042414503D

 64 69  0  0  1  0  0  0  0  0999 V2000
  187.7020  178.0450  142.9980 N   0  0  0  0  0  0  0  0  0  0  0  0
  190.0750  177.9230  142.4260 C   0  0  0  0  0  2  0  0  0  0  0  0
  190.0520  176.4980  142.9040 C   0  0  2  0  0  3  0  0  0  0  0  0
  188.9350  176.0350  143.5160 C   0  0  1  0  0  3  0  0  0  0  0  0
  188.6850  178.3590  141.9660 C   0  0  0  0  0  2  0  0  0  0  0  0
  187.7790  176.9480  143.6920 C   0  0  0  0  0  0  0  0  0  0  0  0
  188.7120  174.5730  143.8000 C   0  0  0  0  0  2  0  0  0  0  0  0
  189.6790  172.7070  142.5190 N   0  0  0  0  0  0  0  0  0  0  0  0
  188.1640  172.3870  139.4350 O   0  0  0  0  0  0  0  0  0  0  0  0
  188.5590  172.7280  140.5800 C   0  0  0  0  0  0  0  0  0  0  0  0
  189.5550  172.0340  141.3050 N   0  0  0  0  0  2  0  0  0  0  0  0
  188.0360  173.8840  141.3500 C   0  0  0  0  0  2  0  0  0  0  0  0
  188.8950  173.7390  142.5660 C   0  0  0  0  0  0  0  0  0  0  0  0
  191.2440  175.7650  142.7400 O   0  0  0  0  0  0  0  0  0  0  0  0
  193.4420  175.6050  141.8300 C   0  0  0  0  0  3  0  0  0  0  0  0
  192.4880  176.3120  142.4230 C   0  0  0  0  0  3  0  0  0  0  0  0
  193.2790  174.1680  141.4020 C   0  0  1  0  0  3  0  0  0  0  0  0
  193.1330  174.0210  139.9030 C   0  0  0  0  0  0  0  0  0  0  0  0
  193.9150  174.6590  139.1420 O   0  0  0  0  0  0  0  0  0  0  0  0
  192.2150  173.0590  139.3640 N   0  0  0  0  0  2  0  0  0  0  0  0
  190.9690  173.4610  137.1540 C   0  0  0  0  0  0  0  0  0  0  0  0
  191.0240  173.3110  135.6920 C   0  0  0  0  0  3  0  0  0  0  0  0
  192.7110  171.7850  137.4190 C   0  0  0  0  0  3  0  0  0  0  0  0
  191.7790  172.3510  135.1520 C   0  0  0  0  0  3  0  0  0  0  0  0
  190.0730  174.1790  137.6700 O   0  0  0  0  0  0  0  0  0  0  0  0
  192.4990  171.3310  136.0000 C   0  0  0  0  0  2  0  0  0  0  0  0
  191.9720  172.7470  137.9840 C   0  0  0  0  0  0  0  0  0  0  0  0
  194.3680  173.2210  141.9670 C   0  0  0  0  0  2  0  0  0  0  0  0
  193.3750  170.9260  141.9340 C   0  0  0  0  0  3  0  0  0  0  0  0
  194.2920  169.1700  140.5470 C   0  0  0  0  0  3  0  0  0  0  0  0
  195.2450  170.0550  140.0440 C   0  0  0  0  0  0  0  0  0  0  0  0
  194.3290  171.8200  141.4430 C   0  0  0  0  0  0  0  0  0  0  0  0
  195.2630  171.3880  140.4960 C   0  0  0  0  0  3  0  0  0  0  0  0
  193.3560  169.6000  141.4920 C   0  0  0  0  0  3  0  0  0  0  0  0
  197.2540  170.3540  138.6050 C   0  0  0  0  0  1  0  0  0  0  0  0
  196.1600  169.5780  139.1020 O   0  0  0  0  0  0  0  0  0  0  0  0
  186.7190  176.6300  144.7070 C   0  0  0  0  0  2  0  0  0  0  0  0
  186.9500  177.3570  146.0260 C   0  0  1  0  0  3  0  0  0  0  0  0
  184.4730  177.6380  145.8870 O   0  0  0  0  0  0  0  0  0  0  0  0
  185.6590  178.7030  147.5380 O   0  0  0  0  0  1  0  0  0  0  0  0
  185.6680  177.9350  146.5380 C   0  0  0  0  0  0  0  0  0  0  0  0
  187.5660  176.4460  147.0850 C   0  0  0  0  0  2  0  0  0  0  0  0
  189.0790  176.4850  146.9700 C   0  0  0  0  0  2  0  0  0  0  0  0
  189.6730  175.1160  147.2610 C   0  0  0  0  0  2  0  0  0  0  0  0
  191.5300  176.6170  147.9180 C   0  0  0  0  0  1  0  0  0  0  0  0
  191.1820  175.2110  147.4590 C   0  0  2  0  0  3  0  0  0  0  0  0
  193.3790  175.1340  146.1790 N   0  0  0  0  0  2  0  0  0  0  0  0
  191.9850  174.8070  146.2470 C   0  0  0  0  0  0  0  0  0  0  0  0
  191.4720  174.0770  145.3560 O   0  0  0  0  0  0  0  0  0  0  0  0
  195.5640  171.8670  145.8400 C   0  0  2  0  0  3  0  0  0  0  0  0
  193.9540  172.5540  145.3060 S   0  0  0  0  0  0  0  0  0  0  0  0
  196.7140  173.8630  144.9250 C   0  0  0  0  0  0  0  0  0  0  0  0
  195.6230  174.7320  145.4020 C   0  0  0  0  0  3  0  0  0  0  0  0
  196.6780  172.5350  145.0900 C   0  0  0  0  0  3  0  0  0  0  0  0
  194.4050  174.2580  145.7020 C   0  0  0  0  0  0  0  0  0  0  0  0
  195.5950  170.4950  145.6060 O   0  0  0  0  0  0  0  0  0  0  0  0
  196.5940  170.0060  146.4530 C   0  0  0  0  0  1  0  0  0  0  0  0
  197.9260  174.4870  144.3140 C   0  0  0  0  0  2  0  0  0  0  0  0
  196.7630  176.3340  141.2240 C   0  0  0  0  0  3  0  0  0  0  0  0
  197.0330  175.3940  140.2270 C   0  0  0  0  0  3  0  0  0  0  0  0
  197.6720  174.8250  142.8850 C   0  0  0  0  0  0  0  0  0  0  0  0
  197.9410  173.8870  141.8830 C   0  0  0  0  0  3  0  0  0  0  0  0
  197.6230  174.1720  140.5550 C   0  0  0  0  0  3  0  0  0  0  0  0
  197.0800  176.0480  142.5510 C   0  0  0  0  0  3  0  0  0  0  0  0
  1  6  2  0  0  0  0
  2  3  1  0  0  0  0
  3 14  1  1  0  0  0
  3  4  1  0  0  0  0
  4  6  1  0  0  0  0
  4  7  1  6  0  0  0
  5  2  1  0  0  0  0
  5  1  1  0  0  0  0
  6 37  1  0  0  0  0
  8 13  2  0  0  0  0
  9 10  2  0  0  0  0
 10 11  1  0  0  0  0
 10 12  1  0  0  0  0
 11  8  1  0  0  0  0
 12 13  1  0  0  0  0
 13  7  1  0  0  0  0
 15 16  2  0  0  0  0
 16 14  1  0  0  0  0
 17 15  1  6  0  0  0
 17 28  1  0  0  0  0
 18 17  1  0  0  0  0
 19 18  2  0  0  0  0
 20 18  1  0  0  0  0
 21 25  2  0  0  0  0
 21 27  1  0  0  0  0
 22 21  1  0  0  0  0
 23 27  2  0  0  0  0
 24 22  2  0  0  0  0
 24 26  1  0  0  0  0
 26 23  1  0  0  0  0
 27 20  1  0  0  0  0
 30 34  2  0  0  0  0
 31 33  2  0  0  0  0
 31 30  1  0  0  0  0
 32 29  2  0  0  0  0
 32 28  1  0  0  0  0
 33 32  1  0  0  0  0
 34 29  1  0  0  0  0
 35 36  1  0  0  0  0
 36 31  1  0  0  0  0
 38 37  1  6  0  0  0
 38 41  1  0  0  0  0
 38 42  1  0  0  0  0
 39 41  2  0  0  0  0
 41 40  1  0  0  0  0
 43 42  1  0  0  0  0
 43 44  1  0  0  0  0
 44 46  1  0  0  0  0
 46 45  1  6  0  0  0
 47 48  1  0  0  0  0
 48 46  1  0  0  0  0
 49 48  2  0  0  0  0
 50 56  1  6  0  0  0
 51 55  1  0  0  0  0
 51 50  1  0  0  0  0
 52 54  2  0  0  0  0
 52 53  1  0  0  0  0
 53 55  2  0  0  0  0
 54 50  1  0  0  0  0
 55 47  1  0  0  0  0
 56 57  1  0  0  0  0
 58 52  1  0  0  0  0
 59 64  1  0  0  0  0
 60 63  1  0  0  0  0
 60 59  2  0  0  0  0
 61 58  1  0  0  0  0
 62 61  1  0  0  0  0
 63 62  2  0  0  0  0
 64 61  2  0  0  0  0
M  END
>  <MODEL>
1

>  <REMARK>
 VINA RESULT:      -6.2      0.000      0.000
  Name = 
  22 active torsions:
  status: ('A' for Active; 'I' for Inactive)
    1  A    between atoms: C_4  and  C_13
    2  A    between atoms: C_4  and  C_55
    3  A    between atoms: C_8  and  C_45
    4  A    between atoms: C_13  and  C_36
    5  A    between atoms: C_13  and  C_53
    6  A    between atoms: C_14  and  C_53
    7  A    between atoms: C_14  and  C_59
    8  A    between atoms: C_15  and  C_26
    9  A    between atoms: C_15  and  C_45
   10  A    between atoms: O_21  and  C_31
   11  A    between atoms: O_21  and  C_54
   12  A    between atoms: C_22  and  O_32
   13  A    between atoms: C_23  and  C_35
   14  A    between atoms: O_25  and  C_27
   15  A    between atoms: C_29  and  C_35
   16  A    between atoms: N_30  and  C_58
   17  A    between atoms: C_33  and  C_62
   18  A    between atoms: C_34  and  C_56
   19  A    between atoms: C_45  and  C_46
   20  A    between atoms: C_56  and  C_61
   21  A    between atoms: C_59  and  C_62
   22  A    between atoms: N_63  and  C_64
                            x       y       z     vdW  Elec       q    Type
                         _______ _______ _______ _____ _____    ______ ____

>  <TORSDO>
F 22

$$$$
=
 OpenBabel11042414503D

 64 69  0  0  1  0  0  0  0  0999 V2000
  188.2190  177.9110  143.0820 N   0  0  0  0  0  0  0  0  0  0  0  0
  190.5420  177.2840  142.6490 C   0  0  0  0  0  2  0  0  0  0  0  0
  190.0620  175.8690  142.4850 C   0  0  2  0  0  3  0  0  0  0  0  0
  188.7720  175.5800  142.7830 C   0  0  1  0  0  3  0  0  0  0  0  0
  189.4200  178.2720  142.3340 C   0  0  0  0  0  2  0  0  0  0  0  0
  187.8820  176.6670  143.2580 C   0  0  0  0  0  0  0  0  0  0  0  0
  188.1290  174.2690  142.4170 C   0  0  0  0  0  2  0  0  0  0  0  0
  188.7690  172.7190  140.6150 N   0  0  0  0  0  0  0  0  0  0  0  0
  188.2650  174.1350  137.5080 O   0  0  0  0  0  0  0  0  0  0  0  0
  188.3760  173.8680  138.7320 C   0  0  0  0  0  0  0  0  0  0  0  0
  188.8100  172.6160  139.2260 N   0  0  0  0  0  2  0  0  0  0  0  0
  188.0550  174.8020  139.8390 C   0  0  0  0  0  2  0  0  0  0  0  0
  188.3970  173.9050  140.9860 C   0  0  0  0  0  0  0  0  0  0  0  0
  191.0320  174.9220  142.0990 O   0  0  0  0  0  0  0  0  0  0  0  0
  193.3380  174.5350  141.6370 C   0  0  0  0  0  3  0  0  0  0  0  0
  192.3810  174.9620  142.4520 C   0  0  0  0  0  3  0  0  0  0  0  0
  193.0850  174.0060  140.2480 C   0  0  1  0  0  3  0  0  0  0  0  0
  194.0230  174.6000  139.2200 C   0  0  0  0  0  0  0  0  0  0  0  0
  195.2520  174.7060  139.4940 O   0  0  0  0  0  0  0  0  0  0  0  0
  193.5430  174.9020  137.9020 N   0  0  0  0  0  2  0  0  0  0  0  0
  193.7770  176.5100  135.9120 C   0  0  0  0  0  0  0  0  0  0  0  0
  194.7230  177.2020  135.0260 C   0  0  0  0  0  3  0  0  0  0  0  0
  195.5030  174.9220  136.5580 C   0  0  0  0  0  3  0  0  0  0  0  0
  195.9390  176.6880  134.8200 C   0  0  0  0  0  3  0  0  0  0  0  0
  192.5630  176.8410  135.9040 O   0  0  0  0  0  0  0  0  0  0  0  0
  196.3430  175.3480  135.3840 C   0  0  0  0  0  2  0  0  0  0  0  0
  194.2840  175.4240  136.7890 C   0  0  0  0  0  0  0  0  0  0  0  0
  193.0520  172.4580  140.1660 C   0  0  0  0  0  2  0  0  0  0  0  0
  194.2980  171.3130  138.3250 C   0  0  0  0  0  3  0  0  0  0  0  0
  193.2820  170.9090  136.1680 C   0  0  0  0  0  3  0  0  0  0  0  0
  192.0910  171.4800  136.6150 C   0  0  0  0  0  0  0  0  0  0  0  0
  193.1130  171.8920  138.7820 C   0  0  0  0  0  0  0  0  0  0  0  0
  192.0070  171.9740  137.9300 C   0  0  0  0  0  3  0  0  0  0  0  0
  194.3880  170.8240  137.0190 C   0  0  0  0  0  3  0  0  0  0  0  0
  189.6770  171.1840  136.0860 C   0  0  0  0  0  1  0  0  0  0  0  0
  191.0140  171.5430  135.7280 O   0  0  0  0  0  0  0  0  0  0  0  0
  186.6110  176.3330  143.9850 C   0  0  0  0  0  2  0  0  0  0  0  0
  186.3930  177.2260  145.2000 C   0  0  1  0  0  3  0  0  0  0  0  0
  184.3720  178.1870  144.0920 O   0  0  0  0  0  0  0  0  0  0  0  0
  184.3310  177.7000  146.3340 O   0  0  0  0  0  1  0  0  0  0  0  0
  184.9760  177.7060  145.2510 C   0  0  0  0  0  0  0  0  0  0  0  0
  186.7450  176.5170  146.5050 C   0  0  0  0  0  2  0  0  0  0  0  0
  188.2340  176.6480  146.7680 C   0  0  0  0  0  2  0  0  0  0  0  0
  188.8630  175.2790  146.9790 C   0  0  0  0  0  2  0  0  0  0  0  0
  190.5610  176.7390  148.0370 C   0  0  0  0  0  1  0  0  0  0  0  0
  190.3400  175.4100  147.3340 C   0  0  2  0  0  3  0  0  0  0  0  0
  192.3620  176.1550  145.9810 N   0  0  0  0  0  2  0  0  0  0  0  0
  191.2690  175.2430  146.1560 C   0  0  0  0  0  0  0  0  0  0  0  0
  191.1680  174.2390  145.4010 O   0  0  0  0  0  0  0  0  0  0  0  0
  195.6920  176.0930  143.8680 C   0  0  2  0  0  3  0  0  0  0  0  0
  194.8440  177.0950  145.1430 S   0  0  0  0  0  0  0  0  0  0  0  0
  195.4490  174.0800  145.2930 C   0  0  0  0  0  0  0  0  0  0  0  0
  194.1010  174.5120  145.7030 C   0  0  0  0  0  3  0  0  0  0  0  0
  196.2060  174.8220  144.4750 C   0  0  0  0  0  3  0  0  0  0  0  0
  193.6860  175.7820  145.5860 C   0  0  0  0  0  0  0  0  0  0  0  0
  196.7490  176.8170  143.3220 O   0  0  0  0  0  0  0  0  0  0  0  0
  196.5570  176.7490  141.9380 C   0  0  0  0  0  1  0  0  0  0  0  0
  195.9520  172.7460  145.7380 C   0  0  0  0  0  2  0  0  0  0  0  0
  194.0480  169.5280  145.1730 C   0  0  0  0  0  3  0  0  0  0  0  0
  193.9420  169.5140  143.7800 C   0  0  0  0  0  3  0  0  0  0  0  0
  195.2000  171.6540  145.0590 C   0  0  0  0  0  0  0  0  0  0  0  0
  195.0910  171.6360  143.6650 C   0  0  0  0  0  3  0  0  0  0  0  0
  194.4610  170.5690  143.0260 C   0  0  0  0  0  3  0  0  0  0  0  0
  194.6780  170.5940  145.8100 C   0  0  0  0  0  3  0  0  0  0  0  0
  1  6  2  0  0  0  0
  3 14  1  1  0  0  0
  3  2  1  0  0  0  0
  3  4  1  0  0  0  0
  4  7  1  6  0  0  0
  4  6  1  0  0  0  0
  5  2  1  0  0  0  0
  5  1  1  0  0  0  0
  6 37  1  0  0  0  0
  8 13  2  0  0  0  0
  9 10  2  0  0  0  0
 10 11  1  0  0  0  0
 10 12  1  0  0  0  0
 11  8  1  0  0  0  0
 12 13  1  0  0  0  0
 13  7  1  0  0  0  0
 14 16  1  0  0  0  0
 15 16  2  0  0  0  0
 17 28  1  1  0  0  0
 17 15  1  0  0  0  0
 18 19  2  0  0  0  0
 18 17  1  0  0  0  0
 20 18  1  0  0  0  0
 21 27  1  0  0  0  0
 22 21  1  0  0  0  0
 23 27  2  0  0  0  0
 24 22  2  0  0  0  0
 24 26  1  0  0  0  0
 25 21  2  0  0  0  0
 26 23  1  0  0  0  0
 27 20  1  0  0  0  0
 29 32  1  0  0  0  0
 30 31  2  0  0  0  0
 30 34  1  0  0  0  0
 31 33  1  0  0  0  0
 32 28  1  0  0  0  0
 33 32  2  0  0  0  0
 34 29  2  0  0  0  0
 36 35  1  0  0  0  0
 36 31  1  0  0  0  0
 38 37  1  6  0  0  0
 38 41  1  0  0  0  0
 38 42  1  0  0  0  0
 39 41  2  0  0  0  0
 41 40  1  0  0  0  0
 42 43  1  0  0  0  0
 43 44  1  0  0  0  0
 44 46  1  0  0  0  0
 46 45  1  6  0  0  0
 47 48  1  0  0  0  0
 48 46  1  0  0  0  0
 49 48  2  0  0  0  0
 50 56  1  1  0  0  0
 50 54  1  0  0  0  0
 50 51  1  0  0  0  0
 51 55  1  0  0  0  0
 52 53  1  0  0  0  0
 52 58  1  0  0  0  0
 54 52  2  0  0  0  0
 55 53  2  0  0  0  0
 55 47  1  0  0  0  0
 57 56  1  0  0  0  0
 59 64  1  0  0  0  0
 60 59  2  0  0  0  0
 61 58  1  0  0  0  0
 61 64  2  0  0  0  0
 62 61  1  0  0  0  0
 63 62  2  0  0  0  0
 63 60  1  0  0  0  0
M  END
>  <MODEL>
2

>  <REMARK>
 VINA RESULT:      -5.9      2.226      3.686
  Name = 
  22 active torsions:
  status: ('A' for Active; 'I' for Inactive)
    1  A    between atoms: C_4  and  C_13
    2  A    between atoms: C_4  and  C_55
    3  A    between atoms: C_8  and  C_45
    4  A    between atoms: C_13  and  C_36
    5  A    between atoms: C_13  and  C_53
    6  A    between atoms: C_14  and  C_53
    7  A    between atoms: C_14  and  C_59
    8  A    between atoms: C_15  and  C_26
    9  A    between atoms: C_15  and  C_45
   10  A    between atoms: O_21  and  C_31
   11  A    between atoms: O_21  and  C_54
   12  A    between atoms: C_22  and  O_32
   13  A    between atoms: C_23  and  C_35
   14  A    between atoms: O_25  and  C_27
   15  A    between atoms: C_29  and  C_35
   16  A    between atoms: N_30  and  C_58
   17  A    between atoms: C_33  and  C_62
   18  A    between atoms: C_34  and  C_56
   19  A    between atoms: C_45  and  C_46
   20  A    between atoms: C_56  and  C_61
   21  A    between atoms: C_59  and  C_62
   22  A    between atoms: N_63  and  C_64
                            x       y       z     vdW  Elec       q    Type
                         _______ _______ _______ _____ _____    ______ ____

>  <TORSDO>
F 22

$$$$
=
 OpenBabel11042414503D

 64 69  0  0  1  0  0  0  0  0999 V2000
  191.6790  170.8030  142.7940 N   0  0  0  0  0  0  0  0  0  0  0  0
  190.0160  172.5650  142.4730 C   0  0  0  0  0  2  0  0  0  0  0  0
  190.8100  173.0080  141.2760 C   0  0  2  0  0  3  0  0  0  0  0  0
  192.0140  172.4320  141.0430 C   0  0  1  0  0  3  0  0  0  0  0  0
  190.2470  171.0810  142.7520 C   0  0  0  0  0  2  0  0  0  0  0  0
  192.5040  171.3870  141.9760 C   0  0  0  0  0  0  0  0  0  0  0  0
  192.7650  172.6140  139.7510 C   0  0  0  0  0  2  0  0  0  0  0  0
  192.9980  171.4080  137.6180 N   0  0  0  0  0  0  0  0  0  0  0  0
  190.7790  168.7720  137.4210 O   0  0  0  0  0  0  0  0  0  0  0  0
  191.4560  169.7870  137.7280 C   0  0  0  0  0  0  0  0  0  0  0  0
  192.4880  170.3160  136.9190 N   0  0  0  0  0  2  0  0  0  0  0  0
  191.2970  170.5690  138.9790 C   0  0  0  0  0  2  0  0  0  0  0  0
  192.3520  171.5980  138.7270 C   0  0  0  0  0  0  0  0  0  0  0  0
  190.2610  174.0610  140.5180 O   0  0  0  0  0  0  0  0  0  0  0  0
  188.0460  174.9420  140.5510 C   0  0  0  0  0  3  0  0  0  0  0  0
  188.9510  174.1140  140.0430 C   0  0  0  0  0  3  0  0  0  0  0  0
  188.3370  175.9310  141.6520 C   0  0  1  0  0  3  0  0  0  0  0  0
  187.2870  177.0170  141.7480 C   0  0  0  0  0  0  0  0  0  0  0  0
  187.4950  178.1270  141.1810 O   0  0  0  0  0  0  0  0  0  0  0  0
  186.0170  176.7330  142.3510 N   0  0  0  0  0  2  0  0  0  0  0  0
  183.9950  177.9750  141.3670 C   0  0  0  0  0  0  0  0  0  0  0  0
  182.6950  178.5940  141.6680 C   0  0  0  0  0  3  0  0  0  0  0  0
  184.6260  178.0970  143.7130 C   0  0  0  0  0  3  0  0  0  0  0  0
  182.4500  179.0600  142.8950 C   0  0  0  0  0  3  0  0  0  0  0  0
  184.3240  177.7750  140.1690 O   0  0  0  0  0  0  0  0  0  0  0  0
  183.5120  179.0750  143.9680 C   0  0  0  0  0  2  0  0  0  0  0  0
  184.8910  177.6110  142.4940 C   0  0  0  0  0  0  0  0  0  0  0  0
  188.6070  175.2710  143.0280 C   0  0  0  0  0  2  0  0  0  0  0  0
  189.8120  177.0940  144.2430 C   0  0  0  0  0  3  0  0  0  0  0  0
  189.0170  177.9440  146.3630 C   0  0  0  0  0  3  0  0  0  0  0  0
  187.9220  177.0810  146.3060 C   0  0  0  0  0  0  0  0  0  0  0  0
  188.7250  176.2220  144.1780 C   0  0  0  0  0  0  0  0  0  0  0  0
  187.7770  176.2150  145.2060 C   0  0  0  0  0  3  0  0  0  0  0  0
  189.9640  177.9540  145.3350 C   0  0  0  0  0  3  0  0  0  0  0  0
  186.1970  178.2470  147.6700 C   0  0  0  0  0  1  0  0  0  0  0  0
  187.0030  177.1070  147.3570 O   0  0  0  0  0  0  0  0  0  0  0  0
  193.9640  171.0360  142.0090 C   0  0  0  0  0  2  0  0  0  0  0  0
  194.1920  169.5500  142.2620 C   0  0  1  0  0  3  0  0  0  0  0  0
  195.6630  168.9050  140.3500 O   0  0  0  0  0  0  0  0  0  0  0  0
  193.4920  168.1660  140.4300 O   0  0  0  0  0  1  0  0  0  0  0  0
  194.4190  168.8270  140.9710 C   0  0  0  0  0  0  0  0  0  0  0  0
  195.3660  169.3020  143.2070 C   0  0  0  0  0  2  0  0  0  0  0  0
  195.0240  168.1660  144.1530 C   0  0  0  0  0  2  0  0  0  0  0  0
  195.1080  168.6300  145.5990 C   0  0  0  0  0  2  0  0  0  0  0  0
  197.0770  169.2680  146.9570 C   0  0  0  0  0  1  0  0  0  0  0  0
  196.2140  169.6650  145.7720 C   0  0  2  0  0  3  0  0  0  0  0  0
  196.6360  172.1740  145.8160 N   0  0  0  0  0  2  0  0  0  0  0  0
  195.7100  171.0830  145.9010 C   0  0  0  0  0  0  0  0  0  0  0  0
  194.4730  171.3180  145.9560 O   0  0  0  0  0  0  0  0  0  0  0  0
  197.3170  175.2080  143.3890 C   0  0  2  0  0  3  0  0  0  0  0  0
  196.8090  173.4500  143.3490 S   0  0  0  0  0  0  0  0  0  0  0  0
  195.5010  175.6900  145.0060 C   0  0  0  0  0  0  0  0  0  0  0  0
  195.7480  174.4090  145.6910 C   0  0  0  0  0  3  0  0  0  0  0  0
  196.1950  176.0510  143.9200 C   0  0  0  0  0  3  0  0  0  0  0  0
  196.4020  173.3950  145.1070 C   0  0  0  0  0  0  0  0  0  0  0  0
  197.6600  175.6320  142.1080 O   0  0  0  0  0  0  0  0  0  0  0  0
  196.4600  176.0700  141.5390 C   0  0  0  0  0  1  0  0  0  0  0  0
  194.5060  176.6430  145.5820 C   0  0  0  0  0  2  0  0  0  0  0  0
  191.4800  175.4050  147.4840 C   0  0  0  0  0  3  0  0  0  0  0  0
  190.9440  174.4880  146.5770 C   0  0  0  0  0  3  0  0  0  0  0  0
  193.2330  175.9380  145.9020 C   0  0  0  0  0  0  0  0  0  0  0  0
  192.6940  175.0180  144.9970 C   0  0  0  0  0  3  0  0  0  0  0  0
  191.5490  174.2950  145.3330 C   0  0  0  0  0  3  0  0  0  0  0  0
  192.6230  176.1270  147.1480 C   0  0  0  0  0  3  0  0  0  0  0  0
  2  5  1  0  0  0  0
  3 14  1  1  0  0  0
  3  2  1  0  0  0  0
  4  7  1  6  0  0  0
  4  3  1  0  0  0  0
  4  6  1  0  0  0  0
  5  1  1  0  0  0  0
  6 37  1  0  0  0  0
  6  1  2  0  0  0  0
  8 13  2  0  0  0  0
  9 10  2  0  0  0  0
 10 12  1  0  0  0  0
 11  8  1  0  0  0  0
 11 10  1  0  0  0  0
 13 12  1  0  0  0  0
 13  7  1  0  0  0  0
 16 14  1  0  0  0  0
 16 15  2  0  0  0  0
 17 15  1  6  0  0  0
 17 18  1  0  0  0  0
 17 28  1  0  0  0  0
 18 20  1  0  0  0  0
 19 18  2  0  0  0  0
 20 27  1  0  0  0  0
 21 22  1  0  0  0  0
 21 27  1  0  0  0  0
 22 24  2  0  0  0  0
 23 26  1  0  0  0  0
 24 26  1  0  0  0  0
 25 21  2  0  0  0  0
 27 23  2  0  0  0  0
 28 32  1  0  0  0  0
 29 34  1  0  0  0  0
 31 30  1  0  0  0  0
 31 36  1  0  0  0  0
 32 29  2  0  0  0  0
 32 33  1  0  0  0  0
 33 31  2  0  0  0  0
 34 30  2  0  0  0  0
 36 35  1  0  0  0  0
 38 37  1  6  0  0  0
 38 42  1  0  0  0  0
 39 41  2  0  0  0  0
 40 41  1  0  0  0  0
 41 38  1  0  0  0  0
 42 43  1  0  0  0  0
 43 44  1  0  0  0  0
 44 46  1  0  0  0  0
 46 48  1  0  0  0  0
 46 45  1  1  0  0  0
 47 48  1  0  0  0  0
 48 49  2  0  0  0  0
 50 56  1  6  0  0  0
 50 54  1  0  0  0  0
 51 50  1  0  0  0  0
 51 55  1  0  0  0  0
 52 58  1  0  0  0  0
 52 53  1  0  0  0  0
 54 52  2  0  0  0  0
 55 53  2  0  0  0  0
 55 47  1  0  0  0  0
 57 56  1  0  0  0  0
 58 61  1  0  0  0  0
 60 59  2  0  0  0  0
 61 64  2  0  0  0  0
 62 63  2  0  0  0  0
 62 61  1  0  0  0  0
 63 60  1  0  0  0  0
 64 59  1  0  0  0  0
M  END
>  <MODEL>
3

>  <REMARK>
 VINA RESULT:      -5.8      2.539      8.492
  Name = 
  22 active torsions:
  status: ('A' for Active; 'I' for Inactive)
    1  A    between atoms: C_4  and  C_13
    2  A    between atoms: C_4  and  C_55
    3  A    between atoms: C_8  and  C_45
    4  A    between atoms: C_13  and  C_36
    5  A    between atoms: C_13  and  C_53
    6  A    between atoms: C_14  and  C_53
    7  A    between atoms: C_14  and  C_59
    8  A    between atoms: C_15  and  C_26
    9  A    between atoms: C_15  and  C_45
   10  A    between atoms: O_21  and  C_31
   11  A    between atoms: O_21  and  C_54
   12  A    between atoms: C_22  and  O_32
   13  A    between atoms: C_23  and  C_35
   14  A    between atoms: O_25  and  C_27
   15  A    between atoms: C_29  and  C_35
   16  A    between atoms: N_30  and  C_58
   17  A    between atoms: C_33  and  C_62
   18  A    between atoms: C_34  and  C_56
   19  A    between atoms: C_45  and  C_46
   20  A    between atoms: C_56  and  C_61
   21  A    between atoms: C_59  and  C_62
   22  A    between atoms: N_63  and  C_64
                            x       y       z     vdW  Elec       q    Type
                         _______ _______ _______ _____ _____    ______ ____

>  <TORSDO>
F 22

$$$$
=
 OpenBabel11042414503D

 64 69  0  0  1  0  0  0  0  0999 V2000
  191.7110  173.0630  141.8210 N   0  0  0  0  0  0  0  0  0  0  0  0
  190.5470  175.0500  142.6410 C   0  0  0  0  0  2  0  0  0  0  0  0
  189.4870  174.7760  141.6110 C   0  0  2  0  0  3  0  0  0  0  0  0
  189.7020  173.7960  140.7000 C   0  0  1  0  0  3  0  0  0  0  0  0
  191.2700  173.7600  143.0250 C   0  0  0  0  0  2  0  0  0  0  0  0
  190.9730  173.0320  140.7510 C   0  0  0  0  0  0  0  0  0  0  0  0
  188.6160  173.2730  139.7980 C   0  0  0  0  0  2  0  0  0  0  0  0
  189.2640  173.8020  137.4840 N   0  0  0  0  0  0  0  0  0  0  0  0
  187.1700  176.1770  136.1100 O   0  0  0  0  0  0  0  0  0  0  0  0
  187.7890  175.3610  136.8400 C   0  0  0  0  0  0  0  0  0  0  0  0
  188.8870  174.5880  136.3960 N   0  0  0  0  0  2  0  0  0  0  0  0
  187.4580  175.0650  138.2560 C   0  0  0  0  0  2  0  0  0  0  0  0
  188.5320  174.0600  138.5240 C   0  0  0  0  0  0  0  0  0  0  0  0
  188.3630  175.6260  141.6310 O   0  0  0  0  0  0  0  0  0  0  0  0
  186.2710  176.3310  142.5300 C   0  0  0  0  0  3  0  0  0  0  0  0
  187.1850  175.3880  142.3380 C   0  0  0  0  0  3  0  0  0  0  0  0
  186.3810  177.7310  141.9810 C   0  0  1  0  0  3  0  0  0  0  0  0
  185.0700  178.2410  141.4240 C   0  0  0  0  0  0  0  0  0  0  0  0
  185.0590  178.8170  140.2990 O   0  0  0  0  0  0  0  0  0  0  0  0
  183.8410  177.9420  142.1010 N   0  0  0  0  0  2  0  0  0  0  0  0
  181.8740  177.8200  140.4520 C   0  0  0  0  0  0  0  0  0  0  0  0
  180.4180  177.9520  140.2990 C   0  0  0  0  0  3  0  0  0  0  0  0
  181.7950  179.0730  142.5350 C   0  0  0  0  0  3  0  0  0  0  0  0
  179.7290  178.7220  141.1450 C   0  0  0  0  0  3  0  0  0  0  0  0
  182.5530  177.3180  139.5200 O   0  0  0  0  0  0  0  0  0  0  0  0
  180.4120  179.5600  142.1980 C   0  0  0  0  0  2  0  0  0  0  0  0
  182.5070  178.2970  141.7080 C   0  0  0  0  0  0  0  0  0  0  0  0
  187.0160  178.7420  142.9700 C   0  0  0  0  0  2  0  0  0  0  0  0
  185.7290  178.9200  145.1070 C   0  0  0  0  0  3  0  0  0  0  0  0
  186.5200  177.8940  147.1490 C   0  0  0  0  0  3  0  0  0  0  0  0
  187.6240  177.3780  146.4710 C   0  0  0  0  0  0  0  0  0  0  0  0
  186.8340  178.4150  144.4190 C   0  0  0  0  0  0  0  0  0  0  0  0
  187.7820  177.6420  145.0980 C   0  0  0  0  0  3  0  0  0  0  0  0
  185.5710  178.6650  146.4720 C   0  0  0  0  0  3  0  0  0  0  0  0
  188.6750  175.1980  147.0500 C   0  0  0  0  0  1  0  0  0  0  0  0
  188.5460  176.6150  147.1920 O   0  0  0  0  0  0  0  0  0  0  0  0
  191.4320  172.2590  139.5480 C   0  0  0  0  0  2  0  0  0  0  0  0
  192.6200  171.3570  139.8640 C   0  0  1  0  0  3  0  0  0  0  0  0
  193.0900  168.9430  140.2980 O   0  0  0  0  0  0  0  0  0  0  0  0
  190.9280  169.7140  140.3140 O   0  0  0  0  0  1  0  0  0  0  0  0
  192.1550  169.9690  140.1780 C   0  0  0  0  0  0  0  0  0  0  0  0
  193.6310  171.3170  138.7220 C   0  0  0  0  0  2  0  0  0  0  0  0
  193.6400  172.6550  138.0050 C   0  0  0  0  0  2  0  0  0  0  0  0
  195.0660  173.1260  137.7690 C   0  0  0  0  0  2  0  0  0  0  0  0
  196.1600  175.2480  137.1080 C   0  0  0  0  0  1  0  0  0  0  0  0
  195.2110  174.6060  138.1060 C   0  0  2  0  0  3  0  0  0  0  0  0
  194.9410  174.2380  140.6090 N   0  0  0  0  0  2  0  0  0  0  0  0
  195.6400  174.8700  139.5290 C   0  0  0  0  0  0  0  0  0  0  0  0
  196.6830  175.5370  139.7680 O   0  0  0  0  0  0  0  0  0  0  0  0
  196.3630  171.4620  143.0230 C   0  0  2  0  0  3  0  0  0  0  0  0
  196.8150  172.3880  141.5110 S   0  0  0  0  0  0  0  0  0  0  0  0
  195.9400  173.6010  144.2010 C   0  0  0  0  0  0  0  0  0  0  0  0
  195.3370  174.1720  142.9840 C   0  0  0  0  0  3  0  0  0  0  0  0
  196.4500  172.3640  144.2190 C   0  0  0  0  0  3  0  0  0  0  0  0
  195.5610  173.6630  141.7640 C   0  0  0  0  0  0  0  0  0  0  0  0
  197.2200  170.3770  143.1880 O   0  0  0  0  0  0  0  0  0  0  0  0
  196.7230  169.6890  144.2990 C   0  0  0  0  0  1  0  0  0  0  0  0
  195.9100  174.3930  145.4670 C   0  0  0  0  0  2  0  0  0  0  0  0
  193.1880  177.0160  145.5890 C   0  0  0  0  0  3  0  0  0  0  0  0
  192.1350  176.2900  146.1500 C   0  0  0  0  0  3  0  0  0  0  0  0
  194.5780  175.0350  145.6490 C   0  0  0  0  0  0  0  0  0  0  0  0
  193.5210  174.3120  146.2100 C   0  0  0  0  0  3  0  0  0  0  0  0
  192.2990  174.9390  146.4590 C   0  0  0  0  0  3  0  0  0  0  0  0
  194.4080  176.3900  145.3410 C   0  0  0  0  0  3  0  0  0  0  0  0
  1  5  1  0  0  0  0
  2  5  1  0  0  0  0
  3 14  1  6  0  0  0
  3  2  1  0  0  0  0
  4  7  1  1  0  0  0
  4  6  1  0  0  0  0
  4  3  1  0  0  0  0
  6  1  2  0  0  0  0
  8 13  2  0  0  0  0
  9 10  2  0  0  0  0
 10 12  1  0  0  0  0
 11 10  1  0  0  0  0
 11  8  1  0  0  0  0
 12 13  1  0  0  0  0
 13  7  1  0  0  0  0
 14 16  1  0  0  0  0
 16 15  2  0  0  0  0
 17 15  1  1  0  0  0
 17 28  1  0  0  0  0
 18 17  1  0  0  0  0
 18 20  1  0  0  0  0
 19 18  2  0  0  0  0
 21 27  1  0  0  0  0
 22 21  1  0  0  0  0
 22 24  2  0  0  0  0
 24 26  1  0  0  0  0
 25 21  2  0  0  0  0
 26 23  1  0  0  0  0
 27 20  1  0  0  0  0
 27 23  2  0  0  0  0
 28 32  1  0  0  0  0
 29 34  1  0  0  0  0
 31 30  1  0  0  0  0
 31 36  1  0  0  0  0
 32 33  1  0  0  0  0
 32 29  2  0  0  0  0
 33 31  2  0  0  0  0
 34 30  2  0  0  0  0
 35 36  1  0  0  0  0
 37 38  1  0  0  0  0
 37  6  1  0  0  0  0
 38 42  1  6  0  0  0
 38 41  1  0  0  0  0
 41 39  2  0  0  0  0
 41 40  1  0  0  0  0
 43 42  1  0  0  0  0
 44 43  1  0  0  0  0
 44 46  1  0  0  0  0
 46 45  1  6  0  0  0
 46 48  1  0  0  0  0
 47 55  1  0  0  0  0
 48 49  2  0  0  0  0
 48 47  1  0  0  0  0
 50 56  1  1  0  0  0
 50 54  1  0  0  0  0
 51 55  1  0  0  0  0
 51 50  1  0  0  0  0
 52 54  2  0  0  0  0
 52 58  1  0  0  0  0
 53 52  1  0  0  0  0
 55 53  2  0  0  0  0
 56 57  1  0  0  0  0
 58 61  1  0  0  0  0
 59 60  1  0  0  0  0
 60 63  2  0  0  0  0
 61 62  2  0  0  0  0
 62 63  1  0  0  0  0
 64 59  2  0  0  0  0
 64 61  1  0  0  0  0
M  END
>  <MODEL>
4

>  <REMARK>
 VINA RESULT:      -5.8      3.299      8.734
  Name = 
  22 active torsions:
  status: ('A' for Active; 'I' for Inactive)
    1  A    between atoms: C_4  and  C_13
    2  A    between atoms: C_4  and  C_55
    3  A    between atoms: C_8  and  C_45
    4  A    between atoms: C_13  and  C_36
    5  A    between atoms: C_13  and  C_53
    6  A    between atoms: C_14  and  C_53
    7  A    between atoms: C_14  and  C_59
    8  A    between atoms: C_15  and  C_26
    9  A    between atoms: C_15  and  C_45
   10  A    between atoms: O_21  and  C_31
   11  A    between atoms: O_21  and  C_54
   12  A    between atoms: C_22  and  O_32
   13  A    between atoms: C_23  and  C_35
   14  A    between atoms: O_25  and  C_27
   15  A    between atoms: C_29  and  C_35
   16  A    between atoms: N_30  and  C_58
   17  A    between atoms: C_33  and  C_62
   18  A    between atoms: C_34  and  C_56
   19  A    between atoms: C_45  and  C_46
   20  A    between atoms: C_56  and  C_61
   21  A    between atoms: C_59  and  C_62
   22  A    between atoms: N_63  and  C_64
                            x       y       z     vdW  Elec       q    Type
                         _______ _______ _______ _____ _____    ______ ____

>  <TORSDO>
F 22

$$$$
=
 OpenBabel11042414503D

 64 69  0  0  1  0  0  0  0  0999 V2000
  192.1780  172.4990  140.3330 N   0  0  0  0  0  0  0  0  0  0  0  0
  191.7280  174.2770  141.9500 C   0  0  0  0  0  2  0  0  0  0  0  0
  190.3100  174.2820  141.4520 C   0  0  2  0  0  3  0  0  0  0  0  0
  189.9980  173.5350  140.3650 C   0  0  1  0  0  3  0  0  0  0  0  0
  192.3730  172.9110  141.7200 C   0  0  0  0  0  2  0  0  0  0  0  0
  191.0650  172.7400  139.7080 C   0  0  0  0  0  0  0  0  0  0  0  0
  188.5770  173.2710  139.9420 C   0  0  0  0  0  2  0  0  0  0  0  0
  188.0680  174.1520  137.7010 N   0  0  0  0  0  0  0  0  0  0  0  0
  186.3540  177.1420  137.8930 O   0  0  0  0  0  0  0  0  0  0  0  0
  186.9930  176.0780  138.0970 C   0  0  0  0  0  0  0  0  0  0  0  0
  187.4320  175.2160  137.0650 N   0  0  0  0  0  2  0  0  0  0  0  0
  187.3660  175.5530  139.4330 C   0  0  0  0  0  2  0  0  0  0  0  0
  188.0830  174.3180  138.9880 C   0  0  0  0  0  0  0  0  0  0  0  0
  189.4160  175.1400  142.1240 O   0  0  0  0  0  0  0  0  0  0  0  0
  189.3370  177.1730  143.3660 C   0  0  0  0  0  3  0  0  0  0  0  0
  189.5530  176.5240  142.2280 C   0  0  0  0  0  3  0  0  0  0  0  0
  188.9630  176.4970  144.6610 C   0  0  1  0  0  3  0  0  0  0  0  0
  190.1480  175.8400  145.3350 C   0  0  0  0  0  0  0  0  0  0  0  0
  189.9470  175.0310  146.2850 O   0  0  0  0  0  0  0  0  0  0  0  0
  191.4680  176.0250  144.8030 N   0  0  0  0  0  2  0  0  0  0  0  0
  192.9800  173.9960  145.2490 C   0  0  0  0  0  0  0  0  0  0  0  0
  194.3660  173.5410  145.4280 C   0  0  0  0  0  3  0  0  0  0  0  0
  193.6420  176.2870  145.7260 C   0  0  0  0  0  3  0  0  0  0  0  0
  195.2940  174.3950  145.8690 C   0  0  0  0  0  3  0  0  0  0  0  0
  192.0640  173.1480  145.0890 O   0  0  0  0  0  0  0  0  0  0  0  0
  194.9440  175.7980  146.3010 C   0  0  0  0  0  2  0  0  0  0  0  0
  192.6980  175.4540  145.2730 C   0  0  0  0  0  0  0  0  0  0  0  0
  188.1810  177.4090  145.6390 C   0  0  0  0  0  2  0  0  0  0  0  0
  186.0110  178.5990  146.0020 C   0  0  0  0  0  3  0  0  0  0  0  0
  184.2820  178.6210  144.3120 C   0  0  0  0  0  3  0  0  0  0  0  0
  185.0990  177.8840  143.4560 C   0  0  0  0  0  0  0  0  0  0  0  0
  186.8360  177.8550  145.1560 C   0  0  0  0  0  0  0  0  0  0  0  0
  186.3830  177.4980  143.8820 C   0  0  0  0  0  3  0  0  0  0  0  0
  184.7330  178.9810  145.5850 C   0  0  0  0  0  3  0  0  0  0  0  0
  184.9360  178.2640  141.0020 C   0  0  0  0  0  1  0  0  0  0  0  0
  184.6030  177.5480  142.1940 O   0  0  0  0  0  0  0  0  0  0  0  0
  190.8780  172.2540  138.2990 C   0  0  0  0  0  2  0  0  0  0  0  0
  191.7630  171.0540  137.9840 C   0  0  1  0  0  3  0  0  0  0  0  0
  189.5880  169.8290  137.9490 O   0  0  0  0  0  1  0  0  0  0  0  0
  191.4320  168.9250  136.9260 O   0  0  0  0  0  0  0  0  0  0  0  0
  190.9290  169.8790  137.5790 C   0  0  0  0  0  0  0  0  0  0  0  0
  192.7830  171.3650  136.8910 C   0  0  0  0  0  2  0  0  0  0  0  0
  192.3930  172.6490  136.1820 C   0  0  0  0  0  2  0  0  0  0  0  0
  193.5610  173.6220  136.1540 C   0  0  0  0  0  2  0  0  0  0  0  0
  192.8950  176.0020  136.3000 C   0  0  0  0  0  1  0  0  0  0  0  0
  193.3190  174.7860  137.1070 C   0  0  2  0  0  3  0  0  0  0  0  0
  194.2790  175.2860  139.4090 N   0  0  0  0  0  2  0  0  0  0  0  0
  194.4920  175.0970  138.0050 C   0  0  0  0  0  0  0  0  0  0  0  0
  195.6680  175.0660  137.5510 O   0  0  0  0  0  0  0  0  0  0  0  0
  197.0590  175.2320  142.2070 C   0  0  2  0  0  3  0  0  0  0  0  0
  195.3230  175.7500  141.9470 S   0  0  0  0  0  0  0  0  0  0  0  0
  196.4950  172.9570  141.4010 C   0  0  0  0  0  0  0  0  0  0  0  0
  195.6100  173.5230  140.3680 C   0  0  0  0  0  3  0  0  0  0  0  0
  197.1400  173.7360  142.2780 C   0  0  0  0  0  3  0  0  0  0  0  0
  195.1210  174.7700  140.4440 C   0  0  0  0  0  0  0  0  0  0  0  0
  197.5480  175.7880  143.3860 O   0  0  0  0  0  0  0  0  0  0  0  0
  197.0480  177.0940  143.4040 C   0  0  0  0  0  1  0  0  0  0  0  0
  196.7410  171.4840  141.4200 C   0  0  0  0  0  2  0  0  0  0  0  0
  193.8840  169.9600  143.3750 C   0  0  0  0  0  3  0  0  0  0  0  0
  193.2280  169.2340  142.3780 C   0  0  0  0  0  3  0  0  0  0  0  0
  195.4840  170.7500  141.7390 C   0  0  0  0  0  0  0  0  0  0  0  0
  194.8240  170.0220  140.7440 C   0  0  0  0  0  3  0  0  0  0  0  0
  193.6960  169.2670  141.0630 C   0  0  0  0  0  3  0  0  0  0  0  0
  195.0110  170.7150  143.0560 C   0  0  0  0  0  3  0  0  0  0  0  0
  1  5  1  0  0  0  0
  3  2  1  0  0  0  0
  3 14  1  6  0  0  0
  4  7  1  1  0  0  0
  4  3  1  0  0  0  0
  5  2  1  0  0  0  0
  6  1  2  0  0  0  0
  6  4  1  0  0  0  0
  8 13  2  0  0  0  0
  9 10  2  0  0  0  0
 10 12  1  0  0  0  0
 11  8  1  0  0  0  0
 11 10  1  0  0  0  0
 13 12  1  0  0  0  0
 13  7  1  0  0  0  0
 14 16  1  0  0  0  0
 16 15  2  0  0  0  0
 17 15  1  6  0  0  0
 17 18  1  0  0  0  0
 17 28  1  0  0  0  0
 18 19  2  0  0  0  0
 20 27  1  0  0  0  0
 20 18  1  0  0  0  0
 21 27  1  0  0  0  0
 21 22  1  0  0  0  0
 22 24  2  0  0  0  0
 23 26  1  0  0  0  0
 24 26  1  0  0  0  0
 25 21  2  0  0  0  0
 27 23  2  0  0  0  0
 30 34  2  0  0  0  0
 31 33  2  0  0  0  0
 31 30  1  0  0  0  0
 32 28  1  0  0  0  0
 32 29  2  0  0  0  0
 33 32  1  0  0  0  0
 34 29  1  0  0  0  0
 35 36  1  0  0  0  0
 36 31  1  0  0  0  0
 37  6  1  0  0  0  0
 38 42  1  6  0  0  0
 38 37  1  0  0  0  0
 40 41  2  0  0  0  0
 41 39  1  0  0  0  0
 41 38  1  0  0  0  0
 43 42  1  0  0  0  0
 44 43  1  0  0  0  0
 44 46  1  0  0  0  0
 46 45  1  6  0  0  0
 46 48  1  0  0  0  0
 47 55  1  0  0  0  0
 48 47  1  0  0  0  0
 49 48  2  0  0  0  0
 50 54  1  0  0  0  0
 50 56  1  1  0  0  0
 51 50  1  0  0  0  0
 52 58  1  0  0  0  0
 52 54  2  0  0  0  0
 53 55  2  0  0  0  0
 53 52  1  0  0  0  0
 55 51  1  0  0  0  0
 56 57  1  0  0  0  0
 58 61  1  0  0  0  0
 60 59  2  0  0  0  0
 61 64  2  0  0  0  0
 62 63  2  0  0  0  0
 62 61  1  0  0  0  0
 63 60  1  0  0  0  0
 64 59  1  0  0  0  0
M  END
>  <MODEL>
5

>  <REMARK>
 VINA RESULT:      -5.6      2.459      8.617
  Name = 
  22 active torsions:
  status: ('A' for Active; 'I' for Inactive)
    1  A    between atoms: C_4  and  C_13
    2  A    between atoms: C_4  and  C_55
    3  A    between atoms: C_8  and  C_45
    4  A    between atoms: C_13  and  C_36
    5  A    between atoms: C_13  and  C_53
    6  A    between atoms: C_14  and  C_53
    7  A    between atoms: C_14  and  C_59
    8  A    between atoms: C_15  and  C_26
    9  A    between atoms: C_15  and  C_45
   10  A    between atoms: O_21  and  C_31
   11  A    between atoms: O_21  and  C_54
   12  A    between atoms: C_22  and  O_32
   13  A    between atoms: C_23  and  C_35
   14  A    between atoms: O_25  and  C_27
   15  A    between atoms: C_29  and  C_35
   16  A    between atoms: N_30  and  C_58
   17  A    between atoms: C_33  and  C_62
   18  A    between atoms: C_34  and  C_56
   19  A    between atoms: C_45  and  C_46
   20  A    between atoms: C_56  and  C_61
   21  A    between atoms: C_59  and  C_62
   22  A    between atoms: N_63  and  C_64
                            x       y       z     vdW  Elec       q    Type
                         _______ _______ _______ _____ _____    ______ ____

>  <TORSDO>
F 22

$$$$
=
 OpenBabel11042414503D

 64 69  0  0  1  0  0  0  0  0999 V2000
  193.3660  172.7270  142.4580 N   0  0  0  0  0  0  0  0  0  0  0  0
  191.8450  174.6400  142.4070 C   0  0  0  0  0  2  0  0  0  0  0  0
  190.9740  173.8410  141.4780 C   0  0  2  0  0  3  0  0  0  0  0  0
  191.4370  172.6580  141.0070 C   0  0  1  0  0  3  0  0  0  0  0  0
  192.6820  173.7130  143.2880 C   0  0  0  0  0  2  0  0  0  0  0  0
  192.7830  172.1940  141.4240 C   0  0  0  0  0  0  0  0  0  0  0  0
  190.5580  171.6720  140.2850 C   0  0  0  0  0  2  0  0  0  0  0  0
  189.6480  172.8490  138.3240 N   0  0  0  0  0  0  0  0  0  0  0  0
  191.4840  172.1580  135.4850 O   0  0  0  0  0  0  0  0  0  0  0  0
  190.9810  172.2230  136.6360 C   0  0  0  0  0  0  0  0  0  0  0  0
  189.8740  173.0410  136.9630 N   0  0  0  0  0  2  0  0  0  0  0  0
  191.4710  171.4790  137.8230 C   0  0  0  0  0  2  0  0  0  0  0  0
  190.4740  171.9790  138.8190 C   0  0  0  0  0  0  0  0  0  0  0  0
  189.7520  174.4350  141.1040 O   0  0  0  0  0  0  0  0  0  0  0  0
  187.8250  175.2070  142.2750 C   0  0  0  0  0  3  0  0  0  0  0  0
  188.5260  174.2190  141.7340 C   0  0  0  0  0  3  0  0  0  0  0  0
  188.2450  176.6550  142.2370 C   0  0  1  0  0  3  0  0  0  0  0  0
  187.0650  177.6010  142.1880 C   0  0  0  0  0  0  0  0  0  0  0  0
  187.2700  178.8340  142.0010 O   0  0  0  0  0  0  0  0  0  0  0  0
  185.7280  177.0790  142.2080 N   0  0  0  0  0  2  0  0  0  0  0  0
  183.7440  177.9970  140.8590 C   0  0  0  0  0  0  0  0  0  0  0  0
  182.3480  178.4540  140.9240 C   0  0  0  0  0  3  0  0  0  0  0  0
  183.9880  178.3110  143.2580 C   0  0  0  0  0  3  0  0  0  0  0  0
  181.8620  178.9410  142.0690 C   0  0  0  0  0  3  0  0  0  0  0  0
  184.2760  177.7870  139.7380 O   0  0  0  0  0  0  0  0  0  0  0  0
  182.7360  179.1450  143.2830 C   0  0  0  0  0  2  0  0  0  0  0  0
  184.4950  177.8080  142.1260 C   0  0  0  0  0  0  0  0  0  0  0  0
  189.2460  177.0450  143.3540 C   0  0  0  0  0  2  0  0  0  0  0  0
  189.5030  175.4830  145.2900 C   0  0  0  0  0  3  0  0  0  0  0  0
  188.1220  175.6780  147.2660 C   0  0  0  0  0  3  0  0  0  0  0  0
  187.4880  176.7940  146.7210 C   0  0  0  0  0  0  0  0  0  0  0  0
  188.8700  176.5950  144.7310 C   0  0  0  0  0  0  0  0  0  0  0  0
  187.8650  177.2540  145.4450 C   0  0  0  0  0  3  0  0  0  0  0  0
  189.1290  175.0190  146.5550 C   0  0  0  0  0  3  0  0  0  0  0  0
  185.1910  177.7250  146.9480 C   0  0  0  0  0  1  0  0  0  0  0  0
  186.4870  177.4180  147.4690 O   0  0  0  0  0  0  0  0  0  0  0  0
  193.4960  171.1410  140.6250 C   0  0  0  0  0  2  0  0  0  0  0  0
  193.8620  169.9280  141.4700 C   0  0  1  0  0  3  0  0  0  0  0  0
  192.0930  168.6510  142.6840 O   0  0  0  0  0  1  0  0  0  0  0  0
  192.3840  168.3490  140.4270 O   0  0  0  0  0  0  0  0  0  0  0  0
  192.7380  168.9390  141.4840 C   0  0  0  0  0  0  0  0  0  0  0  0
  195.1400  169.2510  140.9800 C   0  0  0  0  0  2  0  0  0  0  0  0
  196.3280  169.7850  141.7580 C   0  0  0  0  0  2  0  0  0  0  0  0
  196.3910  169.1530  143.1400 C   0  0  0  0  0  2  0  0  0  0  0  0
  197.5030  169.1670  145.3530 C   0  0  0  0  0  1  0  0  0  0  0  0
  197.3410  169.9270  144.0470 C   0  0  2  0  0  3  0  0  0  0  0  0
  197.7630  172.4240  143.8100 N   0  0  0  0  0  2  0  0  0  0  0  0
  196.9290  171.3590  144.2850 C   0  0  0  0  0  0  0  0  0  0  0  0
  195.8020  171.6250  144.7840 O   0  0  0  0  0  0  0  0  0  0  0  0
  197.3800  175.2400  141.0740 C   0  0  2  0  0  3  0  0  0  0  0  0
  196.8200  173.5360  141.4390 S   0  0  0  0  0  0  0  0  0  0  0  0
  196.5700  175.9770  143.2970 C   0  0  0  0  0  0  0  0  0  0  0  0
  197.0420  174.7200  143.9050 C   0  0  0  0  0  3  0  0  0  0  0  0
  196.6890  176.2100  141.9840 C   0  0  0  0  0  3  0  0  0  0  0  0
  197.2880  173.6190  143.1810 C   0  0  0  0  0  0  0  0  0  0  0  0
  197.1020  175.5560  139.7470 O   0  0  0  0  0  0  0  0  0  0  0  0
  195.7370  175.2930  139.5920 C   0  0  0  0  0  1  0  0  0  0  0  0
  196.0180  177.0490  144.1780 C   0  0  0  0  0  2  0  0  0  0  0  0
  194.0940  174.7460  146.4800 C   0  0  0  0  0  3  0  0  0  0  0  0
  192.8530  175.3850  146.5310 C   0  0  0  0  0  3  0  0  0  0  0  0
  194.9350  176.5040  145.0450 C   0  0  0  0  0  0  0  0  0  0  0  0
  193.6920  177.1410  145.0990 C   0  0  0  0  0  3  0  0  0  0  0  0
  192.6520  176.5840  145.8430 C   0  0  0  0  0  3  0  0  0  0  0  0
  195.1320  175.3030  145.7360 C   0  0  0  0  0  3  0  0  0  0  0  0
  1  5  1  0  0  0  0
  2  5  1  0  0  0  0
  3 14  1  6  0  0  0
  3  2  1  0  0  0  0
  4  7  1  1  0  0  0
  4  6  1  0  0  0  0
  4  3  1  0  0  0  0
  6  1  2  0  0  0  0
  8 13  2  0  0  0  0
  9 10  2  0  0  0  0
 10 11  1  0  0  0  0
 10 12  1  0  0  0  0
 11  8  1  0  0  0  0
 12 13  1  0  0  0  0
 13  7  1  0  0  0  0
 14 16  1  0  0  0  0
 16 15  2  0  0  0  0
 17 15  1  1  0  0  0
 17 28  1  0  0  0  0
 18 20  1  0  0  0  0
 18 17  1  0  0  0  0
 19 18  2  0  0  0  0
 21 22  1  0  0  0  0
 21 27  1  0  0  0  0
 22 24  2  0  0  0  0
 23 26  1  0  0  0  0
 24 26  1  0  0  0  0
 25 21  2  0  0  0  0
 27 20  1  0  0  0  0
 27 23  2  0  0  0  0
 28 32  1  0  0  0  0
 29 34  1  0  0  0  0
 31 30  1  0  0  0  0
 31 36  1  0  0  0  0
 32 29  2  0  0  0  0
 32 33  1  0  0  0  0
 33 31  2  0  0  0  0
 34 30  2  0  0  0  0
 35 36  1  0  0  0  0
 37  6  1  0  0  0  0
 38 37  1  6  0  0  0
 38 41  1  0  0  0  0
 40 41  2  0  0  0  0
 41 39  1  0  0  0  0
 42 38  1  0  0  0  0
 42 43  1  0  0  0  0
 43 44  1  0  0  0  0
 44 46  1  0  0  0  0
 46 48  1  0  0  0  0
 46 45  1  1  0  0  0
 47 48  1  0  0  0  0
 48 49  2  0  0  0  0
 50 56  1  6  0  0  0
 50 51  1  0  0  0  0
 50 54  1  0  0  0  0
 51 55  1  0  0  0  0
 52 53  1  0  0  0  0
 52 58  1  0  0  0  0
 54 52  2  0  0  0  0
 55 47  1  0  0  0  0
 55 53  2  0  0  0  0
 57 56  1  0  0  0  0
 58 61  1  0  0  0  0
 59 60  1  0  0  0  0
 61 62  2  0  0  0  0
 61 64  1  0  0  0  0
 62 63  1  0  0  0  0
 63 60  2  0  0  0  0
 64 59  2  0  0  0  0
M  END
>  <MODEL>
6

>  <REMARK>
 VINA RESULT:      -5.4      2.756      8.401
  Name = 
  22 active torsions:
  status: ('A' for Active; 'I' for Inactive)
    1  A    between atoms: C_4  and  C_13
    2  A    between atoms: C_4  and  C_55
    3  A    between atoms: C_8  and  C_45
    4  A    between atoms: C_13  and  C_36
    5  A    between atoms: C_13  and  C_53
    6  A    between atoms: C_14  and  C_53
    7  A    between atoms: C_14  and  C_59
    8  A    between atoms: C_15  and  C_26
    9  A    between atoms: C_15  and  C_45
   10  A    between atoms: O_21  and  C_31
   11  A    between atoms: O_21  and  C_54
   12  A    between atoms: C_22  and  O_32
   13  A    between atoms: C_23  and  C_35
   14  A    between atoms: O_25  and  C_27
   15  A    between atoms: C_29  and  C_35
   16  A    between atoms: N_30  and  C_58
   17  A    between atoms: C_33  and  C_62
   18  A    between atoms: C_34  and  C_56
   19  A    between atoms: C_45  and  C_46
   20  A    between atoms: C_56  and  C_61
   21  A    between atoms: C_59  and  C_62
   22  A    between atoms: N_63  and  C_64
                            x       y       z     vdW  Elec       q    Type
                         _______ _______ _______ _____ _____    ______ ____

>  <TORSDO>
F 22

$$$$
=
 OpenBabel11042414503D

 64 69  0  0  1  0  0  0  0  0999 V2000
  188.0630  178.0080  143.1370 N   0  0  0  0  0  0  0  0  0  0  0  0
  190.2780  177.4400  142.2730 C   0  0  0  0  0  2  0  0  0  0  0  0
  189.8070  176.0150  142.1830 C   0  0  2  0  0  3  0  0  0  0  0  0
  188.6010  175.6930  142.7110 C   0  0  1  0  0  3  0  0  0  0  0  0
  189.0960  178.4030  142.1840 C   0  0  0  0  0  2  0  0  0  0  0  0
  187.7910  176.7560  143.3560 C   0  0  0  0  0  0  0  0  0  0  0  0
  187.9290  174.3710  142.4540 C   0  0  0  0  0  2  0  0  0  0  0  0
  189.3240  172.8200  143.7610 N   0  0  0  0  0  0  0  0  0  0  0  0
  190.6240  170.3220  141.7670 O   0  0  0  0  0  0  0  0  0  0  0  0
  190.0560  171.3320  142.2550 C   0  0  0  0  0  0  0  0  0  0  0  0
  190.0850  171.6600  143.6310 N   0  0  0  0  0  2  0  0  0  0  0  0
  189.2590  172.3160  141.4820 C   0  0  0  0  0  2  0  0  0  0  0  0
  188.8870  173.2270  142.6090 C   0  0  0  0  0  0  0  0  0  0  0  0
  190.7080  175.0940  141.6120 O   0  0  0  0  0  0  0  0  0  0  0  0
  192.9380  174.2780  141.4060 C   0  0  0  0  0  3  0  0  0  0  0  0
  191.9400  174.7320  142.1550 C   0  0  0  0  0  3  0  0  0  0  0  0
  192.8680  174.1440  139.9060 C   0  0  1  0  0  3  0  0  0  0  0  0
  194.0510  174.7810  139.2100 C   0  0  0  0  0  0  0  0  0  0  0  0
  194.8870  175.4390  139.8920 O   0  0  0  0  0  0  0  0  0  0  0  0
  194.2930  174.5150  137.8210 N   0  0  0  0  0  2  0  0  0  0  0  0
  196.7370  174.3940  137.0380 C   0  0  0  0  0  0  0  0  0  0  0  0
  197.6720  174.7100  135.9490 C   0  0  0  0  0  3  0  0  0  0  0  0
  195.1290  175.9920  136.1570 C   0  0  0  0  0  3  0  0  0  0  0  0
  197.3980  175.7090  135.1070 C   0  0  0  0  0  3  0  0  0  0  0  0
  197.1080  173.6410  137.9760 O   0  0  0  0  0  0  0  0  0  0  0  0
  196.2020  176.6100  135.3020 C   0  0  0  0  0  2  0  0  0  0  0  0
  195.3760  174.9870  137.0060 C   0  0  0  0  0  0  0  0  0  0  0  0
  192.6320  172.6910  139.4200 C   0  0  0  0  0  2  0  0  0  0  0  0
  190.9730  171.2140  138.2710 C   0  0  0  0  0  3  0  0  0  0  0  0
  189.2860  172.1170  136.7920 C   0  0  0  0  0  3  0  0  0  0  0  0
  189.7450  173.4090  137.0460 C   0  0  0  0  0  0  0  0  0  0  0  0
  191.4450  172.5030  138.5280 C   0  0  0  0  0  0  0  0  0  0  0  0
  190.8310  173.6020  137.9190 C   0  0  0  0  0  3  0  0  0  0  0  0
  189.8960  171.0170  137.4010 C   0  0  0  0  0  3  0  0  0  0  0  0
  189.0640  174.6380  134.9920 C   0  0  0  0  0  1  0  0  0  0  0  0
  189.1030  174.4760  136.4120 O   0  0  0  0  0  0  0  0  0  0  0  0
  186.6850  176.3860  144.3020 C   0  0  0  0  0  2  0  0  0  0  0  0
  186.8260  177.0790  145.6520 C   0  0  1  0  0  3  0  0  0  0  0  0
  184.5390  177.8950  145.0680 O   0  0  0  0  0  0  0  0  0  0  0  0
  185.6300  178.7460  146.8990 O   0  0  0  0  0  1  0  0  0  0  0  0
  185.6380  177.9500  145.9220 C   0  0  0  0  0  0  0  0  0  0  0  0
  187.0070  176.0830  146.7940 C   0  0  0  0  0  2  0  0  0  0  0  0
  188.4070  176.2140  147.3650 C   0  0  0  0  0  2  0  0  0  0  0  0
  189.2910  175.0750  146.8830 C   0  0  0  0  0  2  0  0  0  0  0  0
  190.8520  176.6630  147.9670 C   0  0  0  0  0  1  0  0  0  0  0  0
  190.7470  175.3220  147.2600 C   0  0  2  0  0  3  0  0  0  0  0  0
  192.8290  176.1170  146.0330 N   0  0  0  0  0  2  0  0  0  0  0  0
  191.7050  175.2300  146.0970 C   0  0  0  0  0  0  0  0  0  0  0  0
  191.5960  174.3000  145.2530 O   0  0  0  0  0  0  0  0  0  0  0  0
  196.1010  175.9110  143.8400 C   0  0  2  0  0  3  0  0  0  0  0  0
  195.2600  177.0230  145.0250 S   0  0  0  0  0  0  0  0  0  0  0  0
  195.9560  174.0600  145.4830 C   0  0  0  0  0  0  0  0  0  0  0  0
  194.6080  174.5000  145.8840 C   0  0  0  0  0  3  0  0  0  0  0  0
  196.6680  174.7270  144.5670 C   0  0  0  0  0  3  0  0  0  0  0  0
  194.1530  175.7370  145.6420 C   0  0  0  0  0  0  0  0  0  0  0  0
  197.1220  176.5970  143.1880 O   0  0  0  0  0  0  0  0  0  0  0  0
  196.6370  176.8240  141.8960 C   0  0  0  0  0  1  0  0  0  0  0  0
  196.5100  172.7970  146.0550 C   0  0  0  0  0  2  0  0  0  0  0  0
  194.8870  169.4140  145.5730 C   0  0  0  0  0  3  0  0  0  0  0  0
  194.8760  169.3130  144.1800 C   0  0  0  0  0  3  0  0  0  0  0  0
  195.8860  171.6120  145.4000 C   0  0  0  0  0  0  0  0  0  0  0  0
  195.8730  171.5060  144.0060 C   0  0  0  0  0  3  0  0  0  0  0  0
  195.3670  170.3590  143.3960 C   0  0  0  0  0  3  0  0  0  0  0  0
  195.3930  170.5610  146.1810 C   0  0  0  0  0  3  0  0  0  0  0  0
  1  6  2  0  0  0  0
  3 14  1  1  0  0  0
  3  2  1  0  0  0  0
  3  4  1  0  0  0  0
  4  7  1  6  0  0  0
  4  6  1  0  0  0  0
  5  2  1  0  0  0  0
  5  1  1  0  0  0  0
  6 37  1  0  0  0  0
  7 13  1  0  0  0  0
  9 10  2  0  0  0  0
 10 11  1  0  0  0  0
 11  8  1  0  0  0  0
 12 10  1  0  0  0  0
 12 13  1  0  0  0  0
 13  8  2  0  0  0  0
 14 16  1  0  0  0  0
 15 16  2  0  0  0  0
 17 28  1  1  0  0  0
 17 15  1  0  0  0  0
 18 19  2  0  0  0  0
 18 17  1  0  0  0  0
 20 18  1  0  0  0  0
 21 25  2  0  0  0  0
 22 21  1  0  0  0  0
 23 27  2  0  0  0  0
 24 26  1  0  0  0  0
 24 22  2  0  0  0  0
 26 23  1  0  0  0  0
 27 21  1  0  0  0  0
 27 20  1  0  0  0  0
 29 32  1  0  0  0  0
 30 31  2  0  0  0  0
 30 34  1  0  0  0  0
 31 33  1  0  0  0  0
 32 28  1  0  0  0  0
 33 32  2  0  0  0  0
 34 29  2  0  0  0  0
 35 36  1  0  0  0  0
 36 31  1  0  0  0  0
 38 37  1  6  0  0  0
 38 41  1  0  0  0  0
 38 42  1  0  0  0  0
 39 41  2  0  0  0  0
 41 40  1  0  0  0  0
 42 43  1  0  0  0  0
 44 46  1  0  0  0  0
 44 43  1  0  0  0  0
 46 45  1  6  0  0  0
 47 48  1  0  0  0  0
 48 46  1  0  0  0  0
 49 48  2  0  0  0  0
 50 56  1  1  0  0  0
 50 54  1  0  0  0  0
 50 51  1  0  0  0  0
 51 55  1  0  0  0  0
 52 53  1  0  0  0  0
 52 58  1  0  0  0  0
 54 52  2  0  0  0  0
 55 53  2  0  0  0  0
 55 47  1  0  0  0  0
 57 56  1  0  0  0  0
 59 64  1  0  0  0  0
 60 59  2  0  0  0  0
 61 58  1  0  0  0  0
 61 64  2  0  0  0  0
 62 61  1  0  0  0  0
 63 62  2  0  0  0  0
 63 60  1  0  0  0  0
M  END
>  <MODEL>
7

>  <REMARK>
 VINA RESULT:      -5.3      2.163      4.183
  Name = 
  22 active torsions:
  status: ('A' for Active; 'I' for Inactive)
    1  A    between atoms: C_4  and  C_13
    2  A    between atoms: C_4  and  C_55
    3  A    between atoms: C_8  and  C_45
    4  A    between atoms: C_13  and  C_36
    5  A    between atoms: C_13  and  C_53
    6  A    between atoms: C_14  and  C_53
    7  A    between atoms: C_14  and  C_59
    8  A    between atoms: C_15  and  C_26
    9  A    between atoms: C_15  and  C_45
   10  A    between atoms: O_21  and  C_31
   11  A    between atoms: O_21  and  C_54
   12  A    between atoms: C_22  and  O_32
   13  A    between atoms: C_23  and  C_35
   14  A    between atoms: O_25  and  C_27
   15  A    between atoms: C_29  and  C_35
   16  A    between atoms: N_30  and  C_58
   17  A    between atoms: C_33  and  C_62
   18  A    between atoms: C_34  and  C_56
   19  A    between atoms: C_45  and  C_46
   20  A    between atoms: C_56  and  C_61
   21  A    between atoms: C_59  and  C_62
   22  A    between atoms: N_63  and  C_64
                            x       y       z     vdW  Elec       q    Type
                         _______ _______ _______ _____ _____    ______ ____

>  <TORSDO>
F 22

$$$$
=
 OpenBabel11042414503D

 64 69  0  0  1  0  0  0  0  0999 V2000
  191.0470  174.9240  146.6760 N   0  0  0  0  0  0  0  0  0  0  0  0
  189.3850  174.5070  144.9320 C   0  0  0  0  0  2  0  0  0  0  0  0
  190.3590  173.5360  144.3260 C   0  0  2  0  0  3  0  0  0  0  0  0
  191.6120  173.4650  144.8370 C   0  0  1  0  0  3  0  0  0  0  0  0
  189.6340  174.6510  146.4330 C   0  0  0  0  0  2  0  0  0  0  0  0
  191.9760  174.3450  145.9750 C   0  0  0  0  0  0  0  0  0  0  0  0
  192.5740  172.3640  144.4790 C   0  0  0  0  0  2  0  0  0  0  0  0
  193.4910  173.2550  142.3760 N   0  0  0  0  0  0  0  0  0  0  0  0
  193.2170  170.9560  139.8160 O   0  0  0  0  0  0  0  0  0  0  0  0
  193.1740  171.6070  140.8920 C   0  0  0  0  0  0  0  0  0  0  0  0
  193.7190  172.9030  141.0470 N   0  0  0  0  0  2  0  0  0  0  0  0
  192.5750  171.1190  142.1590 C   0  0  0  0  0  2  0  0  0  0  0  0
  192.8410  172.3240  143.0030 C   0  0  0  0  0  0  0  0  0  0  0  0
  189.9050  172.8160  143.2020 O   0  0  0  0  0  0  0  0  0  0  0  0
  187.7930  172.7880  142.0980 C   0  0  0  0  0  3  0  0  0  0  0  0
  188.6130  172.3210  143.0320 C   0  0  0  0  0  3  0  0  0  0  0  0
  188.1720  173.8590  141.1070 C   0  0  1  0  0  3  0  0  0  0  0  0
  187.8140  175.2480  141.5870 C   0  0  0  0  0  0  0  0  0  0  0  0
  188.3220  176.2510  141.0110 O   0  0  0  0  0  0  0  0  0  0  0  0
  186.7990  175.4200  142.5870 N   0  0  0  0  0  2  0  0  0  0  0  0
  185.5030  177.6250  142.3440 C   0  0  0  0  0  0  0  0  0  0  0  0
  184.7540  178.6690  143.0580 C   0  0  0  0  0  3  0  0  0  0  0  0
  186.5320  176.9020  144.4260 C   0  0  0  0  0  3  0  0  0  0  0  0
  184.9990  178.8950  144.3510 C   0  0  0  0  0  3  0  0  0  0  0  0
  185.4670  177.5840  141.0870 O   0  0  0  0  0  0  0  0  0  0  0  0
  186.1080  178.1850  145.0890 C   0  0  0  0  0  2  0  0  0  0  0  0
  186.2960  176.6480  143.1340 C   0  0  0  0  0  0  0  0  0  0  0  0
  189.6460  173.7790  140.6340 C   0  0  0  0  0  2  0  0  0  0  0  0
  189.4470  171.7860  139.1370 C   0  0  0  0  0  3  0  0  0  0  0  0
  190.3190  171.8050  136.8820 C   0  0  0  0  0  3  0  0  0  0  0  0
  190.7270  173.1290  137.0430 C   0  0  0  0  0  0  0  0  0  0  0  0
  189.8560  173.1090  139.3130 C   0  0  0  0  0  0  0  0  0  0  0  0
  190.4940  173.7830  138.2660 C   0  0  0  0  0  3  0  0  0  0  0  0
  189.6800  171.1290  137.9250 C   0  0  0  0  0  3  0  0  0  0  0  0
  192.0390  173.0520  134.9300 C   0  0  0  0  0  1  0  0  0  0  0  0
  191.3630  173.7600  135.9720 O   0  0  0  0  0  0  0  0  0  0  0  0
  193.4220  174.6070  146.2880 C   0  0  0  0  0  2  0  0  0  0  0  0
  194.1060  175.4270  145.2020 C   0  0  1  0  0  3  0  0  0  0  0  0
  192.6340  177.3960  144.7630 O   0  0  0  0  0  0  0  0  0  0  0  0
  194.5470  177.6460  146.0060 O   0  0  0  0  0  1  0  0  0  0  0  0
  193.7820  176.8800  145.3590 C   0  0  0  0  0  0  0  0  0  0  0  0
  195.6200  175.2320  145.2020 C   0  0  0  0  0  2  0  0  0  0  0  0
  196.0810  174.8380  143.8110 C   0  0  0  0  0  2  0  0  0  0  0  0
  196.9790  175.9130  143.2200 C   0  0  0  0  0  2  0  0  0  0  0  0
  195.0550  176.4110  141.7430 C   0  0  0  0  0  1  0  0  0  0  0  0
  196.5640  176.2400  141.7900 C   0  0  2  0  0  3  0  0  0  0  0  0
  197.7060  174.0430  141.2060 N   0  0  0  0  0  2  0  0  0  0  0  0
  197.0420  175.2360  140.7690 C   0  0  0  0  0  0  0  0  0  0  0  0
  196.7510  175.3770  139.5500 O   0  0  0  0  0  0  0  0  0  0  0  0
  196.5640  171.2620  138.6530 C   0  0  2  0  0  3  0  0  0  0  0  0
  197.9340  172.4400  138.9420 S   0  0  0  0  0  0  0  0  0  0  0  0
  196.8560  170.3670  140.9450 C   0  0  0  0  0  0  0  0  0  0  0  0
  197.1120  171.7240  141.4610 C   0  0  0  0  0  3  0  0  0  0  0  0
  196.6380  170.1390  139.6440 C   0  0  0  0  0  3  0  0  0  0  0  0
  197.4850  172.7370  140.6660 C   0  0  0  0  0  0  0  0  0  0  0  0
  196.6410  170.7540  137.3580 O   0  0  0  0  0  0  0  0  0  0  0  0
  195.4770  169.9960  137.1980 C   0  0  0  0  0  1  0  0  0  0  0  0
  196.7580  169.2290  141.9080 C   0  0  0  0  0  2  0  0  0  0  0  0
  195.5000  170.5540  145.2200 C   0  0  0  0  0  3  0  0  0  0  0  0
  196.7010  170.8440  145.8720 C   0  0  0  0  0  3  0  0  0  0  0  0
  196.7410  169.7340  143.3100 C   0  0  0  0  0  0  0  0  0  0  0  0
  197.9410  170.0250  143.9670 C   0  0  0  0  0  3  0  0  0  0  0  0
  197.9210  170.5780  145.2470 C   0  0  0  0  0  3  0  0  0  0  0  0
  195.5210  170.0020  143.9410 C   0  0  0  0  0  3  0  0  0  0  0  0
  2  5  1  0  0  0  0
  3 14  1  6  0  0  0
  3  4  1  0  0  0  0
  3  2  1  0  0  0  0
  4  7  1  1  0  0  0
  4  6  1  0  0  0  0
  5  1  1  0  0  0  0
  6 37  1  0  0  0  0
  6  1  2  0  0  0  0
  8 13  2  0  0  0  0
  9 10  2  0  0  0  0
 10 11  1  0  0  0  0
 10 12  1  0  0  0  0
 11  8  1  0  0  0  0
 12 13  1  0  0  0  0
 13  7  1  0  0  0  0
 15 16  2  0  0  0  0
 16 14  1  0  0  0  0
 17 28  1  1  0  0  0
 17 18  1  0  0  0  0
 17 15  1  0  0  0  0
 18 20  1  0  0  0  0
 19 18  2  0  0  0  0
 20 27  1  0  0  0  0
 21 22  1  0  0  0  0
 21 27  1  0  0  0  0
 22 24  2  0  0  0  0
 23 26  1  0  0  0  0
 24 26  1  0  0  0  0
 25 21  2  0  0  0  0
 27 23  2  0  0  0  0
 29 32  1  0  0  0  0
 30 31  2  0  0  0  0
 30 34  1  0  0  0  0
 31 33  1  0  0  0  0
 32 28  1  0  0  0  0
 33 32  2  0  0  0  0
 34 29  2  0  0  0  0
 35 36  1  0  0  0  0
 36 31  1  0  0  0  0
 38 42  1  1  0  0  0
 38 41  1  0  0  0  0
 38 37  1  0  0  0  0
 39 41  2  0  0  0  0
 41 40  1  0  0  0  0
 43 42  1  0  0  0  0
 44 43  1  0  0  0  0
 46 45  1  1  0  0  0
 46 44  1  0  0  0  0
 48 47  1  0  0  0  0
 48 46  1  0  0  0  0
 49 48  2  0  0  0  0
 50 56  1  6  0  0  0
 50 51  1  0  0  0  0
 50 54  1  0  0  0  0
 51 55  1  0  0  0  0
 52 53  1  0  0  0  0
 52 58  1  0  0  0  0
 54 52  2  0  0  0  0
 55 47  1  0  0  0  0
 55 53  2  0  0  0  0
 57 56  1  0  0  0  0
 58 61  1  0  0  0  0
 59 60  1  0  0  0  0
 61 64  1  0  0  0  0
 61 62  2  0  0  0  0
 62 63  1  0  0  0  0
 63 60  2  0  0  0  0
 64 59  2  0  0  0  0
M  END
>  <MODEL>
8

>  <REMARK>
 VINA RESULT:      -5.3      2.582      6.911
  Name = 
  22 active torsions:
  status: ('A' for Active; 'I' for Inactive)
    1  A    between atoms: C_4  and  C_13
    2  A    between atoms: C_4  and  C_55
    3  A    between atoms: C_8  and  C_45
    4  A    between atoms: C_13  and  C_36
    5  A    between atoms: C_13  and  C_53
    6  A    between atoms: C_14  and  C_53
    7  A    between atoms: C_14  and  C_59
    8  A    between atoms: C_15  and  C_26
    9  A    between atoms: C_15  and  C_45
   10  A    between atoms: O_21  and  C_31
   11  A    between atoms: O_21  and  C_54
   12  A    between atoms: C_22  and  O_32
   13  A    between atoms: C_23  and  C_35
   14  A    between atoms: O_25  and  C_27
   15  A    between atoms: C_29  and  C_35
   16  A    between atoms: N_30  and  C_58
   17  A    between atoms: C_33  and  C_62
   18  A    between atoms: C_34  and  C_56
   19  A    between atoms: C_45  and  C_46
   20  A    between atoms: C_56  and  C_61
   21  A    between atoms: C_59  and  C_62
   22  A    between atoms: N_63  and  C_64
                            x       y       z     vdW  Elec       q    Type
                         _______ _______ _______ _____ _____    ______ ____

>  <TORSDO>
F 22

$$$$
=
 OpenBabel11042414503D

 64 69  0  0  1  0  0  0  0  0999 V2000
  190.5620  175.7500  146.5680 N   0  0  0  0  0  0  0  0  0  0  0  0
  189.2260  175.2670  144.5790 C   0  0  0  0  0  2  0  0  0  0  0  0
  190.1970  174.1620  144.2730 C   0  0  2  0  0  3  0  0  0  0  0  0
  191.3180  174.0520  145.0270 C   0  0  1  0  0  3  0  0  0  0  0  0
  189.2000  175.5600  146.0780 C   0  0  0  0  0  2  0  0  0  0  0  0
  191.5460  175.0250  146.1240 C   0  0  0  0  0  0  0  0  0  0  0  0
  192.2180  172.8470  144.9730 C   0  0  0  0  0  2  0  0  0  0  0  0
  192.6660  171.4540  142.9940 N   0  0  0  0  0  0  0  0  0  0  0  0
  193.7930  173.3630  140.3490 O   0  0  0  0  0  0  0  0  0  0  0  0
  193.3970  172.9050  141.4510 C   0  0  0  0  0  0  0  0  0  0  0  0
  193.0860  171.5420  141.6680 N   0  0  0  0  0  2  0  0  0  0  0  0
  193.1760  173.7110  142.6770 C   0  0  0  0  0  2  0  0  0  0  0  0
  192.7350  172.6070  143.5850 C   0  0  0  0  0  0  0  0  0  0  0  0
  189.8950  173.3560  143.1570 O   0  0  0  0  0  0  0  0  0  0  0  0
  187.8180  173.0680  142.0230 C   0  0  0  0  0  3  0  0  0  0  0  0
  188.6890  172.6870  142.9500 C   0  0  0  0  0  3  0  0  0  0  0  0
  188.0470  174.2210  141.0780 C   0  0  1  0  0  3  0  0  0  0  0  0
  187.6540  175.5520  141.6800 C   0  0  0  0  0  0  0  0  0  0  0  0
  188.2430  176.6010  141.2950 O   0  0  0  0  0  0  0  0  0  0  0  0
  186.5280  175.6310  142.5670 N   0  0  0  0  0  2  0  0  0  0  0  0
  185.1610  177.8040  142.4730 C   0  0  0  0  0  0  0  0  0  0  0  0
  184.3730  178.7690  143.2540 C   0  0  0  0  0  3  0  0  0  0  0  0
  186.2000  176.9650  144.5060 C   0  0  0  0  0  3  0  0  0  0  0  0
  184.6020  178.9080  144.5630 C   0  0  0  0  0  3  0  0  0  0  0  0
  185.1340  177.8550  141.2160 O   0  0  0  0  0  0  0  0  0  0  0  0
  185.7290  178.1820  145.2560 C   0  0  0  0  0  2  0  0  0  0  0  0
  185.9810  176.7990  143.1960 C   0  0  0  0  0  0  0  0  0  0  0  0
  189.4760  174.2620  140.4790 C   0  0  0  0  0  2  0  0  0  0  0  0
  189.2920  173.7660  138.0350 C   0  0  0  0  0  3  0  0  0  0  0  0
  190.0300  171.6560  137.1130 C   0  0  0  0  0  3  0  0  0  0  0  0
  190.4500  171.2430  138.3760 C   0  0  0  0  0  0  0  0  0  0  0  0
  189.7020  173.3600  139.3060 C   0  0  0  0  0  0  0  0  0  0  0  0
  190.2840  172.1010  139.4790 C   0  0  0  0  0  3  0  0  0  0  0  0
  189.4500  172.9160  136.9370 C   0  0  0  0  0  3  0  0  0  0  0  0
  191.0050  169.2200  139.7160 C   0  0  0  0  0  1  0  0  0  0  0  0
  191.0230  169.9750  138.5020 O   0  0  0  0  0  0  0  0  0  0  0  0
  192.9250  175.2080  146.6900 C   0  0  0  0  0  2  0  0  0  0  0  0
  193.9720  175.4030  145.6010 C   0  0  1  0  0  3  0  0  0  0  0  0
  194.9530  177.6880  145.8260 O   0  0  0  0  0  1  0  0  0  0  0  0
  193.2820  177.3000  144.3020 O   0  0  0  0  0  0  0  0  0  0  0  0
  194.0460  176.8410  145.1940 C   0  0  0  0  0  0  0  0  0  0  0  0
  195.3520  174.9180  146.0370 C   0  0  0  0  0  2  0  0  0  0  0  0
  195.9540  174.0500  144.9470 C   0  0  0  0  0  2  0  0  0  0  0  0
  197.3520  174.5300  144.5920 C   0  0  0  0  0  2  0  0  0  0  0  0
  196.3480  175.4240  142.5130 C   0  0  0  0  0  1  0  0  0  0  0  0
  197.5190  174.6410  143.0800 C   0  0  2  0  0  3  0  0  0  0  0  0
  197.6950  172.1040  143.1550 N   0  0  0  0  0  2  0  0  0  0  0  0
  197.6890  173.3130  142.3840 C   0  0  0  0  0  0  0  0  0  0  0  0
  197.6990  173.2490  141.1250 O   0  0  0  0  0  0  0  0  0  0  0  0
  195.9230  169.4350  140.8550 C   0  0  2  0  0  3  0  0  0  0  0  0
  197.5950  170.0350  141.2970 S   0  0  0  0  0  0  0  0  0  0  0  0
  195.4190  169.0850  143.2560 C   0  0  0  0  0  0  0  0  0  0  0  0
  196.1380  170.3230  143.6050 C   0  0  0  0  0  3  0  0  0  0  0  0
  195.3460  168.6470  141.9930 C   0  0  0  0  0  3  0  0  0  0  0  0
  197.0330  170.8910  142.7840 C   0  0  0  0  0  0  0  0  0  0  0  0
  195.9920  168.6370  139.7160 O   0  0  0  0  0  0  0  0  0  0  0  0
  197.3090  168.1660  139.6840 C   0  0  0  0  0  1  0  0  0  0  0  0
  194.6880  168.3420  144.3260 C   0  0  0  0  0  2  0  0  0  0  0  0
  197.5150  168.1770  146.8330 C   0  0  0  0  0  3  0  0  0  0  0  0
  196.8250  168.3580  148.0340 C   0  0  0  0  0  3  0  0  0  0  0  0
  195.4380  168.4090  145.6110 C   0  0  0  0  0  0  0  0  0  0  0  0
  194.7510  168.5900  146.8160 C   0  0  0  0  0  3  0  0  0  0  0  0
  195.4450  168.5660  148.0260 C   0  0  0  0  0  3  0  0  0  0  0  0
  196.8220  168.2000  145.6250 C   0  0  0  0  0  3  0  0  0  0  0  0
  2  5  1  0  0  0  0
  3 14  1  6  0  0  0
  3  2  1  0  0  0  0
  3  4  1  0  0  0  0
  4  7  1  1  0  0  0
  4  6  1  0  0  0  0
  5  1  1  0  0  0  0
  6  1  2  0  0  0  0
  6 37  1  0  0  0  0
  8 13  2  0  0  0  0
  9 10  2  0  0  0  0
 10 11  1  0  0  0  0
 10 12  1  0  0  0  0
 11  8  1  0  0  0  0
 12 13  1  0  0  0  0
 13  7  1  0  0  0  0
 15 16  2  0  0  0  0
 16 14  1  0  0  0  0
 17 28  1  1  0  0  0
 17 18  1  0  0  0  0
 17 15  1  0  0  0  0
 18 20  1  0  0  0  0
 19 18  2  0  0  0  0
 20 27  1  0  0  0  0
 21 27  1  0  0  0  0
 21 22  1  0  0  0  0
 22 24  2  0  0  0  0
 23 26  1  0  0  0  0
 24 26  1  0  0  0  0
 25 21  2  0  0  0  0
 27 23  2  0  0  0  0
 29 32  1  0  0  0  0
 30 31  2  0  0  0  0
 31 36  1  0  0  0  0
 31 33  1  0  0  0  0
 32 33  2  0  0  0  0
 32 28  1  0  0  0  0
 34 30  1  0  0  0  0
 34 29  2  0  0  0  0
 36 35  1  0  0  0  0
 38 42  1  1  0  0  0
 38 37  1  0  0  0  0
 40 41  2  0  0  0  0
 41 38  1  0  0  0  0
 41 39  1  0  0  0  0
 43 42  1  0  0  0  0
 44 43  1  0  0  0  0
 46 45  1  6  0  0  0
 46 44  1  0  0  0  0
 48 46  1  0  0  0  0
 48 47  1  0  0  0  0
 49 48  2  0  0  0  0
 50 56  1  6  0  0  0
 50 51  1  0  0  0  0
 50 54  1  0  0  0  0
 51 55  1  0  0  0  0
 52 53  1  0  0  0  0
 52 58  1  0  0  0  0
 54 52  2  0  0  0  0
 55 47  1  0  0  0  0
 55 53  2  0  0  0  0
 57 56  1  0  0  0  0
 58 61  1  0  0  0  0
 59 60  1  0  0  0  0
 61 64  1  0  0  0  0
 61 62  2  0  0  0  0
 62 63  1  0  0  0  0
 63 60  2  0  0  0  0
 64 59  2  0  0  0  0
M  END
>  <MODEL>
9

>  <REMARK>
 VINA RESULT:      -5.3      2.518      7.061
  Name = 
  22 active torsions:
  status: ('A' for Active; 'I' for Inactive)
    1  A    between atoms: C_4  and  C_13
    2  A    between atoms: C_4  and  C_55
    3  A    between atoms: C_8  and  C_45
    4  A    between atoms: C_13  and  C_36
    5  A    between atoms: C_13  and  C_53
    6  A    between atoms: C_14  and  C_53
    7  A    between atoms: C_14  and  C_59
    8  A    between atoms: C_15  and  C_26
    9  A    between atoms: C_15  and  C_45
   10  A    between atoms: O_21  and  C_31
   11  A    between atoms: O_21  and  C_54
   12  A    between atoms: C_22  and  O_32
   13  A    between atoms: C_23  and  C_35
   14  A    between atoms: O_25  and  C_27
   15  A    between atoms: C_29  and  C_35
   16  A    between atoms: N_30  and  C_58
   17  A    between atoms: C_33  and  C_62
   18  A    between atoms: C_34  and  C_56
   19  A    between atoms: C_45  and  C_46
   20  A    between atoms: C_56  and  C_61
   21  A    between atoms: C_59  and  C_62
   22  A    between atoms: N_63  and  C_64
                            x       y       z     vdW  Elec       q    Type
                         _______ _______ _______ _____ _____    ______ ____

>  <TORSDO>
F 22

$$$$
