=
 OpenBabel11042413483D

 25 28  0  0  1  0  0  0  0  0999 V2000
  186.7120  177.7850  146.5230 C   0  0  0  0  0  0  0  0  0  0  0  0
  187.0980  177.2260  144.1880 C   0  0  0  0  0  0  0  0  0  0  0  0
  187.6390  176.8620  146.8930 N   0  0  0  0  0  0  0  0  0  0  0  0
  188.7460  175.4790  143.7020 O   0  0  0  0  0  0  0  0  0  0  0  0
  189.3690  175.1610  146.4800 C   0  0  2  0  0  3  0  0  0  0  0  0
  188.0410  176.2610  144.6140 C   0  0  0  0  0  0  0  0  0  0  0  0
  188.3040  176.1030  145.9840 C   0  0  0  0  0  0  0  0  0  0  0  0
  186.4370  177.9820  145.1690 C   0  0  0  0  0  3  0  0  0  0  0  0
  190.6970  175.4720  145.7930 C   0  0  2  0  0  3  0  0  0  0  0  0
  189.3000  174.2180  144.0630 C   0  0  0  0  0  2  0  0  0  0  0  0
  189.9550  174.1890  145.4550 C   0  0  2  0  0  3  0  0  0  0  0  0
  187.4770  177.7030  140.4780 N   0  0  0  0  0  0  0  0  0  0  0  0
  186.7680  177.4690  142.7530 C   0  0  0  0  0  0  0  0  0  0  0  0
  185.1970  177.9400  140.9760 C   0  0  0  0  0  0  0  0  0  0  0  0
  186.2210  177.9250  140.0850 N   0  0  0  0  0  0  0  0  0  0  0  0
  185.4570  177.7080  142.3240 C   0  0  0  0  0  3  0  0  0  0  0  0
  187.7810  177.4770  141.7850 C   0  0  0  0  0  3  0  0  0  0  0  0
  182.8640  178.2560  141.6960 C   0  0  0  0  0  1  0  0  0  0  0  0
  183.8030  178.1710  140.5090 C   0  0  0  0  0  2  0  0  0  0  0  0
  191.6510  175.2010  147.9660 O   0  0  0  0  0  0  0  0  0  0  0  0
  193.1090  174.8270  146.1990 N   0  0  0  0  0  1  0  0  0  0  0  0
  191.8320  175.1810  146.7200 C   0  0  0  0  0  0  0  0  0  0  0  0
  184.7590  178.5670  147.6100 O   0  0  0  0  0  0  0  0  0  0  0  0
  186.7530  179.3660  148.4790 N   0  0  0  0  0  1  0  0  0  0  0  0
  186.0170  178.5790  147.5490 C   0  0  0  0  0  0  0  0  0  0  0  0
  1  3  1  0  0  0  0
  1 25  1  0  0  0  0
  2  6  2  0  0  0  0
  2  8  1  0  0  0  0
  4 10  1  0  0  0  0
  4  6  1  0  0  0  0
  5  7  1  6  0  0  0
  6  7  1  0  0  0  0
  7  3  2  0  0  0  0
  8  1  2  0  0  0  0
  9  5  1  0  0  0  0
  9 22  1  1  0  0  0
 11 10  1  6  0  0  0
 11  9  1  0  0  0  0
 11  5  1  0  0  0  0
 12 17  1  0  0  0  0
 13  2  1  0  0  0  0
 14 16  2  0  0  0  0
 15 12  2  0  0  0  0
 15 14  1  0  0  0  0
 16 13  1  0  0  0  0
 17 13  2  0  0  0  0
 19 14  1  0  0  0  0
 19 18  1  0  0  0  0
 21 22  1  0  0  0  0
 22 20  2  0  0  0  0
 25 23  2  0  0  0  0
 25 24  1  0  0  0  0
M  END
>  <MODEL>
1

>  <REMARK>
 VINA RESULT:      -7.2      0.000      0.000
  Name = 
  4 active torsions:
  status: ('A' for Active; 'I' for Inactive)
    1  A    between atoms: C_2  and  C_6
    2  A    between atoms: C_3  and  C_11
    3  A    between atoms: C_4  and  C_20
    4  A    between atoms: C_18  and  C_23
                            x       y       z     vdW  Elec       q    Type
                         _______ _______ _______ _____ _____    ______ ____

>  <TORSDO>
F 4

$$$$
=
 OpenBabel11042413483D

 25 28  0  0  1  0  0  0  0  0999 V2000
  185.9040  178.2350  145.7730 C   0  0  0  0  0  0  0  0  0  0  0  0
  188.0750  177.1610  145.5570 C   0  0  0  0  0  0  0  0  0  0  0  0
  185.9320  178.5490  144.4510 N   0  0  0  0  0  0  0  0  0  0  0  0
  189.1320  177.1830  143.3470 O   0  0  0  0  0  0  0  0  0  0  0  0
  186.8910  178.5360  142.1840 C   0  0  2  0  0  3  0  0  0  0  0  0
  188.0770  177.5240  144.1900 C   0  0  0  0  0  0  0  0  0  0  0  0
  186.9800  178.2160  143.6520 C   0  0  0  0  0  0  0  0  0  0  0  0
  186.9700  177.5330  146.3380 C   0  0  0  0  0  3  0  0  0  0  0  0
  187.0740  177.2610  141.3630 C   0  0  2  0  0  3  0  0  0  0  0  0
  189.4100  177.9140  142.1570 C   0  0  0  0  0  2  0  0  0  0  0  0
  188.1610  178.3230  141.3580 C   0  0  2  0  0  3  0  0  0  0  0  0
  189.9430  174.6490  147.6380 N   0  0  0  0  0  0  0  0  0  0  0  0
  189.1930  176.4140  146.2070 C   0  0  0  0  0  0  0  0  0  0  0  0
  191.5420  176.0560  146.6550 C   0  0  0  0  0  0  0  0  0  0  0  0
  191.2160  175.0030  147.4460 N   0  0  0  0  0  0  0  0  0  0  0  0
  190.5320  176.7750  146.0190 C   0  0  0  0  0  3  0  0  0  0  0  0
  188.9230  175.3240  147.0450 C   0  0  0  0  0  3  0  0  0  0  0  0
  193.1950  176.8170  144.9960 C   0  0  0  0  0  1  0  0  0  0  0  0
  192.9700  176.4180  146.4410 C   0  0  0  0  0  2  0  0  0  0  0  0
  186.7010  176.8220  139.0450 O   0  0  0  0  0  0  0  0  0  0  0  0
  184.9860  177.9600  140.1180 N   0  0  0  0  0  1  0  0  0  0  0  0
  186.2690  177.3420  140.1070 C   0  0  0  0  0  0  0  0  0  0  0  0
  183.6920  179.0370  146.0440 O   0  0  0  0  0  0  0  0  0  0  0  0
  184.8050  178.5370  148.0150 N   0  0  0  0  0  1  0  0  0  0  0  0
  184.7470  178.6230  146.5950 C   0  0  0  0  0  0  0  0  0  0  0  0
  1  8  1  0  0  0  0
  1 25  1  0  0  0  0
  2 13  1  0  0  0  0
  2  8  2  0  0  0  0
  3  1  2  0  0  0  0
  4  6  1  0  0  0  0
  5  7  1  1  0  0  0
  6  2  1  0  0  0  0
  7  6  2  0  0  0  0
  7  3  1  0  0  0  0
  9 22  1  6  0  0  0
  9  5  1  0  0  0  0
 10  4  1  0  0  0  0
 11  9  1  0  0  0  0
 11 10  1  1  0  0  0
 11  5  1  0  0  0  0
 13 17  1  0  0  0  0
 14 15  2  0  0  0  0
 15 12  1  0  0  0  0
 16 13  2  0  0  0  0
 16 14  1  0  0  0  0
 17 12  2  0  0  0  0
 18 19  1  0  0  0  0
 19 14  1  0  0  0  0
 20 22  2  0  0  0  0
 22 21  1  0  0  0  0
 23 25  2  0  0  0  0
 25 24  1  0  0  0  0
M  END
>  <MODEL>
2

>  <REMARK>
 VINA RESULT:      -7.0      2.198      6.437
  Name = 
  4 active torsions:
  status: ('A' for Active; 'I' for Inactive)
    1  A    between atoms: C_2  and  C_6
    2  A    between atoms: C_3  and  C_11
    3  A    between atoms: C_4  and  C_20
    4  A    between atoms: C_18  and  C_23
                            x       y       z     vdW  Elec       q    Type
                         _______ _______ _______ _____ _____    ______ ____

>  <TORSDO>
F 4

$$$$
=
 OpenBabel11042413483D

 25 28  0  0  1  0  0  0  0  0999 V2000
  188.3680  174.4050  142.0780 C   0  0  0  0  0  0  0  0  0  0  0  0
  187.8040  176.5130  143.1510 C   0  0  0  0  0  0  0  0  0  0  0  0
  189.6860  174.6460  142.3070 N   0  0  0  0  0  0  0  0  0  0  0  0
  189.6520  177.8810  143.9970 O   0  0  0  0  0  0  0  0  0  0  0  0
  191.5880  175.9230  143.2070 C   0  0  2  0  0  3  0  0  0  0  0  0
  189.1860  176.7380  143.3530 C   0  0  0  0  0  0  0  0  0  0  0  0
  190.1160  175.7760  142.9260 C   0  0  0  0  0  0  0  0  0  0  0  0
  187.4140  175.3310  142.5030 C   0  0  0  0  0  3  0  0  0  0  0  0
  191.8110  176.1440  144.7010 C   0  0  2  0  0  3  0  0  0  0  0  0
  190.9720  178.3760  143.7900 C   0  0  0  0  0  2  0  0  0  0  0  0
  192.0540  177.2840  143.7260 C   0  0  2  0  0  3  0  0  0  0  0  0
  185.4550  179.4480  143.1770 N   0  0  0  0  0  0  0  0  0  0  0  0
  186.7470  177.4750  143.5840 C   0  0  0  0  0  0  0  0  0  0  0  0
  185.0940  178.2580  145.1660 C   0  0  0  0  0  0  0  0  0  0  0  0
  184.8110  179.2940  144.3360 N   0  0  0  0  0  0  0  0  0  0  0  0
  186.0660  177.3300  144.7980 C   0  0  0  0  0  3  0  0  0  0  0  0
  186.4150  178.5720  142.7780 C   0  0  0  0  0  3  0  0  0  0  0  0
  185.2660  178.3710  147.6190 C   0  0  0  0  0  1  0  0  0  0  0  0
  184.3480  178.0970  146.4440 C   0  0  0  0  0  2  0  0  0  0  0  0
  193.1400  174.3810  145.6140 O   0  0  0  0  0  0  0  0  0  0  0  0
  194.3300  176.2450  144.9070 N   0  0  0  0  0  1  0  0  0  0  0  0
  193.1120  175.5380  145.1180 C   0  0  0  0  0  0  0  0  0  0  0  0
  187.1330  172.3880  141.9510 O   0  0  0  0  0  0  0  0  0  0  0  0
  188.4780  172.8350  140.1160 N   0  0  0  0  0  1  0  0  0  0  0  0
  187.9560  173.1670  141.3990 C   0  0  0  0  0  0  0  0  0  0  0  0
  1  3  2  0  0  0  0
  1  8  1  0  0  0  0
  2  6  1  0  0  0  0
  2 13  1  0  0  0  0
  3  7  1  0  0  0  0
  5  7  1  1  0  0  0
  5 11  1  0  0  0  0
  5  9  1  0  0  0  0
  6  4  1  0  0  0  0
  7  6  2  0  0  0  0
  8  2  2  0  0  0  0
  9 22  1  6  0  0  0
 10  4  1  0  0  0  0
 11 10  1  1  0  0  0
 11  9  1  0  0  0  0
 12 15  1  0  0  0  0
 13 16  2  0  0  0  0
 14 19  1  0  0  0  0
 15 14  2  0  0  0  0
 16 14  1  0  0  0  0
 17 12  2  0  0  0  0
 17 13  1  0  0  0  0
 19 18  1  0  0  0  0
 21 22  1  0  0  0  0
 22 20  2  0  0  0  0
 24 25  1  0  0  0  0
 25 23  2  0  0  0  0
 25  1  1  0  0  0  0
M  END
>  <MODEL>
3

>  <REMARK>
 VINA RESULT:      -7.0      2.882      4.825
  Name = 
  4 active torsions:
  status: ('A' for Active; 'I' for Inactive)
    1  A    between atoms: C_2  and  C_6
    2  A    between atoms: C_3  and  C_11
    3  A    between atoms: C_4  and  C_20
    4  A    between atoms: C_18  and  C_23
                            x       y       z     vdW  Elec       q    Type
                         _______ _______ _______ _____ _____    ______ ____

>  <TORSDO>
F 4

$$$$
=
 OpenBabel11042413483D

 25 28  0  0  1  0  0  0  0  0999 V2000
  186.7570  178.2480  146.5120 C   0  0  0  0  0  0  0  0  0  0  0  0
  188.3500  176.8940  145.2700 C   0  0  0  0  0  0  0  0  0  0  0  0
  186.2370  178.7010  145.3410 N   0  0  0  0  0  0  0  0  0  0  0  0
  188.2640  177.0060  142.8240 O   0  0  0  0  0  0  0  0  0  0  0  0
  186.0330  178.8010  142.8900 C   0  0  2  0  0  3  0  0  0  0  0  0
  187.7940  177.4040  144.0730 C   0  0  0  0  0  0  0  0  0  0  0  0
  186.7220  178.3080  144.1340 C   0  0  0  0  0  0  0  0  0  0  0  0
  187.8140  177.3360  146.4890 C   0  0  0  0  0  3  0  0  0  0  0  0
  185.5820  177.6140  142.0420 C   0  0  2  0  0  3  0  0  0  0  0  0
  188.0980  177.8170  141.6650 C   0  0  0  0  0  2  0  0  0  0  0  0
  186.7220  178.4950  141.5590 C   0  0  2  0  0  3  0  0  0  0  0  0
  191.7970  175.4500  145.6790 N   0  0  0  0  0  0  0  0  0  0  0  0
  189.4820  175.9200  145.2960 C   0  0  0  0  0  0  0  0  0  0  0  0
  190.3960  173.7040  144.9800 C   0  0  0  0  0  0  0  0  0  0  0  0
  191.6160  174.1700  145.3510 N   0  0  0  0  0  0  0  0  0  0  0  0
  189.3090  174.5740  144.9510 C   0  0  0  0  0  3  0  0  0  0  0  0
  190.7680  176.3390  145.6600 C   0  0  0  0  0  3  0  0  0  0  0  0
  189.3500  172.1310  143.4010 C   0  0  0  0  0  1  0  0  0  0  0  0
  190.2160  172.2660  144.6380 C   0  0  0  0  0  2  0  0  0  0  0  0
  184.2880  177.9120  140.0560 O   0  0  0  0  0  0  0  0  0  0  0  0
  183.1420  178.2800  142.0400 N   0  0  0  0  0  1  0  0  0  0  0  0
  184.3230  177.9560  141.3140 C   0  0  0  0  0  0  0  0  0  0  0  0
  184.9630  178.6020  148.0160 O   0  0  0  0  0  0  0  0  0  0  0  0
  187.0410  179.2810  148.7870 N   0  0  0  0  0  1  0  0  0  0  0  0
  186.1980  178.7100  147.7910 C   0  0  0  0  0  0  0  0  0  0  0  0
  1 25  1  0  0  0  0
  2 13  1  0  0  0  0
  2  8  2  0  0  0  0
  3  1  2  0  0  0  0
  4  6  1  0  0  0  0
  5  7  1  1  0  0  0
  6  7  2  0  0  0  0
  6  2  1  0  0  0  0
  7  3  1  0  0  0  0
  8  1  1  0  0  0  0
  9 22  1  6  0  0  0
  9  5  1  0  0  0  0
 10  4  1  0  0  0  0
 11 10  1  1  0  0  0
 11  9  1  0  0  0  0
 11  5  1  0  0  0  0
 13 17  2  0  0  0  0
 14 15  1  0  0  0  0
 15 12  2  0  0  0  0
 16 14  2  0  0  0  0
 16 13  1  0  0  0  0
 17 12  1  0  0  0  0
 18 19  1  0  0  0  0
 19 14  1  0  0  0  0
 20 22  2  0  0  0  0
 22 21  1  0  0  0  0
 25 23  2  0  0  0  0
 25 24  1  0  0  0  0
M  END
>  <MODEL>
4

>  <REMARK>
 VINA RESULT:      -7.0      2.084      6.180
  Name = 
  4 active torsions:
  status: ('A' for Active; 'I' for Inactive)
    1  A    between atoms: C_2  and  C_6
    2  A    between atoms: C_3  and  C_11
    3  A    between atoms: C_4  and  C_20
    4  A    between atoms: C_18  and  C_23
                            x       y       z     vdW  Elec       q    Type
                         _______ _______ _______ _____ _____    ______ ____

>  <TORSDO>
F 4

$$$$
=
 OpenBabel11042413483D

 25 28  0  0  1  0  0  0  0  0999 V2000
  187.2570  177.0250  142.0020 C   0  0  0  0  0  0  0  0  0  0  0  0
  189.2110  176.4270  143.3210 C   0  0  0  0  0  0  0  0  0  0  0  0
  186.5180  177.1010  143.1400 N   0  0  0  0  0  0  0  0  0  0  0  0
  188.9270  176.2550  145.7480 O   0  0  0  0  0  0  0  0  0  0  0  0
  186.1750  177.0310  145.5760 C   0  0  2  0  0  3  0  0  0  0  0  0
  188.4040  176.4960  144.4800 C   0  0  0  0  0  0  0  0  0  0  0  0
  187.0490  176.8480  144.3640 C   0  0  0  0  0  0  0  0  0  0  0  0
  188.6120  176.6950  142.0800 C   0  0  0  0  0  3  0  0  0  0  0  0
  186.8240  178.0240  146.5380 C   0  0  2  0  0  3  0  0  0  0  0  0
  188.1050  175.8360  146.8330 C   0  0  0  0  0  2  0  0  0  0  0  0
  186.7460  176.5530  146.9120 C   0  0  2  0  0  3  0  0  0  0  0  0
  192.4890  174.7590  142.5420 N   0  0  0  0  0  0  0  0  0  0  0  0
  190.6620  176.0740  143.3540 C   0  0  0  0  0  0  0  0  0  0  0  0
  192.9000  176.3330  144.2310 C   0  0  0  0  0  0  0  0  0  0  0  0
  193.3310  175.3690  143.3780 N   0  0  0  0  0  0  0  0  0  0  0  0
  191.5570  176.7020  144.2280 C   0  0  0  0  0  3  0  0  0  0  0  0
  191.1680  175.0810  142.5060 C   0  0  0  0  0  3  0  0  0  0  0  0
  193.6870  176.5030  146.5580 C   0  0  0  0  0  1  0  0  0  0  0  0
  193.8630  177.0120  145.1410 C   0  0  0  0  0  2  0  0  0  0  0  0
  186.0840  179.8060  147.9460 O   0  0  0  0  0  0  0  0  0  0  0  0
  184.4010  178.4250  147.1420 N   0  0  0  0  0  1  0  0  0  0  0  0
  185.7700  178.7960  147.2640 C   0  0  0  0  0  0  0  0  0  0  0  0
  187.0260  176.7000  139.6680 O   0  0  0  0  0  0  0  0  0  0  0  0
  185.5780  178.2570  140.5910 N   0  0  0  0  0  1  0  0  0  0  0  0
  186.6320  177.3050  140.7000 C   0  0  0  0  0  0  0  0  0  0  0  0
  1  8  2  0  0  0  0
  1  3  1  0  0  0  0
  2 13  1  0  0  0  0
  2  6  2  0  0  0  0
  3  7  2  0  0  0  0
  4 10  1  0  0  0  0
  5  7  1  6  0  0  0
  5  9  1  0  0  0  0
  5 11  1  0  0  0  0
  6  4  1  0  0  0  0
  7  6  1  0  0  0  0
  8  2  1  0  0  0  0
  9 11  1  0  0  0  0
  9 22  1  1  0  0  0
 11 10  1  6  0  0  0
 12 15  1  0  0  0  0
 13 16  2  0  0  0  0
 14 19  1  0  0  0  0
 15 14  2  0  0  0  0
 16 14  1  0  0  0  0
 17 12  2  0  0  0  0
 17 13  1  0  0  0  0
 19 18  1  0  0  0  0
 21 22  1  0  0  0  0
 22 20  2  0  0  0  0
 23 25  2  0  0  0  0
 24 25  1  0  0  0  0
 25  1  1  0  0  0  0
M  END
>  <MODEL>
5

>  <REMARK>
 VINA RESULT:      -7.0      2.196      6.435
  Name = 
  4 active torsions:
  status: ('A' for Active; 'I' for Inactive)
    1  A    between atoms: C_2  and  C_6
    2  A    between atoms: C_3  and  C_11
    3  A    between atoms: C_4  and  C_20
    4  A    between atoms: C_18  and  C_23
                            x       y       z     vdW  Elec       q    Type
                         _______ _______ _______ _____ _____    ______ ____

>  <TORSDO>
F 4

$$$$
=
 OpenBabel11042413483D

 25 28  0  0  1  0  0  0  0  0999 V2000
  186.9540  177.9960  146.5550 C   0  0  0  0  0  0  0  0  0  0  0  0
  188.5400  176.7370  145.2070 C   0  0  0  0  0  0  0  0  0  0  0  0
  186.4020  178.5050  145.4220 N   0  0  0  0  0  0  0  0  0  0  0  0
  188.4000  176.9840  142.7740 O   0  0  0  0  0  0  0  0  0  0  0  0
  186.1450  178.7380  142.9850 C   0  0  2  0  0  3  0  0  0  0  0  0
  187.9510  177.3040  144.0520 C   0  0  0  0  0  0  0  0  0  0  0  0
  186.8670  178.1870  144.1860 C   0  0  0  0  0  0  0  0  0  0  0  0
  188.0230  177.1020  146.4600 C   0  0  0  0  0  3  0  0  0  0  0  0
  185.6940  177.5920  142.0810 C   0  0  2  0  0  3  0  0  0  0  0  0
  188.1980  177.8550  141.6650 C   0  0  0  0  0  2  0  0  0  0  0  0
  186.8100  178.5170  141.6250 C   0  0  2  0  0  3  0  0  0  0  0  0
  190.5000  173.5350  145.0150 N   0  0  0  0  0  0  0  0  0  0  0  0
  189.6850  175.7810  145.1560 C   0  0  0  0  0  0  0  0  0  0  0  0
  192.0520  175.2860  145.1770 C   0  0  0  0  0  0  0  0  0  0  0  0
  191.7620  173.9650  145.0700 N   0  0  0  0  0  0  0  0  0  0  0  0
  191.0150  176.2150  145.2170 C   0  0  0  0  0  3  0  0  0  0  0  0
  189.4540  174.4030  145.0570 C   0  0  0  0  0  3  0  0  0  0  0  0
  193.7320  176.5070  146.4990 C   0  0  0  0  0  1  0  0  0  0  0  0
  193.4690  175.7410  145.2180 C   0  0  0  0  0  2  0  0  0  0  0  0
  184.3350  177.9130  140.1430 O   0  0  0  0  0  0  0  0  0  0  0  0
  183.2650  178.2930  142.1680 N   0  0  0  0  0  1  0  0  0  0  0  0
  184.4150  177.9540  141.3990 C   0  0  0  0  0  0  0  0  0  0  0  0
  185.3270  177.8850  148.2720 O   0  0  0  0  0  0  0  0  0  0  0  0
  187.1120  179.3010  148.6990 N   0  0  0  0  0  1  0  0  0  0  0  0
  186.4150  178.3770  147.8700 C   0  0  0  0  0  0  0  0  0  0  0  0
  1 25  1  0  0  0  0
  2  8  2  0  0  0  0
  3  1  2  0  0  0  0
  4  6  1  0  0  0  0
  5  7  1  1  0  0  0
  6  7  2  0  0  0  0
  6  2  1  0  0  0  0
  7  3  1  0  0  0  0
  8  1  1  0  0  0  0
  9 22  1  6  0  0  0
  9  5  1  0  0  0  0
 10  4  1  0  0  0  0
 11 10  1  1  0  0  0
 11  9  1  0  0  0  0
 11  5  1  0  0  0  0
 12 17  2  0  0  0  0
 12 15  1  0  0  0  0
 13  2  1  0  0  0  0
 13 16  2  0  0  0  0
 14 16  1  0  0  0  0
 14 19  1  0  0  0  0
 15 14  2  0  0  0  0
 17 13  1  0  0  0  0
 19 18  1  0  0  0  0
 20 22  2  0  0  0  0
 22 21  1  0  0  0  0
 25 23  2  0  0  0  0
 25 24  1  0  0  0  0
M  END
>  <MODEL>
6

>  <REMARK>
 VINA RESULT:      -7.0      2.077      6.476
  Name = 
  4 active torsions:
  status: ('A' for Active; 'I' for Inactive)
    1  A    between atoms: C_2  and  C_6
    2  A    between atoms: C_3  and  C_11
    3  A    between atoms: C_4  and  C_20
    4  A    between atoms: C_18  and  C_23
                            x       y       z     vdW  Elec       q    Type
                         _______ _______ _______ _____ _____    ______ ____

>  <TORSDO>
F 4

$$$$
=
 OpenBabel11042413483D

 25 28  0  0  1  0  0  0  0  0999 V2000
  186.7040  177.2830  141.6990 C   0  0  0  0  0  0  0  0  0  0  0  0
  188.7640  176.6270  142.8120 C   0  0  0  0  0  0  0  0  0  0  0  0
  186.0690  177.3130  142.9010 N   0  0  0  0  0  0  0  0  0  0  0  0
  188.6970  176.3560  145.2460 O   0  0  0  0  0  0  0  0  0  0  0  0
  185.9450  177.1440  145.3530 C   0  0  2  0  0  3  0  0  0  0  0  0
  188.0640  176.6500  144.0410 C   0  0  0  0  0  0  0  0  0  0  0  0
  186.7070  177.0090  144.0610 C   0  0  0  0  0  0  0  0  0  0  0  0
  188.0580  176.9470  141.6430 C   0  0  0  0  0  3  0  0  0  0  0  0
  186.6830  178.0960  146.2930 C   0  0  2  0  0  3  0  0  0  0  0  0
  187.9730  175.8950  146.3830 C   0  0  0  0  0  2  0  0  0  0  0  0
  186.6310  176.6110  146.6120 C   0  0  2  0  0  3  0  0  0  0  0  0
  192.5140  176.8940  142.8830 N   0  0  0  0  0  0  0  0  0  0  0  0
  190.2100  176.2710  142.7010 C   0  0  0  0  0  0  0  0  0  0  0  0
  191.9900  174.7130  142.1980 C   0  0  0  0  0  0  0  0  0  0  0  0
  192.8980  175.6750  142.5020 N   0  0  0  0  0  0  0  0  0  0  0  0
  190.6300  174.9980  142.2980 C   0  0  0  0  0  3  0  0  0  0  0  0
  191.1980  177.2210  142.9900 C   0  0  0  0  0  3  0  0  0  0  0  0
  191.2720  172.5470  141.2740 C   0  0  0  0  0  1  0  0  0  0  0  0
  192.4440  173.3550  141.7930 C   0  0  0  0  0  2  0  0  0  0  0  0
  186.0920  179.7840  147.8750 O   0  0  0  0  0  0  0  0  0  0  0  0
  184.3170  178.5170  147.0810 N   0  0  0  0  0  1  0  0  0  0  0  0
  185.7030  178.8390  147.1410 C   0  0  0  0  0  0  0  0  0  0  0  0
  186.4040  177.2440  139.3510 O   0  0  0  0  0  0  0  0  0  0  0  0
  184.7530  178.3610  140.5340 N   0  0  0  0  0  1  0  0  0  0  0  0
  185.9660  177.6170  140.4710 C   0  0  0  0  0  0  0  0  0  0  0  0
  1  3  1  0  0  0  0
  2  6  2  0  0  0  0
  3  7  2  0  0  0  0
  4 10  1  0  0  0  0
  5  7  1  6  0  0  0
  5  9  1  0  0  0  0
  5 11  1  0  0  0  0
  6  7  1  0  0  0  0
  6  4  1  0  0  0  0
  8  1  2  0  0  0  0
  8  2  1  0  0  0  0
  9 11  1  0  0  0  0
  9 22  1  1  0  0  0
 11 10  1  6  0  0  0
 12 17  1  0  0  0  0
 13  2  1  0  0  0  0
 13 17  2  0  0  0  0
 14 16  2  0  0  0  0
 14 15  1  0  0  0  0
 15 12  2  0  0  0  0
 16 13  1  0  0  0  0
 18 19  1  0  0  0  0
 19 14  1  0  0  0  0
 21 22  1  0  0  0  0
 22 20  2  0  0  0  0
 23 25  2  0  0  0  0
 25 24  1  0  0  0  0
 25  1  1  0  0  0  0
M  END
>  <MODEL>
7

>  <REMARK>
 VINA RESULT:      -6.8      2.507      6.125
  Name = 
  4 active torsions:
  status: ('A' for Active; 'I' for Inactive)
    1  A    between atoms: C_2  and  C_6
    2  A    between atoms: C_3  and  C_11
    3  A    between atoms: C_4  and  C_20
    4  A    between atoms: C_18  and  C_23
                            x       y       z     vdW  Elec       q    Type
                         _______ _______ _______ _____ _____    ______ ____

>  <TORSDO>
F 4

$$$$
=
 OpenBabel11042413483D

 25 28  0  0  1  0  0  0  0  0999 V2000
  188.4480  175.2300  141.9930 C   0  0  0  0  0  0  0  0  0  0  0  0
  189.9390  175.8070  143.8260 C   0  0  0  0  0  0  0  0  0  0  0  0
  187.3960  175.7220  142.7000 N   0  0  0  0  0  0  0  0  0  0  0  0
  188.9430  176.8440  145.8090 O   0  0  0  0  0  0  0  0  0  0  0  0
  186.3360  176.8370  144.6210 C   0  0  2  0  0  3  0  0  0  0  0  0
  188.8160  176.2900  144.5380 C   0  0  0  0  0  0  0  0  0  0  0  0
  187.5440  176.2450  143.9450 C   0  0  0  0  0  0  0  0  0  0  0  0
  189.7290  175.2730  142.5450 C   0  0  0  0  0  3  0  0  0  0  0  0
  186.6140  178.2910  144.9980 C   0  0  2  0  0  3  0  0  0  0  0  0
  187.8530  176.8800  146.7260 C   0  0  0  0  0  2  0  0  0  0  0  0
  186.5000  177.2380  146.0880 C   0  0  2  0  0  3  0  0  0  0  0  0
  193.2970  177.0510  144.9690 N   0  0  0  0  0  0  0  0  0  0  0  0
  191.3270  175.8280  144.3750 C   0  0  0  0  0  0  0  0  0  0  0  0
  193.2750  174.7270  145.2920 C   0  0  0  0  0  0  0  0  0  0  0  0
  193.9000  175.9300  145.3700 N   0  0  0  0  0  0  0  0  0  0  0  0
  191.9750  174.6610  144.7960 C   0  0  0  0  0  3  0  0  0  0  0  0
  192.0310  177.0350  144.4730 C   0  0  0  0  0  3  0  0  0  0  0  0
  193.4400  172.2870  145.0100 C   0  0  0  0  0  1  0  0  0  0  0  0
  193.9630  173.4940  145.7630 C   0  0  0  0  0  2  0  0  0  0  0  0
  185.2960  180.1110  144.1870 O   0  0  0  0  0  0  0  0  0  0  0  0
  184.1930  178.6660  145.6310 N   0  0  0  0  0  1  0  0  0  0  0  0
  185.3530  179.0880  144.9200 C   0  0  0  0  0  0  0  0  0  0  0  0
  187.8170  175.4070  139.7180 O   0  0  0  0  0  0  0  0  0  0  0  0
  188.4880  173.2920  140.3900 N   0  0  0  0  0  1  0  0  0  0  0  0
  188.2320  174.6690  140.6500 C   0  0  0  0  0  0  0  0  0  0  0  0
  1  8  2  0  0  0  0
  1  3  1  0  0  0  0
  2 13  1  0  0  0  0
  2  6  2  0  0  0  0
  3  7  2  0  0  0  0
  4 10  1  0  0  0  0
  5  7  1  6  0  0  0
  5  9  1  0  0  0  0
  5 11  1  0  0  0  0
  6  4  1  0  0  0  0
  7  6  1  0  0  0  0
  8  2  1  0  0  0  0
  9 22  1  1  0  0  0
  9 11  1  0  0  0  0
 11 10  1  6  0  0  0
 12 15  1  0  0  0  0
 13 17  1  0  0  0  0
 13 16  2  0  0  0  0
 14 15  2  0  0  0  0
 14 19  1  0  0  0  0
 16 14  1  0  0  0  0
 17 12  2  0  0  0  0
 18 19  1  0  0  0  0
 20 22  2  0  0  0  0
 22 21  1  0  0  0  0
 23 25  2  0  0  0  0
 24 25  1  0  0  0  0
 25  1  1  0  0  0  0
M  END
>  <MODEL>
8

>  <REMARK>
 VINA RESULT:      -6.8      2.762      7.275
  Name = 
  4 active torsions:
  status: ('A' for Active; 'I' for Inactive)
    1  A    between atoms: C_2  and  C_6
    2  A    between atoms: C_3  and  C_11
    3  A    between atoms: C_4  and  C_20
    4  A    between atoms: C_18  and  C_23
                            x       y       z     vdW  Elec       q    Type
                         _______ _______ _______ _____ _____    ______ ____

>  <TORSDO>
F 4

$$$$
=
 OpenBabel11042413483D

 25 28  0  0  1  0  0  0  0  0999 V2000
  188.8410  175.0710  142.1510 C   0  0  0  0  0  0  0  0  0  0  0  0
  189.7970  175.7250  144.2900 C   0  0  0  0  0  0  0  0  0  0  0  0
  187.6450  175.5940  142.5320 N   0  0  0  0  0  0  0  0  0  0  0  0
  188.3220  176.8460  145.8920 O   0  0  0  0  0  0  0  0  0  0  0  0
  186.1260  176.7910  144.0540 C   0  0  2  0  0  3  0  0  0  0  0  0
  188.5320  176.2390  144.6570 C   0  0  0  0  0  0  0  0  0  0  0  0
  187.4630  176.1700  143.7490 C   0  0  0  0  0  0  0  0  0  0  0  0
  189.9300  175.1370  143.0220 C   0  0  0  0  0  3  0  0  0  0  0  0
  186.3110  178.2590  144.4320 C   0  0  2  0  0  3  0  0  0  0  0  0
  187.0280  176.9220  146.4830 C   0  0  0  0  0  2  0  0  0  0  0  0
  185.8990  177.2540  145.4940 C   0  0  2  0  0  3  0  0  0  0  0  0
  192.0460  175.1780  147.2530 N   0  0  0  0  0  0  0  0  0  0  0  0
  190.9890  175.7680  145.1880 C   0  0  0  0  0  0  0  0  0  0  0  0
  193.2460  176.4680  145.7050 C   0  0  0  0  0  0  0  0  0  0  0  0
  193.1570  175.8240  146.8970 N   0  0  0  0  0  0  0  0  0  0  0  0
  192.1610  176.4450  144.8310 C   0  0  0  0  0  3  0  0  0  0  0  0
  190.9590  175.1320  146.4360 C   0  0  0  0  0  3  0  0  0  0  0  0
  195.3150  176.2970  144.3820 C   0  0  0  0  0  1  0  0  0  0  0  0
  194.5040  177.1660  145.3230 C   0  0  0  0  0  2  0  0  0  0  0  0
  185.0480  180.2800  144.2620 O   0  0  0  0  0  0  0  0  0  0  0  0
  184.1060  178.4410  143.2060 N   0  0  0  0  0  1  0  0  0  0  0  0
  185.1260  179.0540  143.9870 C   0  0  0  0  0  0  0  0  0  0  0  0
  188.1900  174.7640  139.8960 O   0  0  0  0  0  0  0  0  0  0  0  0
  190.0150  173.5050  140.5720 N   0  0  0  0  0  1  0  0  0  0  0  0
  188.9840  174.4540  140.8230 C   0  0  0  0  0  0  0  0  0  0  0  0
  1  3  2  0  0  0  0
  1  8  1  0  0  0  0
  2  6  1  0  0  0  0
  2 13  1  0  0  0  0
  3  7  1  0  0  0  0
  4 10  1  0  0  0  0
  5  7  1  1  0  0  0
  5  9  1  0  0  0  0
  5 11  1  0  0  0  0
  6  4  1  0  0  0  0
  7  6  2  0  0  0  0
  8  2  2  0  0  0  0
  9 22  1  6  0  0  0
  9 11  1  0  0  0  0
 11 10  1  1  0  0  0
 13 17  1  0  0  0  0
 14 15  2  0  0  0  0
 15 12  1  0  0  0  0
 16 13  2  0  0  0  0
 16 14  1  0  0  0  0
 17 12  2  0  0  0  0
 18 19  1  0  0  0  0
 19 14  1  0  0  0  0
 21 22  1  0  0  0  0
 22 20  2  0  0  0  0
 23 25  2  0  0  0  0
 24 25  1  0  0  0  0
 25  1  1  0  0  0  0
M  END
>  <MODEL>
9

>  <REMARK>
 VINA RESULT:      -6.8      2.730      7.461
  Name = 
  4 active torsions:
  status: ('A' for Active; 'I' for Inactive)
    1  A    between atoms: C_2  and  C_6
    2  A    between atoms: C_3  and  C_11
    3  A    between atoms: C_4  and  C_20
    4  A    between atoms: C_18  and  C_23
                            x       y       z     vdW  Elec       q    Type
                         _______ _______ _______ _____ _____    ______ ____

>  <TORSDO>
F 4

$$$$
