=
 OpenBabel11042413523D

 51 54  0  0  1  0  0  0  0  0999 V2000
  185.9510  178.7590  146.6540 C   0  0  0  0  0  0  0  0  0  0  0  0
  191.1110  172.3070  140.3570 C   0  0  0  0  0  1  0  0  0  0  0  0
  190.1630  177.2310  144.9710 C   0  0  0  0  0  2  0  0  0  0  0  0
  191.1770  176.2400  144.3990 C   0  0  1  0  0  3  0  0  0  0  0  0
  185.5750  179.2890  145.3830 N   0  0  0  0  0  0  0  0  0  0  0  0
  192.2630  175.9260  145.4220 C   0  0  0  0  0  2  0  0  0  0  0  0
  188.7100  175.0000  141.6130 C   0  0  0  0  0  3  0  0  0  0  0  0
  187.7280  177.4410  145.4640 C   0  0  0  0  0  0  0  0  0  0  0  0
  187.2770  175.8140  139.8530 C   0  0  0  0  0  3  0  0  0  0  0  0
  189.3860  174.1440  140.7140 C   0  0  0  0  0  0  0  0  0  0  0  0
  191.4690  174.3090  143.2170 C   0  0  2  0  0  3  0  0  0  0  0  0
  185.6580  177.1820  141.8290 C   0  0  0  0  0  1  0  0  0  0  0  0
  190.4650  173.2980  141.2020 N   0  0  0  0  0  0  0  0  0  0  0  0
  187.2470  177.9200  144.2950 C   0  0  0  0  0  0  0  0  0  0  0  0
  186.1570  178.9080  144.2900 C   0  0  0  0  0  3  0  0  0  0  0  0
  187.8730  177.5750  142.9710 C   0  0  0  0  0  2  0  0  0  0  0  0
  187.0750  177.7710  146.7750 C   0  0  0  0  0  2  0  0  0  0  0  0
  190.5500  175.0440  143.9840 O   0  0  0  0  0  0  0  0  0  0  0  0
  188.9250  176.5340  145.5380 C   0  0  0  0  0  2  0  0  0  0  0  0
  185.3300  179.1260  147.6850 O   0  0  0  0  0  0  0  0  0  0  0  0
  187.0240  176.7410  142.1200 N   0  0  0  0  0  0  0  0  0  0  0  0
  187.9270  174.9880  138.9430 C   0  0  0  0  0  3  0  0  0  0  0  0
  193.3040  175.0480  144.7300 C   0  0  2  0  0  3  0  0  0  0  0  0
  190.7270  173.1160  142.6290 C   0  0  0  0  0  2  0  0  0  0  0  0
  188.9840  174.1540  139.3460 C   0  0  0  0  0  0  0  0  0  0  0  0
  192.6180  173.8240  144.1110 C   0  0  0  0  0  2  0  0  0  0  0  0
  187.6630  175.8370  141.1990 C   0  0  0  0  0  0  0  0  0  0  0  0
  194.4730  174.7020  145.6680 C   0  0  2  0  0  3  0  0  0  0  0  0
  194.6190  175.7350  146.6000 O   0  0  0  0  0  1  0  0  0  0  0  0
  195.7750  174.5440  144.8790 C   0  0  2  0  0  3  0  0  0  0  0  0
  196.8450  174.2900  145.7410 O   0  0  0  0  0  1  0  0  0  0  0  0
  196.0960  175.7820  144.0530 C   0  0  0  0  0  2  0  0  0  0  0  0
  195.9970  174.0030  142.3890 N   0  0  0  0  0  1  0  0  0  0  0  0
  196.4680  175.3540  142.6420 C   0  0  1  0  0  3  0  0  0  0  0  0
  196.2720  175.9360  140.3250 O   0  0  0  0  0  1  0  0  0  0  0  0
  194.5130  176.3990  141.6970 O   0  0  0  0  0  1  0  0  0  0  0  0
  195.9040  176.3320  141.6120 C   0  0  0  0  0  3  0  0  0  0  0  0
  189.6210  173.3480  138.3960 O   0  0  0  0  0  0  0  0  0  0  0  0
  189.9670  173.8040  137.1220 C   0  0  0  0  0  3  0  0  0  0  0  0
  191.2030  174.0290  136.8250 N   0  0  0  0  0  0  0  0  0  0  0  0
  191.5420  174.5290  135.4970 C   0  0  0  0  0  2  0  0  0  0  0  0
  192.6870  175.5390  135.5530 C   0  0  2  0  0  0  0  0  0  0  0  0
  192.9580  175.8080  136.9080 O   0  0  0  0  0  1  0  0  0  0  0  0
  192.1790  176.8150  134.8520 C   0  0  0  0  0  3  0  0  0  0  0  0
  192.7890  177.9570  135.3840 O   0  0  0  0  0  1  0  0  0  0  0  0
  190.7920  176.9450  134.9310 O   0  0  0  0  0  1  0  0  0  0  0  0
  193.8070  174.9900  134.8510 O   0  0  0  0  0  0  0  0  0  0  0  0
  194.9640  174.7760  135.6470 C   0  0  0  0  0  0  0  0  0  0  0  0
  194.6210  173.9560  136.6990 F   0  0  0  0  0  0  0  0  0  0  0  0
  195.4300  175.9650  136.1810 F   0  0  0  0  0  0  0  0  0  0  0  0
  195.9790  174.1520  134.9380 F   0  0  0  0  0  0  0  0  0  0  0  0
  1 17  1  0  0  0  0
  1 20  2  0  0  0  0
  2 13  1  0  0  0  0
  3 19  1  0  0  0  0
  4  3  1  1  0  0  0
  4  6  1  0  0  0  0
  5  1  1  0  0  0  0
  8 19  1  0  0  0  0
  8 17  1  0  0  0  0
  9 27  2  0  0  0  0
 10 13  1  0  0  0  0
 10  7  2  0  0  0  0
 11 24  1  1  0  0  0
 11 18  1  0  0  0  0
 11 26  1  0  0  0  0
 12 21  1  0  0  0  0
 13 24  1  0  0  0  0
 14  8  2  0  0  0  0
 15 14  1  0  0  0  0
 15  5  2  0  0  0  0
 16 14  1  0  0  0  0
 18  4  1  0  0  0  0
 21 16  1  0  0  0  0
 22 25  2  0  0  0  0
 22  9  1  0  0  0  0
 23  6  1  0  0  0  0
 23 28  1  1  0  0  0
 25 10  1  0  0  0  0
 26 23  1  0  0  0  0
 27  7  1  0  0  0  0
 27 21  1  0  0  0  0
 28 29  1  1  0  0  0
 30 28  1  0  0  0  0
 30 31  1  1  0  0  0
 32 30  1  0  0  0  0
 34 33  1  6  0  0  0
 34 32  1  0  0  0  0
 35 37  1  0  0  0  0
 37 36  1  0  0  0  0
 37 34  1  0  0  0  0
 38 25  1  0  0  0  0
 39 38  1  0  0  0  0
 40 39  2  0  0  0  0
 41 42  1  0  0  0  0
 41 40  1  0  0  0  0
 42 43  1  1  0  0  0
 44 46  1  0  0  0  0
 44 45  1  0  0  0  0
 44 42  1  0  0  0  0
 47 42  1  0  0  0  0
 47 48  1  0  0  0  0
 48 50  1  0  0  0  0
 48 49  1  0  0  0  0
 51 48  1  0  0  0  0
M  END
>  <MODEL>
1

>  <REMARK>
 VINA RESULT:      -7.1      0.000      0.000
  Name = 
  12 active torsions:
  status: ('A' for Active; 'I' for Inactive)
    1  A    between atoms: C_4  and  C_18
    2  A    between atoms: C_4  and  C_42
    3  A    between atoms: C_8  and  C_43
    4  A    between atoms: C_15  and  O_35
    5  A    between atoms: C_18  and  C_19
    6  A    between atoms: C_19  and  CA_23
    7  A    between atoms: C_22  and  CA_23
    8  A    between atoms: C_27  and  C_43
    9  A    between atoms: C_27  and  N_49
   10  A    between atoms: C_28  and  O_47
   11  A    between atoms: O_35  and  C_43
   12  A    between atoms: C_46  and  O_47
                            x       y       z     vdW  Elec       q    Type
                         _______ _______ _______ _____ _____    ______ ____

>  <TORSDO>
F 12

$$$$
=
 OpenBabel11042413523D

 51 54  0  0  1  0  0  0  0  0999 V2000
  185.5010  177.5530  144.7280 C   0  0  0  0  0  0  0  0  0  0  0  0
  195.3050  174.9270  142.5110 C   0  0  0  0  0  1  0  0  0  0  0  0
  188.5180  174.3760  142.8010 C   0  0  0  0  0  2  0  0  0  0  0  0
  189.7780  173.8790  142.0920 C   0  0  1  0  0  3  0  0  0  0  0  0
  186.0040  177.3130  146.0420 N   0  0  0  0  0  0  0  0  0  0  0  0
  189.4450  173.3590  140.6970 C   0  0  0  0  0  2  0  0  0  0  0  0
  192.1630  175.9110  144.4500 C   0  0  0  0  0  3  0  0  0  0  0  0
  187.5680  176.4320  143.8440 C   0  0  0  0  0  0  0  0  0  0  0  0
  192.6360  176.3060  146.7820 C   0  0  0  0  0  3  0  0  0  0  0  0
  193.5080  175.5550  144.2010 C   0  0  0  0  0  0  0  0  0  0  0  0
  191.9690  174.3080  141.6130 C   0  0  2  0  0  3  0  0  0  0  0  0
  189.9950  177.4520  147.1050 C   0  0  0  0  0  1  0  0  0  0  0  0
  193.9140  175.1780  142.8560 N   0  0  0  0  0  0  0  0  0  0  0  0
  188.0110  176.3280  145.1160 C   0  0  0  0  0  0  0  0  0  0  0  0
  187.1580  176.7570  146.2360 C   0  0  0  0  0  3  0  0  0  0  0  0
  189.3180  175.6650  145.4580 C   0  0  0  0  0  2  0  0  0  0  0  0
  186.2770  177.1220  143.5160 C   0  0  0  0  0  2  0  0  0  0  0  0
  190.7540  174.8960  142.0020 O   0  0  0  0  0  0  0  0  0  0  0  0
  188.3380  175.8890  142.6710 C   0  0  0  0  0  2  0  0  0  0  0  0
  184.3940  178.1340  144.5850 O   0  0  0  0  0  0  0  0  0  0  0  0
  190.3300  176.5890  145.9690 N   0  0  0  0  0  0  0  0  0  0  0  0
  193.9650  175.9550  146.5700 C   0  0  0  0  0  3  0  0  0  0  0  0
  190.7220  172.7560  140.1160 C   0  0  2  0  0  3  0  0  0  0  0  0
  193.0480  175.3800  141.6960 C   0  0  0  0  0  2  0  0  0  0  0  0
  194.4210  175.5710  145.2980 C   0  0  0  0  0  0  0  0  0  0  0  0
  191.8540  173.7890  140.1730 C   0  0  0  0  0  2  0  0  0  0  0  0
  191.7150  176.2830  145.7260 C   0  0  0  0  0  0  0  0  0  0  0  0
  190.4870  172.1620  138.7170 C   0  0  2  0  0  3  0  0  0  0  0  0
  189.1630  172.4090  138.3420 O   0  0  0  0  0  1  0  0  0  0  0  0
  190.7400  170.6520  138.7170 C   0  0  2  0  0  3  0  0  0  0  0  0
  189.6140  169.9640  138.2580 O   0  0  0  0  0  1  0  0  0  0  0  0
  191.0980  170.1330  140.1030 C   0  0  0  0  0  2  0  0  0  0  0  0
  192.8280  169.1700  138.6810 N   0  0  0  0  0  1  0  0  0  0  0  0
  192.4780  169.4960  140.0530 C   0  0  1  0  0  3  0  0  0  0  0  0
  194.4940  169.6610  141.3390 O   0  0  0  0  0  1  0  0  0  0  0  0
  194.1340  171.2130  139.7090 O   0  0  0  0  0  1  0  0  0  0  0  0
  193.5240  170.4180  140.6800 C   0  0  0  0  0  3  0  0  0  0  0  0
  195.7620  175.2110  145.1300 O   0  0  0  0  0  0  0  0  0  0  0  0
  196.3260  174.0810  145.7250 C   0  0  0  0  0  3  0  0  0  0  0  0
  196.5890  173.0340  145.0170 N   0  0  0  0  0  0  0  0  0  0  0  0
  197.1540  171.8550  145.6630 C   0  0  0  0  0  2  0  0  0  0  0  0
  196.4210  170.5800  145.2450 C   0  0  2  0  0  0  0  0  0  0  0  0
  195.9810  169.9340  146.4170 O   0  0  0  0  0  1  0  0  0  0  0  0
  197.4540  169.7000  144.5130 C   0  0  0  0  0  3  0  0  0  0  0  0
  197.3650  169.8680  143.1260 O   0  0  0  0  0  1  0  0  0  0  0  0
  197.3170  168.3480  144.8310 O   0  0  0  0  0  1  0  0  0  0  0  0
  195.3520  170.9420  144.3640 O   0  0  0  0  0  0  0  0  0  0  0  0
  194.0530  170.8440  144.9300 C   0  0  0  0  0  0  0  0  0  0  0  0
  193.1300  171.1400  143.9510 F   0  0  0  0  0  0  0  0  0  0  0  0
  193.8830  171.7610  145.9530 F   0  0  0  0  0  0  0  0  0  0  0  0
  193.7810  169.5680  145.3960 F   0  0  0  0  0  0  0  0  0  0  0  0
  1  5  1  0  0  0  0
  2 13  1  0  0  0  0
  4  6  1  6  0  0  0
  4  3  1  0  0  0  0
  5 15  2  0  0  0  0
  7 27  1  0  0  0  0
  8 14  2  0  0  0  0
 10  7  2  0  0  0  0
 10 25  1  0  0  0  0
 11 26  1  6  0  0  0
 11 24  1  0  0  0  0
 11 18  1  0  0  0  0
 13 10  1  0  0  0  0
 14 16  1  0  0  0  0
 14 15  1  0  0  0  0
 16 21  1  0  0  0  0
 17  8  1  0  0  0  0
 17  1  1  0  0  0  0
 18  4  1  0  0  0  0
 19  3  1  0  0  0  0
 19  8  1  0  0  0  0
 20  1  2  0  0  0  0
 21 12  1  0  0  0  0
 22  9  1  0  0  0  0
 23 28  1  6  0  0  0
 23 26  1  0  0  0  0
 23  6  1  0  0  0  0
 24 13  1  0  0  0  0
 25 22  2  0  0  0  0
 27 21  1  0  0  0  0
 27  9  2  0  0  0  0
 28 29  1  1  0  0  0
 28 30  1  0  0  0  0
 30 31  1  1  0  0  0
 30 32  1  0  0  0  0
 34 33  1  6  0  0  0
 34 32  1  0  0  0  0
 34 37  1  0  0  0  0
 36 37  1  0  0  0  0
 37 35  1  0  0  0  0
 38 25  1  0  0  0  0
 38 39  1  0  0  0  0
 40 41  1  0  0  0  0
 40 39  2  0  0  0  0
 42 41  1  0  0  0  0
 42 43  1  1  0  0  0
 44 46  1  0  0  0  0
 44 42  1  0  0  0  0
 45 44  1  0  0  0  0
 47 48  1  0  0  0  0
 47 42  1  0  0  0  0
 48 51  1  0  0  0  0
 48 50  1  0  0  0  0
 49 48  1  0  0  0  0
M  END
>  <MODEL>
2

>  <REMARK>
 VINA RESULT:      -7.1      3.771      7.789
  Name = 
  12 active torsions:
  status: ('A' for Active; 'I' for Inactive)
    1  A    between atoms: C_4  and  C_18
    2  A    between atoms: C_4  and  C_42
    3  A    between atoms: C_8  and  C_43
    4  A    between atoms: C_15  and  O_35
    5  A    between atoms: C_18  and  C_19
    6  A    between atoms: C_19  and  CA_23
    7  A    between atoms: C_22  and  CA_23
    8  A    between atoms: C_27  and  C_43
    9  A    between atoms: C_27  and  N_49
   10  A    between atoms: C_28  and  O_47
   11  A    between atoms: O_35  and  C_43
   12  A    between atoms: C_46  and  O_47
                            x       y       z     vdW  Elec       q    Type
                         _______ _______ _______ _____ _____    ______ ____

>  <TORSDO>
F 12

$$$$
=
 OpenBabel11042413523D

 51 54  0  0  1  0  0  0  0  0999 V2000
  196.3450  170.8420  146.0090 C   0  0  0  0  0  0  0  0  0  0  0  0
  188.2680  175.0980  141.0520 C   0  0  0  0  0  1  0  0  0  0  0  0
  194.0450  171.5770  141.8770 C   0  0  0  0  0  2  0  0  0  0  0  0
  192.8530  171.8130  140.9490 C   0  0  1  0  0  3  0  0  0  0  0  0
  196.6690  172.2260  146.1360 N   0  0  0  0  0  0  0  0  0  0  0  0
  192.6100  170.5970  140.0620 C   0  0  0  0  0  2  0  0  0  0  0  0
  191.4130  174.6950  143.1850 C   0  0  0  0  0  3  0  0  0  0  0  0
  194.6290  171.5060  144.3000 C   0  0  0  0  0  0  0  0  0  0  0  0
  192.0460  176.7660  144.2460 C   0  0  0  0  0  3  0  0  0  0  0  0
  190.3300  175.3230  142.5270 C   0  0  0  0  0  0  0  0  0  0  0  0
  190.7130  172.5940  140.7860 C   0  0  2  0  0  3  0  0  0  0  0  0
  193.9400  175.3200  145.8950 C   0  0  0  0  0  1  0  0  0  0  0  0
  189.4700  174.5400  141.6530 N   0  0  0  0  0  0  0  0  0  0  0  0
  194.9330  172.7990  144.5500 C   0  0  0  0  0  0  0  0  0  0  0  0
  196.0250  173.1370  145.4770 C   0  0  0  0  0  3  0  0  0  0  0  0
  194.2760  173.9340  143.8140 C   0  0  0  0  0  2  0  0  0  0  0  0
  195.2720  170.3850  145.0620 C   0  0  0  0  0  2  0  0  0  0  0  0
  191.6820  172.1120  141.6820 O   0  0  0  0  0  0  0  0  0  0  0  0
  193.6160  171.0980  143.2640 C   0  0  0  0  0  2  0  0  0  0  0  0
  196.9680  169.9950  146.6990 O   0  0  0  0  0  0  0  0  0  0  0  0
  193.4040  174.7530  144.6560 N   0  0  0  0  0  0  0  0  0  0  0  0
  190.9940  177.4130  143.6090 C   0  0  0  0  0  3  0  0  0  0  0  0
  191.5010  170.9630  139.0760 C   0  0  2  0  0  3  0  0  0  0  0  0
  189.5270  173.0800  141.6080 C   0  0  0  0  0  2  0  0  0  0  0  0
  190.1310  176.7190  142.7440 C   0  0  0  0  0  0  0  0  0  0  0  0
  190.2730  171.4660  139.8440 C   0  0  0  0  0  2  0  0  0  0  0  0
  192.2750  175.4000  144.0390 C   0  0  0  0  0  0  0  0  0  0  0  0
  191.2020  169.8130  138.1000 C   0  0  2  0  0  3  0  0  0  0  0  0
  192.2150  168.8550  138.2140 O   0  0  0  0  0  1  0  0  0  0  0  0
  191.1460  170.3230  136.6580 C   0  0  2  0  0  3  0  0  0  0  0  0
  191.8220  169.4510  135.8010 O   0  0  0  0  0  1  0  0  0  0  0  0
  191.7530  171.7120  136.5190 C   0  0  0  0  0  2  0  0  0  0  0  0
  189.5070  171.9130  135.5940 N   0  0  0  0  0  1  0  0  0  0  0  0
  190.7500  172.6260  135.8340 C   0  0  1  0  0  3  0  0  0  0  0  0
  189.3750  173.7200  137.4640 O   0  0  0  0  0  1  0  0  0  0  0  0
  191.6090  174.1710  137.4720 O   0  0  0  0  0  1  0  0  0  0  0  0
  190.5060  173.8860  136.6640 C   0  0  0  0  0  3  0  0  0  0  0  0
  189.0930  177.4110  142.1110 O   0  0  0  0  0  0  0  0  0  0  0  0
  188.1170  178.1240  142.8100 C   0  0  0  0  0  3  0  0  0  0  0  0
  186.9970  177.5620  143.1190 N   0  0  0  0  0  0  0  0  0  0  0  0
  185.9800  178.3320  143.8270 C   0  0  0  0  0  2  0  0  0  0  0  0
  185.8650  177.9000  145.2880 C   0  0  2  0  0  0  0  0  0  0  0  0
  185.5980  176.5180  145.3090 O   0  0  0  0  0  1  0  0  0  0  0  0
  184.6720  178.6770  145.8820 C   0  0  0  0  0  3  0  0  0  0  0  0
  183.9650  177.8900  146.7980 O   0  0  0  0  0  1  0  0  0  0  0  0
  183.8010  179.1420  144.8950 O   0  0  0  0  0  1  0  0  0  0  0  0
  187.0790  178.2510  145.9600 O   0  0  0  0  0  0  0  0  0  0  0  0
  187.7270  177.1750  146.6240 C   0  0  0  0  0  0  0  0  0  0  0  0
  186.8690  176.6760  147.5790 F   0  0  0  0  0  0  0  0  0  0  0  0
  188.8700  177.6060  147.2760 F   0  0  0  0  0  0  0  0  0  0  0  0
  188.0430  176.1410  145.7580 F   0  0  0  0  0  0  0  0  0  0  0  0
  1  5  1  0  0  0  0
  1 20  2  0  0  0  0
  2 13  1  0  0  0  0
  3 19  1  0  0  0  0
  4  6  1  1  0  0  0
  4 18  1  0  0  0  0
  4  3  1  0  0  0  0
  7 27  1  0  0  0  0
  8 14  2  0  0  0  0
  8 17  1  0  0  0  0
 10 25  1  0  0  0  0
 10  7  2  0  0  0  0
 11 26  1  6  0  0  0
 11 24  1  0  0  0  0
 11 18  1  0  0  0  0
 13 10  1  0  0  0  0
 14 15  1  0  0  0  0
 15  5  2  0  0  0  0
 16 14  1  0  0  0  0
 16 21  1  0  0  0  0
 17  1  1  0  0  0  0
 19  8  1  0  0  0  0
 21 12  1  0  0  0  0
 22  9  1  0  0  0  0
 23 28  1  1  0  0  0
 23 26  1  0  0  0  0
 23  6  1  0  0  0  0
 24 13  1  0  0  0  0
 25 22  2  0  0  0  0
 27  9  2  0  0  0  0
 27 21  1  0  0  0  0
 28 29  1  6  0  0  0
 30 31  1  6  0  0  0
 30 28  1  0  0  0  0
 32 30  1  0  0  0  0
 34 33  1  1  0  0  0
 34 32  1  0  0  0  0
 34 37  1  0  0  0  0
 37 35  1  0  0  0  0
 37 36  1  0  0  0  0
 38 25  1  0  0  0  0
 38 39  1  0  0  0  0
 39 40  2  0  0  0  0
 40 41  1  0  0  0  0
 41 42  1  0  0  0  0
 42 43  1  1  0  0  0
 42 44  1  0  0  0  0
 42 47  1  0  0  0  0
 44 45  1  0  0  0  0
 46 44  1  0  0  0  0
 47 48  1  0  0  0  0
 48 50  1  0  0  0  0
 48 49  1  0  0  0  0
 51 48  1  0  0  0  0
M  END
>  <MODEL>
3

>  <REMARK>
 VINA RESULT:      -7.0      3.973      9.430
  Name = 
  12 active torsions:
  status: ('A' for Active; 'I' for Inactive)
    1  A    between atoms: C_4  and  C_18
    2  A    between atoms: C_4  and  C_42
    3  A    between atoms: C_8  and  C_43
    4  A    between atoms: C_15  and  O_35
    5  A    between atoms: C_18  and  C_19
    6  A    between atoms: C_19  and  CA_23
    7  A    between atoms: C_22  and  CA_23
    8  A    between atoms: C_27  and  C_43
    9  A    between atoms: C_27  and  N_49
   10  A    between atoms: C_28  and  O_47
   11  A    between atoms: O_35  and  C_43
   12  A    between atoms: C_46  and  O_47
                            x       y       z     vdW  Elec       q    Type
                         _______ _______ _______ _____ _____    ______ ____

>  <TORSDO>
F 12

$$$$
=
 OpenBabel11042413523D

 51 54  0  0  1  0  0  0  0  0999 V2000
  191.1120  177.1770  148.4270 C   0  0  0  0  0  0  0  0  0  0  0  0
  187.8340  174.6510  138.8980 C   0  0  0  0  0  1  0  0  0  0  0  0
  187.4380  176.6200  145.4110 C   0  0  0  0  0  2  0  0  0  0  0  0
  186.7050  176.6030  144.0680 C   0  0  1  0  0  3  0  0  0  0  0  0
  191.3970  175.7780  148.4220 N   0  0  0  0  0  0  0  0  0  0  0  0
  185.6880  177.7370  143.9930 C   0  0  0  0  0  2  0  0  0  0  0  0
  189.4900  174.4520  142.3360 C   0  0  0  0  0  3  0  0  0  0  0  0
  189.7370  176.7990  146.3590 C   0  0  0  0  0  0  0  0  0  0  0  0
  190.7520  172.4160  142.6050 C   0  0  0  0  0  3  0  0  0  0  0  0
  189.0650  174.0600  141.0460 C   0  0  0  0  0  0  0  0  0  0  0  0
  186.9160  176.3900  141.8050 C   0  0  2  0  0  3  0  0  0  0  0  0
  191.9350  173.4910  145.0220 C   0  0  0  0  0  1  0  0  0  0  0  0
  188.1990  174.9390  140.2760 N   0  0  0  0  0  0  0  0  0  0  0  0
  190.1320  175.5070  146.3770 C   0  0  0  0  0  0  0  0  0  0  0  0
  190.9580  175.0000  147.4840 C   0  0  0  0  0  3  0  0  0  0  0  0
  189.6510  174.5080  145.3600 C   0  0  0  0  0  2  0  0  0  0  0  0
  190.2470  177.7910  147.3630 C   0  0  0  0  0  2  0  0  0  0  0  0
  187.6100  176.6990  142.9870 O   0  0  0  0  0  0  0  0  0  0  0  0
  188.7840  177.3410  145.3280 C   0  0  0  0  0  2  0  0  0  0  0  0
  191.5930  177.9030  149.3340 O   0  0  0  0  0  0  0  0  0  0  0  0
  190.7010  174.0400  144.4550 N   0  0  0  0  0  0  0  0  0  0  0  0
  190.3470  171.9980  141.3430 C   0  0  0  0  0  3  0  0  0  0  0  0
  184.9070  177.5660  142.6910 C   0  0  2  0  0  3  0  0  0  0  0  0
  187.9370  176.3210  140.6770 C   0  0  0  0  0  2  0  0  0  0  0  0
  189.5020  172.7950  140.5510 C   0  0  0  0  0  0  0  0  0  0  0  0
  185.8830  177.4860  141.5110 C   0  0  0  0  0  2  0  0  0  0  0  0
  190.3250  173.6450  143.1230 C   0  0  0  0  0  0  0  0  0  0  0  0
  183.8200  178.6420  142.5320 C   0  0  2  0  0  3  0  0  0  0  0  0
  183.3330  178.9770  143.8000 O   0  0  0  0  0  1  0  0  0  0  0  0
  182.6680  178.1280  141.6660 C   0  0  2  0  0  3  0  0  0  0  0  0
  182.9460  178.3200  140.3110 O   0  0  0  0  0  1  0  0  0  0  0  0
  181.3510  178.8190  141.9970 C   0  0  0  0  0  2  0  0  0  0  0  0
  179.2260  177.6280  141.9390 N   0  0  0  0  0  1  0  0  0  0  0  0
  180.2540  178.2430  141.1170 C   0  0  1  0  0  3  0  0  0  0  0  0
  178.2680  179.3280  140.3270 O   0  0  0  0  0  1  0  0  0  0  0  0
  180.1580  180.5820  140.5470 O   0  0  0  0  0  1  0  0  0  0  0  0
  179.6590  179.3220  140.2130 C   0  0  0  0  0  3  0  0  0  0  0  0
  189.1060  172.3320  139.2920 O   0  0  0  0  0  0  0  0  0  0  0  0
  190.0130  171.9510  138.3010 C   0  0  0  0  0  3  0  0  0  0  0  0
  190.6480  172.8460  137.6220 N   0  0  0  0  0  0  0  0  0  0  0  0
  191.5730  172.4280  136.5740 C   0  0  0  0  0  2  0  0  0  0  0  0
  192.9050  173.1710  136.6710 C   0  0  2  0  0  0  0  0  0  0  0  0
  193.2550  173.5960  135.3750 O   0  0  0  0  0  1  0  0  0  0  0  0
  193.9390  172.1500  137.1890 C   0  0  0  0  0  3  0  0  0  0  0  0
  193.9250  170.9840  136.4140 O   0  0  0  0  0  1  0  0  0  0  0  0
  193.7320  171.8240  138.5300 O   0  0  0  0  0  1  0  0  0  0  0  0
  192.7540  174.2500  137.5980 O   0  0  0  0  0  0  0  0  0  0  0  0
  193.7960  175.2150  137.5670 C   0  0  0  0  0  0  0  0  0  0  0  0
  193.3300  176.3370  136.9200 F   0  0  0  0  0  0  0  0  0  0  0  0
  194.8880  174.7480  136.8550 F   0  0  0  0  0  0  0  0  0  0  0  0
  194.1950  175.5950  138.8390 F   0  0  0  0  0  0  0  0  0  0  0  0
  1 20  2  0  0  0  0
  2 13  1  0  0  0  0
  4  6  1  1  0  0  0
  4  3  1  0  0  0  0
  5  1  1  0  0  0  0
  7 27  1  0  0  0  0
  8 14  2  0  0  0  0
  8 17  1  0  0  0  0
  9 27  2  0  0  0  0
 10  7  2  0  0  0  0
 11 24  1  6  0  0  0
 11 18  1  0  0  0  0
 13 24  1  0  0  0  0
 13 10  1  0  0  0  0
 14 15  1  0  0  0  0
 15  5  2  0  0  0  0
 16 14  1  0  0  0  0
 17  1  1  0  0  0  0
 18  4  1  0  0  0  0
 19  3  1  0  0  0  0
 19  8  1  0  0  0  0
 21 12  1  0  0  0  0
 21 16  1  0  0  0  0
 22  9  1  0  0  0  0
 23 28  1  6  0  0  0
 23  6  1  0  0  0  0
 25 10  1  0  0  0  0
 25 22  2  0  0  0  0
 26 11  1  0  0  0  0
 26 23  1  0  0  0  0
 27 21  1  0  0  0  0
 28 29  1  1  0  0  0
 30 31  1  6  0  0  0
 30 32  1  0  0  0  0
 30 28  1  0  0  0  0
 34 33  1  1  0  0  0
 34 32  1  0  0  0  0
 37 35  1  0  0  0  0
 37 36  1  0  0  0  0
 37 34  1  0  0  0  0
 38 25  1  0  0  0  0
 39 38  1  0  0  0  0
 40 39  2  0  0  0  0
 41 42  1  0  0  0  0
 41 40  1  0  0  0  0
 42 43  1  6  0  0  0
 42 44  1  0  0  0  0
 42 47  1  0  0  0  0
 44 46  1  0  0  0  0
 45 44  1  0  0  0  0
 48 47  1  0  0  0  0
 48 51  1  0  0  0  0
 49 48  1  0  0  0  0
 50 48  1  0  0  0  0
M  END
>  <MODEL>
4

>  <REMARK>
 VINA RESULT:      -6.8      3.651      7.998
  Name = 
  12 active torsions:
  status: ('A' for Active; 'I' for Inactive)
    1  A    between atoms: C_4  and  C_18
    2  A    between atoms: C_4  and  C_42
    3  A    between atoms: C_8  and  C_43
    4  A    between atoms: C_15  and  O_35
    5  A    between atoms: C_18  and  C_19
    6  A    between atoms: C_19  and  CA_23
    7  A    between atoms: C_22  and  CA_23
    8  A    between atoms: C_27  and  C_43
    9  A    between atoms: C_27  and  N_49
   10  A    between atoms: C_28  and  O_47
   11  A    between atoms: O_35  and  C_43
   12  A    between atoms: C_46  and  O_47
                            x       y       z     vdW  Elec       q    Type
                         _______ _______ _______ _____ _____    ______ ____

>  <TORSDO>
F 12

$$$$
=
 OpenBabel11042413523D

 51 54  0  0  1  0  0  0  0  0999 V2000
  187.1020  177.6490  146.8250 C   0  0  0  0  0  0  0  0  0  0  0  0
  192.0390  171.2540  140.2950 C   0  0  0  0  0  1  0  0  0  0  0  0
  191.2550  176.1070  145.0140 C   0  0  0  0  0  2  0  0  0  0  0  0
  192.2450  175.1160  144.4000 C   0  0  1  0  0  3  0  0  0  0  0  0
  186.7010  178.2050  145.5730 N   0  0  0  0  0  0  0  0  0  0  0  0
  193.3510  174.7730  145.3920 C   0  0  0  0  0  2  0  0  0  0  0  0
  189.6980  173.9500  141.6550 C   0  0  0  0  0  3  0  0  0  0  0  0
  188.8350  176.3340  145.5700 C   0  0  0  0  0  0  0  0  0  0  0  0
  188.2320  174.8090  139.9440 C   0  0  0  0  0  3  0  0  0  0  0  0
  190.3430  173.1020  140.7250 C   0  0  0  0  0  0  0  0  0  0  0  0
  192.4870  173.2020  143.1790 C   0  0  2  0  0  3  0  0  0  0  0  0
  186.6760  176.1590  141.9820 C   0  0  0  0  0  1  0  0  0  0  0  0
  191.4250  172.2380  141.1720 N   0  0  0  0  0  0  0  0  0  0  0  0
  188.3320  176.8380  144.4210 C   0  0  0  0  0  0  0  0  0  0  0  0
  187.2530  177.8370  144.4600 C   0  0  0  0  0  3  0  0  0  0  0  0
  188.9220  176.5090  143.0760 C   0  0  0  0  0  2  0  0  0  0  0  0
  188.2190  176.6470  146.9010 C   0  0  0  0  0  2  0  0  0  0  0  0
  191.5950  173.9340  143.9810 O   0  0  0  0  0  0  0  0  0  0  0  0
  190.0240  175.4130  145.5990 C   0  0  0  0  0  2  0  0  0  0  0  0
  186.5100  178.0040  147.8770 O   0  0  0  0  0  0  0  0  0  0  0  0
  188.0440  175.6990  142.2320 N   0  0  0  0  0  0  0  0  0  0  0  0
  188.8500  173.9920  139.0050 C   0  0  0  0  0  3  0  0  0  0  0  0
  194.3660  173.8960  144.6600 C   0  0  2  0  0  3  0  0  0  0  0  0
  191.7190  172.0270  142.5890 C   0  0  0  0  0  2  0  0  0  0  0  0
  189.9080  173.1400  139.3670 C   0  0  0  0  0  0  0  0  0  0  0  0
  193.6520  172.6900  144.0360 C   0  0  0  0  0  2  0  0  0  0  0  0
  188.6510  174.8050  141.2810 C   0  0  0  0  0  0  0  0  0  0  0  0
  195.5540  173.5220  145.5630 C   0  0  2  0  0  3  0  0  0  0  0  0
  195.8760  174.6260  146.3580 O   0  0  0  0  0  1  0  0  0  0  0  0
  196.7720  173.1290  144.7240 C   0  0  2  0  0  3  0  0  0  0  0  0
  197.4490  172.0570  145.3110 O   0  0  0  0  0  1  0  0  0  0  0  0
  197.7470  174.2860  144.5530 C   0  0  0  0  0  2  0  0  0  0  0  0
  197.1130  173.6570  142.2860 N   0  0  0  0  0  1  0  0  0  0  0  0
  197.9050  174.5870  143.0710 C   0  0  1  0  0  3  0  0  0  0  0  0
  196.9850  176.1230  141.4780 O   0  0  0  0  0  1  0  0  0  0  0  0
  196.5730  176.5000  143.6870 O   0  0  0  0  0  1  0  0  0  0  0  0
  197.5130  176.0330  142.7660 C   0  0  0  0  0  3  0  0  0  0  0  0
  190.5130  172.3450  138.3890 O   0  0  0  0  0  0  0  0  0  0  0  0
  191.0700  172.8690  137.2210 C   0  0  0  0  0  3  0  0  0  0  0  0
  192.3510  172.9680  137.0980 N   0  0  0  0  0  0  0  0  0  0  0  0
  192.9120  173.5420  135.8800 C   0  0  0  0  0  2  0  0  0  0  0  0
  194.2220  174.2780  136.1580 C   0  0  2  0  0  0  0  0  0  0  0  0
  193.9390  175.6570  136.2100 O   0  0  0  0  0  1  0  0  0  0  0  0
  195.1550  173.9760  134.9670 C   0  0  0  0  0  3  0  0  0  0  0  0
  196.0880  172.9860  135.2980 O   0  0  0  0  0  1  0  0  0  0  0  0
  195.8230  175.1160  134.5160 O   0  0  0  0  0  1  0  0  0  0  0  0
  194.7770  173.7690  137.3750 O   0  0  0  0  0  0  0  0  0  0  0  0
  195.3020  174.7560  138.2510 C   0  0  0  0  0  0  0  0  0  0  0  0
  195.9740  174.1190  139.2700 F   0  0  0  0  0  0  0  0  0  0  0  0
  194.2880  175.5040  138.8260 F   0  0  0  0  0  0  0  0  0  0  0  0
  196.1990  175.5980  137.6130 F   0  0  0  0  0  0  0  0  0  0  0  0
  1 17  1  0  0  0  0
  1 20  2  0  0  0  0
  2 13  1  0  0  0  0
  3 19  1  0  0  0  0
  4  3  1  1  0  0  0
  4  6  1  0  0  0  0
  5  1  1  0  0  0  0
  8 19  1  0  0  0  0
  8 17  1  0  0  0  0
  9 27  2  0  0  0  0
 10 13  1  0  0  0  0
 10  7  2  0  0  0  0
 11 24  1  1  0  0  0
 11 18  1  0  0  0  0
 11 26  1  0  0  0  0
 12 21  1  0  0  0  0
 13 24  1  0  0  0  0
 14 15  1  0  0  0  0
 14  8  2  0  0  0  0
 15  5  2  0  0  0  0
 16 14  1  0  0  0  0
 18  4  1  0  0  0  0
 21 16  1  0  0  0  0
 22 25  2  0  0  0  0
 22  9  1  0  0  0  0
 23  6  1  0  0  0  0
 23 28  1  1  0  0  0
 25 10  1  0  0  0  0
 26 23  1  0  0  0  0
 27  7  1  0  0  0  0
 27 21  1  0  0  0  0
 28 29  1  6  0  0  0
 30 31  1  1  0  0  0
 30 28  1  0  0  0  0
 32 30  1  0  0  0  0
 34 33  1  6  0  0  0
 34 32  1  0  0  0  0
 35 37  1  0  0  0  0
 37 34  1  0  0  0  0
 37 36  1  0  0  0  0
 38 25  1  0  0  0  0
 39 38  1  0  0  0  0
 40 39  2  0  0  0  0
 41 42  1  0  0  0  0
 41 40  1  0  0  0  0
 42 43  1  1  0  0  0
 42 47  1  0  0  0  0
 44 45  1  0  0  0  0
 44 42  1  0  0  0  0
 46 44  1  0  0  0  0
 47 48  1  0  0  0  0
 48 50  1  0  0  0  0
 48 49  1  0  0  0  0
 51 48  1  0  0  0  0
M  END
>  <MODEL>
5

>  <REMARK>
 VINA RESULT:      -6.7      1.630      2.157
  Name = 
  12 active torsions:
  status: ('A' for Active; 'I' for Inactive)
    1  A    between atoms: C_4  and  C_18
    2  A    between atoms: C_4  and  C_42
    3  A    between atoms: C_8  and  C_43
    4  A    between atoms: C_15  and  O_35
    5  A    between atoms: C_18  and  C_19
    6  A    between atoms: C_19  and  CA_23
    7  A    between atoms: C_22  and  CA_23
    8  A    between atoms: C_27  and  C_43
    9  A    between atoms: C_27  and  N_49
   10  A    between atoms: C_28  and  O_47
   11  A    between atoms: O_35  and  C_43
   12  A    between atoms: C_46  and  O_47
                            x       y       z     vdW  Elec       q    Type
                         _______ _______ _______ _____ _____    ______ ____

>  <TORSDO>
F 12

$$$$
=
 OpenBabel11042413523D

 51 54  0  0  1  0  0  0  0  0999 V2000
  185.1240  178.1720  144.5260 C   0  0  0  0  0  0  0  0  0  0  0  0
  194.6350  174.5250  142.4850 C   0  0  0  0  0  1  0  0  0  0  0  0
  187.8230  174.7190  142.6030 C   0  0  0  0  0  2  0  0  0  0  0  0
  189.0390  174.0990  141.9130 C   0  0  1  0  0  3  0  0  0  0  0  0
  185.5630  177.8530  145.8450 N   0  0  0  0  0  0  0  0  0  0  0  0
  188.6870  173.6450  140.5010 C   0  0  0  0  0  2  0  0  0  0  0  0
  191.5710  175.8130  144.3700 C   0  0  0  0  0  3  0  0  0  0  0  0
  187.0780  176.8470  143.6670 C   0  0  0  0  0  0  0  0  0  0  0  0
  192.0240  176.1090  146.7200 C   0  0  0  0  0  3  0  0  0  0  0  0
  192.8750  175.3160  144.1450 C   0  0  0  0  0  0  0  0  0  0  0  0
  191.2760  174.2930  141.4950 C   0  0  2  0  0  3  0  0  0  0  0  0
  189.5170  177.5330  147.0050 C   0  0  0  0  0  1  0  0  0  0  0  0
  193.2720  174.9210  142.8020 N   0  0  0  0  0  0  0  0  0  0  0  0
  187.4740  176.6720  144.9470 C   0  0  0  0  0  0  0  0  0  0  0  0
  186.6440  177.1700  146.0550 C   0  0  0  0  0  3  0  0  0  0  0  0
  188.6910  175.8620  145.3050 C   0  0  0  0  0  2  0  0  0  0  0  0
  185.8780  177.6810  143.3230 C   0  0  0  0  0  2  0  0  0  0  0  0
  190.1230  175.0050  141.8690 O   0  0  0  0  0  0  0  0  0  0  0  0
  187.8130  176.2450  142.5010 C   0  0  0  0  0  2  0  0  0  0  0  0
  184.0910  178.8730  144.3690 O   0  0  0  0  0  0  0  0  0  0  0  0
  189.7840  176.6600  145.8600 N   0  0  0  0  0  0  0  0  0  0  0  0
  193.3110  175.6190  146.5330 C   0  0  0  0  0  3  0  0  0  0  0  0
  189.9050  172.9160  139.9370 C   0  0  2  0  0  3  0  0  0  0  0  0
  192.4630  175.2380  141.6270 C   0  0  0  0  0  2  0  0  0  0  0  0
  193.7560  175.2100  145.2630 C   0  0  0  0  0  0  0  0  0  0  0  0
  191.1420  173.8170  140.0430 C   0  0  0  0  0  2  0  0  0  0  0  0
  191.1340  176.2080  145.6430 C   0  0  0  0  0  0  0  0  0  0  0  0
  189.6430  172.3770  138.5200 C   0  0  2  0  0  3  0  0  0  0  0  0
  188.3820  172.8140  138.1020 O   0  0  0  0  0  1  0  0  0  0  0  0
  189.6800  170.8470  138.5040 C   0  0  2  0  0  3  0  0  0  0  0  0
  190.6030  170.3670  139.4360 O   0  0  0  0  0  1  0  0  0  0  0  0
  190.0430  170.2990  137.1300 C   0  0  0  0  0  2  0  0  0  0  0  0
  191.2900  168.2290  136.8100 N   0  0  0  0  0  1  0  0  0  0  0  0
  191.4020  169.6210  137.2100 C   0  0  1  0  0  3  0  0  0  0  0  0
  192.7210  169.6070  135.2090 O   0  0  0  0  0  1  0  0  0  0  0  0
  191.9480  171.6120  135.9670 O   0  0  0  0  0  1  0  0  0  0  0  0
  192.4270  170.3580  136.3480 C   0  0  0  0  0  3  0  0  0  0  0  0
  195.0530  174.7080  145.1200 O   0  0  0  0  0  0  0  0  0  0  0  0
  195.4670  173.4990  145.6820 C   0  0  0  0  0  3  0  0  0  0  0  0
  195.1260  172.3780  145.1390 N   0  0  0  0  0  0  0  0  0  0  0  0
  195.5470  171.1260  145.7560 C   0  0  0  0  0  2  0  0  0  0  0  0
  194.9860  169.9150  145.0110 C   0  0  2  0  0  0  0  0  0  0  0  0
  194.0410  169.2930  145.8500 O   0  0  0  0  0  1  0  0  0  0  0  0
  196.1750  168.9660  144.7580 C   0  0  0  0  0  3  0  0  0  0  0  0
  197.1110  169.0480  145.7950 O   0  0  0  0  0  1  0  0  0  0  0  0
  196.8040  169.2200  143.5380 O   0  0  0  0  0  1  0  0  0  0  0  0
  194.4290  170.3670  143.7710 O   0  0  0  0  0  0  0  0  0  0  0  0
  193.1720  169.7960  143.4380 C   0  0  0  0  0  0  0  0  0  0  0  0
  193.2370  168.4390  143.6630 F   0  0  0  0  0  0  0  0  0  0  0  0
  192.8780  169.9820  142.0980 F   0  0  0  0  0  0  0  0  0  0  0  0
  192.1440  170.3050  144.2170 F   0  0  0  0  0  0  0  0  0  0  0  0
  1  5  1  0  0  0  0
  2 13  1  0  0  0  0
  4  6  1  6  0  0  0
  4  3  1  0  0  0  0
  5 15  2  0  0  0  0
  7 27  1  0  0  0  0
  8 14  2  0  0  0  0
 10  7  2  0  0  0  0
 10 25  1  0  0  0  0
 11 26  1  6  0  0  0
 11 24  1  0  0  0  0
 11 18  1  0  0  0  0
 13 10  1  0  0  0  0
 14 16  1  0  0  0  0
 14 15  1  0  0  0  0
 16 21  1  0  0  0  0
 17  8  1  0  0  0  0
 17  1  1  0  0  0  0
 18  4  1  0  0  0  0
 19  3  1  0  0  0  0
 19  8  1  0  0  0  0
 20  1  2  0  0  0  0
 21 12  1  0  0  0  0
 22  9  1  0  0  0  0
 23 28  1  6  0  0  0
 23 26  1  0  0  0  0
 23  6  1  0  0  0  0
 24 13  1  0  0  0  0
 25 22  2  0  0  0  0
 27 21  1  0  0  0  0
 27  9  2  0  0  0  0
 28 29  1  1  0  0  0
 30 28  1  0  0  0  0
 30 31  1  1  0  0  0
 32 34  1  0  0  0  0
 32 30  1  0  0  0  0
 34 33  1  6  0  0  0
 35 37  1  0  0  0  0
 36 37  1  0  0  0  0
 37 34  1  0  0  0  0
 38 25  1  0  0  0  0
 38 39  1  0  0  0  0
 40 39  2  0  0  0  0
 40 41  1  0  0  0  0
 42 41  1  0  0  0  0
 42 43  1  1  0  0  0
 44 42  1  0  0  0  0
 44 45  1  0  0  0  0
 46 44  1  0  0  0  0
 47 42  1  0  0  0  0
 48 49  1  0  0  0  0
 48 47  1  0  0  0  0
 48 51  1  0  0  0  0
 50 48  1  0  0  0  0
M  END
>  <MODEL>
6

>  <REMARK>
 VINA RESULT:      -6.4      3.598      7.871
  Name = 
  12 active torsions:
  status: ('A' for Active; 'I' for Inactive)
    1  A    between atoms: C_4  and  C_18
    2  A    between atoms: C_4  and  C_42
    3  A    between atoms: C_8  and  C_43
    4  A    between atoms: C_15  and  O_35
    5  A    between atoms: C_18  and  C_19
    6  A    between atoms: C_19  and  CA_23
    7  A    between atoms: C_22  and  CA_23
    8  A    between atoms: C_27  and  C_43
    9  A    between atoms: C_27  and  N_49
   10  A    between atoms: C_28  and  O_47
   11  A    between atoms: O_35  and  C_43
   12  A    between atoms: C_46  and  O_47
                            x       y       z     vdW  Elec       q    Type
                         _______ _______ _______ _____ _____    ______ ____

>  <TORSDO>
F 12

$$$$
=
 OpenBabel11042413523D

 51 54  0  0  1  0  0  0  0  0999 V2000
  193.8580  168.9710  136.1830 C   0  0  0  0  0  0  0  0  0  0  0  0
  190.8010  174.1780  144.6370 C   0  0  0  0  0  1  0  0  0  0  0  0
  193.1680  168.9800  140.9190 C   0  0  0  0  0  2  0  0  0  0  0  0
  193.0800  169.5620  142.3300 C   0  0  1  0  0  3  0  0  0  0  0  0
  192.4580  169.0750  135.9260 N   0  0  0  0  0  0  0  0  0  0  0  0
  194.2210  169.0470  143.2010 C   0  0  0  0  0  2  0  0  0  0  0  0
  190.7900  172.5340  141.1880 C   0  0  0  0  0  3  0  0  0  0  0  0
  193.3730  169.6940  138.5400 C   0  0  0  0  0  0  0  0  0  0  0  0
  188.7560  173.0020  139.9790 C   0  0  0  0  0  3  0  0  0  0  0  0
  190.3250  173.2490  142.3160 C   0  0  0  0  0  0  0  0  0  0  0  0
  192.7270  171.4410  143.5780 C   0  0  2  0  0  3  0  0  0  0  0  0
  189.9600  171.9260  137.5730 C   0  0  0  0  0  1  0  0  0  0  0  0
  191.1680  173.3520  143.4970 N   0  0  0  0  0  0  0  0  0  0  0  0
  192.0790  169.8560  138.1850 C   0  0  0  0  0  0  0  0  0  0  0  0
  191.6290  169.4860  136.8340 C   0  0  0  0  0  3  0  0  0  0  0  0
  191.0270  170.2890  139.1690 C   0  0  0  0  0  2  0  0  0  0  0  0
  194.4170  169.2900  137.5400 C   0  0  0  0  0  2  0  0  0  0  0  0
  193.0980  170.9750  142.3060 O   0  0  0  0  0  0  0  0  0  0  0  0
  193.8650  169.9280  139.9420 C   0  0  0  0  0  2  0  0  0  0  0  0
  194.6310  168.6080  135.2600 O   0  0  0  0  0  0  0  0  0  0  0  0
  190.4900  171.6240  138.9050 N   0  0  0  0  0  0  0  0  0  0  0  0
  188.2680  173.7060  141.0740 C   0  0  0  0  0  3  0  0  0  0  0  0
  193.9820  169.5590  144.6200 C   0  0  2  0  0  3  0  0  0  0  0  0
  192.5740  172.9540  143.4880 C   0  0  0  0  0  2  0  0  0  0  0  0
  189.0270  173.8360  142.2510 C   0  0  0  0  0  0  0  0  0  0  0  0
  193.8160  171.0830  144.5980 C   0  0  0  0  0  2  0  0  0  0  0  0
  190.0210  172.4010  140.0220 C   0  0  0  0  0  0  0  0  0  0  0  0
  195.0610  169.0610  145.5960 C   0  0  2  0  0  3  0  0  0  0  0  0
  194.9310  169.7590  146.8010 O   0  0  0  0  0  1  0  0  0  0  0  0
  196.4610  169.2930  145.0240 C   0  0  2  0  0  3  0  0  0  0  0  0
  197.2640  168.1660  145.2150 O   0  0  0  0  0  1  0  0  0  0  0  0
  197.1470  170.4940  145.6610 C   0  0  0  0  0  2  0  0  0  0  0  0
  197.2080  170.9840  143.2740 N   0  0  0  0  0  1  0  0  0  0  0  0
  197.7600  171.3530  144.5650 C   0  0  1  0  0  3  0  0  0  0  0  0
  196.6610  173.3800  143.9120 O   0  0  0  0  0  1  0  0  0  0  0  0
  197.0200  173.0260  146.1340 O   0  0  0  0  0  1  0  0  0  0  0  0
  197.5380  172.8380  144.8520 C   0  0  0  0  0  3  0  0  0  0  0  0
  188.4930  174.5400  143.3350 O   0  0  0  0  0  0  0  0  0  0  0  0
  188.0850  175.8720  143.2510 C   0  0  0  0  0  3  0  0  0  0  0  0
  187.9140  176.5710  144.3230 N   0  0  0  0  0  0  0  0  0  0  0  0
  187.4620  177.9530  144.2140 C   0  0  0  0  0  2  0  0  0  0  0  0
  186.0180  178.1110  144.6860 C   0  0  2  0  0  0  0  0  0  0  0  0
  185.5730  176.8530  145.1380 O   0  0  0  0  0  1  0  0  0  0  0  0
  185.1990  178.5490  143.4550 C   0  0  0  0  0  3  0  0  0  0  0  0
  183.9210  178.9800  143.8280 O   0  0  0  0  0  1  0  0  0  0  0  0
  185.0920  177.5340  142.5030 O   0  0  0  0  0  1  0  0  0  0  0  0
  185.9820  179.1200  145.7010 O   0  0  0  0  0  0  0  0  0  0  0  0
  185.6750  178.6470  147.0040 C   0  0  0  0  0  0  0  0  0  0  0  0
  184.3050  178.5680  147.1260 F   0  0  0  0  0  0  0  0  0  0  0  0
  186.1290  179.5240  147.9750 F   0  0  0  0  0  0  0  0  0  0  0  0
  186.1930  177.3830  147.2370 F   0  0  0  0  0  0  0  0  0  0  0  0
  1 17  1  0  0  0  0
  4  3  1  6  0  0  0
  4  6  1  0  0  0  0
  5  1  1  0  0  0  0
  5 15  2  0  0  0  0
  6 23  1  0  0  0  0
  7 10  1  0  0  0  0
  8 19  1  0  0  0  0
  9 27  1  0  0  0  0
  9 22  2  0  0  0  0
 10 13  1  0  0  0  0
 11 24  1  6  0  0  0
 11 26  1  0  0  0  0
 12 21  1  0  0  0  0
 13  2  1  0  0  0  0
 14  8  2  0  0  0  0
 14 16  1  0  0  0  0
 15 14  1  0  0  0  0
 17  8  1  0  0  0  0
 18  4  1  0  0  0  0
 18 11  1  0  0  0  0
 19  3  1  0  0  0  0
 20  1  2  0  0  0  0
 21 16  1  0  0  0  0
 21 27  1  0  0  0  0
 22 25  1  0  0  0  0
 23 28  1  1  0  0  0
 24 13  1  0  0  0  0
 25 10  2  0  0  0  0
 25 38  1  0  0  0  0
 26 23  1  0  0  0  0
 27  7  2  0  0  0  0
 28 29  1  1  0  0  0
 30 31  1  1  0  0  0
 30 28  1  0  0  0  0
 30 32  1  0  0  0  0
 34 33  1  6  0  0  0
 34 37  1  0  0  0  0
 34 32  1  0  0  0  0
 35 37  1  0  0  0  0
 37 36  1  0  0  0  0
 39 38  1  0  0  0  0
 39 40  2  0  0  0  0
 41 40  1  0  0  0  0
 41 42  1  0  0  0  0
 42 43  1  1  0  0  0
 42 47  1  0  0  0  0
 44 45  1  0  0  0  0
 44 42  1  0  0  0  0
 46 44  1  0  0  0  0
 47 48  1  0  0  0  0
 48 49  1  0  0  0  0
 48 51  1  0  0  0  0
 48 50  1  0  0  0  0
M  END
>  <MODEL>
7

>  <REMARK>
 VINA RESULT:      -6.2      5.075      9.376
  Name = 
  12 active torsions:
  status: ('A' for Active; 'I' for Inactive)
    1  A    between atoms: C_4  and  C_18
    2  A    between atoms: C_4  and  C_42
    3  A    between atoms: C_8  and  C_43
    4  A    between atoms: C_15  and  O_35
    5  A    between atoms: C_18  and  C_19
    6  A    between atoms: C_19  and  CA_23
    7  A    between atoms: C_22  and  CA_23
    8  A    between atoms: C_27  and  C_43
    9  A    between atoms: C_27  and  N_49
   10  A    between atoms: C_28  and  O_47
   11  A    between atoms: O_35  and  C_43
   12  A    between atoms: C_46  and  O_47
                            x       y       z     vdW  Elec       q    Type
                         _______ _______ _______ _____ _____    ______ ____

>  <TORSDO>
F 12

$$$$
=
 OpenBabel11042413523D

 51 54  0  0  1  0  0  0  0  0999 V2000
  184.1360  178.2930  142.4930 C   0  0  0  0  0  0  0  0  0  0  0  0
  191.6780  171.4840  140.3330 C   0  0  0  0  0  1  0  0  0  0  0  0
  188.6680  176.9050  143.1590 C   0  0  0  0  0  2  0  0  0  0  0  0
  189.8420  175.9330  143.2740 C   0  0  1  0  0  3  0  0  0  0  0  0
  184.3780  178.6070  141.1220 N   0  0  0  0  0  0  0  0  0  0  0  0
  190.3430  175.8560  144.7130 C   0  0  0  0  0  2  0  0  0  0  0  0
  188.9390  174.1150  139.9180 C   0  0  0  0  0  3  0  0  0  0  0  0
  186.2750  176.9760  142.4620 C   0  0  0  0  0  0  0  0  0  0  0  0
  188.4620  174.5520  137.5960 C   0  0  0  0  0  3  0  0  0  0  0  0
  189.9610  173.2010  139.5720 C   0  0  0  0  0  0  0  0  0  0  0  0
  190.6650  173.8870  142.6810 C   0  0  2  0  0  3  0  0  0  0  0  0
  186.1030  176.0410  138.3800 C   0  0  0  0  0  1  0  0  0  0  0  0
  190.7070  172.5260  140.6240 N   0  0  0  0  0  0  0  0  0  0  0  0
  186.3780  177.2450  141.1410 C   0  0  0  0  0  0  0  0  0  0  0  0
  185.4010  178.1290  140.4860 C   0  0  0  0  0  3  0  0  0  0  0  0
  187.5440  176.7730  140.3160 C   0  0  0  0  0  2  0  0  0  0  0  0
  185.0920  177.4290  143.2660 C   0  0  0  0  0  2  0  0  0  0  0  0
  189.4880  174.6420  142.8220 O   0  0  0  0  0  0  0  0  0  0  0  0
  187.3160  176.1910  143.2130 C   0  0  0  0  0  2  0  0  0  0  0  0
  183.1080  178.7450  143.0590 O   0  0  0  0  0  0  0  0  0  0  0  0
  187.1890  175.7610  139.3220 N   0  0  0  0  0  0  0  0  0  0  0  0
  189.4650  173.6650  137.2230 C   0  0  0  0  0  3  0  0  0  0  0  0
  191.5950  174.9810  144.7160 C   0  0  2  0  0  3  0  0  0  0  0  0
  190.2880  172.5660  142.0240 C   0  0  0  0  0  2  0  0  0  0  0  0
  190.2300  172.9870  138.1880 C   0  0  0  0  0  0  0  0  0  0  0  0
  191.2820  173.6290  144.0620 C   0  0  0  0  0  2  0  0  0  0  0  0
  188.1890  174.7950  138.9480 C   0  0  0  0  0  0  0  0  0  0  0  0
  192.2090  174.8680  146.1220 C   0  0  2  0  0  3  0  0  0  0  0  0
  191.2390  175.2290  147.0640 O   0  0  0  0  0  1  0  0  0  0  0  0
  193.4200  175.7930  146.2620 C   0  0  2  0  0  3  0  0  0  0  0  0
  193.1770  176.7820  147.2170 O   0  0  0  0  0  1  0  0  0  0  0  0
  193.7820  176.4640  144.9440 C   0  0  0  0  0  2  0  0  0  0  0  0
  195.7080  175.0470  145.4150 N   0  0  0  0  0  1  0  0  0  0  0  0
  195.2380  176.1680  144.6200 C   0  0  1  0  0  3  0  0  0  0  0  0
  194.1890  175.9990  142.4720 O   0  0  0  0  0  1  0  0  0  0  0  0
  196.3250  176.7890  142.5610 O   0  0  0  0  0  1  0  0  0  0  0  0
  195.4160  175.8930  143.1270 C   0  0  0  0  0  3  0  0  0  0  0  0
  191.2400  172.1130  137.7710 O   0  0  0  0  0  0  0  0  0  0  0  0
  192.2680  172.4970  136.9080 C   0  0  0  0  0  3  0  0  0  0  0  0
  193.1890  173.3070  137.3110 N   0  0  0  0  0  0  0  0  0  0  0  0
  194.2400  173.7150  136.3860 C   0  0  0  0  0  2  0  0  0  0  0  0
  195.5590  173.9740  137.1120 C   0  0  2  0  0  0  0  0  0  0  0  0
  195.8920  175.3300  136.9300 O   0  0  0  0  0  1  0  0  0  0  0  0
  196.6150  173.0750  136.4360 C   0  0  0  0  0  3  0  0  0  0  0  0
  196.9670  172.0030  137.2640 O   0  0  0  0  0  1  0  0  0  0  0  0
  197.7620  173.7860  136.0770 O   0  0  0  0  0  1  0  0  0  0  0  0
  195.3960  173.6120  138.4880 O   0  0  0  0  0  0  0  0  0  0  0  0
  196.0210  174.4890  139.4140 C   0  0  0  0  0  0  0  0  0  0  0  0
  196.0790  173.8580  140.6370 F   0  0  0  0  0  0  0  0  0  0  0  0
  195.2840  175.6500  139.5790 F   0  0  0  0  0  0  0  0  0  0  0  0
  197.3170  174.8070  139.0400 F   0  0  0  0  0  0  0  0  0  0  0  0
  1 20  2  0  0  0  0
  1 17  1  0  0  0  0
  2 13  1  0  0  0  0
  3 19  1  0  0  0  0
  4  3  1  1  0  0  0
  4  6  1  0  0  0  0
  5  1  1  0  0  0  0
  6 23  1  0  0  0  0
  8 19  1  0  0  0  0
  8 17  1  0  0  0  0
  9 27  1  0  0  0  0
 10  7  1  0  0  0  0
 10 13  1  0  0  0  0
 11 24  1  1  0  0  0
 11 18  1  0  0  0  0
 11 26  1  0  0  0  0
 12 21  1  0  0  0  0
 13 24  1  0  0  0  0
 14  8  2  0  0  0  0
 15  5  2  0  0  0  0
 15 14  1  0  0  0  0
 16 14  1  0  0  0  0
 18  4  1  0  0  0  0
 21 16  1  0  0  0  0
 22  9  2  0  0  0  0
 22 25  1  0  0  0  0
 23 28  1  1  0  0  0
 25 10  2  0  0  0  0
 26 23  1  0  0  0  0
 27 21  1  0  0  0  0
 27  7  2  0  0  0  0
 28 30  1  0  0  0  0
 28 29  1  1  0  0  0
 30 31  1  1  0  0  0
 32 30  1  0  0  0  0
 34 32  1  0  0  0  0
 34 33  1  1  0  0  0
 35 37  1  0  0  0  0
 36 37  1  0  0  0  0
 37 34  1  0  0  0  0
 38 25  1  0  0  0  0
 39 40  2  0  0  0  0
 39 38  1  0  0  0  0
 41 42  1  0  0  0  0
 41 40  1  0  0  0  0
 42 43  1  6  0  0  0
 42 47  1  0  0  0  0
 44 42  1  0  0  0  0
 44 45  1  0  0  0  0
 46 44  1  0  0  0  0
 47 48  1  0  0  0  0
 48 50  1  0  0  0  0
 48 49  1  0  0  0  0
 51 48  1  0  0  0  0
M  END
>  <MODEL>
8

>  <REMARK>
 VINA RESULT:      -6.2      2.533      3.385
  Name = 
  12 active torsions:
  status: ('A' for Active; 'I' for Inactive)
    1  A    between atoms: C_4  and  C_18
    2  A    between atoms: C_4  and  C_42
    3  A    between atoms: C_8  and  C_43
    4  A    between atoms: C_15  and  O_35
    5  A    between atoms: C_18  and  C_19
    6  A    between atoms: C_19  and  CA_23
    7  A    between atoms: C_22  and  CA_23
    8  A    between atoms: C_27  and  C_43
    9  A    between atoms: C_27  and  N_49
   10  A    between atoms: C_28  and  O_47
   11  A    between atoms: O_35  and  C_43
   12  A    between atoms: C_46  and  O_47
                            x       y       z     vdW  Elec       q    Type
                         _______ _______ _______ _____ _____    ______ ____

>  <TORSDO>
F 12

$$$$
=
 OpenBabel11042413523D

 51 54  0  0  1  0  0  0  0  0999 V2000
  187.6280  177.1740  146.4550 C   0  0  0  0  0  0  0  0  0  0  0  0
  190.7770  170.1850  139.4440 C   0  0  0  0  0  1  0  0  0  0  0  0
  191.2290  174.6350  144.5860 C   0  0  0  0  0  2  0  0  0  0  0  0
  191.9130  173.4520  143.9000 C   0  0  1  0  0  3  0  0  0  0  0  0
  187.4650  177.9270  145.2540 N   0  0  0  0  0  0  0  0  0  0  0  0
  192.8240  172.7150  144.8750 C   0  0  0  0  0  2  0  0  0  0  0  0
  189.2660  173.3260  141.0080 C   0  0  0  0  0  3  0  0  0  0  0  0
  188.9570  175.5170  145.1140 C   0  0  0  0  0  0  0  0  0  0  0  0
  188.1940  174.7210  139.3590 C   0  0  0  0  0  3  0  0  0  0  0  0
  189.6780  172.4080  140.0150 C   0  0  0  0  0  0  0  0  0  0  0  0
  191.6420  171.6620  142.5070 C   0  0  2  0  0  3  0  0  0  0  0  0
  187.0080  176.2920  141.4860 C   0  0  0  0  0  1  0  0  0  0  0  0
  190.4380  171.2280  140.3990 N   0  0  0  0  0  0  0  0  0  0  0  0
  188.6770  176.2420  144.0090 C   0  0  0  0  0  0  0  0  0  0  0  0
  187.9360  177.5090  144.1210 C   0  0  0  0  0  3  0  0  0  0  0  0
  189.2060  175.8700  142.6510 C   0  0  0  0  0  2  0  0  0  0  0  0
  188.3990  175.8840  146.4570 C   0  0  0  0  0  2  0  0  0  0  0  0
  190.9660  172.5540  143.3580 O   0  0  0  0  0  0  0  0  0  0  0  0
  189.8230  174.2870  145.0780 C   0  0  0  0  0  2  0  0  0  0  0  0
  187.1170  177.5960  147.5240 O   0  0  0  0  0  0  0  0  0  0  0  0
  188.1700  175.4300  141.7170 N   0  0  0  0  0  0  0  0  0  0  0  0
  188.5900  173.8410  138.3590 C   0  0  0  0  0  3  0  0  0  0  0  0
  193.5720  171.6430  144.0830 C   0  0  2  0  0  3  0  0  0  0  0  0
  190.5920  170.8210  141.7940 C   0  0  0  0  0  2  0  0  0  0  0  0
  189.3350  172.6870  138.6590 C   0  0  0  0  0  0  0  0  0  0  0  0
  192.5660  170.7590  143.3350 C   0  0  0  0  0  2  0  0  0  0  0  0
  188.5320  174.4800  140.6970 C   0  0  0  0  0  0  0  0  0  0  0  0
  194.5560  170.8600  144.9680 C   0  0  2  0  0  3  0  0  0  0  0  0
  194.7430  171.5670  146.1610 O   0  0  0  0  0  1  0  0  0  0  0  0
  195.9030  170.6880  144.2640 C   0  0  2  0  0  3  0  0  0  0  0  0
  196.2300  169.3340  144.1500 O   0  0  0  0  0  1  0  0  0  0  0  0
  197.0290  171.4010  145.0010 C   0  0  0  0  0  2  0  0  0  0  0  0
  197.5270  171.8170  142.6520 N   0  0  0  0  0  1  0  0  0  0  0  0
  197.8150  172.2450  144.0100 C   0  0  1  0  0  3  0  0  0  0  0  0
  196.1430  173.9620  143.9830 O   0  0  0  0  0  1  0  0  0  0  0  0
  197.8550  174.1580  145.4750 O   0  0  0  0  0  1  0  0  0  0  0  0
  197.5030  173.7300  144.1930 C   0  0  0  0  0  3  0  0  0  0  0  0
  189.7260  171.8350  137.6210 O   0  0  0  0  0  0  0  0  0  0  0  0
  190.6530  172.2030  136.6440 C   0  0  0  0  0  3  0  0  0  0  0  0
  191.8790  172.4440  136.9670 N   0  0  0  0  0  0  0  0  0  0  0  0
  192.8250  172.8510  135.9340 C   0  0  0  0  0  2  0  0  0  0  0  0
  193.9220  173.7520  136.5020 C   0  0  2  0  0  0  0  0  0  0  0  0
  194.7280  172.9660  137.3480 O   0  0  0  0  0  1  0  0  0  0  0  0
  193.2100  174.8490  137.3190 C   0  0  0  0  0  3  0  0  0  0  0  0
  193.0950  176.0310  136.5800 O   0  0  0  0  0  1  0  0  0  0  0  0
  193.8580  175.1120  138.5270 O   0  0  0  0  0  1  0  0  0  0  0  0
  194.6450  174.3270  135.4080 O   0  0  0  0  0  0  0  0  0  0  0  0
  196.0450  174.4450  135.6140 C   0  0  0  0  0  0  0  0  0  0  0  0
  196.5940  175.0680  134.5150 F   0  0  0  0  0  0  0  0  0  0  0  0
  196.6410  173.1990  135.7260 F   0  0  0  0  0  0  0  0  0  0  0  0
  196.3480  175.2100  136.7290 F   0  0  0  0  0  0  0  0  0  0  0  0
  1 17  1  0  0  0  0
  1 20  2  0  0  0  0
  2 13  1  0  0  0  0
  3 19  1  0  0  0  0
  4  3  1  1  0  0  0
  4  6  1  0  0  0  0
  5  1  1  0  0  0  0
  8 17  1  0  0  0  0
  9 27  2  0  0  0  0
 10 13  1  0  0  0  0
 10  7  2  0  0  0  0
 11 24  1  1  0  0  0
 11 26  1  0  0  0  0
 11 18  1  0  0  0  0
 12 21  1  0  0  0  0
 13 24  1  0  0  0  0
 14 15  1  0  0  0  0
 14  8  2  0  0  0  0
 15  5  2  0  0  0  0
 16 14  1  0  0  0  0
 18  4  1  0  0  0  0
 19  8  1  0  0  0  0
 21 16  1  0  0  0  0
 22 25  2  0  0  0  0
 22  9  1  0  0  0  0
 23  6  1  0  0  0  0
 23 28  1  1  0  0  0
 25 10  1  0  0  0  0
 26 23  1  0  0  0  0
 27  7  1  0  0  0  0
 27 21  1  0  0  0  0
 28 29  1  1  0  0  0
 30 31  1  1  0  0  0
 30 28  1  0  0  0  0
 30 32  1  0  0  0  0
 34 33  1  6  0  0  0
 34 37  1  0  0  0  0
 34 32  1  0  0  0  0
 35 37  1  0  0  0  0
 37 36  1  0  0  0  0
 38 25  1  0  0  0  0
 39 40  2  0  0  0  0
 39 38  1  0  0  0  0
 41 42  1  0  0  0  0
 41 40  1  0  0  0  0
 42 44  1  0  0  0  0
 42 43  1  1  0  0  0
 44 46  1  0  0  0  0
 45 44  1  0  0  0  0
 47 48  1  0  0  0  0
 47 42  1  0  0  0  0
 48 50  1  0  0  0  0
 48 51  1  0  0  0  0
 49 48  1  0  0  0  0
M  END
>  <MODEL>
9

>  <REMARK>
 VINA RESULT:      -6.0      2.131      2.908
  Name = 
  12 active torsions:
  status: ('A' for Active; 'I' for Inactive)
    1  A    between atoms: C_4  and  C_18
    2  A    between atoms: C_4  and  C_42
    3  A    between atoms: C_8  and  C_43
    4  A    between atoms: C_15  and  O_35
    5  A    between atoms: C_18  and  C_19
    6  A    between atoms: C_19  and  CA_23
    7  A    between atoms: C_22  and  CA_23
    8  A    between atoms: C_27  and  C_43
    9  A    between atoms: C_27  and  N_49
   10  A    between atoms: C_28  and  O_47
   11  A    between atoms: O_35  and  C_43
   12  A    between atoms: C_46  and  O_47
                            x       y       z     vdW  Elec       q    Type
                         _______ _______ _______ _____ _____    ______ ____

>  <TORSDO>
F 12

$$$$
