=
 OpenBabel11042415593D

 52 60  0  0  1  0  0  0  0  0999 V2000
  190.0220  174.3090  142.9790 C   0  0  0  0  0  0  0  0  0  0  0  0
  193.0230  174.5430  145.1350 O   0  0  0  0  0  0  0  0  0  0  0  0
  191.2830  173.9960  143.5560 C   0  0  0  0  0  0  0  0  0  0  0  0
  189.6220  173.7170  141.6840 C   0  0  0  0  0  0  0  0  0  0  0  0
  188.6200  176.5510  145.6530 C   0  0  0  0  0  0  0  0  0  0  0  0
  190.4050  177.0700  147.2160 C   0  0  0  0  0  3  0  0  0  0  0  0
  192.6850  176.1390  147.0350 C   0  0  0  0  0  3  0  0  0  0  0  0
  192.2990  173.0920  142.8900 C   0  0  0  0  0  2  0  0  0  0  0  0
  193.5680  175.3350  146.1430 C   0  0  0  0  0  0  0  0  0  0  0  0
  194.8480  175.3800  146.3260 N   0  0  0  0  0  2  0  0  0  0  0  0
  189.5410  172.3210  140.0820 C   0  0  0  0  0  0  0  0  0  0  0  0
  189.1290  175.1570  143.6650 C   0  0  0  0  0  0  0  0  0  0  0  0
  191.8180  171.7390  142.5960 N   0  0  0  0  0  2  0  0  0  0  0  0
  189.5140  175.7690  144.8830 C   0  0  0  0  0  0  0  0  0  0  0  0
  187.8640  175.3800  143.1270 O   0  0  0  0  0  1  0  0  0  0  0  0
  190.8450  175.5880  145.3460 C   0  0  0  0  0  0  0  0  0  0  0  0
  189.0850  177.1970  146.8040 C   0  0  0  0  0  3  0  0  0  0  0  0
  191.2920  176.2780  146.4910 C   0  0  0  0  0  0  0  0  0  0  0  0
  188.9090  173.3870  139.5570 N   0  0  0  0  0  0  0  0  0  0  0  0
  190.0900  171.2530  139.4710 N   0  0  0  0  0  0  0  0  0  0  0  0
  189.9440  172.4990  141.3030 N   0  0  0  0  0  0  0  0  0  0  0  0
  190.7960  171.5460  141.6220 C   0  0  1  0  0  3  0  0  0  0  0  0
  191.7100  174.7020  144.6870 C   0  0  0  0  0  0  0  0  0  0  0  0
  190.8710  170.7440  140.4770 C   0  0  0  0  0  0  0  0  0  0  0  0
  188.9380  174.2840  140.5980 C   0  0  0  0  0  3  0  0  0  0  0  0
  196.7370  174.7740  143.3880 C   0  0  2  0  0  3  0  0  0  0  0  0
  197.1800  173.2970  143.5600 C   0  0  0  0  0  2  0  0  0  0  0  0
  195.7890  174.6990  145.4420 C   0  0  2  0  0  3  0  0  0  0  0  0
  195.5520  175.0780  144.1070 O   0  0  0  0  0  0  0  0  0  0  0  0
  195.6260  173.1790  145.5640 C   0  0  0  0  0  2  0  0  0  0  0  0
  196.1210  172.4670  144.2940 C   0  0  0  0  0  2  0  0  0  0  0  0
  197.8400  174.8610  141.1260 C   0  0  0  0  0  1  0  0  0  0  0  0
  195.4030  174.4310  141.2750 C   0  0  0  0  0  1  0  0  0  0  0  0
  196.3180  176.6620  141.8100 C   0  0  0  0  0  1  0  0  0  0  0  0
  196.5730  175.1710  141.9080 C   0  0  0  0  0  0  0  0  0  0  0  0
  186.5650  177.6470  144.6220 C   0  0  0  0  0  0  0  0  0  0  0  0
  185.1400  177.6390  144.5070 N   0  0  0  0  0  2  0  0  0  0  0  0
  187.2170  176.5920  145.3420 N   0  0  0  0  0  2  0  0  0  0  0  0
  187.2270  178.6020  144.1300 O   0  0  0  0  0  0  0  0  0  0  0  0
  184.4210  178.7600  143.9210 C   0  0  0  0  0  2  0  0  0  0  0  0
  183.4290  178.3020  142.8370 C   0  0  1  0  0  3  0  0  0  0  0  0
  181.7340  177.8620  140.5960 C   0  0  0  0  0  2  0  0  0  0  0  0
  181.1270  178.5310  141.8340 C   0  0  0  0  0  2  0  0  0  0  0  0
  182.1800  179.1880  142.7350 C   0  0  0  0  0  2  0  0  0  0  0  0
  183.1840  178.2900  140.3830 C   0  0  0  0  0  2  0  0  0  0  0  0
  184.0150  177.8810  141.5260 N   0  0  1  0  0  0  0  0  0  0  0  0
  185.3640  178.4060  141.2970 C   0  0  0  0  0  3  0  0  0  0  0  0
  186.3230  177.2500  141.0630 C   0  0  0  0  0  2  0  0  0  0  0  0
  185.8300  178.0640  139.8920 C   0  0  0  0  0  2  0  0  0  0  0  0
  191.7510  169.5830  140.2990 C   0  0  0  0  0  0  0  0  0  0  0  0
  191.5710  168.4170  141.0940 N   0  0  0  0  0  1  0  0  0  0  0  0
  192.7010  169.6360  139.4810 O   0  0  0  0  0  0  0  0  0  0  0  0
  1  3  2  0  0  0  0
  1 12  1  0  0  0  0
  2  9  1  0  0  0  0
  3 23  1  0  0  0  0
  4  1  1  0  0  0  0
  5 17  2  0  0  0  0
  8  3  1  0  0  0  0
  9 10  1  0  0  0  0
  9  7  2  0  0  0  0
 11 21  1  0  0  0  0
 12 14  2  0  0  0  0
 13  8  1  0  0  0  0
 14 16  1  0  0  0  0
 14  5  1  0  0  0  0
 15 12  1  0  0  0  0
 16 18  1  0  0  0  0
 17  6  1  0  0  0  0
 18  7  1  0  0  0  0
 18  6  2  0  0  0  0
 19 11  2  0  0  0  0
 19 25  1  0  0  0  0
 20 11  1  0  0  0  0
 20 24  2  0  0  0  0
 21 22  1  0  0  0  0
 21  4  1  0  0  0  0
 22 24  1  6  0  0  0
 22 13  1  0  0  0  0
 23  2  1  0  0  0  0
 23 16  2  0  0  0  0
 25  4  2  0  0  0  0
 26 35  1  6  0  0  0
 26 27  1  0  0  0  0
 26 29  1  0  0  0  0
 27 31  1  0  0  0  0
 28 30  1  0  0  0  0
 28 10  1  1  0  0  0
 29 28  1  0  0  0  0
 31 30  1  0  0  0  0
 32 35  1  0  0  0  0
 33 35  1  0  0  0  0
 34 35  1  0  0  0  0
 36 38  1  0  0  0  0
 37 36  1  0  0  0  0
 38  5  1  0  0  0  0
 39 36  2  0  0  0  0
 40 37  1  0  0  0  0
 41 40  1  6  0  0  0
 42 43  1  0  0  0  0
 43 44  1  0  0  0  0
 44 41  1  0  0  0  0
 45 42  1  0  0  0  0
 45 46  1  0  0  0  0
 46 47  1  6  0  0  0
 46 41  1  0  0  0  0
 48 47  1  0  0  0  0
 49 48  1  0  0  0  0
 49 47  1  0  0  0  0
 50 24  1  0  0  0  0
 50 51  1  0  0  0  0
 52 50  2  0  0  0  0
M  END
>  <MODEL>
1

>  <REMARK>
 VINA RESULT:      -9.0      0.000      0.000
  Name = 
  7 active torsions:
  status: ('A' for Active; 'I' for Inactive)
    1  A    between atoms: C_5  and  C_29
    2  A    between atoms: C_6  and  N_45
    3  A    between atoms: C_9  and  C_28
    4  A    between atoms: N_10  and  C_28
    5  A    between atoms: C_12  and  N_23
    6  A    between atoms: C_13  and  C_51
    7  A    between atoms: C_14  and  N_24
                            x       y       z     vdW  Elec       q    Type
                         _______ _______ _______ _____ _____    ______ ____

>  <TORSDO>
F 7

$$$$
=
 OpenBabel11042415593D

 52 60  0  0  1  0  0  0  0  0999 V2000
  188.3590  175.2000  141.4910 C   0  0  0  0  0  0  0  0  0  0  0  0
  190.7090  175.3180  144.3490 O   0  0  0  0  0  0  0  0  0  0  0  0
  189.4230  174.8450  142.3630 C   0  0  0  0  0  0  0  0  0  0  0  0
  188.2950  174.6430  140.1210 C   0  0  0  0  0  0  0  0  0  0  0  0
  186.3570  177.4200  143.7710 C   0  0  0  0  0  0  0  0  0  0  0  0
  187.6900  177.8650  145.7530 C   0  0  0  0  0  3  0  0  0  0  0  0
  189.9220  176.8840  146.1390 C   0  0  0  0  0  3  0  0  0  0  0  0
  190.5600  173.9300  141.9570 C   0  0  0  0  0  2  0  0  0  0  0  0
  190.9900  176.0770  145.4830 C   0  0  0  0  0  0  0  0  0  0  0  0
  192.1810  176.0870  145.9900 N   0  0  0  0  0  2  0  0  0  0  0  0
  188.6030  173.2810  138.5170 C   0  0  0  0  0  0  0  0  0  0  0  0
  187.3360  176.0540  141.9450 C   0  0  0  0  0  0  0  0  0  0  0  0
  190.1470  172.5950  141.5160 N   0  0  0  0  0  2  0  0  0  0  0  0
  187.4050  176.6320  143.2370 C   0  0  0  0  0  0  0  0  0  0  0  0
  186.2550  176.3180  141.1070 O   0  0  0  0  0  1  0  0  0  0  0  0
  188.5680  176.4110  144.0210 C   0  0  0  0  0  0  0  0  0  0  0  0
  186.5220  178.0310  145.0190 C   0  0  0  0  0  3  0  0  0  0  0  0
  188.7190  177.0660  145.2600 C   0  0  0  0  0  0  0  0  0  0  0  0
  188.1460  174.3720  137.8750 N   0  0  0  0  0  0  0  0  0  0  0  0
  189.2720  172.2140  138.0400 N   0  0  0  0  0  0  0  0  0  0  0  0
  188.6820  173.4250  139.8050 N   0  0  0  0  0  0  0  0  0  0  0  0
  189.4060  172.4460  140.3070 C   0  0  1  0  0  3  0  0  0  0  0  0
  189.5580  175.5180  143.5840 C   0  0  0  0  0  0  0  0  0  0  0  0
  189.7590  171.6650  139.1990 C   0  0  0  0  0  0  0  0  0  0  0  0
  187.9230  175.2470  138.9110 C   0  0  0  0  0  3  0  0  0  0  0  0
  193.9550  173.4450  144.4270 C   0  0  2  0  0  3  0  0  0  0  0  0
  195.4350  173.8920  144.5680 C   0  0  0  0  0  2  0  0  0  0  0  0
  193.3050  175.4030  145.3590 C   0  0  2  0  0  3  0  0  0  0  0  0
  193.1160  174.0090  145.4220 O   0  0  0  0  0  0  0  0  0  0  0  0
  194.6130  175.7590  146.0780 C   0  0  0  0  0  2  0  0  0  0  0  0
  195.6740  174.6660  145.8680 C   0  0  0  0  0  2  0  0  0  0  0  0
  194.5510  171.3070  143.2360 C   0  0  0  0  0  1  0  0  0  0  0  0
  194.3290  171.3030  145.7060 C   0  0  0  0  0  1  0  0  0  0  0  0
  192.3360  171.5520  144.2680 C   0  0  0  0  0  1  0  0  0  0  0  0
  193.8010  171.9120  144.4140 C   0  0  0  0  0  0  0  0  0  0  0  0
  184.1330  178.5610  143.2820 C   0  0  0  0  0  0  0  0  0  0  0  0
  182.8410  178.4480  142.6830 N   0  0  0  0  0  2  0  0  0  0  0  0
  185.0830  177.5000  143.1120 N   0  0  0  0  0  2  0  0  0  0  0  0
  184.4080  179.5690  143.9910 O   0  0  0  0  0  0  0  0  0  0  0  0
  181.7930  179.4220  142.9500 C   0  0  0  0  0  2  0  0  0  0  0  0
  180.5300  179.1500  142.1150 C   0  0  1  0  0  3  0  0  0  0  0  0
  178.1820  178.2170  140.8070 C   0  0  0  0  0  2  0  0  0  0  0  0
  179.5250  178.0310  140.0910 C   0  0  0  0  0  2  0  0  0  0  0  0
  180.7220  178.0630  141.0480 C   0  0  0  0  0  2  0  0  0  0  0  0
  178.3280  178.0580  142.3190 C   0  0  0  0  0  2  0  0  0  0  0  0
  179.2340  179.0820  142.8610 N   0  0  1  0  0  0  0  0  0  0  0  0
  179.4000  178.8090  144.2910 C   0  0  0  0  0  3  0  0  0  0  0  0
  178.4270  179.6660  145.0850 C   0  0  0  0  0  2  0  0  0  0  0  0
  178.1290  178.2040  144.8610 C   0  0  0  0  0  2  0  0  0  0  0  0
  190.6340  170.4880  139.2240 C   0  0  0  0  0  0  0  0  0  0  0  0
  192.0380  170.6390  139.3960 N   0  0  0  0  0  1  0  0  0  0  0  0
  190.1510  169.3450  139.0390 O   0  0  0  0  0  0  0  0  0  0  0  0
  1 12  2  0  0  0  0
  1  3  1  0  0  0  0
  2  9  1  0  0  0  0
  3 23  2  0  0  0  0
  4  1  1  0  0  0  0
  5 17  1  0  0  0  0
  8  3  1  0  0  0  0
  9 10  1  0  0  0  0
  9  7  2  0  0  0  0
 11 21  1  0  0  0  0
 12 14  1  0  0  0  0
 13  8  1  0  0  0  0
 14  5  2  0  0  0  0
 14 16  1  0  0  0  0
 15 12  1  0  0  0  0
 16 18  2  0  0  0  0
 17  6  2  0  0  0  0
 18  6  1  0  0  0  0
 18  7  1  0  0  0  0
 19 11  2  0  0  0  0
 19 25  1  0  0  0  0
 20 11  1  0  0  0  0
 20 24  2  0  0  0  0
 21  4  1  0  0  0  0
 21 22  1  0  0  0  0
 22 24  1  6  0  0  0
 22 13  1  0  0  0  0
 23 16  1  0  0  0  0
 23  2  1  0  0  0  0
 24 50  1  0  0  0  0
 25  4  2  0  0  0  0
 26 35  1  1  0  0  0
 26 27  1  0  0  0  0
 26 29  1  0  0  0  0
 27 31  1  0  0  0  0
 28 29  1  0  0  0  0
 28 10  1  1  0  0  0
 28 30  1  0  0  0  0
 31 30  1  0  0  0  0
 32 35  1  0  0  0  0
 34 35  1  0  0  0  0
 35 33  1  0  0  0  0
 36 39  2  0  0  0  0
 37 40  1  0  0  0  0
 37 36  1  0  0  0  0
 38 36  1  0  0  0  0
 38  5  1  0  0  0  0
 41 46  1  0  0  0  0
 41 40  1  1  0  0  0
 42 45  1  0  0  0  0
 43 42  1  0  0  0  0
 43 44  1  0  0  0  0
 44 41  1  0  0  0  0
 45 46  1  0  0  0  0
 46 47  1  1  0  0  0
 47 49  1  0  0  0  0
 47 48  1  0  0  0  0
 49 48  1  0  0  0  0
 50 51  1  0  0  0  0
 52 50  2  0  0  0  0
M  END
>  <MODEL>
2

>  <REMARK>
 VINA RESULT:      -8.7      2.026      3.678
  Name = 
  7 active torsions:
  status: ('A' for Active; 'I' for Inactive)
    1  A    between atoms: C_5  and  C_29
    2  A    between atoms: C_6  and  N_45
    3  A    between atoms: C_9  and  C_28
    4  A    between atoms: N_10  and  C_28
    5  A    between atoms: C_12  and  N_23
    6  A    between atoms: C_13  and  C_51
    7  A    between atoms: C_14  and  N_24
                            x       y       z     vdW  Elec       q    Type
                         _______ _______ _______ _____ _____    ______ ____

>  <TORSDO>
F 7

$$$$
=
 OpenBabel11042415593D

 52 60  0  0  1  0  0  0  0  0999 V2000
  188.1180  175.4380  140.7510 C   0  0  0  0  0  0  0  0  0  0  0  0
  190.0990  175.7810  143.8600 O   0  0  0  0  0  0  0  0  0  0  0  0
  189.0540  175.1470  141.7800 C   0  0  0  0  0  0  0  0  0  0  0  0
  188.2050  174.7550  139.4410 C   0  0  0  0  0  0  0  0  0  0  0  0
  185.9220  177.9070  142.5460 C   0  0  0  0  0  0  0  0  0  0  0  0
  187.0130  178.5120  144.6300 C   0  0  0  0  0  3  0  0  0  0  0  0
  189.1480  177.5270  145.3840 C   0  0  0  0  0  3  0  0  0  0  0  0
  190.2020  174.1750  141.6060 C   0  0  0  0  0  2  0  0  0  0  0  0
  190.2620  176.6390  144.9450 C   0  0  0  0  0  0  0  0  0  0  0  0
  191.3810  176.6730  145.5950 N   0  0  0  0  0  2  0  0  0  0  0  0
  188.6660  173.2400  138.0210 C   0  0  0  0  0  0  0  0  0  0  0  0
  187.0740  176.3530  140.9920 C   0  0  0  0  0  0  0  0  0  0  0  0
  189.8040  172.8120  141.2410 N   0  0  0  0  0  2  0  0  0  0  0  0
  187.0020  177.0500  142.2220 C   0  0  0  0  0  0  0  0  0  0  0  0
  186.1150  176.5580  140.0030 O   0  0  0  0  0  1  0  0  0  0  0  0
  188.0520  176.8810  143.1650 C   0  0  0  0  0  0  0  0  0  0  0  0
  185.9510  178.6310  143.7430 C   0  0  0  0  0  3  0  0  0  0  0  0
  188.0690  177.6490  144.3470 C   0  0  0  0  0  0  0  0  0  0  0  0
  188.3270  174.2740  137.2290 N   0  0  0  0  0  0  0  0  0  0  0  0
  189.3530  172.1180  137.7330 N   0  0  0  0  0  0  0  0  0  0  0  0
  188.5890  173.5040  139.2900 N   0  0  0  0  0  0  0  0  0  0  0  0
  189.2140  172.5630  139.9680 C   0  0  1  0  0  3  0  0  0  0  0  0
  189.0580  175.9300  142.9400 C   0  0  0  0  0  0  0  0  0  0  0  0
  189.6760  171.6730  138.9900 C   0  0  0  0  0  0  0  0  0  0  0  0
  188.0060  175.2480  138.1430 C   0  0  0  0  0  3  0  0  0  0  0  0
  193.2150  173.9440  144.2700 C   0  0  2  0  0  3  0  0  0  0  0  0
  194.6600  174.2270  144.7620 C   0  0  0  0  0  2  0  0  0  0  0  0
  192.5520  175.9090  145.1770 C   0  0  2  0  0  3  0  0  0  0  0  0
  192.2290  174.5410  145.0970 O   0  0  0  0  0  0  0  0  0  0  0  0
  193.6920  176.0920  146.1870 C   0  0  0  0  0  2  0  0  0  0  0  0
  194.6700  174.9070  146.1360 C   0  0  0  0  0  2  0  0  0  0  0  0
  193.8690  171.6210  144.9920 C   0  0  0  0  0  1  0  0  0  0  0  0
  191.4910  172.1150  144.4890 C   0  0  0  0  0  1  0  0  0  0  0  0
  193.1660  172.0260  142.6740 C   0  0  0  0  0  1  0  0  0  0  0  0
  192.9320  172.4370  144.1150 C   0  0  0  0  0  0  0  0  0  0  0  0
  183.4630  178.4390  142.1510 C   0  0  0  0  0  0  0  0  0  0  0  0
  182.3350  178.2900  141.2870 N   0  0  0  0  0  2  0  0  0  0  0  0
  184.7420  177.9500  141.7260 N   0  0  0  0  0  2  0  0  0  0  0  0
  183.3130  178.9570  143.2920 O   0  0  0  0  0  0  0  0  0  0  0  0
  180.9900  178.6310  141.7300 C   0  0  0  0  0  2  0  0  0  0  0  0
  179.9360  178.3260  140.6510 C   0  0  1  0  0  3  0  0  0  0  0  0
  177.6910  178.0480  138.9250 C   0  0  0  0  0  2  0  0  0  0  0  0
  177.9400  176.9490  139.9630 C   0  0  0  0  0  2  0  0  0  0  0  0
  178.7980  177.4220  141.1420 C   0  0  0  0  0  2  0  0  0  0  0  0
  178.0720  179.4250  139.4670 C   0  0  0  0  0  2  0  0  0  0  0  0
  179.5060  179.4740  139.7910 N   0  0  1  0  0  0  0  0  0  0  0  0
  179.7760  180.7830  140.3910 C   0  0  0  0  0  3  0  0  0  0  0  0
  179.5660  181.8690  139.3480 C   0  0  0  0  0  2  0  0  0  0  0  0
  178.5130  181.6270  140.4010 C   0  0  0  0  0  2  0  0  0  0  0  0
  190.5020  170.4860  139.2340 C   0  0  0  0  0  0  0  0  0  0  0  0
  191.2260  169.8830  138.1670 N   0  0  0  0  0  1  0  0  0  0  0  0
  190.5300  169.9650  140.3750 O   0  0  0  0  0  0  0  0  0  0  0  0
  1 12  2  0  0  0  0
  1  3  1  0  0  0  0
  2  9  1  0  0  0  0
  3 23  2  0  0  0  0
  4  1  1  0  0  0  0
  5 17  1  0  0  0  0
  8  3  1  0  0  0  0
  9  7  2  0  0  0  0
  9 10  1  0  0  0  0
 11 21  1  0  0  0  0
 12 14  1  0  0  0  0
 13  8  1  0  0  0  0
 14  5  2  0  0  0  0
 14 16  1  0  0  0  0
 15 12  1  0  0  0  0
 16 18  2  0  0  0  0
 17  6  2  0  0  0  0
 18  6  1  0  0  0  0
 18  7  1  0  0  0  0
 19 11  2  0  0  0  0
 19 25  1  0  0  0  0
 20 11  1  0  0  0  0
 20 24  2  0  0  0  0
 21  4  1  0  0  0  0
 21 22  1  0  0  0  0
 22 24  1  6  0  0  0
 22 13  1  0  0  0  0
 23 16  1  0  0  0  0
 23  2  1  0  0  0  0
 24 50  1  0  0  0  0
 25  4  2  0  0  0  0
 26 35  1  1  0  0  0
 26 27  1  0  0  0  0
 26 29  1  0  0  0  0
 27 31  1  0  0  0  0
 28 10  1  1  0  0  0
 28 30  1  0  0  0  0
 29 28  1  0  0  0  0
 31 30  1  0  0  0  0
 34 35  1  0  0  0  0
 35 33  1  0  0  0  0
 35 32  1  0  0  0  0
 36 39  2  0  0  0  0
 37 40  1  0  0  0  0
 37 36  1  0  0  0  0
 38 36  1  0  0  0  0
 38  5  1  0  0  0  0
 41 44  1  0  0  0  0
 41 40  1  1  0  0  0
 42 45  1  0  0  0  0
 42 43  1  0  0  0  0
 43 44  1  0  0  0  0
 45 46  1  0  0  0  0
 46 47  1  1  0  0  0
 46 41  1  0  0  0  0
 47 49  1  0  0  0  0
 48 47  1  0  0  0  0
 48 49  1  0  0  0  0
 50 52  2  0  0  0  0
 51 50  1  0  0  0  0
M  END
>  <MODEL>
3

>  <REMARK>
 VINA RESULT:      -8.5      2.307      4.145
  Name = 
  7 active torsions:
  status: ('A' for Active; 'I' for Inactive)
    1  A    between atoms: C_5  and  C_29
    2  A    between atoms: C_6  and  N_45
    3  A    between atoms: C_9  and  C_28
    4  A    between atoms: N_10  and  C_28
    5  A    between atoms: C_12  and  N_23
    6  A    between atoms: C_13  and  C_51
    7  A    between atoms: C_14  and  N_24
                            x       y       z     vdW  Elec       q    Type
                         _______ _______ _______ _____ _____    ______ ____

>  <TORSDO>
F 7

$$$$
=
 OpenBabel11042415593D

 52 60  0  0  1  0  0  0  0  0999 V2000
  191.8590  173.9370  142.4010 C   0  0  0  0  0  0  0  0  0  0  0  0
  192.7930  172.6240  139.0670 O   0  0  0  0  0  0  0  0  0  0  0  0
  192.6350  173.6520  141.2440 C   0  0  0  0  0  0  0  0  0  0  0  0
  192.5150  174.3540  143.6600 C   0  0  0  0  0  0  0  0  0  0  0  0
  188.4030  173.4180  141.0140 C   0  0  0  0  0  0  0  0  0  0  0  0
  188.6150  172.3860  138.8250 C   0  0  0  0  0  3  0  0  0  0  0  0
  190.7860  171.9050  137.7530 C   0  0  0  0  0  3  0  0  0  0  0  0
  194.1480  173.7120  141.2240 C   0  0  0  0  0  2  0  0  0  0  0  0
  192.2550  171.9040  138.0020 C   0  0  0  0  0  0  0  0  0  0  0  0
  193.0240  171.2300  137.2090 N   0  0  0  0  0  2  0  0  0  0  0  0
  193.9850  175.1950  144.9460 C   0  0  0  0  0  0  0  0  0  0  0  0
  190.4540  173.8620  142.3380 C   0  0  0  0  0  0  0  0  0  0  0  0
  194.7160  175.0130  141.5890 N   0  0  0  0  0  2  0  0  0  0  0  0
  189.8120  173.4210  141.1550 C   0  0  0  0  0  0  0  0  0  0  0  0
  189.7090  174.2320  143.4550 O   0  0  0  0  0  1  0  0  0  0  0  0
  190.6130  172.9650  140.0740 C   0  0  0  0  0  0  0  0  0  0  0  0
  187.8280  172.8920  139.8510 C   0  0  0  0  0  3  0  0  0  0  0  0
  190.0030  172.4100  138.9300 C   0  0  0  0  0  0  0  0  0  0  0  0
  193.1920  174.5420  145.8160 N   0  0  0  0  0  0  0  0  0  0  0  0
  195.2440  175.6480  145.0970 N   0  0  0  0  0  0  0  0  0  0  0  0
  193.5990  175.1010  143.7100 N   0  0  0  0  0  0  0  0  0  0  0  0
  194.5730  175.5010  142.9200 C   0  0  1  0  0  3  0  0  0  0  0  0
  192.0090  173.0920  140.1240 C   0  0  0  0  0  0  0  0  0  0  0  0
  195.6040  175.8710  143.7920 C   0  0  0  0  0  0  0  0  0  0  0  0
  192.2270  174.0160  144.9900 C   0  0  0  0  0  3  0  0  0  0  0  0
  196.3140  172.2310  138.0710 C   0  0  2  0  0  3  0  0  0  0  0  0
  197.1880  171.0930  137.4770 C   0  0  0  0  0  2  0  0  0  0  0  0
  194.4600  171.0990  137.4350 C   0  0  2  0  0  3  0  0  0  0  0  0
  195.0690  172.3680  137.4060 O   0  0  0  0  0  0  0  0  0  0  0  0
  195.0900  170.2200  136.3470 C   0  0  0  0  0  2  0  0  0  0  0  0
  196.5870  170.5290  136.1850 C   0  0  0  0  0  2  0  0  0  0  0  0
  197.9330  173.7410  136.8700 C   0  0  0  0  0  1  0  0  0  0  0  0
  196.0590  174.7390  138.1510 C   0  0  0  0  0  1  0  0  0  0  0  0
  197.9410  173.6500  139.3230 C   0  0  0  0  0  1  0  0  0  0  0  0
  197.0500  173.5840  138.0990 C   0  0  0  0  0  0  0  0  0  0  0  0
  187.2600  175.4610  142.0170 C   0  0  0  0  0  0  0  0  0  0  0  0
  186.5300  175.9960  143.1230 N   0  0  0  0  0  2  0  0  0  0  0  0
  187.5620  174.0600  141.9870 N   0  0  0  0  0  2  0  0  0  0  0  0
  187.6680  176.2320  141.1050 O   0  0  0  0  0  0  0  0  0  0  0  0
  186.3310  177.4300  143.2770 C   0  0  0  0  0  2  0  0  0  0  0  0
  186.2990  177.8490  144.7580 C   0  0  1  0  0  3  0  0  0  0  0  0
  186.3690  178.1590  147.5850 C   0  0  0  0  0  2  0  0  0  0  0  0
  185.0120  177.8870  146.9250 C   0  0  0  0  0  2  0  0  0  0  0  0
  185.1390  177.2280  145.5470 C   0  0  0  0  0  2  0  0  0  0  0  0
  187.4970  177.4160  146.8700 C   0  0  0  0  0  2  0  0  0  0  0  0
  187.6120  177.8720  145.4760 N   0  0  1  0  0  0  0  0  0  0  0  0
  188.6420  177.0530  144.8310 C   0  0  0  0  0  3  0  0  0  0  0  0
  189.8000  177.9420  144.4050 C   0  0  0  0  0  2  0  0  0  0  0  0
  189.9250  177.0880  145.6430 C   0  0  0  0  0  2  0  0  0  0  0  0
  196.9430  176.3200  143.3940 C   0  0  0  0  0  0  0  0  0  0  0  0
  197.9410  175.3720  143.0330 N   0  0  0  0  0  1  0  0  0  0  0  0
  197.2290  177.5410  143.4240 O   0  0  0  0  0  0  0  0  0  0  0  0
  1  4  1  0  0  0  0
  2 23  1  0  0  0  0
  3  1  2  0  0  0  0
  4 21  1  0  0  0  0
  4 25  2  0  0  0  0
  5 14  1  0  0  0  0
  5 38  1  0  0  0  0
  6 18  2  0  0  0  0
  6 17  1  0  0  0  0
  7  9  2  0  0  0  0
  7 18  1  0  0  0  0
  8  3  1  0  0  0  0
  8 13  1  0  0  0  0
  9  2  1  0  0  0  0
 10  9  1  0  0  0  0
 11 20  1  0  0  0  0
 11 19  2  0  0  0  0
 12  1  1  0  0  0  0
 12 15  1  0  0  0  0
 14 12  2  0  0  0  0
 16 23  2  0  0  0  0
 16 14  1  0  0  0  0
 17  5  2  0  0  0  0
 18 16  1  0  0  0  0
 21 11  1  0  0  0  0
 22 13  1  6  0  0  0
 22 21  1  0  0  0  0
 22 24  1  0  0  0  0
 23  3  1  0  0  0  0
 24 20  2  0  0  0  0
 25 19  1  0  0  0  0
 26 35  1  6  0  0  0
 27 26  1  0  0  0  0
 28 10  1  6  0  0  0
 29 28  1  0  0  0  0
 29 26  1  0  0  0  0
 30 28  1  0  0  0  0
 31 30  1  0  0  0  0
 31 27  1  0  0  0  0
 32 35  1  0  0  0  0
 35 33  1  0  0  0  0
 35 34  1  0  0  0  0
 36 37  1  0  0  0  0
 37 40  1  0  0  0  0
 38 36  1  0  0  0  0
 39 36  2  0  0  0  0
 41 40  1  6  0  0  0
 41 46  1  0  0  0  0
 41 44  1  0  0  0  0
 43 42  1  0  0  0  0
 44 43  1  0  0  0  0
 45 42  1  0  0  0  0
 46 47  1  6  0  0  0
 46 45  1  0  0  0  0
 47 49  1  0  0  0  0
 48 47  1  0  0  0  0
 48 49  1  0  0  0  0
 50 52  2  0  0  0  0
 50 24  1  0  0  0  0
 51 50  1  0  0  0  0
M  END
>  <MODEL>
4

>  <REMARK>
 VINA RESULT:      -8.4      2.761      6.468
  Name = 
  7 active torsions:
  status: ('A' for Active; 'I' for Inactive)
    1  A    between atoms: C_5  and  C_29
    2  A    between atoms: C_6  and  N_45
    3  A    between atoms: C_9  and  C_28
    4  A    between atoms: N_10  and  C_28
    5  A    between atoms: C_12  and  N_23
    6  A    between atoms: C_13  and  C_51
    7  A    between atoms: C_14  and  N_24
                            x       y       z     vdW  Elec       q    Type
                         _______ _______ _______ _____ _____    ______ ____

>  <TORSDO>
F 7

$$$$
=
 OpenBabel11042415593D

 52 60  0  0  1  0  0  0  0  0999 V2000
  191.8140  173.5070  142.0190 C   0  0  0  0  0  0  0  0  0  0  0  0
  195.4880  173.0580  141.9550 O   0  0  0  0  0  0  0  0  0  0  0  0
  193.0950  173.0130  141.6530 C   0  0  0  0  0  0  0  0  0  0  0  0
  190.6490  173.3030  141.1300 C   0  0  0  0  0  0  0  0  0  0  0  0
  192.6160  174.9690  145.3890 C   0  0  0  0  0  0  0  0  0  0  0  0
  195.0320  174.9910  145.6470 C   0  0  0  0  0  3  0  0  0  0  0  0
  196.5880  174.0820  143.9590 C   0  0  0  0  0  3  0  0  0  0  0  0
  193.3670  172.2980  140.3460 C   0  0  0  0  0  2  0  0  0  0  0  0
  196.6430  173.5290  142.5760 C   0  0  0  0  0  0  0  0  0  0  0  0
  197.7830  173.4850  141.9650 N   0  0  0  0  0  2  0  0  0  0  0  0
  189.4190  172.4020  139.6480 C   0  0  0  0  0  0  0  0  0  0  0  0
  191.6420  174.1590  143.2560 C   0  0  0  0  0  0  0  0  0  0  0  0
  192.5640  171.0910  140.1280 N   0  0  0  0  0  2  0  0  0  0  0  0
  192.7530  174.4030  144.0990 C   0  0  0  0  0  0  0  0  0  0  0  0
  190.3620  174.5560  143.6360 O   0  0  0  0  0  1  0  0  0  0  0  0
  194.0510  174.0660  143.6300 C   0  0  0  0  0  0  0  0  0  0  0  0
  193.7610  175.2620  146.1380 C   0  0  0  0  0  3  0  0  0  0  0  0
  195.1870  174.4030  144.3940 C   0  0  0  0  0  0  0  0  0  0  0  0
  188.8100  173.5880  139.8340 N   0  0  0  0  0  0  0  0  0  0  0  0
  189.3160  171.5280  138.6280 N   0  0  0  0  0  0  0  0  0  0  0  0
  190.4670  172.2270  140.3930 N   0  0  0  0  0  0  0  0  0  0  0  0
  191.1560  171.2000  139.9390 C   0  0  1  0  0  3  0  0  0  0  0  0
  194.2090  173.3700  142.4220 C   0  0  0  0  0  0  0  0  0  0  0  0
  190.4190  170.7400  138.8400 C   0  0  0  0  0  0  0  0  0  0  0  0
  189.5890  174.1640  140.8080 C   0  0  0  0  0  3  0  0  0  0  0  0
  197.4730  173.6320  138.4370 C   0  0  2  0  0  3  0  0  0  0  0  0
  197.7060  172.1580  138.0080 C   0  0  0  0  0  2  0  0  0  0  0  0
  197.9120  173.0480  140.5790 C   0  0  2  0  0  3  0  0  0  0  0  0
  196.9970  173.7450  139.7680 O   0  0  0  0  0  0  0  0  0  0  0  0
  197.6270  171.5440  140.4700 C   0  0  0  0  0  2  0  0  0  0  0  0
  197.1700  171.1710  139.0510 C   0  0  0  0  0  2  0  0  0  0  0  0
  196.1000  173.4770  136.3310 C   0  0  0  0  0  1  0  0  0  0  0  0
  195.2980  174.8880  138.2060 C   0  0  0  0  0  1  0  0  0  0  0  0
  197.2660  175.5680  136.8770 C   0  0  0  0  0  1  0  0  0  0  0  0
  196.5340  174.3820  137.4740 C   0  0  0  0  0  0  0  0  0  0  0  0
  190.6070  176.3730  146.0820 C   0  0  0  0  0  0  0  0  0  0  0  0
  189.3940  176.4280  146.8350 N   0  0  0  0  0  2  0  0  0  0  0  0
  191.3210  175.1320  145.9900 N   0  0  0  0  0  2  0  0  0  0  0  0
  191.0600  177.4230  145.5470 O   0  0  0  0  0  0  0  0  0  0  0  0
  188.7150  177.6910  147.0860 C   0  0  0  0  0  2  0  0  0  0  0  0
  187.1980  177.5840  146.8470 C   0  0  1  0  0  3  0  0  0  0  0  0
  184.4400  177.8280  146.1960 C   0  0  0  0  0  2  0  0  0  0  0  0
  184.8790  178.2080  147.6140 C   0  0  0  0  0  2  0  0  0  0  0  0
  186.3710  178.5490  147.7070 C   0  0  0  0  0  2  0  0  0  0  0  0
  185.5030  178.1970  145.1630 C   0  0  0  0  0  2  0  0  0  0  0  0
  186.7510  177.4630  145.4230 N   0  0  1  0  0  0  0  0  0  0  0  0
  187.7480  177.9370  144.4590 C   0  0  0  0  0  3  0  0  0  0  0  0
  187.9230  176.8990  143.3630 C   0  0  0  0  0  2  0  0  0  0  0  0
  187.1060  178.1390  143.0970 C   0  0  0  0  0  2  0  0  0  0  0  0
  190.8110  169.6480  137.9420 C   0  0  0  0  0  0  0  0  0  0  0  0
  191.8970  169.8160  137.0380 N   0  0  0  0  0  1  0  0  0  0  0  0
  190.1530  168.5800  137.9310 O   0  0  0  0  0  0  0  0  0  0  0  0
  1 12  1  0  0  0  0
  2 23  1  0  0  0  0
  2  9  1  0  0  0  0
  3  1  2  0  0  0  0
  3 23  1  0  0  0  0
  4  1  1  0  0  0  0
  5 38  1  0  0  0  0
  5 17  2  0  0  0  0
  6 17  1  0  0  0  0
  7 18  1  0  0  0  0
  8  3  1  0  0  0  0
  9  7  2  0  0  0  0
 10  9  1  0  0  0  0
 11 19  2  0  0  0  0
 11 21  1  0  0  0  0
 12 15  1  0  0  0  0
 12 14  2  0  0  0  0
 13  8  1  0  0  0  0
 14  5  1  0  0  0  0
 16 14  1  0  0  0  0
 16 18  1  0  0  0  0
 18  6  2  0  0  0  0
 19 25  1  0  0  0  0
 20 24  2  0  0  0  0
 20 11  1  0  0  0  0
 21  4  1  0  0  0  0
 22 24  1  6  0  0  0
 22 13  1  0  0  0  0
 22 21  1  0  0  0  0
 23 16  2  0  0  0  0
 25  4  2  0  0  0  0
 26 35  1  6  0  0  0
 26 29  1  0  0  0  0
 27 26  1  0  0  0  0
 27 31  1  0  0  0  0
 28 10  1  1  0  0  0
 29 28  1  0  0  0  0
 30 28  1  0  0  0  0
 31 30  1  0  0  0  0
 32 35  1  0  0  0  0
 34 35  1  0  0  0  0
 35 33  1  0  0  0  0
 36 37  1  0  0  0  0
 37 40  1  0  0  0  0
 38 36  1  0  0  0  0
 39 36  2  0  0  0  0
 41 40  1  6  0  0  0
 41 44  1  0  0  0  0
 42 43  1  0  0  0  0
 43 44  1  0  0  0  0
 45 46  1  0  0  0  0
 45 42  1  0  0  0  0
 46 47  1  6  0  0  0
 46 41  1  0  0  0  0
 48 47  1  0  0  0  0
 49 48  1  0  0  0  0
 49 47  1  0  0  0  0
 50 24  1  0  0  0  0
 51 50  1  0  0  0  0
 52 50  2  0  0  0  0
M  END
>  <MODEL>
5

>  <REMARK>
 VINA RESULT:      -8.2      2.576      4.270
  Name = 
  7 active torsions:
  status: ('A' for Active; 'I' for Inactive)
    1  A    between atoms: C_5  and  C_29
    2  A    between atoms: C_6  and  N_45
    3  A    between atoms: C_9  and  C_28
    4  A    between atoms: N_10  and  C_28
    5  A    between atoms: C_12  and  N_23
    6  A    between atoms: C_13  and  C_51
    7  A    between atoms: C_14  and  N_24
                            x       y       z     vdW  Elec       q    Type
                         _______ _______ _______ _____ _____    ______ ____

>  <TORSDO>
F 7

$$$$
=
 OpenBabel11042415593D

 52 60  0  0  1  0  0  0  0  0999 V2000
  192.2590  173.9040  141.1120 C   0  0  0  0  0  0  0  0  0  0  0  0
  195.8590  174.3260  140.3560 O   0  0  0  0  0  0  0  0  0  0  0  0
  193.5370  173.6930  140.5260 C   0  0  0  0  0  0  0  0  0  0  0  0
  191.0430  173.3530  140.4750 C   0  0  0  0  0  0  0  0  0  0  0  0
  193.2590  175.8130  144.1930 C   0  0  0  0  0  0  0  0  0  0  0  0
  195.6010  176.4240  143.9760 C   0  0  0  0  0  3  0  0  0  0  0  0
  197.0080  175.7570  142.0610 C   0  0  0  0  0  3  0  0  0  0  0  0
  193.7410  172.9470  139.2240 C   0  0  0  0  0  2  0  0  0  0  0  0
  196.9530  175.1090  140.7200 C   0  0  0  0  0  0  0  0  0  0  0  0
  197.9410  175.2800  139.9010 N   0  0  0  0  0  2  0  0  0  0  0  0
  189.8310  172.0570  139.3020 C   0  0  0  0  0  0  0  0  0  0  0  0
  192.1530  174.6070  142.3280 C   0  0  0  0  0  0  0  0  0  0  0  0
  193.2370  171.5710  139.2200 N   0  0  0  0  0  2  0  0  0  0  0  0
  193.3010  175.1800  142.9270 C   0  0  0  0  0  0  0  0  0  0  0  0
  190.9040  174.7250  142.9310 O   0  0  0  0  0  1  0  0  0  0  0  0
  194.5380  175.1160  142.2310 C   0  0  0  0  0  0  0  0  0  0  0  0
  194.4100  176.4330  144.6920 C   0  0  0  0  0  3  0  0  0  0  0  0
  195.6720  175.7780  142.7440 C   0  0  0  0  0  0  0  0  0  0  0  0
  188.9910  173.0790  139.5500 N   0  0  0  0  0  0  0  0  0  0  0  0
  189.7690  171.0950  138.3620 N   0  0  0  0  0  0  0  0  0  0  0  0
  191.0050  172.2020  139.8370 N   0  0  0  0  0  0  0  0  0  0  0  0
  191.8350  171.3280  139.3040 C   0  0  1  0  0  3  0  0  0  0  0  0
  194.6470  174.3700  141.0470 C   0  0  0  0  0  0  0  0  0  0  0  0
  191.0530  170.6110  138.3910 C   0  0  0  0  0  0  0  0  0  0  0  0
  189.7630  173.9080  140.3270 C   0  0  0  0  0  3  0  0  0  0  0  0
  197.0410  175.0760  136.4790 C   0  0  2  0  0  3  0  0  0  0  0  0
  197.4840  173.6400  136.0900 C   0  0  0  0  0  2  0  0  0  0  0  0
  197.9260  174.7610  138.5370 C   0  0  2  0  0  3  0  0  0  0  0  0
  196.7740  175.2090  137.8650 O   0  0  0  0  0  0  0  0  0  0  0  0
  197.9260  173.2270  138.5550 C   0  0  0  0  0  2  0  0  0  0  0  0
  197.3270  172.6600  137.2570 C   0  0  0  0  0  2  0  0  0  0  0  0
  194.5770  175.5960  136.5210 C   0  0  0  0  0  1  0  0  0  0  0  0
  196.0820  176.9490  135.0870 C   0  0  0  0  0  1  0  0  0  0  0  0
  195.5790  174.6000  134.5130 C   0  0  0  0  0  1  0  0  0  0  0  0
  195.8300  175.5600  135.6590 C   0  0  0  0  0  0  0  0  0  0  0  0
  191.1500  176.7810  145.2420 C   0  0  0  0  0  0  0  0  0  0  0  0
  190.1130  176.6090  146.2100 N   0  0  0  0  0  2  0  0  0  0  0  0
  192.0920  175.7210  145.0260 N   0  0  0  0  0  2  0  0  0  0  0  0
  191.2540  177.8760  144.6230 O   0  0  0  0  0  0  0  0  0  0  0  0
  189.2280  177.7050  146.5740 C   0  0  0  0  0  2  0  0  0  0  0  0
  187.7480  177.2830  146.5420 C   0  0  1  0  0  3  0  0  0  0  0  0
  184.9310  176.9580  146.3160 C   0  0  0  0  0  2  0  0  0  0  0  0
  185.5030  177.3250  147.6890 C   0  0  0  0  0  2  0  0  0  0  0  0
  186.8870  177.9800  147.6050 C   0  0  0  0  0  2  0  0  0  0  0  0
  185.7150  177.6240  145.1870 C   0  0  0  0  0  2  0  0  0  0  0  0
  187.1130  177.1670  145.1910 N   0  0  1  0  0  0  0  0  0  0  0  0
  187.8230  177.9150  144.1490 C   0  0  0  0  0  3  0  0  0  0  0  0
  188.1230  176.9910  142.9800 C   0  0  0  0  0  2  0  0  0  0  0  0
  186.9840  177.9760  142.8840 C   0  0  0  0  0  2  0  0  0  0  0  0
  191.5370  169.5650  137.4830 C   0  0  0  0  0  0  0  0  0  0  0  0
  191.6380  169.8150  136.0870 N   0  0  0  0  0  1  0  0  0  0  0  0
  191.8120  168.4250  137.9310 O   0  0  0  0  0  0  0  0  0  0  0  0
  1 12  1  0  0  0  0
  2  9  1  0  0  0  0
  2 23  1  0  0  0  0
  3 23  1  0  0  0  0
  3  1  2  0  0  0  0
  4  1  1  0  0  0  0
  5 17  2  0  0  0  0
  5 38  1  0  0  0  0
  6 17  1  0  0  0  0
  7 18  1  0  0  0  0
  8  3  1  0  0  0  0
  9  7  2  0  0  0  0
 10  9  1  0  0  0  0
 11 19  2  0  0  0  0
 11 21  1  0  0  0  0
 12 14  2  0  0  0  0
 12 15  1  0  0  0  0
 13  8  1  0  0  0  0
 13 22  1  0  0  0  0
 14  5  1  0  0  0  0
 16 18  1  0  0  0  0
 16 14  1  0  0  0  0
 18  6  2  0  0  0  0
 19 25  1  0  0  0  0
 20 24  2  0  0  0  0
 20 11  1  0  0  0  0
 21  4  1  0  0  0  0
 22 24  1  6  0  0  0
 22 21  1  0  0  0  0
 23 16  2  0  0  0  0
 25  4  2  0  0  0  0
 26 35  1  6  0  0  0
 26 29  1  0  0  0  0
 27 26  1  0  0  0  0
 27 31  1  0  0  0  0
 28 30  1  0  0  0  0
 28 10  1  1  0  0  0
 29 28  1  0  0  0  0
 31 30  1  0  0  0  0
 33 35  1  0  0  0  0
 34 35  1  0  0  0  0
 35 32  1  0  0  0  0
 36 37  1  0  0  0  0
 37 40  1  0  0  0  0
 38 36  1  0  0  0  0
 39 36  2  0  0  0  0
 41 40  1  6  0  0  0
 41 44  1  0  0  0  0
 42 43  1  0  0  0  0
 44 43  1  0  0  0  0
 45 46  1  0  0  0  0
 45 42  1  0  0  0  0
 46 47  1  6  0  0  0
 46 41  1  0  0  0  0
 48 47  1  0  0  0  0
 49 48  1  0  0  0  0
 49 47  1  0  0  0  0
 50 52  2  0  0  0  0
 50 24  1  0  0  0  0
 51 50  1  0  0  0  0
M  END
>  <MODEL>
6

>  <REMARK>
 VINA RESULT:      -8.1      3.154      5.111
  Name = 
  7 active torsions:
  status: ('A' for Active; 'I' for Inactive)
    1  A    between atoms: C_5  and  C_29
    2  A    between atoms: C_6  and  N_45
    3  A    between atoms: C_9  and  C_28
    4  A    between atoms: N_10  and  C_28
    5  A    between atoms: C_12  and  N_23
    6  A    between atoms: C_13  and  C_51
    7  A    between atoms: C_14  and  N_24
                            x       y       z     vdW  Elec       q    Type
                         _______ _______ _______ _____ _____    ______ ____

>  <TORSDO>
F 7

$$$$
=
 OpenBabel11042415593D

 52 60  0  0  1  0  0  0  0  0999 V2000
  191.8510  175.4530  143.6560 C   0  0  0  0  0  0  0  0  0  0  0  0
  188.2570  176.0140  142.9630 O   0  0  0  0  0  0  0  0  0  0  0  0
  190.4930  175.8240  143.8510 C   0  0  0  0  0  0  0  0  0  0  0  0
  192.9040  175.9550  144.5660 C   0  0  0  0  0  0  0  0  0  0  0  0
  191.4830  173.1530  140.7040 C   0  0  0  0  0  0  0  0  0  0  0  0
  189.2200  173.3790  139.8490 C   0  0  0  0  0  3  0  0  0  0  0  0
  187.5100  174.8230  140.8910 C   0  0  0  0  0  3  0  0  0  0  0  0
  190.0380  176.7650  144.9470 C   0  0  0  0  0  2  0  0  0  0  0  0
  187.3180  175.8570  141.9470 C   0  0  0  0  0  0  0  0  0  0  0  0
  186.2590  176.6010  141.9090 N   0  0  0  0  0  2  0  0  0  0  0  0
  193.7960  176.7000  146.3470 C   0  0  0  0  0  0  0  0  0  0  0  0
  192.1930  174.5680  142.6140 C   0  0  0  0  0  0  0  0  0  0  0  0
  190.3750  176.3330  146.3060 N   0  0  0  0  0  2  0  0  0  0  0  0
  191.2060  174.1140  141.7060 C   0  0  0  0  0  0  0  0  0  0  0  0
  193.5150  174.1460  142.4950 O   0  0  0  0  0  1  0  0  0  0  0  0
  189.8910  174.6420  141.8080 C   0  0  0  0  0  0  0  0  0  0  0  0
  190.4850  172.8080  139.7850 C   0  0  0  0  0  3  0  0  0  0  0  0
  188.9170  174.3000  140.8480 C   0  0  0  0  0  0  0  0  0  0  0  0
  194.7740  176.8910  145.4420 N   0  0  0  0  0  0  0  0  0  0  0  0
  193.6250  177.2510  147.5640 N   0  0  0  0  0  0  0  0  0  0  0  0
  192.7250  176.1560  145.8550 N   0  0  0  0  0  0  0  0  0  0  0  0
  191.7390  176.2840  146.7180 C   0  0  1  0  0  3  0  0  0  0  0  0
  189.5460  175.4810  142.8780 C   0  0  0  0  0  0  0  0  0  0  0  0
  192.3090  176.9520  147.8080 C   0  0  0  0  0  0  0  0  0  0  0  0
  194.2100  176.3890  144.2940 C   0  0  0  0  0  3  0  0  0  0  0  0
  186.1030  178.2580  145.0380 C   0  0  2  0  0  3  0  0  0  0  0  0
  185.2540  179.5180  144.7200 C   0  0  0  0  0  2  0  0  0  0  0  0
  186.0390  177.6970  142.8470 C   0  0  2  0  0  3  0  0  0  0  0  0
  185.8470  177.1860  144.1450 O   0  0  0  0  0  0  0  0  0  0  0  0
  184.7970  178.5000  142.4400 C   0  0  0  0  0  2  0  0  0  0  0  0
  184.1950  179.2350  143.6490 C   0  0  0  0  0  2  0  0  0  0  0  0
  187.0130  176.7840  146.8660 C   0  0  0  0  0  1  0  0  0  0  0  0
  185.9860  178.9630  147.4580 C   0  0  0  0  0  1  0  0  0  0  0  0
  184.5870  177.0960  146.6440 C   0  0  0  0  0  1  0  0  0  0  0  0
  185.9290  177.7850  146.4940 C   0  0  0  0  0  0  0  0  0  0  0  0
  193.0040  171.2510  141.4490 C   0  0  0  0  0  0  0  0  0  0  0  0
  194.3310  170.7210  141.4610 N   0  0  0  0  0  2  0  0  0  0  0  0
  192.7290  172.4370  140.6910 N   0  0  0  0  0  2  0  0  0  0  0  0
  192.1030  170.6990  142.1390 O   0  0  0  0  0  0  0  0  0  0  0  0
  194.6960  169.6130  142.3320 C   0  0  0  0  0  2  0  0  0  0  0  0
  195.9350  169.9370  143.1840 C   0  0  1  0  0  3  0  0  0  0  0  0
  197.9380  170.8720  144.9750 C   0  0  0  0  0  2  0  0  0  0  0  0
  197.9200  171.4480  143.5550 C   0  0  0  0  0  2  0  0  0  0  0  0
  196.5560  171.3050  142.8700 C   0  0  0  0  0  2  0  0  0  0  0  0
  196.5250  170.5990  145.4860 C   0  0  0  0  0  2  0  0  0  0  0  0
  195.8550  169.5990  144.6400 N   0  0  1  0  0  0  0  0  0  0  0  0
  194.4810  169.4610  145.1300 C   0  0  0  0  0  3  0  0  0  0  0  0
  194.3620  168.1850  145.9480 C   0  0  0  0  0  2  0  0  0  0  0  0
  194.4550  169.5180  146.6470 C   0  0  0  0  0  2  0  0  0  0  0  0
  191.5950  177.3990  149.0100 C   0  0  0  0  0  0  0  0  0  0  0  0
  190.9510  178.6670  149.0330 N   0  0  0  0  0  1  0  0  0  0  0  0
  191.5950  176.6840  150.0410 O   0  0  0  0  0  0  0  0  0  0  0  0
  1  3  1  0  0  0  0
  1  4  1  0  0  0  0
  3  8  1  0  0  0  0
  4 21  1  0  0  0  0
  5 14  1  0  0  0  0
  6 18  2  0  0  0  0
  7  9  2  0  0  0  0
  8 13  1  0  0  0  0
  9  2  1  0  0  0  0
 10  9  1  0  0  0  0
 11 20  1  0  0  0  0
 12  1  2  0  0  0  0
 14 16  2  0  0  0  0
 14 12  1  0  0  0  0
 15 12  1  0  0  0  0
 16 23  1  0  0  0  0
 17  6  1  0  0  0  0
 17  5  2  0  0  0  0
 18  7  1  0  0  0  0
 18 16  1  0  0  0  0
 19 11  2  0  0  0  0
 20 24  2  0  0  0  0
 21 11  1  0  0  0  0
 21 22  1  0  0  0  0
 22 13  1  6  0  0  0
 22 24  1  0  0  0  0
 23  2  1  0  0  0  0
 23  3  2  0  0  0  0
 24 50  1  0  0  0  0
 25  4  2  0  0  0  0
 25 19  1  0  0  0  0
 26 35  1  1  0  0  0
 27 26  1  0  0  0  0
 28 10  1  6  0  0  0
 28 29  1  0  0  0  0
 29 26  1  0  0  0  0
 30 28  1  0  0  0  0
 30 31  1  0  0  0  0
 31 27  1  0  0  0  0
 35 34  1  0  0  0  0
 35 32  1  0  0  0  0
 35 33  1  0  0  0  0
 36 37  1  0  0  0  0
 36 39  2  0  0  0  0
 37 40  1  0  0  0  0
 38  5  1  0  0  0  0
 38 36  1  0  0  0  0
 41 40  1  1  0  0  0
 41 46  1  0  0  0  0
 42 45  1  0  0  0  0
 43 42  1  0  0  0  0
 44 41  1  0  0  0  0
 44 43  1  0  0  0  0
 46 47  1  1  0  0  0
 46 45  1  0  0  0  0
 47 48  1  0  0  0  0
 47 49  1  0  0  0  0
 48 49  1  0  0  0  0
 50 51  1  0  0  0  0
 50 52  2  0  0  0  0
M  END
>  <MODEL>
7

>  <REMARK>
 VINA RESULT:      -8.0      2.504     10.613
  Name = 
  7 active torsions:
  status: ('A' for Active; 'I' for Inactive)
    1  A    between atoms: C_5  and  C_29
    2  A    between atoms: C_6  and  N_45
    3  A    between atoms: C_9  and  C_28
    4  A    between atoms: N_10  and  C_28
    5  A    between atoms: C_12  and  N_23
    6  A    between atoms: C_13  and  C_51
    7  A    between atoms: C_14  and  N_24
                            x       y       z     vdW  Elec       q    Type
                         _______ _______ _______ _____ _____    ______ ____

>  <TORSDO>
F 7

$$$$
=
 OpenBabel11042415593D

 52 60  0  0  1  0  0  0  0  0999 V2000
  193.0220  174.1950  140.2500 C   0  0  0  0  0  0  0  0  0  0  0  0
  189.8610  174.7180  142.1050 O   0  0  0  0  0  0  0  0  0  0  0  0
  192.1270  174.4320  141.3280 C   0  0  0  0  0  0  0  0  0  0  0  0
  194.4620  174.5100  140.3870 C   0  0  0  0  0  0  0  0  0  0  0  0
  190.6510  172.6870  137.7520 C   0  0  0  0  0  0  0  0  0  0  0  0
  188.3870  172.9960  138.5780 C   0  0  0  0  0  3  0  0  0  0  0  0
  187.8640  174.0420  140.7520 C   0  0  0  0  0  3  0  0  0  0  0  0
  192.5570  175.0450  142.6450 C   0  0  0  0  0  2  0  0  0  0  0  0
  188.4840  174.7680  141.8960 C   0  0  0  0  0  0  0  0  0  0  0  0
  187.7220  175.4400  142.6980 N   0  0  0  0  0  2  0  0  0  0  0  0
  196.3400  174.8360  141.3290 C   0  0  0  0  0  0  0  0  0  0  0  0
  192.5450  173.6170  139.0570 C   0  0  0  0  0  0  0  0  0  0  0  0
  193.6070  174.3070  143.3520 N   0  0  0  0  0  2  0  0  0  0  0  0
  191.1640  173.3510  138.8920 C   0  0  0  0  0  0  0  0  0  0  0  0
  193.4520  173.3100  138.0470 O   0  0  0  0  0  1  0  0  0  0  0  0
  190.2630  173.7660  139.9100 C   0  0  0  0  0  0  0  0  0  0  0  0
  189.2670  172.5290  137.6110 C   0  0  0  0  0  3  0  0  0  0  0  0
  188.8730  173.6220  139.7230 C   0  0  0  0  0  0  0  0  0  0  0  0
  196.5660  175.2980  140.0850 N   0  0  0  0  0  0  0  0  0  0  0  0
  197.0200  175.0560  142.4700 N   0  0  0  0  0  0  0  0  0  0  0  0
  195.1400  174.3740  141.5070 N   0  0  0  0  0  0  0  0  0  0  0  0
  194.9180  174.2300  142.7970 C   0  0  1  0  0  3  0  0  0  0  0  0
  190.7510  174.2920  141.1160 C   0  0  0  0  0  0  0  0  0  0  0  0
  196.1110  174.6350  143.4070 C   0  0  0  0  0  0  0  0  0  0  0  0
  195.3610  175.0680  139.4660 C   0  0  0  0  0  3  0  0  0  0  0  0
  189.6590  176.2290  145.5610 C   0  0  2  0  0  3  0  0  0  0  0  0
  188.9860  177.5260  146.0860 C   0  0  0  0  0  2  0  0  0  0  0  0
  188.2550  176.2550  143.7860 C   0  0  2  0  0  3  0  0  0  0  0  0
  188.7740  175.4250  144.7970 O   0  0  0  0  0  0  0  0  0  0  0  0
  187.1470  177.1320  144.3820 C   0  0  0  0  0  2  0  0  0  0  0  0
  187.4750  177.5260  145.8310 C   0  0  0  0  0  2  0  0  0  0  0  0
  190.9590  176.2960  147.7160 C   0  0  0  0  0  1  0  0  0  0  0  0
  189.2360  174.5430  147.3890 C   0  0  0  0  0  1  0  0  0  0  0  0
  191.3490  174.4780  146.1120 C   0  0  0  0  0  1  0  0  0  0  0  0
  190.2890  175.3930  146.6910 C   0  0  0  0  0  0  0  0  0  0  0  0
  192.0060  170.7140  136.8820 C   0  0  0  0  0  0  0  0  0  0  0  0
  192.9940  170.2630  135.9540 N   0  0  0  0  0  2  0  0  0  0  0  0
  191.5310  172.0650  136.8020 N   0  0  0  0  0  2  0  0  0  0  0  0
  191.5970  169.9360  137.7880 O   0  0  0  0  0  0  0  0  0  0  0  0
  193.6180  168.9550  136.0870 C   0  0  0  0  0  2  0  0  0  0  0  0
  195.1450  169.0270  135.9070 C   0  0  1  0  0  3  0  0  0  0  0  0
  197.9340  169.5830  135.8210 C   0  0  0  0  0  2  0  0  0  0  0  0
  197.0860  169.9720  134.6050 C   0  0  0  0  0  2  0  0  0  0  0  0
  195.5980  170.1270  134.9380 C   0  0  0  0  0  2  0  0  0  0  0  0
  197.1590  169.7660  137.1240 C   0  0  0  0  0  2  0  0  0  0  0  0
  195.9740  168.8950  137.1460 N   0  0  1  0  0  0  0  0  0  0  0  0
  195.2330  169.1940  138.3750 C   0  0  0  0  0  3  0  0  0  0  0  0
  195.5940  168.1740  139.4430 C   0  0  0  0  0  2  0  0  0  0  0  0
  196.1940  169.5570  139.4930 C   0  0  0  0  0  2  0  0  0  0  0  0
  196.3460  174.7300  144.8520 C   0  0  0  0  0  0  0  0  0  0  0  0
  197.2670  173.8520  145.4890 N   0  0  0  0  0  1  0  0  0  0  0  0
  195.6940  175.5510  145.5410 O   0  0  0  0  0  0  0  0  0  0  0  0
  1  4  1  0  0  0  0
  1  3  1  0  0  0  0
  3  8  1  0  0  0  0
  4 21  1  0  0  0  0
  5 14  1  0  0  0  0
  6 18  2  0  0  0  0
  7  9  2  0  0  0  0
  8 13  1  0  0  0  0
  9  2  1  0  0  0  0
  9 10  1  0  0  0  0
 11 21  1  0  0  0  0
 11 20  1  0  0  0  0
 12  1  2  0  0  0  0
 14 12  1  0  0  0  0
 14 16  2  0  0  0  0
 15 12  1  0  0  0  0
 16 23  1  0  0  0  0
 17  5  2  0  0  0  0
 17  6  1  0  0  0  0
 18 16  1  0  0  0  0
 18  7  1  0  0  0  0
 19 11  2  0  0  0  0
 20 24  2  0  0  0  0
 21 22  1  0  0  0  0
 22 13  1  1  0  0  0
 22 24  1  0  0  0  0
 23  3  2  0  0  0  0
 23  2  1  0  0  0  0
 24 50  1  0  0  0  0
 25 19  1  0  0  0  0
 25  4  2  0  0  0  0
 26 27  1  0  0  0  0
 26 35  1  1  0  0  0
 28 10  1  6  0  0  0
 28 30  1  0  0  0  0
 28 29  1  0  0  0  0
 29 26  1  0  0  0  0
 30 31  1  0  0  0  0
 31 27  1  0  0  0  0
 34 35  1  0  0  0  0
 35 33  1  0  0  0  0
 35 32  1  0  0  0  0
 36 39  2  0  0  0  0
 37 40  1  0  0  0  0
 37 36  1  0  0  0  0
 38 36  1  0  0  0  0
 38  5  1  0  0  0  0
 41 40  1  1  0  0  0
 41 46  1  0  0  0  0
 42 45  1  0  0  0  0
 43 44  1  0  0  0  0
 43 42  1  0  0  0  0
 44 41  1  0  0  0  0
 45 46  1  0  0  0  0
 46 47  1  1  0  0  0
 47 48  1  0  0  0  0
 47 49  1  0  0  0  0
 48 49  1  0  0  0  0
 50 51  1  0  0  0  0
 50 52  2  0  0  0  0
M  END
>  <MODEL>
8

>  <REMARK>
 VINA RESULT:      -7.5      3.432     10.086
  Name = 
  7 active torsions:
  status: ('A' for Active; 'I' for Inactive)
    1  A    between atoms: C_5  and  C_29
    2  A    between atoms: C_6  and  N_45
    3  A    between atoms: C_9  and  C_28
    4  A    between atoms: N_10  and  C_28
    5  A    between atoms: C_12  and  N_23
    6  A    between atoms: C_13  and  C_51
    7  A    between atoms: C_14  and  N_24
                            x       y       z     vdW  Elec       q    Type
                         _______ _______ _______ _____ _____    ______ ____

>  <TORSDO>
F 7

$$$$
=
 OpenBabel11042415593D

 52 60  0  0  1  0  0  0  0  0999 V2000
  187.5680  176.2210  140.5880 C   0  0  0  0  0  0  0  0  0  0  0  0
  189.3990  175.9850  143.7980 O   0  0  0  0  0  0  0  0  0  0  0  0
  188.4140  175.7150  141.6120 C   0  0  0  0  0  0  0  0  0  0  0  0
  187.6630  175.6940  139.2080 C   0  0  0  0  0  0  0  0  0  0  0  0
  185.5230  178.6670  142.5810 C   0  0  0  0  0  0  0  0  0  0  0  0
  186.5510  178.9030  144.7700 C   0  0  0  0  0  3  0  0  0  0  0  0
  188.5360  177.6220  145.4850 C   0  0  0  0  0  3  0  0  0  0  0  0
  189.4720  174.6580  141.3680 C   0  0  0  0  0  2  0  0  0  0  0  0
  189.5830  176.6850  144.9880 C   0  0  0  0  0  0  0  0  0  0  0  0
  190.6620  176.5270  145.6840 N   0  0  0  0  0  2  0  0  0  0  0  0
  188.0530  174.3220  137.6320 C   0  0  0  0  0  0  0  0  0  0  0  0
  186.6060  177.2020  140.8960 C   0  0  0  0  0  0  0  0  0  0  0  0
  188.9650  173.3970  140.8190 N   0  0  0  0  0  2  0  0  0  0  0  0
  186.5330  177.7500  142.2000 C   0  0  0  0  0  0  0  0  0  0  0  0
  185.7270  177.6210  139.9000 O   0  0  0  0  0  1  0  0  0  0  0  0
  187.5080  177.3630  143.1580 C   0  0  0  0  0  0  0  0  0  0  0  0
  185.5560  179.2360  143.8590 C   0  0  0  0  0  3  0  0  0  0  0  0
  187.5330  177.9780  144.4270 C   0  0  0  0  0  0  0  0  0  0  0  0
  187.8600  175.4730  136.9600 N   0  0  0  0  0  0  0  0  0  0  0  0
  188.6450  173.1790  137.2350 N   0  0  0  0  0  0  0  0  0  0  0  0
  187.9330  174.4390  138.9190 N   0  0  0  0  0  0  0  0  0  0  0  0
  188.4260  173.3640  139.5000 C   0  0  1  0  0  3  0  0  0  0  0  0
  188.4290  176.3480  142.8600 C   0  0  0  0  0  0  0  0  0  0  0  0
  188.8530  172.5560  138.4400 C   0  0  0  0  0  0  0  0  0  0  0  0
  187.5840  176.3580  137.9750 C   0  0  0  0  0  3  0  0  0  0  0  0
  192.2970  173.8150  144.0900 C   0  0  2  0  0  3  0  0  0  0  0  0
  193.7280  173.8730  144.6900 C   0  0  0  0  0  2  0  0  0  0  0  0
  191.7760  175.7020  145.2250 C   0  0  2  0  0  3  0  0  0  0  0  0
  191.3230  174.4000  144.9390 O   0  0  0  0  0  0  0  0  0  0  0  0
  192.8600  175.6260  146.3080 C   0  0  0  0  0  2  0  0  0  0  0  0
  193.7160  174.3600  146.1430 C   0  0  0  0  0  2  0  0  0  0  0  0
  191.9910  172.1670  142.2100 C   0  0  0  0  0  1  0  0  0  0  0  0
  192.7410  171.3550  144.4300 C   0  0  0  0  0  1  0  0  0  0  0  0
  190.4290  172.1620  144.1040 C   0  0  0  0  0  1  0  0  0  0  0  0
  191.8760  172.3820  143.7120 C   0  0  0  0  0  0  0  0  0  0  0  0
  183.0800  178.4020  141.9130 C   0  0  0  0  0  0  0  0  0  0  0  0
  182.0890  178.6180  140.9070 N   0  0  0  0  0  2  0  0  0  0  0  0
  184.4010  178.9280  141.7230 N   0  0  0  0  0  2  0  0  0  0  0  0
  182.7970  177.7150  142.9330 O   0  0  0  0  0  0  0  0  0  0  0  0
  180.7830  177.9790  140.9800 C   0  0  0  0  0  2  0  0  0  0  0  0
  179.6410  178.9730  140.7020 C   0  0  1  0  0  3  0  0  0  0  0  0
  177.6930  180.8010  139.7260 C   0  0  0  0  0  2  0  0  0  0  0  0
  178.9520  181.3770  140.3830 C   0  0  0  0  0  2  0  0  0  0  0  0
  180.1280  180.3930  140.3850 C   0  0  0  0  0  2  0  0  0  0  0  0
  178.0030  179.5260  138.9430 C   0  0  0  0  0  2  0  0  0  0  0  0
  178.5190  178.4820  139.8420 N   0  0  1  0  0  0  0  0  0  0  0  0
  178.8830  177.3300  139.0130 C   0  0  0  0  0  3  0  0  0  0  0  0
  177.8790  176.2100  139.2350 C   0  0  0  0  0  2  0  0  0  0  0  0
  177.7960  177.0560  137.9880 C   0  0  0  0  0  2  0  0  0  0  0  0
  189.5470  171.2700  138.5680 C   0  0  0  0  0  0  0  0  0  0  0  0
  190.5940  171.1090  139.5180 N   0  0  0  0  0  1  0  0  0  0  0  0
  189.2550  170.3210  137.8010 O   0  0  0  0  0  0  0  0  0  0  0  0
  1 12  2  0  0  0  0
  1  3  1  0  0  0  0
  2  9  1  0  0  0  0
  3 23  2  0  0  0  0
  4  1  1  0  0  0  0
  5 17  1  0  0  0  0
  8  3  1  0  0  0  0
  9  7  2  0  0  0  0
  9 10  1  0  0  0  0
 11 21  1  0  0  0  0
 12 14  1  0  0  0  0
 13  8  1  0  0  0  0
 14  5  2  0  0  0  0
 14 16  1  0  0  0  0
 15 12  1  0  0  0  0
 16 18  2  0  0  0  0
 17  6  2  0  0  0  0
 18  6  1  0  0  0  0
 18  7  1  0  0  0  0
 19 11  2  0  0  0  0
 19 25  1  0  0  0  0
 20 11  1  0  0  0  0
 20 24  2  0  0  0  0
 21  4  1  0  0  0  0
 21 22  1  0  0  0  0
 22 24  1  6  0  0  0
 22 13  1  0  0  0  0
 23 16  1  0  0  0  0
 23  2  1  0  0  0  0
 24 50  1  0  0  0  0
 25  4  2  0  0  0  0
 26 35  1  1  0  0  0
 26 27  1  0  0  0  0
 26 29  1  0  0  0  0
 27 31  1  0  0  0  0
 28 10  1  1  0  0  0
 28 30  1  0  0  0  0
 29 28  1  0  0  0  0
 31 30  1  0  0  0  0
 32 35  1  0  0  0  0
 35 34  1  0  0  0  0
 35 33  1  0  0  0  0
 36 39  2  0  0  0  0
 37 40  1  0  0  0  0
 37 36  1  0  0  0  0
 38 36  1  0  0  0  0
 38  5  1  0  0  0  0
 41 40  1  6  0  0  0
 42 43  1  0  0  0  0
 43 44  1  0  0  0  0
 44 41  1  0  0  0  0
 45 42  1  0  0  0  0
 45 46  1  0  0  0  0
 46 47  1  6  0  0  0
 46 41  1  0  0  0  0
 47 48  1  0  0  0  0
 49 47  1  0  0  0  0
 49 48  1  0  0  0  0
 50 51  1  0  0  0  0
 52 50  2  0  0  0  0
M  END
>  <MODEL>
9

>  <REMARK>
 VINA RESULT:      -7.4      2.537      4.728
  Name = 
  7 active torsions:
  status: ('A' for Active; 'I' for Inactive)
    1  A    between atoms: C_5  and  C_29
    2  A    between atoms: C_6  and  N_45
    3  A    between atoms: C_9  and  C_28
    4  A    between atoms: N_10  and  C_28
    5  A    between atoms: C_12  and  N_23
    6  A    between atoms: C_13  and  C_51
    7  A    between atoms: C_14  and  N_24
                            x       y       z     vdW  Elec       q    Type
                         _______ _______ _______ _____ _____    ______ ____

>  <TORSDO>
F 7

$$$$
